
     RDKit          2D

 11 12  0  0  0  0  0  0  0  0999 V2000
   -1.5000   -5.1962    0.0000 N   0  0  0  0  0  0  0  0  0  0  0  0
   -0.7500   -3.8971    0.0000 C   0  0  0  0  0  0  0  0  0  0  0  0
    0.7500   -3.8971    0.0000 C   0  0  0  0  0  0  0  0  0  0  0  0
    1.5000   -2.5981    0.0000 C   0  0  0  0  0  0  0  0  0  0  0  0
    0.7500   -1.2990    0.0000 C   0  0  0  0  0  0  0  0  0  0  0  0
    1.5000    0.0000    0.0000 C   0  0  0  0  0  0  0  0  0  0  0  0
    0.7500    1.2990    0.0000 N   0  0  0  0  0  0  0  0  0  0  0  0
   -0.7500    1.2990    0.0000 C   0  0  0  0  0  0  0  0  0  0  0  0
   -1.5000    0.0000    0.0000 N   0  0  0  0  0  0  0  0  0  0  0  0
   -0.7500   -1.2990    0.0000 C   0  0  0  0  0  0  0  0  0  0  0  0
   -1.5000   -2.5981    0.0000 C   0  0  0  0  0  0  0  0  0  0  0  0
  1  2  1  0
  2  3  2  0
  3  4  1  0
  4  5  2  0
  5  6  1  0
  6  7  2  0
  7  8  1  0
  8  9  2  0
  9 10  1  0
 10 11  2  0
 11  2  1  0
 10  5  1  0
M  END
>  <Compound_ID>  (1) 
CHEMBL55729

>  <Active>  (1) 
1.0

>  <Smiles>  (1) 
Nc1ccc2cncnc2c1

>  <canonical_smi>  (1) 
Nc1ccc2cncnc2c1

>  <Set>  (1) 
G1 active

>  <Set_type>  (1) 
G1

>  <MW>  (1) 
145.17

>  <HBD>  (1) 
1

>  <HBA>  (1) 
3

>  <NRB>  (1) 
0

>  <NR>  (1) 
2

>  <NAR>  (1) 
2

>  <PSA>  (1) 
51.8

>  <Standard Type>  (1) 
nan

>  <Standard Relation>  (1) 
nan

>  <Standard Units>  (1) 
nan

>  <Standard Value>  (1) 
nan

>  <Assay ChEMBL ID>  (1) 
nan

>  <Assay Description>  (1) 
nan

>  <BAO Label>  (1) 
nan

$$$$

     RDKit          2D

 34 37  0  0  0  0  0  0  0  0999 V2000
   -3.0000   -7.7942    0.0000 C   0  0  0  0  0  0  0  0  0  0  0  0
   -3.7500   -6.4952    0.0000 C   0  0  0  0  0  0  0  0  0  0  0  0
   -3.0000   -5.1962    0.0000 C   0  0  0  0  0  0  0  0  0  0  0  0
   -1.5000   -5.1962    0.0000 O   0  0  0  0  0  0  0  0  0  0  0  0
   -3.7500   -3.8971    0.0000 N   0  0  0  0  0  0  0  0  0  0  0  0
   -3.0000   -2.5981    0.0000 C   0  0  0  0  0  0  0  0  0  0  0  0
   -1.5000   -2.5981    0.0000 N   0  0  0  0  0  0  0  0  0  0  0  0
   -0.7500   -1.2990    0.0000 C   0  0  0  0  0  0  0  0  0  0  0  0
    0.7500   -1.2990    0.0000 C   0  0  0  0  0  0  0  0  0  0  0  0
    1.5000   -2.5981    0.0000 C   0  0  0  0  0  0  0  0  0  0  0  0
    3.0000   -2.5981    0.0000 C   0  0  0  0  0  0  0  0  0  0  0  0
    3.7500   -3.8971    0.0000 C   0  0  0  0  0  0  0  0  0  0  0  0
    5.2500   -3.8971    0.0000 C   0  0  0  0  0  0  0  0  0  0  0  0
    6.0000   -2.5981    0.0000 C   0  0  0  0  0  0  0  0  0  0  0  0
    7.5000   -2.5981    0.0000 F   0  0  0  0  0  0  0  0  0  0  0  0
    5.2500   -1.2990    0.0000 C   0  0  0  0  0  0  0  0  0  0  0  0
    6.0000   -0.0000    0.0000 Cl  0  0  0  0  0  0  0  0  0  0  0  0
    3.7500   -1.2990    0.0000 C   0  0  0  0  0  0  0  0  0  0  0  0
    1.5000    0.0000    0.0000 N   0  0  0  0  0  0  0  0  0  0  0  0
    0.7500    1.2990    0.0000 C   0  0  0  0  0  0  0  0  0  0  0  0
   -0.7500    1.2990    0.0000 N   0  0  0  0  0  0  0  0  0  0  0  0
   -1.5000    0.0000    0.0000 C   0  0  0  0  0  0  0  0  0  0  0  0
   -3.0000    0.0000    0.0000 C   0  0  0  0  0  0  0  0  0  0  0  0
   -3.7500   -1.2990    0.0000 C   0  0  0  0  0  0  0  0  0  0  0  0
   -5.2500   -1.2990    0.0000 C   0  0  0  0  0  0  0  0  0  0  0  0
   -6.0000   -2.5981    0.0000 C   0  0  0  0  0  0  0  0  0  0  0  0
   -7.5000   -2.5981    0.0000 C   0  0  0  0  0  0  0  0  0  0  0  0
   -8.2500   -3.8971    0.0000 C   0  0  0  0  0  0  0  0  0  0  0  0
   -9.7500   -3.8971    0.0000 N   0  0  0  0  0  0  0  0  0  0  0  0
  -10.5000   -2.5981    0.0000 C   0  0  0  0  0  0  0  0  0  0  0  0
  -12.0000   -2.5981    0.0000 C   0  0  0  0  0  0  0  0  0  0  0  0
  -12.7500   -3.8971    0.0000 O   0  0  0  0  0  0  0  0  0  0  0  0
  -12.0000   -5.1962    0.0000 C   0  0  0  0  0  0  0  0  0  0  0  0
  -10.5000   -5.1962    0.0000 C   0  0  0  0  0  0  0  0  0  0  0  0
  1  2  2  0
  2  3  1  0
  3  4  2  0
  3  5  1  0
  5  6  1  0
  6  7  2  0
  7  8  1  0
  8  9  2  0
  9 10  1  0
 10 11  1  0
 11 12  2  0
 12 13  1  0
 13 14  2  0
 14 15  1  0
 14 16  1  0
 16 17  1  0
 16 18  2  0
  9 19  1  0
 19 20  2  0
 20 21  1  0
 21 22  2  0
 22 23  1  0
 23 24  2  0
 24 25  1  0
 25 26  2  0
 26 27  1  0
 27 28  1  0
 28 29  1  0
 29 30  1  0
 30 31  1  0
 31 32  1  0
 32 33  1  0
 33 34  1  0
 24  6  1  0
 34 29  1  0
 22  8  1  0
 18 11  1  0
M  END
>  <Compound_ID>  (2) 
CHEMBL490496

>  <Active>  (2) 
1.0

>  <Smiles>  (2) 
C=CC(=O)Nc1nc2c(Cc3ccc(F)c(Cl)c3)ncnc2cc1/C=C/CCN1CCOCC1

>  <canonical_smi>  (2) 
C=CC(=O)Nc1nc2c(Cc3ccc(F)c(Cl)c3)ncnc2cc1/C=C/CCN1CCOCC1

>  <Set>  (2) 
G1 active

>  <Set_type>  (2) 
G1

>  <MW>  (2) 
481.96

>  <HBD>  (2) 
1

>  <HBA>  (2) 
6

>  <NRB>  (2) 
8

>  <NR>  (2) 
4

>  <NAR>  (2) 
3

>  <PSA>  (2) 
80.24

>  <Standard Type>  (2) 
nan

>  <Standard Relation>  (2) 
nan

>  <Standard Units>  (2) 
nan

>  <Standard Value>  (2) 
nan

>  <Assay ChEMBL ID>  (2) 
nan

>  <Assay Description>  (2) 
nan

>  <BAO Label>  (2) 
nan

$$$$

     RDKit          2D

 32 36  0  0  0  0  0  0  0  0999 V2000
   -0.7500   -3.8971    0.0000 O   0  0  0  0  0  0  0  0  0  0  0  0
    0.7500   -3.8971    0.0000 C   0  0  0  0  0  0  0  0  0  0  0  0
    1.5000   -5.1962    0.0000 C   0  0  0  0  0  0  0  0  0  0  0  0
    0.7500   -6.4952    0.0000 N   0  0  0  0  0  0  0  0  0  0  0  0
   -0.7418   -6.6520    0.0000 S   0  0  0  0  0  0  0  0  0  0  0  0
   -1.0537   -8.1192    0.0000 C   0  0  0  0  0  0  0  0  0  0  0  0
   -2.3527   -8.8692    0.0000 C   0  0  0  0  0  0  0  0  0  0  0  0
   -2.3527  -10.3692    0.0000 C   0  0  0  0  0  0  0  0  0  0  0  0
   -1.0537  -11.1192    0.0000 C   0  0  0  0  0  0  0  0  0  0  0  0
    0.2454  -10.3692    0.0000 C   0  0  0  0  0  0  0  0  0  0  0  0
    0.2454   -8.8692    0.0000 C   0  0  0  0  0  0  0  0  0  0  0  0
    1.3601   -7.8655    0.0000 C   0  0  0  0  0  0  0  0  0  0  0  0
    2.8273   -8.1774    0.0000 O   0  0  0  0  0  0  0  0  0  0  0  0
    1.5000   -2.5981    0.0000 N   0  0  0  0  0  0  0  0  0  0  0  0
    0.7500   -1.2990    0.0000 C   0  0  0  0  0  0  0  0  0  0  0  0
    1.5000    0.0000    0.0000 C   0  0  0  0  0  0  0  0  0  0  0  0
    0.7500    1.2990    0.0000 C   0  0  0  0  0  0  0  0  0  0  0  0
   -0.7500    1.2990    0.0000 C   0  0  0  0  0  0  0  0  0  0  0  0
   -1.5000    2.5981    0.0000 N   0  0  0  0  0  0  0  0  0  0  0  0
   -3.0000    2.5981    0.0000 C   0  0  0  0  0  0  0  0  0  0  0  0
   -3.7500    1.2990    0.0000 N   0  0  0  0  0  0  0  0  0  0  0  0
   -3.0000    0.0000    0.0000 C   0  0  0  0  0  0  0  0  0  0  0  0
   -3.7500   -1.2990    0.0000 N   0  0  0  0  0  0  0  0  0  0  0  0
   -5.2500   -1.2990    0.0000 C   0  0  0  0  0  0  0  0  0  0  0  0
   -6.0000    0.0000    0.0000 C   0  0  0  0  0  0  0  0  0  0  0  0
   -7.5000    0.0000    0.0000 C   0  0  0  0  0  0  0  0  0  0  0  0
   -8.2500   -1.2990    0.0000 C   0  0  0  0  0  0  0  0  0  0  0  0
   -7.5000   -2.5981    0.0000 C   0  0  0  0  0  0  0  0  0  0  0  0
   -8.2500   -3.8971    0.0000 Br  0  0  0  0  0  0  0  0  0  0  0  0
   -6.0000   -2.5981    0.0000 C   0  0  0  0  0  0  0  0  0  0  0  0
   -1.5000    0.0000    0.0000 C   0  0  0  0  0  0  0  0  0  0  0  0
   -0.7500   -1.2990    0.0000 C   0  0  0  0  0  0  0  0  0  0  0  0
  1  2  2  0
  2  3  1  0
  3  4  1  0
  4  5  1  0
  5  6  1  0
  6  7  2  0
  7  8  1  0
  8  9  2  0
  9 10  1  0
 10 11  2  0
 11 12  1  0
 12 13  2  0
  2 14  1  0
 14 15  1  0
 15 16  2  0
 16 17  1  0
 17 18  2  0
 18 19  1  0
 19 20  2  0
 20 21  1  0
 21 22  2  0
 22 23  1  0
 23 24  1  0
 24 25  2  0
 25 26  1  0
 26 27  2  0
 27 28  1  0
 28 29  1  0
 28 30  2  0
 22 31  1  0
 31 32  2  0
 12  4  1  0
 32 15  1  0
 11  6  1  0
 31 18  1  0
 30 24  1  0
M  END
>  <Compound_ID>  (3) 
CHEMBL599047

>  <Active>  (3) 
1.0

>  <Smiles>  (3) 
O=C(Cn1sc2ccccc2c1=O)Nc1ccc2ncnc(Nc3cccc(Br)c3)c2c1

>  <canonical_smi>  (3) 
O=C(Cn1sc2ccccc2c1=O)Nc1ccc2ncnc(Nc3cccc(Br)c3)c2c1

>  <Set>  (3) 
G1 active

>  <Set_type>  (3) 
G1

>  <MW>  (3) 
506.39

>  <HBD>  (3) 
2

>  <HBA>  (3) 
5

>  <NRB>  (3) 
5

>  <NR>  (3) 
5

>  <NAR>  (3) 
5

>  <PSA>  (3) 
88.91

>  <Standard Type>  (3) 
nan

>  <Standard Relation>  (3) 
nan

>  <Standard Units>  (3) 
nan

>  <Standard Value>  (3) 
nan

>  <Assay ChEMBL ID>  (3) 
nan

>  <Assay Description>  (3) 
nan

>  <BAO Label>  (3) 
nan

$$$$

     RDKit          2D

 18 19  0  0  0  0  0  0  0  0999 V2000
    3.0000    0.0000    0.0000 C   0  0  0  0  0  0  0  0  0  0  0  0
    1.5000    0.0000    0.0000 C   0  0  0  0  0  0  0  0  0  0  0  0
    0.7500   -1.2990    0.0000 C   0  0  0  0  0  0  0  0  0  0  0  0
   -0.7500   -1.2990    0.0000 C   0  0  0  0  0  0  0  0  0  0  0  0
   -1.5000    0.0000    0.0000 C   0  0  0  0  0  0  0  0  0  0  0  0
   -0.7500    1.2990    0.0000 C   0  0  0  0  0  0  0  0  0  0  0  0
   -1.5000    2.5981    0.0000 N   0  0  0  0  0  0  0  0  0  0  0  0
   -0.7500    3.8971    0.0000 C   0  0  0  0  0  0  0  0  0  0  0  0
    0.7500    3.8971    0.0000 C   0  0  0  0  0  0  0  0  0  0  0  0
    1.5000    5.1962    0.0000 C   0  0  0  0  0  0  0  0  0  0  0  0
    3.0000    5.1962    0.0000 N   0  0  0  0  0  0  0  0  0  0  0  0
    3.7500    3.8971    0.0000 C   0  0  0  0  0  0  0  0  0  0  0  0
    5.2500    3.8971    0.0000 C   0  0  0  0  0  0  0  0  0  0  0  0
    6.0000    2.5981    0.0000 O   0  0  0  0  0  0  0  0  0  0  0  0
    0.7500    6.4952    0.0000 N   0  0  0  0  0  0  0  0  0  0  0  0
   -0.7500    6.4952    0.0000 C   0  0  0  0  0  0  0  0  0  0  0  0
   -1.5000    5.1962    0.0000 N   0  0  0  0  0  0  0  0  0  0  0  0
    0.7500    1.2990    0.0000 C   0  0  0  0  0  0  0  0  0  0  0  0
  1  2  1  0
  2  3  2  0
  3  4  1  0
  4  5  2  0
  5  6  1  0
  6  7  1  0
  7  8  1  0
  8  9  2  0
  9 10  1  0
 10 11  1  0
 11 12  1  0
 12 13  1  0
 13 14  1  0
 10 15  2  0
 15 16  1  0
 16 17  2  0
  6 18  2  0
 18  2  1  0
 17  8  1  0
M  END
>  <Compound_ID>  (4) 
CHEMBL415738

>  <Active>  (4) 
1.0

>  <Smiles>  (4) 
Cc1cccc(Nc2cc(NCCO)ncn2)c1

>  <canonical_smi>  (4) 
Cc1cccc(Nc2cc(NCCO)ncn2)c1

>  <Set>  (4) 
G1 active

>  <Set_type>  (4) 
G1

>  <MW>  (4) 
244.3

>  <HBD>  (4) 
3

>  <HBA>  (4) 
5

>  <NRB>  (4) 
5

>  <NR>  (4) 
2

>  <NAR>  (4) 
2

>  <PSA>  (4) 
70.07

>  <Standard Type>  (4) 
nan

>  <Standard Relation>  (4) 
nan

>  <Standard Units>  (4) 
nan

>  <Standard Value>  (4) 
nan

>  <Assay ChEMBL ID>  (4) 
nan

>  <Assay Description>  (4) 
nan

>  <BAO Label>  (4) 
nan

$$$$

     RDKit          2D

 30 32  0  0  0  0  0  0  0  0999 V2000
    3.7500   -9.0933    0.0000 C   0  0  0  0  0  0  0  0  0  0  0  0
    3.0000   -7.7942    0.0000 C   0  0  0  0  0  0  0  0  0  0  0  0
    3.7500   -6.4952    0.0000 N   0  0  0  0  0  0  0  0  0  0  0  0
    5.2500   -6.4952    0.0000 C   0  0  0  0  0  0  0  0  0  0  0  0
    6.0000   -7.7942    0.0000 C   0  0  0  0  0  0  0  0  0  0  0  0
    3.0000   -5.1962    0.0000 C   0  0  0  0  0  0  0  0  0  0  0  0
    1.7010   -5.9462    0.0000 C   0  0  0  0  0  0  0  0  0  0  0  0
    2.2500   -3.8971    0.0000 C   0  0  0  0  0  0  0  0  0  0  0  0
    1.5000   -2.5981    0.0000 C   0  0  0  0  0  0  0  0  0  0  0  0
    0.7500   -1.2990    0.0000 C   0  0  0  0  0  0  0  0  0  0  0  0
    1.5000    0.0000    0.0000 N   0  0  0  0  0  0  0  0  0  0  0  0
    0.7500    1.2990    0.0000 C   0  0  0  0  0  0  0  0  0  0  0  0
   -0.7500    1.2990    0.0000 N   0  0  0  0  0  0  0  0  0  0  0  0
   -1.5000    0.0000    0.0000 C   0  0  0  0  0  0  0  0  0  0  0  0
   -3.0000    0.0000    0.0000 C   0  0  0  0  0  0  0  0  0  0  0  0
   -3.7500   -1.2990    0.0000 C   0  0  0  0  0  0  0  0  0  0  0  0
   -5.2500   -1.2990    0.0000 O   0  0  0  0  0  0  0  0  0  0  0  0
   -6.0000    0.0000    0.0000 C   0  0  0  0  0  0  0  0  0  0  0  0
   -3.0000   -2.5981    0.0000 C   0  0  0  0  0  0  0  0  0  0  0  0
   -3.7500   -3.8971    0.0000 O   0  0  0  0  0  0  0  0  0  0  0  0
   -5.2500   -3.8971    0.0000 C   0  0  0  0  0  0  0  0  0  0  0  0
   -1.5000   -2.5981    0.0000 C   0  0  0  0  0  0  0  0  0  0  0  0
   -0.7500   -1.2990    0.0000 C   0  0  0  0  0  0  0  0  0  0  0  0
    4.2990   -4.4462    0.0000 C   0  0  0  0  0  0  0  0  0  0  0  0
    4.2990   -2.9462    0.0000 C   0  0  0  0  0  0  0  0  0  0  0  0
    5.5981   -2.1962    0.0000 C   0  0  0  0  0  0  0  0  0  0  0  0
    5.5981   -0.6962    0.0000 C   0  0  0  0  0  0  0  0  0  0  0  0
    4.2990    0.0538    0.0000 C   0  0  0  0  0  0  0  0  0  0  0  0
    3.0000   -0.6962    0.0000 C   0  0  0  0  0  0  0  0  0  0  0  0
    3.0000   -2.1962    0.0000 C   0  0  0  0  0  0  0  0  0  0  0  0
  1  2  1  0
  2  3  1  0
  3  4  1  0
  4  5  1  0
  3  6  1  0
  6  7  1  0
  6  8  1  0
  8  9  3  0
  9 10  1  0
 10 11  2  0
 11 12  1  0
 12 13  2  0
 13 14  1  0
 14 15  2  0
 15 16  1  0
 16 17  1  0
 17 18  1  0
 16 19  2  0
 19 20  1  0
 20 21  1  0
 19 22  1  0
 22 23  2  0
  6 24  1  0
 24 25  1  0
 25 26  2  0
 26 27  1  0
 27 28  2  0
 28 29  1  0
 29 30  2  0
 23 10  1  0
 30 25  1  0
 23 14  1  0
M  END
>  <Compound_ID>  (5) 
CHEMBL429300

>  <Active>  (5) 
1.0

>  <Smiles>  (5) 
CCN(CC)C(C)(C#Cc1ncnc2cc(OC)c(OC)cc12)Cc1ccccc1

>  <canonical_smi>  (5) 
CCN(CC)C(C)(C#Cc1ncnc2cc(OC)c(OC)cc12)Cc1ccccc1

>  <Set>  (5) 
G1 active

>  <Set_type>  (5) 
G1

>  <MW>  (5) 
403.53

>  <HBD>  (5) 
0

>  <HBA>  (5) 
5

>  <NRB>  (5) 
7

>  <NR>  (5) 
3

>  <NAR>  (5) 
3

>  <PSA>  (5) 
47.48

>  <Standard Type>  (5) 
nan

>  <Standard Relation>  (5) 
nan

>  <Standard Units>  (5) 
nan

>  <Standard Value>  (5) 
nan

>  <Assay ChEMBL ID>  (5) 
nan

>  <Assay Description>  (5) 
nan

>  <BAO Label>  (5) 
nan

$$$$

     RDKit          2D

 21 23  0  0  0  0  0  0  0  0999 V2000
    3.7500   -1.2990    0.0000 C   0  0  0  0  0  0  0  0  0  0  0  0
    3.0000    0.0000    0.0000 N   0  0  0  0  0  0  0  0  0  0  0  0
    1.5000    0.0000    0.0000 C   0  0  0  0  0  0  0  0  0  0  0  0
    0.7500   -1.2990    0.0000 C   0  0  0  0  0  0  0  0  0  0  0  0
   -0.7500   -1.2990    0.0000 C   0  0  0  0  0  0  0  0  0  0  0  0
   -1.5000   -2.5981    0.0000 N   0  0  0  0  0  0  0  0  0  0  0  0
   -3.0000   -2.5981    0.0000 C   0  0  0  0  0  0  0  0  0  0  0  0
   -3.7500   -1.2990    0.0000 N   0  0  0  0  0  0  0  0  0  0  0  0
   -5.2500   -1.2990    0.0000 C   0  0  0  0  0  0  0  0  0  0  0  0
   -3.0000    0.0000    0.0000 C   0  0  0  0  0  0  0  0  0  0  0  0
   -3.7500    1.2990    0.0000 N   0  0  0  0  0  0  0  0  0  0  0  0
   -5.2500    1.2990    0.0000 C   0  0  0  0  0  0  0  0  0  0  0  0
   -6.0000    2.5981    0.0000 C   0  0  0  0  0  0  0  0  0  0  0  0
   -7.5000    2.5981    0.0000 C   0  0  0  0  0  0  0  0  0  0  0  0
   -8.2500    1.2990    0.0000 C   0  0  0  0  0  0  0  0  0  0  0  0
   -7.5000   -0.0000    0.0000 C   0  0  0  0  0  0  0  0  0  0  0  0
   -8.2500   -1.2990    0.0000 Br  0  0  0  0  0  0  0  0  0  0  0  0
   -6.0000   -0.0000    0.0000 C   0  0  0  0  0  0  0  0  0  0  0  0
   -1.5000    0.0000    0.0000 C   0  0  0  0  0  0  0  0  0  0  0  0
   -0.7500    1.2990    0.0000 C   0  0  0  0  0  0  0  0  0  0  0  0
    0.7500    1.2990    0.0000 N   0  0  0  0  0  0  0  0  0  0  0  0
  1  2  1  0
  2  3  1  0
  3  4  2  0
  4  5  1  0
  5  6  1  0
  6  7  2  0
  7  8  1  0
  8  9  1  0
  8 10  1  0
 10 11  2  0
 11 12  1  0
 12 13  2  0
 13 14  1  0
 14 15  2  0
 15 16  1  0
 16 17  1  0
 16 18  2  0
 10 19  1  0
 19 20  1  0
 20 21  2  0
 21  3  1  0
 19  5  1  0
 18 12  1  0
M  END
>  <Compound_ID>  (6) 
CHEMBL52882

>  <Active>  (6) 
1.0

>  <Smiles>  (6) 
CNC1=CC2N=CN(C)/C(=N\c3cccc(Br)c3)C2C=N1

>  <canonical_smi>  (6) 
CNC1=CC2N=CN(C)/C(=N\c3cccc(Br)c3)C2C=N1

>  <Set>  (6) 
G1 active

>  <Set_type>  (6) 
G1

>  <MW>  (6) 
346.23

>  <HBD>  (6) 
1

>  <HBA>  (6) 
2

>  <NRB>  (6) 
2

>  <NR>  (6) 
3

>  <NAR>  (6) 
1

>  <PSA>  (6) 
52.35

>  <Standard Type>  (6) 
nan

>  <Standard Relation>  (6) 
nan

>  <Standard Units>  (6) 
nan

>  <Standard Value>  (6) 
nan

>  <Assay ChEMBL ID>  (6) 
nan

>  <Assay Description>  (6) 
nan

>  <BAO Label>  (6) 
nan

$$$$

     RDKit          2D

 29 32  0  0  0  0  0  0  0  0999 V2000
   -4.6904   -6.5871    0.0000 C   0  0  0  0  0  0  0  0  0  0  0  0
   -4.3786   -5.1199    0.0000 C   0  0  0  0  0  0  0  0  0  0  0  0
   -2.9520   -4.6564    0.0000 C   0  0  0  0  0  0  0  0  0  0  0  0
   -1.8373   -5.6601    0.0000 O   0  0  0  0  0  0  0  0  0  0  0  0
   -2.6401   -3.1891    0.0000 N   0  0  0  0  0  0  0  0  0  0  0  0
   -1.2135   -2.7256    0.0000 C   0  0  0  0  0  0  0  0  0  0  0  0
   -0.0000   -3.6073    0.0000 C   0  0  0  0  0  0  0  0  0  0  0  0
    1.2135   -2.7256    0.0000 C   0  0  0  0  0  0  0  0  0  0  0  0
    0.7500   -1.2990    0.0000 C   0  0  0  0  0  0  0  0  0  0  0  0
    1.5000    0.0000    0.0000 N   0  0  0  0  0  0  0  0  0  0  0  0
    0.7500    1.2990    0.0000 C   0  0  0  0  0  0  0  0  0  0  0  0
   -0.7500    1.2990    0.0000 N   0  0  0  0  0  0  0  0  0  0  0  0
   -1.5000    0.0000    0.0000 C   0  0  0  0  0  0  0  0  0  0  0  0
   -3.0000    0.0000    0.0000 N   0  0  0  0  0  0  0  0  0  0  0  0
   -3.7500    1.2990    0.0000 C   0  0  0  0  0  0  0  0  0  0  0  0
   -3.0000    2.5981    0.0000 C   0  0  0  0  0  0  0  0  0  0  0  0
   -3.7500    3.8971    0.0000 C   0  0  0  0  0  0  0  0  0  0  0  0
   -5.2500    3.8971    0.0000 C   0  0  0  0  0  0  0  0  0  0  0  0
   -6.0000    5.1962    0.0000 O   0  0  0  0  0  0  0  0  0  0  0  0
   -5.2500    6.4952    0.0000 C   0  0  0  0  0  0  0  0  0  0  0  0
   -6.0000    7.7942    0.0000 C   0  0  0  0  0  0  0  0  0  0  0  0
   -5.2500    9.0933    0.0000 C   0  0  0  0  0  0  0  0  0  0  0  0
   -6.0000   10.3923    0.0000 C   0  0  0  0  0  0  0  0  0  0  0  0
   -7.5000   10.3923    0.0000 C   0  0  0  0  0  0  0  0  0  0  0  0
   -8.2500    9.0933    0.0000 C   0  0  0  0  0  0  0  0  0  0  0  0
   -7.5000    7.7942    0.0000 C   0  0  0  0  0  0  0  0  0  0  0  0
   -6.0000    2.5981    0.0000 C   0  0  0  0  0  0  0  0  0  0  0  0
   -5.2500    1.2990    0.0000 C   0  0  0  0  0  0  0  0  0  0  0  0
   -0.7500   -1.2990    0.0000 C   0  0  0  0  0  0  0  0  0  0  0  0
  1  2  2  0
  2  3  1  0
  3  4  2  0
  3  5  1  0
  5  6  1  0
  6  7  2  0
  7  8  1  0
  8  9  2  0
  9 10  1  0
 10 11  2  0
 11 12  1  0
 12 13  2  0
 13 14  1  0
 14 15  1  0
 15 16  2  0
 16 17  1  0
 17 18  2  0
 18 19  1  0
 19 20  1  0
 20 21  1  0
 21 22  2  0
 22 23  1  0
 23 24  2  0
 24 25  1  0
 25 26  2  0
 18 27  1  0
 27 28  2  0
 13 29  1  0
 29  6  1  0
 29  9  1  0
 28 15  1  0
 26 21  1  0
M  END
>  <Compound_ID>  (7) 
CHEMBL472746

>  <Active>  (7) 
1.0

>  <Smiles>  (7) 
C=CC(=O)NC1=CC=C2N=CN=C(Nc3ccc(OCc4ccccc4)cc3)C21

>  <canonical_smi>  (7) 
C=CC(=O)NC1=CC=C2N=CN=C(Nc3ccc(OCc4ccccc4)cc3)C21

>  <Set>  (7) 
G1 active

>  <Set_type>  (7) 
G1

>  <MW>  (7) 
384.44

>  <HBD>  (7) 
2

>  <HBA>  (7) 
3

>  <NRB>  (7) 
6

>  <NR>  (7) 
4

>  <NAR>  (7) 
2

>  <PSA>  (7) 
75.08

>  <Standard Type>  (7) 
nan

>  <Standard Relation>  (7) 
nan

>  <Standard Units>  (7) 
nan

>  <Standard Value>  (7) 
nan

>  <Assay ChEMBL ID>  (7) 
nan

>  <Assay Description>  (7) 
nan

>  <BAO Label>  (7) 
nan

$$$$

     RDKit          2D

 36 40  0  0  0  0  0  0  0  0999 V2000
   -7.8555   -8.9814    0.0000 C   0  0  0  0  0  0  0  0  0  0  0  0
   -6.4289   -8.5179    0.0000 C   0  0  0  0  0  0  0  0  0  0  0  0
   -6.1170   -7.0506    0.0000 C   0  0  0  0  0  0  0  0  0  0  0  0
   -7.2317   -6.0469    0.0000 O   0  0  0  0  0  0  0  0  0  0  0  0
   -4.6904   -6.5871    0.0000 N   0  0  0  0  0  0  0  0  0  0  0  0
   -4.3786   -5.1199    0.0000 C   0  0  0  0  0  0  0  0  0  0  0  0
   -5.4933   -4.1162    0.0000 C   0  0  0  0  0  0  0  0  0  0  0  0
   -5.1814   -2.6490    0.0000 C   0  0  0  0  0  0  0  0  0  0  0  0
   -3.7548   -2.1855    0.0000 C   0  0  0  0  0  0  0  0  0  0  0  0
   -2.6401   -3.1891    0.0000 C   0  0  0  0  0  0  0  0  0  0  0  0
   -1.2135   -2.7256    0.0000 C   0  0  0  0  0  0  0  0  0  0  0  0
   -0.0000   -3.6073    0.0000 C   0  0  0  0  0  0  0  0  0  0  0  0
   -0.0000   -5.1073    0.0000 C   0  0  0  0  0  0  0  0  0  0  0  0
   -1.2990   -5.8573    0.0000 C   0  0  0  0  0  0  0  0  0  0  0  0
   -1.2990   -7.3573    0.0000 C   0  0  0  0  0  0  0  0  0  0  0  0
   -0.0000   -8.1073    0.0000 C   0  0  0  0  0  0  0  0  0  0  0  0
    1.2990   -7.3573    0.0000 C   0  0  0  0  0  0  0  0  0  0  0  0
    1.2990   -5.8573    0.0000 C   0  0  0  0  0  0  0  0  0  0  0  0
    1.2135   -2.7256    0.0000 O   0  0  0  0  0  0  0  0  0  0  0  0
    0.7500   -1.2990    0.0000 C   0  0  0  0  0  0  0  0  0  0  0  0
    1.5000    0.0000    0.0000 N   0  0  0  0  0  0  0  0  0  0  0  0
    0.7500    1.2990    0.0000 C   0  0  0  0  0  0  0  0  0  0  0  0
   -0.7500    1.2990    0.0000 N   0  0  0  0  0  0  0  0  0  0  0  0
   -1.5000    0.0000    0.0000 C   0  0  0  0  0  0  0  0  0  0  0  0
   -3.0000    0.0000    0.0000 N   0  0  0  0  0  0  0  0  0  0  0  0
   -3.7500    1.2990    0.0000 C   0  0  0  0  0  0  0  0  0  0  0  0
   -3.0000    2.5981    0.0000 C   0  0  0  0  0  0  0  0  0  0  0  0
   -3.7500    3.8971    0.0000 O   0  0  0  0  0  0  0  0  0  0  0  0
   -5.2500    1.2990    0.0000 C   0  0  0  0  0  0  0  0  0  0  0  0
   -6.0000    2.5981    0.0000 C   0  0  0  0  0  0  0  0  0  0  0  0
   -7.5000    2.5981    0.0000 C   0  0  0  0  0  0  0  0  0  0  0  0
   -8.2500    1.2990    0.0000 C   0  0  0  0  0  0  0  0  0  0  0  0
   -7.5000    0.0000    0.0000 C   0  0  0  0  0  0  0  0  0  0  0  0
   -6.0000    0.0000    0.0000 C   0  0  0  0  0  0  0  0  0  0  0  0
   -0.7500   -1.2990    0.0000 C   0  0  0  0  0  0  0  0  0  0  0  0
   -2.9520   -4.6564    0.0000 C   0  0  0  0  0  0  0  0  0  0  0  0
  1  2  2  0
  2  3  1  0
  3  4  2  0
  3  5  1  0
  5  6  1  0
  6  7  2  0
  7  8  1  0
  8  9  2  0
  9 10  1  0
 10 11  1  0
 11 12  2  0
 12 13  1  0
 13 14  2  0
 14 15  1  0
 15 16  2  0
 16 17  1  0
 17 18  2  0
 12 19  1  0
 19 20  1  0
 20 21  2  0
 21 22  1  0
 22 23  2  0
 23 24  1  0
 24 25  1  0
 25 26  1  0
 26 27  1  6
 27 28  1  0
 26 29  1  0
 29 30  2  0
 30 31  1  0
 31 32  2  0
 32 33  1  0
 33 34  2  0
 24 35  2  0
 10 36  2  0
 36  6  1  0
 35 11  1  0
 18 13  1  0
 35 20  1  0
 34 29  1  0
M  END
>  <Compound_ID>  (8) 
CHEMBL1172843

>  <Active>  (8) 
1.0

>  <Smiles>  (8) 
C=CC(=O)Nc1cccc(-c2c(-c3ccccc3)oc3ncnc(N[C@@H](CO)c4ccccc4)c23)c1

>  <canonical_smi>  (8) 
C=CC(=O)Nc1cccc(-c2c(-c3ccccc3)oc3ncnc(N[C@@H](CO)c4ccccc4)c23)c1

>  <Set>  (8) 
G1 active

>  <Set_type>  (8) 
G1

>  <MW>  (8) 
476.54

>  <HBD>  (8) 
3

>  <HBA>  (8) 
6

>  <NRB>  (8) 
8

>  <NR>  (8) 
5

>  <NAR>  (8) 
5

>  <PSA>  (8) 
100.28

>  <Standard Type>  (8) 
nan

>  <Standard Relation>  (8) 
nan

>  <Standard Units>  (8) 
nan

>  <Standard Value>  (8) 
nan

>  <Assay ChEMBL ID>  (8) 
nan

>  <Assay Description>  (8) 
nan

>  <BAO Label>  (8) 
nan

$$$$

     RDKit          2D

 24 27  0  0  0  0  0  0  0  0999 V2000
   -2.6401   -3.1891    0.0000 C   0  0  0  0  0  0  0  0  0  0  0  0
   -1.2135   -2.7256    0.0000 C   0  0  0  0  0  0  0  0  0  0  0  0
   -0.0000   -3.6073    0.0000 C   0  0  0  0  0  0  0  0  0  0  0  0
   -0.0000   -5.1073    0.0000 C   0  0  0  0  0  0  0  0  0  0  0  0
   -1.2990   -5.8573    0.0000 C   0  0  0  0  0  0  0  0  0  0  0  0
   -1.2990   -7.3573    0.0000 C   0  0  0  0  0  0  0  0  0  0  0  0
   -0.0000   -8.1073    0.0000 C   0  0  0  0  0  0  0  0  0  0  0  0
    1.2990   -7.3573    0.0000 C   0  0  0  0  0  0  0  0  0  0  0  0
    1.2990   -5.8573    0.0000 C   0  0  0  0  0  0  0  0  0  0  0  0
    1.2135   -2.7256    0.0000 N   0  0  0  0  0  0  0  0  0  0  0  0
    0.7500   -1.2990    0.0000 C   0  0  0  0  0  0  0  0  0  0  0  0
    1.5000    0.0000    0.0000 N   0  0  0  0  0  0  0  0  0  0  0  0
    0.7500    1.2990    0.0000 C   0  0  0  0  0  0  0  0  0  0  0  0
   -0.7500    1.2990    0.0000 N   0  0  0  0  0  0  0  0  0  0  0  0
   -1.5000    0.0000    0.0000 C   0  0  0  0  0  0  0  0  0  0  0  0
   -3.0000    0.0000    0.0000 N   0  0  0  0  0  0  0  0  0  0  0  0
   -3.7500    1.2990    0.0000 C   0  0  0  0  0  0  0  0  0  0  0  0
   -3.0000    2.5981    0.0000 C   0  0  0  0  0  0  0  0  0  0  0  0
   -3.7500    3.8971    0.0000 C   0  0  0  0  0  0  0  0  0  0  0  0
   -5.2500    3.8971    0.0000 C   0  0  0  0  0  0  0  0  0  0  0  0
   -6.0000    2.5981    0.0000 C   0  0  0  0  0  0  0  0  0  0  0  0
   -7.5000    2.5981    0.0000 Cl  0  0  0  0  0  0  0  0  0  0  0  0
   -5.2500    1.2990    0.0000 C   0  0  0  0  0  0  0  0  0  0  0  0
   -0.7500   -1.2990    0.0000 C   0  0  0  0  0  0  0  0  0  0  0  0
  1  2  1  0
  2  3  2  0
  3  4  1  0
  4  5  2  0
  5  6  1  0
  6  7  2  0
  7  8  1  0
  8  9  2  0
  3 10  1  0
 10 11  1  0
 11 12  2  0
 12 13  1  0
 13 14  2  0
 14 15  1  0
 15 16  1  0
 16 17  1  0
 17 18  2  0
 18 19  1  0
 19 20  2  0
 20 21  1  0
 21 22  1  0
 21 23  2  0
 15 24  2  0
 24  2  1  0
  9  4  1  0
 24 11  1  0
 23 17  1  0
M  END
>  <Compound_ID>  (9) 
CHEMBL311129

>  <Active>  (9) 
1.0

>  <Smiles>  (9) 
Cc1c(-c2ccccc2)[nH]c2ncnc(Nc3cccc(Cl)c3)c12

>  <canonical_smi>  (9) 
Cc1c(-c2ccccc2)[nH]c2ncnc(Nc3cccc(Cl)c3)c12

>  <Set>  (9) 
G1 active

>  <Set_type>  (9) 
G1

>  <MW>  (9) 
334.81

>  <HBD>  (9) 
2

>  <HBA>  (9) 
3

>  <NRB>  (9) 
3

>  <NR>  (9) 
4

>  <NAR>  (9) 
4

>  <PSA>  (9) 
53.6

>  <Standard Type>  (9) 
nan

>  <Standard Relation>  (9) 
nan

>  <Standard Units>  (9) 
nan

>  <Standard Value>  (9) 
nan

>  <Assay ChEMBL ID>  (9) 
nan

>  <Assay Description>  (9) 
nan

>  <BAO Label>  (9) 
nan

$$$$

     RDKit          2D

 24 27  0  0  0  0  0  0  0  0999 V2000
    3.7500   -3.8971    0.0000 C   0  0  0  0  0  0  0  0  0  0  0  0
    3.0000   -2.5981    0.0000 C   0  0  0  0  0  0  0  0  0  0  0  0
    1.5000   -2.5981    0.0000 N   0  0  0  0  0  0  0  0  0  0  0  0
    0.7500   -1.2990    0.0000 C   0  0  0  0  0  0  0  0  0  0  0  0
    1.5000    0.0000    0.0000 N   0  0  0  0  0  0  0  0  0  0  0  0
    0.7500    1.2990    0.0000 C   0  0  0  0  0  0  0  0  0  0  0  0
   -0.7500    1.2990    0.0000 N   0  0  0  0  0  0  0  0  0  0  0  0
   -1.5000    0.0000    0.0000 C   0  0  0  0  0  0  0  0  0  0  0  0
   -2.9672   -0.3119    0.0000 N   0  0  0  0  0  0  0  0  0  0  0  0
   -3.1240   -1.8037    0.0000 C   0  0  0  0  0  0  0  0  0  0  0  0
   -4.4231   -2.5537    0.0000 C   0  0  0  0  0  0  0  0  0  0  0  0
   -5.7221   -1.8037    0.0000 C   0  0  0  0  0  0  0  0  0  0  0  0
   -7.0211   -2.5537    0.0000 C   0  0  0  0  0  0  0  0  0  0  0  0
   -7.0211   -4.0537    0.0000 C   0  0  0  0  0  0  0  0  0  0  0  0
   -5.7221   -4.8037    0.0000 C   0  0  0  0  0  0  0  0  0  0  0  0
   -4.4231   -4.0537    0.0000 C   0  0  0  0  0  0  0  0  0  0  0  0
   -1.7537   -2.4138    0.0000 C   0  0  0  0  0  0  0  0  0  0  0  0
   -0.7500   -1.2990    0.0000 C   0  0  0  0  0  0  0  0  0  0  0  0
    3.7500   -1.2990    0.0000 C   0  0  0  0  0  0  0  0  0  0  0  0
    5.2500   -1.2990    0.0000 C   0  0  0  0  0  0  0  0  0  0  0  0
    6.0000   -0.0000    0.0000 C   0  0  0  0  0  0  0  0  0  0  0  0
    5.2500    1.2990    0.0000 C   0  0  0  0  0  0  0  0  0  0  0  0
    3.7500    1.2990    0.0000 C   0  0  0  0  0  0  0  0  0  0  0  0
    3.0000   -0.0000    0.0000 C   0  0  0  0  0  0  0  0  0  0  0  0
  2  1  1  1
  2  3  1  0
  3  4  1  0
  4  5  1  0
  5  6  1  0
  6  7  2  0
  7  8  1  0
  8  9  2  0
  9 10  1  0
 10 11  1  0
 11 12  2  0
 12 13  1  0
 13 14  2  0
 14 15  1  0
 15 16  2  0
 10 17  2  0
 17 18  1  0
  2 19  1  0
 19 20  2  0
 20 21  1  0
 21 22  2  0
 22 23  1  0
 23 24  2  0
 18  4  2  0
 24 19  1  0
 18  8  1  0
 16 11  1  0
M  END
>  <Compound_ID>  (10) 
CHEMBL105053

>  <Active>  (10) 
1.0

>  <Smiles>  (10) 
C[C@@H](Nc1[nH]cnc2nc(-c3ccccc3)cc1-2)c1ccccc1

>  <canonical_smi>  (10) 
C[C@@H](Nc1[nH]cnc2nc(-c3ccccc3)cc1-2)c1ccccc1

>  <Set>  (10) 
G1 active

>  <Set_type>  (10) 
G1

>  <MW>  (10) 
314.39

>  <HBD>  (10) 
2

>  <HBA>  (10) 
3

>  <NRB>  (10) 
4

>  <NR>  (10) 
4

>  <NAR>  (10) 
4

>  <PSA>  (10) 
53.6

>  <Standard Type>  (10) 
nan

>  <Standard Relation>  (10) 
nan

>  <Standard Units>  (10) 
nan

>  <Standard Value>  (10) 
nan

>  <Assay ChEMBL ID>  (10) 
nan

>  <Assay Description>  (10) 
nan

>  <BAO Label>  (10) 
nan

$$$$

     RDKit          2D

 43 47  0  0  0  0  0  0  0  0999 V2000
    5.2500   -1.2990    0.0000 C   0  0  0  0  0  0  0  0  0  0  0  0
    3.7500   -1.2990    0.0000 C   0  0  0  0  0  0  0  0  0  0  0  0
    3.0000    0.0000    0.0000 O   0  0  0  0  0  0  0  0  0  0  0  0
    1.5000    0.0000    0.0000 C   0  0  0  0  0  0  0  0  0  0  0  0
    0.7500   -1.2990    0.0000 C   0  0  0  0  0  0  0  0  0  0  0  0
   -0.7500   -1.2990    0.0000 C   0  0  0  0  0  0  0  0  0  0  0  0
   -1.5000   -2.5981    0.0000 N   0  0  0  0  0  0  0  0  0  0  0  0
   -3.0000   -2.5981    0.0000 C   0  0  0  0  0  0  0  0  0  0  0  0
   -3.7500   -1.2990    0.0000 C   0  0  0  0  0  0  0  0  0  0  0  0
   -5.2500   -1.2990    0.0000 C   0  0  0  0  0  0  0  0  0  0  0  0
   -6.7500   -1.2990    0.0000 N   0  0  0  0  0  0  0  0  0  0  0  0
   -3.0000    0.0000    0.0000 C   0  0  0  0  0  0  0  0  0  0  0  0
   -3.7500    1.2990    0.0000 N   0  0  0  0  0  0  0  0  0  0  0  0
   -3.0000    2.5981    0.0000 C   0  0  0  0  0  0  0  0  0  0  0  0
   -1.5000    2.5981    0.0000 C   0  0  0  0  0  0  0  0  0  0  0  0
   -0.7500    3.8971    0.0000 C   0  0  0  0  0  0  0  0  0  0  0  0
   -1.5000    5.1962    0.0000 C   0  0  0  0  0  0  0  0  0  0  0  0
   -0.7500    6.4952    0.0000 O   0  0  0  0  0  0  0  0  0  0  0  0
    0.7500    6.4952    0.0000 C   0  0  0  0  0  0  0  0  0  0  0  0
    1.5000    7.7942    0.0000 C   0  0  0  0  0  0  0  0  0  0  0  0
    3.0000    7.7942    0.0000 C   0  0  0  0  0  0  0  0  0  0  0  0
    3.7500    9.0933    0.0000 C   0  0  0  0  0  0  0  0  0  0  0  0
    3.0000   10.3923    0.0000 C   0  0  0  0  0  0  0  0  0  0  0  0
    1.5000   10.3923    0.0000 C   0  0  0  0  0  0  0  0  0  0  0  0
    0.7500    9.0933    0.0000 C   0  0  0  0  0  0  0  0  0  0  0  0
   -3.0000    5.1962    0.0000 C   0  0  0  0  0  0  0  0  0  0  0  0
   -3.7500    6.4952    0.0000 Cl  0  0  0  0  0  0  0  0  0  0  0  0
   -3.7500    3.8971    0.0000 C   0  0  0  0  0  0  0  0  0  0  0  0
   -1.5000    0.0000    0.0000 C   0  0  0  0  0  0  0  0  0  0  0  0
   -0.7500    1.2990    0.0000 C   0  0  0  0  0  0  0  0  0  0  0  0
    0.7500    1.2990    0.0000 C   0  0  0  0  0  0  0  0  0  0  0  0
    1.5000    2.5981    0.0000 N   0  0  0  0  0  0  0  0  0  0  0  0
    3.0000    2.5981    0.0000 C   0  0  0  0  0  0  0  0  0  0  0  0
    3.7500    1.2990    0.0000 O   0  0  0  0  0  0  0  0  0  0  0  0
    3.7500    3.8971    0.0000 C   0  0  0  0  0  0  0  0  0  0  0  0
    5.2500    3.8971    0.0000 C   0  0  0  0  0  0  0  0  0  0  0  0
    6.0000    5.1962    0.0000 C   0  0  0  0  0  0  0  0  0  0  0  0
    7.5000    5.1962    0.0000 N   0  0  0  0  0  0  0  0  0  0  0  0
    8.2500    3.8971    0.0000 C   0  0  0  0  0  0  0  0  0  0  0  0
    9.7500    3.8971    0.0000 C   0  0  0  0  0  0  0  0  0  0  0  0
   10.5000    5.1962    0.0000 O   0  0  0  0  0  0  0  0  0  0  0  0
    9.7500    6.4952    0.0000 C   0  0  0  0  0  0  0  0  0  0  0  0
    8.2500    6.4952    0.0000 C   0  0  0  0  0  0  0  0  0  0  0  0
  1  2  1  0
  2  3  1  0
  3  4  1  0
  4  5  2  0
  5  6  1  0
  6  7  2  0
  7  8  1  0
  8  9  2  0
  9 10  1  0
 10 11  3  0
  9 12  1  0
 12 13  1  0
 13 14  1  0
 14 15  2  0
 15 16  1  0
 16 17  2  0
 17 18  1  0
 18 19  1  0
 19 20  1  0
 20 21  2  0
 21 22  1  0
 22 23  2  0
 23 24  1  0
 24 25  2  0
 17 26  1  0
 26 27  1  0
 26 28  2  0
 12 29  2  0
 29 30  1  0
 30 31  2  0
 31 32  1  0
 32 33  1  0
 33 34  2  0
 33 35  1  0
 35 36  2  0
 36 37  1  0
 37 38  1  0
 38 39  1  0
 39 40  1  0
 40 41  1  0
 41 42  1  0
 42 43  1  0
 31  4  1  0
 43 38  1  0
 29  6  1  0
 28 14  1  0
 25 20  1  0
M  END
>  <Compound_ID>  (11) 
CHEMBL175556

>  <Active>  (11) 
1.0

>  <Smiles>  (11) 
CCOc1cc2ncc(C#N)c(Nc3ccc(OCc4ccccc4)c(Cl)c3)c2cc1NC(=O)/C=C/CN1CCOCC1

>  <canonical_smi>  (11) 
CCOc1cc2ncc(C#N)c(Nc3ccc(OCc4ccccc4)c(Cl)c3)c2cc1NC(=O)/C=C/CN1CCOCC1

>  <Set>  (11) 
G1 active

>  <Set_type>  (11) 
G1

>  <MW>  (11) 
598.1

>  <HBD>  (11) 
2

>  <HBA>  (11) 
8

>  <NRB>  (11) 
11

>  <NR>  (11) 
5

>  <NAR>  (11) 
4

>  <PSA>  (11) 
108.74

>  <Standard Type>  (11) 
nan

>  <Standard Relation>  (11) 
nan

>  <Standard Units>  (11) 
nan

>  <Standard Value>  (11) 
nan

>  <Assay ChEMBL ID>  (11) 
nan

>  <Assay Description>  (11) 
nan

>  <BAO Label>  (11) 
nan

$$$$

     RDKit          2D

 43 49  0  0  0  0  0  0  0  0999 V2000
   -0.4702  -13.1562    0.0000 O   0  0  0  0  0  0  0  0  0  0  0  0
    1.0216  -12.9994    0.0000 C   0  0  0  0  0  0  0  0  0  0  0  0
    1.6317  -11.6291    0.0000 O   0  0  0  0  0  0  0  0  0  0  0  0
    0.7500  -10.4156    0.0000 C   0  0  0  0  0  0  0  0  0  0  0  0
   -0.7500  -10.4156    0.0000 C   0  0  0  0  0  0  0  0  0  0  0  0
   -1.2135   -8.9890    0.0000 N   0  0  0  0  0  0  0  0  0  0  0  0
    0.0000   -8.1073    0.0000 C   0  0  0  0  0  0  0  0  0  0  0  0
   -0.0000   -6.6073    0.0000 C   0  0  0  0  0  0  0  0  0  0  0  0
   -0.0000   -5.1073    0.0000 C   0  0  0  0  0  0  0  0  0  0  0  0
   -0.0000   -3.6073    0.0000 C   0  0  0  0  0  0  0  0  0  0  0  0
    1.2135   -2.7256    0.0000 C   0  0  0  0  0  0  0  0  0  0  0  0
    0.7500   -1.2990    0.0000 C   0  0  0  0  0  0  0  0  0  0  0  0
    1.5000    0.0000    0.0000 N   0  0  0  0  0  0  0  0  0  0  0  0
    0.7500    1.2990    0.0000 C   0  0  0  0  0  0  0  0  0  0  0  0
   -0.7500    1.2990    0.0000 N   0  0  0  0  0  0  0  0  0  0  0  0
   -1.5000    0.0000    0.0000 C   0  0  0  0  0  0  0  0  0  0  0  0
   -3.0000    0.0000    0.0000 N   0  0  0  0  0  0  0  0  0  0  0  0
   -3.7500    1.2990    0.0000 C   0  0  0  0  0  0  0  0  0  0  0  0
   -3.0000    2.5981    0.0000 C   0  0  0  0  0  0  0  0  0  0  0  0
   -3.7500    3.8971    0.0000 C   0  0  0  0  0  0  0  0  0  0  0  0
   -5.2500    3.8971    0.0000 C   0  0  0  0  0  0  0  0  0  0  0  0
   -6.0000    2.5981    0.0000 C   0  0  0  0  0  0  0  0  0  0  0  0
   -7.4672    2.9099    0.0000 C   0  0  0  0  0  0  0  0  0  0  0  0
   -7.6240    4.4017    0.0000 N   0  0  0  0  0  0  0  0  0  0  0  0
   -6.2537    5.0118    0.0000 N   0  0  0  0  0  0  0  0  0  0  0  0
   -5.9418    6.4791    0.0000 C   0  0  0  0  0  0  0  0  0  0  0  0
   -7.0565    7.4827    0.0000 C   0  0  0  0  0  0  0  0  0  0  0  0
   -6.7447    8.9500    0.0000 C   0  0  0  0  0  0  0  0  0  0  0  0
   -7.8594    9.9537    0.0000 C   0  0  0  0  0  0  0  0  0  0  0  0
   -9.2860    9.4901    0.0000 C   0  0  0  0  0  0  0  0  0  0  0  0
   -9.5978    8.0229    0.0000 C   0  0  0  0  0  0  0  0  0  0  0  0
  -11.0244    7.5594    0.0000 F   0  0  0  0  0  0  0  0  0  0  0  0
   -8.4831    7.0192    0.0000 C   0  0  0  0  0  0  0  0  0  0  0  0
   -5.2500    1.2990    0.0000 C   0  0  0  0  0  0  0  0  0  0  0  0
   -0.7500   -1.2990    0.0000 C   0  0  0  0  0  0  0  0  0  0  0  0
   -1.2135   -2.7256    0.0000 S   0  0  0  0  0  0  0  0  0  0  0  0
    1.2135   -8.9890    0.0000 C   0  0  0  0  0  0  0  0  0  0  0  0
    1.9033  -14.2129    0.0000 N   0  0  0  0  0  0  0  0  0  0  0  0
    1.2931  -15.5833    0.0000 C   0  0  0  0  0  0  0  0  0  0  0  0
    2.1748  -16.7968    0.0000 C   0  0  0  0  0  0  0  0  0  0  0  0
    3.6666  -16.6400    0.0000 O   0  0  0  0  0  0  0  0  0  0  0  0
    4.2767  -15.2697    0.0000 C   0  0  0  0  0  0  0  0  0  0  0  0
    3.3950  -14.0561    0.0000 C   0  0  0  0  0  0  0  0  0  0  0  0
  1  2  2  0
  2  3  1  0
  4  3  1  1
  4  5  1  0
  5  6  1  0
  6  7  1  0
  7  8  1  6
  8  9  3  0
  9 10  1  0
 10 11  2  0
 11 12  1  0
 12 13  2  0
 13 14  1  0
 14 15  2  0
 15 16  1  0
 16 17  1  0
 17 18  1  0
 18 19  2  0
 19 20  1  0
 20 21  2  0
 21 22  1  0
 22 23  1  0
 23 24  2  0
 24 25  1  0
 25 26  1  0
 26 27  1  0
 27 28  2  0
 28 29  1  0
 29 30  2  0
 30 31  1  0
 31 32  1  0
 31 33  2  0
 22 34  2  0
 16 35  2  0
 35 36  1  0
  7 37  1  0
  2 38  1  0
 38 39  1  0
 39 40  1  0
 40 41  1  0
 41 42  1  0
 42 43  1  0
 37  4  1  0
 43 38  1  0
 36 10  1  0
 35 12  1  0
 34 18  1  0
 25 21  1  0
 33 27  1  0
M  END
>  <Compound_ID>  (12) 
CHEMBL510845

>  <Active>  (12) 
1.0

>  <Smiles>  (12) 
O=C(O[C@H]1CN[C@H](C#Cc2cc3ncnc(Nc4ccc5c(cnn5Cc5cccc(F)c5)c4)c3s2)C1)N1CCOCC1

>  <canonical_smi>  (12) 
O=C(O[C@H]1CN[C@H](C#Cc2cc3ncnc(Nc4ccc5c(cnn5Cc5cccc(F)c5)c4)c3s2)C1)N1CCOCC1

>  <Set>  (12) 
G1 active

>  <Set_type>  (12) 
G1

>  <MW>  (12) 
597.68

>  <HBD>  (12) 
2

>  <HBA>  (12) 
8

>  <NRB>  (12) 
5

>  <NR>  (12) 
7

>  <NAR>  (12) 
5

>  <PSA>  (12) 
106.43

>  <Standard Type>  (12) 
nan

>  <Standard Relation>  (12) 
nan

>  <Standard Units>  (12) 
nan

>  <Standard Value>  (12) 
nan

>  <Assay ChEMBL ID>  (12) 
nan

>  <Assay Description>  (12) 
nan

>  <BAO Label>  (12) 
nan

$$$$

     RDKit          2D

 33 37  0  0  0  0  0  0  0  0999 V2000
   -3.8876   -9.0580    0.0000 N   0  0  0  0  0  0  0  0  0  0  0  0
   -3.5757   -7.5908    0.0000 C   0  0  0  0  0  0  0  0  0  0  0  0
   -4.6904   -6.5871    0.0000 C   0  0  0  0  0  0  0  0  0  0  0  0
   -4.3786   -5.1199    0.0000 C   0  0  0  0  0  0  0  0  0  0  0  0
   -2.9520   -4.6564    0.0000 N   0  0  0  0  0  0  0  0  0  0  0  0
   -2.6401   -3.1891    0.0000 C   0  0  0  0  0  0  0  0  0  0  0  0
   -1.2135   -2.7256    0.0000 C   0  0  0  0  0  0  0  0  0  0  0  0
   -0.0000   -3.6073    0.0000 C   0  0  0  0  0  0  0  0  0  0  0  0
    1.2135   -2.7256    0.0000 C   0  0  0  0  0  0  0  0  0  0  0  0
    0.7500   -1.2990    0.0000 N   0  0  0  0  0  0  0  0  0  0  0  0
    1.5000    0.0000    0.0000 N   0  0  0  0  0  0  0  0  0  0  0  0
    0.7500    1.2990    0.0000 C   0  0  0  0  0  0  0  0  0  0  0  0
   -0.7500    1.2990    0.0000 N   0  0  0  0  0  0  0  0  0  0  0  0
   -1.5000    0.0000    0.0000 C   0  0  0  0  0  0  0  0  0  0  0  0
   -3.0000    0.0000    0.0000 N   0  0  0  0  0  0  0  0  0  0  0  0
   -3.7500    1.2990    0.0000 C   0  0  0  0  0  0  0  0  0  0  0  0
   -3.0000    2.5981    0.0000 C   0  0  0  0  0  0  0  0  0  0  0  0
   -3.7500    3.8971    0.0000 C   0  0  0  0  0  0  0  0  0  0  0  0
   -5.2500    3.8971    0.0000 C   0  0  0  0  0  0  0  0  0  0  0  0
   -6.0000    5.1962    0.0000 O   0  0  0  0  0  0  0  0  0  0  0  0
   -5.2500    6.4952    0.0000 C   0  0  0  0  0  0  0  0  0  0  0  0
   -6.0000    7.7942    0.0000 C   0  0  0  0  0  0  0  0  0  0  0  0
   -5.2500    9.0933    0.0000 C   0  0  0  0  0  0  0  0  0  0  0  0
   -6.0000   10.3923    0.0000 N   0  0  0  0  0  0  0  0  0  0  0  0
   -7.5000   10.3923    0.0000 C   0  0  0  0  0  0  0  0  0  0  0  0
   -8.2500    9.0933    0.0000 C   0  0  0  0  0  0  0  0  0  0  0  0
   -7.5000    7.7942    0.0000 N   0  0  0  0  0  0  0  0  0  0  0  0
   -6.0000    2.5981    0.0000 C   0  0  0  0  0  0  0  0  0  0  0  0
   -7.5000    2.5981    0.0000 Cl  0  0  0  0  0  0  0  0  0  0  0  0
   -5.2500    1.2990    0.0000 C   0  0  0  0  0  0  0  0  0  0  0  0
   -0.7500   -1.2990    0.0000 C   0  0  0  0  0  0  0  0  0  0  0  0
   -1.8373   -5.6601    0.0000 C   0  0  0  0  0  0  0  0  0  0  0  0
   -2.1491   -7.1273    0.0000 C   0  0  0  0  0  0  0  0  0  0  0  0
  1  2  1  0
  2  3  1  0
  3  4  1  0
  4  5  1  0
  5  6  1  0
  6  7  1  0
  7  8  1  0
  8  9  2  0
  9 10  1  0
 10 11  1  0
 11 12  2  0
 12 13  1  0
 13 14  2  0
 14 15  1  0
 15 16  1  0
 16 17  2  0
 17 18  1  0
 18 19  2  0
 19 20  1  0
 20 21  1  0
 21 22  1  0
 22 23  2  0
 23 24  1  0
 24 25  2  0
 25 26  1  0
 26 27  2  0
 19 28  1  0
 28 29  1  0
 28 30  2  0
 14 31  1  0
  5 32  1  0
 32 33  1  0
 33  2  1  0
 31  7  2  0
 31 10  1  0
 30 16  1  0
 27 22  1  0
M  END
>  <Compound_ID>  (13) 
CHEMBL248321

>  <Active>  (13) 
1.0

>  <Smiles>  (13) 
NC1CCN(Cc2ccn3ncnc(Nc4ccc(OCc5cnccn5)c(Cl)c4)c23)CC1

>  <canonical_smi>  (13) 
NC1CCN(Cc2ccn3ncnc(Nc4ccc(OCc5cnccn5)c(Cl)c4)c23)CC1

>  <Set>  (13) 
G1 active

>  <Set_type>  (13) 
G1

>  <MW>  (13) 
464.96

>  <HBD>  (13) 
2

>  <HBA>  (13) 
8

>  <NRB>  (13) 
7

>  <NR>  (13) 
5

>  <NAR>  (13) 
4

>  <PSA>  (13) 
106.49

>  <Standard Type>  (13) 
nan

>  <Standard Relation>  (13) 
nan

>  <Standard Units>  (13) 
nan

>  <Standard Value>  (13) 
nan

>  <Assay ChEMBL ID>  (13) 
nan

>  <Assay Description>  (13) 
nan

>  <BAO Label>  (13) 
nan

$$$$

     RDKit          2D

 39 41  0  0  0  0  0  0  0  0999 V2000
   24.0000  -12.9904    0.0000 C   0  0  0  0  0  0  0  0  0  0  0  0
   23.2500  -11.6913    0.0000 C   0  0  0  0  0  0  0  0  0  0  0  0
   21.7500  -11.6913    0.0000 C   0  0  0  0  0  0  0  0  0  0  0  0
   21.0000  -10.3923    0.0000 C   0  0  0  0  0  0  0  0  0  0  0  0
   19.5000  -10.3923    0.0000 C   0  0  0  0  0  0  0  0  0  0  0  0
   18.7500   -9.0933    0.0000 C   0  0  0  0  0  0  0  0  0  0  0  0
   17.2500   -9.0933    0.0000 C   0  0  0  0  0  0  0  0  0  0  0  0
   16.5000   -7.7942    0.0000 C   0  0  0  0  0  0  0  0  0  0  0  0
   15.0000   -7.7942    0.0000 C   0  0  0  0  0  0  0  0  0  0  0  0
   14.2500   -6.4952    0.0000 C   0  0  0  0  0  0  0  0  0  0  0  0
   12.7500   -6.4952    0.0000 C   0  0  0  0  0  0  0  0  0  0  0  0
   12.0000   -5.1962    0.0000 C   0  0  0  0  0  0  0  0  0  0  0  0
   10.5000   -5.1962    0.0000 C   0  0  0  0  0  0  0  0  0  0  0  0
    9.7500   -3.8971    0.0000 C   0  0  0  0  0  0  0  0  0  0  0  0
    8.2500   -3.8971    0.0000 C   0  0  0  0  0  0  0  0  0  0  0  0
    7.5000   -2.5981    0.0000 C   0  0  0  0  0  0  0  0  0  0  0  0
    6.0000   -2.5981    0.0000 N   0  0  0  0  0  0  0  0  0  0  0  0
    5.2500   -1.2990    0.0000 C   0  0  0  0  0  0  0  0  0  0  0  0
    6.0000    0.0000    0.0000 O   0  0  0  0  0  0  0  0  0  0  0  0
    3.7500   -1.2990    0.0000 C   0  0  0  0  0  0  0  0  0  0  0  0
    3.0000    0.0000    0.0000 O   0  0  0  0  0  0  0  0  0  0  0  0
    1.5000    0.0000    0.0000 C   0  0  0  0  0  0  0  0  0  0  0  0
    0.7500   -1.2990    0.0000 C   0  0  0  0  0  0  0  0  0  0  0  0
   -0.7500   -1.2990    0.0000 C   0  0  0  0  0  0  0  0  0  0  0  0
   -1.5000   -2.5981    0.0000 O   0  0  0  0  0  0  0  0  0  0  0  0
   -1.5000    0.0000    0.0000 C   0  0  0  0  0  0  0  0  0  0  0  0
   -3.0000    0.0000    0.0000 C   0  0  0  0  0  0  0  0  0  0  0  0
   -3.7500   -1.2990    0.0000 O   0  0  0  0  0  0  0  0  0  0  0  0
   -3.7500    1.2990    0.0000 C   0  0  0  0  0  0  0  0  0  0  0  0
   -3.0000    2.5981    0.0000 C   0  0  0  0  0  0  0  0  0  0  0  0
   -3.7500    3.8971    0.0000 C   0  0  0  0  0  0  0  0  0  0  0  0
   -3.0000    5.1962    0.0000 C   0  0  0  0  0  0  0  0  0  0  0  0
   -3.7500    6.4952    0.0000 C   0  0  0  0  0  0  0  0  0  0  0  0
   -5.2500    6.4952    0.0000 C   0  0  0  0  0  0  0  0  0  0  0  0
   -6.0000    5.1962    0.0000 C   0  0  0  0  0  0  0  0  0  0  0  0
   -5.2500    3.8971    0.0000 C   0  0  0  0  0  0  0  0  0  0  0  0
   -1.5000    2.5981    0.0000 O   0  0  0  0  0  0  0  0  0  0  0  0
   -0.7500    1.2990    0.0000 C   0  0  0  0  0  0  0  0  0  0  0  0
    0.7500    1.2990    0.0000 C   0  0  0  0  0  0  0  0  0  0  0  0
  1  2  1  0
  2  3  1  0
  3  4  1  0
  4  5  1  0
  5  6  1  0
  6  7  1  0
  7  8  1  0
  8  9  1  0
  9 10  1  0
 10 11  1  0
 11 12  1  0
 12 13  1  0
 13 14  1  0
 14 15  1  0
 15 16  1  0
 16 17  1  0
 17 18  1  0
 18 19  2  0
 18 20  1  0
 20 21  1  0
 21 22  1  0
 22 23  2  0
 23 24  1  0
 24 25  1  0
 24 26  2  0
 26 27  1  0
 27 28  2  0
 27 29  1  0
 29 30  2  0
 30 31  1  0
 31 32  2  0
 32 33  1  0
 33 34  2  0
 34 35  1  0
 35 36  2  0
 30 37  1  0
 37 38  1  0
 38 39  2  0
 39 22  1  0
 38 26  1  0
 36 31  1  0
M  END
>  <Compound_ID>  (14) 
CHEMBL601625

>  <Active>  (14) 
1.0

>  <Smiles>  (14) 
CCCCCCCCCCCCCCCCNC(=O)COc1cc(O)c2c(=O)cc(-c3ccccc3)oc2c1

>  <canonical_smi>  (14) 
CCCCCCCCCCCCCCCCNC(=O)COc1cc(O)c2c(=O)cc(-c3ccccc3)oc2c1

>  <Set>  (14) 
G1 active

>  <Set_type>  (14) 
G1

>  <MW>  (14) 
535.73

>  <HBD>  (14) 
2

>  <HBA>  (14) 
5

>  <NRB>  (14) 
19

>  <NR>  (14) 
3

>  <NAR>  (14) 
3

>  <PSA>  (14) 
88.77

>  <Standard Type>  (14) 
nan

>  <Standard Relation>  (14) 
nan

>  <Standard Units>  (14) 
nan

>  <Standard Value>  (14) 
nan

>  <Assay ChEMBL ID>  (14) 
nan

>  <Assay Description>  (14) 
nan

>  <BAO Label>  (14) 
nan

$$$$

     RDKit          2D

 30 34  0  0  0  0  0  0  0  0999 V2000
   -2.2500   -6.4952    0.0000 N   0  0  0  0  0  0  0  0  0  0  0  0
   -1.5000   -5.1962    0.0000 C   0  0  0  0  0  0  0  0  0  0  0  0
   -0.7500   -3.8971    0.0000 C   0  0  0  0  0  0  0  0  0  0  0  0
    0.7500   -3.8971    0.0000 C   0  0  0  0  0  0  0  0  0  0  0  0
    1.5000   -2.5981    0.0000 N   0  0  0  0  0  0  0  0  0  0  0  0
    0.7500   -1.2990    0.0000 C   0  0  0  0  0  0  0  0  0  0  0  0
    1.5000    0.0000    0.0000 C   0  0  0  0  0  0  0  0  0  0  0  0
    0.7500    1.2990    0.0000 C   0  0  0  0  0  0  0  0  0  0  0  0
   -0.7500    1.2990    0.0000 C   0  0  0  0  0  0  0  0  0  0  0  0
   -1.5000    2.5981    0.0000 C   0  0  0  0  0  0  0  0  0  0  0  0
   -0.7500    3.8971    0.0000 C   0  0  0  0  0  0  0  0  0  0  0  0
   -1.5000    5.1962    0.0000 C   0  0  0  0  0  0  0  0  0  0  0  0
   -3.0000    5.1962    0.0000 C   0  0  0  0  0  0  0  0  0  0  0  0
   -3.7500    6.4952    0.0000 C   0  0  0  0  0  0  0  0  0  0  0  0
   -3.0000    7.7942    0.0000 N   0  0  0  0  0  0  0  0  0  0  0  0
   -3.7500    3.8971    0.0000 C   0  0  0  0  0  0  0  0  0  0  0  0
   -3.0000    2.5981    0.0000 C   0  0  0  0  0  0  0  0  0  0  0  0
   -1.5000    0.0000    0.0000 C   0  0  0  0  0  0  0  0  0  0  0  0
   -0.7500   -1.2990    0.0000 C   0  0  0  0  0  0  0  0  0  0  0  0
   -1.5000   -2.5981    0.0000 C   0  0  0  0  0  0  0  0  0  0  0  0
   -3.0000   -2.5981    0.0000 N   0  0  0  0  0  0  0  0  0  0  0  0
   -3.7500   -3.8971    0.0000 C   0  0  0  0  0  0  0  0  0  0  0  0
   -3.7500   -5.3971    0.0000 C   0  0  0  0  0  0  0  0  0  0  0  0
   -5.0490   -4.6471    0.0000 C   0  0  0  0  0  0  0  0  0  0  0  0
   -6.5490   -4.6471    0.0000 C   0  0  0  0  0  0  0  0  0  0  0  0
   -7.2990   -3.3481    0.0000 C   0  0  0  0  0  0  0  0  0  0  0  0
   -8.7990   -3.3481    0.0000 C   0  0  0  0  0  0  0  0  0  0  0  0
   -9.5490   -4.6471    0.0000 C   0  0  0  0  0  0  0  0  0  0  0  0
   -8.7990   -5.9462    0.0000 C   0  0  0  0  0  0  0  0  0  0  0  0
   -7.2990   -5.9462    0.0000 C   0  0  0  0  0  0  0  0  0  0  0  0
  1  2  3  0
  2  3  1  0
  3  4  2  0
  4  5  1  0
  5  6  2  0
  6  7  1  0
  7  8  2  0
  8  9  1  0
  9 10  1  0
 10 11  2  0
 11 12  1  0
 12 13  2  0
 13 14  1  0
 14 15  1  0
 13 16  1  0
 16 17  2  0
  9 18  2  0
 18 19  1  0
 19 20  2  0
 20 21  1  0
 22 21  1  6
 22 23  1  0
 23 24  1  0
 24 25  1  1
 25 26  2  0
 26 27  1  0
 27 28  2  0
 28 29  1  0
 29 30  2  0
 20  3  1  0
 24 22  1  0
 30 25  1  0
 19  6  1  0
 17 10  1  0
M  END
>  <Compound_ID>  (15) 
CHEMBL245800

>  <Active>  (15) 
1.0

>  <Smiles>  (15) 
N#Cc1cnc2ccc(-c3ccc(CN)cc3)cc2c1N[C@@H]1C[C@H]1c1ccccc1

>  <canonical_smi>  (15) 
N#Cc1cnc2ccc(-c3ccc(CN)cc3)cc2c1N[C@@H]1C[C@H]1c1ccccc1

>  <Set>  (15) 
G1 active

>  <Set_type>  (15) 
G1

>  <MW>  (15) 
390.49

>  <HBD>  (15) 
2

>  <HBA>  (15) 
4

>  <NRB>  (15) 
5

>  <NR>  (15) 
5

>  <NAR>  (15) 
4

>  <PSA>  (15) 
74.73

>  <Standard Type>  (15) 
nan

>  <Standard Relation>  (15) 
nan

>  <Standard Units>  (15) 
nan

>  <Standard Value>  (15) 
nan

>  <Assay ChEMBL ID>  (15) 
nan

>  <Assay Description>  (15) 
nan

>  <BAO Label>  (15) 
nan

$$$$

     RDKit          2D

 29 32  0  0  0  0  0  0  0  0999 V2000
    6.0000   -7.7942    0.0000 C   0  0  0  0  0  0  0  0  0  0  0  0
    5.2500   -6.4952    0.0000 O   0  0  0  0  0  0  0  0  0  0  0  0
    3.7500   -6.4952    0.0000 N   0  0  0  0  0  0  0  0  0  0  0  0
    3.0000   -5.1962    0.0000 C   0  0  0  0  0  0  0  0  0  0  0  0
    1.5000   -5.1962    0.0000 C   0  0  0  0  0  0  0  0  0  0  0  0
    0.7500   -6.4952    0.0000 C   0  0  0  0  0  0  0  0  0  0  0  0
    1.5000   -7.7942    0.0000 N   0  0  0  0  0  0  0  0  0  0  0  0
   -0.7500   -6.4952    0.0000 N   0  0  0  0  0  0  0  0  0  0  0  0
   -1.5000   -5.1962    0.0000 C   0  0  0  0  0  0  0  0  0  0  0  0
   -0.7500   -3.8971    0.0000 N   0  0  0  0  0  0  0  0  0  0  0  0
    0.7500   -3.8971    0.0000 C   0  0  0  0  0  0  0  0  0  0  0  0
    1.5000   -2.5981    0.0000 N   0  0  0  0  0  0  0  0  0  0  0  0
    0.7500   -1.2990    0.0000 C   0  0  0  0  0  0  0  0  0  0  0  0
    1.5000    0.0000    0.0000 C   0  0  0  0  0  0  0  0  0  0  0  0
    0.7500    1.2990    0.0000 C   0  0  0  0  0  0  0  0  0  0  0  0
   -0.7500    1.2990    0.0000 C   0  0  0  0  0  0  0  0  0  0  0  0
   -1.7537    2.4138    0.0000 N   0  0  0  0  0  0  0  0  0  0  0  0
   -3.1240    1.8037    0.0000 C   0  0  0  0  0  0  0  0  0  0  0  0
   -4.4231    2.5537    0.0000 C   0  0  0  0  0  0  0  0  0  0  0  0
   -4.4231    4.0537    0.0000 C   0  0  0  0  0  0  0  0  0  0  0  0
   -3.1240    4.8037    0.0000 C   0  0  0  0  0  0  0  0  0  0  0  0
   -3.1240    6.3037    0.0000 C   0  0  0  0  0  0  0  0  0  0  0  0
   -4.4231    7.0537    0.0000 C   0  0  0  0  0  0  0  0  0  0  0  0
   -5.7221    6.3037    0.0000 C   0  0  0  0  0  0  0  0  0  0  0  0
   -7.0211    7.0537    0.0000 F   0  0  0  0  0  0  0  0  0  0  0  0
   -5.7221    4.8037    0.0000 C   0  0  0  0  0  0  0  0  0  0  0  0
   -2.9672    0.3119    0.0000 N   0  0  0  0  0  0  0  0  0  0  0  0
   -1.5000    0.0000    0.0000 C   0  0  0  0  0  0  0  0  0  0  0  0
   -0.7500   -1.2990    0.0000 C   0  0  0  0  0  0  0  0  0  0  0  0
  1  2  1  0
  2  3  1  0
  3  4  2  0
  4  5  1  0
  5  6  2  0
  6  7  1  0
  6  8  1  0
  8  9  2  0
  9 10  1  0
 10 11  2  0
 11 12  1  0
 12 13  1  0
 13 14  2  0
 14 15  1  0
 15 16  2  0
 16 17  1  0
 17 18  1  0
 18 19  1  0
 19 20  1  0
 20 21  2  0
 21 22  1  0
 22 23  2  0
 23 24  1  0
 24 25  1  0
 24 26  2  0
 18 27  2  0
 27 28  1  0
 28 29  2  0
 11  5  1  0
 29 13  1  0
 28 16  1  0
 26 20  1  0
M  END
>  <Compound_ID>  (16) 
CHEMBL402316

>  <Active>  (16) 
1.0

>  <Smiles>  (16) 
CO/N=C/c1c(N)ncnc1Nc1ccc2[nH]c(Cc3cccc(F)c3)nc2c1

>  <canonical_smi>  (16) 
CO/N=C/c1c(N)ncnc1Nc1ccc2[nH]c(Cc3cccc(F)c3)nc2c1

>  <Set>  (16) 
G1 active

>  <Set_type>  (16) 
G1

>  <MW>  (16) 
391.41

>  <HBD>  (16) 
3

>  <HBA>  (16) 
6

>  <NRB>  (16) 
6

>  <NR>  (16) 
4

>  <NAR>  (16) 
4

>  <PSA>  (16) 
114.1

>  <Standard Type>  (16) 
nan

>  <Standard Relation>  (16) 
nan

>  <Standard Units>  (16) 
nan

>  <Standard Value>  (16) 
nan

>  <Assay ChEMBL ID>  (16) 
nan

>  <Assay Description>  (16) 
nan

>  <BAO Label>  (16) 
nan

$$$$

     RDKit          2D

 26 29  0  0  0  0  0  0  0  0999 V2000
    2.5981   -8.1073    0.0000 C   0  0  0  0  0  0  0  0  0  0  0  0
    1.2990   -7.3573    0.0000 C   0  0  0  0  0  0  0  0  0  0  0  0
    1.2990   -5.8573    0.0000 O   0  0  0  0  0  0  0  0  0  0  0  0
   -0.0000   -5.1073    0.0000 C   0  0  0  0  0  0  0  0  0  0  0  0
   -1.2990   -5.8573    0.0000 O   0  0  0  0  0  0  0  0  0  0  0  0
   -0.0000   -3.6073    0.0000 C   0  0  0  0  0  0  0  0  0  0  0  0
    1.2135   -2.7256    0.0000 C   0  0  0  0  0  0  0  0  0  0  0  0
    0.7500   -1.2990    0.0000 N   0  0  0  0  0  0  0  0  0  0  0  0
    1.5000    0.0000    0.0000 N   0  0  0  0  0  0  0  0  0  0  0  0
    0.7500    1.2990    0.0000 C   0  0  0  0  0  0  0  0  0  0  0  0
   -0.7500    1.2990    0.0000 N   0  0  0  0  0  0  0  0  0  0  0  0
   -1.5000    0.0000    0.0000 C   0  0  0  0  0  0  0  0  0  0  0  0
   -3.0000    0.0000    0.0000 N   0  0  0  0  0  0  0  0  0  0  0  0
   -3.7500    1.2990    0.0000 C   0  0  0  0  0  0  0  0  0  0  0  0
   -3.0000    2.5981    0.0000 C   0  0  0  0  0  0  0  0  0  0  0  0
   -3.7500    3.8971    0.0000 C   0  0  0  0  0  0  0  0  0  0  0  0
   -5.2500    3.8971    0.0000 C   0  0  0  0  0  0  0  0  0  0  0  0
   -6.2537    5.0118    0.0000 N   0  0  0  0  0  0  0  0  0  0  0  0
   -7.6240    4.4017    0.0000 N   0  0  0  0  0  0  0  0  0  0  0  0
   -7.4672    2.9099    0.0000 C   0  0  0  0  0  0  0  0  0  0  0  0
   -6.0000    2.5981    0.0000 C   0  0  0  0  0  0  0  0  0  0  0  0
   -5.2500    1.2990    0.0000 C   0  0  0  0  0  0  0  0  0  0  0  0
   -0.7500   -1.2990    0.0000 C   0  0  0  0  0  0  0  0  0  0  0  0
   -1.2135   -2.7256    0.0000 C   0  0  0  0  0  0  0  0  0  0  0  0
   -2.6401   -3.1891    0.0000 C   0  0  0  0  0  0  0  0  0  0  0  0
   -2.9520   -4.6564    0.0000 C   0  0  0  0  0  0  0  0  0  0  0  0
  1  2  1  0
  2  3  1  0
  3  4  1  0
  4  5  2  0
  4  6  1  0
  6  7  2  0
  7  8  1  0
  8  9  1  0
  9 10  2  0
 10 11  1  0
 11 12  2  0
 12 13  1  0
 13 14  1  0
 14 15  2  0
 15 16  1  0
 16 17  2  0
 17 18  1  0
 18 19  1  0
 19 20  2  0
 20 21  1  0
 21 22  2  0
 12 23  1  0
 23 24  2  0
 24 25  1  0
 25 26  1  0
 24  6  1  0
 23  8  1  0
 22 14  1  0
 21 17  1  0
M  END
>  <Compound_ID>  (17) 
CHEMBL372112

>  <Active>  (17) 
1.0

>  <Smiles>  (17) 
CCOC(=O)c1cn2ncnc(Nc3ccc4[nH]ncc4c3)c2c1CC

>  <canonical_smi>  (17) 
CCOC(=O)c1cn2ncnc(Nc3ccc4[nH]ncc4c3)c2c1CC

>  <Set>  (17) 
G1 active

>  <Set_type>  (17) 
G1

>  <MW>  (17) 
350.38

>  <HBD>  (17) 
2

>  <HBA>  (17) 
6

>  <NRB>  (17) 
5

>  <NR>  (17) 
4

>  <NAR>  (17) 
4

>  <PSA>  (17) 
97.2

>  <Standard Type>  (17) 
nan

>  <Standard Relation>  (17) 
nan

>  <Standard Units>  (17) 
nan

>  <Standard Value>  (17) 
nan

>  <Assay ChEMBL ID>  (17) 
nan

>  <Assay Description>  (17) 
nan

>  <BAO Label>  (17) 
nan

$$$$

     RDKit          2D

 23 26  0  0  0  0  0  0  0  0999 V2000
    6.0000   -2.5981    0.0000 C   0  0  0  0  0  0  0  0  0  0  0  0
    5.2500   -3.8971    0.0000 C   0  0  0  0  0  0  0  0  0  0  0  0
    3.7500   -3.8971    0.0000 C   0  0  0  0  0  0  0  0  0  0  0  0
    3.0000   -2.5981    0.0000 C   0  0  0  0  0  0  0  0  0  0  0  0
    1.5000   -2.5981    0.0000 N   0  0  0  0  0  0  0  0  0  0  0  0
    0.7500   -1.2990    0.0000 C   0  0  0  0  0  0  0  0  0  0  0  0
    1.5000    0.0000    0.0000 N   0  0  0  0  0  0  0  0  0  0  0  0
    0.7500    1.2990    0.0000 C   0  0  0  0  0  0  0  0  0  0  0  0
   -0.7500    1.2990    0.0000 N   0  0  0  0  0  0  0  0  0  0  0  0
   -1.5000    0.0000    0.0000 C   0  0  0  0  0  0  0  0  0  0  0  0
   -2.9672   -0.3119    0.0000 N   0  0  0  0  0  0  0  0  0  0  0  0
   -3.1240   -1.8037    0.0000 N   0  0  0  0  0  0  0  0  0  0  0  0
   -1.7537   -2.4138    0.0000 C   0  0  0  0  0  0  0  0  0  0  0  0
   -1.4418   -3.8810    0.0000 N   0  0  0  0  0  0  0  0  0  0  0  0
   -2.5565   -4.8847    0.0000 C   0  0  0  0  0  0  0  0  0  0  0  0
   -3.9831   -4.4211    0.0000 C   0  0  0  0  0  0  0  0  0  0  0  0
   -5.0978   -5.4248    0.0000 C   0  0  0  0  0  0  0  0  0  0  0  0
   -4.7860   -6.8921    0.0000 C   0  0  0  0  0  0  0  0  0  0  0  0
   -3.3594   -7.3556    0.0000 C   0  0  0  0  0  0  0  0  0  0  0  0
   -2.2447   -6.3519    0.0000 C   0  0  0  0  0  0  0  0  0  0  0  0
   -0.7500   -1.2990    0.0000 C   0  0  0  0  0  0  0  0  0  0  0  0
    3.7500   -1.2990    0.0000 C   0  0  0  0  0  0  0  0  0  0  0  0
    5.2500   -1.2990    0.0000 C   0  0  0  0  0  0  0  0  0  0  0  0
  1  2  2  0
  2  3  1  0
  3  4  2  0
  4  5  1  0
  5  6  1  0
  6  7  1  0
  7  8  2  0
  8  9  1  0
  9 10  1  0
 10 11  2  0
 11 12  1  0
 12 13  2  0
 13 14  1  0
 14 15  1  0
 15 16  2  0
 16 17  1  0
 17 18  2  0
 18 19  1  0
 19 20  2  0
 13 21  1  0
  4 22  1  0
 22 23  2  0
 23  1  1  0
 21  6  2  0
 21 10  1  0
 20 15  1  0
M  END
>  <Compound_ID>  (18) 
CHEMBL332333

>  <Active>  (18) 
1.0

>  <Smiles>  (18) 
c1ccc(Nc2nc[nH]c3nnc(Nc4ccccc4)c2-3)cc1

>  <canonical_smi>  (18) 
c1ccc(Nc2nc[nH]c3nnc(Nc4ccccc4)c2-3)cc1

>  <Set>  (18) 
G1 active

>  <Set_type>  (18) 
G1

>  <MW>  (18) 
302.34

>  <HBD>  (18) 
3

>  <HBA>  (18) 
5

>  <NRB>  (18) 
4

>  <NR>  (18) 
4

>  <NAR>  (18) 
4

>  <PSA>  (18) 
78.52

>  <Standard Type>  (18) 
nan

>  <Standard Relation>  (18) 
nan

>  <Standard Units>  (18) 
nan

>  <Standard Value>  (18) 
nan

>  <Assay ChEMBL ID>  (18) 
nan

>  <Assay Description>  (18) 
nan

>  <BAO Label>  (18) 
nan

$$$$

     RDKit          2D

 24 26  0  0  0  0  0  0  0  0999 V2000
    3.7500   -1.2990    0.0000 C   0  0  0  0  0  0  0  0  0  0  0  0
    3.0000    0.0000    0.0000 O   0  0  0  0  0  0  0  0  0  0  0  0
    1.5000    0.0000    0.0000 C   0  0  0  0  0  0  0  0  0  0  0  0
    0.7500   -1.2990    0.0000 C   0  0  0  0  0  0  0  0  0  0  0  0
   -0.7500   -1.2990    0.0000 C   0  0  0  0  0  0  0  0  0  0  0  0
   -1.5000    0.0000    0.0000 C   0  0  0  0  0  0  0  0  0  0  0  0
   -3.0000    0.0000    0.0000 C   0  0  0  0  0  0  0  0  0  0  0  0
   -3.8817   -1.2135    0.0000 C   0  0  0  0  0  0  0  0  0  0  0  0
   -5.3083   -0.7500    0.0000 C   0  0  0  0  0  0  0  0  0  0  0  0
   -6.5218   -1.6317    0.0000 C   0  0  0  0  0  0  0  0  0  0  0  0
   -7.8921   -1.0216    0.0000 C   0  0  0  0  0  0  0  0  0  0  0  0
   -9.1056   -1.9033    0.0000 C   0  0  0  0  0  0  0  0  0  0  0  0
   -8.9488   -3.3950    0.0000 C   0  0  0  0  0  0  0  0  0  0  0  0
  -10.1624   -4.2767    0.0000 C   0  0  0  0  0  0  0  0  0  0  0  0
   -7.5785   -4.0051    0.0000 C   0  0  0  0  0  0  0  0  0  0  0  0
   -7.4217   -5.4969    0.0000 C   0  0  0  0  0  0  0  0  0  0  0  0
   -6.3650   -3.1235    0.0000 C   0  0  0  0  0  0  0  0  0  0  0  0
   -5.3083    0.7500    0.0000 N   0  0  0  0  0  0  0  0  0  0  0  0
   -3.8817    1.2135    0.0000 N   0  0  0  0  0  0  0  0  0  0  0  0
   -3.4182    2.6401    0.0000 C   0  0  0  0  0  0  0  0  0  0  0  0
   -4.4218    3.7548    0.0000 N   0  0  0  0  0  0  0  0  0  0  0  0
   -1.9509    2.9520    0.0000 S   0  0  0  0  0  0  0  0  0  0  0  0
   -0.7500    1.2990    0.0000 C   0  0  0  0  0  0  0  0  0  0  0  0
    0.7500    1.2990    0.0000 C   0  0  0  0  0  0  0  0  0  0  0  0
  1  2  1  0
  2  3  1  0
  3  4  2  0
  4  5  1  0
  5  6  2  0
  6  7  1  0
  7  8  1  0
  8  9  1  0
  9 10  1  0
 10 11  2  0
 11 12  1  0
 12 13  2  0
 13 14  1  0
 13 15  1  0
 15 16  1  0
 15 17  2  0
  9 18  2  0
 18 19  1  0
 19 20  1  0
 20 21  1  0
 20 22  2  0
  6 23  1  0
 23 24  2  0
 24  3  1  0
 19  7  1  0
 17 10  1  0
M  END
>  <Compound_ID>  (19) 
CHEMBL1173814

>  <Active>  (19) 
1.0

>  <Smiles>  (19) 
COc1ccc(C2CC(c3ccc(C)c(C)c3)=NN2C(N)=S)cc1

>  <canonical_smi>  (19) 
COc1ccc(C2CC(c3ccc(C)c(C)c3)=NN2C(N)=S)cc1

>  <Set>  (19) 
G1 active

>  <Set_type>  (19) 
G1

>  <MW>  (19) 
339.46

>  <HBD>  (19) 
1

>  <HBA>  (19) 
4

>  <NRB>  (19) 
3

>  <NR>  (19) 
3

>  <NAR>  (19) 
2

>  <PSA>  (19) 
50.85

>  <Standard Type>  (19) 
nan

>  <Standard Relation>  (19) 
nan

>  <Standard Units>  (19) 
nan

>  <Standard Value>  (19) 
nan

>  <Assay ChEMBL ID>  (19) 
nan

>  <Assay Description>  (19) 
nan

>  <BAO Label>  (19) 
nan

$$$$

     RDKit          2D

 33 36  0  0  0  0  0  0  0  0999 V2000
    3.0000    0.0000    0.0000 C   0  0  0  0  0  0  0  0  0  0  0  0
    1.5000    0.0000    0.0000 C   0  0  0  0  0  0  0  0  0  0  0  0
    0.7500   -1.2990    0.0000 N   0  0  0  0  0  0  0  0  0  0  0  0
   -0.7500   -1.2990    0.0000 C   0  0  0  0  0  0  0  0  0  0  0  0
   -1.5000   -2.5981    0.0000 N   0  0  0  0  0  0  0  0  0  0  0  0
   -3.0000   -2.5981    0.0000 C   0  0  0  0  0  0  0  0  0  0  0  0
   -3.8817   -3.8116    0.0000 N   0  0  0  0  0  0  0  0  0  0  0  0
   -5.3083   -3.3481    0.0000 C   0  0  0  0  0  0  0  0  0  0  0  0
   -5.3083   -1.8481    0.0000 C   0  0  0  0  0  0  0  0  0  0  0  0
   -6.5218   -0.9664    0.0000 C   0  0  0  0  0  0  0  0  0  0  0  0
   -7.8921   -1.5765    0.0000 O   0  0  0  0  0  0  0  0  0  0  0  0
   -6.3650    0.5254    0.0000 N   0  0  0  0  0  0  0  0  0  0  0  0
   -7.5785    1.4071    0.0000 C   0  0  0  0  0  0  0  0  0  0  0  0
   -7.4217    2.8988    0.0000 C   0  0  0  0  0  0  0  0  0  0  0  0
   -6.0514    3.5090    0.0000 C   0  0  0  0  0  0  0  0  0  0  0  0
   -8.6353    3.7805    0.0000 C   0  0  0  0  0  0  0  0  0  0  0  0
  -10.0056    3.1704    0.0000 C   0  0  0  0  0  0  0  0  0  0  0  0
  -10.1624    1.6786    0.0000 C   0  0  0  0  0  0  0  0  0  0  0  0
   -8.9488    0.7970    0.0000 C   0  0  0  0  0  0  0  0  0  0  0  0
   -9.1056   -0.6948    0.0000 Cl  0  0  0  0  0  0  0  0  0  0  0  0
   -3.8817   -1.3846    0.0000 S   0  0  0  0  0  0  0  0  0  0  0  0
   -1.5000    0.0000    0.0000 C   0  0  0  0  0  0  0  0  0  0  0  0
   -0.7500    1.2990    0.0000 C   0  0  0  0  0  0  0  0  0  0  0  0
   -1.5000    2.5981    0.0000 N   0  0  0  0  0  0  0  0  0  0  0  0
   -0.7500    3.8971    0.0000 C   0  0  0  0  0  0  0  0  0  0  0  0
   -1.5000    5.1962    0.0000 C   0  0  0  0  0  0  0  0  0  0  0  0
   -3.0000    5.1962    0.0000 N   0  0  0  0  0  0  0  0  0  0  0  0
   -3.7500    6.4952    0.0000 C   0  0  0  0  0  0  0  0  0  0  0  0
   -3.0000    7.7942    0.0000 C   0  0  0  0  0  0  0  0  0  0  0  0
   -3.7500    9.0933    0.0000 O   0  0  0  0  0  0  0  0  0  0  0  0
   -3.7500    3.8971    0.0000 C   0  0  0  0  0  0  0  0  0  0  0  0
   -3.0000    2.5981    0.0000 C   0  0  0  0  0  0  0  0  0  0  0  0
    0.7500    1.2990    0.0000 N   0  0  0  0  0  0  0  0  0  0  0  0
  1  2  1  0
  2  3  2  0
  3  4  1  0
  4  5  1  0
  5  6  1  0
  6  7  2  0
  7  8  1  0
  8  9  2  0
  9 10  1  0
 10 11  2  0
 10 12  1  0
 12 13  1  0
 13 14  2  0
 14 15  1  0
 14 16  1  0
 16 17  2  0
 17 18  1  0
 18 19  2  0
 19 20  1  0
  9 21  1  0
  4 22  2  0
 22 23  1  0
 23 24  1  0
 24 25  1  0
 25 26  1  0
 26 27  1  0
 27 28  1  0
 28 29  1  0
 29 30  1  0
 27 31  1  0
 31 32  1  0
 23 33  2  0
 33  2  1  0
 21  6  1  0
 32 24  1  0
 19 13  1  0
M  END
>  <Compound_ID>  (20) 
CHEMBL1421

>  <Active>  (20) 
1.0

>  <Smiles>  (20) 
Cc1nc(Nc2ncc(C(=O)Nc3c(C)cccc3Cl)s2)cc(N2CCN(CCO)CC2)n1

>  <canonical_smi>  (20) 
Cc1nc(Nc2ncc(C(=O)Nc3c(C)cccc3Cl)s2)cc(N2CCN(CCO)CC2)n1

>  <Set>  (20) 
G1 active

>  <Set_type>  (20) 
G1

>  <MW>  (20) 
488.02

>  <HBD>  (20) 
3

>  <HBA>  (20) 
8

>  <NRB>  (20) 
7

>  <NR>  (20) 
4

>  <NAR>  (20) 
3

>  <PSA>  (20) 
106.51

>  <Standard Type>  (20) 
nan

>  <Standard Relation>  (20) 
nan

>  <Standard Units>  (20) 
nan

>  <Standard Value>  (20) 
nan

>  <Assay ChEMBL ID>  (20) 
nan

>  <Assay Description>  (20) 
nan

>  <BAO Label>  (20) 
nan

$$$$

     RDKit          2D

 27 29  0  0  0  0  0  0  0  0999 V2000
    3.0000   -5.1962    0.0000 O   0  0  0  0  0  0  0  0  0  0  0  0
    1.5000   -5.1962    0.0000 C   0  0  0  0  0  0  0  0  0  0  0  0
    0.7500   -3.8971    0.0000 O   0  0  0  0  0  0  0  0  0  0  0  0
    1.5000   -2.5981    0.0000 C   0  0  0  0  0  0  0  0  0  0  0  0
    0.7500   -1.2990    0.0000 C   0  0  0  0  0  0  0  0  0  0  0  0
    1.5000    0.0000    0.0000 C   0  0  0  0  0  0  0  0  0  0  0  0
    0.7500    1.2990    0.0000 C   0  0  0  0  0  0  0  0  0  0  0  0
   -0.7500    1.2990    0.0000 C   0  0  0  0  0  0  0  0  0  0  0  0
   -1.5000    0.0000    0.0000 C   0  0  0  0  0  0  0  0  0  0  0  0
   -0.7500   -1.2990    0.0000 C   0  0  0  0  0  0  0  0  0  0  0  0
    0.7500   -6.4952    0.0000 C   0  0  0  0  0  0  0  0  0  0  0  0
   -0.7500   -6.4952    0.0000 C   0  0  0  0  0  0  0  0  0  0  0  0
   -1.5000   -7.7942    0.0000 C   0  0  0  0  0  0  0  0  0  0  0  0
   -3.0000   -7.7942    0.0000 N   0  0  0  0  0  0  0  0  0  0  0  0
   -3.7500   -6.4952    0.0000 C   0  0  0  0  0  0  0  0  0  0  0  0
   -5.2500   -6.4952    0.0000 C   0  0  0  0  0  0  0  0  0  0  0  0
   -6.0000   -5.1962    0.0000 C   0  0  0  0  0  0  0  0  0  0  0  0
   -7.5000   -5.1962    0.0000 C   0  0  0  0  0  0  0  0  0  0  0  0
   -8.2500   -3.8971    0.0000 O   0  0  0  0  0  0  0  0  0  0  0  0
   -8.2500   -6.4952    0.0000 C   0  0  0  0  0  0  0  0  0  0  0  0
   -7.5000   -7.7942    0.0000 C   0  0  0  0  0  0  0  0  0  0  0  0
   -6.0000   -7.7942    0.0000 C   0  0  0  0  0  0  0  0  0  0  0  0
   -5.2500   -9.0933    0.0000 O   0  0  0  0  0  0  0  0  0  0  0  0
   -0.7500   -9.0933    0.0000 C   0  0  0  0  0  0  0  0  0  0  0  0
    0.7500   -9.0933    0.0000 C   0  0  0  0  0  0  0  0  0  0  0  0
    1.5000   -7.7942    0.0000 C   0  0  0  0  0  0  0  0  0  0  0  0
    3.0000   -7.7942    0.0000 O   0  0  0  0  0  0  0  0  0  0  0  0
  1  2  2  0
  2  3  1  0
  3  4  1  0
  4  5  1  0
  5  6  2  0
  6  7  1  0
  7  8  2  0
  8  9  1  0
  9 10  2  0
  2 11  1  0
 11 12  2  0
 12 13  1  0
 13 14  1  0
 14 15  1  0
 15 16  1  0
 16 17  2  0
 17 18  1  0
 18 19  1  0
 18 20  2  0
 20 21  1  0
 21 22  2  0
 22 23  1  0
 13 24  2  0
 24 25  1  0
 25 26  2  0
 26 27  1  0
 10  5  1  0
 26 11  1  0
 22 16  1  0
M  END
>  <Compound_ID>  (21) 
CHEMBL352583

>  <Active>  (21) 
1.0

>  <Smiles>  (21) 
O=C(OCc1ccccc1)c1cc(NCc2cc(O)ccc2O)ccc1O

>  <canonical_smi>  (21) 
O=C(OCc1ccccc1)c1cc(NCc2cc(O)ccc2O)ccc1O

>  <Set>  (21) 
G1 active

>  <Set_type>  (21) 
G1

>  <MW>  (21) 
365.39

>  <HBD>  (21) 
4

>  <HBA>  (21) 
6

>  <NRB>  (21) 
6

>  <NR>  (21) 
3

>  <NAR>  (21) 
3

>  <PSA>  (21) 
99.02

>  <Standard Type>  (21) 
nan

>  <Standard Relation>  (21) 
nan

>  <Standard Units>  (21) 
nan

>  <Standard Value>  (21) 
nan

>  <Assay ChEMBL ID>  (21) 
nan

>  <Assay Description>  (21) 
nan

>  <BAO Label>  (21) 
nan

$$$$

     RDKit          2D

 18 20  0  0  0  0  0  0  0  0999 V2000
    3.0000    0.0000    0.0000 C   0  0  0  0  0  0  0  0  0  0  0  0
    1.5000    0.0000    0.0000 C   0  0  0  0  0  0  0  0  0  0  0  0
    0.7500   -1.2990    0.0000 C   0  0  0  0  0  0  0  0  0  0  0  0
   -0.7500   -1.2990    0.0000 C   0  0  0  0  0  0  0  0  0  0  0  0
   -1.5000    0.0000    0.0000 C   0  0  0  0  0  0  0  0  0  0  0  0
   -3.0000    0.0000    0.0000 Br  0  0  0  0  0  0  0  0  0  0  0  0
   -0.7500    1.2990    0.0000 C   0  0  0  0  0  0  0  0  0  0  0  0
   -1.2135    2.7256    0.0000 C   0  0  0  0  0  0  0  0  0  0  0  0
   -2.6401    3.1891    0.0000 C   0  0  0  0  0  0  0  0  0  0  0  0
   -4.0667    3.6527    0.0000 N   0  0  0  0  0  0  0  0  0  0  0  0
   -0.0000    3.6073    0.0000 C   0  0  0  0  0  0  0  0  0  0  0  0
    1.2135    2.7256    0.0000 C   0  0  0  0  0  0  0  0  0  0  0  0
    2.6401    3.1891    0.0000 C   0  0  0  0  0  0  0  0  0  0  0  0
    3.7548    2.1855    0.0000 O   0  0  0  0  0  0  0  0  0  0  0  0
    2.9520    4.6564    0.0000 C   0  0  0  0  0  0  0  0  0  0  0  0
    2.4885    6.0830    0.0000 C   0  0  0  0  0  0  0  0  0  0  0  0
    3.9557    5.7711    0.0000 C   0  0  0  0  0  0  0  0  0  0  0  0
    0.7500    1.2990    0.0000 N   0  0  0  0  0  0  0  0  0  0  0  0
  1  2  1  0
  2  3  2  0
  3  4  1  0
  4  5  2  0
  5  6  1  0
  5  7  1  0
  7  8  2  0
  8  9  1  0
  9 10  3  0
  8 11  1  0
 11 12  2  0
 12 13  1  0
 13 14  2  0
 13 15  1  0
 15 16  1  0
 16 17  1  0
 12 18  1  0
 18  2  1  0
 18  7  1  0
 17 15  1  0
M  END
>  <Compound_ID>  (22) 
CHEMBL1171792

>  <Active>  (22) 
1.0

>  <Smiles>  (22) 
Cc1ccc(Br)c2c(C#N)cc(C(=O)C3CC3)n12

>  <canonical_smi>  (22) 
Cc1ccc(Br)c2c(C#N)cc(C(=O)C3CC3)n12

>  <Set>  (22) 
G1 active

>  <Set_type>  (22) 
G1

>  <MW>  (22) 
303.16

>  <HBD>  (22) 
0

>  <HBA>  (22) 
2

>  <NRB>  (22) 
2

>  <NR>  (22) 
3

>  <NAR>  (22) 
2

>  <PSA>  (22) 
45.27

>  <Standard Type>  (22) 
nan

>  <Standard Relation>  (22) 
nan

>  <Standard Units>  (22) 
nan

>  <Standard Value>  (22) 
nan

>  <Assay ChEMBL ID>  (22) 
nan

>  <Assay Description>  (22) 
nan

>  <BAO Label>  (22) 
nan

$$$$

     RDKit          2D

 29 32  0  0  0  0  0  0  0  0999 V2000
    0.7500   -6.4952    0.0000 C   0  0  0  0  0  0  0  0  0  0  0  0
    1.5000   -5.1962    0.0000 O   0  0  0  0  0  0  0  0  0  0  0  0
    0.7500   -3.8971    0.0000 C   0  0  0  0  0  0  0  0  0  0  0  0
    1.5000   -2.5981    0.0000 C   0  0  0  0  0  0  0  0  0  0  0  0
    0.7500   -1.2990    0.0000 C   0  0  0  0  0  0  0  0  0  0  0  0
    1.5000    0.0000    0.0000 N   0  0  0  0  0  0  0  0  0  0  0  0
    0.7500    1.2990    0.0000 C   0  0  0  0  0  0  0  0  0  0  0  0
   -0.7500    1.2990    0.0000 N   0  0  0  0  0  0  0  0  0  0  0  0
   -1.5000    0.0000    0.0000 C   0  0  0  0  0  0  0  0  0  0  0  0
   -3.0000    0.0000    0.0000 N   0  0  0  0  0  0  0  0  0  0  0  0
   -3.7500    1.2990    0.0000 C   0  0  0  0  0  0  0  0  0  0  0  0
   -3.0000    2.5981    0.0000 C   0  0  0  0  0  0  0  0  0  0  0  0
   -3.7500    3.8971    0.0000 C   0  0  0  0  0  0  0  0  0  0  0  0
   -5.2500    3.8971    0.0000 C   0  0  0  0  0  0  0  0  0  0  0  0
   -6.0000    5.1962    0.0000 F   0  0  0  0  0  0  0  0  0  0  0  0
   -6.0000    2.5981    0.0000 C   0  0  0  0  0  0  0  0  0  0  0  0
   -7.5000    2.5981    0.0000 Cl  0  0  0  0  0  0  0  0  0  0  0  0
   -5.2500    1.2990    0.0000 C   0  0  0  0  0  0  0  0  0  0  0  0
   -0.7500   -1.2990    0.0000 C   0  0  0  0  0  0  0  0  0  0  0  0
   -1.5000   -2.5981    0.0000 C   0  0  0  0  0  0  0  0  0  0  0  0
   -0.7500   -3.8971    0.0000 C   0  0  0  0  0  0  0  0  0  0  0  0
   -1.5000   -5.1962    0.0000 O   0  0  0  0  0  0  0  0  0  0  0  0
   -3.0000   -5.1962    0.0000 C   0  0  0  0  0  0  0  0  0  0  0  0
   -3.7500   -6.4952    0.0000 C   0  0  0  0  0  0  0  0  0  0  0  0
   -5.2500   -6.4952    0.0000 N   0  0  0  0  0  0  0  0  0  0  0  0
   -6.1317   -7.7087    0.0000 C   0  0  0  0  0  0  0  0  0  0  0  0
   -7.5583   -7.2452    0.0000 C   0  0  0  0  0  0  0  0  0  0  0  0
   -7.5583   -5.7452    0.0000 C   0  0  0  0  0  0  0  0  0  0  0  0
   -6.1317   -5.2817    0.0000 C   0  0  0  0  0  0  0  0  0  0  0  0
  1  2  1  0
  2  3  1  0
  3  4  2  0
  4  5  1  0
  5  6  2  0
  6  7  1  0
  7  8  2  0
  8  9  1  0
  9 10  1  0
 10 11  1  0
 11 12  2  0
 12 13  1  0
 13 14  2  0
 14 15  1  0
 14 16  1  0
 16 17  1  0
 16 18  2  0
  9 19  2  0
 19 20  1  0
 20 21  2  0
 21 22  1  0
 22 23  1  0
 23 24  1  0
 24 25  1  0
 25 26  1  0
 26 27  1  0
 27 28  1  0
 28 29  1  0
 21  3  1  0
 29 25  1  0
 19  5  1  0
 18 11  1  0
M  END
>  <Compound_ID>  (23) 
CHEMBL57758

>  <Active>  (23) 
1.0

>  <Smiles>  (23) 
COc1cc2ncnc(Nc3ccc(F)c(Cl)c3)c2cc1OCCN1CCCC1

>  <canonical_smi>  (23) 
COc1cc2ncnc(Nc3ccc(F)c(Cl)c3)c2cc1OCCN1CCCC1

>  <Set>  (23) 
G1 active

>  <Set_type>  (23) 
G1

>  <MW>  (23) 
416.88

>  <HBD>  (23) 
1

>  <HBA>  (23) 
6

>  <NRB>  (23) 
7

>  <NR>  (23) 
4

>  <NAR>  (23) 
3

>  <PSA>  (23) 
59.51

>  <Standard Type>  (23) 
nan

>  <Standard Relation>  (23) 
nan

>  <Standard Units>  (23) 
nan

>  <Standard Value>  (23) 
nan

>  <Assay ChEMBL ID>  (23) 
nan

>  <Assay Description>  (23) 
nan

>  <BAO Label>  (23) 
nan

$$$$

     RDKit          2D

 17 18  0  0  0  0  0  0  0  0999 V2000
   -2.4240   -8.7293    0.0000 O   0  0  0  0  0  0  0  0  0  0  0  0
   -1.0537   -8.1192    0.0000 C   0  0  0  0  0  0  0  0  0  0  0  0
    0.2454   -8.8692    0.0000 C   0  0  0  0  0  0  0  0  0  0  0  0
    1.3601   -7.8655    0.0000 S   0  0  0  0  0  0  0  0  0  0  0  0
    0.7500   -6.4952    0.0000 C   0  0  0  0  0  0  0  0  0  0  0  0
    1.5000   -5.1962    0.0000 N   0  0  0  0  0  0  0  0  0  0  0  0
    0.7500   -3.8971    0.0000 N   0  0  0  0  0  0  0  0  0  0  0  0
    1.5000   -2.5981    0.0000 C   0  0  0  0  0  0  0  0  0  0  0  0
    0.7500   -1.2990    0.0000 C   0  0  0  0  0  0  0  0  0  0  0  0
    1.5000    0.0000    0.0000 C   0  0  0  0  0  0  0  0  0  0  0  0
    0.7500    1.2990    0.0000 C   0  0  0  0  0  0  0  0  0  0  0  0
    1.5000    2.5981    0.0000 Br  0  0  0  0  0  0  0  0  0  0  0  0
   -0.7500    1.2990    0.0000 C   0  0  0  0  0  0  0  0  0  0  0  0
   -1.5000    0.0000    0.0000 C   0  0  0  0  0  0  0  0  0  0  0  0
   -0.7500   -1.2990    0.0000 C   0  0  0  0  0  0  0  0  0  0  0  0
   -1.5000   -2.5981    0.0000 O   0  0  0  0  0  0  0  0  0  0  0  0
   -0.7418   -6.6520    0.0000 N   0  0  0  0  0  0  0  0  0  0  0  0
  1  2  2  0
  2  3  1  0
  3  4  1  0
  4  5  1  0
  5  6  1  0
  6  7  1  0
  7  8  2  0
  8  9  1  0
  9 10  2  0
 10 11  1  0
 11 12  1  0
 11 13  2  0
 13 14  1  0
 14 15  2  0
 15 16  1  0
  5 17  2  0
 17  2  1  0
 15  9  1  0
M  END
>  <Compound_ID>  (24) 
CHEMBL592457

>  <Active>  (24) 
1.0

>  <Smiles>  (24) 
O=C1CSC(N/N=C/c2cc(Br)ccc2O)=N1

>  <canonical_smi>  (24) 
O=C1CSC(N/N=C/c2cc(Br)ccc2O)=N1

>  <Set>  (24) 
G1 active

>  <Set_type>  (24) 
G1

>  <MW>  (24) 
314.16

>  <HBD>  (24) 
2

>  <HBA>  (24) 
4

>  <NRB>  (24) 
2

>  <NR>  (24) 
2

>  <NAR>  (24) 
1

>  <PSA>  (24) 
74.05

>  <Standard Type>  (24) 
nan

>  <Standard Relation>  (24) 
nan

>  <Standard Units>  (24) 
nan

>  <Standard Value>  (24) 
nan

>  <Assay ChEMBL ID>  (24) 
nan

>  <Assay Description>  (24) 
nan

>  <BAO Label>  (24) 
nan

$$$$

     RDKit          2D

 26 28  0  0  0  0  0  0  0  0999 V2000
   -3.0000   -5.1962    0.0000 O   0  0  0  0  0  0  0  0  0  0  0  0
   -3.7500   -3.8971    0.0000 C   0  0  0  0  0  0  0  0  0  0  0  0
   -3.0000   -2.5981    0.0000 N   0  0  0  0  0  0  0  0  0  0  0  0
   -1.5000   -2.5981    0.0000 C   0  0  0  0  0  0  0  0  0  0  0  0
   -0.7500   -3.8971    0.0000 C   0  0  0  0  0  0  0  0  0  0  0  0
    0.7500   -3.8971    0.0000 C   0  0  0  0  0  0  0  0  0  0  0  0
    1.5000   -2.5981    0.0000 C   0  0  0  0  0  0  0  0  0  0  0  0
    0.7500   -1.2990    0.0000 C   0  0  0  0  0  0  0  0  0  0  0  0
    1.5000    0.0000    0.0000 C   0  0  0  0  0  0  0  0  0  0  0  0
    0.7500    1.2990    0.0000 C   0  0  0  0  0  0  0  0  0  0  0  0
   -0.7500    1.2990    0.0000 C   0  0  0  0  0  0  0  0  0  0  0  0
   -1.5000    0.0000    0.0000 C   0  0  0  0  0  0  0  0  0  0  0  0
   -0.7500   -1.2990    0.0000 C   0  0  0  0  0  0  0  0  0  0  0  0
   -5.2500   -3.8971    0.0000 C   0  0  0  0  0  0  0  0  0  0  0  0
   -6.0000   -2.5981    0.0000 C   0  0  0  0  0  0  0  0  0  0  0  0
   -7.5000   -2.5981    0.0000 C   0  0  0  0  0  0  0  0  0  0  0  0
   -8.2500   -3.8971    0.0000 C   0  0  0  0  0  0  0  0  0  0  0  0
   -9.7500   -3.8971    0.0000 N   0  0  0  0  0  0  0  0  0  0  0  0
  -10.5000   -2.5981    0.0000 C   0  0  0  0  0  0  0  0  0  0  0  0
  -12.0000   -2.5981    0.0000 C   0  0  0  0  0  0  0  0  0  0  0  0
  -12.7500   -1.2990    0.0000 Cl  0  0  0  0  0  0  0  0  0  0  0  0
  -10.5000   -5.1962    0.0000 C   0  0  0  0  0  0  0  0  0  0  0  0
  -12.0000   -5.1962    0.0000 C   0  0  0  0  0  0  0  0  0  0  0  0
  -12.7500   -6.4952    0.0000 Cl  0  0  0  0  0  0  0  0  0  0  0  0
   -7.5000   -5.1962    0.0000 C   0  0  0  0  0  0  0  0  0  0  0  0
   -6.0000   -5.1962    0.0000 C   0  0  0  0  0  0  0  0  0  0  0  0
  1  2  2  0
  2  3  1  0
  3  4  1  0
  4  5  2  0
  5  6  1  0
  6  7  2  0
  7  8  1  0
  8  9  2  0
  9 10  1  0
 10 11  2  0
 11 12  1  0
 12 13  2  0
  2 14  1  0
 14 15  2  0
 15 16  1  0
 16 17  2  0
 17 18  1  0
 18 19  1  0
 19 20  1  0
 20 21  1  0
 18 22  1  0
 22 23  1  0
 23 24  1  0
 17 25  1  0
 25 26  2  0
 13  4  1  0
 26 14  1  0
 13  8  1  0
M  END
>  <Compound_ID>  (25) 
CHEMBL602728

>  <Active>  (25) 
1.0

>  <Smiles>  (25) 
O=C(Nc1cccc2ccccc12)c1ccc(N(CCCl)CCCl)cc1

>  <canonical_smi>  (25) 
O=C(Nc1cccc2ccccc12)c1ccc(N(CCCl)CCCl)cc1

>  <Set>  (25) 
G1 active

>  <Set_type>  (25) 
G1

>  <MW>  (25) 
387.31

>  <HBD>  (25) 
1

>  <HBA>  (25) 
2

>  <NRB>  (25) 
7

>  <NR>  (25) 
3

>  <NAR>  (25) 
3

>  <PSA>  (25) 
32.34

>  <Standard Type>  (25) 
nan

>  <Standard Relation>  (25) 
nan

>  <Standard Units>  (25) 
nan

>  <Standard Value>  (25) 
nan

>  <Assay ChEMBL ID>  (25) 
nan

>  <Assay Description>  (25) 
nan

>  <BAO Label>  (25) 
nan

$$$$

     RDKit          2D

 20 22  0  0  0  0  0  0  0  0999 V2000
    3.0000    0.0000    0.0000 O   0  0  0  0  0  0  0  0  0  0  0  0
    1.5000    0.0000    0.0000 C   0  0  0  0  0  0  0  0  0  0  0  0
    0.7500   -1.2990    0.0000 C   0  0  0  0  0  0  0  0  0  0  0  0
    1.5000   -2.5981    0.0000 C   0  0  0  0  0  0  0  0  0  0  0  0
    0.7500   -3.8971    0.0000 C   0  0  0  0  0  0  0  0  0  0  0  0
    1.5000   -5.1962    0.0000 C   0  0  0  0  0  0  0  0  0  0  0  0
    3.0000   -5.1962    0.0000 C   0  0  0  0  0  0  0  0  0  0  0  0
    3.7500   -3.8971    0.0000 C   0  0  0  0  0  0  0  0  0  0  0  0
    5.2500   -3.8971    0.0000 Cl  0  0  0  0  0  0  0  0  0  0  0  0
    3.0000   -2.5981    0.0000 C   0  0  0  0  0  0  0  0  0  0  0  0
   -0.7500   -1.2990    0.0000 C   0  0  0  0  0  0  0  0  0  0  0  0
   -1.5000    0.0000    0.0000 O   0  0  0  0  0  0  0  0  0  0  0  0
   -0.7500    1.2990    0.0000 C   0  0  0  0  0  0  0  0  0  0  0  0
   -1.5000    2.5981    0.0000 C   0  0  0  0  0  0  0  0  0  0  0  0
   -0.7500    3.8971    0.0000 C   0  0  0  0  0  0  0  0  0  0  0  0
   -1.5000    5.1962    0.0000 O   0  0  0  0  0  0  0  0  0  0  0  0
    0.7500    3.8971    0.0000 C   0  0  0  0  0  0  0  0  0  0  0  0
    1.5000    2.5981    0.0000 C   0  0  0  0  0  0  0  0  0  0  0  0
    3.0000    2.5981    0.0000 O   0  0  0  0  0  0  0  0  0  0  0  0
    0.7500    1.2990    0.0000 C   0  0  0  0  0  0  0  0  0  0  0  0
  1  2  2  0
  2  3  1  0
  3  4  1  0
  4  5  2  0
  5  6  1  0
  6  7  2  0
  7  8  1  0
  8  9  1  0
  8 10  2  0
  3 11  2  0
 11 12  1  0
 12 13  1  0
 13 14  2  0
 14 15  1  0
 15 16  1  0
 15 17  2  0
 17 18  1  0
 18 19  1  0
 18 20  2  0
 20  2  1  0
 10  4  1  0
 20 13  1  0
M  END
>  <Compound_ID>  (26) 
CHEMBL7827

>  <Active>  (26) 
1.0

>  <Smiles>  (26) 
O=c1c(-c2cccc(Cl)c2)coc2cc(O)cc(O)c12

>  <canonical_smi>  (26) 
O=c1c(-c2cccc(Cl)c2)coc2cc(O)cc(O)c12

>  <Set>  (26) 
G1 active

>  <Set_type>  (26) 
G1

>  <MW>  (26) 
288.69

>  <HBD>  (26) 
2

>  <HBA>  (26) 
4

>  <NRB>  (26) 
1

>  <NR>  (26) 
3

>  <NAR>  (26) 
3

>  <PSA>  (26) 
70.67

>  <Standard Type>  (26) 
nan

>  <Standard Relation>  (26) 
nan

>  <Standard Units>  (26) 
nan

>  <Standard Value>  (26) 
nan

>  <Assay ChEMBL ID>  (26) 
nan

>  <Assay Description>  (26) 
nan

>  <BAO Label>  (26) 
nan

$$$$

     RDKit          2D

 22 24  0  0  0  0  0  0  0  0999 V2000
    5.2500   -1.2990    0.0000 C   0  0  0  0  0  0  0  0  0  0  0  0
    3.7500   -1.2990    0.0000 C   0  0  0  0  0  0  0  0  0  0  0  0
    3.0000   -2.5981    0.0000 O   0  0  0  0  0  0  0  0  0  0  0  0
    3.0000    0.0000    0.0000 N   0  0  0  0  0  0  0  0  0  0  0  0
    1.5000    0.0000    0.0000 C   0  0  0  0  0  0  0  0  0  0  0  0
    0.7500   -1.2990    0.0000 C   0  0  0  0  0  0  0  0  0  0  0  0
   -0.7500   -1.2990    0.0000 C   0  0  0  0  0  0  0  0  0  0  0  0
   -1.5000   -2.5981    0.0000 N   0  0  0  0  0  0  0  0  0  0  0  0
   -3.0000   -2.5981    0.0000 C   0  0  0  0  0  0  0  0  0  0  0  0
   -3.7500   -1.2990    0.0000 N   0  0  0  0  0  0  0  0  0  0  0  0
   -3.0000    0.0000    0.0000 C   0  0  0  0  0  0  0  0  0  0  0  0
   -3.7500    1.2990    0.0000 N   0  0  0  0  0  0  0  0  0  0  0  0
   -5.2500    1.2990    0.0000 C   0  0  0  0  0  0  0  0  0  0  0  0
   -6.0000    2.5981    0.0000 C   0  0  0  0  0  0  0  0  0  0  0  0
   -5.2500    3.8971    0.0000 C   0  0  0  0  0  0  0  0  0  0  0  0
   -6.0000    5.1962    0.0000 C   0  0  0  0  0  0  0  0  0  0  0  0
   -7.5000    5.1962    0.0000 C   0  0  0  0  0  0  0  0  0  0  0  0
   -8.2500    3.8971    0.0000 C   0  0  0  0  0  0  0  0  0  0  0  0
   -7.5000    2.5981    0.0000 C   0  0  0  0  0  0  0  0  0  0  0  0
   -1.5000    0.0000    0.0000 C   0  0  0  0  0  0  0  0  0  0  0  0
   -0.7500    1.2990    0.0000 C   0  0  0  0  0  0  0  0  0  0  0  0
    0.7500    1.2990    0.0000 N   0  0  0  0  0  0  0  0  0  0  0  0
  1  2  1  0
  2  3  2  0
  2  4  1  0
  4  5  1  0
  5  6  2  0
  6  7  1  0
  7  8  2  0
  8  9  1  0
  9 10  2  0
 10 11  1  0
 11 12  1  0
 12 13  1  0
 13 14  1  0
 14 15  2  0
 15 16  1  0
 16 17  2  0
 17 18  1  0
 18 19  2  0
 11 20  2  0
 20 21  1  0
 21 22  2  0
 22  5  1  0
 20  7  1  0
 19 14  1  0
M  END
>  <Compound_ID>  (27) 
CHEMBL53404

>  <Active>  (27) 
1.0

>  <Smiles>  (27) 
CC(=O)Nc1cc2ncnc(NCc3ccccc3)c2cn1

>  <canonical_smi>  (27) 
CC(=O)Nc1cc2ncnc(NCc3ccccc3)c2cn1

>  <Set>  (27) 
G1 active

>  <Set_type>  (27) 
G1

>  <MW>  (27) 
293.33

>  <HBD>  (27) 
2

>  <HBA>  (27) 
5

>  <NRB>  (27) 
4

>  <NR>  (27) 
3

>  <NAR>  (27) 
3

>  <PSA>  (27) 
79.8

>  <Standard Type>  (27) 
nan

>  <Standard Relation>  (27) 
nan

>  <Standard Units>  (27) 
nan

>  <Standard Value>  (27) 
nan

>  <Assay ChEMBL ID>  (27) 
nan

>  <Assay Description>  (27) 
nan

>  <BAO Label>  (27) 
nan

$$$$

     RDKit          2D

 18 18  0  0  0  0  0  0  0  0999 V2000
    9.0000    2.5981    0.0000 N   0  0  0  0  0  0  0  0  0  0  0  0
    7.5000    2.5981    0.0000 C   0  0  0  0  0  0  0  0  0  0  0  0
    6.0000    2.5981    0.0000 C   0  0  0  0  0  0  0  0  0  0  0  0
    5.2500    3.8971    0.0000 C   0  0  0  0  0  0  0  0  0  0  0  0
    4.5000    5.1962    0.0000 N   0  0  0  0  0  0  0  0  0  0  0  0
    5.2500    1.2990    0.0000 C   0  0  0  0  0  0  0  0  0  0  0  0
    6.0000    0.0000    0.0000 N   0  0  0  0  0  0  0  0  0  0  0  0
    3.7500    1.2990    0.0000 C   0  0  0  0  0  0  0  0  0  0  0  0
    3.0000    2.5981    0.0000 C   0  0  0  0  0  0  0  0  0  0  0  0
    2.2500    3.8971    0.0000 N   0  0  0  0  0  0  0  0  0  0  0  0
    3.0000    0.0000    0.0000 C   0  0  0  0  0  0  0  0  0  0  0  0
    1.5000    0.0000    0.0000 C   0  0  0  0  0  0  0  0  0  0  0  0
    0.7500   -1.2990    0.0000 C   0  0  0  0  0  0  0  0  0  0  0  0
   -0.7500   -1.2990    0.0000 C   0  0  0  0  0  0  0  0  0  0  0  0
   -1.5000    0.0000    0.0000 C   0  0  0  0  0  0  0  0  0  0  0  0
   -3.0000    0.0000    0.0000 O   0  0  0  0  0  0  0  0  0  0  0  0
   -0.7500    1.2990    0.0000 C   0  0  0  0  0  0  0  0  0  0  0  0
    0.7500    1.2990    0.0000 C   0  0  0  0  0  0  0  0  0  0  0  0
  1  2  3  0
  2  3  1  0
  3  4  1  0
  4  5  3  0
  3  6  2  0
  6  7  1  0
  6  8  1  0
  8  9  1  0
  9 10  3  0
  8 11  2  0
 11 12  1  0
 12 13  2  0
 13 14  1  0
 14 15  2  0
 15 16  1  0
 15 17  1  0
 17 18  2  0
 18 12  1  0
M  END
>  <Compound_ID>  (28) 
CHEMBL76589

>  <Active>  (28) 
1.0

>  <Smiles>  (28) 
N#CC(C#N)=C(N)/C(C#N)=C/c1ccc(O)cc1

>  <canonical_smi>  (28) 
N#CC(C#N)=C(N)/C(C#N)=C/c1ccc(O)cc1

>  <Set>  (28) 
G1 active

>  <Set_type>  (28) 
G1

>  <MW>  (28) 
236.23

>  <HBD>  (28) 
2

>  <HBA>  (28) 
5

>  <NRB>  (28) 
2

>  <NR>  (28) 
1

>  <NAR>  (28) 
1

>  <PSA>  (28) 
117.62

>  <Standard Type>  (28) 
nan

>  <Standard Relation>  (28) 
nan

>  <Standard Units>  (28) 
nan

>  <Standard Value>  (28) 
nan

>  <Assay ChEMBL ID>  (28) 
nan

>  <Assay Description>  (28) 
nan

>  <BAO Label>  (28) 
nan

$$$$

     RDKit          2D

 38 41  0  0  0  0  0  0  0  0999 V2000
    3.7500   -1.2990    0.0000 C   0  0  0  0  0  0  0  0  0  0  0  0
    3.0000    0.0000    0.0000 C   0  0  0  0  0  0  0  0  0  0  0  0
    1.5000    0.0000    0.0000 N   0  0  0  0  0  0  0  0  0  0  0  0
    0.7500   -1.2990    0.0000 C   0  0  0  0  0  0  0  0  0  0  0  0
   -0.7500   -1.2990    0.0000 C   0  0  0  0  0  0  0  0  0  0  0  0
   -1.5000    0.0000    0.0000 N   0  0  0  0  0  0  0  0  0  0  0  0
   -3.0000    0.0000    0.0000 C   0  0  0  0  0  0  0  0  0  0  0  0
   -3.7500    1.2990    0.0000 C   0  0  0  0  0  0  0  0  0  0  0  0
   -3.0000    2.5981    0.0000 C   0  0  0  0  0  0  0  0  0  0  0  0
   -3.7500    3.8971    0.0000 C   0  0  0  0  0  0  0  0  0  0  0  0
   -5.2500    3.8971    0.0000 C   0  0  0  0  0  0  0  0  0  0  0  0
   -6.0000    5.1962    0.0000 N   0  0  0  0  0  0  0  0  0  0  0  0
   -5.2500    6.4952    0.0000 C   0  0  0  0  0  0  0  0  0  0  0  0
   -3.7500    6.4952    0.0000 O   0  0  0  0  0  0  0  0  0  0  0  0
   -6.0000    7.7942    0.0000 N   0  0  0  0  0  0  0  0  0  0  0  0
   -5.2500    9.0933    0.0000 C   0  0  0  0  0  0  0  0  0  0  0  0
   -3.7500    9.0933    0.0000 C   0  0  0  0  0  0  0  0  0  0  0  0
   -3.0000   10.3923    0.0000 C   0  0  0  0  0  0  0  0  0  0  0  0
   -3.7500   11.6913    0.0000 C   0  0  0  0  0  0  0  0  0  0  0  0
   -3.0000   12.9904    0.0000 O   0  0  0  0  0  0  0  0  0  0  0  0
   -1.5000   12.9904    0.0000 C   0  0  0  0  0  0  0  0  0  0  0  0
   -0.7500   11.6913    0.0000 C   0  0  0  0  0  0  0  0  0  0  0  0
    0.7500   11.6913    0.0000 C   0  0  0  0  0  0  0  0  0  0  0  0
    1.5000   10.3923    0.0000 N   0  0  0  0  0  0  0  0  0  0  0  0
    0.7500    9.0933    0.0000 C   0  0  0  0  0  0  0  0  0  0  0  0
    1.5000   12.9904    0.0000 N   0  0  0  0  0  0  0  0  0  0  0  0
    0.7500   14.2894    0.0000 C   0  0  0  0  0  0  0  0  0  0  0  0
   -0.7500   14.2894    0.0000 N   0  0  0  0  0  0  0  0  0  0  0  0
   -5.2500   11.6913    0.0000 C   0  0  0  0  0  0  0  0  0  0  0  0
   -6.0000   10.3923    0.0000 C   0  0  0  0  0  0  0  0  0  0  0  0
   -6.0000    2.5981    0.0000 C   0  0  0  0  0  0  0  0  0  0  0  0
   -5.2500    1.2990    0.0000 C   0  0  0  0  0  0  0  0  0  0  0  0
   -6.0000    0.0000    0.0000 C   0  0  0  0  0  0  0  0  0  0  0  0
   -6.7500   -1.2990    0.0000 F   0  0  0  0  0  0  0  0  0  0  0  0
   -7.2990    0.7500    0.0000 F   0  0  0  0  0  0  0  0  0  0  0  0
   -4.7010   -0.7500    0.0000 F   0  0  0  0  0  0  0  0  0  0  0  0
   -0.7500    1.2990    0.0000 C   0  0  0  0  0  0  0  0  0  0  0  0
    0.7500    1.2990    0.0000 C   0  0  0  0  0  0  0  0  0  0  0  0
  1  2  1  0
  2  3  1  0
  3  4  1  0
  4  5  1  0
  5  6  1  0
  6  7  1  0
  7  8  1  0
  8  9  2  0
  9 10  1  0
 10 11  2  0
 11 12  1  0
 12 13  1  0
 13 14  2  0
 13 15  1  0
 15 16  1  0
 16 17  2  0
 17 18  1  0
 18 19  2  0
 19 20  1  0
 20 21  1  0
 21 22  2  0
 22 23  1  0
 23 24  1  0
 24 25  1  0
 23 26  2  0
 26 27  1  0
 27 28  2  0
 19 29  1  0
 29 30  2  0
 11 31  1  0
 31 32  2  0
 32 33  1  0
 33 34  1  0
 33 35  1  0
 33 36  1  0
  6 37  1  0
 37 38  1  0
 38  3  1  0
 32  8  1  0
 30 16  1  0
 28 21  1  0
M  END
>  <Compound_ID>  (29) 
CHEMBL574738

>  <Active>  (29) 
1.0

>  <Smiles>  (29) 
CCN1CCN(Cc2ccc(NC(=O)Nc3ccc(Oc4cc(NC)ncn4)cc3)cc2C(F)(F)F)CC1

>  <canonical_smi>  (29) 
CCN1CCN(Cc2ccc(NC(=O)Nc3ccc(Oc4cc(NC)ncn4)cc3)cc2C(F)(F)F)CC1

>  <Set>  (29) 
G1 active

>  <Set_type>  (29) 
G1

>  <MW>  (29) 
529.57

>  <HBD>  (29) 
3

>  <HBA>  (29) 
7

>  <NRB>  (29) 
8

>  <NR>  (29) 
4

>  <NAR>  (29) 
3

>  <PSA>  (29) 
94.65

>  <Standard Type>  (29) 
nan

>  <Standard Relation>  (29) 
nan

>  <Standard Units>  (29) 
nan

>  <Standard Value>  (29) 
nan

>  <Assay ChEMBL ID>  (29) 
nan

>  <Assay Description>  (29) 
nan

>  <BAO Label>  (29) 
nan

$$$$

     RDKit          2D

 40 46  0  0  0  0  0  0  0  0999 V2000
    0.0000   -9.6073    0.0000 C   0  0  0  0  0  0  0  0  0  0  0  0
    0.0000   -8.1073    0.0000 O   0  0  0  0  0  0  0  0  0  0  0  0
   -1.2990   -7.3573    0.0000 C   0  0  0  0  0  0  0  0  0  0  0  0
   -2.5981   -8.1073    0.0000 C   0  0  0  0  0  0  0  0  0  0  0  0
   -3.8971   -7.3573    0.0000 C   0  0  0  0  0  0  0  0  0  0  0  0
   -3.8971   -5.8573    0.0000 C   0  0  0  0  0  0  0  0  0  0  0  0
   -2.5981   -5.1073    0.0000 C   0  0  0  0  0  0  0  0  0  0  0  0
   -1.2990   -5.8573    0.0000 C   0  0  0  0  0  0  0  0  0  0  0  0
   -0.0000   -5.1073    0.0000 C   0  0  0  0  0  0  0  0  0  0  0  0
   -0.0000   -3.6073    0.0000 C   0  0  0  0  0  0  0  0  0  0  0  0
    1.2135   -2.7256    0.0000 N   0  0  0  0  0  0  0  0  0  0  0  0
    0.7500   -1.2990    0.0000 C   0  0  0  0  0  0  0  0  0  0  0  0
    1.5000    0.0000    0.0000 C   0  0  0  0  0  0  0  0  0  0  0  0
    0.7500    1.2990    0.0000 C   0  0  0  0  0  0  0  0  0  0  0  0
   -0.7500    1.2990    0.0000 C   0  0  0  0  0  0  0  0  0  0  0  0
   -1.5000    2.5981    0.0000 C   0  0  0  0  0  0  0  0  0  0  0  0
   -2.9918    2.7549    0.0000 N   0  0  0  0  0  0  0  0  0  0  0  0
   -3.3037    4.2221    0.0000 N   0  0  0  0  0  0  0  0  0  0  0  0
   -4.6740    4.8322    0.0000 C   0  0  0  0  0  0  0  0  0  0  0  0
   -4.8308    6.3240    0.0000 C   0  0  0  0  0  0  0  0  0  0  0  0
   -6.2011    6.9341    0.0000 C   0  0  0  0  0  0  0  0  0  0  0  0
   -7.4146    6.0524    0.0000 C   0  0  0  0  0  0  0  0  0  0  0  0
   -8.7849    6.6625    0.0000 N   0  0  0  0  0  0  0  0  0  0  0  0
   -8.9417    8.1543    0.0000 C   0  0  0  0  0  0  0  0  0  0  0  0
  -10.3120    8.7644    0.0000 C   0  0  0  0  0  0  0  0  0  0  0  0
  -11.5256    7.8827    0.0000 N   0  0  0  0  0  0  0  0  0  0  0  0
  -11.3688    6.3909    0.0000 C   0  0  0  0  0  0  0  0  0  0  0  0
   -9.9984    5.7808    0.0000 C   0  0  0  0  0  0  0  0  0  0  0  0
   -7.2578    4.5606    0.0000 C   0  0  0  0  0  0  0  0  0  0  0  0
   -5.8875    3.9505    0.0000 C   0  0  0  0  0  0  0  0  0  0  0  0
   -2.0046    4.9721    0.0000 C   0  0  0  0  0  0  0  0  0  0  0  0
   -1.6927    6.4393    0.0000 N   0  0  0  0  0  0  0  0  0  0  0  0
   -0.2662    6.9028    0.0000 C   0  0  0  0  0  0  0  0  0  0  0  0
    0.8486    5.8991    0.0000 N   0  0  0  0  0  0  0  0  0  0  0  0
    0.5367    4.4319    0.0000 C   0  0  0  0  0  0  0  0  0  0  0  0
    1.6514    3.4282    0.0000 N   0  0  0  0  0  0  0  0  0  0  0  0
   -0.8899    3.9684    0.0000 C   0  0  0  0  0  0  0  0  0  0  0  0
   -1.5000    0.0000    0.0000 C   0  0  0  0  0  0  0  0  0  0  0  0
   -0.7500   -1.2990    0.0000 C   0  0  0  0  0  0  0  0  0  0  0  0
   -1.2135   -2.7256    0.0000 N   0  0  0  0  0  0  0  0  0  0  0  0
  1  2  1  0
  2  3  1  0
  3  4  2  0
  4  5  1  0
  5  6  2  0
  6  7  1  0
  7  8  2  0
  8  9  1  0
  9 10  1  0
 10 11  2  0
 11 12  1  0
 12 13  2  0
 13 14  1  0
 14 15  2  0
 15 16  1  0
 16 17  2  0
 17 18  1  0
 18 19  1  0
 19 20  1  0
 20 21  1  0
 21 22  1  0
 22 23  1  0
 23 24  1  0
 24 25  1  0
 25 26  1  0
 26 27  1  0
 27 28  1  0
 22 29  1  0
 29 30  1  0
 18 31  1  0
 31 32  2  0
 32 33  1  0
 33 34  2  0
 34 35  1  0
 35 36  1  0
 35 37  2  0
 15 38  1  0
 38 39  2  0
 39 40  1  0
  8  3  1  0
 40 10  1  0
 39 12  1  0
 37 16  1  0
 30 19  1  0
 37 31  1  0
 28 23  1  0
M  END
>  <Compound_ID>  (30) 
CHEMBL455208

>  <Active>  (30) 
1.0

>  <Smiles>  (30) 
COc1ccccc1Cc1nc2ccc(-c3nn(C4CCC(N5CCNCC5)CC4)c4ncnc(N)c34)cc2[nH]1

>  <canonical_smi>  (30) 
COc1ccccc1Cc1nc2ccc(-c3nn(C4CCC(N5CCNCC5)CC4)c4ncnc(N)c34)cc2[nH]1

>  <Set>  (30) 
G1 active

>  <Set_type>  (30) 
G1

>  <MW>  (30) 
537.67

>  <HBD>  (30) 
3

>  <HBA>  (30) 
8

>  <NRB>  (30) 
6

>  <NR>  (30) 
7

>  <NAR>  (30) 
5

>  <PSA>  (30) 
122.8

>  <Standard Type>  (30) 
nan

>  <Standard Relation>  (30) 
nan

>  <Standard Units>  (30) 
nan

>  <Standard Value>  (30) 
nan

>  <Assay ChEMBL ID>  (30) 
nan

>  <Assay Description>  (30) 
nan

>  <BAO Label>  (30) 
nan

$$$$

     RDKit          2D

 26 28  0  0  0  0  0  0  0  0999 V2000
   -3.8971  -10.3573    0.0000 C   0  0  0  0  0  0  0  0  0  0  0  0
   -2.5981   -9.6073    0.0000 O   0  0  0  0  0  0  0  0  0  0  0  0
   -2.5981   -8.1073    0.0000 C   0  0  0  0  0  0  0  0  0  0  0  0
   -3.8971   -7.3573    0.0000 C   0  0  0  0  0  0  0  0  0  0  0  0
   -3.8971   -5.8573    0.0000 C   0  0  0  0  0  0  0  0  0  0  0  0
   -5.1962   -5.1073    0.0000 C   0  0  0  0  0  0  0  0  0  0  0  0
   -6.4952   -5.8573    0.0000 C   0  0  0  0  0  0  0  0  0  0  0  0
   -6.4952   -7.3573    0.0000 C   0  0  0  0  0  0  0  0  0  0  0  0
   -6.4952   -8.8573    0.0000 N   0  0  0  0  0  0  0  0  0  0  0  0
   -7.7942   -5.1073    0.0000 C   0  0  0  0  0  0  0  0  0  0  0  0
   -7.7942   -3.6073    0.0000 N   0  0  0  0  0  0  0  0  0  0  0  0
   -9.0933   -5.8573    0.0000 O   0  0  0  0  0  0  0  0  0  0  0  0
   -2.5981   -5.1073    0.0000 C   0  0  0  0  0  0  0  0  0  0  0  0
   -1.2990   -5.8573    0.0000 C   0  0  0  0  0  0  0  0  0  0  0  0
   -0.0000   -5.1073    0.0000 S   0  0  0  0  0  0  0  0  0  0  0  0
   -0.0000   -3.6073    0.0000 C   0  0  0  0  0  0  0  0  0  0  0  0
    1.2135   -2.7256    0.0000 N   0  0  0  0  0  0  0  0  0  0  0  0
    0.7500   -1.2990    0.0000 C   0  0  0  0  0  0  0  0  0  0  0  0
    1.5000    0.0000    0.0000 C   0  0  0  0  0  0  0  0  0  0  0  0
    0.7500    1.2990    0.0000 C   0  0  0  0  0  0  0  0  0  0  0  0
   -0.7500    1.2990    0.0000 C   0  0  0  0  0  0  0  0  0  0  0  0
   -1.5000    0.0000    0.0000 C   0  0  0  0  0  0  0  0  0  0  0  0
   -0.7500   -1.2990    0.0000 C   0  0  0  0  0  0  0  0  0  0  0  0
   -1.2135   -2.7256    0.0000 S   0  0  0  0  0  0  0  0  0  0  0  0
   -1.2990   -7.3573    0.0000 C   0  0  0  0  0  0  0  0  0  0  0  0
    0.0000   -8.1073    0.0000 O   0  0  0  0  0  0  0  0  0  0  0  0
  1  2  1  0
  2  3  1  0
  3  4  2  0
  4  5  1  0
  5  6  1  0
  6  7  2  0
  7  8  1  0
  8  9  3  0
  7 10  1  0
 10 11  1  0
 10 12  2  0
  5 13  2  0
 13 14  1  0
 14 15  1  0
 15 16  1  0
 16 17  2  0
 17 18  1  0
 18 19  2  0
 19 20  1  0
 20 21  2  0
 21 22  1  0
 22 23  2  0
 23 24  1  0
 14 25  2  0
 25 26  1  0
 25  3  1  0
 24 16  1  0
 23 18  1  0
M  END
>  <Compound_ID>  (31) 
CHEMBL290389

>  <Active>  (31) 
1.0

>  <Smiles>  (31) 
COc1cc(/C=C(\C#N)C(N)=O)cc(Sc2nc3ccccc3s2)c1O

>  <canonical_smi>  (31) 
COc1cc(/C=C(\C#N)C(N)=O)cc(Sc2nc3ccccc3s2)c1O

>  <Set>  (31) 
G1 active

>  <Set_type>  (31) 
G1

>  <MW>  (31) 
383.45

>  <HBD>  (31) 
2

>  <HBA>  (31) 
6

>  <NRB>  (31) 
5

>  <NR>  (31) 
3

>  <NAR>  (31) 
3

>  <PSA>  (31) 
109.23

>  <Standard Type>  (31) 
nan

>  <Standard Relation>  (31) 
nan

>  <Standard Units>  (31) 
nan

>  <Standard Value>  (31) 
nan

>  <Assay ChEMBL ID>  (31) 
nan

>  <Assay Description>  (31) 
nan

>  <BAO Label>  (31) 
nan

$$$$

     RDKit          2D

 26 27  0  0  0  0  0  0  0  0999 V2000
   -0.7500   -9.0933    0.0000 O   0  0  0  0  0  0  0  0  0  0  0  0
    0.7500   -9.0933    0.0000 C   0  0  0  0  0  0  0  0  0  0  0  0
    1.5000   -7.7942    0.0000 C   0  0  0  0  0  0  0  0  0  0  0  0
    0.7500   -6.4952    0.0000 C   0  0  0  0  0  0  0  0  0  0  0  0
    1.5000   -5.1962    0.0000 C   0  0  0  0  0  0  0  0  0  0  0  0
    0.7500   -3.8971    0.0000 C   0  0  0  0  0  0  0  0  0  0  0  0
   -0.7500   -3.8971    0.0000 O   0  0  0  0  0  0  0  0  0  0  0  0
    1.5000   -2.5981    0.0000 O   0  0  0  0  0  0  0  0  0  0  0  0
    0.7500   -1.2990    0.0000 C   0  0  0  0  0  0  0  0  0  0  0  0
    1.5000    0.0000    0.0000 C   0  0  0  0  0  0  0  0  0  0  0  0
    0.7500    1.2990    0.0000 C   0  0  0  0  0  0  0  0  0  0  0  0
   -0.7500    1.2990    0.0000 C   0  0  0  0  0  0  0  0  0  0  0  0
   -1.5000    2.5981    0.0000 C   0  0  0  0  0  0  0  0  0  0  0  0
   -0.7500    3.8971    0.0000 C   0  0  0  0  0  0  0  0  0  0  0  0
   -1.5000    5.1962    0.0000 N   0  0  0  0  0  4  0  0  0  0  0  0
   -3.0000    5.1962    0.0000 O   0  0  0  0  0  0  0  0  0  0  0  0
   -0.7500    6.4952    0.0000 O   0  0  0  0  0  1  0  0  0  0  0  0
   -1.5000    0.0000    0.0000 C   0  0  0  0  0  0  0  0  0  0  0  0
   -0.7500   -1.2990    0.0000 C   0  0  0  0  0  0  0  0  0  0  0  0
    1.5000  -10.3923    0.0000 O   0  0  0  0  0  0  0  0  0  0  0  0
    0.7500  -11.6913    0.0000 C   0  0  0  0  0  0  0  0  0  0  0  0
   -0.7500  -11.6913    0.0000 C   0  0  0  0  0  0  0  0  0  0  0  0
   -1.5000  -12.9904    0.0000 C   0  0  0  0  0  0  0  0  0  0  0  0
   -0.7500  -14.2894    0.0000 C   0  0  0  0  0  0  0  0  0  0  0  0
    0.7500  -14.2894    0.0000 C   0  0  0  0  0  0  0  0  0  0  0  0
    1.5000  -12.9904    0.0000 C   0  0  0  0  0  0  0  0  0  0  0  0
  1  2  2  0
  2  3  1  0
  3  4  1  0
  4  5  1  0
  5  6  1  0
  6  7  2  0
  6  8  1  0
  8  9  1  0
  9 10  2  0
 10 11  1  0
 11 12  2  0
 12 13  1  0
 13 14  2  0
 14 15  1  0
 15 16  2  0
 15 17  1  0
 12 18  1  0
 18 19  2  0
  2 20  1  0
 20 21  1  0
 21 22  2  0
 22 23  1  0
 23 24  2  0
 24 25  1  0
 25 26  2  0
 19  9  1  0
 26 21  1  0
M  CHG  2  15   1  17  -1
M  END
>  <Compound_ID>  (32) 
CHEMBL304442

>  <Active>  (32) 
1.0

>  <Smiles>  (32) 
O=C(CCCC(=O)Oc1ccc(/C=C/[N+](=O)[O-])cc1)Oc1ccccc1

>  <canonical_smi>  (32) 
O=C(CCCC(=O)Oc1ccc(/C=C/[N+](=O)[O-])cc1)Oc1ccccc1

>  <Set>  (32) 
G1 active

>  <Set_type>  (32) 
G1

>  <MW>  (32) 
355.35

>  <HBD>  (32) 
0

>  <HBA>  (32) 
6

>  <NRB>  (32) 
8

>  <NR>  (32) 
2

>  <NAR>  (32) 
2

>  <PSA>  (32) 
95.74

>  <Standard Type>  (32) 
nan

>  <Standard Relation>  (32) 
nan

>  <Standard Units>  (32) 
nan

>  <Standard Value>  (32) 
nan

>  <Assay ChEMBL ID>  (32) 
nan

>  <Assay Description>  (32) 
nan

>  <BAO Label>  (32) 
nan

$$$$

     RDKit          2D

 25 28  0  0  0  0  0  0  0  0999 V2000
   -6.0000   -7.7942    0.0000 Cl  0  0  0  0  0  0  0  0  0  0  0  0
   -5.2500   -6.4952    0.0000 C   0  0  0  0  0  0  0  0  0  0  0  0
   -6.0000   -5.1962    0.0000 C   0  0  0  0  0  0  0  0  0  0  0  0
   -5.2500   -3.8971    0.0000 C   0  0  0  0  0  0  0  0  0  0  0  0
   -3.7500   -3.8971    0.0000 C   0  0  0  0  0  0  0  0  0  0  0  0
   -3.0000   -2.5981    0.0000 N   0  0  0  0  0  0  0  0  0  0  0  0
   -1.5000   -2.5981    0.0000 C   0  0  0  0  0  0  0  0  0  0  0  0
   -0.7500   -3.8971    0.0000 N   0  0  0  0  0  0  0  0  0  0  0  0
    0.7500   -3.8971    0.0000 N   0  0  0  0  0  0  0  0  0  0  0  0
    1.5000   -2.5981    0.0000 C   0  0  0  0  0  0  0  0  0  0  0  0
    3.0000   -2.5981    0.0000 C   0  0  0  0  0  0  0  0  0  0  0  0
    3.7500   -3.8971    0.0000 C   0  0  0  0  0  0  0  0  0  0  0  0
    3.0000   -5.1962    0.0000 C   0  0  0  0  0  0  0  0  0  0  0  0
    3.7500   -6.4952    0.0000 C   0  0  0  0  0  0  0  0  0  0  0  0
    5.2500   -6.4952    0.0000 N   0  0  0  0  0  0  0  0  0  0  0  0
    6.0000   -5.1962    0.0000 C   0  0  0  0  0  0  0  0  0  0  0  0
    5.2500   -3.8971    0.0000 C   0  0  0  0  0  0  0  0  0  0  0  0
    0.7500   -1.2990    0.0000 C   0  0  0  0  0  0  0  0  0  0  0  0
    1.5000    0.0000    0.0000 C   0  0  0  0  0  0  0  0  0  0  0  0
    0.7500    1.2990    0.0000 C   0  0  0  0  0  0  0  0  0  0  0  0
   -0.7500    1.2990    0.0000 C   0  0  0  0  0  0  0  0  0  0  0  0
   -1.5000    0.0000    0.0000 C   0  0  0  0  0  0  0  0  0  0  0  0
   -0.7500   -1.2990    0.0000 C   0  0  0  0  0  0  0  0  0  0  0  0
   -3.0000   -5.1962    0.0000 C   0  0  0  0  0  0  0  0  0  0  0  0
   -3.7500   -6.4952    0.0000 C   0  0  0  0  0  0  0  0  0  0  0  0
  1  2  1  0
  2  3  2  0
  3  4  1  0
  4  5  2  0
  5  6  1  0
  6  7  1  0
  7  8  2  0
  8  9  1  0
  9 10  2  0
 10 11  1  0
 11 12  1  0
 12 13  2  0
 13 14  1  0
 14 15  2  0
 15 16  1  0
 16 17  2  0
 10 18  1  0
 18 19  2  0
 19 20  1  0
 20 21  2  0
 21 22  1  0
 22 23  2  0
  5 24  1  0
 24 25  2  0
 25  2  1  0
 23  7  1  0
 17 12  1  0
 23 18  1  0
M  END
>  <Compound_ID>  (33) 
CHEMBL101253

>  <Active>  (33) 
1.0

>  <Smiles>  (33) 
Clc1ccc(Nc2nnc(Cc3ccncc3)c3ccccc23)cc1

>  <canonical_smi>  (33) 
Clc1ccc(Nc2nnc(Cc3ccncc3)c3ccccc23)cc1

>  <Set>  (33) 
G1 active

>  <Set_type>  (33) 
G1

>  <MW>  (33) 
346.82

>  <HBD>  (33) 
1

>  <HBA>  (33) 
4

>  <NRB>  (33) 
4

>  <NR>  (33) 
4

>  <NAR>  (33) 
4

>  <PSA>  (33) 
50.7

>  <Standard Type>  (33) 
nan

>  <Standard Relation>  (33) 
nan

>  <Standard Units>  (33) 
nan

>  <Standard Value>  (33) 
nan

>  <Assay ChEMBL ID>  (33) 
nan

>  <Assay Description>  (33) 
nan

>  <BAO Label>  (33) 
nan

$$$$

     RDKit          2D

 16 17  0  0  0  0  0  0  0  0999 V2000
    4.2760    2.5981    0.0000 N   0  0  0  0  0  0  0  0  0  0  0  0
    3.5260    1.2990    0.0000 C   0  0  0  0  0  0  0  0  0  0  0  0
    2.7760    0.0000    0.0000 C   0  0  0  0  0  0  0  0  0  0  0  0
    3.5260   -1.2990    0.0000 C   0  0  0  0  0  0  0  0  0  0  0  0
    4.2760   -2.5981    0.0000 N   0  0  0  0  0  0  0  0  0  0  0  0
    1.2760    0.0000    0.0000 C   0  0  0  0  0  0  0  0  0  0  0  0
    0.3943    1.2135    0.0000 C   0  0  0  0  0  0  0  0  0  0  0  0
   -1.0323    0.7500    0.0000 C   0  0  0  0  0  0  0  0  0  0  0  0
   -1.0323   -0.7500    0.0000 C   0  0  0  0  0  0  0  0  0  0  0  0
   -2.1470   -1.7537    0.0000 C   0  0  0  0  0  0  0  0  0  0  0  0
   -1.8351   -3.2209    0.0000 C   0  0  0  0  0  0  0  0  0  0  0  0
   -2.9499   -4.2246    0.0000 O   0  0  0  0  0  0  0  0  0  0  0  0
   -0.4086   -3.6844    0.0000 C   0  0  0  0  0  0  0  0  0  0  0  0
   -0.0967   -5.1517    0.0000 O   0  0  0  0  0  0  0  0  0  0  0  0
    0.7062   -2.6807    0.0000 C   0  0  0  0  0  0  0  0  0  0  0  0
    0.3943   -1.2135    0.0000 C   0  0  0  0  0  0  0  0  0  0  0  0
  1  2  3  0
  2  3  1  0
  3  4  1  0
  4  5  3  0
  3  6  2  0
  6  7  1  0
  7  8  1  0
  8  9  1  0
  9 10  2  0
 10 11  1  0
 11 12  1  0
 11 13  2  0
 13 14  1  0
 13 15  1  0
 15 16  2  0
 16  6  1  0
 16  9  1  0
M  END
>  <Compound_ID>  (34) 
CHEMBL293584

>  <Active>  (34) 
1.0

>  <Smiles>  (34) 
N#CC(C#N)=C1CCc2cc(O)c(O)cc21

>  <canonical_smi>  (34) 
N#CC(C#N)=C1CCc2cc(O)c(O)cc21

>  <Set>  (34) 
G1 active

>  <Set_type>  (34) 
G1

>  <MW>  (34) 
212.21

>  <HBD>  (34) 
2

>  <HBA>  (34) 
4

>  <NRB>  (34) 
0

>  <NR>  (34) 
2

>  <NAR>  (34) 
1

>  <PSA>  (34) 
88.04

>  <Standard Type>  (34) 
nan

>  <Standard Relation>  (34) 
nan

>  <Standard Units>  (34) 
nan

>  <Standard Value>  (34) 
nan

>  <Assay ChEMBL ID>  (34) 
nan

>  <Assay Description>  (34) 
nan

>  <BAO Label>  (34) 
nan

$$$$

     RDKit          2D

 18 20  0  0  0  0  0  0  0  0999 V2000
    1.5000   -5.1962    0.0000 O   0  0  0  0  0  0  0  0  0  0  0  0
    0.7500   -3.8971    0.0000 C   0  0  0  0  0  0  0  0  0  0  0  0
    1.5000   -2.5981    0.0000 C   0  0  0  0  0  0  0  0  0  0  0  0
    0.7500   -1.2990    0.0000 C   0  0  0  0  0  0  0  0  0  0  0  0
    1.5000    0.0000    0.0000 C   0  0  0  0  0  0  0  0  0  0  0  0
    0.7500    1.2990    0.0000 C   0  0  0  0  0  0  0  0  0  0  0  0
    1.5000    2.5981    0.0000 C   0  0  0  0  0  0  0  0  0  0  0  0
    3.0000    2.5981    0.0000 C   0  0  0  0  0  0  0  0  0  0  0  0
    3.7500    3.8971    0.0000 C   0  0  0  0  0  0  0  0  0  0  0  0
    3.0000    5.1962    0.0000 C   0  0  0  0  0  0  0  0  0  0  0  0
    1.5000    5.1962    0.0000 N   0  0  0  0  0  0  0  0  0  0  0  0
    0.7500    3.8971    0.0000 C   0  0  0  0  0  0  0  0  0  0  0  0
   -0.7500    1.2990    0.0000 C   0  0  0  0  0  0  0  0  0  0  0  0
   -1.5000    0.0000    0.0000 N   0  0  0  0  0  0  0  0  0  0  0  0
   -0.7500   -1.2990    0.0000 C   0  0  0  0  0  0  0  0  0  0  0  0
   -1.5000   -2.5981    0.0000 C   0  0  0  0  0  0  0  0  0  0  0  0
   -0.7500   -3.8971    0.0000 C   0  0  0  0  0  0  0  0  0  0  0  0
   -1.5000   -5.1962    0.0000 O   0  0  0  0  0  0  0  0  0  0  0  0
  1  2  1  0
  2  3  2  0
  3  4  1  0
  4  5  2  0
  5  6  1  0
  6  7  1  0
  7  8  2  0
  8  9  1  0
  9 10  2  0
 10 11  1  0
 11 12  2  0
  6 13  2  0
 13 14  1  0
 14 15  2  0
 15 16  1  0
 16 17  2  0
 17 18  1  0
 17  2  1  0
 15  4  1  0
 12  7  1  0
M  END
>  <Compound_ID>  (35) 
CHEMBL63356

>  <Active>  (35) 
1.0

>  <Smiles>  (35) 
Oc1cc2cc(-c3cccnc3)cnc2cc1O

>  <canonical_smi>  (35) 
Oc1cc2cc(-c3cccnc3)cnc2cc1O

>  <Set>  (35) 
G1 active

>  <Set_type>  (35) 
G1

>  <MW>  (35) 
238.25

>  <HBD>  (35) 
2

>  <HBA>  (35) 
4

>  <NRB>  (35) 
1

>  <NR>  (35) 
3

>  <NAR>  (35) 
3

>  <PSA>  (35) 
66.24

>  <Standard Type>  (35) 
nan

>  <Standard Relation>  (35) 
nan

>  <Standard Units>  (35) 
nan

>  <Standard Value>  (35) 
nan

>  <Assay ChEMBL ID>  (35) 
nan

>  <Assay Description>  (35) 
nan

>  <BAO Label>  (35) 
nan

$$$$

     RDKit          2D

 20 22  0  0  0  0  0  0  0  0999 V2000
   -0.0000   -5.1073    0.0000 C   0  0  0  0  0  0  0  0  0  0  0  0
   -0.0000   -3.6073    0.0000 C   0  0  0  0  0  0  0  0  0  0  0  0
    1.2135   -2.7256    0.0000 N   0  0  0  0  0  0  0  0  0  0  0  0
    0.7500   -1.2990    0.0000 C   0  0  0  0  0  0  0  0  0  0  0  0
    1.5000    0.0000    0.0000 N   0  0  0  0  0  0  0  0  0  0  0  0
    0.7500    1.2990    0.0000 C   0  0  0  0  0  0  0  0  0  0  0  0
   -0.7500    1.2990    0.0000 N   0  0  0  0  0  0  0  0  0  0  0  0
   -1.5000    0.0000    0.0000 C   0  0  0  0  0  0  0  0  0  0  0  0
   -3.0000    0.0000    0.0000 N   0  0  0  0  0  0  0  0  0  0  0  0
   -3.7500   -1.2990    0.0000 C   0  0  0  0  0  0  0  0  0  0  0  0
   -3.7500    1.2990    0.0000 C   0  0  0  0  0  0  0  0  0  0  0  0
   -5.2500    1.2990    0.0000 C   0  0  0  0  0  0  0  0  0  0  0  0
   -6.0000    2.5981    0.0000 C   0  0  0  0  0  0  0  0  0  0  0  0
   -5.2500    3.8971    0.0000 C   0  0  0  0  0  0  0  0  0  0  0  0
   -3.7500    3.8971    0.0000 C   0  0  0  0  0  0  0  0  0  0  0  0
   -3.0000    5.1962    0.0000 Cl  0  0  0  0  0  0  0  0  0  0  0  0
   -3.0000    2.5981    0.0000 C   0  0  0  0  0  0  0  0  0  0  0  0
   -0.7500   -1.2990    0.0000 C   0  0  0  0  0  0  0  0  0  0  0  0
   -1.2135   -2.7256    0.0000 C   0  0  0  0  0  0  0  0  0  0  0  0
   -2.6401   -3.1891    0.0000 C   0  0  0  0  0  0  0  0  0  0  0  0
  1  2  1  0
  2  3  1  0
  3  4  2  0
  4  5  1  0
  5  6  2  0
  6  7  1  0
  7  8  1  0
  8  9  1  0
  9 10  1  0
  9 11  1  0
 11 12  2  0
 12 13  1  0
 13 14  2  0
 14 15  1  0
 15 16  1  0
 15 17  2  0
  8 18  2  0
 18 19  1  0
 19 20  1  0
 19  2  2  0
 18  4  1  0
 17 11  1  0
M  END
>  <Compound_ID>  (36) 
CHEMBL76444

>  <Active>  (36) 
1.0

>  <Smiles>  (36) 
Cc1nc2nc[nH]c(N(C)c3cccc(Cl)c3)c-2c1C

>  <canonical_smi>  (36) 
Cc1nc2nc[nH]c(N(C)c3cccc(Cl)c3)c-2c1C

>  <Set>  (36) 
G1 active

>  <Set_type>  (36) 
G1

>  <MW>  (36) 
286.77

>  <HBD>  (36) 
1

>  <HBA>  (36) 
3

>  <NRB>  (36) 
2

>  <NR>  (36) 
3

>  <NAR>  (36) 
3

>  <PSA>  (36) 
44.81

>  <Standard Type>  (36) 
nan

>  <Standard Relation>  (36) 
nan

>  <Standard Units>  (36) 
nan

>  <Standard Value>  (36) 
nan

>  <Assay ChEMBL ID>  (36) 
nan

>  <Assay Description>  (36) 
nan

>  <BAO Label>  (36) 
nan

$$$$

     RDKit          2D

 30 34  0  0  0  0  0  0  0  0999 V2000
   -0.3363   -9.0724    0.0000 C   0  0  0  0  0  0  0  0  0  0  0  0
    1.0152   -8.4216    0.0000 O   0  0  0  0  0  0  0  0  0  0  0  0
    1.1273   -6.9258    0.0000 C   0  0  0  0  0  0  0  0  0  0  0  0
   -0.1121   -6.0808    0.0000 C   0  0  0  0  0  0  0  0  0  0  0  0
    0.0000   -4.5850    0.0000 C   0  0  0  0  0  0  0  0  0  0  0  0
    1.3515   -3.9342    0.0000 C   0  0  0  0  0  0  0  0  0  0  0  0
    2.5908   -4.7792    0.0000 C   0  0  0  0  0  0  0  0  0  0  0  0
    2.4787   -6.2750    0.0000 C   0  0  0  0  0  0  0  0  0  0  0  0
    3.7181   -7.1199    0.0000 O   0  0  0  0  0  0  0  0  0  0  0  0
    5.0695   -6.4691    0.0000 C   0  0  0  0  0  0  0  0  0  0  0  0
    1.6852   -2.4718    0.0000 O   0  0  0  0  0  0  0  0  0  0  0  0
    0.7500   -1.2990    0.0000 C   0  0  0  0  0  0  0  0  0  0  0  0
    1.5000    0.0000    0.0000 N   0  0  0  0  0  0  0  0  0  0  0  0
    0.7500    1.2990    0.0000 C   0  0  0  0  0  0  0  0  0  0  0  0
   -0.7500    1.2990    0.0000 N   0  0  0  0  0  0  0  0  0  0  0  0
   -1.5000    0.0000    0.0000 C   0  0  0  0  0  0  0  0  0  0  0  0
   -3.0000    0.0000    0.0000 N   0  0  0  0  0  0  0  0  0  0  0  0
   -3.7500    1.2990    0.0000 C   0  0  0  0  0  0  0  0  0  0  0  0
   -3.0000    2.5981    0.0000 C   0  0  0  0  0  0  0  0  0  0  0  0
   -3.7500    3.8971    0.0000 C   0  0  0  0  0  0  0  0  0  0  0  0
   -5.2500    3.8971    0.0000 C   0  0  0  0  0  0  0  0  0  0  0  0
   -6.0000    5.1962    0.0000 C   0  0  0  0  0  0  0  0  0  0  0  0
   -7.5000    5.1962    0.0000 C   0  0  0  0  0  0  0  0  0  0  0  0
   -8.2500    3.8971    0.0000 C   0  0  0  0  0  0  0  0  0  0  0  0
   -7.5000    2.5981    0.0000 C   0  0  0  0  0  0  0  0  0  0  0  0
   -6.0000    2.5981    0.0000 C   0  0  0  0  0  0  0  0  0  0  0  0
   -5.2500    1.2990    0.0000 C   0  0  0  0  0  0  0  0  0  0  0  0
   -0.7500   -1.2990    0.0000 C   0  0  0  0  0  0  0  0  0  0  0  0
   -1.6852   -2.4718    0.0000 N   0  0  0  0  0  0  0  0  0  0  0  0
   -1.3515   -3.9342    0.0000 C   0  0  0  0  0  0  0  0  0  0  0  0
  1  2  1  0
  2  3  1  0
  3  4  2  0
  4  5  1  0
  5  6  2  0
  6  7  1  0
  7  8  2  0
  8  9  1  0
  9 10  1  0
  6 11  1  0
 11 12  1  0
 12 13  2  0
 13 14  1  0
 14 15  2  0
 15 16  1  0
 16 17  1  0
 17 18  1  0
 18 19  2  0
 19 20  1  0
 20 21  2  0
 21 22  1  0
 22 23  2  0
 23 24  1  0
 24 25  2  0
 25 26  1  0
 26 27  2  0
 16 28  2  0
 28 29  1  0
 29 30  1  0
  8  3  1  0
 28 12  1  0
 30  5  1  0
 27 18  1  0
 26 21  1  0
M  END
>  <Compound_ID>  (37) 
CHEMBL215973

>  <Active>  (37) 
1.0

>  <Smiles>  (37) 
COc1cc2c(cc1OC)Oc1ncnc(Nc3ccc4ccccc4c3)c1NC2

>  <canonical_smi>  (37) 
COc1cc2c(cc1OC)Oc1ncnc(Nc3ccc4ccccc4c3)c1NC2

>  <Set>  (37) 
G1 active

>  <Set_type>  (37) 
G1

>  <MW>  (37) 
400.44

>  <HBD>  (37) 
2

>  <HBA>  (37) 
7

>  <NRB>  (37) 
4

>  <NR>  (37) 
5

>  <NAR>  (37) 
4

>  <PSA>  (37) 
77.53

>  <Standard Type>  (37) 
nan

>  <Standard Relation>  (37) 
nan

>  <Standard Units>  (37) 
nan

>  <Standard Value>  (37) 
nan

>  <Assay ChEMBL ID>  (37) 
nan

>  <Assay Description>  (37) 
nan

>  <BAO Label>  (37) 
nan

$$$$

     RDKit          2D

 33 36  0  0  0  0  0  0  0  0999 V2000
   -8.0498    0.7685    0.0000 N   0  0  0  0  0  0  0  0  0  0  0  0
   -6.6232    1.2320    0.0000 C   0  0  0  0  0  0  0  0  0  0  0  0
   -5.5085    0.2283    0.0000 C   0  0  0  0  0  0  0  0  0  0  0  0
   -4.0819    0.6918    0.0000 C   0  0  0  0  0  0  0  0  0  0  0  0
   -2.9672   -0.3119    0.0000 N   0  0  0  0  0  0  0  0  0  0  0  0
   -3.1240   -1.8037    0.0000 C   0  0  0  0  0  0  0  0  0  0  0  0
   -1.7537   -2.4138    0.0000 C   0  0  0  0  0  0  0  0  0  0  0  0
   -0.7500   -1.2990    0.0000 C   0  0  0  0  0  0  0  0  0  0  0  0
    0.7500   -1.2990    0.0000 C   0  0  0  0  0  0  0  0  0  0  0  0
    1.5000   -2.5981    0.0000 C   0  0  0  0  0  0  0  0  0  0  0  0
    0.7500   -3.8971    0.0000 C   0  0  0  0  0  0  0  0  0  0  0  0
    1.5000   -5.1962    0.0000 C   0  0  0  0  0  0  0  0  0  0  0  0
    3.0000   -5.1962    0.0000 N   0  0  0  0  0  0  0  0  0  0  0  0
    3.7500   -3.8971    0.0000 C   0  0  0  0  0  0  0  0  0  0  0  0
    5.2500   -3.8971    0.0000 N   0  0  0  0  0  0  0  0  0  0  0  0
    6.0000   -5.1962    0.0000 C   0  0  0  0  0  0  0  0  0  0  0  0
    5.2500   -6.4952    0.0000 C   0  0  0  0  0  0  0  0  0  0  0  0
    6.0000   -7.7942    0.0000 C   0  0  0  0  0  0  0  0  0  0  0  0
    7.5000   -7.7942    0.0000 C   0  0  0  0  0  0  0  0  0  0  0  0
    8.2500   -6.4952    0.0000 C   0  0  0  0  0  0  0  0  0  0  0  0
    9.7500   -6.4952    0.0000 O   0  0  0  0  0  0  0  0  0  0  0  0
   10.5000   -7.7942    0.0000 C   0  0  0  0  0  0  0  0  0  0  0  0
    9.2010   -8.5442    0.0000 F   0  0  0  0  0  0  0  0  0  0  0  0
   11.7990   -7.0442    0.0000 F   0  0  0  0  0  0  0  0  0  0  0  0
   11.2500   -9.0933    0.0000 C   0  0  0  0  0  0  0  0  0  0  0  0
   10.5000  -10.3923    0.0000 F   0  0  0  0  0  0  0  0  0  0  0  0
   12.7500   -9.0933    0.0000 F   0  0  0  0  0  0  0  0  0  0  0  0
    7.5000   -5.1962    0.0000 C   0  0  0  0  0  0  0  0  0  0  0  0
    3.0000   -2.5981    0.0000 N   0  0  0  0  0  0  0  0  0  0  0  0
    1.5000    0.0000    0.0000 C   0  0  0  0  0  0  0  0  0  0  0  0
    0.7500    1.2990    0.0000 C   0  0  0  0  0  0  0  0  0  0  0  0
   -0.7500    1.2990    0.0000 C   0  0  0  0  0  0  0  0  0  0  0  0
   -1.5000    0.0000    0.0000 C   0  0  0  0  0  0  0  0  0  0  0  0
  1  2  1  0
  2  3  1  0
  3  4  1  0
  4  5  1  0
  5  6  1  0
  6  7  2  0
  7  8  1  0
  8  9  2  0
  9 10  1  0
 10 11  2  0
 11 12  1  0
 12 13  2  0
 13 14  1  0
 14 15  1  0
 15 16  1  0
 16 17  2  0
 17 18  1  0
 18 19  2  0
 19 20  1  0
 20 21  1  0
 21 22  1  0
 22 23  1  0
 22 24  1  0
 22 25  1  0
 25 26  1  0
 25 27  1  0
 20 28  2  0
 14 29  2  0
  9 30  1  0
 30 31  2  0
 31 32  1  0
 32 33  2  0
 33  5  1  0
 33  8  1  0
 29 10  1  0
 28 16  1  0
M  END
>  <Compound_ID>  (38) 
CHEMBL293991

>  <Active>  (38) 
1.0

>  <Smiles>  (38) 
NCCCn1ccc2c(-c3ccnc(Nc4cccc(OC(F)(F)C(F)F)c4)n3)cccc21

>  <canonical_smi>  (38) 
NCCCn1ccc2c(-c3ccnc(Nc4cccc(OC(F)(F)C(F)F)c4)n3)cccc21

>  <Set>  (38) 
G1 active

>  <Set_type>  (38) 
G1

>  <MW>  (38) 
459.45

>  <HBD>  (38) 
2

>  <HBA>  (38) 
5

>  <NRB>  (38) 
9

>  <NR>  (38) 
4

>  <NAR>  (38) 
4

>  <PSA>  (38) 
77.99

>  <Standard Type>  (38) 
nan

>  <Standard Relation>  (38) 
nan

>  <Standard Units>  (38) 
nan

>  <Standard Value>  (38) 
nan

>  <Assay ChEMBL ID>  (38) 
nan

>  <Assay Description>  (38) 
nan

>  <BAO Label>  (38) 
nan

$$$$

     RDKit          2D

 33 37  0  0  0  0  0  0  0  0999 V2000
    3.0000  -10.3923    0.0000 C   0  0  0  0  0  0  0  0  0  0  0  0
    3.7500   -9.0933    0.0000 O   0  0  0  0  0  0  0  0  0  0  0  0
    3.0000   -7.7942    0.0000 C   0  0  0  0  0  0  0  0  0  0  0  0
    1.5000   -7.7942    0.0000 C   0  0  0  0  0  0  0  0  0  0  0  0
    0.7500   -6.4952    0.0000 C   0  0  0  0  0  0  0  0  0  0  0  0
    1.5000   -5.1962    0.0000 C   0  0  0  0  0  0  0  0  0  0  0  0
    0.7500   -3.8971    0.0000 N   0  0  0  0  0  0  0  0  0  0  0  0
    1.5000   -2.5981    0.0000 C   0  0  0  0  0  0  0  0  0  0  0  0
    0.7500   -1.2990    0.0000 C   0  0  0  0  0  0  0  0  0  0  0  0
    1.5000    0.0000    0.0000 C   0  0  0  0  0  0  0  0  0  0  0  0
    0.7500    1.2990    0.0000 N   0  0  0  0  0  0  0  0  0  0  0  0
   -0.7500    1.2990    0.0000 C   0  0  0  0  0  0  0  0  0  0  0  0
   -1.5000    2.5981    0.0000 N   0  0  0  0  0  0  0  0  0  0  0  0
   -0.7500    3.8971    0.0000 C   0  0  0  0  0  0  0  0  0  0  0  0
    0.7500    3.8971    0.0000 C   0  0  0  0  0  0  0  0  0  0  0  0
    1.5000    5.1962    0.0000 C   0  0  0  0  0  0  0  0  0  0  0  0
    0.7500    6.4952    0.0000 C   0  0  0  0  0  0  0  0  0  0  0  0
    1.5000    7.7942    0.0000 F   0  0  0  0  0  0  0  0  0  0  0  0
   -0.7500    6.4952    0.0000 C   0  0  0  0  0  0  0  0  0  0  0  0
   -1.5000    5.1962    0.0000 C   0  0  0  0  0  0  0  0  0  0  0  0
   -1.5000    0.0000    0.0000 N   0  0  0  0  0  0  0  0  0  0  0  0
   -0.7500   -1.2990    0.0000 C   0  0  0  0  0  0  0  0  0  0  0  0
   -1.5000   -2.5981    0.0000 N   0  0  0  0  0  0  0  0  0  0  0  0
   -3.0000   -2.5981    0.0000 C   0  0  0  0  0  0  0  0  0  0  0  0
   -3.8817   -3.8116    0.0000 C   0  0  0  0  0  0  0  0  0  0  0  0
   -5.3083   -3.3481    0.0000 C   0  0  0  0  0  0  0  0  0  0  0  0
   -5.3083   -1.8481    0.0000 C   0  0  0  0  0  0  0  0  0  0  0  0
   -6.5218   -0.9664    0.0000 O   0  0  0  0  0  0  0  0  0  0  0  0
   -3.8817   -1.3846    0.0000 C   0  0  0  0  0  0  0  0  0  0  0  0
   -0.7500   -3.8971    0.0000 C   0  0  0  0  0  0  0  0  0  0  0  0
   -1.5000   -5.1962    0.0000 O   0  0  0  0  0  0  0  0  0  0  0  0
    3.0000   -5.1962    0.0000 C   0  0  0  0  0  0  0  0  0  0  0  0
    3.7500   -6.4952    0.0000 C   0  0  0  0  0  0  0  0  0  0  0  0
  1  2  1  0
  2  3  1  0
  3  4  2  0
  4  5  1  0
  5  6  2  0
  6  7  1  0
  7  8  1  0
  8  9  1  0
  9 10  2  0
 10 11  1  0
 11 12  2  0
 12 13  1  0
 13 14  1  0
 14 15  2  0
 15 16  1  0
 16 17  2  0
 17 18  1  0
 17 19  1  0
 19 20  2  0
 12 21  1  0
 21 22  2  0
 22 23  1  0
 24 23  1  1
 24 25  1  0
 25 26  1  0
 26 27  1  0
 27 28  1  1
 27 29  1  0
 23 30  1  0
 30 31  2  0
  6 32  1  0
 32 33  2  0
 33  3  1  0
 30  7  1  0
 22  9  1  0
 29 24  1  0
 20 14  1  0
M  END
>  <Compound_ID>  (39) 
CHEMBL606964

>  <Active>  (39) 
1.0

>  <Smiles>  (39) 
COc1ccc(N2Cc3cnc(Nc4ccc(F)cc4)nc3N([C@H]3CC[C@@H](O)C3)C2=O)cc1

>  <canonical_smi>  (39) 
COc1ccc(N2Cc3cnc(Nc4ccc(F)cc4)nc3N([C@H]3CC[C@@H](O)C3)C2=O)cc1

>  <Set>  (39) 
G1 active

>  <Set_type>  (39) 
G1

>  <MW>  (39) 
449.49

>  <HBD>  (39) 
2

>  <HBA>  (39) 
6

>  <NRB>  (39) 
5

>  <NR>  (39) 
5

>  <NAR>  (39) 
3

>  <PSA>  (39) 
90.82

>  <Standard Type>  (39) 
nan

>  <Standard Relation>  (39) 
nan

>  <Standard Units>  (39) 
nan

>  <Standard Value>  (39) 
nan

>  <Assay ChEMBL ID>  (39) 
nan

>  <Assay Description>  (39) 
nan

>  <BAO Label>  (39) 
nan

$$$$

     RDKit          2D

 19 22  0  0  0  0  0  0  0  0999 V2000
   -1.8351    3.2209    0.0000 C   0  0  0  0  0  0  0  0  0  0  0  0
   -0.4086    3.6844    0.0000 N   0  0  0  0  0  0  0  0  0  0  0  0
    0.7062    2.6807    0.0000 C   0  0  0  0  0  0  0  0  0  0  0  0
    2.1328    3.1443    0.0000 N   0  0  0  0  0  0  0  0  0  0  0  0
    2.4446    4.6115    0.0000 C   0  0  0  0  0  0  0  0  0  0  0  0
    1.3299    5.6152    0.0000 C   0  0  0  0  0  0  0  0  0  0  0  0
    1.6418    7.0824    0.0000 C   0  0  0  0  0  0  0  0  0  0  0  0
    3.0684    7.5459    0.0000 C   0  0  0  0  0  0  0  0  0  0  0  0
    3.6785    8.9163    0.0000 N   0  0  0  0  0  0  0  0  0  0  0  0
    5.1702    8.7595    0.0000 C   0  0  0  0  0  0  0  0  0  0  0  0
    5.4821    7.2922    0.0000 C   0  0  0  0  0  0  0  0  0  0  0  0
    4.1831    6.5422    0.0000 C   0  0  0  0  0  0  0  0  0  0  0  0
    3.8712    5.0750    0.0000 C   0  0  0  0  0  0  0  0  0  0  0  0
    0.3943    1.2135    0.0000 C   0  0  0  0  0  0  0  0  0  0  0  0
    1.2760    0.0000    0.0000 S   0  0  0  0  0  0  0  0  0  0  0  0
    0.3943   -1.2135    0.0000 C   0  0  0  0  0  0  0  0  0  0  0  0
   -1.0323   -0.7500    0.0000 C   0  0  0  0  0  0  0  0  0  0  0  0
   -1.0323    0.7500    0.0000 C   0  0  0  0  0  0  0  0  0  0  0  0
   -2.1470    1.7537    0.0000 N   0  0  0  0  0  0  0  0  0  0  0  0
  1  2  2  0
  2  3  1  0
  3  4  1  0
  4  5  1  0
  5  6  2  0
  6  7  1  0
  7  8  2  0
  8  9  1  0
  9 10  1  0
 10 11  2  0
 11 12  1  0
 12 13  2  0
  3 14  2  0
 14 15  1  0
 15 16  1  0
 16 17  2  0
 17 18  1  0
 18 19  2  0
 19  1  1  0
 13  5  1  0
 18 14  1  0
 12  8  1  0
M  END
>  <Compound_ID>  (40) 
CHEMBL442749

>  <Active>  (40) 
1.0

>  <Smiles>  (40) 
c1nc(Nc2ccc3[nH]ccc3c2)c2sccc2n1

>  <canonical_smi>  (40) 
c1nc(Nc2ccc3[nH]ccc3c2)c2sccc2n1

>  <Set>  (40) 
G1 active

>  <Set_type>  (40) 
G1

>  <MW>  (40) 
266.33

>  <HBD>  (40) 
2

>  <HBA>  (40) 
3

>  <NRB>  (40) 
2

>  <NR>  (40) 
4

>  <NAR>  (40) 
4

>  <PSA>  (40) 
53.6

>  <Standard Type>  (40) 
nan

>  <Standard Relation>  (40) 
nan

>  <Standard Units>  (40) 
nan

>  <Standard Value>  (40) 
nan

>  <Assay ChEMBL ID>  (40) 
nan

>  <Assay Description>  (40) 
nan

>  <BAO Label>  (40) 
nan

$$$$

     RDKit          2D

 43 49  0  0  0  0  0  0  0  0999 V2000
    1.9788    6.5212    0.0000 O   0  0  0  0  0  0  0  0  0  0  0  0
    1.5153    7.9478    0.0000 C   0  0  0  0  0  0  0  0  0  0  0  0
    2.5190    9.0625    0.0000 C   0  0  0  0  0  0  0  0  0  0  0  0
    3.9862    8.7506    0.0000 C   0  0  0  0  0  0  0  0  0  0  0  0
    4.4497    7.3241    0.0000 C   0  0  0  0  0  0  0  0  0  0  0  0
    5.9169    7.0122    0.0000 C   0  0  0  0  0  0  0  0  0  0  0  0
    6.9206    8.1269    0.0000 C   0  0  0  0  0  0  0  0  0  0  0  0
    6.4571    9.5535    0.0000 C   0  0  0  0  0  0  0  0  0  0  0  0
    4.9899    9.8654    0.0000 C   0  0  0  0  0  0  0  0  0  0  0  0
    0.0481    8.2597    0.0000 N   0  0  0  0  0  0  0  0  0  0  0  0
   -0.9556    7.1449    0.0000 C   0  0  0  0  0  0  0  0  0  0  0  0
   -2.4229    7.4568    0.0000 C   0  0  0  0  0  0  0  0  0  0  0  0
   -3.4266    6.3421    0.0000 C   0  0  0  0  0  0  0  0  0  0  0  0
   -2.9630    4.9155    0.0000 C   0  0  0  0  0  0  0  0  0  0  0  0
   -1.4958    4.6036    0.0000 C   0  0  0  0  0  0  0  0  0  0  0  0
   -1.0323    3.1771    0.0000 C   0  0  0  0  0  0  0  0  0  0  0  0
    0.3943    2.7135    0.0000 N   0  0  0  0  0  0  0  0  0  0  0  0
    0.3943    1.2135    0.0000 C   0  0  0  0  0  0  0  0  0  0  0  0
    1.2760    0.0000    0.0000 S   0  0  0  0  0  0  0  0  0  0  0  0
    0.3943   -1.2135    0.0000 C   0  0  0  0  0  0  0  0  0  0  0  0
   -1.0323   -0.7500    0.0000 C   0  0  0  0  0  0  0  0  0  0  0  0
   -1.0323    0.7500    0.0000 N   0  0  0  0  0  0  0  0  0  0  0  0
   -1.9140    1.9635    0.0000 C   0  0  0  0  0  0  0  0  0  0  0  0
   -3.4140    1.9635    0.0000 C   0  0  0  0  0  0  0  0  0  0  0  0
   -4.1640    3.2626    0.0000 C   0  0  0  0  0  0  0  0  0  0  0  0
   -5.6640    3.2626    0.0000 C   0  0  0  0  0  0  0  0  0  0  0  0
   -6.4140    1.9635    0.0000 N   0  0  0  0  0  0  0  0  0  0  0  0
   -5.6640    0.6645    0.0000 C   0  0  0  0  0  0  0  0  0  0  0  0
   -6.4140   -0.6346    0.0000 N   0  0  0  0  0  0  0  0  0  0  0  0
   -7.9140   -0.6346    0.0000 C   0  0  0  0  0  0  0  0  0  0  0  0
   -8.6640    0.6645    0.0000 C   0  0  0  0  0  0  0  0  0  0  0  0
  -10.1640    0.6645    0.0000 C   0  0  0  0  0  0  0  0  0  0  0  0
  -10.9140   -0.6346    0.0000 C   0  0  0  0  0  0  0  0  0  0  0  0
  -10.1640   -1.9336    0.0000 C   0  0  0  0  0  0  0  0  0  0  0  0
  -10.9140   -3.2326    0.0000 N   0  0  0  0  0  0  0  0  0  0  0  0
  -12.4140   -3.2326    0.0000 C   0  0  0  0  0  0  0  0  0  0  0  0
  -13.1640   -4.5317    0.0000 C   0  0  0  0  0  0  0  0  0  0  0  0
  -12.4140   -5.8307    0.0000 O   0  0  0  0  0  0  0  0  0  0  0  0
  -10.9140   -5.8307    0.0000 C   0  0  0  0  0  0  0  0  0  0  0  0
  -10.1640   -4.5317    0.0000 C   0  0  0  0  0  0  0  0  0  0  0  0
   -8.6640   -1.9336    0.0000 C   0  0  0  0  0  0  0  0  0  0  0  0
   -4.1640    0.6645    0.0000 N   0  0  0  0  0  0  0  0  0  0  0  0
   -0.4921    5.7184    0.0000 C   0  0  0  0  0  0  0  0  0  0  0  0
  1  2  2  0
  2  3  1  0
  3  4  1  0
  4  5  2  0
  5  6  1  0
  6  7  2  0
  7  8  1  0
  8  9  2  0
  2 10  1  0
 10 11  1  0
 11 12  2  0
 12 13  1  0
 13 14  2  0
 14 15  1  0
 15 16  1  0
 16 17  1  0
 17 18  2  0
 18 19  1  0
 19 20  1  0
 20 21  2  0
 21 22  1  0
 22 23  1  0
 23 24  1  0
 24 25  2  0
 25 26  1  0
 26 27  2  0
 27 28  1  0
 28 29  1  0
 29 30  1  0
 30 31  2  0
 31 32  1  0
 32 33  2  0
 33 34  1  0
 34 35  1  0
 35 36  1  0
 36 37  1  0
 37 38  1  0
 38 39  1  0
 39 40  1  0
 34 41  2  0
 28 42  2  0
 15 43  2  0
  9  4  1  0
 43 11  1  0
 23 16  2  0
 42 24  1  0
 22 18  1  0
 41 30  1  0
 40 35  1  0
M  END
>  <Compound_ID>  (41) 
CHEMBL1090360

>  <Active>  (41) 
1.0

>  <Smiles>  (41) 
O=C(Cc1ccccc1)Nc1cccc(-c2nc3sccn3c2-c2ccnc(Nc3cccc(N4CCOCC4)c3)n2)c1

>  <canonical_smi>  (41) 
O=C(Cc1ccccc1)Nc1cccc(-c2nc3sccn3c2-c2ccnc(Nc3cccc(N4CCOCC4)c3)n2)c1

>  <Set>  (41) 
G1 active

>  <Set_type>  (41) 
G1

>  <MW>  (41) 
587.71

>  <HBD>  (41) 
2

>  <HBA>  (41) 
7

>  <NRB>  (41) 
8

>  <NR>  (41) 
7

>  <NAR>  (41) 
6

>  <PSA>  (41) 
96.68

>  <Standard Type>  (41) 
nan

>  <Standard Relation>  (41) 
nan

>  <Standard Units>  (41) 
nan

>  <Standard Value>  (41) 
nan

>  <Assay ChEMBL ID>  (41) 
nan

>  <Assay Description>  (41) 
nan

>  <BAO Label>  (41) 
nan

$$$$

     RDKit          2D

 23 24  0  0  0  0  0  0  0  0999 V2000
   -2.2500   -3.8971    0.0000 N   0  0  0  0  0  0  0  0  0  0  0  0
   -0.7500   -3.8971    0.0000 C   0  0  0  0  0  0  0  0  0  0  0  0
    0.7500   -3.8971    0.0000 C   0  0  0  0  0  0  0  0  0  0  0  0
    1.5000   -2.5981    0.0000 C   0  0  0  0  0  0  0  0  0  0  0  0
    0.7500   -1.2990    0.0000 C   0  0  0  0  0  0  0  0  0  0  0  0
    1.5000    0.0000    0.0000 C   0  0  0  0  0  0  0  0  0  0  0  0
    0.7500    1.2990    0.0000 C   0  0  0  0  0  0  0  0  0  0  0  0
   -0.7500    1.2990    0.0000 C   0  0  0  0  0  0  0  0  0  0  0  0
   -1.5000    2.5981    0.0000 O   0  0  0  0  0  0  0  0  0  0  0  0
   -1.5000    0.0000    0.0000 C   0  0  0  0  0  0  0  0  0  0  0  0
   -3.0000    0.0000    0.0000 O   0  0  0  0  0  0  0  0  0  0  0  0
   -0.7500   -1.2990    0.0000 C   0  0  0  0  0  0  0  0  0  0  0  0
    1.5000   -5.1962    0.0000 C   0  0  0  0  0  0  0  0  0  0  0  0
    3.0000   -5.1962    0.0000 O   0  0  0  0  0  0  0  0  0  0  0  0
    0.7500   -6.4952    0.0000 N   0  0  0  0  0  0  0  0  0  0  0  0
    1.5000   -7.7942    0.0000 C   0  0  0  0  0  0  0  0  0  0  0  0
    0.7500   -9.0933    0.0000 C   0  0  0  0  0  0  0  0  0  0  0  0
    1.5000  -10.3923    0.0000 C   0  0  0  0  0  0  0  0  0  0  0  0
    0.7500  -11.6913    0.0000 C   0  0  0  0  0  0  0  0  0  0  0  0
    1.5000  -12.9904    0.0000 C   0  0  0  0  0  0  0  0  0  0  0  0
    3.0000  -12.9904    0.0000 C   0  0  0  0  0  0  0  0  0  0  0  0
    3.7500  -11.6913    0.0000 C   0  0  0  0  0  0  0  0  0  0  0  0
    3.0000  -10.3923    0.0000 C   0  0  0  0  0  0  0  0  0  0  0  0
  1  2  3  0
  2  3  1  0
  3  4  2  0
  4  5  1  0
  5  6  2  0
  6  7  1  0
  7  8  2  0
  8  9  1  0
  8 10  1  0
 10 11  1  0
 10 12  2  0
  3 13  1  0
 13 14  2  0
 13 15  1  0
 15 16  1  0
 16 17  1  0
 17 18  1  0
 18 19  2  0
 19 20  1  0
 20 21  2  0
 21 22  1  0
 22 23  2  0
 12  5  1  0
 23 18  1  0
M  END
>  <Compound_ID>  (42) 
CHEMBL293749

>  <Active>  (42) 
1.0

>  <Smiles>  (42) 
N#C/C(=C\c1ccc(O)c(O)c1)C(=O)NCCc1ccccc1

>  <canonical_smi>  (42) 
N#C/C(=C\c1ccc(O)c(O)c1)C(=O)NCCc1ccccc1

>  <Set>  (42) 
G1 active

>  <Set_type>  (42) 
G1

>  <MW>  (42) 
308.34

>  <HBD>  (42) 
3

>  <HBA>  (42) 
4

>  <NRB>  (42) 
5

>  <NR>  (42) 
2

>  <NAR>  (42) 
2

>  <PSA>  (42) 
93.35

>  <Standard Type>  (42) 
nan

>  <Standard Relation>  (42) 
nan

>  <Standard Units>  (42) 
nan

>  <Standard Value>  (42) 
nan

>  <Assay ChEMBL ID>  (42) 
nan

>  <Assay Description>  (42) 
nan

>  <BAO Label>  (42) 
nan

$$$$

     RDKit          2D

 20 21  0  0  0  0  0  0  0  0999 V2000
    3.7500   -1.2990    0.0000 C   0  0  0  0  0  0  0  0  0  0  0  0
    3.0000    0.0000    0.0000 O   0  0  0  0  0  0  0  0  0  0  0  0
    1.5000    0.0000    0.0000 C   0  0  0  0  0  0  0  0  0  0  0  0
    0.7500   -1.2990    0.0000 C   0  0  0  0  0  0  0  0  0  0  0  0
   -0.7500   -1.2990    0.0000 C   0  0  0  0  0  0  0  0  0  0  0  0
   -1.5000    0.0000    0.0000 C   0  0  0  0  0  0  0  0  0  0  0  0
   -3.0000    0.0000    0.0000 C   0  0  0  0  0  0  0  0  0  0  0  0
   -3.7500    1.2990    0.0000 C   0  0  0  0  0  0  0  0  0  0  0  0
   -3.0000    2.5981    0.0000 C   0  0  0  0  0  0  0  0  0  0  0  0
   -2.2500    3.8971    0.0000 N   0  0  0  0  0  0  0  0  0  0  0  0
   -5.2500    1.2990    0.0000 C   0  0  0  0  0  0  0  0  0  0  0  0
   -6.0000    2.5981    0.0000 C   0  0  0  0  0  0  0  0  0  0  0  0
   -7.5000    2.5981    0.0000 C   0  0  0  0  0  0  0  0  0  0  0  0
   -8.2500    1.2990    0.0000 C   0  0  0  0  0  0  0  0  0  0  0  0
   -7.5000    0.0000    0.0000 N   0  0  0  0  0  0  0  0  0  0  0  0
   -6.0000    0.0000    0.0000 C   0  0  0  0  0  0  0  0  0  0  0  0
   -0.7500    1.2990    0.0000 C   0  0  0  0  0  0  0  0  0  0  0  0
    0.7500    1.2990    0.0000 C   0  0  0  0  0  0  0  0  0  0  0  0
    1.5000    2.5981    0.0000 O   0  0  0  0  0  0  0  0  0  0  0  0
    0.7500    3.8971    0.0000 C   0  0  0  0  0  0  0  0  0  0  0  0
  1  2  1  0
  2  3  1  0
  3  4  2  0
  4  5  1  0
  5  6  2  0
  6  7  1  0
  7  8  2  0
  8  9  1  0
  9 10  3  0
  8 11  1  0
 11 12  2  0
 12 13  1  0
 13 14  2  0
 14 15  1  0
 15 16  2  0
  6 17  1  0
 17 18  2  0
 18 19  1  0
 19 20  1  0
 18  3  1  0
 16 11  1  0
M  END
>  <Compound_ID>  (43) 
CHEMBL67027

>  <Active>  (43) 
1.0

>  <Smiles>  (43) 
COc1ccc(/C=C(\C#N)c2cccnc2)cc1OC

>  <canonical_smi>  (43) 
COc1ccc(/C=C(\C#N)c2cccnc2)cc1OC

>  <Set>  (43) 
G1 active

>  <Set_type>  (43) 
G1

>  <MW>  (43) 
266.3

>  <HBD>  (43) 
0

>  <HBA>  (43) 
4

>  <NRB>  (43) 
4

>  <NR>  (43) 
2

>  <NAR>  (43) 
2

>  <PSA>  (43) 
55.14

>  <Standard Type>  (43) 
nan

>  <Standard Relation>  (43) 
nan

>  <Standard Units>  (43) 
nan

>  <Standard Value>  (43) 
nan

>  <Assay ChEMBL ID>  (43) 
nan

>  <Assay Description>  (43) 
nan

>  <BAO Label>  (43) 
nan

$$$$

     RDKit          2D

 41 45  0  0  0  0  0  0  0  0999 V2000
   10.5000   -7.7942    0.0000 C   0  0  0  0  0  0  0  0  0  0  0  0
    9.7500   -6.4952    0.0000 O   0  0  0  0  0  0  0  0  0  0  0  0
    8.2500   -6.4952    0.0000 C   0  0  0  0  0  0  0  0  0  0  0  0
    7.5000   -7.7942    0.0000 C   0  0  0  0  0  0  0  0  0  0  0  0
    6.0000   -7.7942    0.0000 C   0  0  0  0  0  0  0  0  0  0  0  0
    5.2500   -6.4952    0.0000 C   0  0  0  0  0  0  0  0  0  0  0  0
    3.7500   -6.4952    0.0000 N   0  0  0  0  0  0  0  0  0  0  0  0
    3.0000   -5.1962    0.0000 C   0  0  0  0  0  0  0  0  0  0  0  0
    3.7500   -3.8971    0.0000 O   0  0  0  0  0  0  0  0  0  0  0  0
    1.5000   -5.1962    0.0000 N   0  0  0  0  0  0  0  0  0  0  0  0
    0.7500   -3.8971    0.0000 C   0  0  0  0  0  0  0  0  0  0  0  0
    1.5000   -2.5981    0.0000 N   0  0  0  0  0  0  0  0  0  0  0  0
    0.7500   -1.2990    0.0000 C   0  0  0  0  0  0  0  0  0  0  0  0
    1.5000    0.0000    0.0000 N   0  0  0  0  0  0  0  0  0  0  0  0
    0.7500    1.2990    0.0000 C   0  0  0  0  0  0  0  0  0  0  0  0
    1.5000    2.5981    0.0000 N   0  0  0  0  0  0  0  0  0  0  0  0
    3.0000    2.5981    0.0000 C   0  0  0  0  0  0  0  0  0  0  0  0
    3.7500    3.8971    0.0000 C   0  0  0  0  0  0  0  0  0  0  0  0
    5.2500    3.8971    0.0000 C   0  0  0  0  0  0  0  0  0  0  0  0
    6.0000    5.1962    0.0000 N   0  0  0  0  0  0  0  0  0  0  0  0
    7.5000    5.1962    0.0000 C   0  0  0  0  0  0  0  0  0  0  0  0
    8.2500    6.4952    0.0000 C   0  0  0  0  0  0  0  0  0  0  0  0
    7.5000    7.7942    0.0000 N   0  0  0  0  0  0  0  0  0  0  0  0
    8.2500    9.0933    0.0000 C   0  0  0  0  0  0  0  0  0  0  0  0
    6.0000    7.7942    0.0000 C   0  0  0  0  0  0  0  0  0  0  0  0
    5.2500    6.4952    0.0000 C   0  0  0  0  0  0  0  0  0  0  0  0
   -0.7500    1.2990    0.0000 N   0  0  0  0  0  0  0  0  0  0  0  0
   -1.5000    0.0000    0.0000 C   0  0  0  0  0  0  0  0  0  0  0  0
   -0.7500   -1.2990    0.0000 C   0  0  0  0  0  0  0  0  0  0  0  0
   -1.5000   -2.5981    0.0000 C   0  0  0  0  0  0  0  0  0  0  0  0
   -0.7500   -3.8971    0.0000 C   0  0  0  0  0  0  0  0  0  0  0  0
   -1.5000   -5.1962    0.0000 C   0  0  0  0  0  0  0  0  0  0  0  0
   -3.0000   -5.1962    0.0000 C   0  0  0  0  0  0  0  0  0  0  0  0
   -3.7500   -3.8971    0.0000 Cl  0  0  0  0  0  0  0  0  0  0  0  0
   -3.7500   -6.4952    0.0000 C   0  0  0  0  0  0  0  0  0  0  0  0
   -3.0000   -7.7942    0.0000 C   0  0  0  0  0  0  0  0  0  0  0  0
   -1.5000   -7.7942    0.0000 C   0  0  0  0  0  0  0  0  0  0  0  0
   -0.7500   -6.4952    0.0000 C   0  0  0  0  0  0  0  0  0  0  0  0
    0.7500   -6.4952    0.0000 Cl  0  0  0  0  0  0  0  0  0  0  0  0
    6.0000   -5.1962    0.0000 C   0  0  0  0  0  0  0  0  0  0  0  0
    7.5000   -5.1962    0.0000 C   0  0  0  0  0  0  0  0  0  0  0  0
  1  2  1  0
  2  3  1  0
  3  4  2  0
  4  5  1  0
  5  6  2  0
  6  7  1  0
  7  8  1  0
  8  9  2  0
  8 10  1  0
 10 11  1  0
 11 12  2  0
 12 13  1  0
 13 14  2  0
 14 15  1  0
 15 16  1  0
 16 17  1  0
 17 18  1  0
 18 19  1  0
 19 20  1  0
 20 21  1  0
 21 22  1  0
 22 23  1  0
 23 24  1  0
 23 25  1  0
 25 26  1  0
 15 27  2  0
 27 28  1  0
 28 29  2  0
 29 30  1  0
 30 31  2  0
 31 32  1  0
 32 33  2  0
 33 34  1  0
 33 35  1  0
 35 36  2  0
 36 37  1  0
 37 38  2  0
 38 39  1  0
  6 40  1  0
 40 41  2  0
 41  3  1  0
 31 11  1  0
 38 32  1  0
 29 13  1  0
 26 20  1  0
M  END
>  <Compound_ID>  (44) 
CHEMBL298679

>  <Active>  (44) 
1.0

>  <Smiles>  (44) 
COc1ccc(NC(=O)Nc2nc3nc(NCCCN4CCN(C)CC4)ncc3cc2-c2c(Cl)cccc2Cl)cc1

>  <canonical_smi>  (44) 
COc1ccc(NC(=O)Nc2nc3nc(NCCCN4CCN(C)CC4)ncc3cc2-c2c(Cl)cccc2Cl)cc1

>  <Set>  (44) 
G1 active

>  <Set_type>  (44) 
G1

>  <MW>  (44) 
595.54

>  <HBD>  (44) 
3

>  <HBA>  (44) 
8

>  <NRB>  (44) 
9

>  <NR>  (44) 
5

>  <NAR>  (44) 
4

>  <PSA>  (44) 
107.54

>  <Standard Type>  (44) 
nan

>  <Standard Relation>  (44) 
nan

>  <Standard Units>  (44) 
nan

>  <Standard Value>  (44) 
nan

>  <Assay ChEMBL ID>  (44) 
nan

>  <Assay Description>  (44) 
nan

>  <BAO Label>  (44) 
nan

$$$$

     RDKit          2D

 26 29  0  0  0  0  0  0  0  0999 V2000
    3.0000    0.0000    0.0000 C   0  0  0  0  0  0  0  0  0  0  0  0
    1.5000    0.0000    0.0000 N   0  0  0  0  0  0  0  0  0  0  0  0
    0.7500   -1.2990    0.0000 C   0  0  0  0  0  0  0  0  0  0  0  0
   -0.7500   -1.2990    0.0000 C   0  0  0  0  0  0  0  0  0  0  0  0
   -1.5000    0.0000    0.0000 C   0  0  0  0  0  0  0  0  0  0  0  0
   -2.6491    0.9642    0.0000 O   0  0  0  0  0  0  0  0  0  0  0  0
   -2.6491   -0.9642    0.0000 C   0  0  0  0  0  0  0  0  0  0  0  0
   -2.5444   -2.4605    0.0000 N   0  0  0  0  0  0  0  0  0  0  0  0
   -3.9352   -3.0224    0.0000 C   0  0  0  0  0  0  0  0  0  0  0  0
   -4.2981   -4.4779    0.0000 C   0  0  0  0  0  0  0  0  0  0  0  0
   -5.7400   -4.8913    0.0000 C   0  0  0  0  0  0  0  0  0  0  0  0
   -6.1029   -6.3468    0.0000 C   0  0  0  0  0  0  0  0  0  0  0  0
   -5.0239   -7.3888    0.0000 C   0  0  0  0  0  0  0  0  0  0  0  0
   -5.3867   -8.8442    0.0000 F   0  0  0  0  0  0  0  0  0  0  0  0
   -3.5820   -6.9753    0.0000 C   0  0  0  0  0  0  0  0  0  0  0  0
   -3.2191   -5.5199    0.0000 C   0  0  0  0  0  0  0  0  0  0  0  0
   -4.8994   -1.8734    0.0000 C   0  0  0  0  0  0  0  0  0  0  0  0
   -6.3957   -1.9780    0.0000 C   0  0  0  0  0  0  0  0  0  0  0  0
   -7.2345   -0.7344    0.0000 C   0  0  0  0  0  0  0  0  0  0  0  0
   -8.7309   -0.8391    0.0000 C   0  0  0  0  0  0  0  0  0  0  0  0
   -9.3884   -2.1873    0.0000 N   0  0  0  0  0  0  0  0  0  0  0  0
   -8.5496   -3.4308    0.0000 C   0  0  0  0  0  0  0  0  0  0  0  0
   -7.0533   -3.3262    0.0000 C   0  0  0  0  0  0  0  0  0  0  0  0
   -4.1045   -0.6013    0.0000 O   0  0  0  0  0  0  0  0  0  0  0  0
   -0.7500    1.2990    0.0000 C   0  0  0  0  0  0  0  0  0  0  0  0
    0.7500    1.2990    0.0000 C   0  0  0  0  0  0  0  0  0  0  0  0
  1  2  1  0
  2  3  1  0
  3  4  1  0
  4  5  1  0
  5  6  1  0
  5  7  1  0
  7  8  2  0
  8  9  1  0
  9 10  1  0
 10 11  2  0
 11 12  1  0
 12 13  2  0
 13 14  1  0
 13 15  1  0
 15 16  2  0
  9 17  2  0
 17 18  1  0
 18 19  2  0
 19 20  1  0
 20 21  2  0
 21 22  1  0
 22 23  2  0
 17 24  1  0
  5 25  1  0
 25 26  1  0
 26  2  1  0
 24  7  1  0
 16 10  1  0
 23 18  1  0
M  END
>  <Compound_ID>  (45) 
CHEMBL22978

>  <Active>  (45) 
1.0

>  <Smiles>  (45) 
CN1CCC(O)(c2nc(-c3ccc(F)cc3)c(-c3ccncc3)o2)CC1

>  <canonical_smi>  (45) 
CN1CCC(O)(c2nc(-c3ccc(F)cc3)c(-c3ccncc3)o2)CC1

>  <Set>  (45) 
G1 active

>  <Set_type>  (45) 
G1

>  <MW>  (45) 
353.4

>  <HBD>  (45) 
1

>  <HBA>  (45) 
5

>  <NRB>  (45) 
3

>  <NR>  (45) 
4

>  <NAR>  (45) 
3

>  <PSA>  (45) 
62.39

>  <Standard Type>  (45) 
nan

>  <Standard Relation>  (45) 
nan

>  <Standard Units>  (45) 
nan

>  <Standard Value>  (45) 
nan

>  <Assay ChEMBL ID>  (45) 
nan

>  <Assay Description>  (45) 
nan

>  <BAO Label>  (45) 
nan

$$$$

     RDKit          2D

 22 25  0  0  0  0  0  0  0  0999 V2000
    3.0000    0.0000    0.0000 N   0  0  0  0  0  0  0  0  0  0  0  0
    1.5000    0.0000    0.0000 C   0  0  0  0  0  0  0  0  0  0  0  0
    0.7500   -1.2990    0.0000 N   0  0  0  0  0  0  0  0  0  0  0  0
   -0.7500   -1.2990    0.0000 C   0  0  0  0  0  0  0  0  0  0  0  0
   -1.5000    0.0000    0.0000 N   0  0  0  0  0  0  0  0  0  0  0  0
   -0.7500    1.2990    0.0000 C   0  0  0  0  0  0  0  0  0  0  0  0
    0.7500    1.2990    0.0000 C   0  0  0  0  0  0  0  0  0  0  0  0
    1.2135    2.7256    0.0000 C   0  0  0  0  0  0  0  0  0  0  0  0
    2.6401    3.1891    0.0000 C   0  0  0  0  0  0  0  0  0  0  0  0
    3.7548    2.1855    0.0000 C   0  0  0  0  0  0  0  0  0  0  0  0
    5.1814    2.6490    0.0000 C   0  0  0  0  0  0  0  0  0  0  0  0
    5.4933    4.1162    0.0000 C   0  0  0  0  0  0  0  0  0  0  0  0
    4.3786    5.1199    0.0000 C   0  0  0  0  0  0  0  0  0  0  0  0
    2.9520    4.6564    0.0000 C   0  0  0  0  0  0  0  0  0  0  0  0
   -0.0000    3.6073    0.0000 N   0  0  0  0  0  0  0  0  0  0  0  0
   -1.2135    2.7256    0.0000 N   0  0  0  0  0  0  0  0  0  0  0  0
   -2.6401    3.1891    0.0000 C   0  0  0  0  0  0  0  0  0  0  0  0
   -2.9520    4.6564    0.0000 C   0  0  0  0  0  0  0  0  0  0  0  0
   -4.3786    5.1199    0.0000 C   0  0  0  0  0  0  0  0  0  0  0  0
   -5.4933    4.1162    0.0000 C   0  0  0  0  0  0  0  0  0  0  0  0
   -5.1814    2.6490    0.0000 C   0  0  0  0  0  0  0  0  0  0  0  0
   -3.7548    2.1855    0.0000 C   0  0  0  0  0  0  0  0  0  0  0  0
  1  2  1  0
  2  3  2  0
  3  4  1  0
  4  5  2  0
  5  6  1  0
  6  7  2  0
  7  8  1  0
  8  9  1  0
  9 10  2  0
 10 11  1  0
 11 12  2  0
 12 13  1  0
 13 14  2  0
  8 15  2  0
 15 16  1  0
 16 17  1  0
 17 18  2  0
 18 19  1  0
 19 20  2  0
 20 21  1  0
 21 22  2  0
  7  2  1  0
 14  9  1  0
 22 17  1  0
 16  6  1  0
M  END
>  <Compound_ID>  (46) 
CHEMBL122243

>  <Active>  (46) 
1.0

>  <Smiles>  (46) 
Nc1ncnc2c1c(-c1ccccc1)nn2-c1ccccc1

>  <canonical_smi>  (46) 
Nc1ncnc2c1c(-c1ccccc1)nn2-c1ccccc1

>  <Set>  (46) 
G1 active

>  <Set_type>  (46) 
G1

>  <MW>  (46) 
287.33

>  <HBD>  (46) 
1

>  <HBA>  (46) 
4

>  <NRB>  (46) 
2

>  <NR>  (46) 
4

>  <NAR>  (46) 
4

>  <PSA>  (46) 
69.62

>  <Standard Type>  (46) 
nan

>  <Standard Relation>  (46) 
nan

>  <Standard Units>  (46) 
nan

>  <Standard Value>  (46) 
nan

>  <Assay ChEMBL ID>  (46) 
nan

>  <Assay Description>  (46) 
nan

>  <BAO Label>  (46) 
nan

$$$$

     RDKit          2D

 42 50  0  0  0  0  0  0  0  0999 V2000
    6.4640   -1.9952    0.0000 C   0  0  0  0  0  0  0  0  0  0  0  0
    4.9655   -1.9279    0.0000 O   0  0  0  0  0  0  0  0  0  0  0  0
    4.1580   -3.1920    0.0000 C   0  0  0  0  0  0  0  0  0  0  0  0
    4.8489   -4.5234    0.0000 C   0  0  0  0  0  0  0  0  0  0  0  0
    6.3474   -4.5907    0.0000 N   0  0  0  0  0  0  0  0  0  0  0  0
    7.0384   -5.9220    0.0000 C   0  0  0  0  0  0  0  0  0  0  0  0
    7.1549   -3.3266    0.0000 C   0  0  0  0  0  0  0  0  0  0  0  0
    8.6534   -3.3939    0.0000 C   0  0  0  0  0  0  0  0  0  0  0  0
    9.3444   -4.7252    0.0000 C   0  0  0  0  0  0  0  0  0  0  0  0
   10.8429   -4.7925    0.0000 C   0  0  0  0  0  0  0  0  0  0  0  0
   11.6504   -3.5285    0.0000 C   0  0  0  0  0  0  0  0  0  0  0  0
   10.9594   -2.1971    0.0000 C   0  0  0  0  0  0  0  0  0  0  0  0
    9.4610   -2.1298    0.0000 C   0  0  0  0  0  0  0  0  0  0  0  0
    4.0414   -5.7874    0.0000 C   0  0  0  0  0  0  0  0  0  0  0  0
    2.5382   -5.8249    0.0000 C   0  0  0  0  0  0  0  0  0  0  0  0
    3.2490   -4.5040    0.0000 O   0  0  0  0  0  0  0  0  0  0  0  0
    2.6595   -3.1247    0.0000 C   0  0  0  0  0  0  0  0  0  0  0  0
    3.6464   -1.9951    0.0000 C   0  0  0  0  0  0  0  0  0  0  0  0
    1.2135   -2.7256    0.0000 N   0  0  0  0  0  0  0  0  0  0  0  0
    0.7500   -1.2990    0.0000 C   0  0  0  0  0  0  0  0  0  0  0  0
    1.5000    0.0000    0.0000 C   0  0  0  0  0  0  0  0  0  0  0  0
    0.7500    1.2990    0.0000 C   0  0  0  0  0  0  0  0  0  0  0  0
   -0.7500    1.2990    0.0000 C   0  0  0  0  0  0  0  0  0  0  0  0
   -1.5000    0.0000    0.0000 C   0  0  0  0  0  0  0  0  0  0  0  0
   -0.7500   -1.2990    0.0000 C   0  0  0  0  0  0  0  0  0  0  0  0
   -1.2135   -2.7256    0.0000 C   0  0  0  0  0  0  0  0  0  0  0  0
   -2.5518   -3.5691    0.0000 C   0  0  0  0  0  0  0  0  0  0  0  0
   -2.6191   -5.0676    0.0000 C   0  0  0  0  0  0  0  0  0  0  0  0
   -1.3550   -5.8751    0.0000 C   0  0  0  0  0  0  0  0  0  0  0  0
   -1.0212   -7.3375    0.0000 C   0  0  0  0  0  0  0  0  0  0  0  0
   -1.8846   -8.5641    0.0000 C   0  0  0  0  0  0  0  0  0  0  0  0
   -1.2541   -9.9251    0.0000 C   0  0  0  0  0  0  0  0  0  0  0  0
    0.2399  -10.0596    0.0000 C   0  0  0  0  0  0  0  0  0  0  0  0
    1.1033   -8.8330    0.0000 C   0  0  0  0  0  0  0  0  0  0  0  0
    0.4728   -7.4720    0.0000 C   0  0  0  0  0  0  0  0  0  0  0  0
    1.0623   -6.0927    0.0000 N   0  0  0  0  0  0  0  0  0  0  0  0
   -0.0673   -5.1058    0.0000 C   0  0  0  0  0  0  0  0  0  0  0  0
   -0.0000   -3.6073    0.0000 C   0  0  0  0  0  0  0  0  0  0  0  0
   -4.0650   -5.4667    0.0000 C   0  0  0  0  0  0  0  0  0  0  0  0
   -4.5921   -6.8710    0.0000 O   0  0  0  0  0  0  0  0  0  0  0  0
   -4.8913   -4.2148    0.0000 N   0  0  0  0  0  0  0  0  0  0  0  0
   -3.9561   -3.0421    0.0000 C   0  0  0  0  0  0  0  0  0  0  0  0
  1  2  1  0
  3  2  1  1
  3  4  1  0
  4  5  1  1
  5  6  1  0
  5  7  1  0
  7  8  1  0
  8  9  2  0
  9 10  1  0
 10 11  2  0
 11 12  1  0
 12 13  2  0
  4 14  1  0
 15 14  1  1
 15 16  1  0
 16 17  1  0
 17 18  1  6
 17 19  1  0
 19 20  1  0
 20 21  2  0
 21 22  1  0
 22 23  2  0
 23 24  1  0
 24 25  2  0
 25 26  1  0
 26 27  2  0
 27 28  1  0
 28 29  2  0
 29 30  1  0
 30 31  2  0
 31 32  1  0
 32 33  2  0
 33 34  1  0
 34 35  2  0
 35 36  1  0
 36 37  1  0
 37 38  2  0
 28 39  1  0
 39 40  2  0
 39 41  1  0
 41 42  1  0
 17  3  1  0
 38 19  1  0
 13  8  1  0
 36 15  1  0
 25 20  1  0
 38 26  1  0
 42 27  1  0
 37 29  1  0
 35 30  1  0
M  END
>  <Compound_ID>  (47) 
CHEMBL131193

>  <Active>  (47) 
1.0

>  <Smiles>  (47) 
CO[C@H]1[C@@H](N(C)Cc2ccccc2)C[C@@H]2O[C@@]1(C)n1c3ccccc3c3c4c(c5c6ccccc6n2c5c31)C(=O)NC4

>  <canonical_smi>  (47) 
CO[C@H]1[C@@H](N(C)Cc2ccccc2)C[C@@H]2O[C@@]1(C)n1c3ccccc3c3c4c(c5c6ccccc6n2c5c31)C(=O)NC4

>  <Set>  (47) 
G1 active

>  <Set_type>  (47) 
G1

>  <MW>  (47) 
556.67

>  <HBD>  (47) 
1

>  <HBA>  (47) 
4

>  <NRB>  (47) 
4

>  <NR>  (47) 
9

>  <NAR>  (47) 
6

>  <PSA>  (47) 
60.66

>  <Standard Type>  (47) 
nan

>  <Standard Relation>  (47) 
nan

>  <Standard Units>  (47) 
nan

>  <Standard Value>  (47) 
nan

>  <Assay ChEMBL ID>  (47) 
nan

>  <Assay Description>  (47) 
nan

>  <BAO Label>  (47) 
nan

$$$$

     RDKit          2D

 31 36  0  0  0  0  0  0  0  0999 V2000
   -4.3786   -5.1199    0.0000 N   0  0  0  0  0  0  0  0  0  0  0  0
   -2.9520   -4.6564    0.0000 C   0  0  0  0  0  0  0  0  0  0  0  0
   -2.6401   -3.1891    0.0000 C   0  0  0  0  0  0  0  0  0  0  0  0
   -1.2135   -2.7256    0.0000 N   0  0  0  0  0  0  0  0  0  0  0  0
   -0.0000   -3.6073    0.0000 C   0  0  0  0  0  0  0  0  0  0  0  0
    1.2135   -2.7256    0.0000 C   0  0  0  0  0  0  0  0  0  0  0  0
    2.6401   -3.1891    0.0000 C   0  0  0  0  0  0  0  0  0  0  0  0
    3.7548   -2.1855    0.0000 C   0  0  0  0  0  0  0  0  0  0  0  0
    5.1814   -2.6490    0.0000 C   0  0  0  0  0  0  0  0  0  0  0  0
    6.2961   -1.6453    0.0000 C   0  0  0  0  0  0  0  0  0  0  0  0
    7.7634   -1.9571    0.0000 C   0  0  0  0  0  0  0  0  0  0  0  0
    8.5134   -0.6581    0.0000 C   0  0  0  0  0  0  0  0  0  0  0  0
    9.9806   -0.3462    0.0000 C   0  0  0  0  0  0  0  0  0  0  0  0
   10.4441    1.0803    0.0000 C   0  0  0  0  0  0  0  0  0  0  0  0
    9.4404    2.1951    0.0000 C   0  0  0  0  0  0  0  0  0  0  0  0
    7.9732    1.8832    0.0000 C   0  0  0  0  0  0  0  0  0  0  0  0
    7.5097    0.4566    0.0000 C   0  0  0  0  0  0  0  0  0  0  0  0
    6.1393   -0.1535    0.0000 S   0  0  0  0  0  0  0  0  0  0  0  0
    5.4933   -4.1162    0.0000 C   0  0  0  0  0  0  0  0  0  0  0  0
    6.7923   -4.8662    0.0000 N   0  0  0  0  0  0  0  0  0  0  0  0
    6.4805   -6.3334    0.0000 N   0  0  0  0  0  0  0  0  0  0  0  0
    4.9887   -6.4902    0.0000 C   0  0  0  0  0  0  0  0  0  0  0  0
    4.3786   -5.1199    0.0000 C   0  0  0  0  0  0  0  0  0  0  0  0
    2.9520   -4.6564    0.0000 C   0  0  0  0  0  0  0  0  0  0  0  0
    0.7500   -1.2990    0.0000 C   0  0  0  0  0  0  0  0  0  0  0  0
    1.5000    0.0000    0.0000 N   0  0  0  0  0  0  0  0  0  0  0  0
    0.7500    1.2990    0.0000 C   0  0  0  0  0  0  0  0  0  0  0  0
    1.5000    2.5981    0.0000 N   0  0  0  0  0  0  0  0  0  0  0  0
   -0.7500    1.2990    0.0000 N   0  0  0  0  0  0  0  0  0  0  0  0
   -1.5000    0.0000    0.0000 C   0  0  0  0  0  0  0  0  0  0  0  0
   -0.7500   -1.2990    0.0000 C   0  0  0  0  0  0  0  0  0  0  0  0
  1  2  1  0
  2  3  1  0
  3  4  1  0
  4  5  1  0
  5  6  2  0
  6  7  1  0
  7  8  2  0
  8  9  1  0
  9 10  1  0
 10 11  2  0
 11 12  1  0
 12 13  2  0
 13 14  1  0
 14 15  2  0
 15 16  1  0
 16 17  2  0
 17 18  1  0
  9 19  2  0
 19 20  1  0
 20 21  1  0
 21 22  2  0
 22 23  1  0
 23 24  2  0
  6 25  1  0
 25 26  2  0
 26 27  1  0
 27 28  1  0
 27 29  2  0
 29 30  1  0
 30 31  2  0
 31  4  1  0
 24  7  1  0
 31 25  1  0
 18 10  1  0
 23 19  1  0
 17 12  1  0
M  END
>  <Compound_ID>  (48) 
CHEMBL590109

>  <Active>  (48) 
1.0

>  <Smiles>  (48) 
NCCn1cc(-c2cc(-c3cc4ccccc4s3)c3[nH]ncc3c2)c2nc(N)ncc21

>  <canonical_smi>  (48) 
NCCn1cc(-c2cc(-c3cc4ccccc4s3)c3[nH]ncc3c2)c2nc(N)ncc21

>  <Set>  (48) 
G1 active

>  <Set_type>  (48) 
G1

>  <MW>  (48) 
425.52

>  <HBD>  (48) 
3

>  <HBA>  (48) 
5

>  <NRB>  (48) 
4

>  <NR>  (48) 
6

>  <NAR>  (48) 
6

>  <PSA>  (48) 
111.43

>  <Standard Type>  (48) 
nan

>  <Standard Relation>  (48) 
nan

>  <Standard Units>  (48) 
nan

>  <Standard Value>  (48) 
nan

>  <Assay ChEMBL ID>  (48) 
nan

>  <Assay Description>  (48) 
nan

>  <BAO Label>  (48) 
nan

$$$$

     RDKit          2D

 27 29  0  0  0  0  0  0  0  0999 V2000
   -0.7500   -3.8971    0.0000 O   0  0  0  0  0  0  0  0  0  0  0  0
    0.7500   -3.8971    0.0000 C   0  0  0  0  0  0  0  0  0  0  0  0
    1.5000   -2.5981    0.0000 N   0  0  0  0  0  0  0  0  0  0  0  0
    0.7500   -1.2990    0.0000 C   0  0  0  0  0  0  0  0  0  0  0  0
    1.5000    0.0000    0.0000 C   0  0  0  0  0  0  0  0  0  0  0  0
    0.7500    1.2990    0.0000 C   0  0  0  0  0  0  0  0  0  0  0  0
   -0.7500    1.2990    0.0000 C   0  0  0  0  0  0  0  0  0  0  0  0
   -1.5000    0.0000    0.0000 C   0  0  0  0  0  0  0  0  0  0  0  0
   -0.7500   -1.2990    0.0000 C   0  0  0  0  0  0  0  0  0  0  0  0
    1.5000   -5.1962    0.0000 N   0  0  0  0  0  0  0  0  0  0  0  0
    0.7500   -6.4952    0.0000 C   0  0  0  0  0  0  0  0  0  0  0  0
    1.5000   -7.7942    0.0000 C   0  0  0  0  0  0  0  0  0  0  0  0
    0.7500   -9.0933    0.0000 C   0  0  0  0  0  0  0  0  0  0  0  0
    1.5000  -10.3923    0.0000 C   0  0  0  0  0  0  0  0  0  0  0  0
    3.0000  -10.3923    0.0000 C   0  0  0  0  0  0  0  0  0  0  0  0
    3.7500  -11.6913    0.0000 O   0  0  0  0  0  0  0  0  0  0  0  0
    3.7500   -9.0933    0.0000 C   0  0  0  0  0  0  0  0  0  0  0  0
    3.0000   -7.7942    0.0000 C   0  0  0  0  0  0  0  0  0  0  0  0
    3.0000   -5.1962    0.0000 C   0  0  0  0  0  0  0  0  0  0  0  0
    3.7500   -3.8971    0.0000 C   0  0  0  0  0  0  0  0  0  0  0  0
    3.0000   -2.5981    0.0000 C   0  0  0  0  0  0  0  0  0  0  0  0
    3.7500   -1.2990    0.0000 C   0  0  0  0  0  0  0  0  0  0  0  0
    5.2500   -1.2990    0.0000 C   0  0  0  0  0  0  0  0  0  0  0  0
    6.0000   -2.5981    0.0000 C   0  0  0  0  0  0  0  0  0  0  0  0
    7.5000   -2.5981    0.0000 Cl  0  0  0  0  0  0  0  0  0  0  0  0
    5.2500   -3.8971    0.0000 C   0  0  0  0  0  0  0  0  0  0  0  0
    6.0000   -5.1962    0.0000 O   0  0  0  0  0  0  0  0  0  0  0  0
  1  2  2  0
  2  3  1  0
  3  4  1  0
  4  5  2  0
  5  6  1  0
  6  7  2  0
  7  8  1  0
  8  9  2  0
  2 10  1  0
 10 11  1  0
 11 12  1  0
 12 13  2  0
 13 14  1  0
 14 15  2  0
 15 16  1  0
 15 17  1  0
 17 18  2  0
 10 19  1  0
 19 20  1  0
 20 21  2  0
 21 22  1  0
 22 23  2  0
 23 24  1  0
 24 25  1  0
 24 26  2  0
 26 27  1  0
  9  4  1  0
 18 12  1  0
 26 20  1  0
M  END
>  <Compound_ID>  (49) 
CHEMBL592211

>  <Active>  (49) 
1.0

>  <Smiles>  (49) 
O=C(Nc1ccccc1)N(Cc1ccc(O)cc1)Cc1cccc(Cl)c1O

>  <canonical_smi>  (49) 
O=C(Nc1ccccc1)N(Cc1ccc(O)cc1)Cc1cccc(Cl)c1O

>  <Set>  (49) 
G1 active

>  <Set_type>  (49) 
G1

>  <MW>  (49) 
382.85

>  <HBD>  (49) 
3

>  <HBA>  (49) 
3

>  <NRB>  (49) 
5

>  <NR>  (49) 
3

>  <NAR>  (49) 
3

>  <PSA>  (49) 
72.8

>  <Standard Type>  (49) 
nan

>  <Standard Relation>  (49) 
nan

>  <Standard Units>  (49) 
nan

>  <Standard Value>  (49) 
nan

>  <Assay ChEMBL ID>  (49) 
nan

>  <Assay Description>  (49) 
nan

>  <BAO Label>  (49) 
nan

$$$$

     RDKit          2D

 35 39  0  0  0  0  0  0  0  0999 V2000
    3.0000    0.0000    0.0000 N   0  0  0  0  0  0  0  0  0  0  0  0
    1.5000    0.0000    0.0000 C   0  0  0  0  0  0  0  0  0  0  0  0
    0.7500   -1.2990    0.0000 C   0  0  0  0  0  0  0  0  0  0  0  0
   -0.7500   -1.2990    0.0000 C   0  0  0  0  0  0  0  0  0  0  0  0
   -1.5000    0.0000    0.0000 C   0  0  0  0  0  0  0  0  0  0  0  0
   -0.7500    1.2990    0.0000 C   0  0  0  0  0  0  0  0  0  0  0  0
   -1.7537    2.4138    0.0000 C   0  0  0  0  0  0  0  0  0  0  0  0
   -1.5969    3.9055    0.0000 C   0  0  0  0  0  0  0  0  0  0  0  0
   -2.8104    4.7872    0.0000 C   0  0  0  0  0  0  0  0  0  0  0  0
   -2.6536    6.2790    0.0000 O   0  0  0  0  0  0  0  0  0  0  0  0
   -1.2833    6.8891    0.0000 C   0  0  0  0  0  0  0  0  0  0  0  0
   -1.1265    8.3809    0.0000 C   0  0  0  0  0  0  0  0  0  0  0  0
    0.2438    8.9910    0.0000 C   0  0  0  0  0  0  0  0  0  0  0  0
    1.4573    8.1093    0.0000 C   0  0  0  0  0  0  0  0  0  0  0  0
    2.8276    8.7194    0.0000 C   0  0  0  0  0  0  0  0  0  0  0  0
    2.9844   10.2112    0.0000 C   0  0  0  0  0  0  0  0  0  0  0  0
    4.3547   10.8213    0.0000 O   0  0  0  0  0  0  0  0  0  0  0  0
    1.7709   11.0929    0.0000 C   0  0  0  0  0  0  0  0  0  0  0  0
    0.4006   10.4828    0.0000 C   0  0  0  0  0  0  0  0  0  0  0  0
   -4.1807    4.1771    0.0000 C   0  0  0  0  0  0  0  0  0  0  0  0
   -4.3375    2.6853    0.0000 C   0  0  0  0  0  0  0  0  0  0  0  0
   -3.1240    1.8037    0.0000 C   0  0  0  0  0  0  0  0  0  0  0  0
   -2.9672    0.3119    0.0000 N   0  0  0  0  0  0  0  0  0  0  0  0
   -4.0819   -0.6918    0.0000 C   0  0  0  0  0  0  0  0  0  0  0  0
   -5.5085   -0.2283    0.0000 C   0  0  0  0  0  0  0  0  0  0  0  0
   -6.6232   -1.2320    0.0000 C   0  0  0  0  0  0  0  0  0  0  0  0
   -8.0498   -0.7685    0.0000 C   0  0  0  0  0  0  0  0  0  0  0  0
   -9.1645   -1.7722    0.0000 C   0  0  0  0  0  0  0  0  0  0  0  0
  -10.5911   -1.3086    0.0000 C   0  0  0  0  0  0  0  0  0  0  0  0
  -10.9030    0.1586    0.0000 C   0  0  0  0  0  0  0  0  0  0  0  0
  -12.3296    0.6221    0.0000 C   0  0  0  0  0  0  0  0  0  0  0  0
  -13.4443   -0.3816    0.0000 C   0  0  0  0  0  0  0  0  0  0  0  0
  -13.1324   -1.8488    0.0000 C   0  0  0  0  0  0  0  0  0  0  0  0
  -11.7058   -2.3123    0.0000 C   0  0  0  0  0  0  0  0  0  0  0  0
    0.7500    1.2990    0.0000 C   0  0  0  0  0  0  0  0  0  0  0  0
  1  2  1  0
  2  3  1  0
  3  4  1  0
  4  5  1  0
  5  6  2  0
  6  7  1  0
  7  8  2  0
  8  9  1  0
  9 10  1  0
 10 11  1  0
 11 12  1  0
 12 13  1  0
 13 14  2  0
 14 15  1  0
 15 16  2  0
 16 17  1  0
 16 18  1  0
 18 19  2  0
  9 20  2  0
 20 21  1  0
 21 22  2  0
 22 23  1  0
 23 24  1  0
 24 25  1  0
 25 26  1  0
 26 27  1  0
 27 28  1  0
 28 29  1  0
 29 30  2  0
 30 31  1  0
 31 32  2  0
 32 33  1  0
 33 34  2  0
  6 35  1  0
 35  2  1  0
 23  5  1  0
 34 29  1  0
 22  7  1  0
 19 13  1  0
M  END
>  <Compound_ID>  (50) 
CHEMBL1098120

>  <Active>  (50) 
1.0

>  <Smiles>  (50) 
NC1CCc2c(c3cc(OCCc4ccc(O)cc4)ccc3n2CCCCCc2ccccc2)C1

>  <canonical_smi>  (50) 
NC1CCc2c(c3cc(OCCc4ccc(O)cc4)ccc3n2CCCCCc2ccccc2)C1

>  <Set>  (50) 
G1 active

>  <Set_type>  (50) 
G1

>  <MW>  (50) 
468.64

>  <HBD>  (50) 
2

>  <HBA>  (50) 
3

>  <NRB>  (50) 
10

>  <NR>  (50) 
5

>  <NAR>  (50) 
4

>  <PSA>  (50) 
60.41

>  <Standard Type>  (50) 
nan

>  <Standard Relation>  (50) 
nan

>  <Standard Units>  (50) 
nan

>  <Standard Value>  (50) 
nan

>  <Assay ChEMBL ID>  (50) 
nan

>  <Assay Description>  (50) 
nan

>  <BAO Label>  (50) 
nan

$$$$

     RDKit          2D

 22 25  0  0  0  0  0  0  0  0999 V2000
   -3.0000  -10.3923    0.0000 Br  0  0  0  0  0  0  0  0  0  0  0  0
   -3.7500   -9.0933    0.0000 C   0  0  0  0  0  0  0  0  0  0  0  0
   -5.2500   -9.0933    0.0000 C   0  0  0  0  0  0  0  0  0  0  0  0
   -6.0000   -7.7942    0.0000 C   0  0  0  0  0  0  0  0  0  0  0  0
   -5.2500   -6.4952    0.0000 C   0  0  0  0  0  0  0  0  0  0  0  0
   -3.7500   -6.4952    0.0000 C   0  0  0  0  0  0  0  0  0  0  0  0
   -3.0000   -5.1962    0.0000 N   0  0  0  0  0  0  0  0  0  0  0  0
   -1.5000   -5.1962    0.0000 C   0  0  0  0  0  0  0  0  0  0  0  0
   -0.7500   -6.4952    0.0000 N   0  0  0  0  0  0  0  0  0  0  0  0
    0.7500   -6.4952    0.0000 C   0  0  0  0  0  0  0  0  0  0  0  0
    1.5000   -5.1962    0.0000 N   0  0  0  0  0  0  0  0  0  0  0  0
    0.7500   -3.8971    0.0000 C   0  0  0  0  0  0  0  0  0  0  0  0
    1.5000   -2.5981    0.0000 C   0  0  0  0  0  0  0  0  0  0  0  0
    0.7500   -1.2990    0.0000 C   0  0  0  0  0  0  0  0  0  0  0  0
    1.5000    0.0000    0.0000 C   0  0  0  0  0  0  0  0  0  0  0  0
    0.7500    1.2990    0.0000 C   0  0  0  0  0  0  0  0  0  0  0  0
   -0.7500    1.2990    0.0000 C   0  0  0  0  0  0  0  0  0  0  0  0
   -1.5000    0.0000    0.0000 C   0  0  0  0  0  0  0  0  0  0  0  0
   -0.7500   -1.2990    0.0000 C   0  0  0  0  0  0  0  0  0  0  0  0
   -1.5000   -2.5981    0.0000 C   0  0  0  0  0  0  0  0  0  0  0  0
   -0.7500   -3.8971    0.0000 C   0  0  0  0  0  0  0  0  0  0  0  0
   -3.0000   -7.7942    0.0000 C   0  0  0  0  0  0  0  0  0  0  0  0
  1  2  1  0
  2  3  2  0
  3  4  1  0
  4  5  2  0
  5  6  1  0
  6  7  1  0
  7  8  1  0
  8  9  2  0
  9 10  1  0
 10 11  2  0
 11 12  1  0
 12 13  2  0
 13 14  1  0
 14 15  2  0
 15 16  1  0
 16 17  2  0
 17 18  1  0
 18 19  2  0
 19 20  1  0
 20 21  2  0
  6 22  2  0
 22  2  1  0
 21  8  1  0
 21 12  1  0
 19 14  1  0
M  END
>  <Compound_ID>  (51) 
CHEMBL63786

>  <Active>  (51) 
1.0

>  <Smiles>  (51) 
Brc1cccc(Nc2ncnc3cc4ccccc4cc23)c1

>  <canonical_smi>  (51) 
Brc1cccc(Nc2ncnc3cc4ccccc4cc23)c1

>  <Set>  (51) 
G2 active

>  <Set_type>  (51) 
Train

>  <MW>  (51) 
350.22

>  <HBD>  (51) 
1

>  <HBA>  (51) 
3

>  <NRB>  (51) 
2

>  <NR>  (51) 
4

>  <NAR>  (51) 
4

>  <PSA>  (51) 
37.81

>  <Standard Type>  (51) 
nan

>  <Standard Relation>  (51) 
nan

>  <Standard Units>  (51) 
nan

>  <Standard Value>  (51) 
nan

>  <Assay ChEMBL ID>  (51) 
nan

>  <Assay Description>  (51) 
nan

>  <BAO Label>  (51) 
nan

$$$$

     RDKit          2D

 21 23  0  0  0  0  0  0  0  0999 V2000
    3.7500   -1.2990    0.0000 C   0  0  0  0  0  0  0  0  0  0  0  0
    3.0000    0.0000    0.0000 N   0  0  0  0  0  0  0  0  0  0  0  0
    3.7500    1.2990    0.0000 C   0  0  0  0  0  0  0  0  0  0  0  0
    1.5000    0.0000    0.0000 C   0  0  0  0  0  0  0  0  0  0  0  0
    0.7500   -1.2990    0.0000 C   0  0  0  0  0  0  0  0  0  0  0  0
   -0.7500   -1.2990    0.0000 C   0  0  0  0  0  0  0  0  0  0  0  0
   -1.5000   -2.5981    0.0000 C   0  0  0  0  0  0  0  0  0  0  0  0
   -0.7500   -3.8971    0.0000 N   0  0  0  0  0  0  0  0  0  0  0  0
   -1.5000   -5.1962    0.0000 C   0  0  0  0  0  0  0  0  0  0  0  0
   -3.0000   -5.1962    0.0000 C   0  0  0  0  0  0  0  0  0  0  0  0
   -3.7500   -6.4952    0.0000 C   0  0  0  0  0  0  0  0  0  0  0  0
   -3.0000   -7.7942    0.0000 C   0  0  0  0  0  0  0  0  0  0  0  0
   -1.5000   -7.7942    0.0000 C   0  0  0  0  0  0  0  0  0  0  0  0
   -0.7500   -9.0933    0.0000 Br  0  0  0  0  0  0  0  0  0  0  0  0
   -0.7500   -6.4952    0.0000 C   0  0  0  0  0  0  0  0  0  0  0  0
   -3.0000   -2.5981    0.0000 N   0  0  0  0  0  0  0  0  0  0  0  0
   -3.7500   -1.2990    0.0000 C   0  0  0  0  0  0  0  0  0  0  0  0
   -3.0000    0.0000    0.0000 N   0  0  0  0  0  0  0  0  0  0  0  0
   -1.5000    0.0000    0.0000 C   0  0  0  0  0  0  0  0  0  0  0  0
   -0.7500    1.2990    0.0000 C   0  0  0  0  0  0  0  0  0  0  0  0
    0.7500    1.2990    0.0000 N   0  0  0  0  0  0  0  0  0  0  0  0
  1  2  1  0
  2  3  1  0
  2  4  1  0
  4  5  2  0
  5  6  1  0
  6  7  2  0
  7  8  1  0
  8  9  1  0
  9 10  2  0
 10 11  1  0
 11 12  2  0
 12 13  1  0
 13 14  1  0
 13 15  2  0
  7 16  1  0
 16 17  2  0
 17 18  1  0
 18 19  2  0
 19 20  1  0
 20 21  2  0
 21  4  1  0
 19  6  1  0
 15  9  1  0
M  END
>  <Compound_ID>  (52) 
CHEMBL53711

>  <Active>  (52) 
1.0

>  <Smiles>  (52) 
CN(C)c1cc2c(Nc3cccc(Br)c3)ncnc2cn1

>  <canonical_smi>  (52) 
CN(C)c1cc2c(Nc3cccc(Br)c3)ncnc2cn1

>  <Set>  (52) 
G2 active

>  <Set_type>  (52) 
Train

>  <MW>  (52) 
344.22

>  <HBD>  (52) 
1

>  <HBA>  (52) 
5

>  <NRB>  (52) 
3

>  <NR>  (52) 
3

>  <NAR>  (52) 
3

>  <PSA>  (52) 
53.94

>  <Standard Type>  (52) 
nan

>  <Standard Relation>  (52) 
nan

>  <Standard Units>  (52) 
nan

>  <Standard Value>  (52) 
nan

>  <Assay ChEMBL ID>  (52) 
nan

>  <Assay Description>  (52) 
nan

>  <BAO Label>  (52) 
nan

$$$$

     RDKit          2D

 21 24  0  0  0  0  0  0  0  0999 V2000
   -9.4590    4.8414    0.0000 Br  0  0  0  0  0  0  0  0  0  0  0  0
   -8.0325    5.3050    0.0000 C   0  0  0  0  0  0  0  0  0  0  0  0
   -7.7206    6.7722    0.0000 C   0  0  0  0  0  0  0  0  0  0  0  0
   -6.2940    7.2357    0.0000 C   0  0  0  0  0  0  0  0  0  0  0  0
   -5.1793    6.2320    0.0000 C   0  0  0  0  0  0  0  0  0  0  0  0
   -5.4912    4.7648    0.0000 C   0  0  0  0  0  0  0  0  0  0  0  0
   -4.3764    3.7611    0.0000 N   0  0  0  0  0  0  0  0  0  0  0  0
   -2.9499    4.2246    0.0000 C   0  0  0  0  0  0  0  0  0  0  0  0
   -2.6380    5.6918    0.0000 N   0  0  0  0  0  0  0  0  0  0  0  0
   -1.2114    6.1554    0.0000 C   0  0  0  0  0  0  0  0  0  0  0  0
   -0.0967    5.1517    0.0000 N   0  0  0  0  0  0  0  0  0  0  0  0
   -0.4086    3.6844    0.0000 C   0  0  0  0  0  0  0  0  0  0  0  0
    0.7062    2.6807    0.0000 C   0  0  0  0  0  0  0  0  0  0  0  0
    0.3943    1.2135    0.0000 C   0  0  0  0  0  0  0  0  0  0  0  0
    1.2760    0.0000    0.0000 N   0  0  0  0  0  0  0  0  0  0  0  0
    0.3943   -1.2135    0.0000 C   0  0  0  0  0  0  0  0  0  0  0  0
   -1.0323   -0.7500    0.0000 N   0  0  0  0  0  0  0  0  0  0  0  0
   -1.0323    0.7500    0.0000 C   0  0  0  0  0  0  0  0  0  0  0  0
   -2.1470    1.7537    0.0000 C   0  0  0  0  0  0  0  0  0  0  0  0
   -1.8351    3.2209    0.0000 C   0  0  0  0  0  0  0  0  0  0  0  0
   -6.9177    4.3013    0.0000 C   0  0  0  0  0  0  0  0  0  0  0  0
  1  2  1  0
  2  3  2  0
  3  4  1  0
  4  5  2  0
  5  6  1  0
  6  7  1  0
  7  8  1  0
  8  9  2  0
  9 10  1  0
 10 11  2  0
 11 12  1  0
 12 13  2  0
 13 14  1  0
 14 15  1  0
 15 16  1  0
 16 17  2  0
 17 18  1  0
 18 19  1  0
 19 20  2  0
  6 21  2  0
 21  2  1  0
 20  8  1  0
 20 12  1  0
 18 14  2  0
M  END
>  <Compound_ID>  (53) 
CHEMBL66031

>  <Active>  (53) 
1.0

>  <Smiles>  (53) 
Brc1cccc(Nc2ncnc3cc4[nH]cnc4cc23)c1

>  <canonical_smi>  (53) 
Brc1cccc(Nc2ncnc3cc4[nH]cnc4cc23)c1

>  <Set>  (53) 
G2 active

>  <Set_type>  (53) 
Train

>  <MW>  (53) 
340.18

>  <HBD>  (53) 
2

>  <HBA>  (53) 
4

>  <NRB>  (53) 
2

>  <NR>  (53) 
4

>  <NAR>  (53) 
4

>  <PSA>  (53) 
66.49

>  <Standard Type>  (53) 
nan

>  <Standard Relation>  (53) 
nan

>  <Standard Units>  (53) 
nan

>  <Standard Value>  (53) 
nan

>  <Assay ChEMBL ID>  (53) 
nan

>  <Assay Description>  (53) 
nan

>  <BAO Label>  (53) 
nan

$$$$

     RDKit          2D

 22 25  0  0  0  0  0  0  0  0999 V2000
   -2.6401   -5.7872    0.0000 C   0  0  0  0  0  0  0  0  0  0  0  0
   -1.2135   -5.3237    0.0000 N   0  0  0  0  0  0  0  0  0  0  0  0
   -0.0000   -6.2054    0.0000 C   0  0  0  0  0  0  0  0  0  0  0  0
    1.2135   -5.3237    0.0000 N   0  0  0  0  0  0  0  0  0  0  0  0
    0.7500   -3.8971    0.0000 C   0  0  0  0  0  0  0  0  0  0  0  0
    1.5000   -2.5981    0.0000 C   0  0  0  0  0  0  0  0  0  0  0  0
    0.7500   -1.2990    0.0000 C   0  0  0  0  0  0  0  0  0  0  0  0
    1.5000    0.0000    0.0000 N   0  0  0  0  0  0  0  0  0  0  0  0
    0.7500    1.2990    0.0000 C   0  0  0  0  0  0  0  0  0  0  0  0
   -0.7500    1.2990    0.0000 N   0  0  0  0  0  0  0  0  0  0  0  0
   -1.5000    0.0000    0.0000 C   0  0  0  0  0  0  0  0  0  0  0  0
   -3.0000    0.0000    0.0000 N   0  0  0  0  0  0  0  0  0  0  0  0
   -3.7500    1.2990    0.0000 C   0  0  0  0  0  0  0  0  0  0  0  0
   -3.0000    2.5981    0.0000 C   0  0  0  0  0  0  0  0  0  0  0  0
   -3.7500    3.8971    0.0000 C   0  0  0  0  0  0  0  0  0  0  0  0
   -5.2500    3.8971    0.0000 C   0  0  0  0  0  0  0  0  0  0  0  0
   -6.0000    2.5981    0.0000 C   0  0  0  0  0  0  0  0  0  0  0  0
   -7.5000    2.5981    0.0000 Br  0  0  0  0  0  0  0  0  0  0  0  0
   -5.2500    1.2990    0.0000 C   0  0  0  0  0  0  0  0  0  0  0  0
   -0.7500   -1.2990    0.0000 C   0  0  0  0  0  0  0  0  0  0  0  0
   -1.5000   -2.5981    0.0000 C   0  0  0  0  0  0  0  0  0  0  0  0
   -0.7500   -3.8971    0.0000 C   0  0  0  0  0  0  0  0  0  0  0  0
  1  2  1  0
  2  3  1  0
  3  4  2  0
  4  5  1  0
  5  6  2  0
  6  7  1  0
  7  8  2  0
  8  9  1  0
  9 10  2  0
 10 11  1  0
 11 12  1  0
 12 13  1  0
 13 14  2  0
 14 15  1  0
 15 16  2  0
 16 17  1  0
 17 18  1  0
 17 19  2  0
 11 20  2  0
 20 21  1  0
 21 22  2  0
 22  2  1  0
 22  5  1  0
 20  7  1  0
 19 13  1  0
M  END
>  <Compound_ID>  (54) 
CHEMBL176582

>  <Active>  (54) 
1.0

>  <Smiles>  (54) 
Cn1cnc2cc3ncnc(Nc4cccc(Br)c4)c3cc21

>  <canonical_smi>  (54) 
Cn1cnc2cc3ncnc(Nc4cccc(Br)c4)c3cc21

>  <Set>  (54) 
G2 active

>  <Set_type>  (54) 
Train

>  <MW>  (54) 
354.21

>  <HBD>  (54) 
1

>  <HBA>  (54) 
4

>  <NRB>  (54) 
2

>  <NR>  (54) 
4

>  <NAR>  (54) 
4

>  <PSA>  (54) 
55.63

>  <Standard Type>  (54) 
nan

>  <Standard Relation>  (54) 
nan

>  <Standard Units>  (54) 
nan

>  <Standard Value>  (54) 
nan

>  <Assay ChEMBL ID>  (54) 
nan

>  <Assay Description>  (54) 
nan

>  <BAO Label>  (54) 
nan

$$$$

     RDKit          2D

 21 23  0  0  0  0  0  0  0  0999 V2000
    3.7500   -1.2990    0.0000 C   0  0  0  0  0  0  0  0  0  0  0  0
    3.0000    0.0000    0.0000 N   0  0  0  0  0  0  0  0  0  0  0  0
    3.7500    1.2990    0.0000 C   0  0  0  0  0  0  0  0  0  0  0  0
    1.5000    0.0000    0.0000 C   0  0  0  0  0  0  0  0  0  0  0  0
    0.7500   -1.2990    0.0000 C   0  0  0  0  0  0  0  0  0  0  0  0
   -0.7500   -1.2990    0.0000 C   0  0  0  0  0  0  0  0  0  0  0  0
   -1.5000   -2.5981    0.0000 N   0  0  0  0  0  0  0  0  0  0  0  0
   -3.0000   -2.5981    0.0000 C   0  0  0  0  0  0  0  0  0  0  0  0
   -3.7500   -1.2990    0.0000 N   0  0  0  0  0  0  0  0  0  0  0  0
   -3.0000    0.0000    0.0000 C   0  0  0  0  0  0  0  0  0  0  0  0
   -3.7500    1.2990    0.0000 N   0  0  0  0  0  0  0  0  0  0  0  0
   -5.2500    1.2990    0.0000 C   0  0  0  0  0  0  0  0  0  0  0  0
   -6.0000    2.5981    0.0000 C   0  0  0  0  0  0  0  0  0  0  0  0
   -7.5000    2.5981    0.0000 C   0  0  0  0  0  0  0  0  0  0  0  0
   -8.2500    1.2990    0.0000 C   0  0  0  0  0  0  0  0  0  0  0  0
   -7.5000    0.0000    0.0000 C   0  0  0  0  0  0  0  0  0  0  0  0
   -8.2500   -1.2990    0.0000 Br  0  0  0  0  0  0  0  0  0  0  0  0
   -6.0000    0.0000    0.0000 C   0  0  0  0  0  0  0  0  0  0  0  0
   -1.5000    0.0000    0.0000 C   0  0  0  0  0  0  0  0  0  0  0  0
   -0.7500    1.2990    0.0000 C   0  0  0  0  0  0  0  0  0  0  0  0
    0.7500    1.2990    0.0000 N   0  0  0  0  0  0  0  0  0  0  0  0
  1  2  1  0
  2  3  1  0
  2  4  1  0
  4  5  2  0
  5  6  1  0
  6  7  2  0
  7  8  1  0
  8  9  2  0
  9 10  1  0
 10 11  1  0
 11 12  1  0
 12 13  2  0
 13 14  1  0
 14 15  2  0
 15 16  1  0
 16 17  1  0
 16 18  2  0
 10 19  2  0
 19 20  1  0
 20 21  2  0
 21  4  1  0
 19  6  1  0
 18 12  1  0
M  END
>  <Compound_ID>  (55) 
CHEMBL53428

>  <Active>  (55) 
1.0

>  <Smiles>  (55) 
CN(C)c1cc2ncnc(Nc3cccc(Br)c3)c2cn1

>  <canonical_smi>  (55) 
CN(C)c1cc2ncnc(Nc3cccc(Br)c3)c2cn1

>  <Set>  (55) 
G2 active

>  <Set_type>  (55) 
Train

>  <MW>  (55) 
344.22

>  <HBD>  (55) 
1

>  <HBA>  (55) 
5

>  <NRB>  (55) 
3

>  <NR>  (55) 
3

>  <NAR>  (55) 
3

>  <PSA>  (55) 
53.94

>  <Standard Type>  (55) 
nan

>  <Standard Relation>  (55) 
nan

>  <Standard Units>  (55) 
nan

>  <Standard Value>  (55) 
nan

>  <Assay ChEMBL ID>  (55) 
nan

>  <Assay Description>  (55) 
nan

>  <BAO Label>  (55) 
nan

$$$$

     RDKit          2D

 34 37  0  0  0  0  0  0  0  0999 V2000
   -3.0000   -7.7942    0.0000 C   0  0  0  0  0  0  0  0  0  0  0  0
   -3.7500   -6.4952    0.0000 C   0  0  0  0  0  0  0  0  0  0  0  0
   -3.0000   -5.1962    0.0000 C   0  0  0  0  0  0  0  0  0  0  0  0
   -1.5000   -5.1962    0.0000 O   0  0  0  0  0  0  0  0  0  0  0  0
   -3.7500   -3.8971    0.0000 N   0  0  0  0  0  0  0  0  0  0  0  0
   -3.0000   -2.5981    0.0000 C   0  0  0  0  0  0  0  0  0  0  0  0
   -1.5000   -2.5981    0.0000 N   0  0  0  0  0  0  0  0  0  0  0  0
   -0.7500   -1.2990    0.0000 C   0  0  0  0  0  0  0  0  0  0  0  0
    0.7500   -1.2990    0.0000 C   0  0  0  0  0  0  0  0  0  0  0  0
    1.5000   -2.5981    0.0000 N   0  0  0  0  0  0  0  0  0  0  0  0
    3.0000   -2.5981    0.0000 C   0  0  0  0  0  0  0  0  0  0  0  0
    3.7500   -3.8971    0.0000 C   0  0  0  0  0  0  0  0  0  0  0  0
    5.2500   -3.8971    0.0000 C   0  0  0  0  0  0  0  0  0  0  0  0
    6.0000   -2.5981    0.0000 C   0  0  0  0  0  0  0  0  0  0  0  0
    7.5000   -2.5981    0.0000 F   0  0  0  0  0  0  0  0  0  0  0  0
    5.2500   -1.2990    0.0000 C   0  0  0  0  0  0  0  0  0  0  0  0
    6.0000   -0.0000    0.0000 Cl  0  0  0  0  0  0  0  0  0  0  0  0
    3.7500   -1.2990    0.0000 C   0  0  0  0  0  0  0  0  0  0  0  0
    1.5000    0.0000    0.0000 N   0  0  0  0  0  0  0  0  0  0  0  0
    0.7500    1.2990    0.0000 C   0  0  0  0  0  0  0  0  0  0  0  0
   -0.7500    1.2990    0.0000 N   0  0  0  0  0  0  0  0  0  0  0  0
   -1.5000    0.0000    0.0000 C   0  0  0  0  0  0  0  0  0  0  0  0
   -3.0000    0.0000    0.0000 C   0  0  0  0  0  0  0  0  0  0  0  0
   -3.7500   -1.2990    0.0000 C   0  0  0  0  0  0  0  0  0  0  0  0
   -5.2500   -1.2990    0.0000 C   0  0  0  0  0  0  0  0  0  0  0  0
   -6.0000   -2.5981    0.0000 C   0  0  0  0  0  0  0  0  0  0  0  0
   -7.5000   -2.5981    0.0000 C   0  0  0  0  0  0  0  0  0  0  0  0
   -8.2500   -3.8971    0.0000 C   0  0  0  0  0  0  0  0  0  0  0  0
   -9.7500   -3.8971    0.0000 N   0  0  0  0  0  0  0  0  0  0  0  0
  -10.5000   -2.5981    0.0000 C   0  0  0  0  0  0  0  0  0  0  0  0
  -12.0000   -2.5981    0.0000 C   0  0  0  0  0  0  0  0  0  0  0  0
  -12.7500   -3.8971    0.0000 O   0  0  0  0  0  0  0  0  0  0  0  0
  -12.0000   -5.1962    0.0000 C   0  0  0  0  0  0  0  0  0  0  0  0
  -10.5000   -5.1962    0.0000 C   0  0  0  0  0  0  0  0  0  0  0  0
  1  2  2  0
  2  3  1  0
  3  4  2  0
  3  5  1  0
  5  6  1  0
  6  7  2  0
  7  8  1  0
  8  9  2  0
  9 10  1  0
 10 11  1  0
 11 12  2  0
 12 13  1  0
 13 14  2  0
 14 15  1  0
 14 16  1  0
 16 17  1  0
 16 18  2  0
  9 19  1  0
 19 20  2  0
 20 21  1  0
 21 22  2  0
 22 23  1  0
 23 24  2  0
 24 25  1  0
 25 26  2  0
 26 27  1  0
 27 28  1  0
 28 29  1  0
 29 30  1  0
 30 31  1  0
 31 32  1  0
 32 33  1  0
 33 34  1  0
 24  6  1  0
 34 29  1  0
 22  8  1  0
 18 11  1  0
M  END
>  <Compound_ID>  (56) 
CHEMBL417478

>  <Active>  (56) 
1.0

>  <Smiles>  (56) 
C=CC(=O)Nc1nc2c(Nc3ccc(F)c(Cl)c3)ncnc2cc1/C=C/CCN1CCOCC1

>  <canonical_smi>  (56) 
C=CC(=O)Nc1nc2c(Nc3ccc(F)c(Cl)c3)ncnc2cc1/C=C/CCN1CCOCC1

>  <Set>  (56) 
G2 active

>  <Set_type>  (56) 
Train

>  <MW>  (56) 
482.95

>  <HBD>  (56) 
2

>  <HBA>  (56) 
7

>  <NRB>  (56) 
8

>  <NR>  (56) 
4

>  <NAR>  (56) 
3

>  <PSA>  (56) 
92.27

>  <Standard Type>  (56) 
nan

>  <Standard Relation>  (56) 
nan

>  <Standard Units>  (56) 
nan

>  <Standard Value>  (56) 
nan

>  <Assay ChEMBL ID>  (56) 
nan

>  <Assay Description>  (56) 
nan

>  <BAO Label>  (56) 
nan

$$$$

     RDKit          2D

 33 35  0  0  0  0  0  0  0  0999 V2000
    5.2500   -1.2990    0.0000 C   0  0  0  0  0  0  0  0  0  0  0  0
    3.7500   -1.2990    0.0000 C   0  0  0  0  0  0  0  0  0  0  0  0
    3.0000    0.0000    0.0000 O   0  0  0  0  0  0  0  0  0  0  0  0
    1.5000    0.0000    0.0000 C   0  0  0  0  0  0  0  0  0  0  0  0
    0.7500   -1.2990    0.0000 C   0  0  0  0  0  0  0  0  0  0  0  0
   -0.7500   -1.2990    0.0000 C   0  0  0  0  0  0  0  0  0  0  0  0
   -1.5000   -2.5981    0.0000 N   0  0  0  0  0  0  0  0  0  0  0  0
   -3.0000   -2.5981    0.0000 C   0  0  0  0  0  0  0  0  0  0  0  0
   -3.7500   -1.2990    0.0000 C   0  0  0  0  0  0  0  0  0  0  0  0
   -5.2500   -1.2990    0.0000 C   0  0  0  0  0  0  0  0  0  0  0  0
   -6.7500   -1.2990    0.0000 N   0  0  0  0  0  0  0  0  0  0  0  0
   -3.0000    0.0000    0.0000 C   0  0  0  0  0  0  0  0  0  0  0  0
   -3.7500    1.2990    0.0000 N   0  0  0  0  0  0  0  0  0  0  0  0
   -3.0000    2.5981    0.0000 C   0  0  0  0  0  0  0  0  0  0  0  0
   -1.5000    2.5981    0.0000 C   0  0  0  0  0  0  0  0  0  0  0  0
   -0.7500    3.8971    0.0000 C   0  0  0  0  0  0  0  0  0  0  0  0
   -1.5000    5.1962    0.0000 C   0  0  0  0  0  0  0  0  0  0  0  0
   -0.7500    6.4952    0.0000 F   0  0  0  0  0  0  0  0  0  0  0  0
   -3.0000    5.1962    0.0000 C   0  0  0  0  0  0  0  0  0  0  0  0
   -3.7500    6.4952    0.0000 Cl  0  0  0  0  0  0  0  0  0  0  0  0
   -3.7500    3.8971    0.0000 C   0  0  0  0  0  0  0  0  0  0  0  0
   -1.5000    0.0000    0.0000 C   0  0  0  0  0  0  0  0  0  0  0  0
   -0.7500    1.2990    0.0000 C   0  0  0  0  0  0  0  0  0  0  0  0
    0.7500    1.2990    0.0000 C   0  0  0  0  0  0  0  0  0  0  0  0
    1.5000    2.5981    0.0000 N   0  0  0  0  0  0  0  0  0  0  0  0
    3.0000    2.5981    0.0000 C   0  0  0  0  0  0  0  0  0  0  0  0
    3.7500    1.2990    0.0000 O   0  0  0  0  0  0  0  0  0  0  0  0
    3.7500    3.8971    0.0000 C   0  0  0  0  0  0  0  0  0  0  0  0
    5.2500    3.8971    0.0000 C   0  0  0  0  0  0  0  0  0  0  0  0
    6.0000    5.1962    0.0000 C   0  0  0  0  0  0  0  0  0  0  0  0
    7.5000    5.1962    0.0000 N   0  0  0  0  0  0  0  0  0  0  0  0
    8.2500    6.4952    0.0000 C   0  0  0  0  0  0  0  0  0  0  0  0
    8.2500    3.8971    0.0000 C   0  0  0  0  0  0  0  0  0  0  0  0
  1  2  1  0
  2  3  1  0
  3  4  1  0
  4  5  2  0
  5  6  1  0
  6  7  2  0
  7  8  1  0
  8  9  2  0
  9 10  1  0
 10 11  3  0
  9 12  1  0
 12 13  1  0
 13 14  1  0
 14 15  2  0
 15 16  1  0
 16 17  2  0
 17 18  1  0
 17 19  1  0
 19 20  1  0
 19 21  2  0
 12 22  2  0
 22 23  1  0
 23 24  2  0
 24 25  1  0
 25 26  1  0
 26 27  2  0
 26 28  1  0
 28 29  2  0
 29 30  1  0
 30 31  1  0
 31 32  1  0
 31 33  1  0
 24  4  1  0
 22  6  1  0
 21 14  1  0
M  END
>  <Compound_ID>  (57) 
CHEMBL607707

>  <Active>  (57) 
1.0

>  <Smiles>  (57) 
CCOc1cc2ncc(C#N)c(Nc3ccc(F)c(Cl)c3)c2cc1NC(=O)/C=C/CN(C)C

>  <canonical_smi>  (57) 
CCOc1cc2ncc(C#N)c(Nc3ccc(F)c(Cl)c3)c2cc1NC(=O)/C=C/CN(C)C

>  <Set>  (57) 
G2 active

>  <Set_type>  (57) 
Train

>  <MW>  (57) 
467.93

>  <HBD>  (57) 
2

>  <HBA>  (57) 
6

>  <NRB>  (57) 
8

>  <NR>  (57) 
3

>  <NAR>  (57) 
3

>  <PSA>  (57) 
90.28

>  <Standard Type>  (57) 
nan

>  <Standard Relation>  (57) 
nan

>  <Standard Units>  (57) 
nan

>  <Standard Value>  (57) 
nan

>  <Assay ChEMBL ID>  (57) 
nan

>  <Assay Description>  (57) 
nan

>  <BAO Label>  (57) 
nan

$$$$

     RDKit          2D

 26 29  0  0  0  0  0  0  0  0999 V2000
    6.0000   -0.0000    0.0000 Br  0  0  0  0  0  0  0  0  0  0  0  0
    5.2500   -1.2990    0.0000 C   0  0  0  0  0  0  0  0  0  0  0  0
    6.0000   -2.5981    0.0000 C   0  0  0  0  0  0  0  0  0  0  0  0
    5.2500   -3.8971    0.0000 C   0  0  0  0  0  0  0  0  0  0  0  0
    3.7500   -3.8971    0.0000 C   0  0  0  0  0  0  0  0  0  0  0  0
    3.0000   -2.5981    0.0000 C   0  0  0  0  0  0  0  0  0  0  0  0
    1.5000   -2.5981    0.0000 N   0  0  0  0  0  0  0  0  0  0  0  0
    0.7500   -1.2990    0.0000 C   0  0  0  0  0  0  0  0  0  0  0  0
    1.5000    0.0000    0.0000 N   0  0  0  0  0  0  0  0  0  0  0  0
    0.7500    1.2990    0.0000 C   0  0  0  0  0  0  0  0  0  0  0  0
   -0.7500    1.2990    0.0000 N   0  0  0  0  0  0  0  0  0  0  0  0
   -1.5000    0.0000    0.0000 C   0  0  0  0  0  0  0  0  0  0  0  0
   -3.0000    0.0000    0.0000 C   0  0  0  0  0  0  0  0  0  0  0  0
   -3.7500   -1.2990    0.0000 N   0  0  0  0  0  0  0  0  0  0  0  0
   -3.0000   -2.5981    0.0000 C   0  0  0  0  0  0  0  0  0  0  0  0
   -3.7500   -3.8971    0.0000 N   0  0  0  0  0  0  0  0  0  0  0  0
   -5.2500   -3.8971    0.0000 C   0  0  0  0  0  0  0  0  0  0  0  0
   -6.0000   -5.1962    0.0000 C   0  0  0  0  0  0  0  0  0  0  0  0
   -7.5000   -5.1962    0.0000 C   0  0  0  0  0  0  0  0  0  0  0  0
   -8.3817   -6.4097    0.0000 C   0  0  0  0  0  0  0  0  0  0  0  0
   -9.8083   -5.9462    0.0000 N   0  0  0  0  0  0  0  0  0  0  0  0
   -9.8083   -4.4462    0.0000 C   0  0  0  0  0  0  0  0  0  0  0  0
   -8.3817   -3.9826    0.0000 N   0  0  0  0  0  0  0  0  0  0  0  0
   -1.5000   -2.5981    0.0000 N   0  0  0  0  0  0  0  0  0  0  0  0
   -0.7500   -1.2990    0.0000 C   0  0  0  0  0  0  0  0  0  0  0  0
    3.7500   -1.2990    0.0000 C   0  0  0  0  0  0  0  0  0  0  0  0
  1  2  1  0
  2  3  2  0
  3  4  1  0
  4  5  2  0
  5  6  1  0
  6  7  1  0
  7  8  1  0
  8  9  2  0
  9 10  1  0
 10 11  2  0
 11 12  1  0
 12 13  2  0
 13 14  1  0
 14 15  2  0
 15 16  1  0
 16 17  1  0
 17 18  1  0
 18 19  1  0
 19 20  2  0
 20 21  1  0
 21 22  1  0
 22 23  2  0
 15 24  1  0
 24 25  2  0
  6 26  2  0
 26  2  1  0
 25  8  1  0
 25 12  1  0
 23 19  1  0
M  END
>  <Compound_ID>  (58) 
CHEMBL53426

>  <Active>  (58) 
1.0

>  <Smiles>  (58) 
Brc1cccc(Nc2ncnc3cnc(NCCc4c[nH]cn4)nc23)c1

>  <canonical_smi>  (58) 
Brc1cccc(Nc2ncnc3cnc(NCCc4c[nH]cn4)nc23)c1

>  <Set>  (58) 
G2 active

>  <Set_type>  (58) 
Train

>  <MW>  (58) 
411.27

>  <HBD>  (58) 
3

>  <HBA>  (58) 
7

>  <NRB>  (58) 
6

>  <NR>  (58) 
4

>  <NAR>  (58) 
4

>  <PSA>  (58) 
104.3

>  <Standard Type>  (58) 
nan

>  <Standard Relation>  (58) 
nan

>  <Standard Units>  (58) 
nan

>  <Standard Value>  (58) 
nan

>  <Assay ChEMBL ID>  (58) 
nan

>  <Assay Description>  (58) 
nan

>  <BAO Label>  (58) 
nan

$$$$

     RDKit          2D

 22 25  0  0  0  0  0  0  0  0999 V2000
    3.0000    0.0000    0.0000 N   0  0  0  0  0  0  0  0  0  0  0  0
    1.5000    0.0000    0.0000 C   0  0  0  0  0  0  0  0  0  0  0  0
    0.7500   -1.2990    0.0000 C   0  0  0  0  0  0  0  0  0  0  0  0
   -0.7500   -1.2990    0.0000 C   0  0  0  0  0  0  0  0  0  0  0  0
   -1.5000    0.0000    0.0000 C   0  0  0  0  0  0  0  0  0  0  0  0
   -2.9672    0.3119    0.0000 S   0  0  0  0  0  0  0  0  0  0  0  0
   -3.1240    1.8037    0.0000 C   0  0  0  0  0  0  0  0  0  0  0  0
   -4.3375    2.6853    0.0000 C   0  0  0  0  0  0  0  0  0  0  0  0
   -5.7079    2.0752    0.0000 N   0  0  0  0  0  0  0  0  0  0  0  0
   -6.9214    2.9569    0.0000 C   0  0  0  0  0  0  0  0  0  0  0  0
   -6.7646    4.4487    0.0000 C   0  0  0  0  0  0  0  0  0  0  0  0
   -7.9781    5.3304    0.0000 C   0  0  0  0  0  0  0  0  0  0  0  0
   -9.3484    4.7203    0.0000 C   0  0  0  0  0  0  0  0  0  0  0  0
   -9.5052    3.2285    0.0000 C   0  0  0  0  0  0  0  0  0  0  0  0
  -10.8755    2.6184    0.0000 Br  0  0  0  0  0  0  0  0  0  0  0  0
   -8.2917    2.3468    0.0000 C   0  0  0  0  0  0  0  0  0  0  0  0
   -4.1807    4.1771    0.0000 N   0  0  0  0  0  0  0  0  0  0  0  0
   -2.8104    4.7872    0.0000 C   0  0  0  0  0  0  0  0  0  0  0  0
   -1.5969    3.9055    0.0000 N   0  0  0  0  0  0  0  0  0  0  0  0
   -1.7537    2.4138    0.0000 C   0  0  0  0  0  0  0  0  0  0  0  0
   -0.7500    1.2990    0.0000 C   0  0  0  0  0  0  0  0  0  0  0  0
    0.7500    1.2990    0.0000 C   0  0  0  0  0  0  0  0  0  0  0  0
  1  2  1  0
  2  3  2  0
  3  4  1  0
  4  5  2  0
  5  6  1  0
  6  7  1  0
  7  8  2  0
  8  9  1  0
  9 10  1  0
 10 11  2  0
 11 12  1  0
 12 13  2  0
 13 14  1  0
 14 15  1  0
 14 16  2  0
  8 17  1  0
 17 18  2  0
 18 19  1  0
 19 20  2  0
 20 21  1  0
 21 22  2  0
 22  2  1  0
 21  5  1  0
 20  7  1  0
 16 10  1  0
M  END
>  <Compound_ID>  (59) 
CHEMBL152905

>  <Active>  (59) 
1.0

>  <Smiles>  (59) 
Nc1ccc2sc3c(Nc4cccc(Br)c4)ncnc3c2c1

>  <canonical_smi>  (59) 
Nc1ccc2sc3c(Nc4cccc(Br)c4)ncnc3c2c1

>  <Set>  (59) 
G2 active

>  <Set_type>  (59) 
Train

>  <MW>  (59) 
371.26

>  <HBD>  (59) 
2

>  <HBA>  (59) 
4

>  <NRB>  (59) 
2

>  <NR>  (59) 
4

>  <NAR>  (59) 
4

>  <PSA>  (59) 
63.83

>  <Standard Type>  (59) 
nan

>  <Standard Relation>  (59) 
nan

>  <Standard Units>  (59) 
nan

>  <Standard Value>  (59) 
nan

>  <Assay ChEMBL ID>  (59) 
nan

>  <Assay Description>  (59) 
nan

>  <BAO Label>  (59) 
nan

$$$$

     RDKit          2D

 21 24  0  0  0  0  0  0  0  0999 V2000
   -9.4590    4.8414    0.0000 Br  0  0  0  0  0  0  0  0  0  0  0  0
   -8.0325    5.3050    0.0000 C   0  0  0  0  0  0  0  0  0  0  0  0
   -7.7206    6.7722    0.0000 C   0  0  0  0  0  0  0  0  0  0  0  0
   -6.2940    7.2357    0.0000 C   0  0  0  0  0  0  0  0  0  0  0  0
   -5.1793    6.2320    0.0000 C   0  0  0  0  0  0  0  0  0  0  0  0
   -5.4912    4.7648    0.0000 C   0  0  0  0  0  0  0  0  0  0  0  0
   -4.3764    3.7611    0.0000 N   0  0  0  0  0  0  0  0  0  0  0  0
   -2.9499    4.2246    0.0000 C   0  0  0  0  0  0  0  0  0  0  0  0
   -2.6380    5.6918    0.0000 N   0  0  0  0  0  0  0  0  0  0  0  0
   -1.2114    6.1554    0.0000 C   0  0  0  0  0  0  0  0  0  0  0  0
   -0.0967    5.1517    0.0000 N   0  0  0  0  0  0  0  0  0  0  0  0
   -0.4086    3.6844    0.0000 C   0  0  0  0  0  0  0  0  0  0  0  0
    0.7062    2.6807    0.0000 C   0  0  0  0  0  0  0  0  0  0  0  0
    0.3943    1.2135    0.0000 C   0  0  0  0  0  0  0  0  0  0  0  0
    1.2760    0.0000    0.0000 C   0  0  0  0  0  0  0  0  0  0  0  0
    0.3943   -1.2135    0.0000 N   0  0  0  0  0  0  0  0  0  0  0  0
   -1.0323   -0.7500    0.0000 N   0  0  0  0  0  0  0  0  0  0  0  0
   -1.0323    0.7500    0.0000 C   0  0  0  0  0  0  0  0  0  0  0  0
   -2.1470    1.7537    0.0000 C   0  0  0  0  0  0  0  0  0  0  0  0
   -1.8351    3.2209    0.0000 C   0  0  0  0  0  0  0  0  0  0  0  0
   -6.9177    4.3013    0.0000 C   0  0  0  0  0  0  0  0  0  0  0  0
  1  2  1  0
  2  3  2  0
  3  4  1  0
  4  5  2  0
  5  6  1  0
  6  7  1  0
  7  8  1  0
  8  9  2  0
  9 10  1  0
 10 11  2  0
 11 12  1  0
 12 13  2  0
 13 14  1  0
 14 15  2  0
 15 16  1  0
 16 17  1  0
 17 18  2  0
 18 19  1  0
 19 20  2  0
  6 21  2  0
 21  2  1  0
 20  8  1  0
 20 12  1  0
 18 14  1  0
M  END
>  <Compound_ID>  (60) 
CHEMBL366580

>  <Active>  (60) 
1.0

>  <Smiles>  (60) 
Brc1cccc(Nc2ncnc3cc4c[nH]nc4cc23)c1

>  <canonical_smi>  (60) 
Brc1cccc(Nc2ncnc3cc4c[nH]nc4cc23)c1

>  <Set>  (60) 
G2 active

>  <Set_type>  (60) 
Train

>  <MW>  (60) 
340.18

>  <HBD>  (60) 
2

>  <HBA>  (60) 
4

>  <NRB>  (60) 
2

>  <NR>  (60) 
4

>  <NAR>  (60) 
4

>  <PSA>  (60) 
66.49

>  <Standard Type>  (60) 
nan

>  <Standard Relation>  (60) 
nan

>  <Standard Units>  (60) 
nan

>  <Standard Value>  (60) 
nan

>  <Assay ChEMBL ID>  (60) 
nan

>  <Assay Description>  (60) 
nan

>  <BAO Label>  (60) 
nan

$$$$

     RDKit          2D

 28 31  0  0  0  0  0  0  0  0999 V2000
   -0.7500   -3.8971    0.0000 O   0  0  0  0  0  0  0  0  0  0  0  0
    0.7500   -3.8971    0.0000 C   0  0  0  0  0  0  0  0  0  0  0  0
    1.5000   -5.1962    0.0000 C   0  0  0  0  0  0  0  0  0  0  0  0
    0.7500   -6.4952    0.0000 N   0  0  0  0  0  0  0  0  0  0  0  0
    1.3601   -7.8655    0.0000 S   0  0  0  0  0  0  0  0  0  0  0  0
    0.2454   -8.8692    0.0000 C   0  0  0  0  0  0  0  0  0  0  0  0
   -1.0537   -8.1192    0.0000 C   0  0  0  0  0  0  0  0  0  0  0  0
   -0.7418   -6.6520    0.0000 C   0  0  0  0  0  0  0  0  0  0  0  0
   -1.7455   -5.5373    0.0000 O   0  0  0  0  0  0  0  0  0  0  0  0
    1.5000   -2.5981    0.0000 N   0  0  0  0  0  0  0  0  0  0  0  0
    0.7500   -1.2990    0.0000 C   0  0  0  0  0  0  0  0  0  0  0  0
    1.5000    0.0000    0.0000 C   0  0  0  0  0  0  0  0  0  0  0  0
    0.7500    1.2990    0.0000 C   0  0  0  0  0  0  0  0  0  0  0  0
   -0.7500    1.2990    0.0000 C   0  0  0  0  0  0  0  0  0  0  0  0
   -1.5000    2.5981    0.0000 N   0  0  0  0  0  0  0  0  0  0  0  0
   -3.0000    2.5981    0.0000 C   0  0  0  0  0  0  0  0  0  0  0  0
   -3.7500    1.2990    0.0000 N   0  0  0  0  0  0  0  0  0  0  0  0
   -3.0000    0.0000    0.0000 C   0  0  0  0  0  0  0  0  0  0  0  0
   -3.7500   -1.2990    0.0000 N   0  0  0  0  0  0  0  0  0  0  0  0
   -5.2500   -1.2990    0.0000 C   0  0  0  0  0  0  0  0  0  0  0  0
   -6.0000    0.0000    0.0000 C   0  0  0  0  0  0  0  0  0  0  0  0
   -7.5000    0.0000    0.0000 C   0  0  0  0  0  0  0  0  0  0  0  0
   -8.2500   -1.2990    0.0000 C   0  0  0  0  0  0  0  0  0  0  0  0
   -7.5000   -2.5981    0.0000 C   0  0  0  0  0  0  0  0  0  0  0  0
   -8.2500   -3.8971    0.0000 Br  0  0  0  0  0  0  0  0  0  0  0  0
   -6.0000   -2.5981    0.0000 C   0  0  0  0  0  0  0  0  0  0  0  0
   -1.5000    0.0000    0.0000 C   0  0  0  0  0  0  0  0  0  0  0  0
   -0.7500   -1.2990    0.0000 C   0  0  0  0  0  0  0  0  0  0  0  0
  1  2  2  0
  2  3  1  0
  3  4  1  0
  4  5  1  0
  5  6  1  0
  6  7  2  0
  7  8  1  0
  8  9  2  0
  2 10  1  0
 10 11  1  0
 11 12  2  0
 12 13  1  0
 13 14  2  0
 14 15  1  0
 15 16  2  0
 16 17  1  0
 17 18  2  0
 18 19  1  0
 19 20  1  0
 20 21  2  0
 21 22  1  0
 22 23  2  0
 23 24  1  0
 24 25  1  0
 24 26  2  0
 18 27  1  0
 27 28  2  0
  8  4  1  0
 28 11  1  0
 27 14  1  0
 26 20  1  0
M  END
>  <Compound_ID>  (61) 
CHEMBL603266

>  <Active>  (61) 
1.0

>  <Smiles>  (61) 
O=C(Cn1sccc1=O)Nc1ccc2ncnc(Nc3cccc(Br)c3)c2c1

>  <canonical_smi>  (61) 
O=C(Cn1sccc1=O)Nc1ccc2ncnc(Nc3cccc(Br)c3)c2c1

>  <Set>  (61) 
G2 active

>  <Set_type>  (61) 
Train

>  <MW>  (61) 
456.33

>  <HBD>  (61) 
2

>  <HBA>  (61) 
5

>  <NRB>  (61) 
5

>  <NR>  (61) 
4

>  <NAR>  (61) 
4

>  <PSA>  (61) 
88.91

>  <Standard Type>  (61) 
nan

>  <Standard Relation>  (61) 
nan

>  <Standard Units>  (61) 
nan

>  <Standard Value>  (61) 
nan

>  <Assay ChEMBL ID>  (61) 
nan

>  <Assay Description>  (61) 
nan

>  <BAO Label>  (61) 
nan

$$$$

     RDKit          2D

 22 25  0  0  0  0  0  0  0  0999 V2000
   -6.3319   -0.6072    0.0000 C   0  0  0  0  0  0  0  0  0  0  0  0
   -5.2172   -1.6109    0.0000 N   0  0  0  0  0  0  0  0  0  0  0  0
   -5.3740   -3.1027    0.0000 N   0  0  0  0  0  0  0  0  0  0  0  0
   -4.0037   -3.7128    0.0000 C   0  0  0  0  0  0  0  0  0  0  0  0
   -3.0000   -2.5981    0.0000 C   0  0  0  0  0  0  0  0  0  0  0  0
   -1.5000   -2.5981    0.0000 C   0  0  0  0  0  0  0  0  0  0  0  0
   -0.7500   -1.2990    0.0000 C   0  0  0  0  0  0  0  0  0  0  0  0
    0.7500   -1.2990    0.0000 C   0  0  0  0  0  0  0  0  0  0  0  0
    1.5000   -2.5981    0.0000 N   0  0  0  0  0  0  0  0  0  0  0  0
    3.0000   -2.5981    0.0000 C   0  0  0  0  0  0  0  0  0  0  0  0
    3.7500   -3.8971    0.0000 C   0  0  0  0  0  0  0  0  0  0  0  0
    5.2500   -3.8971    0.0000 C   0  0  0  0  0  0  0  0  0  0  0  0
    6.0000   -2.5981    0.0000 C   0  0  0  0  0  0  0  0  0  0  0  0
    5.2500   -1.2990    0.0000 C   0  0  0  0  0  0  0  0  0  0  0  0
    6.0000   -0.0000    0.0000 Br  0  0  0  0  0  0  0  0  0  0  0  0
    3.7500   -1.2990    0.0000 C   0  0  0  0  0  0  0  0  0  0  0  0
    1.5000    0.0000    0.0000 N   0  0  0  0  0  0  0  0  0  0  0  0
    0.7500    1.2990    0.0000 C   0  0  0  0  0  0  0  0  0  0  0  0
   -0.7500    1.2990    0.0000 N   0  0  0  0  0  0  0  0  0  0  0  0
   -1.5000    0.0000    0.0000 C   0  0  0  0  0  0  0  0  0  0  0  0
   -3.0000    0.0000    0.0000 C   0  0  0  0  0  0  0  0  0  0  0  0
   -3.7500   -1.2990    0.0000 C   0  0  0  0  0  0  0  0  0  0  0  0
  1  2  1  0
  2  3  1  0
  3  4  2  0
  4  5  1  0
  5  6  2  0
  6  7  1  0
  7  8  2  0
  8  9  1  0
  9 10  1  0
 10 11  2  0
 11 12  1  0
 12 13  2  0
 13 14  1  0
 14 15  1  0
 14 16  2  0
  8 17  1  0
 17 18  2  0
 18 19  1  0
 19 20  2  0
 20 21  1  0
 21 22  2  0
 22  2  1  0
 22  5  1  0
 20  7  1  0
 16 10  1  0
M  END
>  <Compound_ID>  (62) 
CHEMBL39320

>  <Active>  (62) 
1.0

>  <Smiles>  (62) 
Cn1ncc2cc3c(Nc4cccc(Br)c4)ncnc3cc21

>  <canonical_smi>  (62) 
Cn1ncc2cc3c(Nc4cccc(Br)c4)ncnc3cc21

>  <Set>  (62) 
G2 active

>  <Set_type>  (62) 
Train

>  <MW>  (62) 
354.21

>  <HBD>  (62) 
1

>  <HBA>  (62) 
4

>  <NRB>  (62) 
2

>  <NR>  (62) 
4

>  <NAR>  (62) 
4

>  <PSA>  (62) 
55.63

>  <Standard Type>  (62) 
nan

>  <Standard Relation>  (62) 
nan

>  <Standard Units>  (62) 
nan

>  <Standard Value>  (62) 
nan

>  <Assay ChEMBL ID>  (62) 
nan

>  <Assay Description>  (62) 
nan

>  <BAO Label>  (62) 
nan

$$$$

     RDKit          2D

 32 35  0  0  0  0  0  0  0  0999 V2000
   -0.7500   -3.8971    0.0000 O   0  0  0  0  0  0  0  0  0  0  0  0
    0.7500   -3.8971    0.0000 C   0  0  0  0  0  0  0  0  0  0  0  0
    1.5000   -5.1962    0.0000 C   0  0  0  0  0  0  0  0  0  0  0  0
    0.7500   -6.4952    0.0000 N   0  0  0  0  0  0  0  0  0  0  0  0
    1.5000   -7.7942    0.0000 C   0  0  0  0  0  0  0  0  0  0  0  0
    3.0000   -7.7942    0.0000 O   0  0  0  0  0  0  0  0  0  0  0  0
    0.7500   -9.0933    0.0000 O   0  0  0  0  0  0  0  0  0  0  0  0
    1.5000  -10.3923    0.0000 C   0  0  0  0  0  0  0  0  0  0  0  0
    0.7500  -11.6913    0.0000 C   0  0  0  0  0  0  0  0  0  0  0  0
    1.5000  -12.9904    0.0000 C   0  0  0  0  0  0  0  0  0  0  0  0
    3.0000  -12.9904    0.0000 C   0  0  0  0  0  0  0  0  0  0  0  0
    3.7500  -11.6913    0.0000 C   0  0  0  0  0  0  0  0  0  0  0  0
    3.0000  -10.3923    0.0000 C   0  0  0  0  0  0  0  0  0  0  0  0
    1.5000   -2.5981    0.0000 N   0  0  0  0  0  0  0  0  0  0  0  0
    0.7500   -1.2990    0.0000 C   0  0  0  0  0  0  0  0  0  0  0  0
    1.5000    0.0000    0.0000 C   0  0  0  0  0  0  0  0  0  0  0  0
    0.7500    1.2990    0.0000 C   0  0  0  0  0  0  0  0  0  0  0  0
   -0.7500    1.2990    0.0000 C   0  0  0  0  0  0  0  0  0  0  0  0
   -1.5000    2.5981    0.0000 N   0  0  0  0  0  0  0  0  0  0  0  0
   -3.0000    2.5981    0.0000 C   0  0  0  0  0  0  0  0  0  0  0  0
   -3.7500    1.2990    0.0000 N   0  0  0  0  0  0  0  0  0  0  0  0
   -3.0000    0.0000    0.0000 C   0  0  0  0  0  0  0  0  0  0  0  0
   -3.7500   -1.2990    0.0000 N   0  0  0  0  0  0  0  0  0  0  0  0
   -5.2500   -1.2990    0.0000 C   0  0  0  0  0  0  0  0  0  0  0  0
   -6.0000    0.0000    0.0000 C   0  0  0  0  0  0  0  0  0  0  0  0
   -7.5000    0.0000    0.0000 C   0  0  0  0  0  0  0  0  0  0  0  0
   -8.2500   -1.2990    0.0000 C   0  0  0  0  0  0  0  0  0  0  0  0
   -7.5000   -2.5981    0.0000 C   0  0  0  0  0  0  0  0  0  0  0  0
   -8.2500   -3.8971    0.0000 Br  0  0  0  0  0  0  0  0  0  0  0  0
   -6.0000   -2.5981    0.0000 C   0  0  0  0  0  0  0  0  0  0  0  0
   -1.5000    0.0000    0.0000 C   0  0  0  0  0  0  0  0  0  0  0  0
   -0.7500   -1.2990    0.0000 C   0  0  0  0  0  0  0  0  0  0  0  0
  1  2  2  0
  2  3  1  0
  3  4  1  0
  4  5  1  0
  5  6  2  0
  5  7  1  0
  7  8  1  0
  8  9  2  0
  9 10  1  0
 10 11  2  0
 11 12  1  0
 12 13  2  0
  2 14  1  0
 14 15  1  0
 15 16  2  0
 16 17  1  0
 17 18  2  0
 18 19  1  0
 19 20  2  0
 20 21  1  0
 21 22  2  0
 22 23  1  0
 23 24  1  0
 24 25  2  0
 25 26  1  0
 26 27  2  0
 27 28  1  0
 28 29  1  0
 28 30  2  0
 22 31  1  0
 31 32  2  0
 13  8  1  0
 32 15  1  0
 31 18  1  0
 30 24  1  0
M  END
>  <Compound_ID>  (63) 
CHEMBL599863

>  <Active>  (63) 
1.0

>  <Smiles>  (63) 
O=C(CNC(=O)Oc1ccccc1)Nc1ccc2ncnc(Nc3cccc(Br)c3)c2c1

>  <canonical_smi>  (63) 
O=C(CNC(=O)Oc1ccccc1)Nc1ccc2ncnc(Nc3cccc(Br)c3)c2c1

>  <Set>  (63) 
G2 active

>  <Set_type>  (63) 
Train

>  <MW>  (63) 
492.33

>  <HBD>  (63) 
3

>  <HBA>  (63) 
6

>  <NRB>  (63) 
6

>  <NR>  (63) 
4

>  <NAR>  (63) 
4

>  <PSA>  (63) 
105.24

>  <Standard Type>  (63) 
nan

>  <Standard Relation>  (63) 
nan

>  <Standard Units>  (63) 
nan

>  <Standard Value>  (63) 
nan

>  <Assay ChEMBL ID>  (63) 
nan

>  <Assay Description>  (63) 
nan

>  <BAO Label>  (63) 
nan

$$$$

     RDKit          2D

 21 24  0  0  0  0  0  0  0  0999 V2000
   -9.4590    4.8414    0.0000 Br  0  0  0  0  0  0  0  0  0  0  0  0
   -8.0325    5.3050    0.0000 C   0  0  0  0  0  0  0  0  0  0  0  0
   -7.7206    6.7722    0.0000 C   0  0  0  0  0  0  0  0  0  0  0  0
   -6.2940    7.2357    0.0000 C   0  0  0  0  0  0  0  0  0  0  0  0
   -5.1793    6.2320    0.0000 C   0  0  0  0  0  0  0  0  0  0  0  0
   -5.4912    4.7648    0.0000 C   0  0  0  0  0  0  0  0  0  0  0  0
   -4.3764    3.7611    0.0000 N   0  0  0  0  0  0  0  0  0  0  0  0
   -2.9499    4.2246    0.0000 C   0  0  0  0  0  0  0  0  0  0  0  0
   -2.6380    5.6918    0.0000 N   0  0  0  0  0  0  0  0  0  0  0  0
   -1.2114    6.1554    0.0000 C   0  0  0  0  0  0  0  0  0  0  0  0
   -0.0967    5.1517    0.0000 N   0  0  0  0  0  0  0  0  0  0  0  0
   -0.4086    3.6844    0.0000 C   0  0  0  0  0  0  0  0  0  0  0  0
    0.7062    2.6807    0.0000 C   0  0  0  0  0  0  0  0  0  0  0  0
    0.3943    1.2135    0.0000 C   0  0  0  0  0  0  0  0  0  0  0  0
    1.2760    0.0000    0.0000 N   0  0  0  0  0  0  0  0  0  0  0  0
    0.3943   -1.2135    0.0000 C   0  0  0  0  0  0  0  0  0  0  0  0
   -1.0323   -0.7500    0.0000 C   0  0  0  0  0  0  0  0  0  0  0  0
   -1.0323    0.7500    0.0000 C   0  0  0  0  0  0  0  0  0  0  0  0
   -2.1470    1.7537    0.0000 C   0  0  0  0  0  0  0  0  0  0  0  0
   -1.8351    3.2209    0.0000 C   0  0  0  0  0  0  0  0  0  0  0  0
   -6.9177    4.3013    0.0000 C   0  0  0  0  0  0  0  0  0  0  0  0
  1  2  1  0
  2  3  2  0
  3  4  1  0
  4  5  2  0
  5  6  1  0
  6  7  1  0
  7  8  1  0
  8  9  2  0
  9 10  1  0
 10 11  2  0
 11 12  1  0
 12 13  2  0
 13 14  1  0
 14 15  1  0
 15 16  1  0
 16 17  2  0
 17 18  1  0
 18 19  1  0
 19 20  2  0
  6 21  2  0
 21  2  1  0
 20  8  1  0
 20 12  1  0
 18 14  2  0
M  END
>  <Compound_ID>  (64) 
CHEMBL40734

>  <Active>  (64) 
1.0

>  <Smiles>  (64) 
Brc1cccc(Nc2ncnc3cc4[nH]ccc4cc23)c1

>  <canonical_smi>  (64) 
Brc1cccc(Nc2ncnc3cc4[nH]ccc4cc23)c1

>  <Set>  (64) 
G2 active

>  <Set_type>  (64) 
Train

>  <MW>  (64) 
339.2

>  <HBD>  (64) 
2

>  <HBA>  (64) 
3

>  <NRB>  (64) 
2

>  <NR>  (64) 
4

>  <NAR>  (64) 
4

>  <PSA>  (64) 
53.6

>  <Standard Type>  (64) 
nan

>  <Standard Relation>  (64) 
nan

>  <Standard Units>  (64) 
nan

>  <Standard Value>  (64) 
nan

>  <Assay ChEMBL ID>  (64) 
nan

>  <Assay Description>  (64) 
nan

>  <BAO Label>  (64) 
nan

$$$$

     RDKit          2D

 25 28  0  0  0  0  0  0  0  0999 V2000
    6.0000   -2.5981    0.0000 C   0  0  0  0  0  0  0  0  0  0  0  0
    5.2500   -1.2990    0.0000 C   0  0  0  0  0  0  0  0  0  0  0  0
    3.7500   -1.2990    0.0000 C   0  0  0  0  0  0  0  0  0  0  0  0
    3.0000   -2.5981    0.0000 O   0  0  0  0  0  0  0  0  0  0  0  0
    3.0000    0.0000    0.0000 N   0  0  0  0  0  0  0  0  0  0  0  0
    1.5000    0.0000    0.0000 C   0  0  0  0  0  0  0  0  0  0  0  0
    0.7500   -1.2990    0.0000 C   0  0  0  0  0  0  0  0  0  0  0  0
   -0.7500   -1.2990    0.0000 C   0  0  0  0  0  0  0  0  0  0  0  0
   -1.5000    0.0000    0.0000 C   0  0  0  0  0  0  0  0  0  0  0  0
   -3.0000    0.0000    0.0000 N   0  0  0  0  0  0  0  0  0  0  0  0
   -3.7500    1.2990    0.0000 C   0  0  0  0  0  0  0  0  0  0  0  0
   -3.0000    2.5981    0.0000 N   0  0  0  0  0  0  0  0  0  0  0  0
   -1.5000    2.5981    0.0000 C   0  0  0  0  0  0  0  0  0  0  0  0
   -0.7500    3.8971    0.0000 N   0  0  0  0  0  0  0  0  0  0  0  0
    0.7418    4.0539    0.0000 C   0  0  0  0  0  0  0  0  0  0  0  0
    1.0537    5.5211    0.0000 C   0  0  0  0  0  0  0  0  0  0  0  0
   -0.2454    6.2711    0.0000 C   0  0  0  0  0  0  0  0  0  0  0  0
   -0.5573    7.7383    0.0000 C   0  0  0  0  0  0  0  0  0  0  0  0
   -1.9838    8.2019    0.0000 C   0  0  0  0  0  0  0  0  0  0  0  0
   -3.0986    7.1982    0.0000 C   0  0  0  0  0  0  0  0  0  0  0  0
   -4.5251    7.6617    0.0000 Br  0  0  0  0  0  0  0  0  0  0  0  0
   -2.7867    5.7310    0.0000 C   0  0  0  0  0  0  0  0  0  0  0  0
   -1.3601    5.2674    0.0000 C   0  0  0  0  0  0  0  0  0  0  0  0
   -0.7500    1.2990    0.0000 C   0  0  0  0  0  0  0  0  0  0  0  0
    0.7500    1.2990    0.0000 C   0  0  0  0  0  0  0  0  0  0  0  0
  1  2  2  0
  2  3  1  0
  3  4  2  0
  3  5  1  0
  5  6  1  0
  6  7  2  0
  7  8  1  0
  8  9  2  0
  9 10  1  0
 10 11  2  0
 11 12  1  0
 12 13  2  0
 13 14  1  0
 14 15  1  0
 15 16  1  0
 16 17  1  0
 17 18  2  0
 18 19  1  0
 19 20  2  0
 20 21  1  0
 20 22  1  0
 22 23  2  0
 13 24  1  0
 24 25  2  0
 25  6  1  0
 24  9  1  0
 23 14  1  0
 23 17  1  0
M  END
>  <Compound_ID>  (65) 
CHEMBL51741

>  <Active>  (65) 
1.0

>  <Smiles>  (65) 
C=CC(=O)Nc1ccc2ncnc(N3CCc4ccc(Br)cc43)c2c1

>  <canonical_smi>  (65) 
C=CC(=O)Nc1ccc2ncnc(N3CCc4ccc(Br)cc43)c2c1

>  <Set>  (65) 
G2 active

>  <Set_type>  (65) 
Train

>  <MW>  (65) 
395.26

>  <HBD>  (65) 
1

>  <HBA>  (65) 
4

>  <NRB>  (65) 
3

>  <NR>  (65) 
4

>  <NAR>  (65) 
3

>  <PSA>  (65) 
58.12

>  <Standard Type>  (65) 
nan

>  <Standard Relation>  (65) 
nan

>  <Standard Units>  (65) 
nan

>  <Standard Value>  (65) 
nan

>  <Assay ChEMBL ID>  (65) 
nan

>  <Assay Description>  (65) 
nan

>  <BAO Label>  (65) 
nan

$$$$

     RDKit          2D

 23 25  0  0  0  0  0  0  0  0999 V2000
    6.0000   -2.5981    0.0000 C   0  0  0  0  0  0  0  0  0  0  0  0
    5.2500   -1.2990    0.0000 C   0  0  0  0  0  0  0  0  0  0  0  0
    3.7500   -1.2990    0.0000 C   0  0  0  0  0  0  0  0  0  0  0  0
    3.0000   -2.5981    0.0000 O   0  0  0  0  0  0  0  0  0  0  0  0
    3.0000    0.0000    0.0000 N   0  0  0  0  0  0  0  0  0  0  0  0
    1.5000    0.0000    0.0000 C   0  0  0  0  0  0  0  0  0  0  0  0
    0.7500   -1.2990    0.0000 C   0  0  0  0  0  0  0  0  0  0  0  0
   -0.7500   -1.2990    0.0000 C   0  0  0  0  0  0  0  0  0  0  0  0
   -1.5000    0.0000    0.0000 C   0  0  0  0  0  0  0  0  0  0  0  0
   -3.0000    0.0000    0.0000 N   0  0  0  0  0  0  0  0  0  0  0  0
   -3.7500    1.2990    0.0000 C   0  0  0  0  0  0  0  0  0  0  0  0
   -3.0000    2.5981    0.0000 N   0  0  0  0  0  0  0  0  0  0  0  0
   -1.5000    2.5981    0.0000 C   0  0  0  0  0  0  0  0  0  0  0  0
   -0.7500    3.8971    0.0000 C   0  0  0  0  0  0  0  0  0  0  0  0
   -1.5000    5.1962    0.0000 C   0  0  0  0  0  0  0  0  0  0  0  0
   -0.7500    6.4952    0.0000 C   0  0  0  0  0  0  0  0  0  0  0  0
   -1.5000    7.7942    0.0000 C   0  0  0  0  0  0  0  0  0  0  0  0
   -3.0000    7.7942    0.0000 C   0  0  0  0  0  0  0  0  0  0  0  0
   -3.7500    6.4952    0.0000 C   0  0  0  0  0  0  0  0  0  0  0  0
   -5.2500    6.4952    0.0000 C   0  0  0  0  0  0  0  0  0  0  0  0
   -3.0000    5.1962    0.0000 C   0  0  0  0  0  0  0  0  0  0  0  0
   -0.7500    1.2990    0.0000 C   0  0  0  0  0  0  0  0  0  0  0  0
    0.7500    1.2990    0.0000 C   0  0  0  0  0  0  0  0  0  0  0  0
  1  2  2  0
  2  3  1  0
  3  4  2  0
  3  5  1  0
  5  6  1  0
  6  7  2  0
  7  8  1  0
  8  9  2  0
  9 10  1  0
 10 11  2  0
 11 12  1  0
 12 13  2  0
 13 14  1  0
 14 15  1  0
 15 16  2  0
 16 17  1  0
 17 18  2  0
 18 19  1  0
 19 20  1  0
 19 21  2  0
 13 22  1  0
 22 23  2  0
 23  6  1  0
 22  9  1  0
 21 15  1  0
M  END
>  <Compound_ID>  (66) 
CHEMBL522134

>  <Active>  (66) 
1.0

>  <Smiles>  (66) 
C=CC(=O)Nc1ccc2ncnc(Cc3cccc(C)c3)c2c1

>  <canonical_smi>  (66) 
C=CC(=O)Nc1ccc2ncnc(Cc3cccc(C)c3)c2c1

>  <Set>  (66) 
G2 active

>  <Set_type>  (66) 
Train

>  <MW>  (66) 
303.37

>  <HBD>  (66) 
1

>  <HBA>  (66) 
3

>  <NRB>  (66) 
4

>  <NR>  (66) 
3

>  <NAR>  (66) 
3

>  <PSA>  (66) 
54.88

>  <Standard Type>  (66) 
nan

>  <Standard Relation>  (66) 
nan

>  <Standard Units>  (66) 
nan

>  <Standard Value>  (66) 
nan

>  <Assay ChEMBL ID>  (66) 
nan

>  <Assay Description>  (66) 
nan

>  <BAO Label>  (66) 
nan

$$$$

     RDKit          2D

 22 24  0  0  0  0  0  0  0  0999 V2000
   -4.6904   -6.5871    0.0000 C   0  0  0  0  0  0  0  0  0  0  0  0
   -4.3786   -5.1199    0.0000 C   0  0  0  0  0  0  0  0  0  0  0  0
   -2.9520   -4.6564    0.0000 C   0  0  0  0  0  0  0  0  0  0  0  0
   -1.8373   -5.6601    0.0000 O   0  0  0  0  0  0  0  0  0  0  0  0
   -2.6401   -3.1891    0.0000 N   0  0  0  0  0  0  0  0  0  0  0  0
   -1.2135   -2.7256    0.0000 C   0  0  0  0  0  0  0  0  0  0  0  0
   -0.0000   -3.6073    0.0000 C   0  0  0  0  0  0  0  0  0  0  0  0
    1.2135   -2.7256    0.0000 C   0  0  0  0  0  0  0  0  0  0  0  0
    0.7500   -1.2990    0.0000 C   0  0  0  0  0  0  0  0  0  0  0  0
    1.5000    0.0000    0.0000 N   0  0  0  0  0  0  0  0  0  0  0  0
    0.7500    1.2990    0.0000 C   0  0  0  0  0  0  0  0  0  0  0  0
   -0.7500    1.2990    0.0000 N   0  0  0  0  0  0  0  0  0  0  0  0
   -1.5000    0.0000    0.0000 C   0  0  0  0  0  0  0  0  0  0  0  0
   -3.0000    0.0000    0.0000 N   0  0  0  0  0  0  0  0  0  0  0  0
   -3.7500    1.2990    0.0000 C   0  0  0  0  0  0  0  0  0  0  0  0
   -3.0000    2.5981    0.0000 C   0  0  0  0  0  0  0  0  0  0  0  0
   -3.7500    3.8971    0.0000 C   0  0  0  0  0  0  0  0  0  0  0  0
   -5.2500    3.8971    0.0000 C   0  0  0  0  0  0  0  0  0  0  0  0
   -6.0000    2.5981    0.0000 C   0  0  0  0  0  0  0  0  0  0  0  0
   -7.5000    2.5981    0.0000 C   0  0  0  0  0  0  0  0  0  0  0  0
   -5.2500    1.2990    0.0000 C   0  0  0  0  0  0  0  0  0  0  0  0
   -0.7500   -1.2990    0.0000 C   0  0  0  0  0  0  0  0  0  0  0  0
  1  2  2  0
  2  3  1  0
  3  4  2  0
  3  5  1  0
  5  6  1  0
  6  7  2  0
  7  8  1  0
  8  9  2  0
  9 10  1  0
 10 11  2  0
 11 12  1  0
 12 13  2  0
 13 14  1  0
 14 15  1  0
 15 16  2  0
 16 17  1  0
 17 18  2  0
 18 19  1  0
 19 20  1  0
 19 21  2  0
 13 22  1  0
 22  6  1  0
 22  9  1  0
 21 15  1  0
M  END
>  <Compound_ID>  (67) 
CHEMBL474147

>  <Active>  (67) 
1.0

>  <Smiles>  (67) 
C=CC(=O)NC1=CC=C2N=CN=C(Nc3cccc(C)c3)C21

>  <canonical_smi>  (67) 
C=CC(=O)NC1=CC=C2N=CN=C(Nc3cccc(C)c3)C21

>  <Set>  (67) 
G2 active

>  <Set_type>  (67) 
Train

>  <MW>  (67) 
292.34

>  <HBD>  (67) 
2

>  <HBA>  (67) 
2

>  <NRB>  (67) 
3

>  <NR>  (67) 
3

>  <NAR>  (67) 
1

>  <PSA>  (67) 
65.85

>  <Standard Type>  (67) 
nan

>  <Standard Relation>  (67) 
nan

>  <Standard Units>  (67) 
nan

>  <Standard Value>  (67) 
nan

>  <Assay ChEMBL ID>  (67) 
nan

>  <Assay Description>  (67) 
nan

>  <BAO Label>  (67) 
nan

$$$$

     RDKit          2D

 20 23  0  0  0  0  0  0  0  0999 V2000
    0.1802  -10.4264    0.0000 Br  0  0  0  0  0  0  0  0  0  0  0  0
   -0.8805   -9.3658    0.0000 C   0  0  0  0  0  0  0  0  0  0  0  0
   -2.3294   -9.7540    0.0000 C   0  0  0  0  0  0  0  0  0  0  0  0
   -3.3900   -8.6933    0.0000 C   0  0  0  0  0  0  0  0  0  0  0  0
   -3.0018   -7.2444    0.0000 C   0  0  0  0  0  0  0  0  0  0  0  0
   -1.5529   -6.8562    0.0000 C   0  0  0  0  0  0  0  0  0  0  0  0
   -1.1647   -5.4073    0.0000 N   0  0  0  0  0  0  0  0  0  0  0  0
   -2.2253   -4.3467    0.0000 C   0  0  0  0  0  0  0  0  0  0  0  0
   -3.6742   -4.7349    0.0000 N   0  0  0  0  0  0  0  0  0  0  0  0
   -4.7349   -3.6742    0.0000 C   0  0  0  0  0  0  0  0  0  0  0  0
   -4.3467   -2.2253    0.0000 N   0  0  0  0  0  0  0  0  0  0  0  0
   -2.8978   -1.8371    0.0000 C   0  0  0  0  0  0  0  0  0  0  0  0
   -2.5095   -0.3882    0.0000 C   0  0  0  0  0  0  0  0  0  0  0  0
   -1.0607    0.0000    0.0000 C   0  0  0  0  0  0  0  0  0  0  0  0
   -0.0000   -1.0607    0.0000 C   0  0  0  0  0  0  0  0  0  0  0  0
   -0.3882   -2.5095    0.0000 C   0  0  0  0  0  0  0  0  0  0  0  0
   -1.8371   -2.8978    0.0000 C   0  0  0  0  0  0  0  0  0  0  0  0
    1.0607    0.0000    0.0000 C   0  0  0  0  0  0  0  0  0  0  0  0
    0.0000    1.0607    0.0000 N   0  0  0  0  0  0  0  0  0  0  0  0
   -0.4923   -7.9169    0.0000 C   0  0  0  0  0  0  0  0  0  0  0  0
  1  2  1  0
  2  3  2  0
  3  4  1  0
  4  5  2  0
  5  6  1  0
  6  7  1  0
  7  8  1  0
  8  9  2  0
  9 10  1  0
 10 11  2  0
 11 12  1  0
 12 13  2  0
 13 14  1  0
 14 15  2  0
 15 16  1  0
 16 17  2  0
 15 18  1  0
 18 19  1  0
  6 20  2  0
 20  2  1  0
 17  8  1  0
 17 12  1  0
 19 14  1  0
M  END
>  <Compound_ID>  (68) 
CHEMBL447331

>  <Active>  (68) 
1.0

>  <Smiles>  (68) 
Brc1cccc(Nc2ncnc3cc4c(cc23)CN4)c1

>  <canonical_smi>  (68) 
Brc1cccc(Nc2ncnc3cc4c(cc23)CN4)c1

>  <Set>  (68) 
G2 active

>  <Set_type>  (68) 
Train

>  <MW>  (68) 
327.19

>  <HBD>  (68) 
2

>  <HBA>  (68) 
4

>  <NRB>  (68) 
2

>  <NR>  (68) 
4

>  <NAR>  (68) 
3

>  <PSA>  (68) 
49.84

>  <Standard Type>  (68) 
nan

>  <Standard Relation>  (68) 
nan

>  <Standard Units>  (68) 
nan

>  <Standard Value>  (68) 
nan

>  <Assay ChEMBL ID>  (68) 
nan

>  <Assay Description>  (68) 
nan

>  <BAO Label>  (68) 
nan

$$$$

     RDKit          2D

 38 41  0  0  0  0  0  0  0  0999 V2000
    5.7093  -13.1786    0.0000 C   0  0  0  0  0  0  0  0  0  0  0  0
    4.2175  -13.0218    0.0000 C   0  0  0  0  0  0  0  0  0  0  0  0
    3.6074  -11.6515    0.0000 N   0  0  0  0  0  0  0  0  0  0  0  0
    4.4891  -10.4379    0.0000 C   0  0  0  0  0  0  0  0  0  0  0  0
    5.9808  -10.5947    0.0000 C   0  0  0  0  0  0  0  0  0  0  0  0
    2.1156  -11.4947    0.0000 C   0  0  0  0  0  0  0  0  0  0  0  0
    1.5055  -10.1243    0.0000 C   0  0  0  0  0  0  0  0  0  0  0  0
    2.3872   -8.9108    0.0000 O   0  0  0  0  0  0  0  0  0  0  0  0
    0.0137   -9.9676    0.0000 C   0  0  0  0  0  0  0  0  0  0  0  0
   -0.5964   -8.5972    0.0000 N   0  0  0  0  0  0  0  0  0  0  0  0
   -2.0882   -8.4404    0.0000 C   0  0  0  0  0  0  0  0  0  0  0  0
   -2.9699   -9.6540    0.0000 O   0  0  0  0  0  0  0  0  0  0  0  0
   -2.6983   -7.0701    0.0000 C   0  0  0  0  0  0  0  0  0  0  0  0
   -4.1655   -6.7583    0.0000 C   0  0  0  0  0  0  0  0  0  0  0  0
   -4.3223   -5.2665    0.0000 C   0  0  0  0  0  0  0  0  0  0  0  0
   -5.6213   -4.5165    0.0000 C   0  0  0  0  0  0  0  0  0  0  0  0
   -2.9520   -4.6564    0.0000 C   0  0  0  0  0  0  0  0  0  0  0  0
   -2.6401   -3.1891    0.0000 C   0  0  0  0  0  0  0  0  0  0  0  0
   -1.2135   -2.7256    0.0000 C   0  0  0  0  0  0  0  0  0  0  0  0
   -0.0000   -3.6073    0.0000 C   0  0  0  0  0  0  0  0  0  0  0  0
    0.0000   -5.1073    0.0000 O   0  0  0  0  0  0  0  0  0  0  0  0
    1.2135   -2.7256    0.0000 N   0  0  0  0  0  0  0  0  0  0  0  0
    0.7500   -1.2990    0.0000 C   0  0  0  0  0  0  0  0  0  0  0  0
    1.5000    0.0000    0.0000 N   0  0  0  0  0  0  0  0  0  0  0  0
    0.7500    1.2990    0.0000 C   0  0  0  0  0  0  0  0  0  0  0  0
   -0.7500    1.2990    0.0000 N   0  0  0  0  0  0  0  0  0  0  0  0
   -1.5000    0.0000    0.0000 C   0  0  0  0  0  0  0  0  0  0  0  0
   -3.0000    0.0000    0.0000 N   0  0  0  0  0  0  0  0  0  0  0  0
   -3.7500    1.2990    0.0000 C   0  0  0  0  0  0  0  0  0  0  0  0
   -3.0000    2.5981    0.0000 C   0  0  0  0  0  0  0  0  0  0  0  0
   -3.7500    3.8971    0.0000 C   0  0  0  0  0  0  0  0  0  0  0  0
   -5.2500    3.8971    0.0000 C   0  0  0  0  0  0  0  0  0  0  0  0
   -6.0000    5.1962    0.0000 F   0  0  0  0  0  0  0  0  0  0  0  0
   -6.0000    2.5981    0.0000 C   0  0  0  0  0  0  0  0  0  0  0  0
   -7.5000    2.5981    0.0000 Cl  0  0  0  0  0  0  0  0  0  0  0  0
   -5.2500    1.2990    0.0000 C   0  0  0  0  0  0  0  0  0  0  0  0
   -0.7500   -1.2990    0.0000 C   0  0  0  0  0  0  0  0  0  0  0  0
   -1.9483   -5.7711    0.0000 N   0  0  0  0  0  0  0  0  0  0  0  0
  1  2  1  0
  2  3  1  0
  3  4  1  0
  4  5  1  0
  3  6  1  0
  6  7  1  0
  7  8  1  0
  7  9  1  0
  9 10  1  0
 10 11  1  0
 11 12  2  0
 11 13  1  0
 13 14  2  0
 14 15  1  0
 15 16  1  0
 15 17  2  0
 17 18  1  0
 18 19  2  0
 19 20  1  0
 20 21  2  0
 20 22  1  0
 22 23  1  0
 23 24  2  0
 24 25  1  0
 25 26  2  0
 26 27  1  0
 27 28  1  0
 28 29  1  0
 29 30  2  0
 30 31  1  0
 31 32  2  0
 32 33  1  0
 32 34  1  0
 34 35  1  0
 34 36  2  0
 27 37  2  0
 17 38  1  0
 38 13  1  0
 37 19  1  0
 37 23  1  0
 36 29  1  0
M  END
>  <Compound_ID>  (69) 
CHEMBL304271

>  <Active>  (69) 
1.0

>  <Smiles>  (69) 
CCN(CC)CC(O)CNC(=O)c1cc(C)c(/C=C2\C(=O)Nc3ncnc(Nc4ccc(F)c(Cl)c4)c32)[nH]1

>  <canonical_smi>  (69) 
CCN(CC)CC(O)CNC(=O)c1cc(C)c(/C=C2\C(=O)Nc3ncnc(Nc4ccc(F)c(Cl)c4)c32)[nH]1

>  <Set>  (69) 
G2 active

>  <Set_type>  (69) 
Train

>  <MW>  (69) 
542.02

>  <HBD>  (69) 
5

>  <HBA>  (69) 
7

>  <NRB>  (69) 
10

>  <NR>  (69) 
4

>  <NAR>  (69) 
3

>  <PSA>  (69) 
135.27

>  <Standard Type>  (69) 
nan

>  <Standard Relation>  (69) 
nan

>  <Standard Units>  (69) 
nan

>  <Standard Value>  (69) 
nan

>  <Assay ChEMBL ID>  (69) 
nan

>  <Assay Description>  (69) 
nan

>  <BAO Label>  (69) 
nan

$$$$

     RDKit          2D

 22 24  0  0  0  0  0  0  0  0999 V2000
   -4.6904   -6.5871    0.0000 C   0  0  0  0  0  0  0  0  0  0  0  0
   -4.3786   -5.1199    0.0000 C   0  0  0  0  0  0  0  0  0  0  0  0
   -2.9520   -4.6564    0.0000 C   0  0  0  0  0  0  0  0  0  0  0  0
   -1.8373   -5.6601    0.0000 O   0  0  0  0  0  0  0  0  0  0  0  0
   -2.6401   -3.1891    0.0000 N   0  0  0  0  0  0  0  0  0  0  0  0
   -1.2135   -2.7256    0.0000 C   0  0  0  0  0  0  0  0  0  0  0  0
   -0.0000   -3.6073    0.0000 N   0  0  0  0  0  0  0  0  0  0  0  0
    1.2135   -2.7256    0.0000 C   0  0  0  0  0  0  0  0  0  0  0  0
    0.7500   -1.2990    0.0000 C   0  0  0  0  0  0  0  0  0  0  0  0
    1.5000    0.0000    0.0000 N   0  0  0  0  0  0  0  0  0  0  0  0
    0.7500    1.2990    0.0000 C   0  0  0  0  0  0  0  0  0  0  0  0
   -0.7500    1.2990    0.0000 N   0  0  0  0  0  0  0  0  0  0  0  0
   -1.5000    0.0000    0.0000 C   0  0  0  0  0  0  0  0  0  0  0  0
   -3.0000    0.0000    0.0000 N   0  0  0  0  0  0  0  0  0  0  0  0
   -3.7500    1.2990    0.0000 C   0  0  0  0  0  0  0  0  0  0  0  0
   -3.0000    2.5981    0.0000 C   0  0  0  0  0  0  0  0  0  0  0  0
   -3.7500    3.8971    0.0000 C   0  0  0  0  0  0  0  0  0  0  0  0
   -5.2500    3.8971    0.0000 C   0  0  0  0  0  0  0  0  0  0  0  0
   -6.0000    2.5981    0.0000 C   0  0  0  0  0  0  0  0  0  0  0  0
   -7.5000    2.5981    0.0000 C   0  0  0  0  0  0  0  0  0  0  0  0
   -5.2500    1.2990    0.0000 C   0  0  0  0  0  0  0  0  0  0  0  0
   -0.7500   -1.2990    0.0000 C   0  0  0  0  0  0  0  0  0  0  0  0
  1  2  2  0
  2  3  1  0
  3  4  2  0
  3  5  1  0
  5  6  1  0
  6  7  2  0
  7  8  1  0
  8  9  2  0
  9 10  1  0
 10 11  2  0
 11 12  1  0
 12 13  2  0
 13 14  1  0
 14 15  1  0
 15 16  2  0
 16 17  1  0
 17 18  2  0
 18 19  1  0
 19 20  1  0
 19 21  2  0
 13 22  1  0
 22  6  1  0
 22  9  1  0
 21 15  1  0
M  END
>  <Compound_ID>  (70) 
CHEMBL516022

>  <Active>  (70) 
1.0

>  <Smiles>  (70) 
C=CC(=O)NC1=NC=C2N=CN=C(Nc3cccc(C)c3)C21

>  <canonical_smi>  (70) 
C=CC(=O)NC1=NC=C2N=CN=C(Nc3cccc(C)c3)C21

>  <Set>  (70) 
G2 active

>  <Set_type>  (70) 
Train

>  <MW>  (70) 
293.33

>  <HBD>  (70) 
2

>  <HBA>  (70) 
2

>  <NRB>  (70) 
2

>  <NR>  (70) 
3

>  <NAR>  (70) 
1

>  <PSA>  (70) 
78.21

>  <Standard Type>  (70) 
nan

>  <Standard Relation>  (70) 
nan

>  <Standard Units>  (70) 
nan

>  <Standard Value>  (70) 
nan

>  <Assay ChEMBL ID>  (70) 
nan

>  <Assay Description>  (70) 
nan

>  <BAO Label>  (70) 
nan

$$$$

     RDKit          2D

 27 30  0  0  0  0  0  0  0  0999 V2000
    6.0000   -0.0000    0.0000 Br  0  0  0  0  0  0  0  0  0  0  0  0
    5.2500   -1.2990    0.0000 C   0  0  0  0  0  0  0  0  0  0  0  0
    6.0000   -2.5981    0.0000 C   0  0  0  0  0  0  0  0  0  0  0  0
    5.2500   -3.8971    0.0000 C   0  0  0  0  0  0  0  0  0  0  0  0
    3.7500   -3.8971    0.0000 C   0  0  0  0  0  0  0  0  0  0  0  0
    3.0000   -2.5981    0.0000 C   0  0  0  0  0  0  0  0  0  0  0  0
    1.5000   -2.5981    0.0000 N   0  0  0  0  0  0  0  0  0  0  0  0
    0.7500   -1.2990    0.0000 C   0  0  0  0  0  0  0  0  0  0  0  0
    1.5000    0.0000    0.0000 N   0  0  0  0  0  0  0  0  0  0  0  0
    0.7500    1.2990    0.0000 C   0  0  0  0  0  0  0  0  0  0  0  0
   -0.7500    1.2990    0.0000 N   0  0  0  0  0  0  0  0  0  0  0  0
   -1.5000    0.0000    0.0000 C   0  0  0  0  0  0  0  0  0  0  0  0
   -3.0000    0.0000    0.0000 C   0  0  0  0  0  0  0  0  0  0  0  0
   -3.7500   -1.2990    0.0000 C   0  0  0  0  0  0  0  0  0  0  0  0
   -5.2500   -1.2990    0.0000 N   0  0  0  0  0  0  0  0  0  0  0  0
   -6.0000    0.0000    0.0000 C   0  0  0  0  0  0  0  0  0  0  0  0
   -7.5000   -0.0000    0.0000 C   0  0  0  0  0  0  0  0  0  0  0  0
   -8.2500    1.2990    0.0000 C   0  0  0  0  0  0  0  0  0  0  0  0
   -9.7500    1.2990    0.0000 N   0  0  0  0  0  0  0  0  0  0  0  0
  -10.6317    0.0855    0.0000 C   0  0  0  0  0  0  0  0  0  0  0  0
  -12.0583    0.5490    0.0000 C   0  0  0  0  0  0  0  0  0  0  0  0
  -12.0583    2.0490    0.0000 N   0  0  0  0  0  0  0  0  0  0  0  0
  -10.6317    2.5126    0.0000 C   0  0  0  0  0  0  0  0  0  0  0  0
   -3.0000   -2.5981    0.0000 N   0  0  0  0  0  0  0  0  0  0  0  0
   -1.5000   -2.5981    0.0000 C   0  0  0  0  0  0  0  0  0  0  0  0
   -0.7500   -1.2990    0.0000 C   0  0  0  0  0  0  0  0  0  0  0  0
    3.7500   -1.2990    0.0000 C   0  0  0  0  0  0  0  0  0  0  0  0
  1  2  1  0
  2  3  2  0
  3  4  1  0
  4  5  2  0
  5  6  1  0
  6  7  1  0
  7  8  1  0
  8  9  2  0
  9 10  1  0
 10 11  2  0
 11 12  1  0
 12 13  2  0
 13 14  1  0
 14 15  1  0
 15 16  1  0
 16 17  1  0
 17 18  1  0
 18 19  1  0
 19 20  1  0
 20 21  2  0
 21 22  1  0
 22 23  2  0
 14 24  2  0
 24 25  1  0
 25 26  2  0
  6 27  2  0
 27  2  1  0
 26  8  1  0
 26 12  1  0
 23 19  1  0
M  END
>  <Compound_ID>  (71) 
CHEMBL126791

>  <Active>  (71) 
1.0

>  <Smiles>  (71) 
Brc1cccc(Nc2ncnc3cc(NCCCn4ccnc4)ncc23)c1

>  <canonical_smi>  (71) 
Brc1cccc(Nc2ncnc3cc(NCCCn4ccnc4)ncc23)c1

>  <Set>  (71) 
G2 active

>  <Set_type>  (71) 
Train

>  <MW>  (71) 
424.31

>  <HBD>  (71) 
2

>  <HBA>  (71) 
6

>  <NRB>  (71) 
7

>  <NR>  (71) 
4

>  <NAR>  (71) 
4

>  <PSA>  (71) 
80.55

>  <Standard Type>  (71) 
nan

>  <Standard Relation>  (71) 
nan

>  <Standard Units>  (71) 
nan

>  <Standard Value>  (71) 
nan

>  <Assay ChEMBL ID>  (71) 
nan

>  <Assay Description>  (71) 
nan

>  <BAO Label>  (71) 
nan

$$$$

     RDKit          2D

 31 34  0  0  0  0  0  0  0  0999 V2000
    0.7500   -6.4952    0.0000 C   0  0  0  0  0  0  0  0  0  0  0  0
    1.5000   -5.1962    0.0000 O   0  0  0  0  0  0  0  0  0  0  0  0
    0.7500   -3.8971    0.0000 C   0  0  0  0  0  0  0  0  0  0  0  0
    1.5000   -2.5981    0.0000 C   0  0  0  0  0  0  0  0  0  0  0  0
    0.7500   -1.2990    0.0000 C   0  0  0  0  0  0  0  0  0  0  0  0
    1.5000    0.0000    0.0000 N   0  0  0  0  0  0  0  0  0  0  0  0
    0.7500    1.2990    0.0000 C   0  0  0  0  0  0  0  0  0  0  0  0
   -0.7500    1.2990    0.0000 N   0  0  0  0  0  0  0  0  0  0  0  0
   -1.5000    0.0000    0.0000 C   0  0  0  0  0  0  0  0  0  0  0  0
   -3.0000    0.0000    0.0000 N   0  0  0  0  0  0  0  0  0  0  0  0
   -3.7500    1.2990    0.0000 C   0  0  0  0  0  0  0  0  0  0  0  0
   -3.0000    2.5981    0.0000 C   0  0  0  0  0  0  0  0  0  0  0  0
   -3.7500    3.8971    0.0000 C   0  0  0  0  0  0  0  0  0  0  0  0
   -5.2500    3.8971    0.0000 C   0  0  0  0  0  0  0  0  0  0  0  0
   -6.0000    5.1962    0.0000 F   0  0  0  0  0  0  0  0  0  0  0  0
   -6.0000    2.5981    0.0000 C   0  0  0  0  0  0  0  0  0  0  0  0
   -7.5000    2.5981    0.0000 Cl  0  0  0  0  0  0  0  0  0  0  0  0
   -5.2500    1.2990    0.0000 C   0  0  0  0  0  0  0  0  0  0  0  0
   -0.7500   -1.2990    0.0000 C   0  0  0  0  0  0  0  0  0  0  0  0
   -1.5000   -2.5981    0.0000 C   0  0  0  0  0  0  0  0  0  0  0  0
   -0.7500   -3.8971    0.0000 C   0  0  0  0  0  0  0  0  0  0  0  0
   -1.5000   -5.1962    0.0000 O   0  0  0  0  0  0  0  0  0  0  0  0
   -3.0000   -5.1962    0.0000 C   0  0  0  0  0  0  0  0  0  0  0  0
   -3.7500   -6.4952    0.0000 C   0  0  0  0  0  0  0  0  0  0  0  0
   -5.2500   -6.4952    0.0000 C   0  0  0  0  0  0  0  0  0  0  0  0
   -6.0000   -7.7942    0.0000 N   0  0  0  0  0  0  0  0  0  0  0  0
   -7.5000   -7.7942    0.0000 C   0  0  0  0  0  0  0  0  0  0  0  0
   -8.2500   -9.0933    0.0000 C   0  0  0  0  0  0  0  0  0  0  0  0
   -7.5000  -10.3923    0.0000 O   0  0  0  0  0  0  0  0  0  0  0  0
   -6.0000  -10.3923    0.0000 C   0  0  0  0  0  0  0  0  0  0  0  0
   -5.2500   -9.0933    0.0000 C   0  0  0  0  0  0  0  0  0  0  0  0
  1  2  1  0
  2  3  1  0
  3  4  2  0
  4  5  1  0
  5  6  2  0
  6  7  1  0
  7  8  2  0
  8  9  1  0
  9 10  1  0
 10 11  1  0
 11 12  2  0
 12 13  1  0
 13 14  2  0
 14 15  1  0
 14 16  1  0
 16 17  1  0
 16 18  2  0
  9 19  2  0
 19 20  1  0
 20 21  2  0
 21 22  1  0
 22 23  1  0
 23 24  1  0
 24 25  1  0
 25 26  1  0
 26 27  1  0
 27 28  1  0
 28 29  1  0
 29 30  1  0
 30 31  1  0
 21  3  1  0
 31 26  1  0
 19  5  1  0
 18 11  1  0
M  END
>  <Compound_ID>  (72) 
CHEMBL939

>  <Active>  (72) 
1.0

>  <Smiles>  (72) 
COc1cc2ncnc(Nc3ccc(F)c(Cl)c3)c2cc1OCCCN1CCOCC1

>  <canonical_smi>  (72) 
COc1cc2ncnc(Nc3ccc(F)c(Cl)c3)c2cc1OCCCN1CCOCC1

>  <Set>  (72) 
G2 active

>  <Set_type>  (72) 
Train

>  <MW>  (72) 
446.91

>  <HBD>  (72) 
1

>  <HBA>  (72) 
7

>  <NRB>  (72) 
8

>  <NR>  (72) 
4

>  <NAR>  (72) 
3

>  <PSA>  (72) 
68.74

>  <Standard Type>  (72) 
nan

>  <Standard Relation>  (72) 
nan

>  <Standard Units>  (72) 
nan

>  <Standard Value>  (72) 
nan

>  <Assay ChEMBL ID>  (72) 
nan

>  <Assay Description>  (72) 
nan

>  <BAO Label>  (72) 
nan

$$$$

     RDKit          2D

 34 37  0  0  0  0  0  0  0  0999 V2000
   -0.7500   -3.8971    0.0000 O   0  0  0  0  0  0  0  0  0  0  0  0
    0.7500   -3.8971    0.0000 C   0  0  0  0  0  0  0  0  0  0  0  0
    1.5000   -5.1962    0.0000 C   0  0  0  0  0  0  0  0  0  0  0  0
    0.7500   -6.4952    0.0000 C   0  0  0  0  0  0  0  0  0  0  0  0
    1.5000   -7.7942    0.0000 C   0  0  0  0  0  0  0  0  0  0  0  0
    3.0000   -7.7942    0.0000 O   0  0  0  0  0  0  0  0  0  0  0  0
    0.7500   -9.0933    0.0000 N   0  0  0  0  0  0  0  0  0  0  0  0
    1.5000  -10.3923    0.0000 C   0  0  0  0  0  0  0  0  0  0  0  0
    0.7500  -11.6913    0.0000 C   0  0  0  0  0  0  0  0  0  0  0  0
    1.5000  -12.9904    0.0000 C   0  0  0  0  0  0  0  0  0  0  0  0
    0.7500  -14.2894    0.0000 N   0  0  0  0  0  0  0  0  0  0  0  0
    1.3601  -15.6597    0.0000 C   0  0  0  0  0  0  0  0  0  0  0  0
    0.2454  -16.6634    0.0000 C   0  0  0  0  0  0  0  0  0  0  0  0
   -1.0537  -15.9134    0.0000 N   0  0  0  0  0  0  0  0  0  0  0  0
   -0.7418  -14.4462    0.0000 C   0  0  0  0  0  0  0  0  0  0  0  0
    1.5000   -2.5981    0.0000 C   0  0  0  0  0  0  0  0  0  0  0  0
    0.7500   -1.2990    0.0000 C   0  0  0  0  0  0  0  0  0  0  0  0
    1.5000    0.0000    0.0000 C   0  0  0  0  0  0  0  0  0  0  0  0
    0.7500    1.2990    0.0000 C   0  0  0  0  0  0  0  0  0  0  0  0
    1.5000    2.5981    0.0000 C   0  0  0  0  0  0  0  0  0  0  0  0
    3.0000    2.5981    0.0000 N   0  0  0  0  0  0  0  0  0  0  0  0
    3.7500    3.8971    0.0000 C   0  0  0  0  0  0  0  0  0  0  0  0
    5.2500    3.8971    0.0000 C   0  0  0  0  0  0  0  0  0  0  0  0
    6.0000    5.1962    0.0000 C   0  0  0  0  0  0  0  0  0  0  0  0
    5.2500    6.4952    0.0000 C   0  0  0  0  0  0  0  0  0  0  0  0
    3.7500    6.4952    0.0000 C   0  0  0  0  0  0  0  0  0  0  0  0
    3.0000    7.7942    0.0000 Br  0  0  0  0  0  0  0  0  0  0  0  0
    3.0000    5.1962    0.0000 C   0  0  0  0  0  0  0  0  0  0  0  0
    0.7500    3.8971    0.0000 N   0  0  0  0  0  0  0  0  0  0  0  0
   -0.7500    3.8971    0.0000 C   0  0  0  0  0  0  0  0  0  0  0  0
   -1.5000    2.5981    0.0000 N   0  0  0  0  0  0  0  0  0  0  0  0
   -0.7500    1.2990    0.0000 C   0  0  0  0  0  0  0  0  0  0  0  0
   -1.5000    0.0000    0.0000 C   0  0  0  0  0  0  0  0  0  0  0  0
   -0.7500   -1.2990    0.0000 N   0  0  0  0  0  0  0  0  0  0  0  0
  1  2  2  0
  2  3  1  0
  3  4  2  0
  4  5  1  0
  5  6  2  0
  5  7  1  0
  7  8  1  0
  8  9  1  0
  9 10  1  0
 10 11  1  0
 11 12  1  0
 12 13  2  0
 13 14  1  0
 14 15  2  0
  2 16  1  0
 16 17  1  0
 17 18  2  0
 18 19  1  0
 19 20  2  0
 20 21  1  0
 21 22  1  0
 22 23  2  0
 23 24  1  0
 24 25  2  0
 25 26  1  0
 26 27  1  0
 26 28  2  0
 20 29  1  0
 29 30  2  0
 30 31  1  0
 31 32  2  0
 32 33  1  0
 33 34  2  0
 15 11  1  0
 34 17  1  0
 32 19  1  0
 28 22  1  0
M  END
>  <Compound_ID>  (73) 
CHEMBL460723

>  <Active>  (73) 
1.0

>  <Smiles>  (73) 
O=C(/C=C/C(=O)NCCCn1ccnc1)Cc1cc2c(Nc3cccc(Br)c3)ncnc2cn1

>  <canonical_smi>  (73) 
O=C(/C=C/C(=O)NCCCn1ccnc1)Cc1cc2c(Nc3cccc(Br)c3)ncnc2cn1

>  <Set>  (73) 
G2 active

>  <Set_type>  (73) 
Train

>  <MW>  (73) 
520.39

>  <HBD>  (73) 
2

>  <HBA>  (73) 
7

>  <NRB>  (73) 
10

>  <NR>  (73) 
4

>  <NAR>  (73) 
4

>  <PSA>  (73) 
114.69

>  <Standard Type>  (73) 
nan

>  <Standard Relation>  (73) 
nan

>  <Standard Units>  (73) 
nan

>  <Standard Value>  (73) 
nan

>  <Assay ChEMBL ID>  (73) 
nan

>  <Assay Description>  (73) 
nan

>  <BAO Label>  (73) 
nan

$$$$

     RDKit          2D

 36 39  0  0  0  0  0  0  0  0999 V2000
    3.0000   -7.7942    0.0000 O   0  0  0  0  0  0  0  0  0  0  0  0
    1.5000   -7.7942    0.0000 C   0  0  0  0  0  0  0  0  0  0  0  0
    0.7500   -6.4952    0.0000 C   0  0  0  0  0  0  0  0  0  0  0  0
    1.5000   -5.1962    0.0000 C   0  0  0  0  0  0  0  0  0  0  0  0
    0.7500   -3.8971    0.0000 C   0  0  0  0  0  0  0  0  0  0  0  0
   -0.7500   -3.8971    0.0000 O   0  0  0  0  0  0  0  0  0  0  0  0
    1.5000   -2.5981    0.0000 N   0  0  0  0  0  0  0  0  0  0  0  0
    0.7500   -1.2990    0.0000 C   0  0  0  0  0  0  0  0  0  0  0  0
    1.5000    0.0000    0.0000 C   0  0  0  0  0  0  0  0  0  0  0  0
    0.7500    1.2990    0.0000 C   0  0  0  0  0  0  0  0  0  0  0  0
    1.5000    2.5981    0.0000 C   0  0  0  0  0  0  0  0  0  0  0  0
    3.0000    2.5981    0.0000 N   0  0  0  0  0  0  0  0  0  0  0  0
    3.7500    3.8971    0.0000 C   0  0  0  0  0  0  0  0  0  0  0  0
    5.2500    3.8971    0.0000 C   0  0  0  0  0  0  0  0  0  0  0  0
    6.0000    5.1962    0.0000 C   0  0  0  0  0  0  0  0  0  0  0  0
    5.2500    6.4952    0.0000 C   0  0  0  0  0  0  0  0  0  0  0  0
    6.0000    7.7942    0.0000 F   0  0  0  0  0  0  0  0  0  0  0  0
    3.7500    6.4952    0.0000 C   0  0  0  0  0  0  0  0  0  0  0  0
    3.0000    7.7942    0.0000 Cl  0  0  0  0  0  0  0  0  0  0  0  0
    3.0000    5.1962    0.0000 C   0  0  0  0  0  0  0  0  0  0  0  0
    0.7500    3.8971    0.0000 N   0  0  0  0  0  0  0  0  0  0  0  0
   -0.7500    3.8971    0.0000 C   0  0  0  0  0  0  0  0  0  0  0  0
   -1.5000    2.5981    0.0000 N   0  0  0  0  0  0  0  0  0  0  0  0
   -0.7500    1.2990    0.0000 C   0  0  0  0  0  0  0  0  0  0  0  0
   -1.5000    0.0000    0.0000 C   0  0  0  0  0  0  0  0  0  0  0  0
   -0.7500   -1.2990    0.0000 N   0  0  0  0  0  0  0  0  0  0  0  0
    0.7500   -9.0933    0.0000 N   0  0  0  0  0  0  0  0  0  0  0  0
    1.5000  -10.3923    0.0000 C   0  0  0  0  0  0  0  0  0  0  0  0
    0.7500  -11.6913    0.0000 C   0  0  0  0  0  0  0  0  0  0  0  0
    1.5000  -12.9904    0.0000 C   0  0  0  0  0  0  0  0  0  0  0  0
    0.7500  -14.2894    0.0000 N   0  0  0  0  0  0  0  0  0  0  0  0
   -0.7500  -14.2894    0.0000 C   0  0  0  0  0  0  0  0  0  0  0  0
   -1.5000  -15.5885    0.0000 C   0  0  0  0  0  0  0  0  0  0  0  0
   -0.7500  -16.8875    0.0000 O   0  0  0  0  0  0  0  0  0  0  0  0
    0.7500  -16.8875    0.0000 C   0  0  0  0  0  0  0  0  0  0  0  0
    1.5000  -15.5885    0.0000 C   0  0  0  0  0  0  0  0  0  0  0  0
  1  2  2  0
  2  3  1  0
  3  4  2  0
  4  5  1  0
  5  6  2  0
  5  7  1  0
  7  8  1  0
  8  9  2  0
  9 10  1  0
 10 11  2  0
 11 12  1  0
 12 13  1  0
 13 14  2  0
 14 15  1  0
 15 16  2  0
 16 17  1  0
 16 18  1  0
 18 19  1  0
 18 20  2  0
 11 21  1  0
 21 22  2  0
 22 23  1  0
 23 24  2  0
 24 25  1  0
 25 26  2  0
  2 27  1  0
 27 28  1  0
 28 29  1  0
 29 30  1  0
 30 31  1  0
 31 32  1  0
 32 33  1  0
 33 34  1  0
 34 35  1  0
 35 36  1  0
 26  8  1  0
 36 31  1  0
 24 10  1  0
 20 13  1  0
M  END
>  <Compound_ID>  (74) 
CHEMBL138940

>  <Active>  (74) 
1.0

>  <Smiles>  (74) 
O=C(/C=C/C(=O)Nc1cc2c(Nc3ccc(F)c(Cl)c3)ncnc2cn1)NCCCN1CCOCC1

>  <canonical_smi>  (74) 
O=C(/C=C/C(=O)Nc1cc2c(Nc3ccc(F)c(Cl)c3)ncnc2cn1)NCCCN1CCOCC1

>  <Set>  (74) 
G2 active

>  <Set_type>  (74) 
Train

>  <MW>  (74) 
513.96

>  <HBD>  (74) 
3

>  <HBA>  (74) 
8

>  <NRB>  (74) 
9

>  <NR>  (74) 
4

>  <NAR>  (74) 
3

>  <PSA>  (74) 
121.37

>  <Standard Type>  (74) 
nan

>  <Standard Relation>  (74) 
nan

>  <Standard Units>  (74) 
nan

>  <Standard Value>  (74) 
nan

>  <Assay ChEMBL ID>  (74) 
nan

>  <Assay Description>  (74) 
nan

>  <BAO Label>  (74) 
nan

$$$$

     RDKit          2D

 29 32  0  0  0  0  0  0  0  0999 V2000
    2.6491   -6.8300    0.0000 O   0  0  0  0  0  1  0  0  0  0  0  0
    1.5000   -7.7942    0.0000 N   0  0  0  0  0  4  0  0  0  0  0  0
    0.7500   -6.4952    0.0000 C   0  0  0  0  0  0  0  0  0  0  0  0
    1.5000   -5.1962    0.0000 C   0  0  0  0  0  0  0  0  0  0  0  0
    0.7500   -3.8971    0.0000 C   0  0  0  0  0  0  0  0  0  0  0  0
    1.5000   -2.5981    0.0000 N   0  0  0  0  0  0  0  0  0  0  0  0
    0.7500   -1.2990    0.0000 C   0  0  0  0  0  0  0  0  0  0  0  0
    1.5000    0.0000    0.0000 C   0  0  0  0  0  0  0  0  0  0  0  0
    0.7500    1.2990    0.0000 C   0  0  0  0  0  0  0  0  0  0  0  0
    1.5000    2.5981    0.0000 N   0  0  0  0  0  0  0  0  0  0  0  0
    0.7500    3.8971    0.0000 C   0  0  0  0  0  0  0  0  0  0  0  0
   -0.7500    3.8971    0.0000 N   0  0  0  0  0  0  0  0  0  0  0  0
   -1.5000    2.5981    0.0000 C   0  0  0  0  0  0  0  0  0  0  0  0
   -3.0000    2.5981    0.0000 N   0  0  0  0  0  0  0  0  0  0  0  0
   -3.7500    3.8971    0.0000 C   0  0  0  0  0  0  0  0  0  0  0  0
   -3.0000    5.1962    0.0000 C   0  0  0  0  0  0  0  0  0  0  0  0
   -3.7500    6.4952    0.0000 C   0  0  0  0  0  0  0  0  0  0  0  0
   -5.2500    6.4952    0.0000 C   0  0  0  0  0  0  0  0  0  0  0  0
   -6.0000    5.1962    0.0000 C   0  0  0  0  0  0  0  0  0  0  0  0
   -7.5000    5.1962    0.0000 Br  0  0  0  0  0  0  0  0  0  0  0  0
   -5.2500    3.8971    0.0000 C   0  0  0  0  0  0  0  0  0  0  0  0
   -0.7500    1.2990    0.0000 C   0  0  0  0  0  0  0  0  0  0  0  0
   -1.5000    0.0000    0.0000 C   0  0  0  0  0  0  0  0  0  0  0  0
   -0.7500   -1.2990    0.0000 N   0  0  0  0  0  0  0  0  0  0  0  0
    0.0905   -8.3073    0.0000 C   0  0  0  0  0  0  0  0  0  0  0  0
   -0.1700   -9.7845    0.0000 C   0  0  0  0  0  0  0  0  0  0  0  0
    0.9791  -10.7487    0.0000 O   0  0  0  0  0  0  0  0  0  0  0  0
    2.3886  -10.2356    0.0000 C   0  0  0  0  0  0  0  0  0  0  0  0
    2.6491   -8.7584    0.0000 C   0  0  0  0  0  0  0  0  0  0  0  0
  1  2  1  0
  2  3  1  0
  3  4  1  0
  4  5  1  0
  5  6  1  0
  6  7  1  0
  7  8  2  0
  8  9  1  0
  9 10  2  0
 10 11  1  0
 11 12  2  0
 12 13  1  0
 13 14  1  0
 14 15  1  0
 15 16  2  0
 16 17  1  0
 17 18  2  0
 18 19  1  0
 19 20  1  0
 19 21  2  0
 13 22  2  0
 22 23  1  0
 23 24  2  0
  2 25  1  0
 25 26  1  0
 26 27  1  0
 27 28  1  0
 28 29  1  0
 29  2  1  0
 24  7  1  0
 22  9  1  0
 21 15  1  0
M  CHG  2   1  -1   2   1
M  END
>  <Compound_ID>  (75) 
CHEMBL339416

>  <Active>  (75) 
1.0

>  <Smiles>  (75) 
[O-][N+]1(CCCNc2cc3ncnc(Nc4cccc(Br)c4)c3cn2)CCOCC1

>  <canonical_smi>  (75) 
[O-][N+]1(CCCNc2cc3ncnc(Nc4cccc(Br)c4)c3cn2)CCOCC1

>  <Set>  (75) 
G2 active

>  <Set_type>  (75) 
Train

>  <MW>  (75) 
459.35

>  <HBD>  (75) 
2

>  <HBA>  (75) 
7

>  <NRB>  (75) 
7

>  <NR>  (75) 
4

>  <NAR>  (75) 
3

>  <PSA>  (75) 
95.02

>  <Standard Type>  (75) 
nan

>  <Standard Relation>  (75) 
nan

>  <Standard Units>  (75) 
nan

>  <Standard Value>  (75) 
nan

>  <Assay ChEMBL ID>  (75) 
nan

>  <Assay Description>  (75) 
nan

>  <BAO Label>  (75) 
nan

$$$$

     RDKit          2D

 24 26  0  0  0  0  0  0  0  0999 V2000
    6.0000   -2.5981    0.0000 C   0  0  0  0  0  0  0  0  0  0  0  0
    5.2500   -1.2990    0.0000 C   0  0  0  0  0  0  0  0  0  0  0  0
    3.7500   -1.2990    0.0000 C   0  0  0  0  0  0  0  0  0  0  0  0
    3.0000   -2.5981    0.0000 O   0  0  0  0  0  0  0  0  0  0  0  0
    3.0000    0.0000    0.0000 N   0  0  0  0  0  0  0  0  0  0  0  0
    1.5000    0.0000    0.0000 C   0  0  0  0  0  0  0  0  0  0  0  0
    0.7500   -1.2990    0.0000 C   0  0  0  0  0  0  0  0  0  0  0  0
   -0.7500   -1.2990    0.0000 C   0  0  0  0  0  0  0  0  0  0  0  0
   -1.5000    0.0000    0.0000 C   0  0  0  0  0  0  0  0  0  0  0  0
   -3.0000    0.0000    0.0000 N   0  0  0  0  0  0  0  0  0  0  0  0
   -3.7500    1.2990    0.0000 C   0  0  0  0  0  0  0  0  0  0  0  0
   -3.0000    2.5981    0.0000 N   0  0  0  0  0  0  0  0  0  0  0  0
   -1.5000    2.5981    0.0000 C   0  0  0  0  0  0  0  0  0  0  0  0
   -0.7500    3.8971    0.0000 N   0  0  0  0  0  0  0  0  0  0  0  0
   -1.5000    5.1962    0.0000 C   0  0  0  0  0  0  0  0  0  0  0  0
   -0.7500    6.4952    0.0000 C   0  0  0  0  0  0  0  0  0  0  0  0
   -1.5000    7.7942    0.0000 C   0  0  0  0  0  0  0  0  0  0  0  0
   -3.0000    7.7942    0.0000 C   0  0  0  0  0  0  0  0  0  0  0  0
   -3.7500    9.0933    0.0000 F   0  0  0  0  0  0  0  0  0  0  0  0
   -3.7500    6.4952    0.0000 C   0  0  0  0  0  0  0  0  0  0  0  0
   -5.2500    6.4952    0.0000 Cl  0  0  0  0  0  0  0  0  0  0  0  0
   -3.0000    5.1962    0.0000 C   0  0  0  0  0  0  0  0  0  0  0  0
   -0.7500    1.2990    0.0000 C   0  0  0  0  0  0  0  0  0  0  0  0
    0.7500    1.2990    0.0000 N   0  0  0  0  0  0  0  0  0  0  0  0
  1  2  2  0
  2  3  1  0
  3  4  2  0
  3  5  1  0
  5  6  1  0
  6  7  2  0
  7  8  1  0
  8  9  2  0
  9 10  1  0
 10 11  2  0
 11 12  1  0
 12 13  2  0
 13 14  1  0
 14 15  1  0
 15 16  2  0
 16 17  1  0
 17 18  2  0
 18 19  1  0
 18 20  1  0
 20 21  1  0
 20 22  2  0
 13 23  1  0
 23 24  2  0
 24  6  1  0
 23  9  1  0
 22 15  1  0
M  END
>  <Compound_ID>  (76) 
CHEMBL28418

>  <Active>  (76) 
1.0

>  <Smiles>  (76) 
C=CC(=O)Nc1ccc2ncnc(Nc3ccc(F)c(Cl)c3)c2n1

>  <canonical_smi>  (76) 
C=CC(=O)Nc1ccc2ncnc(Nc3ccc(F)c(Cl)c3)c2n1

>  <Set>  (76) 
G2 active

>  <Set_type>  (76) 
Train

>  <MW>  (76) 
343.75

>  <HBD>  (76) 
2

>  <HBA>  (76) 
5

>  <NRB>  (76) 
4

>  <NR>  (76) 
3

>  <NAR>  (76) 
3

>  <PSA>  (76) 
79.8

>  <Standard Type>  (76) 
nan

>  <Standard Relation>  (76) 
nan

>  <Standard Units>  (76) 
nan

>  <Standard Value>  (76) 
nan

>  <Assay ChEMBL ID>  (76) 
nan

>  <Assay Description>  (76) 
nan

>  <BAO Label>  (76) 
nan

$$$$

     RDKit          2D

 24 26  0  0  0  0  0  0  0  0999 V2000
    6.0000   -2.5981    0.0000 C   0  0  0  0  0  0  0  0  0  0  0  0
    5.2500   -1.2990    0.0000 C   0  0  0  0  0  0  0  0  0  0  0  0
    3.7500   -1.2990    0.0000 C   0  0  0  0  0  0  0  0  0  0  0  0
    3.0000   -2.5981    0.0000 O   0  0  0  0  0  0  0  0  0  0  0  0
    3.0000    0.0000    0.0000 N   0  0  0  0  0  0  0  0  0  0  0  0
    1.5000    0.0000    0.0000 C   0  0  0  0  0  0  0  0  0  0  0  0
    0.7500   -1.2990    0.0000 C   0  0  0  0  0  0  0  0  0  0  0  0
   -0.7500   -1.2990    0.0000 C   0  0  0  0  0  0  0  0  0  0  0  0
   -1.5000    0.0000    0.0000 C   0  0  0  0  0  0  0  0  0  0  0  0
   -3.0000    0.0000    0.0000 N   0  0  0  0  0  0  0  0  0  0  0  0
   -3.7500    1.2990    0.0000 C   0  0  0  0  0  0  0  0  0  0  0  0
   -3.0000    2.5981    0.0000 N   0  0  0  0  0  0  0  0  0  0  0  0
   -1.5000    2.5981    0.0000 C   0  0  0  0  0  0  0  0  0  0  0  0
   -0.7500    3.8971    0.0000 C   0  0  0  0  0  0  0  0  0  0  0  0
   -1.5000    5.1962    0.0000 C   0  0  0  0  0  0  0  0  0  0  0  0
   -0.7500    6.4952    0.0000 C   0  0  0  0  0  0  0  0  0  0  0  0
   -1.5000    7.7942    0.0000 C   0  0  0  0  0  0  0  0  0  0  0  0
   -3.0000    7.7942    0.0000 C   0  0  0  0  0  0  0  0  0  0  0  0
   -3.7500    9.0933    0.0000 F   0  0  0  0  0  0  0  0  0  0  0  0
   -3.7500    6.4952    0.0000 C   0  0  0  0  0  0  0  0  0  0  0  0
   -5.2500    6.4952    0.0000 Cl  0  0  0  0  0  0  0  0  0  0  0  0
   -3.0000    5.1962    0.0000 C   0  0  0  0  0  0  0  0  0  0  0  0
   -0.7500    1.2990    0.0000 C   0  0  0  0  0  0  0  0  0  0  0  0
    0.7500    1.2990    0.0000 N   0  0  0  0  0  0  0  0  0  0  0  0
  1  2  2  0
  2  3  1  0
  3  4  2  0
  3  5  1  0
  5  6  1  0
  6  7  2  0
  7  8  1  0
  8  9  2  0
  9 10  1  0
 10 11  2  0
 11 12  1  0
 12 13  2  0
 13 14  1  0
 14 15  1  0
 15 16  2  0
 16 17  1  0
 17 18  2  0
 18 19  1  0
 18 20  1  0
 20 21  1  0
 20 22  2  0
 13 23  1  0
 23 24  2  0
 24  6  1  0
 23  9  1  0
 22 15  1  0
M  END
>  <Compound_ID>  (77) 
CHEMBL524117

>  <Active>  (77) 
1.0

>  <Smiles>  (77) 
C=CC(=O)Nc1ccc2ncnc(Cc3ccc(F)c(Cl)c3)c2n1

>  <canonical_smi>  (77) 
C=CC(=O)Nc1ccc2ncnc(Cc3ccc(F)c(Cl)c3)c2n1

>  <Set>  (77) 
G2 active

>  <Set_type>  (77) 
Train

>  <MW>  (77) 
342.76

>  <HBD>  (77) 
1

>  <HBA>  (77) 
4

>  <NRB>  (77) 
4

>  <NR>  (77) 
3

>  <NAR>  (77) 
3

>  <PSA>  (77) 
67.77

>  <Standard Type>  (77) 
nan

>  <Standard Relation>  (77) 
nan

>  <Standard Units>  (77) 
nan

>  <Standard Value>  (77) 
nan

>  <Assay ChEMBL ID>  (77) 
nan

>  <Assay Description>  (77) 
nan

>  <BAO Label>  (77) 
nan

$$$$

     RDKit          2D

 20 22  0  0  0  0  0  0  0  0999 V2000
    3.7500   -1.2990    0.0000 C   0  0  0  0  0  0  0  0  0  0  0  0
    3.0000    0.0000    0.0000 N   0  0  0  0  0  0  0  0  0  0  0  0
    1.5000    0.0000    0.0000 C   0  0  0  0  0  0  0  0  0  0  0  0
    0.7500   -1.2990    0.0000 N   0  0  0  0  0  0  0  0  0  0  0  0
   -0.7500   -1.2990    0.0000 C   0  0  0  0  0  0  0  0  0  0  0  0
   -1.5000    0.0000    0.0000 C   0  0  0  0  0  0  0  0  0  0  0  0
   -3.0000    0.0000    0.0000 N   0  0  0  0  0  0  0  0  0  0  0  0
   -3.7500    1.2990    0.0000 C   0  0  0  0  0  0  0  0  0  0  0  0
   -3.0000    2.5981    0.0000 N   0  0  0  0  0  0  0  0  0  0  0  0
   -1.5000    2.5981    0.0000 C   0  0  0  0  0  0  0  0  0  0  0  0
   -0.7500    3.8971    0.0000 N   0  0  0  0  0  0  0  0  0  0  0  0
   -1.5000    5.1962    0.0000 C   0  0  0  0  0  0  0  0  0  0  0  0
   -0.7500    6.4952    0.0000 C   0  0  0  0  0  0  0  0  0  0  0  0
   -1.5000    7.7942    0.0000 C   0  0  0  0  0  0  0  0  0  0  0  0
   -3.0000    7.7942    0.0000 C   0  0  0  0  0  0  0  0  0  0  0  0
   -3.7500    6.4952    0.0000 C   0  0  0  0  0  0  0  0  0  0  0  0
   -5.2500    6.4952    0.0000 Br  0  0  0  0  0  0  0  0  0  0  0  0
   -3.0000    5.1962    0.0000 C   0  0  0  0  0  0  0  0  0  0  0  0
   -0.7500    1.2990    0.0000 C   0  0  0  0  0  0  0  0  0  0  0  0
    0.7500    1.2990    0.0000 N   0  0  0  0  0  0  0  0  0  0  0  0
  1  2  1  0
  2  3  1  0
  3  4  2  0
  4  5  1  0
  5  6  2  0
  6  7  1  0
  7  8  2  0
  8  9  1  0
  9 10  2  0
 10 11  1  0
 11 12  1  0
 12 13  2  0
 13 14  1  0
 14 15  2  0
 15 16  1  0
 16 17  1  0
 16 18  2  0
 10 19  1  0
 19 20  2  0
 20  3  1  0
 19  6  1  0
 18 12  1  0
M  END
>  <Compound_ID>  (78) 
CHEMBL299622

>  <Active>  (78) 
1.0

>  <Smiles>  (78) 
CNc1ncc2ncnc(Nc3cccc(Br)c3)c2n1

>  <canonical_smi>  (78) 
CNc1ncc2ncnc(Nc3cccc(Br)c3)c2n1

>  <Set>  (78) 
G2 active

>  <Set_type>  (78) 
Train

>  <MW>  (78) 
331.18

>  <HBD>  (78) 
2

>  <HBA>  (78) 
6

>  <NRB>  (78) 
3

>  <NR>  (78) 
3

>  <NAR>  (78) 
3

>  <PSA>  (78) 
75.62

>  <Standard Type>  (78) 
nan

>  <Standard Relation>  (78) 
nan

>  <Standard Units>  (78) 
nan

>  <Standard Value>  (78) 
nan

>  <Assay ChEMBL ID>  (78) 
nan

>  <Assay Description>  (78) 
nan

>  <BAO Label>  (78) 
nan

$$$$

     RDKit          2D

 26 29  0  0  0  0  0  0  0  0999 V2000
    6.0000   -0.0000    0.0000 Br  0  0  0  0  0  0  0  0  0  0  0  0
    5.2500   -1.2990    0.0000 C   0  0  0  0  0  0  0  0  0  0  0  0
    6.0000   -2.5981    0.0000 C   0  0  0  0  0  0  0  0  0  0  0  0
    5.2500   -3.8971    0.0000 C   0  0  0  0  0  0  0  0  0  0  0  0
    3.7500   -3.8971    0.0000 C   0  0  0  0  0  0  0  0  0  0  0  0
    3.0000   -2.5981    0.0000 C   0  0  0  0  0  0  0  0  0  0  0  0
    1.5000   -2.5981    0.0000 N   0  0  0  0  0  0  0  0  0  0  0  0
    0.7500   -1.2990    0.0000 C   0  0  0  0  0  0  0  0  0  0  0  0
    1.5000    0.0000    0.0000 N   0  0  0  0  0  0  0  0  0  0  0  0
    0.7500    1.2990    0.0000 C   0  0  0  0  0  0  0  0  0  0  0  0
   -0.7500    1.2990    0.0000 N   0  0  0  0  0  0  0  0  0  0  0  0
   -1.5000    0.0000    0.0000 C   0  0  0  0  0  0  0  0  0  0  0  0
   -3.0000    0.0000    0.0000 C   0  0  0  0  0  0  0  0  0  0  0  0
   -3.7500   -1.2990    0.0000 N   0  0  0  0  0  0  0  0  0  0  0  0
   -3.0000   -2.5981    0.0000 C   0  0  0  0  0  0  0  0  0  0  0  0
   -3.7500   -3.8971    0.0000 N   0  0  0  0  0  0  0  0  0  0  0  0
   -5.2500   -3.8971    0.0000 C   0  0  0  0  0  0  0  0  0  0  0  0
   -6.0000   -5.1962    0.0000 C   0  0  0  0  0  0  0  0  0  0  0  0
   -7.5000   -5.1962    0.0000 C   0  0  0  0  0  0  0  0  0  0  0  0
   -8.3817   -6.4097    0.0000 C   0  0  0  0  0  0  0  0  0  0  0  0
   -9.8083   -5.9462    0.0000 N   0  0  0  0  0  0  0  0  0  0  0  0
   -9.8083   -4.4462    0.0000 C   0  0  0  0  0  0  0  0  0  0  0  0
   -8.3817   -3.9826    0.0000 N   0  0  0  0  0  0  0  0  0  0  0  0
   -1.5000   -2.5981    0.0000 C   0  0  0  0  0  0  0  0  0  0  0  0
   -0.7500   -1.2990    0.0000 C   0  0  0  0  0  0  0  0  0  0  0  0
    3.7500   -1.2990    0.0000 C   0  0  0  0  0  0  0  0  0  0  0  0
  1  2  1  0
  2  3  2  0
  3  4  1  0
  4  5  2  0
  5  6  1  0
  6  7  1  0
  7  8  1  0
  8  9  2  0
  9 10  1  0
 10 11  2  0
 11 12  1  0
 12 13  2  0
 13 14  1  0
 14 15  2  0
 15 16  1  0
 16 17  1  0
 17 18  1  0
 18 19  1  0
 19 20  2  0
 20 21  1  0
 21 22  1  0
 22 23  2  0
 15 24  1  0
 24 25  2  0
  6 26  2  0
 26  2  1  0
 25  8  1  0
 25 12  1  0
 23 19  1  0
M  END
>  <Compound_ID>  (79) 
CHEMBL162142

>  <Active>  (79) 
1.0

>  <Smiles>  (79) 
Brc1cccc(Nc2ncnc3cnc(NCCc4c[nH]cn4)cc23)c1

>  <canonical_smi>  (79) 
Brc1cccc(Nc2ncnc3cnc(NCCc4c[nH]cn4)cc23)c1

>  <Set>  (79) 
G2 active

>  <Set_type>  (79) 
Train

>  <MW>  (79) 
410.28

>  <HBD>  (79) 
3

>  <HBA>  (79) 
6

>  <NRB>  (79) 
6

>  <NR>  (79) 
4

>  <NAR>  (79) 
4

>  <PSA>  (79) 
91.41

>  <Standard Type>  (79) 
nan

>  <Standard Relation>  (79) 
nan

>  <Standard Units>  (79) 
nan

>  <Standard Value>  (79) 
nan

>  <Assay ChEMBL ID>  (79) 
nan

>  <Assay Description>  (79) 
nan

>  <BAO Label>  (79) 
nan

$$$$

     RDKit          2D

 35 38  0  0  0  0  0  0  0  0999 V2000
   -0.7500   -3.8971    0.0000 O   0  0  0  0  0  0  0  0  0  0  0  0
    0.7500   -3.8971    0.0000 C   0  0  0  0  0  0  0  0  0  0  0  0
    1.5000   -5.1962    0.0000 C   0  0  0  0  0  0  0  0  0  0  0  0
    0.7500   -6.4952    0.0000 C   0  0  0  0  0  0  0  0  0  0  0  0
    1.5000   -7.7942    0.0000 C   0  0  0  0  0  0  0  0  0  0  0  0
    3.0000   -7.7942    0.0000 O   0  0  0  0  0  0  0  0  0  0  0  0
    0.7500   -9.0933    0.0000 N   0  0  0  0  0  0  0  0  0  0  0  0
    1.5000  -10.3923    0.0000 C   0  0  0  0  0  0  0  0  0  0  0  0
    0.7500  -11.6913    0.0000 C   0  0  0  0  0  0  0  0  0  0  0  0
    1.5000  -12.9904    0.0000 C   0  0  0  0  0  0  0  0  0  0  0  0
    0.7500  -14.2894    0.0000 N   0  0  0  0  0  0  0  0  0  0  0  0
   -0.7500  -14.2894    0.0000 C   0  0  0  0  0  0  0  0  0  0  0  0
   -1.5000  -15.5885    0.0000 C   0  0  0  0  0  0  0  0  0  0  0  0
   -0.7500  -16.8875    0.0000 O   0  0  0  0  0  0  0  0  0  0  0  0
    0.7500  -16.8875    0.0000 C   0  0  0  0  0  0  0  0  0  0  0  0
    1.5000  -15.5885    0.0000 C   0  0  0  0  0  0  0  0  0  0  0  0
    1.5000   -2.5981    0.0000 C   0  0  0  0  0  0  0  0  0  0  0  0
    0.7500   -1.2990    0.0000 C   0  0  0  0  0  0  0  0  0  0  0  0
    1.5000    0.0000    0.0000 C   0  0  0  0  0  0  0  0  0  0  0  0
    0.7500    1.2990    0.0000 C   0  0  0  0  0  0  0  0  0  0  0  0
    1.5000    2.5981    0.0000 C   0  0  0  0  0  0  0  0  0  0  0  0
    3.0000    2.5981    0.0000 N   0  0  0  0  0  0  0  0  0  0  0  0
    3.7500    3.8971    0.0000 C   0  0  0  0  0  0  0  0  0  0  0  0
    5.2500    3.8971    0.0000 C   0  0  0  0  0  0  0  0  0  0  0  0
    6.0000    5.1962    0.0000 C   0  0  0  0  0  0  0  0  0  0  0  0
    5.2500    6.4952    0.0000 C   0  0  0  0  0  0  0  0  0  0  0  0
    3.7500    6.4952    0.0000 C   0  0  0  0  0  0  0  0  0  0  0  0
    3.0000    7.7942    0.0000 Br  0  0  0  0  0  0  0  0  0  0  0  0
    3.0000    5.1962    0.0000 C   0  0  0  0  0  0  0  0  0  0  0  0
    0.7500    3.8971    0.0000 N   0  0  0  0  0  0  0  0  0  0  0  0
   -0.7500    3.8971    0.0000 C   0  0  0  0  0  0  0  0  0  0  0  0
   -1.5000    2.5981    0.0000 N   0  0  0  0  0  0  0  0  0  0  0  0
   -0.7500    1.2990    0.0000 C   0  0  0  0  0  0  0  0  0  0  0  0
   -1.5000    0.0000    0.0000 C   0  0  0  0  0  0  0  0  0  0  0  0
   -0.7500   -1.2990    0.0000 N   0  0  0  0  0  0  0  0  0  0  0  0
  1  2  2  0
  2  3  1  0
  3  4  2  0
  4  5  1  0
  5  6  2  0
  5  7  1  0
  7  8  1  0
  8  9  1  0
  9 10  1  0
 10 11  1  0
 11 12  1  0
 12 13  1  0
 13 14  1  0
 14 15  1  0
 15 16  1  0
  2 17  1  0
 17 18  1  0
 18 19  2  0
 19 20  1  0
 20 21  2  0
 21 22  1  0
 22 23  1  0
 23 24  2  0
 24 25  1  0
 25 26  2  0
 26 27  1  0
 27 28  1  0
 27 29  2  0
 21 30  1  0
 30 31  2  0
 31 32  1  0
 32 33  2  0
 33 34  1  0
 34 35  2  0
 16 11  1  0
 35 18  1  0
 33 20  1  0
 29 23  1  0
M  END
>  <Compound_ID>  (80) 
CHEMBL460722

>  <Active>  (80) 
1.0

>  <Smiles>  (80) 
O=C(/C=C/C(=O)NCCCN1CCOCC1)Cc1cc2c(Nc3cccc(Br)c3)ncnc2cn1

>  <canonical_smi>  (80) 
O=C(/C=C/C(=O)NCCCN1CCOCC1)Cc1cc2c(Nc3cccc(Br)c3)ncnc2cn1

>  <Set>  (80) 
G2 active

>  <Set_type>  (80) 
Train

>  <MW>  (80) 
539.43

>  <HBD>  (80) 
2

>  <HBA>  (80) 
8

>  <NRB>  (80) 
10

>  <NR>  (80) 
4

>  <NAR>  (80) 
3

>  <PSA>  (80) 
109.34

>  <Standard Type>  (80) 
nan

>  <Standard Relation>  (80) 
nan

>  <Standard Units>  (80) 
nan

>  <Standard Value>  (80) 
nan

>  <Assay ChEMBL ID>  (80) 
nan

>  <Assay Description>  (80) 
nan

>  <BAO Label>  (80) 
nan

$$$$

     RDKit          2D

 26 29  0  0  0  0  0  0  0  0999 V2000
    6.0000   -0.0000    0.0000 Br  0  0  0  0  0  0  0  0  0  0  0  0
    5.2500   -1.2990    0.0000 C   0  0  0  0  0  0  0  0  0  0  0  0
    6.0000   -2.5981    0.0000 C   0  0  0  0  0  0  0  0  0  0  0  0
    5.2500   -3.8971    0.0000 C   0  0  0  0  0  0  0  0  0  0  0  0
    3.7500   -3.8971    0.0000 C   0  0  0  0  0  0  0  0  0  0  0  0
    3.0000   -2.5981    0.0000 C   0  0  0  0  0  0  0  0  0  0  0  0
    1.5000   -2.5981    0.0000 N   0  0  0  0  0  0  0  0  0  0  0  0
    0.7500   -1.2990    0.0000 C   0  0  0  0  0  0  0  0  0  0  0  0
    1.5000    0.0000    0.0000 N   0  0  0  0  0  0  0  0  0  0  0  0
    0.7500    1.2990    0.0000 C   0  0  0  0  0  0  0  0  0  0  0  0
   -0.7500    1.2990    0.0000 N   0  0  0  0  0  0  0  0  0  0  0  0
   -1.5000    0.0000    0.0000 C   0  0  0  0  0  0  0  0  0  0  0  0
   -3.0000    0.0000    0.0000 C   0  0  0  0  0  0  0  0  0  0  0  0
   -3.7500   -1.2990    0.0000 C   0  0  0  0  0  0  0  0  0  0  0  0
   -5.2500   -1.2990    0.0000 N   0  0  0  0  0  0  0  0  0  0  0  0
   -6.0000    0.0000    0.0000 C   0  0  0  0  0  0  0  0  0  0  0  0
   -7.5000   -0.0000    0.0000 C   0  0  0  0  0  0  0  0  0  0  0  0
   -8.2500    1.2990    0.0000 C   0  0  0  0  0  0  0  0  0  0  0  0
   -9.7418    1.4558    0.0000 C   0  0  0  0  0  0  0  0  0  0  0  0
  -10.0537    2.9231    0.0000 N   0  0  0  0  0  0  0  0  0  0  0  0
   -8.7546    3.6731    0.0000 C   0  0  0  0  0  0  0  0  0  0  0  0
   -7.6399    2.6694    0.0000 N   0  0  0  0  0  0  0  0  0  0  0  0
   -3.0000   -2.5981    0.0000 N   0  0  0  0  0  0  0  0  0  0  0  0
   -1.5000   -2.5981    0.0000 C   0  0  0  0  0  0  0  0  0  0  0  0
   -0.7500   -1.2990    0.0000 C   0  0  0  0  0  0  0  0  0  0  0  0
    3.7500   -1.2990    0.0000 C   0  0  0  0  0  0  0  0  0  0  0  0
  1  2  1  0
  2  3  2  0
  3  4  1  0
  4  5  2  0
  5  6  1  0
  6  7  1  0
  7  8  1  0
  8  9  2  0
  9 10  1  0
 10 11  2  0
 11 12  1  0
 12 13  2  0
 13 14  1  0
 14 15  1  0
 15 16  1  0
 16 17  1  0
 17 18  1  0
 18 19  2  0
 19 20  1  0
 20 21  1  0
 21 22  2  0
 14 23  2  0
 23 24  1  0
 24 25  2  0
  6 26  2  0
 26  2  1  0
 25  8  1  0
 25 12  1  0
 22 18  1  0
M  END
>  <Compound_ID>  (81) 
CHEMBL338114

>  <Active>  (81) 
1.0

>  <Smiles>  (81) 
Brc1cccc(Nc2ncnc3cc(NCCc4c[nH]cn4)ncc23)c1

>  <canonical_smi>  (81) 
Brc1cccc(Nc2ncnc3cc(NCCc4c[nH]cn4)ncc23)c1

>  <Set>  (81) 
G2 active

>  <Set_type>  (81) 
Train

>  <MW>  (81) 
410.28

>  <HBD>  (81) 
3

>  <HBA>  (81) 
6

>  <NRB>  (81) 
6

>  <NR>  (81) 
4

>  <NAR>  (81) 
4

>  <PSA>  (81) 
91.41

>  <Standard Type>  (81) 
nan

>  <Standard Relation>  (81) 
nan

>  <Standard Units>  (81) 
nan

>  <Standard Value>  (81) 
nan

>  <Assay ChEMBL ID>  (81) 
nan

>  <Assay Description>  (81) 
nan

>  <BAO Label>  (81) 
nan

$$$$

     RDKit          2D

 40 44  0  0  0  0  0  0  0  0999 V2000
   -1.3632  -12.1594    0.0000 C   0  0  0  0  0  0  0  0  0  0  0  0
   -1.2064  -10.6676    0.0000 S   0  0  0  0  0  0  0  0  0  0  0  0
    0.2854  -10.8244    0.0000 O   0  0  0  0  0  0  0  0  0  0  0  0
   -2.6982  -10.5109    0.0000 O   0  0  0  0  0  0  0  0  0  0  0  0
   -1.0496   -9.1759    0.0000 C   0  0  0  0  0  0  0  0  0  0  0  0
    0.3207   -8.5658    0.0000 C   0  0  0  0  0  0  0  0  0  0  0  0
    0.4775   -7.0740    0.0000 N   0  0  0  0  0  0  0  0  0  0  0  0
    1.8478   -6.4639    0.0000 C   0  0  0  0  0  0  0  0  0  0  0  0
    2.0046   -4.9721    0.0000 C   0  0  0  0  0  0  0  0  0  0  0  0
    3.3037   -4.2221    0.0000 C   0  0  0  0  0  0  0  0  0  0  0  0
    2.9918   -2.7549    0.0000 C   0  0  0  0  0  0  0  0  0  0  0  0
    1.5000   -2.5981    0.0000 C   0  0  0  0  0  0  0  0  0  0  0  0
    0.7500   -1.2990    0.0000 C   0  0  0  0  0  0  0  0  0  0  0  0
    1.5000    0.0000    0.0000 C   0  0  0  0  0  0  0  0  0  0  0  0
    0.7500    1.2990    0.0000 C   0  0  0  0  0  0  0  0  0  0  0  0
   -0.7500    1.2990    0.0000 C   0  0  0  0  0  0  0  0  0  0  0  0
   -1.5000    2.5981    0.0000 N   0  0  0  0  0  0  0  0  0  0  0  0
   -3.0000    2.5981    0.0000 C   0  0  0  0  0  0  0  0  0  0  0  0
   -3.7500    1.2990    0.0000 N   0  0  0  0  0  0  0  0  0  0  0  0
   -3.0000    0.0000    0.0000 C   0  0  0  0  0  0  0  0  0  0  0  0
   -3.7500   -1.2990    0.0000 N   0  0  0  0  0  0  0  0  0  0  0  0
   -5.2500   -1.2990    0.0000 C   0  0  0  0  0  0  0  0  0  0  0  0
   -6.0000    0.0000    0.0000 C   0  0  0  0  0  0  0  0  0  0  0  0
   -7.5000    0.0000    0.0000 C   0  0  0  0  0  0  0  0  0  0  0  0
   -8.2500   -1.2990    0.0000 C   0  0  0  0  0  0  0  0  0  0  0  0
   -9.7500   -1.2990    0.0000 O   0  0  0  0  0  0  0  0  0  0  0  0
  -10.5000    0.0000    0.0000 C   0  0  0  0  0  0  0  0  0  0  0  0
  -12.0000    0.0000    0.0000 C   0  0  0  0  0  0  0  0  0  0  0  0
  -12.7500    1.2990    0.0000 C   0  0  0  0  0  0  0  0  0  0  0  0
  -14.2500    1.2990    0.0000 C   0  0  0  0  0  0  0  0  0  0  0  0
  -15.0000    0.0000    0.0000 C   0  0  0  0  0  0  0  0  0  0  0  0
  -14.2500   -1.2990    0.0000 C   0  0  0  0  0  0  0  0  0  0  0  0
  -15.0000   -2.5981    0.0000 F   0  0  0  0  0  0  0  0  0  0  0  0
  -12.7500   -1.2990    0.0000 C   0  0  0  0  0  0  0  0  0  0  0  0
   -7.5000   -2.5981    0.0000 C   0  0  0  0  0  0  0  0  0  0  0  0
   -8.2500   -3.8971    0.0000 Cl  0  0  0  0  0  0  0  0  0  0  0  0
   -6.0000   -2.5981    0.0000 C   0  0  0  0  0  0  0  0  0  0  0  0
   -1.5000    0.0000    0.0000 C   0  0  0  0  0  0  0  0  0  0  0  0
   -0.7500   -1.2990    0.0000 C   0  0  0  0  0  0  0  0  0  0  0  0
    0.8899   -3.9684    0.0000 O   0  0  0  0  0  0  0  0  0  0  0  0
  1  2  1  0
  2  3  2  0
  2  4  2  0
  2  5  1  0
  5  6  1  0
  6  7  1  0
  7  8  1  0
  8  9  1  0
  9 10  2  0
 10 11  1  0
 11 12  2  0
 12 13  1  0
 13 14  2  0
 14 15  1  0
 15 16  2  0
 16 17  1  0
 17 18  2  0
 18 19  1  0
 19 20  2  0
 20 21  1  0
 21 22  1  0
 22 23  2  0
 23 24  1  0
 24 25  2  0
 25 26  1  0
 26 27  1  0
 27 28  1  0
 28 29  2  0
 29 30  1  0
 30 31  2  0
 31 32  1  0
 32 33  1  0
 32 34  2  0
 25 35  1  0
 35 36  1  0
 35 37  2  0
 20 38  1  0
 38 39  2  0
 12 40  1  0
 40  9  1  0
 39 13  1  0
 38 16  1  0
 37 22  1  0
 34 28  1  0
M  END
>  <Compound_ID>  (82) 
CHEMBL554

>  <Active>  (82) 
1.0

>  <Smiles>  (82) 
CS(=O)(=O)CCNCc1ccc(-c2ccc3ncnc(Nc4ccc(OCc5cccc(F)c5)c(Cl)c4)c3c2)o1

>  <canonical_smi>  (82) 
CS(=O)(=O)CCNCc1ccc(-c2ccc3ncnc(Nc4ccc(OCc5cccc(F)c5)c(Cl)c4)c3c2)o1

>  <Set>  (82) 
G2 active

>  <Set_type>  (82) 
Train

>  <MW>  (82) 
581.07

>  <HBD>  (82) 
2

>  <HBA>  (82) 
8

>  <NRB>  (82) 
11

>  <NR>  (82) 
5

>  <NAR>  (82) 
5

>  <PSA>  (82) 
106.35

>  <Standard Type>  (82) 
nan

>  <Standard Relation>  (82) 
nan

>  <Standard Units>  (82) 
nan

>  <Standard Value>  (82) 
nan

>  <Assay ChEMBL ID>  (82) 
nan

>  <Assay Description>  (82) 
nan

>  <BAO Label>  (82) 
nan

$$$$

     RDKit          2D

 30 34  0  0  0  0  0  0  0  0999 V2000
    3.7500   -1.2990    0.0000 C   0  0  0  0  0  0  0  0  0  0  0  0
    3.0000    0.0000    0.0000 N   0  0  0  0  0  0  0  0  0  0  0  0
    3.7500    1.2990    0.0000 C   0  0  0  0  0  0  0  0  0  0  0  0
    1.5000    0.0000    0.0000 C   0  0  0  0  0  0  0  0  0  0  0  0
    0.7500   -1.2990    0.0000 C   0  0  0  0  0  0  0  0  0  0  0  0
   -0.7500   -1.2990    0.0000 C   0  0  0  0  0  0  0  0  0  0  0  0
   -1.5000   -2.5981    0.0000 C   0  0  0  0  0  0  0  0  0  0  0  0
   -0.7500   -3.8971    0.0000 N   0  0  0  0  0  0  0  0  0  0  0  0
   -1.5000   -5.1962    0.0000 C   0  0  0  0  0  0  0  0  0  0  0  0
   -3.0000   -5.1962    0.0000 C   0  0  0  0  0  0  0  0  0  0  0  0
   -3.7500   -6.4952    0.0000 C   0  0  0  0  0  0  0  0  0  0  0  0
   -3.0000   -7.7942    0.0000 C   0  0  0  0  0  0  0  0  0  0  0  0
   -1.5000   -7.7942    0.0000 C   0  0  0  0  0  0  0  0  0  0  0  0
   -1.0365   -9.2208    0.0000 C   0  0  0  0  0  0  0  0  0  0  0  0
   -2.2500  -10.1025    0.0000 N   0  0  0  0  0  0  0  0  0  0  0  0
   -3.4635   -9.2208    0.0000 N   0  0  0  0  0  0  0  0  0  0  0  0
   -4.8901   -9.6843    0.0000 C   0  0  0  0  0  0  0  0  0  0  0  0
   -5.2020  -11.1516    0.0000 C   0  0  0  0  0  0  0  0  0  0  0  0
   -6.6286  -11.6151    0.0000 C   0  0  0  0  0  0  0  0  0  0  0  0
   -6.9404  -13.0823    0.0000 C   0  0  0  0  0  0  0  0  0  0  0  0
   -5.8257  -14.0860    0.0000 C   0  0  0  0  0  0  0  0  0  0  0  0
   -4.3991  -13.6225    0.0000 C   0  0  0  0  0  0  0  0  0  0  0  0
   -4.0873  -12.1553    0.0000 C   0  0  0  0  0  0  0  0  0  0  0  0
   -0.7500   -6.4952    0.0000 C   0  0  0  0  0  0  0  0  0  0  0  0
   -3.0000   -2.5981    0.0000 N   0  0  0  0  0  0  0  0  0  0  0  0
   -3.7500   -1.2990    0.0000 C   0  0  0  0  0  0  0  0  0  0  0  0
   -3.0000    0.0000    0.0000 N   0  0  0  0  0  0  0  0  0  0  0  0
   -1.5000    0.0000    0.0000 C   0  0  0  0  0  0  0  0  0  0  0  0
   -0.7500    1.2990    0.0000 C   0  0  0  0  0  0  0  0  0  0  0  0
    0.7500    1.2990    0.0000 N   0  0  0  0  0  0  0  0  0  0  0  0
  1  2  1  0
  2  3  1  0
  2  4  1  0
  4  5  2  0
  5  6  1  0
  6  7  2  0
  7  8  1  0
  8  9  1  0
  9 10  2  0
 10 11  1  0
 11 12  2  0
 12 13  1  0
 13 14  1  0
 14 15  2  0
 15 16  1  0
 16 17  1  0
 17 18  1  0
 18 19  2  0
 19 20  1  0
 20 21  2  0
 21 22  1  0
 22 23  2  0
 13 24  2  0
  7 25  1  0
 25 26  2  0
 26 27  1  0
 27 28  2  0
 28 29  1  0
 29 30  2  0
 30  4  1  0
 28  6  1  0
 24  9  1  0
 16 12  1  0
 23 18  1  0
M  END
>  <Compound_ID>  (83) 
CHEMBL30432

>  <Active>  (83) 
1.0

>  <Smiles>  (83) 
CN(C)c1cc2c(Nc3ccc4c(cnn4Cc4ccccc4)c3)ncnc2cn1

>  <canonical_smi>  (83) 
CN(C)c1cc2c(Nc3ccc4c(cnn4Cc4ccccc4)c3)ncnc2cn1

>  <Set>  (83) 
G2 active

>  <Set_type>  (83) 
Train

>  <MW>  (83) 
395.47

>  <HBD>  (83) 
1

>  <HBA>  (83) 
6

>  <NRB>  (83) 
5

>  <NR>  (83) 
5

>  <NAR>  (83) 
5

>  <PSA>  (83) 
71.76

>  <Standard Type>  (83) 
nan

>  <Standard Relation>  (83) 
nan

>  <Standard Units>  (83) 
nan

>  <Standard Value>  (83) 
nan

>  <Assay ChEMBL ID>  (83) 
nan

>  <Assay Description>  (83) 
nan

>  <BAO Label>  (83) 
nan

$$$$

     RDKit          2D

 25 28  0  0  0  0  0  0  0  0999 V2000
   -1.0344   -8.1310    0.0000 O   0  0  0  0  0  0  0  0  0  0  0  0
   -2.1491   -7.1273    0.0000 C   0  0  0  0  0  0  0  0  0  0  0  0
   -3.5757   -7.5908    0.0000 C   0  0  0  0  0  0  0  0  0  0  0  0
   -4.6904   -6.5871    0.0000 C   0  0  0  0  0  0  0  0  0  0  0  0
   -4.3786   -5.1199    0.0000 C   0  0  0  0  0  0  0  0  0  0  0  0
   -2.9520   -4.6564    0.0000 C   0  0  0  0  0  0  0  0  0  0  0  0
   -2.6401   -3.1891    0.0000 N   0  0  0  0  0  0  0  0  0  0  0  0
   -1.2135   -2.7256    0.0000 C   0  0  0  0  0  0  0  0  0  0  0  0
   -0.0000   -3.6073    0.0000 N   0  0  0  0  0  0  0  0  0  0  0  0
    1.2135   -2.7256    0.0000 N   0  0  0  0  0  0  0  0  0  0  0  0
    0.7500   -1.2990    0.0000 C   0  0  0  0  0  0  0  0  0  0  0  0
    1.5000    0.0000    0.0000 N   0  0  0  0  0  0  0  0  0  0  0  0
    0.7500    1.2990    0.0000 C   0  0  0  0  0  0  0  0  0  0  0  0
   -0.7500    1.2990    0.0000 N   0  0  0  0  0  0  0  0  0  0  0  0
   -1.5000    0.0000    0.0000 C   0  0  0  0  0  0  0  0  0  0  0  0
   -3.0000    0.0000    0.0000 N   0  0  0  0  0  0  0  0  0  0  0  0
   -3.7500    1.2990    0.0000 C   0  0  0  0  0  0  0  0  0  0  0  0
   -3.0000    2.5981    0.0000 C   0  0  0  0  0  0  0  0  0  0  0  0
   -3.7500    3.8971    0.0000 C   0  0  0  0  0  0  0  0  0  0  0  0
   -5.2500    3.8971    0.0000 C   0  0  0  0  0  0  0  0  0  0  0  0
   -6.0000    2.5981    0.0000 C   0  0  0  0  0  0  0  0  0  0  0  0
   -7.5000    2.5981    0.0000 Cl  0  0  0  0  0  0  0  0  0  0  0  0
   -5.2500    1.2990    0.0000 C   0  0  0  0  0  0  0  0  0  0  0  0
   -0.7500   -1.2990    0.0000 C   0  0  0  0  0  0  0  0  0  0  0  0
   -1.8373   -5.6601    0.0000 C   0  0  0  0  0  0  0  0  0  0  0  0
  1  2  1  0
  2  3  2  0
  3  4  1  0
  4  5  2  0
  5  6  1  0
  6  7  1  0
  7  8  1  0
  8  9  1  0
  9 10  1  0
 10 11  2  0
 11 12  1  0
 12 13  2  0
 13 14  1  0
 14 15  2  0
 15 16  1  0
 16 17  1  0
 17 18  2  0
 18 19  1  0
 19 20  2  0
 20 21  1  0
 21 22  1  0
 21 23  2  0
 15 24  1  0
  6 25  2  0
 25  2  1  0
 24  8  2  0
 24 11  1  0
 23 17  1  0
M  END
>  <Compound_ID>  (84) 
CHEMBL121954

>  <Active>  (84) 
1.0

>  <Smiles>  (84) 
Oc1cccc(Nc2[nH]nc3ncnc(Nc4cccc(Cl)c4)c23)c1

>  <canonical_smi>  (84) 
Oc1cccc(Nc2[nH]nc3ncnc(Nc4cccc(Cl)c4)c23)c1

>  <Set>  (84) 
G2 active

>  <Set_type>  (84) 
Train

>  <MW>  (84) 
352.79

>  <HBD>  (84) 
4

>  <HBA>  (84) 
6

>  <NRB>  (84) 
4

>  <NR>  (84) 
4

>  <NAR>  (84) 
4

>  <PSA>  (84) 
98.75

>  <Standard Type>  (84) 
nan

>  <Standard Relation>  (84) 
nan

>  <Standard Units>  (84) 
nan

>  <Standard Value>  (84) 
nan

>  <Assay ChEMBL ID>  (84) 
nan

>  <Assay Description>  (84) 
nan

>  <BAO Label>  (84) 
nan

$$$$

     RDKit          2D

 28 31  0  0  0  0  0  0  0  0999 V2000
    6.0000   -0.0000    0.0000 Br  0  0  0  0  0  0  0  0  0  0  0  0
    5.2500   -1.2990    0.0000 C   0  0  0  0  0  0  0  0  0  0  0  0
    6.0000   -2.5981    0.0000 C   0  0  0  0  0  0  0  0  0  0  0  0
    5.2500   -3.8971    0.0000 C   0  0  0  0  0  0  0  0  0  0  0  0
    3.7500   -3.8971    0.0000 C   0  0  0  0  0  0  0  0  0  0  0  0
    3.0000   -2.5981    0.0000 C   0  0  0  0  0  0  0  0  0  0  0  0
    1.5000   -2.5981    0.0000 N   0  0  0  0  0  0  0  0  0  0  0  0
    0.7500   -1.2990    0.0000 C   0  0  0  0  0  0  0  0  0  0  0  0
    1.5000    0.0000    0.0000 N   0  0  0  0  0  0  0  0  0  0  0  0
    0.7500    1.2990    0.0000 C   0  0  0  0  0  0  0  0  0  0  0  0
   -0.7500    1.2990    0.0000 N   0  0  0  0  0  0  0  0  0  0  0  0
   -1.5000    0.0000    0.0000 C   0  0  0  0  0  0  0  0  0  0  0  0
   -3.0000    0.0000    0.0000 C   0  0  0  0  0  0  0  0  0  0  0  0
   -3.7500   -1.2990    0.0000 N   0  0  0  0  0  0  0  0  0  0  0  0
   -3.0000   -2.5981    0.0000 C   0  0  0  0  0  0  0  0  0  0  0  0
   -3.7500   -3.8971    0.0000 N   0  0  0  0  0  0  0  0  0  0  0  0
   -5.2500   -3.8971    0.0000 C   0  0  0  0  0  0  0  0  0  0  0  0
   -6.0000   -5.1962    0.0000 C   0  0  0  0  0  0  0  0  0  0  0  0
   -7.5000   -5.1962    0.0000 C   0  0  0  0  0  0  0  0  0  0  0  0
   -8.2500   -6.4952    0.0000 N   0  0  0  0  0  0  0  0  0  0  0  0
   -9.7500   -6.4952    0.0000 C   0  0  0  0  0  0  0  0  0  0  0  0
  -10.5000   -7.7942    0.0000 C   0  0  0  0  0  0  0  0  0  0  0  0
   -9.7500   -9.0933    0.0000 O   0  0  0  0  0  0  0  0  0  0  0  0
   -8.2500   -9.0933    0.0000 C   0  0  0  0  0  0  0  0  0  0  0  0
   -7.5000   -7.7942    0.0000 C   0  0  0  0  0  0  0  0  0  0  0  0
   -1.5000   -2.5981    0.0000 C   0  0  0  0  0  0  0  0  0  0  0  0
   -0.7500   -1.2990    0.0000 C   0  0  0  0  0  0  0  0  0  0  0  0
    3.7500   -1.2990    0.0000 C   0  0  0  0  0  0  0  0  0  0  0  0
  1  2  1  0
  2  3  2  0
  3  4  1  0
  4  5  2  0
  5  6  1  0
  6  7  1  0
  7  8  1  0
  8  9  2  0
  9 10  1  0
 10 11  2  0
 11 12  1  0
 12 13  2  0
 13 14  1  0
 14 15  2  0
 15 16  1  0
 16 17  1  0
 17 18  1  0
 18 19  1  0
 19 20  1  0
 20 21  1  0
 21 22  1  0
 22 23  1  0
 23 24  1  0
 24 25  1  0
 15 26  1  0
 26 27  2  0
  6 28  2  0
 28  2  1  0
 27  8  1  0
 27 12  1  0
 25 20  1  0
M  END
>  <Compound_ID>  (85) 
CHEMBL165574

>  <Active>  (85) 
1.0

>  <Smiles>  (85) 
Brc1cccc(Nc2ncnc3cnc(NCCCN4CCOCC4)cc23)c1

>  <canonical_smi>  (85) 
Brc1cccc(Nc2ncnc3cnc(NCCCN4CCOCC4)cc23)c1

>  <Set>  (85) 
G2 active

>  <Set_type>  (85) 
Train

>  <MW>  (85) 
443.35

>  <HBD>  (85) 
2

>  <HBA>  (85) 
7

>  <NRB>  (85) 
7

>  <NR>  (85) 
4

>  <NAR>  (85) 
3

>  <PSA>  (85) 
75.2

>  <Standard Type>  (85) 
nan

>  <Standard Relation>  (85) 
nan

>  <Standard Units>  (85) 
nan

>  <Standard Value>  (85) 
nan

>  <Assay ChEMBL ID>  (85) 
nan

>  <Assay Description>  (85) 
nan

>  <BAO Label>  (85) 
nan

$$$$

     RDKit          2D

 27 31  0  0  0  0  0  0  0  0999 V2000
   -1.2990  -10.3573    0.0000 O   0  0  0  0  0  0  0  0  0  0  0  0
    0.0000   -9.6073    0.0000 C   0  0  0  0  0  0  0  0  0  0  0  0
    0.0000   -8.1073    0.0000 C   0  0  0  0  0  0  0  0  0  0  0  0
   -1.2990   -7.3573    0.0000 C   0  0  0  0  0  0  0  0  0  0  0  0
   -1.2990   -5.8573    0.0000 C   0  0  0  0  0  0  0  0  0  0  0  0
   -0.0000   -5.1073    0.0000 C   0  0  0  0  0  0  0  0  0  0  0  0
   -0.0000   -3.6073    0.0000 C   0  0  0  0  0  0  0  0  0  0  0  0
    1.2135   -2.7256    0.0000 C   0  0  0  0  0  0  0  0  0  0  0  0
    0.7500   -1.2990    0.0000 C   0  0  0  0  0  0  0  0  0  0  0  0
    1.5000    0.0000    0.0000 N   0  0  0  0  0  0  0  0  0  0  0  0
    0.7500    1.2990    0.0000 C   0  0  0  0  0  0  0  0  0  0  0  0
   -0.7500    1.2990    0.0000 N   0  0  0  0  0  0  0  0  0  0  0  0
   -1.5000    0.0000    0.0000 C   0  0  0  0  0  0  0  0  0  0  0  0
   -3.0000    0.0000    0.0000 N   0  0  0  0  0  0  0  0  0  0  0  0
   -3.7500    1.2990    0.0000 C   0  0  0  0  0  0  0  0  0  0  0  0
   -3.0000    2.5981    0.0000 C   0  0  0  0  0  0  0  0  0  0  0  0
   -3.7500    3.8971    0.0000 C   0  0  0  0  0  0  0  0  0  0  0  0
   -5.2500    3.8971    0.0000 C   0  0  0  0  0  0  0  0  0  0  0  0
   -6.2537    5.0118    0.0000 N   0  0  0  0  0  0  0  0  0  0  0  0
   -7.6240    4.4017    0.0000 C   0  0  0  0  0  0  0  0  0  0  0  0
   -7.4672    2.9099    0.0000 C   0  0  0  0  0  0  0  0  0  0  0  0
   -6.0000    2.5981    0.0000 C   0  0  0  0  0  0  0  0  0  0  0  0
   -5.2500    1.2990    0.0000 C   0  0  0  0  0  0  0  0  0  0  0  0
   -0.7500   -1.2990    0.0000 C   0  0  0  0  0  0  0  0  0  0  0  0
   -1.2135   -2.7256    0.0000 S   0  0  0  0  0  0  0  0  0  0  0  0
    1.2990   -5.8573    0.0000 C   0  0  0  0  0  0  0  0  0  0  0  0
    1.2990   -7.3573    0.0000 C   0  0  0  0  0  0  0  0  0  0  0  0
  1  2  1  0
  2  3  1  0
  3  4  2  0
  4  5  1  0
  5  6  2  0
  6  7  1  0
  7  8  2  0
  8  9  1  0
  9 10  2  0
 10 11  1  0
 11 12  2  0
 12 13  1  0
 13 14  1  0
 14 15  1  0
 15 16  2  0
 16 17  1  0
 17 18  2  0
 18 19  1  0
 19 20  1  0
 20 21  2  0
 21 22  1  0
 22 23  2  0
 13 24  2  0
 24 25  1  0
  6 26  1  0
 26 27  2  0
 27  3  1  0
 25  7  1  0
 24  9  1  0
 23 15  1  0
 22 18  1  0
M  END
>  <Compound_ID>  (86) 
CHEMBL312753

>  <Active>  (86) 
1.0

>  <Smiles>  (86) 
OCc1ccc(-c2cc3ncnc(Nc4ccc5[nH]ccc5c4)c3s2)cc1

>  <canonical_smi>  (86) 
OCc1ccc(-c2cc3ncnc(Nc4ccc5[nH]ccc5c4)c3s2)cc1

>  <Set>  (86) 
G2 active

>  <Set_type>  (86) 
Train

>  <MW>  (86) 
372.45

>  <HBD>  (86) 
3

>  <HBA>  (86) 
4

>  <NRB>  (86) 
4

>  <NR>  (86) 
5

>  <NAR>  (86) 
5

>  <PSA>  (86) 
73.83

>  <Standard Type>  (86) 
nan

>  <Standard Relation>  (86) 
nan

>  <Standard Units>  (86) 
nan

>  <Standard Value>  (86) 
nan

>  <Assay ChEMBL ID>  (86) 
nan

>  <Assay Description>  (86) 
nan

>  <BAO Label>  (86) 
nan

$$$$

     RDKit          2D

 34 39  0  0  0  0  0  0  0  0999 V2000
   -2.5981  -12.6073    0.0000 C   0  0  0  0  0  0  0  0  0  0  0  0
   -3.8971  -11.8573    0.0000 C   0  0  0  0  0  0  0  0  0  0  0  0
   -3.8971  -10.3573    0.0000 C   0  0  0  0  0  0  0  0  0  0  0  0
   -2.5981   -9.6073    0.0000 C   0  0  0  0  0  0  0  0  0  0  0  0
   -2.5981   -8.1073    0.0000 C   0  0  0  0  0  0  0  0  0  0  0  0
   -1.2990   -7.3573    0.0000 C   0  0  0  0  0  0  0  0  0  0  0  0
   -1.2990   -5.8573    0.0000 C   0  0  0  0  0  0  0  0  0  0  0  0
   -0.0000   -5.1073    0.0000 N   0  0  0  0  0  0  0  0  0  0  0  0
   -0.0000   -3.6073    0.0000 C   0  0  0  0  0  0  0  0  0  0  0  0
    1.2135   -2.7256    0.0000 C   0  0  0  0  0  0  0  0  0  0  0  0
    0.7500   -1.2990    0.0000 C   0  0  0  0  0  0  0  0  0  0  0  0
    1.5000    0.0000    0.0000 N   0  0  0  0  0  0  0  0  0  0  0  0
    0.7500    1.2990    0.0000 C   0  0  0  0  0  0  0  0  0  0  0  0
   -0.7500    1.2990    0.0000 N   0  0  0  0  0  0  0  0  0  0  0  0
   -1.5000    0.0000    0.0000 C   0  0  0  0  0  0  0  0  0  0  0  0
   -3.0000    0.0000    0.0000 N   0  0  0  0  0  0  0  0  0  0  0  0
   -3.7500    1.2990    0.0000 C   0  0  0  0  0  0  0  0  0  0  0  0
   -3.0000    2.5981    0.0000 C   0  0  0  0  0  0  0  0  0  0  0  0
   -3.7500    3.8971    0.0000 C   0  0  0  0  0  0  0  0  0  0  0  0
   -5.2500    3.8971    0.0000 C   0  0  0  0  0  0  0  0  0  0  0  0
   -6.2537    5.0118    0.0000 N   0  0  0  0  0  0  0  0  0  0  0  0
   -7.6240    4.4017    0.0000 C   0  0  0  0  0  0  0  0  0  0  0  0
   -7.4672    2.9099    0.0000 C   0  0  0  0  0  0  0  0  0  0  0  0
   -6.0000    2.5981    0.0000 C   0  0  0  0  0  0  0  0  0  0  0  0
   -5.2500    1.2990    0.0000 C   0  0  0  0  0  0  0  0  0  0  0  0
   -0.7500   -1.2990    0.0000 C   0  0  0  0  0  0  0  0  0  0  0  0
   -1.2135   -2.7256    0.0000 S   0  0  0  0  0  0  0  0  0  0  0  0
    1.2990   -5.8573    0.0000 N   0  0  0  0  0  0  0  0  0  0  0  0
    2.6694   -5.2472    0.0000 C   0  0  0  0  0  0  0  0  0  0  0  0
    3.6731   -6.3619    0.0000 C   0  0  0  0  0  0  0  0  0  0  0  0
    2.9231   -7.6610    0.0000 N   0  0  0  0  0  0  0  0  0  0  0  0
    1.4558   -7.3491    0.0000 C   0  0  0  0  0  0  0  0  0  0  0  0
   -1.2990  -10.3573    0.0000 C   0  0  0  0  0  0  0  0  0  0  0  0
   -1.2990  -11.8573    0.0000 C   0  0  0  0  0  0  0  0  0  0  0  0
  1  2  2  0
  2  3  1  0
  3  4  2  0
  4  5  1  0
  5  6  1  0
  6  7  1  0
  7  8  1  0
  8  9  1  0
  9 10  2  0
 10 11  1  0
 11 12  2  0
 12 13  1  0
 13 14  2  0
 14 15  1  0
 15 16  1  0
 16 17  1  0
 17 18  2  0
 18 19  1  0
 19 20  2  0
 20 21  1  0
 21 22  1  0
 22 23  2  0
 23 24  1  0
 24 25  2  0
 15 26  2  0
 26 27  1  0
  8 28  1  0
 28 29  1  0
 29 30  2  0
 30 31  1  0
 31 32  2  0
  4 33  1  0
 33 34  2  0
 34  1  1  0
 27  9  1  0
 32 28  1  0
 26 11  1  0
 25 17  1  0
 24 20  1  0
M  END
>  <Compound_ID>  (87) 
CHEMBL312818

>  <Active>  (87) 
1.0

>  <Smiles>  (87) 
c1ccc(CCCN(c2cc3ncnc(Nc4ccc5[nH]ccc5c4)c3s2)n2ccnc2)cc1

>  <canonical_smi>  (87) 
c1ccc(CCCN(c2cc3ncnc(Nc4ccc5[nH]ccc5c4)c3s2)n2ccnc2)cc1

>  <Set>  (87) 
G2 active

>  <Set_type>  (87) 
Train

>  <MW>  (87) 
465.59

>  <HBD>  (87) 
2

>  <HBA>  (87) 
5

>  <NRB>  (87) 
8

>  <NR>  (87) 
6

>  <NAR>  (87) 
6

>  <PSA>  (87) 
74.66

>  <Standard Type>  (87) 
nan

>  <Standard Relation>  (87) 
nan

>  <Standard Units>  (87) 
nan

>  <Standard Value>  (87) 
nan

>  <Assay ChEMBL ID>  (87) 
nan

>  <Assay Description>  (87) 
nan

>  <BAO Label>  (87) 
nan

$$$$

     RDKit          2D

 24 28  0  0  0  0  0  0  0  0999 V2000
   -0.7500   -7.4156    0.0000 C   0  0  0  0  0  0  0  0  0  0  0  0
    0.7500   -7.4156    0.0000 C   0  0  0  0  0  0  0  0  0  0  0  0
    1.2135   -5.9890    0.0000 S   0  0  0  0  0  0  0  0  0  0  0  0
   -0.0000   -5.1073    0.0000 C   0  0  0  0  0  0  0  0  0  0  0  0
   -0.0000   -3.6073    0.0000 C   0  0  0  0  0  0  0  0  0  0  0  0
    1.2135   -2.7256    0.0000 C   0  0  0  0  0  0  0  0  0  0  0  0
    0.7500   -1.2990    0.0000 C   0  0  0  0  0  0  0  0  0  0  0  0
    1.5000    0.0000    0.0000 N   0  0  0  0  0  0  0  0  0  0  0  0
    0.7500    1.2990    0.0000 C   0  0  0  0  0  0  0  0  0  0  0  0
   -0.7500    1.2990    0.0000 N   0  0  0  0  0  0  0  0  0  0  0  0
   -1.5000    0.0000    0.0000 C   0  0  0  0  0  0  0  0  0  0  0  0
   -3.0000    0.0000    0.0000 N   0  0  0  0  0  0  0  0  0  0  0  0
   -3.7500    1.2990    0.0000 C   0  0  0  0  0  0  0  0  0  0  0  0
   -3.0000    2.5981    0.0000 C   0  0  0  0  0  0  0  0  0  0  0  0
   -3.7500    3.8971    0.0000 C   0  0  0  0  0  0  0  0  0  0  0  0
   -5.2500    3.8971    0.0000 C   0  0  0  0  0  0  0  0  0  0  0  0
   -6.2537    5.0118    0.0000 N   0  0  0  0  0  0  0  0  0  0  0  0
   -7.6240    4.4017    0.0000 C   0  0  0  0  0  0  0  0  0  0  0  0
   -7.4672    2.9099    0.0000 C   0  0  0  0  0  0  0  0  0  0  0  0
   -6.0000    2.5981    0.0000 C   0  0  0  0  0  0  0  0  0  0  0  0
   -5.2500    1.2990    0.0000 C   0  0  0  0  0  0  0  0  0  0  0  0
   -0.7500   -1.2990    0.0000 C   0  0  0  0  0  0  0  0  0  0  0  0
   -1.2135   -2.7256    0.0000 S   0  0  0  0  0  0  0  0  0  0  0  0
   -1.2135   -5.9890    0.0000 C   0  0  0  0  0  0  0  0  0  0  0  0
  1  2  2  0
  2  3  1  0
  3  4  1  0
  4  5  1  0
  5  6  2  0
  6  7  1  0
  7  8  2  0
  8  9  1  0
  9 10  2  0
 10 11  1  0
 11 12  1  0
 12 13  1  0
 13 14  2  0
 14 15  1  0
 15 16  2  0
 16 17  1  0
 17 18  1  0
 18 19  2  0
 19 20  1  0
 20 21  2  0
 11 22  2  0
 22 23  1  0
  4 24  2  0
 24  1  1  0
 23  5  1  0
 22  7  1  0
 21 13  1  0
 20 16  1  0
M  END
>  <Compound_ID>  (88) 
CHEMBL76751

>  <Active>  (88) 
1.0

>  <Smiles>  (88) 
c1csc(-c2cc3ncnc(Nc4ccc5[nH]ccc5c4)c3s2)c1

>  <canonical_smi>  (88) 
c1csc(-c2cc3ncnc(Nc4ccc5[nH]ccc5c4)c3s2)c1

>  <Set>  (88) 
G2 active

>  <Set_type>  (88) 
Train

>  <MW>  (88) 
348.46

>  <HBD>  (88) 
2

>  <HBA>  (88) 
3

>  <NRB>  (88) 
3

>  <NR>  (88) 
5

>  <NAR>  (88) 
5

>  <PSA>  (88) 
53.6

>  <Standard Type>  (88) 
nan

>  <Standard Relation>  (88) 
nan

>  <Standard Units>  (88) 
nan

>  <Standard Value>  (88) 
nan

>  <Assay ChEMBL ID>  (88) 
nan

>  <Assay Description>  (88) 
nan

>  <BAO Label>  (88) 
nan

$$$$

     RDKit          2D

 34 39  0  0  0  0  0  0  0  0999 V2000
   -2.5981  -12.6073    0.0000 C   0  0  0  0  0  0  0  0  0  0  0  0
   -3.8971  -11.8573    0.0000 C   0  0  0  0  0  0  0  0  0  0  0  0
   -3.8971  -10.3573    0.0000 C   0  0  0  0  0  0  0  0  0  0  0  0
   -2.5981   -9.6073    0.0000 C   0  0  0  0  0  0  0  0  0  0  0  0
   -2.5981   -8.1073    0.0000 N   0  0  0  0  0  0  0  0  0  0  0  0
   -1.2990   -7.3573    0.0000 C   0  0  0  0  0  0  0  0  0  0  0  0
   -1.2990   -5.8573    0.0000 C   0  0  0  0  0  0  0  0  0  0  0  0
   -0.0000   -5.1073    0.0000 N   0  0  0  0  0  0  0  0  0  0  0  0
   -0.0000   -3.6073    0.0000 C   0  0  0  0  0  0  0  0  0  0  0  0
    1.2135   -2.7256    0.0000 C   0  0  0  0  0  0  0  0  0  0  0  0
    0.7500   -1.2990    0.0000 C   0  0  0  0  0  0  0  0  0  0  0  0
    1.5000    0.0000    0.0000 N   0  0  0  0  0  0  0  0  0  0  0  0
    0.7500    1.2990    0.0000 C   0  0  0  0  0  0  0  0  0  0  0  0
   -0.7500    1.2990    0.0000 N   0  0  0  0  0  0  0  0  0  0  0  0
   -1.5000    0.0000    0.0000 C   0  0  0  0  0  0  0  0  0  0  0  0
   -3.0000    0.0000    0.0000 N   0  0  0  0  0  0  0  0  0  0  0  0
   -3.7500    1.2990    0.0000 C   0  0  0  0  0  0  0  0  0  0  0  0
   -3.0000    2.5981    0.0000 C   0  0  0  0  0  0  0  0  0  0  0  0
   -3.7500    3.8971    0.0000 C   0  0  0  0  0  0  0  0  0  0  0  0
   -5.2500    3.8971    0.0000 C   0  0  0  0  0  0  0  0  0  0  0  0
   -6.2537    5.0118    0.0000 N   0  0  0  0  0  0  0  0  0  0  0  0
   -7.6240    4.4017    0.0000 C   0  0  0  0  0  0  0  0  0  0  0  0
   -7.4672    2.9099    0.0000 C   0  0  0  0  0  0  0  0  0  0  0  0
   -6.0000    2.5981    0.0000 C   0  0  0  0  0  0  0  0  0  0  0  0
   -5.2500    1.2990    0.0000 C   0  0  0  0  0  0  0  0  0  0  0  0
   -0.7500   -1.2990    0.0000 C   0  0  0  0  0  0  0  0  0  0  0  0
   -1.2135   -2.7256    0.0000 S   0  0  0  0  0  0  0  0  0  0  0  0
    1.2990   -5.8573    0.0000 N   0  0  0  0  0  0  0  0  0  0  0  0
    2.6694   -5.2472    0.0000 C   0  0  0  0  0  0  0  0  0  0  0  0
    3.6731   -6.3619    0.0000 C   0  0  0  0  0  0  0  0  0  0  0  0
    2.9231   -7.6610    0.0000 C   0  0  0  0  0  0  0  0  0  0  0  0
    1.4558   -7.3491    0.0000 C   0  0  0  0  0  0  0  0  0  0  0  0
   -1.2990  -10.3573    0.0000 C   0  0  0  0  0  0  0  0  0  0  0  0
   -1.2990  -11.8573    0.0000 C   0  0  0  0  0  0  0  0  0  0  0  0
  1  2  2  0
  2  3  1  0
  3  4  2  0
  4  5  1  0
  5  6  1  0
  6  7  1  0
  7  8  1  0
  8  9  1  0
  9 10  2  0
 10 11  1  0
 11 12  2  0
 12 13  1  0
 13 14  2  0
 14 15  1  0
 15 16  1  0
 16 17  1  0
 17 18  2  0
 18 19  1  0
 19 20  2  0
 20 21  1  0
 21 22  1  0
 22 23  2  0
 23 24  1  0
 24 25  2  0
 15 26  2  0
 26 27  1  0
  8 28  1  0
 28 29  1  0
 29 30  2  0
 30 31  1  0
 31 32  2  0
  4 33  1  0
 33 34  2  0
 34  1  1  0
 27  9  1  0
 32 28  1  0
 26 11  1  0
 25 17  1  0
 24 20  1  0
M  END
>  <Compound_ID>  (89) 
CHEMBL79215

>  <Active>  (89) 
1.0

>  <Smiles>  (89) 
c1ccc(NCCN(c2cc3ncnc(Nc4ccc5[nH]ccc5c4)c3s2)n2cccc2)cc1

>  <canonical_smi>  (89) 
c1ccc(NCCN(c2cc3ncnc(Nc4ccc5[nH]ccc5c4)c3s2)n2cccc2)cc1

>  <Set>  (89) 
G2 active

>  <Set_type>  (89) 
Train

>  <MW>  (89) 
465.59

>  <HBD>  (89) 
3

>  <HBA>  (89) 
5

>  <NRB>  (89) 
8

>  <NR>  (89) 
6

>  <NAR>  (89) 
6

>  <PSA>  (89) 
73.8

>  <Standard Type>  (89) 
nan

>  <Standard Relation>  (89) 
nan

>  <Standard Units>  (89) 
nan

>  <Standard Value>  (89) 
nan

>  <Assay ChEMBL ID>  (89) 
nan

>  <Assay Description>  (89) 
nan

>  <BAO Label>  (89) 
nan

$$$$

     RDKit          2D

 24 28  0  0  0  0  0  0  0  0999 V2000
   -0.7500   -7.4156    0.0000 C   0  0  0  0  0  0  0  0  0  0  0  0
    0.7500   -7.4156    0.0000 C   0  0  0  0  0  0  0  0  0  0  0  0
    1.2135   -5.9890    0.0000 S   0  0  0  0  0  0  0  0  0  0  0  0
   -0.0000   -5.1073    0.0000 C   0  0  0  0  0  0  0  0  0  0  0  0
   -0.0000   -3.6073    0.0000 C   0  0  0  0  0  0  0  0  0  0  0  0
    1.2135   -2.7256    0.0000 C   0  0  0  0  0  0  0  0  0  0  0  0
    0.7500   -1.2990    0.0000 C   0  0  0  0  0  0  0  0  0  0  0  0
    1.5000    0.0000    0.0000 N   0  0  0  0  0  0  0  0  0  0  0  0
    0.7500    1.2990    0.0000 C   0  0  0  0  0  0  0  0  0  0  0  0
   -0.7500    1.2990    0.0000 C   0  0  0  0  0  0  0  0  0  0  0  0
   -1.5000    0.0000    0.0000 C   0  0  0  0  0  0  0  0  0  0  0  0
   -3.0000    0.0000    0.0000 N   0  0  0  0  0  0  0  0  0  0  0  0
   -3.7500    1.2990    0.0000 C   0  0  0  0  0  0  0  0  0  0  0  0
   -3.0000    2.5981    0.0000 C   0  0  0  0  0  0  0  0  0  0  0  0
   -3.7500    3.8971    0.0000 C   0  0  0  0  0  0  0  0  0  0  0  0
   -5.2500    3.8971    0.0000 C   0  0  0  0  0  0  0  0  0  0  0  0
   -6.2537    5.0118    0.0000 N   0  0  0  0  0  0  0  0  0  0  0  0
   -7.6240    4.4017    0.0000 C   0  0  0  0  0  0  0  0  0  0  0  0
   -7.4672    2.9099    0.0000 C   0  0  0  0  0  0  0  0  0  0  0  0
   -6.0000    2.5981    0.0000 C   0  0  0  0  0  0  0  0  0  0  0  0
   -5.2500    1.2990    0.0000 C   0  0  0  0  0  0  0  0  0  0  0  0
   -0.7500   -1.2990    0.0000 C   0  0  0  0  0  0  0  0  0  0  0  0
   -1.2135   -2.7256    0.0000 S   0  0  0  0  0  0  0  0  0  0  0  0
   -1.2135   -5.9890    0.0000 C   0  0  0  0  0  0  0  0  0  0  0  0
  1  2  2  0
  2  3  1  0
  3  4  1  0
  4  5  1  0
  5  6  2  0
  6  7  1  0
  7  8  2  0
  8  9  1  0
  9 10  2  0
 10 11  1  0
 11 12  1  0
 12 13  1  0
 13 14  2  0
 14 15  1  0
 15 16  2  0
 16 17  1  0
 17 18  1  0
 18 19  2  0
 19 20  1  0
 20 21  2  0
 11 22  2  0
 22 23  1  0
  4 24  2  0
 24  1  1  0
 23  5  1  0
 22  7  1  0
 21 13  1  0
 20 16  1  0
M  END
>  <Compound_ID>  (90) 
CHEMBL310853

>  <Active>  (90) 
1.0

>  <Smiles>  (90) 
c1csc(-c2cc3nccc(Nc4ccc5[nH]ccc5c4)c3s2)c1

>  <canonical_smi>  (90) 
c1csc(-c2cc3nccc(Nc4ccc5[nH]ccc5c4)c3s2)c1

>  <Set>  (90) 
G2 active

>  <Set_type>  (90) 
Train

>  <MW>  (90) 
347.47

>  <HBD>  (90) 
2

>  <HBA>  (90) 
2

>  <NRB>  (90) 
3

>  <NR>  (90) 
5

>  <NAR>  (90) 
5

>  <PSA>  (90) 
40.71

>  <Standard Type>  (90) 
nan

>  <Standard Relation>  (90) 
nan

>  <Standard Units>  (90) 
nan

>  <Standard Value>  (90) 
nan

>  <Assay ChEMBL ID>  (90) 
nan

>  <Assay Description>  (90) 
nan

>  <BAO Label>  (90) 
nan

$$$$

     RDKit          2D

 36 40  0  0  0  0  0  0  0  0999 V2000
   -5.6260  -10.9888    0.0000 O   0  0  0  0  0  0  0  0  0  0  0  0
   -5.3142   -9.5216    0.0000 C   0  0  0  0  0  0  0  0  0  0  0  0
   -6.4289   -8.5179    0.0000 C   0  0  0  0  0  0  0  0  0  0  0  0
   -6.1170   -7.0506    0.0000 C   0  0  0  0  0  0  0  0  0  0  0  0
   -4.6904   -6.5871    0.0000 N   0  0  0  0  0  0  0  0  0  0  0  0
   -4.3786   -5.1199    0.0000 C   0  0  0  0  0  0  0  0  0  0  0  0
   -2.9520   -4.6564    0.0000 C   0  0  0  0  0  0  0  0  0  0  0  0
   -2.6401   -3.1891    0.0000 O   0  0  0  0  0  0  0  0  0  0  0  0
   -1.2135   -2.7256    0.0000 C   0  0  0  0  0  0  0  0  0  0  0  0
   -0.0000   -3.6073    0.0000 N   0  0  0  0  0  0  0  0  0  0  0  0
    1.2135   -2.7256    0.0000 N   0  0  0  0  0  0  0  0  0  0  0  0
    0.7500   -1.2990    0.0000 C   0  0  0  0  0  0  0  0  0  0  0  0
    1.5000    0.0000    0.0000 N   0  0  0  0  0  0  0  0  0  0  0  0
    0.7500    1.2990    0.0000 C   0  0  0  0  0  0  0  0  0  0  0  0
   -0.7500    1.2990    0.0000 N   0  0  0  0  0  0  0  0  0  0  0  0
   -1.5000    0.0000    0.0000 C   0  0  0  0  0  0  0  0  0  0  0  0
   -3.0000    0.0000    0.0000 N   0  0  0  0  0  0  0  0  0  0  0  0
   -3.7500    1.2990    0.0000 C   0  0  0  0  0  0  0  0  0  0  0  0
   -3.0000    2.5981    0.0000 C   0  0  0  0  0  0  0  0  0  0  0  0
   -3.7500    3.8971    0.0000 C   0  0  0  0  0  0  0  0  0  0  0  0
   -5.2500    3.8971    0.0000 C   0  0  0  0  0  0  0  0  0  0  0  0
   -6.0000    5.1962    0.0000 O   0  0  0  0  0  0  0  0  0  0  0  0
   -5.2500    6.4952    0.0000 C   0  0  0  0  0  0  0  0  0  0  0  0
   -6.0000    7.7942    0.0000 C   0  0  0  0  0  0  0  0  0  0  0  0
   -5.2500    9.0933    0.0000 C   0  0  0  0  0  0  0  0  0  0  0  0
   -6.0000   10.3923    0.0000 C   0  0  0  0  0  0  0  0  0  0  0  0
   -7.5000   10.3923    0.0000 C   0  0  0  0  0  0  0  0  0  0  0  0
   -8.2500    9.0933    0.0000 C   0  0  0  0  0  0  0  0  0  0  0  0
   -9.7500    9.0933    0.0000 F   0  0  0  0  0  0  0  0  0  0  0  0
   -7.5000    7.7942    0.0000 C   0  0  0  0  0  0  0  0  0  0  0  0
   -6.0000    2.5981    0.0000 C   0  0  0  0  0  0  0  0  0  0  0  0
   -7.5000    2.5981    0.0000 Cl  0  0  0  0  0  0  0  0  0  0  0  0
   -5.2500    1.2990    0.0000 C   0  0  0  0  0  0  0  0  0  0  0  0
   -0.7500   -1.2990    0.0000 C   0  0  0  0  0  0  0  0  0  0  0  0
   -3.5757   -7.5908    0.0000 C   0  0  0  0  0  0  0  0  0  0  0  0
   -3.8876   -9.0580    0.0000 C   0  0  0  0  0  0  0  0  0  0  0  0
  1  2  1  0
  2  3  1  0
  3  4  1  0
  4  5  1  0
  5  6  1  0
  6  7  1  0
  7  8  1  0
  8  9  1  0
  9 10  2  0
 10 11  1  0
 11 12  1  0
 12 13  2  0
 13 14  1  0
 14 15  2  0
 15 16  1  0
 16 17  1  0
 17 18  1  0
 18 19  2  0
 19 20  1  0
 20 21  2  0
 21 22  1  0
 22 23  1  0
 23 24  1  0
 24 25  2  0
 25 26  1  0
 26 27  2  0
 27 28  1  0
 28 29  1  0
 28 30  2  0
 21 31  1  0
 31 32  1  0
 31 33  2  0
 16 34  2  0
  5 35  1  0
 35 36  1  0
 36  2  1  0
 34  9  1  0
 34 12  1  0
 33 18  1  0
 30 24  1  0
M  END
>  <Compound_ID>  (91) 
CHEMBL255376

>  <Active>  (91) 
1.0

>  <Smiles>  (91) 
OC1CCN(CCOc2n[nH]c3ncnc(Nc4ccc(OCc5cccc(F)c5)c(Cl)c4)c23)CC1

>  <canonical_smi>  (91) 
OC1CCN(CCOc2n[nH]c3ncnc(Nc4ccc(OCc5cccc(F)c5)c(Cl)c4)c23)CC1

>  <Set>  (91) 
G2 active

>  <Set_type>  (91) 
Train

>  <MW>  (91) 
512.97

>  <HBD>  (91) 
3

>  <HBA>  (91) 
8

>  <NRB>  (91) 
9

>  <NR>  (91) 
5

>  <NAR>  (91) 
4

>  <PSA>  (91) 
108.42

>  <Standard Type>  (91) 
nan

>  <Standard Relation>  (91) 
nan

>  <Standard Units>  (91) 
nan

>  <Standard Value>  (91) 
nan

>  <Assay ChEMBL ID>  (91) 
nan

>  <Assay Description>  (91) 
nan

>  <BAO Label>  (91) 
nan

$$$$

     RDKit          2D

 35 39  0  0  0  0  0  0  0  0999 V2000
    6.0000   -5.1962    0.0000 Cl  0  0  0  0  0  0  0  0  0  0  0  0
    5.2500   -3.8971    0.0000 C   0  0  0  0  0  0  0  0  0  0  0  0
    3.7500   -3.8971    0.0000 C   0  0  0  0  0  0  0  0  0  0  0  0
    3.0000   -2.5981    0.0000 C   0  0  0  0  0  0  0  0  0  0  0  0
    1.5000   -2.5981    0.0000 N   0  0  0  0  0  0  0  0  0  0  0  0
    0.7500   -1.2990    0.0000 C   0  0  0  0  0  0  0  0  0  0  0  0
    1.5000    0.0000    0.0000 N   0  0  0  0  0  0  0  0  0  0  0  0
    0.7500    1.2990    0.0000 C   0  0  0  0  0  0  0  0  0  0  0  0
   -0.7500    1.2990    0.0000 N   0  0  0  0  0  0  0  0  0  0  0  0
   -1.5000    0.0000    0.0000 C   0  0  0  0  0  0  0  0  0  0  0  0
   -2.9672   -0.3119    0.0000 N   0  0  0  0  0  0  0  0  0  0  0  0
   -3.1240   -1.8037    0.0000 N   0  0  0  0  0  0  0  0  0  0  0  0
   -1.7537   -2.4138    0.0000 C   0  0  0  0  0  0  0  0  0  0  0  0
   -1.4418   -3.8810    0.0000 O   0  0  0  0  0  0  0  0  0  0  0  0
   -2.5565   -4.8847    0.0000 C   0  0  0  0  0  0  0  0  0  0  0  0
   -2.2447   -6.3519    0.0000 C   0  0  0  0  0  0  0  0  0  0  0  0
   -3.3594   -7.3556    0.0000 N   0  0  0  0  0  0  0  0  0  0  0  0
   -2.9388   -8.7954    0.0000 C   0  0  0  0  0  0  0  0  0  0  0  0
   -3.8022  -10.0220    0.0000 C   0  0  0  0  0  0  0  0  0  0  0  0
   -5.2995  -10.1117    0.0000 C   0  0  0  0  0  0  0  0  0  0  0  0
   -6.3032   -8.9970    0.0000 C   0  0  0  0  0  0  0  0  0  0  0  0
   -6.0575   -7.5172    0.0000 C   0  0  0  0  0  0  0  0  0  0  0  0
   -4.7474   -6.7868    0.0000 O   0  0  0  0  0  0  0  0  0  0  0  0
   -0.7500   -1.2990    0.0000 C   0  0  0  0  0  0  0  0  0  0  0  0
    3.7500   -1.2990    0.0000 C   0  0  0  0  0  0  0  0  0  0  0  0
    5.2500   -1.2990    0.0000 C   0  0  0  0  0  0  0  0  0  0  0  0
    6.0000   -2.5981    0.0000 C   0  0  0  0  0  0  0  0  0  0  0  0
    7.5000   -2.5981    0.0000 O   0  0  0  0  0  0  0  0  0  0  0  0
    8.2500   -1.2990    0.0000 C   0  0  0  0  0  0  0  0  0  0  0  0
    9.7500   -1.2990    0.0000 C   0  0  0  0  0  0  0  0  0  0  0  0
   10.5000   -2.5981    0.0000 C   0  0  0  0  0  0  0  0  0  0  0  0
   12.0000   -2.5981    0.0000 C   0  0  0  0  0  0  0  0  0  0  0  0
   12.7500   -1.2990    0.0000 C   0  0  0  0  0  0  0  0  0  0  0  0
   12.0000   -0.0000    0.0000 C   0  0  0  0  0  0  0  0  0  0  0  0
   10.5000   -0.0000    0.0000 N   0  0  0  0  0  0  0  0  0  0  0  0
  1  2  1  0
  2  3  2  0
  3  4  1  0
  4  5  1  0
  5  6  1  0
  6  7  2  0
  7  8  1  0
  8  9  2  0
  9 10  1  0
 10 11  1  0
 11 12  1  0
 12 13  2  0
 13 14  1  0
 14 15  1  0
 15 16  1  0
 16 17  1  0
 17 18  1  0
 18 19  1  0
 19 20  1  0
 20 21  1  0
 21 22  1  0
 22 23  1  0
 13 24  1  0
  4 25  2  0
 25 26  1  0
 26 27  2  0
 27 28  1  0
 28 29  1  0
 29 30  1  0
 30 31  2  0
 31 32  1  0
 32 33  2  0
 33 34  1  0
 34 35  2  0
 27  2  1  0
 35 30  1  0
 24  6  1  0
 24 10  2  0
 23 17  1  0
M  END
>  <Compound_ID>  (92) 
CHEMBL270448

>  <Active>  (92) 
1.0

>  <Smiles>  (92) 
Clc1cc(Nc2ncnc3[nH]nc(OCCN4CCCCCO4)c23)ccc1OCc1ccccn1

>  <canonical_smi>  (92) 
Clc1cc(Nc2ncnc3[nH]nc(OCCN4CCCCCO4)c23)ccc1OCc1ccccn1

>  <Set>  (92) 
G2 active

>  <Set_type>  (92) 
Train

>  <MW>  (92) 
495.97

>  <HBD>  (92) 
2

>  <HBA>  (92) 
9

>  <NRB>  (92) 
9

>  <NR>  (92) 
5

>  <NAR>  (92) 
4

>  <PSA>  (92) 
110.31

>  <Standard Type>  (92) 
nan

>  <Standard Relation>  (92) 
nan

>  <Standard Units>  (92) 
nan

>  <Standard Value>  (92) 
nan

>  <Assay ChEMBL ID>  (92) 
nan

>  <Assay Description>  (92) 
nan

>  <BAO Label>  (92) 
nan

$$$$

     RDKit          2D

 39 43  0  0  0  0  0  0  0  0999 V2000
   -7.2603  -11.9561    0.0000 C   0  0  0  0  0  0  0  0  0  0  0  0
   -6.3786  -10.7426    0.0000 S   0  0  0  0  0  0  0  0  0  0  0  0
   -5.1651  -11.6242    0.0000 O   0  0  0  0  0  0  0  0  0  0  0  0
   -7.5921   -9.8609    0.0000 O   0  0  0  0  0  0  0  0  0  0  0  0
   -5.4969   -9.5290    0.0000 C   0  0  0  0  0  0  0  0  0  0  0  0
   -4.0051   -9.6858    0.0000 C   0  0  0  0  0  0  0  0  0  0  0  0
   -3.1235   -8.4723    0.0000 N   0  0  0  0  0  0  0  0  0  0  0  0
   -1.6317   -8.6291    0.0000 C   0  0  0  0  0  0  0  0  0  0  0  0
   -0.7500   -7.4156    0.0000 C   0  0  0  0  0  0  0  0  0  0  0  0
    0.7500   -7.4156    0.0000 C   0  0  0  0  0  0  0  0  0  0  0  0
    1.2135   -5.9890    0.0000 C   0  0  0  0  0  0  0  0  0  0  0  0
   -0.0000   -5.1073    0.0000 C   0  0  0  0  0  0  0  0  0  0  0  0
   -0.0000   -3.6073    0.0000 C   0  0  0  0  0  0  0  0  0  0  0  0
    1.2135   -2.7256    0.0000 C   0  0  0  0  0  0  0  0  0  0  0  0
    0.7500   -1.2990    0.0000 C   0  0  0  0  0  0  0  0  0  0  0  0
    1.5000    0.0000    0.0000 N   0  0  0  0  0  0  0  0  0  0  0  0
    0.7500    1.2990    0.0000 C   0  0  0  0  0  0  0  0  0  0  0  0
   -0.7500    1.2990    0.0000 N   0  0  0  0  0  0  0  0  0  0  0  0
   -1.5000    0.0000    0.0000 C   0  0  0  0  0  0  0  0  0  0  0  0
   -3.0000    0.0000    0.0000 N   0  0  0  0  0  0  0  0  0  0  0  0
   -3.7500    1.2990    0.0000 C   0  0  0  0  0  0  0  0  0  0  0  0
   -3.0000    2.5981    0.0000 C   0  0  0  0  0  0  0  0  0  0  0  0
   -3.7500    3.8971    0.0000 C   0  0  0  0  0  0  0  0  0  0  0  0
   -5.2500    3.8971    0.0000 C   0  0  0  0  0  0  0  0  0  0  0  0
   -6.0000    5.1962    0.0000 O   0  0  0  0  0  0  0  0  0  0  0  0
   -5.2500    6.4952    0.0000 C   0  0  0  0  0  0  0  0  0  0  0  0
   -6.0000    7.7942    0.0000 C   0  0  0  0  0  0  0  0  0  0  0  0
   -5.2500    9.0933    0.0000 C   0  0  0  0  0  0  0  0  0  0  0  0
   -6.0000   10.3923    0.0000 C   0  0  0  0  0  0  0  0  0  0  0  0
   -7.5000   10.3923    0.0000 C   0  0  0  0  0  0  0  0  0  0  0  0
   -8.2500    9.0933    0.0000 C   0  0  0  0  0  0  0  0  0  0  0  0
   -9.7500    9.0933    0.0000 F   0  0  0  0  0  0  0  0  0  0  0  0
   -7.5000    7.7942    0.0000 C   0  0  0  0  0  0  0  0  0  0  0  0
   -6.0000    2.5981    0.0000 C   0  0  0  0  0  0  0  0  0  0  0  0
   -7.5000    2.5981    0.0000 Cl  0  0  0  0  0  0  0  0  0  0  0  0
   -5.2500    1.2990    0.0000 C   0  0  0  0  0  0  0  0  0  0  0  0
   -0.7500   -1.2990    0.0000 C   0  0  0  0  0  0  0  0  0  0  0  0
   -1.2135   -2.7256    0.0000 S   0  0  0  0  0  0  0  0  0  0  0  0
   -1.2135   -5.9890    0.0000 O   0  0  0  0  0  0  0  0  0  0  0  0
  1  2  1  0
  2  3  2  0
  2  4  2  0
  2  5  1  0
  5  6  1  0
  6  7  1  0
  7  8  1  0
  8  9  1  0
  9 10  2  0
 10 11  1  0
 11 12  2  0
 12 13  1  0
 13 14  2  0
 14 15  1  0
 15 16  2  0
 16 17  1  0
 17 18  2  0
 18 19  1  0
 19 20  1  0
 20 21  1  0
 21 22  2  0
 22 23  1  0
 23 24  2  0
 24 25  1  0
 25 26  1  0
 26 27  1  0
 27 28  2  0
 28 29  1  0
 29 30  2  0
 30 31  1  0
 31 32  1  0
 31 33  2  0
 24 34  1  0
 34 35  1  0
 34 36  2  0
 19 37  2  0
 37 38  1  0
 12 39  1  0
 39  9  1  0
 38 13  1  0
 37 15  1  0
 36 21  1  0
 33 27  1  0
M  END
>  <Compound_ID>  (93) 
CHEMBL475768

>  <Active>  (93) 
1.0

>  <Smiles>  (93) 
CS(=O)(=O)CCNCc1ccc(-c2cc3ncnc(Nc4ccc(OCc5cccc(F)c5)c(Cl)c4)c3s2)o1

>  <canonical_smi>  (93) 
CS(=O)(=O)CCNCc1ccc(-c2cc3ncnc(Nc4ccc(OCc5cccc(F)c5)c(Cl)c4)c3s2)o1

>  <Set>  (93) 
G2 active

>  <Set_type>  (93) 
Train

>  <MW>  (93) 
587.1

>  <HBD>  (93) 
2

>  <HBA>  (93) 
8

>  <NRB>  (93) 
11

>  <NR>  (93) 
5

>  <NAR>  (93) 
5

>  <PSA>  (93) 
106.35

>  <Standard Type>  (93) 
nan

>  <Standard Relation>  (93) 
nan

>  <Standard Units>  (93) 
nan

>  <Standard Value>  (93) 
nan

>  <Assay ChEMBL ID>  (93) 
nan

>  <Assay Description>  (93) 
nan

>  <BAO Label>  (93) 
nan

$$$$

     RDKit          2D

 32 35  0  0  0  0  0  0  0  0999 V2000
    0.7500   -6.4952    0.0000 C   0  0  0  0  0  0  0  0  0  0  0  0
    1.5000   -5.1962    0.0000 O   0  0  0  0  0  0  0  0  0  0  0  0
    0.7500   -3.8971    0.0000 C   0  0  0  0  0  0  0  0  0  0  0  0
    1.5000   -2.5981    0.0000 C   0  0  0  0  0  0  0  0  0  0  0  0
    0.7500   -1.2990    0.0000 C   0  0  0  0  0  0  0  0  0  0  0  0
    1.5000    0.0000    0.0000 N   0  0  0  0  0  0  0  0  0  0  0  0
    0.7500    1.2990    0.0000 C   0  0  0  0  0  0  0  0  0  0  0  0
   -0.7500    1.2990    0.0000 N   0  0  0  0  0  0  0  0  0  0  0  0
   -1.5000    0.0000    0.0000 C   0  0  0  0  0  0  0  0  0  0  0  0
   -3.0000    0.0000    0.0000 N   0  0  0  0  0  0  0  0  0  0  0  0
   -3.7500    1.2990    0.0000 C   0  0  0  0  0  0  0  0  0  0  0  0
   -3.0000    2.5981    0.0000 C   0  0  0  0  0  0  0  0  0  0  0  0
   -3.7500    3.8971    0.0000 C   0  0  0  0  0  0  0  0  0  0  0  0
   -3.0000    5.1962    0.0000 Cl  0  0  0  0  0  0  0  0  0  0  0  0
   -5.2500    3.8971    0.0000 C   0  0  0  0  0  0  0  0  0  0  0  0
   -6.0000    2.5981    0.0000 C   0  0  0  0  0  0  0  0  0  0  0  0
   -5.2500    1.2990    0.0000 C   0  0  0  0  0  0  0  0  0  0  0  0
   -6.0000    0.0000    0.0000 F   0  0  0  0  0  0  0  0  0  0  0  0
   -0.7500   -1.2990    0.0000 C   0  0  0  0  0  0  0  0  0  0  0  0
   -1.5000   -2.5981    0.0000 C   0  0  0  0  0  0  0  0  0  0  0  0
   -0.7500   -3.8971    0.0000 C   0  0  0  0  0  0  0  0  0  0  0  0
   -1.5000   -5.1962    0.0000 O   0  0  0  0  0  0  0  0  0  0  0  0
   -3.0000   -5.1962    0.0000 C   0  0  0  0  0  0  0  0  0  0  0  0
   -3.7500   -3.8971    0.0000 C   0  0  0  0  0  0  0  0  0  0  0  0
   -5.2500   -3.8971    0.0000 C   0  0  0  0  0  0  0  0  0  0  0  0
   -6.0000   -5.1962    0.0000 N   0  0  0  0  0  0  0  0  0  0  0  0
   -7.5000   -5.1962    0.0000 S   0  0  0  0  0  0  0  0  0  0  0  0
   -9.0000   -5.1962    0.0000 C   0  0  0  0  0  0  0  0  0  0  0  0
   -7.5000   -6.6962    0.0000 O   0  0  0  0  0  0  0  0  0  0  0  0
   -7.5000   -3.6962    0.0000 O   0  0  0  0  0  0  0  0  0  0  0  0
   -5.2500   -6.4952    0.0000 C   0  0  0  0  0  0  0  0  0  0  0  0
   -3.7500   -6.4952    0.0000 C   0  0  0  0  0  0  0  0  0  0  0  0
  1  2  1  0
  2  3  1  0
  3  4  2  0
  4  5  1  0
  5  6  2  0
  6  7  1  0
  7  8  2  0
  8  9  1  0
  9 10  1  0
 10 11  1  0
 11 12  2  0
 12 13  1  0
 13 14  1  0
 13 15  2  0
 15 16  1  0
 16 17  2  0
 17 18  1  0
  9 19  2  0
 19 20  1  0
 20 21  2  0
 21 22  1  0
 22 23  1  0
 23 24  1  0
 24 25  1  0
 25 26  1  0
 26 27  1  0
 27 28  1  0
 27 29  2  0
 27 30  2  0
 26 31  1  0
 31 32  1  0
 21  3  1  0
 32 23  1  0
 19  5  1  0
 17 11  1  0
M  END
>  <Compound_ID>  (94) 
CHEMBL213007

>  <Active>  (94) 
1.0

>  <Smiles>  (94) 
COc1cc2ncnc(Nc3cc(Cl)ccc3F)c2cc1OC1CCN(S(C)(=O)=O)CC1

>  <canonical_smi>  (94) 
COc1cc2ncnc(Nc3cc(Cl)ccc3F)c2cc1OC1CCN(S(C)(=O)=O)CC1

>  <Set>  (94) 
G2 active

>  <Set_type>  (94) 
Train

>  <MW>  (94) 
480.95

>  <HBD>  (94) 
1

>  <HBA>  (94) 
7

>  <NRB>  (94) 
6

>  <NR>  (94) 
4

>  <NAR>  (94) 
3

>  <PSA>  (94) 
93.65

>  <Standard Type>  (94) 
nan

>  <Standard Relation>  (94) 
nan

>  <Standard Units>  (94) 
nan

>  <Standard Value>  (94) 
nan

>  <Assay ChEMBL ID>  (94) 
nan

>  <Assay Description>  (94) 
nan

>  <BAO Label>  (94) 
nan

$$$$

     RDKit          2D

 22 24  0  0  0  0  0  0  0  0999 V2000
   -2.5981   -8.1073    0.0000 C   0  0  0  0  0  0  0  0  0  0  0  0
   -1.2990   -7.3573    0.0000 C   0  0  0  0  0  0  0  0  0  0  0  0
   -1.2990   -5.8573    0.0000 C   0  0  0  0  0  0  0  0  0  0  0  0
   -2.5981   -5.1073    0.0000 O   0  0  0  0  0  0  0  0  0  0  0  0
   -0.0000   -5.1073    0.0000 N   0  0  0  0  0  0  0  0  0  0  0  0
   -0.0000   -3.6073    0.0000 C   0  0  0  0  0  0  0  0  0  0  0  0
    1.2135   -2.7256    0.0000 C   0  0  0  0  0  0  0  0  0  0  0  0
    0.7500   -1.2990    0.0000 C   0  0  0  0  0  0  0  0  0  0  0  0
    1.5000    0.0000    0.0000 N   0  0  0  0  0  0  0  0  0  0  0  0
    0.7500    1.2990    0.0000 C   0  0  0  0  0  0  0  0  0  0  0  0
   -0.7500    1.2990    0.0000 N   0  0  0  0  0  0  0  0  0  0  0  0
   -1.5000    0.0000    0.0000 C   0  0  0  0  0  0  0  0  0  0  0  0
   -3.0000    0.0000    0.0000 N   0  0  0  0  0  0  0  0  0  0  0  0
   -3.7500    1.2990    0.0000 C   0  0  0  0  0  0  0  0  0  0  0  0
   -3.0000    2.5981    0.0000 C   0  0  0  0  0  0  0  0  0  0  0  0
   -3.7500    3.8971    0.0000 C   0  0  0  0  0  0  0  0  0  0  0  0
   -5.2500    3.8971    0.0000 C   0  0  0  0  0  0  0  0  0  0  0  0
   -6.0000    2.5981    0.0000 C   0  0  0  0  0  0  0  0  0  0  0  0
   -7.5000    2.5981    0.0000 Br  0  0  0  0  0  0  0  0  0  0  0  0
   -5.2500    1.2990    0.0000 C   0  0  0  0  0  0  0  0  0  0  0  0
   -0.7500   -1.2990    0.0000 C   0  0  0  0  0  0  0  0  0  0  0  0
   -1.2135   -2.7256    0.0000 N   0  0  0  0  0  0  0  0  0  0  0  0
  1  2  2  0
  2  3  1  0
  3  4  2  0
  3  5  1  0
  5  6  1  0
  6  7  2  0
  7  8  1  0
  8  9  2  0
  9 10  1  0
 10 11  2  0
 11 12  1  0
 12 13  1  0
 13 14  1  0
 14 15  2  0
 15 16  1  0
 16 17  2  0
 17 18  1  0
 18 19  1  0
 18 20  2  0
 12 21  2  0
 21 22  1  0
 22  6  1  0
 21  8  1  0
 20 14  1  0
M  END
>  <Compound_ID>  (95) 
CHEMBL474142

>  <Active>  (95) 
1.0

>  <Smiles>  (95) 
C=CC(=O)Nc1cc2ncnc(Nc3cccc(Br)c3)c2[nH]1

>  <canonical_smi>  (95) 
C=CC(=O)Nc1cc2ncnc(Nc3cccc(Br)c3)c2[nH]1

>  <Set>  (95) 
G2 active

>  <Set_type>  (95) 
Train

>  <MW>  (95) 
358.2

>  <HBD>  (95) 
3

>  <HBA>  (95) 
4

>  <NRB>  (95) 
4

>  <NR>  (95) 
3

>  <NAR>  (95) 
3

>  <PSA>  (95) 
82.7

>  <Standard Type>  (95) 
nan

>  <Standard Relation>  (95) 
nan

>  <Standard Units>  (95) 
nan

>  <Standard Value>  (95) 
nan

>  <Assay ChEMBL ID>  (95) 
nan

>  <Assay Description>  (95) 
nan

>  <BAO Label>  (95) 
nan

$$$$

     RDKit          2D

 23 26  0  0  0  0  0  0  0  0999 V2000
    3.7500   -1.2990    0.0000 C   0  0  0  0  0  0  0  0  0  0  0  0
    3.0000    0.0000    0.0000 O   0  0  0  0  0  0  0  0  0  0  0  0
    1.5000    0.0000    0.0000 C   0  0  0  0  0  0  0  0  0  0  0  0
    0.7500   -1.2990    0.0000 C   0  0  0  0  0  0  0  0  0  0  0  0
   -0.7500   -1.2990    0.0000 C   0  0  0  0  0  0  0  0  0  0  0  0
   -1.5000    0.0000    0.0000 C   0  0  0  0  0  0  0  0  0  0  0  0
   -2.9672    0.3119    0.0000 N   0  0  0  0  0  0  0  0  0  0  0  0
   -3.1240    1.8037    0.0000 C   0  0  0  0  0  0  0  0  0  0  0  0
   -4.3375    2.6853    0.0000 N   0  0  0  0  0  0  0  0  0  0  0  0
   -4.1807    4.1771    0.0000 C   0  0  0  0  0  0  0  0  0  0  0  0
   -2.8104    4.7872    0.0000 N   0  0  0  0  0  0  0  0  0  0  0  0
   -1.5969    3.9055    0.0000 C   0  0  0  0  0  0  0  0  0  0  0  0
   -0.2266    4.5156    0.0000 N   0  0  0  0  0  0  0  0  0  0  0  0
   -0.0698    6.0074    0.0000 C   0  0  0  0  0  0  0  0  0  0  0  0
    1.3005    6.6175    0.0000 C   0  0  0  0  0  0  0  0  0  0  0  0
    1.4573    8.1093    0.0000 C   0  0  0  0  0  0  0  0  0  0  0  0
    0.2438    8.9910    0.0000 C   0  0  0  0  0  0  0  0  0  0  0  0
   -1.1265    8.3809    0.0000 C   0  0  0  0  0  0  0  0  0  0  0  0
   -2.3401    9.2626    0.0000 Br  0  0  0  0  0  0  0  0  0  0  0  0
   -1.2833    6.8891    0.0000 C   0  0  0  0  0  0  0  0  0  0  0  0
   -1.7537    2.4138    0.0000 C   0  0  0  0  0  0  0  0  0  0  0  0
   -0.7500    1.2990    0.0000 C   0  0  0  0  0  0  0  0  0  0  0  0
    0.7500    1.2990    0.0000 C   0  0  0  0  0  0  0  0  0  0  0  0
  1  2  1  0
  2  3  1  0
  3  4  2  0
  4  5  1  0
  5  6  2  0
  6  7  1  0
  7  8  1  0
  8  9  2  0
  9 10  1  0
 10 11  2  0
 11 12  1  0
 12 13  1  0
 13 14  1  0
 14 15  2  0
 15 16  1  0
 16 17  2  0
 17 18  1  0
 18 19  1  0
 18 20  2  0
 12 21  2  0
 21 22  1  0
 22 23  2  0
 23  3  1  0
 22  6  1  0
 21  8  1  0
 20 14  1  0
M  END
>  <Compound_ID>  (96) 
CHEMBL153206

>  <Active>  (96) 
1.0

>  <Smiles>  (96) 
COc1ccc2[nH]c3ncnc(Nc4cccc(Br)c4)c3c2c1

>  <canonical_smi>  (96) 
COc1ccc2[nH]c3ncnc(Nc4cccc(Br)c4)c3c2c1

>  <Set>  (96) 
G2 active

>  <Set_type>  (96) 
Train

>  <MW>  (96) 
369.22

>  <HBD>  (96) 
2

>  <HBA>  (96) 
4

>  <NRB>  (96) 
3

>  <NR>  (96) 
4

>  <NAR>  (96) 
4

>  <PSA>  (96) 
62.83

>  <Standard Type>  (96) 
nan

>  <Standard Relation>  (96) 
nan

>  <Standard Units>  (96) 
nan

>  <Standard Value>  (96) 
nan

>  <Assay ChEMBL ID>  (96) 
nan

>  <Assay Description>  (96) 
nan

>  <BAO Label>  (96) 
nan

$$$$

     RDKit          2D

 27 30  0  0  0  0  0  0  0  0999 V2000
    6.0000   -0.0000    0.0000 Br  0  0  0  0  0  0  0  0  0  0  0  0
    5.2500   -1.2990    0.0000 C   0  0  0  0  0  0  0  0  0  0  0  0
    6.0000   -2.5981    0.0000 C   0  0  0  0  0  0  0  0  0  0  0  0
    5.2500   -3.8971    0.0000 C   0  0  0  0  0  0  0  0  0  0  0  0
    3.7500   -3.8971    0.0000 C   0  0  0  0  0  0  0  0  0  0  0  0
    3.0000   -2.5981    0.0000 C   0  0  0  0  0  0  0  0  0  0  0  0
    1.5000   -2.5981    0.0000 N   0  0  0  0  0  0  0  0  0  0  0  0
    0.7500   -1.2990    0.0000 C   0  0  0  0  0  0  0  0  0  0  0  0
    1.5000    0.0000    0.0000 N   0  0  0  0  0  0  0  0  0  0  0  0
    0.7500    1.2990    0.0000 C   0  0  0  0  0  0  0  0  0  0  0  0
   -0.7500    1.2990    0.0000 N   0  0  0  0  0  0  0  0  0  0  0  0
   -1.5000    0.0000    0.0000 C   0  0  0  0  0  0  0  0  0  0  0  0
   -3.0000    0.0000    0.0000 C   0  0  0  0  0  0  0  0  0  0  0  0
   -3.7500   -1.2990    0.0000 N   0  0  0  0  0  0  0  0  0  0  0  0
   -3.0000   -2.5981    0.0000 C   0  0  0  0  0  0  0  0  0  0  0  0
   -3.7500   -3.8971    0.0000 N   0  0  0  0  0  0  0  0  0  0  0  0
   -5.2500   -3.8971    0.0000 C   0  0  0  0  0  0  0  0  0  0  0  0
   -6.0000   -5.1962    0.0000 C   0  0  0  0  0  0  0  0  0  0  0  0
   -7.5000   -5.1962    0.0000 C   0  0  0  0  0  0  0  0  0  0  0  0
   -8.2500   -3.8971    0.0000 C   0  0  0  0  0  0  0  0  0  0  0  0
   -9.7500   -3.8971    0.0000 C   0  0  0  0  0  0  0  0  0  0  0  0
  -10.5000   -5.1962    0.0000 C   0  0  0  0  0  0  0  0  0  0  0  0
   -9.7500   -6.4952    0.0000 C   0  0  0  0  0  0  0  0  0  0  0  0
   -8.2500   -6.4952    0.0000 N   0  0  0  0  0  0  0  0  0  0  0  0
   -1.5000   -2.5981    0.0000 C   0  0  0  0  0  0  0  0  0  0  0  0
   -0.7500   -1.2990    0.0000 C   0  0  0  0  0  0  0  0  0  0  0  0
    3.7500   -1.2990    0.0000 C   0  0  0  0  0  0  0  0  0  0  0  0
  1  2  1  0
  2  3  2  0
  3  4  1  0
  4  5  2  0
  5  6  1  0
  6  7  1  0
  7  8  1  0
  8  9  2  0
  9 10  1  0
 10 11  2  0
 11 12  1  0
 12 13  2  0
 13 14  1  0
 14 15  2  0
 15 16  1  0
 16 17  1  0
 17 18  1  0
 18 19  1  0
 19 20  2  0
 20 21  1  0
 21 22  2  0
 22 23  1  0
 23 24  2  0
 15 25  1  0
 25 26  2  0
  6 27  2  0
 27  2  1  0
 26  8  1  0
 26 12  1  0
 24 19  1  0
M  END
>  <Compound_ID>  (97) 
CHEMBL162223

>  <Active>  (97) 
1.0

>  <Smiles>  (97) 
Brc1cccc(Nc2ncnc3cnc(NCCc4ccccn4)cc23)c1

>  <canonical_smi>  (97) 
Brc1cccc(Nc2ncnc3cnc(NCCc4ccccn4)cc23)c1

>  <Set>  (97) 
G2 active

>  <Set_type>  (97) 
Train

>  <MW>  (97) 
421.3

>  <HBD>  (97) 
2

>  <HBA>  (97) 
6

>  <NRB>  (97) 
6

>  <NR>  (97) 
4

>  <NAR>  (97) 
4

>  <PSA>  (97) 
75.62

>  <Standard Type>  (97) 
nan

>  <Standard Relation>  (97) 
nan

>  <Standard Units>  (97) 
nan

>  <Standard Value>  (97) 
nan

>  <Assay ChEMBL ID>  (97) 
nan

>  <Assay Description>  (97) 
nan

>  <BAO Label>  (97) 
nan

$$$$

     RDKit          2D

 21 24  0  0  0  0  0  0  0  0999 V2000
   -7.3624   -4.0385    0.0000 Br  0  0  0  0  0  0  0  0  0  0  0  0
   -7.0505   -2.5713    0.0000 C   0  0  0  0  0  0  0  0  0  0  0  0
   -8.1652   -1.5676    0.0000 C   0  0  0  0  0  0  0  0  0  0  0  0
   -7.8533   -0.1004    0.0000 C   0  0  0  0  0  0  0  0  0  0  0  0
   -6.4268    0.3631    0.0000 C   0  0  0  0  0  0  0  0  0  0  0  0
   -5.3120   -0.6406    0.0000 C   0  0  0  0  0  0  0  0  0  0  0  0
   -3.8855   -0.1771    0.0000 N   0  0  0  0  0  0  0  0  0  0  0  0
   -3.5736    1.2902    0.0000 C   0  0  0  0  0  0  0  0  0  0  0  0
   -4.6883    2.2939    0.0000 N   0  0  0  0  0  0  0  0  0  0  0  0
   -4.3764    3.7611    0.0000 C   0  0  0  0  0  0  0  0  0  0  0  0
   -2.9499    4.2246    0.0000 N   0  0  0  0  0  0  0  0  0  0  0  0
   -1.8351    3.2209    0.0000 C   0  0  0  0  0  0  0  0  0  0  0  0
   -0.4086    3.6844    0.0000 C   0  0  0  0  0  0  0  0  0  0  0  0
    0.7062    2.6807    0.0000 C   0  0  0  0  0  0  0  0  0  0  0  0
    0.3943    1.2135    0.0000 C   0  0  0  0  0  0  0  0  0  0  0  0
    1.2760    0.0000    0.0000 C   0  0  0  0  0  0  0  0  0  0  0  0
    0.3943   -1.2135    0.0000 C   0  0  0  0  0  0  0  0  0  0  0  0
   -1.0323   -0.7500    0.0000 N   0  0  0  0  0  0  0  0  0  0  0  0
   -1.0323    0.7500    0.0000 C   0  0  0  0  0  0  0  0  0  0  0  0
   -2.1470    1.7537    0.0000 C   0  0  0  0  0  0  0  0  0  0  0  0
   -5.6239   -2.1078    0.0000 C   0  0  0  0  0  0  0  0  0  0  0  0
  1  2  1  0
  2  3  2  0
  3  4  1  0
  4  5  2  0
  5  6  1  0
  6  7  1  0
  7  8  1  0
  8  9  2  0
  9 10  1  0
 10 11  2  0
 11 12  1  0
 12 13  2  0
 13 14  1  0
 14 15  2  0
 15 16  1  0
 16 17  2  0
 17 18  1  0
 18 19  1  0
 19 20  2  0
  6 21  2  0
 21  2  1  0
 20  8  1  0
 20 12  1  0
 19 15  1  0
M  END
>  <Compound_ID>  (98) 
CHEMBL153525

>  <Active>  (98) 
1.0

>  <Smiles>  (98) 
Brc1cccc(Nc2ncnc3ccc4cc[nH]c4c23)c1

>  <canonical_smi>  (98) 
Brc1cccc(Nc2ncnc3ccc4cc[nH]c4c23)c1

>  <Set>  (98) 
G2 active

>  <Set_type>  (98) 
Train

>  <MW>  (98) 
339.2

>  <HBD>  (98) 
2

>  <HBA>  (98) 
3

>  <NRB>  (98) 
2

>  <NR>  (98) 
4

>  <NAR>  (98) 
4

>  <PSA>  (98) 
53.6

>  <Standard Type>  (98) 
nan

>  <Standard Relation>  (98) 
nan

>  <Standard Units>  (98) 
nan

>  <Standard Value>  (98) 
nan

>  <Assay ChEMBL ID>  (98) 
nan

>  <Assay Description>  (98) 
nan

>  <BAO Label>  (98) 
nan

$$$$

     RDKit          2D

 31 35  0  0  0  0  0  0  0  0999 V2000
   -0.7500   -3.8971    0.0000 O   0  0  0  0  0  0  0  0  0  0  0  0
    0.7500   -3.8971    0.0000 C   0  0  0  0  0  0  0  0  0  0  0  0
    1.5000   -2.5981    0.0000 N   0  0  0  0  0  0  0  0  0  0  0  0
    0.7500   -1.2990    0.0000 C   0  0  0  0  0  0  0  0  0  0  0  0
    1.5000    0.0000    0.0000 C   0  0  0  0  0  0  0  0  0  0  0  0
    0.7500    1.2990    0.0000 C   0  0  0  0  0  0  0  0  0  0  0  0
   -0.7500    1.2990    0.0000 C   0  0  0  0  0  0  0  0  0  0  0  0
   -1.5000    2.5981    0.0000 N   0  0  0  0  0  0  0  0  0  0  0  0
   -3.0000    2.5981    0.0000 C   0  0  0  0  0  0  0  0  0  0  0  0
   -3.7500    1.2990    0.0000 N   0  0  0  0  0  0  0  0  0  0  0  0
   -3.0000    0.0000    0.0000 C   0  0  0  0  0  0  0  0  0  0  0  0
   -3.7500   -1.2990    0.0000 N   0  0  0  0  0  0  0  0  0  0  0  0
   -5.2500   -1.2990    0.0000 C   0  0  0  0  0  0  0  0  0  0  0  0
   -6.0000    0.0000    0.0000 C   0  0  0  0  0  0  0  0  0  0  0  0
   -7.5000    0.0000    0.0000 C   0  0  0  0  0  0  0  0  0  0  0  0
   -8.2500   -1.2990    0.0000 C   0  0  0  0  0  0  0  0  0  0  0  0
   -7.5000   -2.5981    0.0000 C   0  0  0  0  0  0  0  0  0  0  0  0
   -8.2500   -3.8971    0.0000 Br  0  0  0  0  0  0  0  0  0  0  0  0
   -6.0000   -2.5981    0.0000 C   0  0  0  0  0  0  0  0  0  0  0  0
   -1.5000    0.0000    0.0000 C   0  0  0  0  0  0  0  0  0  0  0  0
   -0.7500   -1.2990    0.0000 C   0  0  0  0  0  0  0  0  0  0  0  0
    1.5000   -5.1962    0.0000 C   0  0  0  0  0  0  0  0  0  0  0  0
    2.7990   -5.9462    0.0000 O   0  0  0  0  0  0  0  0  0  0  0  0
    1.5000   -6.6962    0.0000 C   0  0  0  0  0  0  0  0  0  0  0  0
    0.7500   -7.9952    0.0000 C   0  0  0  0  0  0  0  0  0  0  0  0
   -0.7500   -7.9952    0.0000 N   0  0  0  0  0  0  0  0  0  0  0  0
   -1.5000   -6.6962    0.0000 C   0  0  0  0  0  0  0  0  0  0  0  0
   -3.0000   -6.6962    0.0000 C   0  0  0  0  0  0  0  0  0  0  0  0
   -3.7500   -7.9952    0.0000 C   0  0  0  0  0  0  0  0  0  0  0  0
   -3.0000   -9.2942    0.0000 C   0  0  0  0  0  0  0  0  0  0  0  0
   -1.5000   -9.2942    0.0000 C   0  0  0  0  0  0  0  0  0  0  0  0
  1  2  2  0
  2  3  1  0
  3  4  1  0
  4  5  2  0
  5  6  1  0
  6  7  2  0
  7  8  1  0
  8  9  2  0
  9 10  1  0
 10 11  2  0
 11 12  1  0
 12 13  1  0
 13 14  2  0
 14 15  1  0
 15 16  2  0
 16 17  1  0
 17 18  1  0
 17 19  2  0
 11 20  1  0
 20 21  2  0
 22  2  1  6
 22 23  1  0
 23 24  1  0
 24 25  1  1
 25 26  1  0
 26 27  1  0
 27 28  1  0
 28 29  1  0
 29 30  1  0
 30 31  1  0
 21  4  1  0
 24 22  1  0
 31 26  1  0
 20  7  1  0
 19 13  1  0
M  END
>  <Compound_ID>  (99) 
CHEMBL598007

>  <Active>  (99) 
1.0

>  <Smiles>  (99) 
O=C(Nc1ccc2ncnc(Nc3cccc(Br)c3)c2c1)[C@@H]1O[C@H]1CN1CCCCC1

>  <canonical_smi>  (99) 
O=C(Nc1ccc2ncnc(Nc3cccc(Br)c3)c2c1)[C@@H]1O[C@H]1CN1CCCCC1

>  <Set>  (99) 
G2 active

>  <Set_type>  (99) 
Train

>  <MW>  (99) 
482.38

>  <HBD>  (99) 
2

>  <HBA>  (99) 
6

>  <NRB>  (99) 
6

>  <NR>  (99) 
5

>  <NAR>  (99) 
3

>  <PSA>  (99) 
82.68

>  <Standard Type>  (99) 
nan

>  <Standard Relation>  (99) 
nan

>  <Standard Units>  (99) 
nan

>  <Standard Value>  (99) 
nan

>  <Assay ChEMBL ID>  (99) 
nan

>  <Assay Description>  (99) 
nan

>  <BAO Label>  (99) 
nan

$$$$

     RDKit          2D

 32 35  0  0  0  0  0  0  0  0999 V2000
   -0.7500   -3.8971    0.0000 O   0  0  0  0  0  0  0  0  0  0  0  0
    0.7500   -3.8971    0.0000 C   0  0  0  0  0  0  0  0  0  0  0  0
    1.5000   -5.1962    0.0000 C   0  0  0  0  0  0  0  0  0  0  0  0
    2.2500   -6.4952    0.0000 C   0  0  0  0  0  0  0  0  0  0  0  0
    3.0000   -7.7942    0.0000 C   0  0  0  0  0  0  0  0  0  0  0  0
    2.2500   -9.0933    0.0000 C   0  0  0  0  0  0  0  0  0  0  0  0
    3.0000  -10.3923    0.0000 N   0  0  0  0  0  0  0  0  0  0  0  0
    2.2500  -11.6913    0.0000 C   0  0  0  0  0  0  0  0  0  0  0  0
    3.0000  -12.9904    0.0000 C   0  0  0  0  0  0  0  0  0  0  0  0
    4.5000  -12.9904    0.0000 O   0  0  0  0  0  0  0  0  0  0  0  0
    5.2500  -11.6913    0.0000 C   0  0  0  0  0  0  0  0  0  0  0  0
    4.5000  -10.3923    0.0000 C   0  0  0  0  0  0  0  0  0  0  0  0
    1.5000   -2.5981    0.0000 N   0  0  0  0  0  0  0  0  0  0  0  0
    0.7500   -1.2990    0.0000 C   0  0  0  0  0  0  0  0  0  0  0  0
    1.5000    0.0000    0.0000 C   0  0  0  0  0  0  0  0  0  0  0  0
    0.7500    1.2990    0.0000 C   0  0  0  0  0  0  0  0  0  0  0  0
    1.5000    2.5981    0.0000 C   0  0  0  0  0  0  0  0  0  0  0  0
    3.0000    2.5981    0.0000 N   0  0  0  0  0  0  0  0  0  0  0  0
    3.7500    3.8971    0.0000 C   0  0  0  0  0  0  0  0  0  0  0  0
    5.2500    3.8971    0.0000 C   0  0  0  0  0  0  0  0  0  0  0  0
    6.0000    5.1962    0.0000 C   0  0  0  0  0  0  0  0  0  0  0  0
    5.2500    6.4952    0.0000 C   0  0  0  0  0  0  0  0  0  0  0  0
    6.0000    7.7942    0.0000 F   0  0  0  0  0  0  0  0  0  0  0  0
    3.7500    6.4952    0.0000 C   0  0  0  0  0  0  0  0  0  0  0  0
    3.0000    7.7942    0.0000 Cl  0  0  0  0  0  0  0  0  0  0  0  0
    3.0000    5.1962    0.0000 C   0  0  0  0  0  0  0  0  0  0  0  0
    0.7500    3.8971    0.0000 N   0  0  0  0  0  0  0  0  0  0  0  0
   -0.7500    3.8971    0.0000 C   0  0  0  0  0  0  0  0  0  0  0  0
   -1.5000    2.5981    0.0000 N   0  0  0  0  0  0  0  0  0  0  0  0
   -0.7500    1.2990    0.0000 C   0  0  0  0  0  0  0  0  0  0  0  0
   -1.5000    0.0000    0.0000 C   0  0  0  0  0  0  0  0  0  0  0  0
   -0.7500   -1.2990    0.0000 N   0  0  0  0  0  0  0  0  0  0  0  0
  1  2  2  0
  2  3  1  0
  3  4  3  0
  4  5  1  0
  5  6  1  0
  6  7  1  0
  7  8  1  0
  8  9  1  0
  9 10  1  0
 10 11  1  0
 11 12  1  0
  2 13  1  0
 13 14  1  0
 14 15  2  0
 15 16  1  0
 16 17  2  0
 17 18  1  0
 18 19  1  0
 19 20  2  0
 20 21  1  0
 21 22  2  0
 22 23  1  0
 22 24  1  0
 24 25  1  0
 24 26  2  0
 17 27  1  0
 27 28  2  0
 28 29  1  0
 29 30  2  0
 30 31  1  0
 31 32  2  0
 12  7  1  0
 32 14  1  0
 30 16  1  0
 26 19  1  0
M  END
>  <Compound_ID>  (100) 
CHEMBL203661

>  <Active>  (100) 
1.0

>  <Smiles>  (100) 
O=C(C#CCCN1CCOCC1)Nc1cc2c(Nc3ccc(F)c(Cl)c3)ncnc2cn1

>  <canonical_smi>  (100) 
O=C(C#CCCN1CCOCC1)Nc1cc2c(Nc3ccc(F)c(Cl)c3)ncnc2cn1

>  <Set>  (100) 
G2 active

>  <Set_type>  (100) 
Train

>  <MW>  (100) 
454.89

>  <HBD>  (100) 
2

>  <HBA>  (100) 
7

>  <NRB>  (100) 
5

>  <NR>  (100) 
4

>  <NAR>  (100) 
3

>  <PSA>  (100) 
92.27

>  <Standard Type>  (100) 
nan

>  <Standard Relation>  (100) 
nan

>  <Standard Units>  (100) 
nan

>  <Standard Value>  (100) 
nan

>  <Assay ChEMBL ID>  (100) 
nan

>  <Assay Description>  (100) 
nan

>  <BAO Label>  (100) 
nan

$$$$

     RDKit          2D

 26 29  0  0  0  0  0  0  0  0999 V2000
    6.0000   -0.0000    0.0000 Br  0  0  0  0  0  0  0  0  0  0  0  0
    5.2500   -1.2990    0.0000 C   0  0  0  0  0  0  0  0  0  0  0  0
    6.0000   -2.5981    0.0000 C   0  0  0  0  0  0  0  0  0  0  0  0
    5.2500   -3.8971    0.0000 C   0  0  0  0  0  0  0  0  0  0  0  0
    3.7500   -3.8971    0.0000 C   0  0  0  0  0  0  0  0  0  0  0  0
    3.0000   -2.5981    0.0000 C   0  0  0  0  0  0  0  0  0  0  0  0
    1.5000   -2.5981    0.0000 N   0  0  0  0  0  0  0  0  0  0  0  0
    0.7500   -1.2990    0.0000 C   0  0  0  0  0  0  0  0  0  0  0  0
    1.5000    0.0000    0.0000 N   0  0  0  0  0  0  0  0  0  0  0  0
    0.7500    1.2990    0.0000 C   0  0  0  0  0  0  0  0  0  0  0  0
   -0.7500    1.2990    0.0000 N   0  0  0  0  0  0  0  0  0  0  0  0
   -1.5000    0.0000    0.0000 C   0  0  0  0  0  0  0  0  0  0  0  0
   -3.0000    0.0000    0.0000 C   0  0  0  0  0  0  0  0  0  0  0  0
   -3.7500   -1.2990    0.0000 N   0  0  0  0  0  0  0  0  0  0  0  0
   -3.0000   -2.5981    0.0000 C   0  0  0  0  0  0  0  0  0  0  0  0
   -3.7500   -3.8971    0.0000 N   0  0  0  0  0  0  0  0  0  0  0  0
   -5.2500   -3.8971    0.0000 C   0  0  0  0  0  0  0  0  0  0  0  0
   -6.0000   -5.1962    0.0000 C   0  0  0  0  0  0  0  0  0  0  0  0
   -7.5000   -5.1962    0.0000 C   0  0  0  0  0  0  0  0  0  0  0  0
   -8.2500   -6.4952    0.0000 C   0  0  0  0  0  0  0  0  0  0  0  0
   -7.5000   -7.7942    0.0000 C   0  0  0  0  0  0  0  0  0  0  0  0
   -6.0000   -7.7942    0.0000 N   0  0  0  0  0  0  0  0  0  0  0  0
   -5.2500   -6.4952    0.0000 C   0  0  0  0  0  0  0  0  0  0  0  0
   -1.5000   -2.5981    0.0000 C   0  0  0  0  0  0  0  0  0  0  0  0
   -0.7500   -1.2990    0.0000 C   0  0  0  0  0  0  0  0  0  0  0  0
    3.7500   -1.2990    0.0000 C   0  0  0  0  0  0  0  0  0  0  0  0
  1  2  1  0
  2  3  2  0
  3  4  1  0
  4  5  2  0
  5  6  1  0
  6  7  1  0
  7  8  1  0
  8  9  2  0
  9 10  1  0
 10 11  2  0
 11 12  1  0
 12 13  2  0
 13 14  1  0
 14 15  2  0
 15 16  1  0
 16 17  1  0
 17 18  1  0
 18 19  2  0
 19 20  1  0
 20 21  2  0
 21 22  1  0
 22 23  2  0
 15 24  1  0
 24 25  2  0
  6 26  2  0
 26  2  1  0
 25  8  1  0
 25 12  1  0
 23 18  1  0
M  END
>  <Compound_ID>  (101) 
CHEMBL165508

>  <Active>  (101) 
1.0

>  <Smiles>  (101) 
Brc1cccc(Nc2ncnc3cnc(NCc4cccnc4)cc23)c1

>  <canonical_smi>  (101) 
Brc1cccc(Nc2ncnc3cnc(NCc4cccnc4)cc23)c1

>  <Set>  (101) 
G2 active

>  <Set_type>  (101) 
Train

>  <MW>  (101) 
407.28

>  <HBD>  (101) 
2

>  <HBA>  (101) 
6

>  <NRB>  (101) 
5

>  <NR>  (101) 
4

>  <NAR>  (101) 
4

>  <PSA>  (101) 
75.62

>  <Standard Type>  (101) 
nan

>  <Standard Relation>  (101) 
nan

>  <Standard Units>  (101) 
nan

>  <Standard Value>  (101) 
nan

>  <Assay ChEMBL ID>  (101) 
nan

>  <Assay Description>  (101) 
nan

>  <BAO Label>  (101) 
nan

$$$$

     RDKit          2D

 33 36  0  0  0  0  0  0  0  0999 V2000
   -7.5000   -5.1962    0.0000 C   0  0  0  0  0  0  0  0  0  0  0  0
   -6.0000   -5.1962    0.0000 C   0  0  0  0  0  0  0  0  0  0  0  0
   -5.2500   -3.8971    0.0000 C   0  0  0  0  0  0  0  0  0  0  0  0
   -6.0000   -2.5981    0.0000 O   0  0  0  0  0  0  0  0  0  0  0  0
   -3.7500   -3.8971    0.0000 N   0  0  0  0  0  0  0  0  0  0  0  0
   -3.0000   -2.5981    0.0000 C   0  0  0  0  0  0  0  0  0  0  0  0
   -1.5000   -2.5981    0.0000 C   0  0  0  0  0  0  0  0  0  0  0  0
   -0.7500   -1.2990    0.0000 C   0  0  0  0  0  0  0  0  0  0  0  0
    0.7500   -1.2990    0.0000 C   0  0  0  0  0  0  0  0  0  0  0  0
    1.5000   -2.5981    0.0000 C   0  0  0  0  0  0  0  0  0  0  0  0
    3.0000   -2.5981    0.0000 C   0  0  0  0  0  0  0  0  0  0  0  0
    3.7500   -3.8971    0.0000 C   0  0  0  0  0  0  0  0  0  0  0  0
    5.2500   -3.8971    0.0000 C   0  0  0  0  0  0  0  0  0  0  0  0
    6.0000   -2.5981    0.0000 C   0  0  0  0  0  0  0  0  0  0  0  0
    5.2500   -1.2990    0.0000 C   0  0  0  0  0  0  0  0  0  0  0  0
    6.0000   -0.0000    0.0000 C   0  0  0  0  0  0  0  0  0  0  0  0
    3.7500   -1.2990    0.0000 C   0  0  0  0  0  0  0  0  0  0  0  0
    1.5000    0.0000    0.0000 N   0  0  0  0  0  0  0  0  0  0  0  0
    0.7500    1.2990    0.0000 C   0  0  0  0  0  0  0  0  0  0  0  0
   -0.7500    1.2990    0.0000 N   0  0  0  0  0  0  0  0  0  0  0  0
   -1.5000    0.0000    0.0000 C   0  0  0  0  0  0  0  0  0  0  0  0
   -3.0000    0.0000    0.0000 C   0  0  0  0  0  0  0  0  0  0  0  0
   -3.7500   -1.2990    0.0000 C   0  0  0  0  0  0  0  0  0  0  0  0
   -5.2500   -1.2990    0.0000 O   0  0  0  0  0  0  0  0  0  0  0  0
   -6.0000    0.0000    0.0000 C   0  0  0  0  0  0  0  0  0  0  0  0
   -7.5000    0.0000    0.0000 C   0  0  0  0  0  0  0  0  0  0  0  0
   -8.2500    1.2990    0.0000 C   0  0  0  0  0  0  0  0  0  0  0  0
   -9.7500    1.2990    0.0000 N   0  0  0  0  0  0  0  0  0  0  0  0
  -10.5000    2.5981    0.0000 C   0  0  0  0  0  0  0  0  0  0  0  0
  -12.0000    2.5981    0.0000 C   0  0  0  0  0  0  0  0  0  0  0  0
  -12.7500    1.2990    0.0000 O   0  0  0  0  0  0  0  0  0  0  0  0
  -12.0000    0.0000    0.0000 C   0  0  0  0  0  0  0  0  0  0  0  0
  -10.5000    0.0000    0.0000 C   0  0  0  0  0  0  0  0  0  0  0  0
  1  2  2  0
  2  3  1  0
  3  4  2  0
  3  5  1  0
  5  6  1  0
  6  7  2  0
  7  8  1  0
  8  9  2  0
  9 10  1  0
 10 11  1  0
 11 12  2  0
 12 13  1  0
 13 14  2  0
 14 15  1  0
 15 16  1  0
 15 17  2  0
  9 18  1  0
 18 19  2  0
 19 20  1  0
 20 21  2  0
 21 22  1  0
 22 23  2  0
 23 24  1  0
 24 25  1  0
 25 26  1  0
 26 27  1  0
 27 28  1  0
 28 29  1  0
 29 30  1  0
 30 31  1  0
 31 32  1  0
 32 33  1  0
 23  6  1  0
 33 28  1  0
 21  8  1  0
 17 11  1  0
M  END
>  <Compound_ID>  (102) 
CHEMBL489111

>  <Active>  (102) 
1.0

>  <Smiles>  (102) 
C=CC(=O)Nc1cc2c(Cc3cccc(C)c3)ncnc2cc1OCCCN1CCOCC1

>  <canonical_smi>  (102) 
C=CC(=O)Nc1cc2c(Cc3cccc(C)c3)ncnc2cc1OCCCN1CCOCC1

>  <Set>  (102) 
G2 active

>  <Set_type>  (102) 
Train

>  <MW>  (102) 
446.55

>  <HBD>  (102) 
1

>  <HBA>  (102) 
6

>  <NRB>  (102) 
9

>  <NR>  (102) 
4

>  <NAR>  (102) 
3

>  <PSA>  (102) 
76.58

>  <Standard Type>  (102) 
nan

>  <Standard Relation>  (102) 
nan

>  <Standard Units>  (102) 
nan

>  <Standard Value>  (102) 
nan

>  <Assay ChEMBL ID>  (102) 
nan

>  <Assay Description>  (102) 
nan

>  <BAO Label>  (102) 
nan

$$$$

     RDKit          2D

 37 42  0  0  0  0  0  0  0  0999 V2000
    3.7500   -3.8971    0.0000 C   0  0  0  0  0  0  0  0  0  0  0  0
    3.0000   -2.5981    0.0000 C   0  0  0  0  0  0  0  0  0  0  0  0
    1.5000   -2.5981    0.0000 O   0  0  0  0  0  0  0  0  0  0  0  0
    0.7500   -1.2990    0.0000 C   0  0  0  0  0  0  0  0  0  0  0  0
    1.5000    0.0000    0.0000 C   0  0  0  0  0  0  0  0  0  0  0  0
    0.7500    1.2990    0.0000 C   0  0  0  0  0  0  0  0  0  0  0  0
   -0.7500    1.2990    0.0000 C   0  0  0  0  0  0  0  0  0  0  0  0
   -1.5000    0.0000    0.0000 C   0  0  0  0  0  0  0  0  0  0  0  0
   -3.0000    0.0000    0.0000 N   0  0  0  0  0  0  0  0  0  0  0  0
   -3.7500   -1.2990    0.0000 C   0  0  0  0  0  0  0  0  0  0  0  0
   -3.0000   -2.5981    0.0000 N   0  0  0  0  0  0  0  0  0  0  0  0
   -1.5000   -2.5981    0.0000 C   0  0  0  0  0  0  0  0  0  0  0  0
   -0.7500   -3.8971    0.0000 N   0  0  0  0  0  0  0  0  0  0  0  0
   -1.5000   -5.1962    0.0000 C   0  0  0  0  0  0  0  0  0  0  0  0
   -3.0000   -5.1962    0.0000 C   0  0  0  0  0  0  0  0  0  0  0  0
   -3.7500   -6.4952    0.0000 C   0  0  0  0  0  0  0  0  0  0  0  0
   -3.0000   -7.7942    0.0000 C   0  0  0  0  0  0  0  0  0  0  0  0
   -1.5000   -7.7942    0.0000 C   0  0  0  0  0  0  0  0  0  0  0  0
   -1.0365   -9.2208    0.0000 C   0  0  0  0  0  0  0  0  0  0  0  0
   -2.2500  -10.1025    0.0000 N   0  0  0  0  0  0  0  0  0  0  0  0
   -3.4635   -9.2208    0.0000 N   0  0  0  0  0  0  0  0  0  0  0  0
   -4.8901   -9.6843    0.0000 C   0  0  0  0  0  0  0  0  0  0  0  0
   -5.2020  -11.1516    0.0000 C   0  0  0  0  0  0  0  0  0  0  0  0
   -4.1983  -12.2663    0.0000 N   0  0  0  0  0  0  0  0  0  0  0  0
   -4.9483  -13.5653    0.0000 C   0  0  0  0  0  0  0  0  0  0  0  0
   -6.4155  -13.2534    0.0000 C   0  0  0  0  0  0  0  0  0  0  0  0
   -6.5723  -11.7617    0.0000 S   0  0  0  0  0  0  0  0  0  0  0  0
   -0.7500   -6.4952    0.0000 C   0  0  0  0  0  0  0  0  0  0  0  0
   -0.7500   -1.2990    0.0000 C   0  0  0  0  0  0  0  0  0  0  0  0
    3.7500   -1.2990    0.0000 C   0  0  0  0  0  0  0  0  0  0  0  0
    3.0000   -0.0000    0.0000 O   0  0  0  0  0  0  0  0  0  0  0  0
    5.2500   -1.2990    0.0000 N   0  0  0  0  0  0  0  0  0  0  0  0
    6.0000   -2.5981    0.0000 C   0  0  0  0  0  0  0  0  0  0  0  0
    7.5000   -2.5981    0.0000 C   0  0  0  0  0  0  0  0  0  0  0  0
    8.2500   -1.2990    0.0000 O   0  0  0  0  0  0  0  0  0  0  0  0
    7.5000   -0.0000    0.0000 C   0  0  0  0  0  0  0  0  0  0  0  0
    6.0000   -0.0000    0.0000 C   0  0  0  0  0  0  0  0  0  0  0  0
  2  1  1  1
  2  3  1  0
  3  4  1  0
  4  5  2  0
  5  6  1  0
  6  7  2  0
  7  8  1  0
  8  9  2  0
  9 10  1  0
 10 11  2  0
 11 12  1  0
 12 13  1  0
 13 14  1  0
 14 15  2  0
 15 16  1  0
 16 17  2  0
 17 18  1  0
 18 19  1  0
 19 20  2  0
 20 21  1  0
 21 22  1  0
 22 23  1  0
 23 24  2  0
 24 25  1  0
 25 26  2  0
 26 27  1  0
 18 28  2  0
 12 29  2  0
  2 30  1  0
 30 31  2  0
 30 32  1  0
 32 33  1  0
 33 34  1  0
 34 35  1  0
 35 36  1  0
 36 37  1  0
 29  4  1  0
 37 32  1  0
 29  8  1  0
 28 14  1  0
 21 17  1  0
 27 23  1  0
M  END
>  <Compound_ID>  (103) 
CHEMBL257411

>  <Active>  (103) 
1.0

>  <Smiles>  (103) 
C[C@@H](Oc1cccc2ncnc(Nc3ccc4c(cnn4Cc4nccs4)c3)c12)C(=O)N1CCOCC1

>  <canonical_smi>  (103) 
C[C@@H](Oc1cccc2ncnc(Nc3ccc4c(cnn4Cc4nccs4)c3)c12)C(=O)N1CCOCC1

>  <Set>  (103) 
G2 active

>  <Set_type>  (103) 
Train

>  <MW>  (103) 
515.6

>  <HBD>  (103) 
1

>  <HBA>  (103) 
8

>  <NRB>  (103) 
7

>  <NR>  (103) 
6

>  <NAR>  (103) 
5

>  <PSA>  (103) 
107.29

>  <Standard Type>  (103) 
nan

>  <Standard Relation>  (103) 
nan

>  <Standard Units>  (103) 
nan

>  <Standard Value>  (103) 
nan

>  <Assay ChEMBL ID>  (103) 
nan

>  <Assay Description>  (103) 
nan

>  <BAO Label>  (103) 
nan

$$$$

     RDKit          2D

 28 31  0  0  0  0  0  0  0  0999 V2000
    3.7500   -9.0933    0.0000 C   0  0  0  0  0  0  0  0  0  0  0  0
    3.0000   -7.7942    0.0000 O   0  0  0  0  0  0  0  0  0  0  0  0
    1.5000   -7.7942    0.0000 C   0  0  0  0  0  0  0  0  0  0  0  0
    0.7500   -6.4952    0.0000 C   0  0  0  0  0  0  0  0  0  0  0  0
    1.5000   -5.1962    0.0000 O   0  0  0  0  0  0  0  0  0  0  0  0
    0.7500   -3.8971    0.0000 C   0  0  0  0  0  0  0  0  0  0  0  0
    1.5000   -2.5981    0.0000 C   0  0  0  0  0  0  0  0  0  0  0  0
    0.7500   -1.2990    0.0000 C   0  0  0  0  0  0  0  0  0  0  0  0
    1.5000    0.0000    0.0000 N   0  0  0  0  0  0  0  0  0  0  0  0
    0.7500    1.2990    0.0000 C   0  0  0  0  0  0  0  0  0  0  0  0
   -0.7500    1.2990    0.0000 N   0  0  0  0  0  0  0  0  0  0  0  0
   -1.5000    0.0000    0.0000 C   0  0  0  0  0  0  0  0  0  0  0  0
   -3.0000    0.0000    0.0000 N   0  0  0  0  0  0  0  0  0  0  0  0
   -3.7500    1.2990    0.0000 C   0  0  0  0  0  0  0  0  0  0  0  0
   -3.0000    2.5981    0.0000 C   0  0  0  0  0  0  0  0  0  0  0  0
   -3.7500    3.8971    0.0000 C   0  0  0  0  0  0  0  0  0  0  0  0
   -5.2500    3.8971    0.0000 C   0  0  0  0  0  0  0  0  0  0  0  0
   -6.0000    2.5981    0.0000 C   0  0  0  0  0  0  0  0  0  0  0  0
   -7.5000    2.5981    0.0000 I   0  0  0  0  0  0  0  0  0  0  0  0
   -5.2500    1.2990    0.0000 C   0  0  0  0  0  0  0  0  0  0  0  0
   -0.7500   -1.2990    0.0000 C   0  0  0  0  0  0  0  0  0  0  0  0
   -1.5000   -2.5981    0.0000 C   0  0  0  0  0  0  0  0  0  0  0  0
   -0.7500   -3.8971    0.0000 C   0  0  0  0  0  0  0  0  0  0  0  0
   -1.5000   -5.1962    0.0000 O   0  0  0  0  0  0  0  0  0  0  0  0
   -0.7500   -6.4952    0.0000 C   0  0  0  0  0  0  0  0  0  0  0  0
   -1.5000   -7.7942    0.0000 C   0  0  0  0  0  0  0  0  0  0  0  0
   -3.0000   -7.7942    0.0000 O   0  0  0  0  0  0  0  0  0  0  0  0
   -3.7500   -9.0933    0.0000 C   0  0  0  0  0  0  0  0  0  0  0  0
  1  2  1  0
  2  3  1  0
  4  3  1  6
  4  5  1  0
  5  6  1  0
  6  7  2  0
  7  8  1  0
  8  9  2  0
  9 10  1  0
 10 11  2  0
 11 12  1  0
 12 13  1  0
 13 14  1  0
 14 15  2  0
 15 16  1  0
 16 17  2  0
 17 18  1  0
 18 19  1  0
 18 20  2  0
 12 21  2  0
 21 22  1  0
 22 23  2  0
 23 24  1  0
 24 25  1  0
 25 26  1  1
 26 27  1  0
 27 28  1  0
 25  4  1  0
 23  6  1  0
 21  8  1  0
 20 14  1  0
M  END
>  <Compound_ID>  (104) 
CHEMBL516979

>  <Active>  (104) 
1.0

>  <Smiles>  (104) 
COC[C@H]1Oc2cc3ncnc(Nc4cccc(I)c4)c3cc2O[C@@H]1COC

>  <canonical_smi>  (104) 
COC[C@H]1Oc2cc3ncnc(Nc4cccc(I)c4)c3cc2O[C@@H]1COC

>  <Set>  (104) 
G2 active

>  <Set_type>  (104) 
Train

>  <MW>  (104) 
493.3

>  <HBD>  (104) 
1

>  <HBA>  (104) 
7

>  <NRB>  (104) 
6

>  <NR>  (104) 
4

>  <NAR>  (104) 
3

>  <PSA>  (104) 
74.73

>  <Standard Type>  (104) 
nan

>  <Standard Relation>  (104) 
nan

>  <Standard Units>  (104) 
nan

>  <Standard Value>  (104) 
nan

>  <Assay ChEMBL ID>  (104) 
nan

>  <Assay Description>  (104) 
nan

>  <BAO Label>  (104) 
nan

$$$$

     RDKit          2D

 34 37  0  0  0  0  0  0  0  0999 V2000
   -7.5000   -5.1962    0.0000 C   0  0  0  0  0  0  0  0  0  0  0  0
   -6.0000   -5.1962    0.0000 C   0  0  0  0  0  0  0  0  0  0  0  0
   -5.2500   -3.8971    0.0000 C   0  0  0  0  0  0  0  0  0  0  0  0
   -6.0000   -2.5981    0.0000 O   0  0  0  0  0  0  0  0  0  0  0  0
   -3.7500   -3.8971    0.0000 N   0  0  0  0  0  0  0  0  0  0  0  0
   -3.0000   -2.5981    0.0000 C   0  0  0  0  0  0  0  0  0  0  0  0
   -1.5000   -2.5981    0.0000 C   0  0  0  0  0  0  0  0  0  0  0  0
   -0.7500   -1.2990    0.0000 C   0  0  0  0  0  0  0  0  0  0  0  0
    0.7500   -1.2990    0.0000 C   0  0  0  0  0  0  0  0  0  0  0  0
    1.5000   -2.5981    0.0000 N   0  0  0  0  0  0  0  0  0  0  0  0
    3.0000   -2.5981    0.0000 C   0  0  0  0  0  0  0  0  0  0  0  0
    3.7500   -3.8971    0.0000 C   0  0  0  0  0  0  0  0  0  0  0  0
    5.2500   -3.8971    0.0000 C   0  0  0  0  0  0  0  0  0  0  0  0
    6.0000   -2.5981    0.0000 C   0  0  0  0  0  0  0  0  0  0  0  0
    5.2500   -1.2990    0.0000 C   0  0  0  0  0  0  0  0  0  0  0  0
    6.0000   -0.0000    0.0000 Br  0  0  0  0  0  0  0  0  0  0  0  0
    3.7500   -1.2990    0.0000 C   0  0  0  0  0  0  0  0  0  0  0  0
    1.5000    0.0000    0.0000 N   0  0  0  0  0  0  0  0  0  0  0  0
    0.7500    1.2990    0.0000 C   0  0  0  0  0  0  0  0  0  0  0  0
   -0.7500    1.2990    0.0000 N   0  0  0  0  0  0  0  0  0  0  0  0
   -1.5000    0.0000    0.0000 C   0  0  0  0  0  0  0  0  0  0  0  0
   -3.0000    0.0000    0.0000 C   0  0  0  0  0  0  0  0  0  0  0  0
   -3.7500   -1.2990    0.0000 C   0  0  0  0  0  0  0  0  0  0  0  0
   -5.2500   -1.2990    0.0000 O   0  0  0  0  0  0  0  0  0  0  0  0
   -6.0000    0.0000    0.0000 C   0  0  0  0  0  0  0  0  0  0  0  0
   -7.5000    0.0000    0.0000 C   0  0  0  0  0  0  0  0  0  0  0  0
   -8.2500    1.2990    0.0000 C   0  0  0  0  0  0  0  0  0  0  0  0
   -9.7500    1.2990    0.0000 N   0  0  0  0  0  0  0  0  0  0  0  0
  -10.5000    2.5981    0.0000 C   0  0  0  0  0  0  0  0  0  0  0  0
  -12.0000    2.5981    0.0000 C   0  0  0  0  0  0  0  0  0  0  0  0
  -12.7500    1.2990    0.0000 N   0  0  0  0  0  0  0  0  0  0  0  0
  -14.2500    1.2990    0.0000 C   0  0  0  0  0  0  0  0  0  0  0  0
  -12.0000    0.0000    0.0000 C   0  0  0  0  0  0  0  0  0  0  0  0
  -10.5000    0.0000    0.0000 C   0  0  0  0  0  0  0  0  0  0  0  0
  1  2  2  0
  2  3  1  0
  3  4  2  0
  3  5  1  0
  5  6  1  0
  6  7  2  0
  7  8  1  0
  8  9  2  0
  9 10  1  0
 10 11  1  0
 11 12  2  0
 12 13  1  0
 13 14  2  0
 14 15  1  0
 15 16  1  0
 15 17  2  0
  9 18  1  0
 18 19  2  0
 19 20  1  0
 20 21  2  0
 21 22  1  0
 22 23  2  0
 23 24  1  0
 24 25  1  0
 25 26  1  0
 26 27  1  0
 27 28  1  0
 28 29  1  0
 29 30  1  0
 30 31  1  0
 31 32  1  0
 31 33  1  0
 33 34  1  0
 23  6  1  0
 34 28  1  0
 21  8  1  0
 17 11  1  0
M  END
>  <Compound_ID>  (105) 
CHEMBL32844

>  <Active>  (105) 
1.0

>  <Smiles>  (105) 
C=CC(=O)Nc1cc2c(Nc3cccc(Br)c3)ncnc2cc1OCCCN1CCN(C)CC1

>  <canonical_smi>  (105) 
C=CC(=O)Nc1cc2c(Nc3cccc(Br)c3)ncnc2cc1OCCCN1CCN(C)CC1

>  <Set>  (105) 
G2 active

>  <Set_type>  (105) 
Train

>  <MW>  (105) 
525.45

>  <HBD>  (105) 
2

>  <HBA>  (105) 
7

>  <NRB>  (105) 
9

>  <NR>  (105) 
4

>  <NAR>  (105) 
3

>  <PSA>  (105) 
82.62

>  <Standard Type>  (105) 
nan

>  <Standard Relation>  (105) 
nan

>  <Standard Units>  (105) 
nan

>  <Standard Value>  (105) 
nan

>  <Assay ChEMBL ID>  (105) 
nan

>  <Assay Description>  (105) 
nan

>  <BAO Label>  (105) 
nan

$$$$

     RDKit          2D

 27 30  0  0  0  0  0  0  0  0999 V2000
    6.0000   -0.0000    0.0000 Br  0  0  0  0  0  0  0  0  0  0  0  0
    5.2500   -1.2990    0.0000 C   0  0  0  0  0  0  0  0  0  0  0  0
    6.0000   -2.5981    0.0000 C   0  0  0  0  0  0  0  0  0  0  0  0
    5.2500   -3.8971    0.0000 C   0  0  0  0  0  0  0  0  0  0  0  0
    3.7500   -3.8971    0.0000 C   0  0  0  0  0  0  0  0  0  0  0  0
    3.0000   -2.5981    0.0000 C   0  0  0  0  0  0  0  0  0  0  0  0
    1.5000   -2.5981    0.0000 N   0  0  0  0  0  0  0  0  0  0  0  0
    0.7500   -1.2990    0.0000 C   0  0  0  0  0  0  0  0  0  0  0  0
    1.5000    0.0000    0.0000 N   0  0  0  0  0  0  0  0  0  0  0  0
    0.7500    1.2990    0.0000 C   0  0  0  0  0  0  0  0  0  0  0  0
   -0.7500    1.2990    0.0000 N   0  0  0  0  0  0  0  0  0  0  0  0
   -1.5000    0.0000    0.0000 C   0  0  0  0  0  0  0  0  0  0  0  0
   -3.0000    0.0000    0.0000 C   0  0  0  0  0  0  0  0  0  0  0  0
   -3.7500   -1.2990    0.0000 N   0  0  0  0  0  0  0  0  0  0  0  0
   -3.0000   -2.5981    0.0000 C   0  0  0  0  0  0  0  0  0  0  0  0
   -3.7500   -3.8971    0.0000 N   0  0  0  0  0  0  0  0  0  0  0  0
   -5.2500   -3.8971    0.0000 C   0  0  0  0  0  0  0  0  0  0  0  0
   -6.0000   -5.1962    0.0000 C   0  0  0  0  0  0  0  0  0  0  0  0
   -7.5000   -5.1962    0.0000 C   0  0  0  0  0  0  0  0  0  0  0  0
   -8.2500   -6.4952    0.0000 N   0  0  0  0  0  0  0  0  0  0  0  0
   -7.6399   -7.8655    0.0000 C   0  0  0  0  0  0  0  0  0  0  0  0
   -8.7546   -8.8692    0.0000 C   0  0  0  0  0  0  0  0  0  0  0  0
  -10.0537   -8.1192    0.0000 N   0  0  0  0  0  0  0  0  0  0  0  0
   -9.7418   -6.6520    0.0000 C   0  0  0  0  0  0  0  0  0  0  0  0
   -1.5000   -2.5981    0.0000 C   0  0  0  0  0  0  0  0  0  0  0  0
   -0.7500   -1.2990    0.0000 C   0  0  0  0  0  0  0  0  0  0  0  0
    3.7500   -1.2990    0.0000 C   0  0  0  0  0  0  0  0  0  0  0  0
  1  2  1  0
  2  3  2  0
  3  4  1  0
  4  5  2  0
  5  6  1  0
  6  7  1  0
  7  8  1  0
  8  9  2  0
  9 10  1  0
 10 11  2  0
 11 12  1  0
 12 13  2  0
 13 14  1  0
 14 15  2  0
 15 16  1  0
 16 17  1  0
 17 18  1  0
 18 19  1  0
 19 20  1  0
 20 21  1  0
 21 22  2  0
 22 23  1  0
 23 24  2  0
 15 25  1  0
 25 26  2  0
  6 27  2  0
 27  2  1  0
 26  8  1  0
 26 12  1  0
 24 20  1  0
M  END
>  <Compound_ID>  (106) 
CHEMBL162981

>  <Active>  (106) 
1.0

>  <Smiles>  (106) 
Brc1cccc(Nc2ncnc3cnc(NCCCn4ccnc4)cc23)c1

>  <canonical_smi>  (106) 
Brc1cccc(Nc2ncnc3cnc(NCCCn4ccnc4)cc23)c1

>  <Set>  (106) 
G2 active

>  <Set_type>  (106) 
Train

>  <MW>  (106) 
424.31

>  <HBD>  (106) 
2

>  <HBA>  (106) 
6

>  <NRB>  (106) 
7

>  <NR>  (106) 
4

>  <NAR>  (106) 
4

>  <PSA>  (106) 
80.55

>  <Standard Type>  (106) 
nan

>  <Standard Relation>  (106) 
nan

>  <Standard Units>  (106) 
nan

>  <Standard Value>  (106) 
nan

>  <Assay ChEMBL ID>  (106) 
nan

>  <Assay Description>  (106) 
nan

>  <BAO Label>  (106) 
nan

$$$$

     RDKit          2D

 22 25  0  0  0  0  0  0  0  0999 V2000
   -3.0000  -10.3923    0.0000 Br  0  0  0  0  0  0  0  0  0  0  0  0
   -3.7500   -9.0933    0.0000 C   0  0  0  0  0  0  0  0  0  0  0  0
   -5.2500   -9.0933    0.0000 C   0  0  0  0  0  0  0  0  0  0  0  0
   -6.0000   -7.7942    0.0000 C   0  0  0  0  0  0  0  0  0  0  0  0
   -5.2500   -6.4952    0.0000 C   0  0  0  0  0  0  0  0  0  0  0  0
   -3.7500   -6.4952    0.0000 C   0  0  0  0  0  0  0  0  0  0  0  0
   -3.0000   -5.1962    0.0000 N   0  0  0  0  0  0  0  0  0  0  0  0
   -1.5000   -5.1962    0.0000 C   0  0  0  0  0  0  0  0  0  0  0  0
   -0.7500   -6.4952    0.0000 N   0  0  0  0  0  0  0  0  0  0  0  0
    0.7500   -6.4952    0.0000 C   0  0  0  0  0  0  0  0  0  0  0  0
    1.5000   -5.1962    0.0000 N   0  0  0  0  0  0  0  0  0  0  0  0
    0.7500   -3.8971    0.0000 C   0  0  0  0  0  0  0  0  0  0  0  0
    1.5000   -2.5981    0.0000 C   0  0  0  0  0  0  0  0  0  0  0  0
    0.7500   -1.2990    0.0000 C   0  0  0  0  0  0  0  0  0  0  0  0
    1.5000    0.0000    0.0000 N   0  0  0  0  0  0  0  0  0  0  0  0
    0.7500    1.2990    0.0000 C   0  0  0  0  0  0  0  0  0  0  0  0
   -0.7500    1.2990    0.0000 C   0  0  0  0  0  0  0  0  0  0  0  0
   -1.5000    0.0000    0.0000 N   0  0  0  0  0  0  0  0  0  0  0  0
   -0.7500   -1.2990    0.0000 C   0  0  0  0  0  0  0  0  0  0  0  0
   -1.5000   -2.5981    0.0000 C   0  0  0  0  0  0  0  0  0  0  0  0
   -0.7500   -3.8971    0.0000 C   0  0  0  0  0  0  0  0  0  0  0  0
   -3.0000   -7.7942    0.0000 C   0  0  0  0  0  0  0  0  0  0  0  0
  1  2  1  0
  2  3  2  0
  3  4  1  0
  4  5  2  0
  5  6  1  0
  6  7  1  0
  7  8  1  0
  8  9  2  0
  9 10  1  0
 10 11  2  0
 11 12  1  0
 12 13  2  0
 13 14  1  0
 14 15  2  0
 15 16  1  0
 16 17  2  0
 17 18  1  0
 18 19  2  0
 19 20  1  0
 20 21  2  0
  6 22  2  0
 22  2  1  0
 21  8  1  0
 21 12  1  0
 19 14  1  0
M  END
>  <Compound_ID>  (107) 
CHEMBL173498

>  <Active>  (107) 
1.0

>  <Smiles>  (107) 
Brc1cccc(Nc2ncnc3cc4nccnc4cc23)c1

>  <canonical_smi>  (107) 
Brc1cccc(Nc2ncnc3cc4nccnc4cc23)c1

>  <Set>  (107) 
G2 active

>  <Set_type>  (107) 
Train

>  <MW>  (107) 
352.2

>  <HBD>  (107) 
1

>  <HBA>  (107) 
5

>  <NRB>  (107) 
2

>  <NR>  (107) 
4

>  <NAR>  (107) 
4

>  <PSA>  (107) 
63.59

>  <Standard Type>  (107) 
nan

>  <Standard Relation>  (107) 
nan

>  <Standard Units>  (107) 
nan

>  <Standard Value>  (107) 
nan

>  <Assay ChEMBL ID>  (107) 
nan

>  <Assay Description>  (107) 
nan

>  <BAO Label>  (107) 
nan

$$$$

     RDKit          2D

 32 35  0  0  0  0  0  0  0  0999 V2000
   -0.7500   -3.8971    0.0000 O   0  0  0  0  0  0  0  0  0  0  0  0
    0.7500   -3.8971    0.0000 C   0  0  0  0  0  0  0  0  0  0  0  0
    1.5000   -5.1962    0.0000 C   0  0  0  0  0  0  0  0  0  0  0  0
    2.2500   -6.4952    0.0000 C   0  0  0  0  0  0  0  0  0  0  0  0
    3.0000   -7.7942    0.0000 C   0  0  0  0  0  0  0  0  0  0  0  0
    2.2500   -9.0933    0.0000 C   0  0  0  0  0  0  0  0  0  0  0  0
    3.0000  -10.3923    0.0000 N   0  0  0  0  0  0  0  0  0  0  0  0
    2.2500  -11.6913    0.0000 C   0  0  0  0  0  0  0  0  0  0  0  0
    3.0000  -12.9904    0.0000 C   0  0  0  0  0  0  0  0  0  0  0  0
    4.5000  -12.9904    0.0000 O   0  0  0  0  0  0  0  0  0  0  0  0
    5.2500  -11.6913    0.0000 C   0  0  0  0  0  0  0  0  0  0  0  0
    4.5000  -10.3923    0.0000 C   0  0  0  0  0  0  0  0  0  0  0  0
    1.5000   -2.5981    0.0000 N   0  0  0  0  0  0  0  0  0  0  0  0
    0.7500   -1.2990    0.0000 C   0  0  0  0  0  0  0  0  0  0  0  0
    1.5000    0.0000    0.0000 C   0  0  0  0  0  0  0  0  0  0  0  0
    0.7500    1.2990    0.0000 C   0  0  0  0  0  0  0  0  0  0  0  0
   -0.7500    1.2990    0.0000 C   0  0  0  0  0  0  0  0  0  0  0  0
   -1.5000    2.5981    0.0000 N   0  0  0  0  0  0  0  0  0  0  0  0
   -3.0000    2.5981    0.0000 C   0  0  0  0  0  0  0  0  0  0  0  0
   -3.7500    1.2990    0.0000 N   0  0  0  0  0  0  0  0  0  0  0  0
   -3.0000    0.0000    0.0000 C   0  0  0  0  0  0  0  0  0  0  0  0
   -3.7500   -1.2990    0.0000 N   0  0  0  0  0  0  0  0  0  0  0  0
   -5.2500   -1.2990    0.0000 C   0  0  0  0  0  0  0  0  0  0  0  0
   -6.0000    0.0000    0.0000 C   0  0  0  0  0  0  0  0  0  0  0  0
   -7.5000    0.0000    0.0000 C   0  0  0  0  0  0  0  0  0  0  0  0
   -8.2500   -1.2990    0.0000 C   0  0  0  0  0  0  0  0  0  0  0  0
   -9.7500   -1.2990    0.0000 F   0  0  0  0  0  0  0  0  0  0  0  0
   -7.5000   -2.5981    0.0000 C   0  0  0  0  0  0  0  0  0  0  0  0
   -8.2500   -3.8971    0.0000 Cl  0  0  0  0  0  0  0  0  0  0  0  0
   -6.0000   -2.5981    0.0000 C   0  0  0  0  0  0  0  0  0  0  0  0
   -1.5000    0.0000    0.0000 C   0  0  0  0  0  0  0  0  0  0  0  0
   -0.7500   -1.2990    0.0000 C   0  0  0  0  0  0  0  0  0  0  0  0
  1  2  2  0
  2  3  1  0
  3  4  3  0
  4  5  1  0
  5  6  1  0
  6  7  1  0
  7  8  1  0
  8  9  1  0
  9 10  1  0
 10 11  1  0
 11 12  1  0
  2 13  1  0
 13 14  1  0
 14 15  2  0
 15 16  1  0
 16 17  2  0
 17 18  1  0
 18 19  2  0
 19 20  1  0
 20 21  2  0
 21 22  1  0
 22 23  1  0
 23 24  2  0
 24 25  1  0
 25 26  2  0
 26 27  1  0
 26 28  1  0
 28 29  1  0
 28 30  2  0
 21 31  1  0
 31 32  2  0
 12  7  1  0
 32 14  1  0
 31 17  1  0
 30 23  1  0
M  END
>  <Compound_ID>  (108) 
CHEMBL204085

>  <Active>  (108) 
1.0

>  <Smiles>  (108) 
O=C(C#CCCN1CCOCC1)Nc1ccc2ncnc(Nc3ccc(F)c(Cl)c3)c2c1

>  <canonical_smi>  (108) 
O=C(C#CCCN1CCOCC1)Nc1ccc2ncnc(Nc3ccc(F)c(Cl)c3)c2c1

>  <Set>  (108) 
G2 active

>  <Set_type>  (108) 
Train

>  <MW>  (108) 
453.91

>  <HBD>  (108) 
2

>  <HBA>  (108) 
6

>  <NRB>  (108) 
5

>  <NR>  (108) 
4

>  <NAR>  (108) 
3

>  <PSA>  (108) 
79.38

>  <Standard Type>  (108) 
nan

>  <Standard Relation>  (108) 
nan

>  <Standard Units>  (108) 
nan

>  <Standard Value>  (108) 
nan

>  <Assay ChEMBL ID>  (108) 
nan

>  <Assay Description>  (108) 
nan

>  <BAO Label>  (108) 
nan

$$$$

     RDKit          2D

 34 37  0  0  0  0  0  0  0  0999 V2000
   -7.5000   -5.1962    0.0000 C   0  0  0  0  0  0  0  0  0  0  0  0
   -6.0000   -5.1962    0.0000 C   0  0  0  0  0  0  0  0  0  0  0  0
   -5.2500   -3.8971    0.0000 C   0  0  0  0  0  0  0  0  0  0  0  0
   -6.0000   -2.5981    0.0000 O   0  0  0  0  0  0  0  0  0  0  0  0
   -3.7500   -3.8971    0.0000 N   0  0  0  0  0  0  0  0  0  0  0  0
   -3.0000   -2.5981    0.0000 C   0  0  0  0  0  0  0  0  0  0  0  0
   -1.5000   -2.5981    0.0000 C   0  0  0  0  0  0  0  0  0  0  0  0
   -0.7500   -1.2990    0.0000 C   0  0  0  0  0  0  0  0  0  0  0  0
    0.7500   -1.2990    0.0000 C   0  0  0  0  0  0  0  0  0  0  0  0
    1.5000   -2.5981    0.0000 C   0  0  0  0  0  0  0  0  0  0  0  0
    3.0000   -2.5981    0.0000 C   0  0  0  0  0  0  0  0  0  0  0  0
    3.7500   -3.8971    0.0000 C   0  0  0  0  0  0  0  0  0  0  0  0
    5.2500   -3.8971    0.0000 C   0  0  0  0  0  0  0  0  0  0  0  0
    6.0000   -2.5981    0.0000 C   0  0  0  0  0  0  0  0  0  0  0  0
    5.2500   -1.2990    0.0000 C   0  0  0  0  0  0  0  0  0  0  0  0
    6.0000   -0.0000    0.0000 Br  0  0  0  0  0  0  0  0  0  0  0  0
    3.7500   -1.2990    0.0000 C   0  0  0  0  0  0  0  0  0  0  0  0
    1.5000    0.0000    0.0000 N   0  0  0  0  0  0  0  0  0  0  0  0
    0.7500    1.2990    0.0000 C   0  0  0  0  0  0  0  0  0  0  0  0
   -0.7500    1.2990    0.0000 N   0  0  0  0  0  0  0  0  0  0  0  0
   -1.5000    0.0000    0.0000 C   0  0  0  0  0  0  0  0  0  0  0  0
   -3.0000    0.0000    0.0000 C   0  0  0  0  0  0  0  0  0  0  0  0
   -3.7500   -1.2990    0.0000 C   0  0  0  0  0  0  0  0  0  0  0  0
   -5.2500   -1.2990    0.0000 O   0  0  0  0  0  0  0  0  0  0  0  0
   -6.0000    0.0000    0.0000 C   0  0  0  0  0  0  0  0  0  0  0  0
   -7.5000    0.0000    0.0000 C   0  0  0  0  0  0  0  0  0  0  0  0
   -8.2500    1.2990    0.0000 C   0  0  0  0  0  0  0  0  0  0  0  0
   -9.7500    1.2990    0.0000 N   0  0  0  0  0  0  0  0  0  0  0  0
  -10.5000    2.5981    0.0000 C   0  0  0  0  0  0  0  0  0  0  0  0
  -12.0000    2.5981    0.0000 C   0  0  0  0  0  0  0  0  0  0  0  0
  -12.7500    1.2990    0.0000 C   0  0  0  0  0  0  0  0  0  0  0  0
  -14.2500    1.2990    0.0000 C   0  0  0  0  0  0  0  0  0  0  0  0
  -12.0000    0.0000    0.0000 C   0  0  0  0  0  0  0  0  0  0  0  0
  -10.5000    0.0000    0.0000 C   0  0  0  0  0  0  0  0  0  0  0  0
  1  2  2  0
  2  3  1  0
  3  4  2  0
  3  5  1  0
  5  6  1  0
  6  7  2  0
  7  8  1  0
  8  9  2  0
  9 10  1  0
 10 11  1  0
 11 12  2  0
 12 13  1  0
 13 14  2  0
 14 15  1  0
 15 16  1  0
 15 17  2  0
  9 18  1  0
 18 19  2  0
 19 20  1  0
 20 21  2  0
 21 22  1  0
 22 23  2  0
 23 24  1  0
 24 25  1  0
 25 26  1  0
 26 27  1  0
 27 28  1  0
 28 29  1  0
 29 30  1  0
 30 31  1  0
 31 32  1  0
 31 33  1  0
 33 34  1  0
 23  6  1  0
 34 28  1  0
 21  8  1  0
 17 11  1  0
M  END
>  <Compound_ID>  (109) 
CHEMBL516365

>  <Active>  (109) 
1.0

>  <Smiles>  (109) 
C=CC(=O)Nc1cc2c(Cc3cccc(Br)c3)ncnc2cc1OCCCN1CCC(C)CC1

>  <canonical_smi>  (109) 
C=CC(=O)Nc1cc2c(Cc3cccc(Br)c3)ncnc2cc1OCCCN1CCC(C)CC1

>  <Set>  (109) 
G2 active

>  <Set_type>  (109) 
Train

>  <MW>  (109) 
523.48

>  <HBD>  (109) 
1

>  <HBA>  (109) 
5

>  <NRB>  (109) 
9

>  <NR>  (109) 
4

>  <NAR>  (109) 
3

>  <PSA>  (109) 
67.35

>  <Standard Type>  (109) 
nan

>  <Standard Relation>  (109) 
nan

>  <Standard Units>  (109) 
nan

>  <Standard Value>  (109) 
nan

>  <Assay ChEMBL ID>  (109) 
nan

>  <Assay Description>  (109) 
nan

>  <BAO Label>  (109) 
nan

$$$$

     RDKit          2D

 42 48  0  0  0  0  0  0  0  0999 V2000
   -5.6213   -4.5165    0.0000 C   0  0  0  0  0  0  0  0  0  0  0  0
   -4.3223   -5.2665    0.0000 C   0  0  0  0  0  0  0  0  0  0  0  0
   -4.1655   -6.7583    0.0000 C   0  0  0  0  0  0  0  0  0  0  0  0
   -2.6983   -7.0701    0.0000 C   0  0  0  0  0  0  0  0  0  0  0  0
   -2.0882   -8.4404    0.0000 C   0  0  0  0  0  0  0  0  0  0  0  0
   -0.5964   -8.5972    0.0000 O   0  0  0  0  0  0  0  0  0  0  0  0
   -2.9699   -9.6540    0.0000 N   0  0  0  0  0  0  0  0  0  0  0  0
   -4.4616   -9.4972    0.0000 C   0  0  0  0  0  0  0  0  0  0  0  0
   -5.3433  -10.7107    0.0000 C   0  0  0  0  0  0  0  0  0  0  0  0
   -4.7332  -12.0810    0.0000 O   0  0  0  0  0  0  0  0  0  0  0  0
   -3.2414  -12.2378    0.0000 C   0  0  0  0  0  0  0  0  0  0  0  0
   -2.3597  -11.0243    0.0000 C   0  0  0  0  0  0  0  0  0  0  0  0
   -1.9483   -5.7711    0.0000 N   0  0  0  0  0  0  0  0  0  0  0  0
   -2.9520   -4.6564    0.0000 C   0  0  0  0  0  0  0  0  0  0  0  0
   -2.6401   -3.1891    0.0000 C   0  0  0  0  0  0  0  0  0  0  0  0
   -1.2135   -2.7256    0.0000 C   0  0  0  0  0  0  0  0  0  0  0  0
   -0.0000   -3.6073    0.0000 C   0  0  0  0  0  0  0  0  0  0  0  0
    0.0000   -5.1073    0.0000 O   0  0  0  0  0  0  0  0  0  0  0  0
    1.2135   -2.7256    0.0000 N   0  0  0  0  0  0  0  0  0  0  0  0
    0.7500   -1.2990    0.0000 C   0  0  0  0  0  0  0  0  0  0  0  0
    1.5000    0.0000    0.0000 N   0  0  0  0  0  0  0  0  0  0  0  0
    0.7500    1.2990    0.0000 C   0  0  0  0  0  0  0  0  0  0  0  0
   -0.7500    1.2990    0.0000 N   0  0  0  0  0  0  0  0  0  0  0  0
   -1.5000    0.0000    0.0000 C   0  0  0  0  0  0  0  0  0  0  0  0
   -3.0000    0.0000    0.0000 N   0  0  0  0  0  0  0  0  0  0  0  0
   -3.7500    1.2990    0.0000 C   0  0  0  0  0  0  0  0  0  0  0  0
   -3.0000    2.5981    0.0000 C   0  0  0  0  0  0  0  0  0  0  0  0
   -3.7500    3.8971    0.0000 C   0  0  0  0  0  0  0  0  0  0  0  0
   -5.2500    3.8971    0.0000 C   0  0  0  0  0  0  0  0  0  0  0  0
   -6.0000    2.5981    0.0000 C   0  0  0  0  0  0  0  0  0  0  0  0
   -7.4672    2.9099    0.0000 C   0  0  0  0  0  0  0  0  0  0  0  0
   -7.6240    4.4017    0.0000 N   0  0  0  0  0  0  0  0  0  0  0  0
   -6.2537    5.0118    0.0000 N   0  0  0  0  0  0  0  0  0  0  0  0
   -5.9418    6.4791    0.0000 C   0  0  0  0  0  0  0  0  0  0  0  0
   -7.0565    7.4827    0.0000 C   0  0  0  0  0  0  0  0  0  0  0  0
   -6.7447    8.9500    0.0000 C   0  0  0  0  0  0  0  0  0  0  0  0
   -7.8594    9.9537    0.0000 C   0  0  0  0  0  0  0  0  0  0  0  0
   -9.2860    9.4901    0.0000 C   0  0  0  0  0  0  0  0  0  0  0  0
   -9.5978    8.0229    0.0000 C   0  0  0  0  0  0  0  0  0  0  0  0
   -8.4831    7.0192    0.0000 C   0  0  0  0  0  0  0  0  0  0  0  0
   -5.2500    1.2990    0.0000 C   0  0  0  0  0  0  0  0  0  0  0  0
   -0.7500   -1.2990    0.0000 C   0  0  0  0  0  0  0  0  0  0  0  0
  1  2  1  0
  2  3  1  0
  3  4  2  0
  4  5  1  0
  5  6  2  0
  5  7  1  0
  7  8  1  0
  8  9  1  0
  9 10  1  0
 10 11  1  0
 11 12  1  0
  4 13  1  0
 13 14  1  0
 14 15  1  0
 15 16  2  0
 16 17  1  0
 17 18  2  0
 17 19  1  0
 19 20  1  0
 20 21  2  0
 21 22  1  0
 22 23  2  0
 23 24  1  0
 24 25  1  0
 25 26  1  0
 26 27  2  0
 27 28  1  0
 28 29  2  0
 29 30  1  0
 30 31  1  0
 31 32  2  0
 32 33  1  0
 33 34  1  0
 34 35  1  0
 35 36  2  0
 36 37  1  0
 37 38  2  0
 38 39  1  0
 39 40  2  0
 30 41  2  0
 24 42  2  0
 14  2  2  0
 42 16  1  0
 12  7  1  0
 42 20  1  0
 41 26  1  0
 33 29  1  0
 40 35  1  0
M  END
>  <Compound_ID>  (110) 
CHEMBL67003

>  <Active>  (110) 
1.0

>  <Smiles>  (110) 
Cc1cc(C(=O)N2CCOCC2)[nH]c1/C=C1\C(=O)Nc2ncnc(Nc3ccc4c(cnn4Cc4ccccc4)c3)c21

>  <canonical_smi>  (110) 
Cc1cc(C(=O)N2CCOCC2)[nH]c1/C=C1\C(=O)Nc2ncnc(Nc3ccc4c(cnn4Cc4ccccc4)c3)c21

>  <Set>  (110) 
G2 active

>  <Set_type>  (110) 
Train

>  <MW>  (110) 
560.62

>  <HBD>  (110) 
3

>  <HBA>  (110) 
7

>  <NRB>  (110) 
6

>  <NR>  (110) 
7

>  <NAR>  (110) 
5

>  <PSA>  (110) 
130.06

>  <Standard Type>  (110) 
nan

>  <Standard Relation>  (110) 
nan

>  <Standard Units>  (110) 
nan

>  <Standard Value>  (110) 
nan

>  <Assay ChEMBL ID>  (110) 
nan

>  <Assay Description>  (110) 
nan

>  <BAO Label>  (110) 
nan

$$$$

     RDKit          2D

 30 33  0  0  0  0  0  0  0  0999 V2000
    3.7500   -6.4952    0.0000 C   0  0  0  0  0  0  0  0  0  0  0  0
    3.0000   -5.1962    0.0000 C   0  0  0  0  0  0  0  0  0  0  0  0
    1.5000   -5.1962    0.0000 O   0  0  0  0  0  0  0  0  0  0  0  0
    0.7500   -3.8971    0.0000 C   0  0  0  0  0  0  0  0  0  0  0  0
    1.5000   -2.5981    0.0000 C   0  0  0  0  0  0  0  0  0  0  0  0
    0.7500   -1.2990    0.0000 C   0  0  0  0  0  0  0  0  0  0  0  0
    1.5000    0.0000    0.0000 N   0  0  0  0  0  0  0  0  0  0  0  0
    0.7500    1.2990    0.0000 C   0  0  0  0  0  0  0  0  0  0  0  0
   -0.7500    1.2990    0.0000 N   0  0  0  0  0  0  0  0  0  0  0  0
   -1.5000    0.0000    0.0000 C   0  0  0  0  0  0  0  0  0  0  0  0
   -3.0000    0.0000    0.0000 C   0  0  0  0  0  0  0  0  0  0  0  0
   -4.5000    0.0000    0.0000 C   0  0  0  0  0  0  0  0  0  0  0  0
   -6.0000    0.0000    0.0000 C   0  0  0  0  0  0  0  0  0  0  0  0
   -6.8817   -1.2135    0.0000 C   0  0  0  0  0  0  0  0  0  0  0  0
   -8.3083   -0.7500    0.0000 N   0  0  0  0  0  0  0  0  0  0  0  0
   -8.3083    0.7500    0.0000 N   0  0  0  0  0  0  0  0  0  0  0  0
   -6.8817    1.2135    0.0000 C   0  0  0  0  0  0  0  0  0  0  0  0
   -6.4182    2.6401    0.0000 C   0  0  0  0  0  0  0  0  0  0  0  0
   -4.9509    2.9520    0.0000 C   0  0  0  0  0  0  0  0  0  0  0  0
   -4.4874    4.3786    0.0000 C   0  0  0  0  0  0  0  0  0  0  0  0
   -5.4911    5.4933    0.0000 C   0  0  0  0  0  0  0  0  0  0  0  0
   -5.0276    6.9199    0.0000 F   0  0  0  0  0  0  0  0  0  0  0  0
   -6.9583    5.1814    0.0000 C   0  0  0  0  0  0  0  0  0  0  0  0
   -7.4218    3.7548    0.0000 C   0  0  0  0  0  0  0  0  0  0  0  0
   -0.7500   -1.2990    0.0000 C   0  0  0  0  0  0  0  0  0  0  0  0
   -1.5000   -2.5981    0.0000 C   0  0  0  0  0  0  0  0  0  0  0  0
   -0.7500   -3.8971    0.0000 C   0  0  0  0  0  0  0  0  0  0  0  0
   -1.5000   -5.1962    0.0000 O   0  0  0  0  0  0  0  0  0  0  0  0
   -3.0000   -5.1962    0.0000 C   0  0  0  0  0  0  0  0  0  0  0  0
   -3.7500   -6.4952    0.0000 C   0  0  0  0  0  0  0  0  0  0  0  0
  1  2  1  0
  2  3  1  0
  3  4  1  0
  4  5  2  0
  5  6  1  0
  6  7  2  0
  7  8  1  0
  8  9  2  0
  9 10  1  0
 10 11  1  0
 11 12  3  0
 12 13  1  0
 13 14  2  0
 14 15  1  0
 15 16  1  0
 16 17  2  0
 17 18  1  0
 18 19  2  0
 19 20  1  0
 20 21  2  0
 21 22  1  0
 21 23  1  0
 23 24  2  0
 10 25  2  0
 25 26  1  0
 26 27  2  0
 27 28  1  0
 28 29  1  0
 29 30  1  0
 27  4  1  0
 25  6  1  0
 17 13  1  0
 24 18  1  0
M  END
>  <Compound_ID>  (111) 
CHEMBL251125

>  <Active>  (111) 
1.0

>  <Smiles>  (111) 
CCOc1cc2ncnc(C#Cc3c[nH]nc3-c3ccc(F)cc3)c2cc1OCC

>  <canonical_smi>  (111) 
CCOc1cc2ncnc(C#Cc3c[nH]nc3-c3ccc(F)cc3)c2cc1OCC

>  <Set>  (111) 
G2 active

>  <Set_type>  (111) 
Train

>  <MW>  (111) 
402.43

>  <HBD>  (111) 
1

>  <HBA>  (111) 
5

>  <NRB>  (111) 
5

>  <NR>  (111) 
4

>  <NAR>  (111) 
4

>  <PSA>  (111) 
72.92

>  <Standard Type>  (111) 
nan

>  <Standard Relation>  (111) 
nan

>  <Standard Units>  (111) 
nan

>  <Standard Value>  (111) 
nan

>  <Assay ChEMBL ID>  (111) 
nan

>  <Assay Description>  (111) 
nan

>  <BAO Label>  (111) 
nan

$$$$

     RDKit          2D

 28 31  0  0  0  0  0  0  0  0999 V2000
    6.0000   -0.0000    0.0000 Br  0  0  0  0  0  0  0  0  0  0  0  0
    5.2500   -1.2990    0.0000 C   0  0  0  0  0  0  0  0  0  0  0  0
    6.0000   -2.5981    0.0000 C   0  0  0  0  0  0  0  0  0  0  0  0
    5.2500   -3.8971    0.0000 C   0  0  0  0  0  0  0  0  0  0  0  0
    3.7500   -3.8971    0.0000 C   0  0  0  0  0  0  0  0  0  0  0  0
    3.0000   -2.5981    0.0000 C   0  0  0  0  0  0  0  0  0  0  0  0
    1.5000   -2.5981    0.0000 N   0  0  0  0  0  0  0  0  0  0  0  0
    0.7500   -1.2990    0.0000 C   0  0  0  0  0  0  0  0  0  0  0  0
    1.5000    0.0000    0.0000 N   0  0  0  0  0  0  0  0  0  0  0  0
    0.7500    1.2990    0.0000 C   0  0  0  0  0  0  0  0  0  0  0  0
   -0.7500    1.2990    0.0000 N   0  0  0  0  0  0  0  0  0  0  0  0
   -1.5000    0.0000    0.0000 C   0  0  0  0  0  0  0  0  0  0  0  0
   -3.0000    0.0000    0.0000 C   0  0  0  0  0  0  0  0  0  0  0  0
   -3.7500   -1.2990    0.0000 C   0  0  0  0  0  0  0  0  0  0  0  0
   -5.2500   -1.2990    0.0000 N   0  0  0  0  0  0  0  0  0  0  0  0
   -6.0000    0.0000    0.0000 C   0  0  0  0  0  0  0  0  0  0  0  0
   -7.5000   -0.0000    0.0000 C   0  0  0  0  0  0  0  0  0  0  0  0
   -8.2500    1.2990    0.0000 C   0  0  0  0  0  0  0  0  0  0  0  0
   -9.7500    1.2990    0.0000 N   0  0  0  0  0  0  0  0  0  0  0  0
  -10.5000    2.5981    0.0000 C   0  0  0  0  0  0  0  0  0  0  0  0
  -12.0000    2.5981    0.0000 C   0  0  0  0  0  0  0  0  0  0  0  0
  -12.7500    1.2990    0.0000 O   0  0  0  0  0  0  0  0  0  0  0  0
  -12.0000    0.0000    0.0000 C   0  0  0  0  0  0  0  0  0  0  0  0
  -10.5000    0.0000    0.0000 C   0  0  0  0  0  0  0  0  0  0  0  0
   -3.0000   -2.5981    0.0000 N   0  0  0  0  0  0  0  0  0  0  0  0
   -1.5000   -2.5981    0.0000 C   0  0  0  0  0  0  0  0  0  0  0  0
   -0.7500   -1.2990    0.0000 C   0  0  0  0  0  0  0  0  0  0  0  0
    3.7500   -1.2990    0.0000 C   0  0  0  0  0  0  0  0  0  0  0  0
  1  2  1  0
  2  3  2  0
  3  4  1  0
  4  5  2  0
  5  6  1  0
  6  7  1  0
  7  8  1  0
  8  9  2  0
  9 10  1  0
 10 11  2  0
 11 12  1  0
 12 13  2  0
 13 14  1  0
 14 15  1  0
 15 16  1  0
 16 17  1  0
 17 18  1  0
 18 19  1  0
 19 20  1  0
 20 21  1  0
 21 22  1  0
 22 23  1  0
 23 24  1  0
 14 25  2  0
 25 26  1  0
 26 27  2  0
  6 28  2  0
 28  2  1  0
 27  8  1  0
 27 12  1  0
 24 19  1  0
M  END
>  <Compound_ID>  (112) 
CHEMBL126623

>  <Active>  (112) 
1.0

>  <Smiles>  (112) 
Brc1cccc(Nc2ncnc3cc(NCCCN4CCOCC4)ncc23)c1

>  <canonical_smi>  (112) 
Brc1cccc(Nc2ncnc3cc(NCCCN4CCOCC4)ncc23)c1

>  <Set>  (112) 
G2 active

>  <Set_type>  (112) 
Train

>  <MW>  (112) 
443.35

>  <HBD>  (112) 
2

>  <HBA>  (112) 
7

>  <NRB>  (112) 
7

>  <NR>  (112) 
4

>  <NAR>  (112) 
3

>  <PSA>  (112) 
75.2

>  <Standard Type>  (112) 
nan

>  <Standard Relation>  (112) 
nan

>  <Standard Units>  (112) 
nan

>  <Standard Value>  (112) 
nan

>  <Assay ChEMBL ID>  (112) 
nan

>  <Assay Description>  (112) 
nan

>  <BAO Label>  (112) 
nan

$$$$

     RDKit          2D

 29 31  0  0  0  0  0  0  0  0999 V2000
    9.7500   -3.8971    0.0000 C   0  0  0  0  0  0  0  0  0  0  0  0
    8.2500   -3.8971    0.0000 N   0  0  0  0  0  0  0  0  0  0  0  0
    7.5000   -5.1962    0.0000 C   0  0  0  0  0  0  0  0  0  0  0  0
    7.5000   -2.5981    0.0000 C   0  0  0  0  0  0  0  0  0  0  0  0
    6.0000   -2.5981    0.0000 C   0  0  0  0  0  0  0  0  0  0  0  0
    5.2500   -1.2990    0.0000 C   0  0  0  0  0  0  0  0  0  0  0  0
    3.7500   -1.2990    0.0000 C   0  0  0  0  0  0  0  0  0  0  0  0
    3.0000   -2.5981    0.0000 O   0  0  0  0  0  0  0  0  0  0  0  0
    3.0000    0.0000    0.0000 N   0  0  0  0  0  0  0  0  0  0  0  0
    1.5000    0.0000    0.0000 C   0  0  0  0  0  0  0  0  0  0  0  0
    0.7500   -1.2990    0.0000 C   0  0  0  0  0  0  0  0  0  0  0  0
   -0.7500   -1.2990    0.0000 C   0  0  0  0  0  0  0  0  0  0  0  0
   -1.5000   -2.5981    0.0000 C   0  0  0  0  0  0  0  0  0  0  0  0
   -0.7500   -3.8971    0.0000 N   0  0  0  0  0  0  0  0  0  0  0  0
   -1.5000   -5.1962    0.0000 C   0  0  0  0  0  0  0  0  0  0  0  0
   -3.0000   -5.1962    0.0000 C   0  0  0  0  0  0  0  0  0  0  0  0
   -3.7500   -6.4952    0.0000 C   0  0  0  0  0  0  0  0  0  0  0  0
   -3.0000   -7.7942    0.0000 C   0  0  0  0  0  0  0  0  0  0  0  0
   -1.5000   -7.7942    0.0000 C   0  0  0  0  0  0  0  0  0  0  0  0
   -0.7500   -9.0933    0.0000 Br  0  0  0  0  0  0  0  0  0  0  0  0
   -0.7500   -6.4952    0.0000 C   0  0  0  0  0  0  0  0  0  0  0  0
   -3.0000   -2.5981    0.0000 C   0  0  0  0  0  0  0  0  0  0  0  0
   -3.7500   -3.8971    0.0000 C   0  0  0  0  0  0  0  0  0  0  0  0
   -4.5000   -5.1962    0.0000 N   0  0  0  0  0  0  0  0  0  0  0  0
   -3.7500   -1.2990    0.0000 C   0  0  0  0  0  0  0  0  0  0  0  0
   -3.0000    0.0000    0.0000 N   0  0  0  0  0  0  0  0  0  0  0  0
   -1.5000    0.0000    0.0000 C   0  0  0  0  0  0  0  0  0  0  0  0
   -0.7500    1.2990    0.0000 C   0  0  0  0  0  0  0  0  0  0  0  0
    0.7500    1.2990    0.0000 N   0  0  0  0  0  0  0  0  0  0  0  0
  1  2  1  0
  2  3  1  0
  2  4  1  0
  4  5  1  0
  5  6  2  0
  6  7  1  0
  7  8  2  0
  7  9  1  0
  9 10  1  0
 10 11  2  0
 11 12  1  0
 12 13  2  0
 13 14  1  0
 14 15  1  0
 15 16  2  0
 16 17  1  0
 17 18  2  0
 18 19  1  0
 19 20  1  0
 19 21  2  0
 13 22  1  0
 22 23  1  0
 23 24  3  0
 22 25  2  0
 25 26  1  0
 26 27  2  0
 27 28  1  0
 28 29  2  0
 29 10  1  0
 27 12  1  0
 21 15  1  0
M  END
>  <Compound_ID>  (113) 
CHEMBL31276

>  <Active>  (113) 
1.0

>  <Smiles>  (113) 
CN(C)C/C=C/C(=O)Nc1cc2c(Nc3cccc(Br)c3)c(C#N)cnc2cn1

>  <canonical_smi>  (113) 
CN(C)C/C=C/C(=O)Nc1cc2c(Nc3cccc(Br)c3)c(C#N)cnc2cn1

>  <Set>  (113) 
G2 active

>  <Set_type>  (113) 
Train

>  <MW>  (113) 
451.33

>  <HBD>  (113) 
2

>  <HBA>  (113) 
6

>  <NRB>  (113) 
6

>  <NR>  (113) 
3

>  <NAR>  (113) 
3

>  <PSA>  (113) 
93.94

>  <Standard Type>  (113) 
nan

>  <Standard Relation>  (113) 
nan

>  <Standard Units>  (113) 
nan

>  <Standard Value>  (113) 
nan

>  <Assay ChEMBL ID>  (113) 
nan

>  <Assay Description>  (113) 
nan

>  <BAO Label>  (113) 
nan

$$$$

     RDKit          2D

 24 27  0  0  0  0  0  0  0  0999 V2000
   -6.9199   -4.5797    0.0000 N   0  0  0  0  0  0  0  0  0  0  0  0
   -5.4933   -4.1162    0.0000 C   0  0  0  0  0  0  0  0  0  0  0  0
   -5.1814   -2.6490    0.0000 C   0  0  0  0  0  0  0  0  0  0  0  0
   -3.7548   -2.1855    0.0000 C   0  0  0  0  0  0  0  0  0  0  0  0
   -2.6401   -3.1891    0.0000 C   0  0  0  0  0  0  0  0  0  0  0  0
   -1.2135   -2.7256    0.0000 C   0  0  0  0  0  0  0  0  0  0  0  0
   -0.0000   -3.6073    0.0000 N   0  0  0  0  0  0  0  0  0  0  0  0
    1.2135   -2.7256    0.0000 N   0  0  0  0  0  0  0  0  0  0  0  0
    0.7500   -1.2990    0.0000 C   0  0  0  0  0  0  0  0  0  0  0  0
    1.5000    0.0000    0.0000 N   0  0  0  0  0  0  0  0  0  0  0  0
    0.7500    1.2990    0.0000 C   0  0  0  0  0  0  0  0  0  0  0  0
   -0.7500    1.2990    0.0000 N   0  0  0  0  0  0  0  0  0  0  0  0
   -1.5000    0.0000    0.0000 C   0  0  0  0  0  0  0  0  0  0  0  0
   -3.0000    0.0000    0.0000 N   0  0  0  0  0  0  0  0  0  0  0  0
   -3.7500    1.2990    0.0000 C   0  0  0  0  0  0  0  0  0  0  0  0
   -3.0000    2.5981    0.0000 C   0  0  0  0  0  0  0  0  0  0  0  0
   -3.7500    3.8971    0.0000 C   0  0  0  0  0  0  0  0  0  0  0  0
   -5.2500    3.8971    0.0000 C   0  0  0  0  0  0  0  0  0  0  0  0
   -6.0000    2.5981    0.0000 C   0  0  0  0  0  0  0  0  0  0  0  0
   -7.5000    2.5981    0.0000 Cl  0  0  0  0  0  0  0  0  0  0  0  0
   -5.2500    1.2990    0.0000 C   0  0  0  0  0  0  0  0  0  0  0  0
   -0.7500   -1.2990    0.0000 C   0  0  0  0  0  0  0  0  0  0  0  0
   -2.9520   -4.6564    0.0000 C   0  0  0  0  0  0  0  0  0  0  0  0
   -4.3786   -5.1199    0.0000 C   0  0  0  0  0  0  0  0  0  0  0  0
  1  2  1  0
  2  3  2  0
  3  4  1  0
  4  5  2  0
  5  6  1  0
  6  7  1  0
  7  8  1  0
  8  9  2  0
  9 10  1  0
 10 11  2  0
 11 12  1  0
 12 13  2  0
 13 14  1  0
 14 15  1  0
 15 16  2  0
 16 17  1  0
 17 18  2  0
 18 19  1  0
 19 20  1  0
 19 21  2  0
 13 22  1  0
  5 23  1  0
 23 24  2  0
 24  2  1  0
 22  6  2  0
 22  9  1  0
 21 15  1  0
M  END
>  <Compound_ID>  (114) 
CHEMBL332906

>  <Active>  (114) 
1.0

>  <Smiles>  (114) 
Nc1ccc(-c2[nH]nc3ncnc(Nc4cccc(Cl)c4)c23)cc1

>  <canonical_smi>  (114) 
Nc1ccc(-c2[nH]nc3ncnc(Nc4cccc(Cl)c4)c23)cc1

>  <Set>  (114) 
G2 active

>  <Set_type>  (114) 
Train

>  <MW>  (114) 
336.79

>  <HBD>  (114) 
3

>  <HBA>  (114) 
5

>  <NRB>  (114) 
3

>  <NR>  (114) 
4

>  <NAR>  (114) 
4

>  <PSA>  (114) 
92.51

>  <Standard Type>  (114) 
nan

>  <Standard Relation>  (114) 
nan

>  <Standard Units>  (114) 
nan

>  <Standard Value>  (114) 
nan

>  <Assay ChEMBL ID>  (114) 
nan

>  <Assay Description>  (114) 
nan

>  <BAO Label>  (114) 
nan

$$$$

     RDKit          2D

 30 34  0  0  0  0  0  0  0  0999 V2000
   -2.5981  -14.1073    0.0000 O   0  0  0  0  0  0  0  0  0  0  0  0
   -2.5981  -12.6073    0.0000 C   0  0  0  0  0  0  0  0  0  0  0  0
   -1.2990  -11.8573    0.0000 C   0  0  0  0  0  0  0  0  0  0  0  0
   -1.2990  -10.3573    0.0000 N   0  0  0  0  0  0  0  0  0  0  0  0
    0.0000   -9.6073    0.0000 C   0  0  0  0  0  0  0  0  0  0  0  0
    0.0000   -8.1073    0.0000 C   0  0  0  0  0  0  0  0  0  0  0  0
   -1.2990   -7.3573    0.0000 C   0  0  0  0  0  0  0  0  0  0  0  0
   -1.2990   -5.8573    0.0000 C   0  0  0  0  0  0  0  0  0  0  0  0
   -0.0000   -5.1073    0.0000 C   0  0  0  0  0  0  0  0  0  0  0  0
   -0.0000   -3.6073    0.0000 C   0  0  0  0  0  0  0  0  0  0  0  0
    1.2135   -2.7256    0.0000 C   0  0  0  0  0  0  0  0  0  0  0  0
    0.7500   -1.2990    0.0000 C   0  0  0  0  0  0  0  0  0  0  0  0
    1.5000    0.0000    0.0000 N   0  0  0  0  0  0  0  0  0  0  0  0
    0.7500    1.2990    0.0000 C   0  0  0  0  0  0  0  0  0  0  0  0
   -0.7500    1.2990    0.0000 C   0  0  0  0  0  0  0  0  0  0  0  0
   -1.5000    0.0000    0.0000 C   0  0  0  0  0  0  0  0  0  0  0  0
   -3.0000    0.0000    0.0000 N   0  0  0  0  0  0  0  0  0  0  0  0
   -3.7500    1.2990    0.0000 C   0  0  0  0  0  0  0  0  0  0  0  0
   -3.0000    2.5981    0.0000 C   0  0  0  0  0  0  0  0  0  0  0  0
   -3.7500    3.8971    0.0000 C   0  0  0  0  0  0  0  0  0  0  0  0
   -5.2500    3.8971    0.0000 C   0  0  0  0  0  0  0  0  0  0  0  0
   -6.2537    5.0118    0.0000 N   0  0  0  0  0  0  0  0  0  0  0  0
   -7.6240    4.4017    0.0000 C   0  0  0  0  0  0  0  0  0  0  0  0
   -7.4672    2.9099    0.0000 C   0  0  0  0  0  0  0  0  0  0  0  0
   -6.0000    2.5981    0.0000 C   0  0  0  0  0  0  0  0  0  0  0  0
   -5.2500    1.2990    0.0000 C   0  0  0  0  0  0  0  0  0  0  0  0
   -0.7500   -1.2990    0.0000 C   0  0  0  0  0  0  0  0  0  0  0  0
   -1.2135   -2.7256    0.0000 S   0  0  0  0  0  0  0  0  0  0  0  0
    1.2990   -5.8573    0.0000 C   0  0  0  0  0  0  0  0  0  0  0  0
    1.2990   -7.3573    0.0000 C   0  0  0  0  0  0  0  0  0  0  0  0
  1  2  1  0
  2  3  1  0
  3  4  1  0
  4  5  1  0
  5  6  1  0
  6  7  2  0
  7  8  1  0
  8  9  2  0
  9 10  1  0
 10 11  2  0
 11 12  1  0
 12 13  2  0
 13 14  1  0
 14 15  2  0
 15 16  1  0
 16 17  1  0
 17 18  1  0
 18 19  2  0
 19 20  1  0
 20 21  2  0
 21 22  1  0
 22 23  1  0
 23 24  2  0
 24 25  1  0
 25 26  2  0
 16 27  2  0
 27 28  1  0
  9 29  1  0
 29 30  2  0
 30  6  1  0
 28 10  1  0
 27 12  1  0
 26 18  1  0
 25 21  1  0
M  END
>  <Compound_ID>  (115) 
CHEMBL310740

>  <Active>  (115) 
1.0

>  <Smiles>  (115) 
OCCNCc1ccc(-c2cc3nccc(Nc4ccc5[nH]ccc5c4)c3s2)cc1

>  <canonical_smi>  (115) 
OCCNCc1ccc(-c2cc3nccc(Nc4ccc5[nH]ccc5c4)c3s2)cc1

>  <Set>  (115) 
G2 active

>  <Set_type>  (115) 
Train

>  <MW>  (115) 
414.53

>  <HBD>  (115) 
4

>  <HBA>  (115) 
4

>  <NRB>  (115) 
7

>  <NR>  (115) 
5

>  <NAR>  (115) 
5

>  <PSA>  (115) 
72.97

>  <Standard Type>  (115) 
nan

>  <Standard Relation>  (115) 
nan

>  <Standard Units>  (115) 
nan

>  <Standard Value>  (115) 
nan

>  <Assay ChEMBL ID>  (115) 
nan

>  <Assay Description>  (115) 
nan

>  <BAO Label>  (115) 
nan

$$$$

     RDKit          2D

 36 39  0  0  0  0  0  0  0  0999 V2000
    5.2500   -1.2990    0.0000 C   0  0  0  0  0  0  0  0  0  0  0  0
    3.7500   -1.2990    0.0000 C   0  0  0  0  0  0  0  0  0  0  0  0
    3.0000   -2.5981    0.0000 C   0  0  0  0  0  0  0  0  0  0  0  0
    3.7500   -3.8971    0.0000 N   0  0  0  0  0  0  0  0  0  0  0  0
    3.0000   -5.1962    0.0000 C   0  0  0  0  0  0  0  0  0  0  0  0
    5.2500   -3.8971    0.0000 C   0  0  0  0  0  0  0  0  0  0  0  0
    6.0000   -2.5981    0.0000 O   0  0  0  0  0  0  0  0  0  0  0  0
    6.0000   -5.1962    0.0000 C   0  0  0  0  0  0  0  0  0  0  0  0
    7.5000   -5.1962    0.0000 O   0  0  0  0  0  0  0  0  0  0  0  0
    3.0000    0.0000    0.0000 O   0  0  0  0  0  0  0  0  0  0  0  0
    1.5000    0.0000    0.0000 C   0  0  0  0  0  0  0  0  0  0  0  0
    0.7500   -1.2990    0.0000 C   0  0  0  0  0  0  0  0  0  0  0  0
   -0.7500   -1.2990    0.0000 C   0  0  0  0  0  0  0  0  0  0  0  0
   -1.5000    0.0000    0.0000 C   0  0  0  0  0  0  0  0  0  0  0  0
   -0.7500    1.2990    0.0000 C   0  0  0  0  0  0  0  0  0  0  0  0
   -1.5000    2.5981    0.0000 N   0  0  0  0  0  0  0  0  0  0  0  0
   -0.7500    3.8971    0.0000 C   0  0  0  0  0  0  0  0  0  0  0  0
    0.7500    3.8971    0.0000 N   0  0  0  0  0  0  0  0  0  0  0  0
    1.5000    2.5981    0.0000 C   0  0  0  0  0  0  0  0  0  0  0  0
    3.0000    2.5981    0.0000 N   0  0  0  0  0  0  0  0  0  0  0  0
    3.7500    3.8971    0.0000 C   0  0  0  0  0  0  0  0  0  0  0  0
    5.2500    3.8971    0.0000 C   0  0  0  0  0  0  0  0  0  0  0  0
    6.0000    5.1962    0.0000 C   0  0  0  0  0  0  0  0  0  0  0  0
    5.2500    6.4952    0.0000 C   0  0  0  0  0  0  0  0  0  0  0  0
    6.0000    7.7942    0.0000 O   0  0  0  0  0  0  0  0  0  0  0  0
    7.5000    7.7942    0.0000 C   0  0  0  0  0  0  0  0  0  0  0  0
    8.2500    9.0933    0.0000 C   0  0  0  0  0  0  0  0  0  0  0  0
    9.7500    9.0933    0.0000 C   0  0  0  0  0  0  0  0  0  0  0  0
   10.5000   10.3923    0.0000 C   0  0  0  0  0  0  0  0  0  0  0  0
    9.7500   11.6913    0.0000 C   0  0  0  0  0  0  0  0  0  0  0  0
    8.2500   11.6913    0.0000 C   0  0  0  0  0  0  0  0  0  0  0  0
    7.5000   10.3923    0.0000 N   0  0  0  0  0  0  0  0  0  0  0  0
    3.7500    6.4952    0.0000 C   0  0  0  0  0  0  0  0  0  0  0  0
    3.0000    7.7942    0.0000 Cl  0  0  0  0  0  0  0  0  0  0  0  0
    3.0000    5.1962    0.0000 C   0  0  0  0  0  0  0  0  0  0  0  0
    0.7500    1.2990    0.0000 C   0  0  0  0  0  0  0  0  0  0  0  0
  2  1  1  6
  2  3  1  0
  3  4  1  0
  4  5  1  0
  4  6  1  0
  6  7  2  0
  6  8  1  0
  8  9  1  0
  2 10  1  0
 10 11  1  0
 11 12  2  0
 12 13  1  0
 13 14  2  0
 14 15  1  0
 15 16  2  0
 16 17  1  0
 17 18  2  0
 18 19  1  0
 19 20  1  0
 20 21  1  0
 21 22  2  0
 22 23  1  0
 23 24  2  0
 24 25  1  0
 25 26  1  0
 26 27  1  0
 27 28  2  0
 28 29  1  0
 29 30  2  0
 30 31  1  0
 31 32  2  0
 24 33  1  0
 33 34  1  0
 33 35  2  0
 19 36  2  0
 36 11  1  0
 36 15  1  0
 35 21  1  0
 32 27  1  0
M  END
>  <Compound_ID>  (116) 
CHEMBL250132

>  <Active>  (116) 
1.0

>  <Smiles>  (116) 
C[C@H](CN(C)C(=O)CO)Oc1cccc2ncnc(Nc3ccc(OCc4ccccn4)c(Cl)c3)c12

>  <canonical_smi>  (116) 
C[C@H](CN(C)C(=O)CO)Oc1cccc2ncnc(Nc3ccc(OCc4ccccn4)c(Cl)c3)c12

>  <Set>  (116) 
G2 active

>  <Set_type>  (116) 
Train

>  <MW>  (116) 
507.98

>  <HBD>  (116) 
2

>  <HBA>  (116) 
8

>  <NRB>  (116) 
10

>  <NR>  (116) 
4

>  <NAR>  (116) 
4

>  <PSA>  (116) 
109.7

>  <Standard Type>  (116) 
nan

>  <Standard Relation>  (116) 
nan

>  <Standard Units>  (116) 
nan

>  <Standard Value>  (116) 
nan

>  <Assay ChEMBL ID>  (116) 
nan

>  <Assay Description>  (116) 
nan

>  <BAO Label>  (116) 
nan

$$$$

     RDKit          2D

 28 31  0  0  0  0  0  0  0  0999 V2000
    3.7500   -6.4952    0.0000 C   0  0  0  0  0  0  0  0  0  0  0  0
    3.0000   -5.1962    0.0000 C   0  0  0  0  0  0  0  0  0  0  0  0
    1.5000   -5.1962    0.0000 O   0  0  0  0  0  0  0  0  0  0  0  0
    0.7500   -3.8971    0.0000 C   0  0  0  0  0  0  0  0  0  0  0  0
    1.5000   -2.5981    0.0000 C   0  0  0  0  0  0  0  0  0  0  0  0
    0.7500   -1.2990    0.0000 C   0  0  0  0  0  0  0  0  0  0  0  0
    1.5000    0.0000    0.0000 N   0  0  0  0  0  0  0  0  0  0  0  0
    0.7500    1.2990    0.0000 C   0  0  0  0  0  0  0  0  0  0  0  0
   -0.7500    1.2990    0.0000 N   0  0  0  0  0  0  0  0  0  0  0  0
   -1.5000    0.0000    0.0000 C   0  0  0  0  0  0  0  0  0  0  0  0
   -3.0000    0.0000    0.0000 N   0  0  0  0  0  0  0  0  0  0  0  0
   -3.7500    1.2990    0.0000 C   0  0  0  0  0  0  0  0  0  0  0  0
   -3.0000    2.5981    0.0000 C   0  0  0  0  0  0  0  0  0  0  0  0
   -3.7500    3.8971    0.0000 C   0  0  0  0  0  0  0  0  0  0  0  0
   -5.2500    3.8971    0.0000 C   0  0  0  0  0  0  0  0  0  0  0  0
   -6.0000    2.5981    0.0000 C   0  0  0  0  0  0  0  0  0  0  0  0
   -7.5000    2.5981    0.0000 C   0  0  0  0  0  0  0  0  0  0  0  0
   -8.3817    1.3846    0.0000 N   0  0  0  0  0  0  0  0  0  0  0  0
   -9.8083    1.8481    0.0000 C   0  0  0  0  0  0  0  0  0  0  0  0
   -9.8083    3.3481    0.0000 C   0  0  0  0  0  0  0  0  0  0  0  0
   -8.3817    3.8116    0.0000 S   0  0  0  0  0  0  0  0  0  0  0  0
   -5.2500    1.2990    0.0000 C   0  0  0  0  0  0  0  0  0  0  0  0
   -0.7500   -1.2990    0.0000 C   0  0  0  0  0  0  0  0  0  0  0  0
   -1.5000   -2.5981    0.0000 C   0  0  0  0  0  0  0  0  0  0  0  0
   -0.7500   -3.8971    0.0000 C   0  0  0  0  0  0  0  0  0  0  0  0
   -1.5000   -5.1962    0.0000 O   0  0  0  0  0  0  0  0  0  0  0  0
   -3.0000   -5.1962    0.0000 C   0  0  0  0  0  0  0  0  0  0  0  0
   -3.7500   -6.4952    0.0000 C   0  0  0  0  0  0  0  0  0  0  0  0
  1  2  1  0
  2  3  1  0
  3  4  1  0
  4  5  2  0
  5  6  1  0
  6  7  2  0
  7  8  1  0
  8  9  2  0
  9 10  1  0
 10 11  1  0
 11 12  1  0
 12 13  2  0
 13 14  1  0
 14 15  2  0
 15 16  1  0
 16 17  1  0
 17 18  2  0
 18 19  1  0
 19 20  2  0
 20 21  1  0
 16 22  2  0
 10 23  2  0
 23 24  1  0
 24 25  2  0
 25 26  1  0
 26 27  1  0
 27 28  1  0
 25  4  1  0
 23  6  1  0
 22 12  1  0
 21 17  1  0
M  END
>  <Compound_ID>  (117) 
CHEMBL126192

>  <Active>  (117) 
1.0

>  <Smiles>  (117) 
CCOc1cc2ncnc(Nc3cccc(-c4nccs4)c3)c2cc1OCC

>  <canonical_smi>  (117) 
CCOc1cc2ncnc(Nc3cccc(-c4nccs4)c3)c2cc1OCC

>  <Set>  (117) 
G2 active

>  <Set_type>  (117) 
Train

>  <MW>  (117) 
392.48

>  <HBD>  (117) 
1

>  <HBA>  (117) 
6

>  <NRB>  (117) 
7

>  <NR>  (117) 
4

>  <NAR>  (117) 
4

>  <PSA>  (117) 
69.16

>  <Standard Type>  (117) 
nan

>  <Standard Relation>  (117) 
nan

>  <Standard Units>  (117) 
nan

>  <Standard Value>  (117) 
nan

>  <Assay ChEMBL ID>  (117) 
nan

>  <Assay Description>  (117) 
nan

>  <BAO Label>  (117) 
nan

$$$$

     RDKit          2D

 31 34  0  0  0  0  0  0  0  0999 V2000
   -8.2500   -9.0933    0.0000 C   0  0  0  0  0  0  0  0  0  0  0  0
   -7.5000   -7.7942    0.0000 C   0  0  0  0  0  0  0  0  0  0  0  0
   -6.0000   -7.7942    0.0000 C   0  0  0  0  0  0  0  0  0  0  0  0
   -5.2500   -6.4952    0.0000 N   0  0  0  0  0  0  0  0  0  0  0  0
   -6.0000   -5.1962    0.0000 C   0  0  0  0  0  0  0  0  0  0  0  0
   -5.2500   -3.8971    0.0000 C   0  0  0  0  0  0  0  0  0  0  0  0
   -3.7500   -3.8971    0.0000 C   0  0  0  0  0  0  0  0  0  0  0  0
   -3.0000   -2.5981    0.0000 O   0  0  0  0  0  0  0  0  0  0  0  0
   -1.5000   -2.5981    0.0000 C   0  0  0  0  0  0  0  0  0  0  0  0
   -0.7500   -3.8971    0.0000 C   0  0  0  0  0  0  0  0  0  0  0  0
    0.7500   -3.8971    0.0000 C   0  0  0  0  0  0  0  0  0  0  0  0
    1.5000   -5.1962    0.0000 O   0  0  0  0  0  0  0  0  0  0  0  0
    0.7500   -6.4952    0.0000 C   0  0  0  0  0  0  0  0  0  0  0  0
    1.5000   -2.5981    0.0000 C   0  0  0  0  0  0  0  0  0  0  0  0
    0.7500   -1.2990    0.0000 C   0  0  0  0  0  0  0  0  0  0  0  0
    1.5000    0.0000    0.0000 N   0  0  0  0  0  0  0  0  0  0  0  0
    0.7500    1.2990    0.0000 C   0  0  0  0  0  0  0  0  0  0  0  0
   -0.7500    1.2990    0.0000 N   0  0  0  0  0  0  0  0  0  0  0  0
   -1.5000    0.0000    0.0000 C   0  0  0  0  0  0  0  0  0  0  0  0
   -3.0000    0.0000    0.0000 N   0  0  0  0  0  0  0  0  0  0  0  0
   -3.7500    1.2990    0.0000 C   0  0  0  0  0  0  0  0  0  0  0  0
   -3.0000    2.5981    0.0000 C   0  0  0  0  0  0  0  0  0  0  0  0
   -3.7500    3.8971    0.0000 C   0  0  0  0  0  0  0  0  0  0  0  0
   -5.2500    3.8971    0.0000 C   0  0  0  0  0  0  0  0  0  0  0  0
   -6.0000    5.1962    0.0000 F   0  0  0  0  0  0  0  0  0  0  0  0
   -6.0000    2.5981    0.0000 C   0  0  0  0  0  0  0  0  0  0  0  0
   -7.5000    2.5981    0.0000 Cl  0  0  0  0  0  0  0  0  0  0  0  0
   -5.2500    1.2990    0.0000 C   0  0  0  0  0  0  0  0  0  0  0  0
   -0.7500   -1.2990    0.0000 C   0  0  0  0  0  0  0  0  0  0  0  0
   -3.0000   -5.1962    0.0000 C   0  0  0  0  0  0  0  0  0  0  0  0
   -3.7500   -6.4952    0.0000 C   0  0  0  0  0  0  0  0  0  0  0  0
  1  2  1  0
  2  3  1  0
  3  4  1  0
  4  5  1  0
  5  6  1  0
  6  7  1  0
  7  8  1  0
  8  9  1  0
  9 10  2  0
 10 11  1  0
 11 12  1  0
 12 13  1  0
 11 14  2  0
 14 15  1  0
 15 16  2  0
 16 17  1  0
 17 18  2  0
 18 19  1  0
 19 20  1  0
 20 21  1  0
 21 22  2  0
 22 23  1  0
 23 24  2  0
 24 25  1  0
 24 26  1  0
 26 27  1  0
 26 28  2  0
 19 29  2  0
  7 30  1  0
 30 31  1  0
 31  4  1  0
 29  9  1  0
 29 15  1  0
 28 21  1  0
M  END
>  <Compound_ID>  (118) 
CHEMBL203779

>  <Active>  (118) 
1.0

>  <Smiles>  (118) 
CCCN1CCC(Oc2cc(OC)cc3ncnc(Nc4ccc(F)c(Cl)c4)c23)CC1

>  <canonical_smi>  (118) 
CCCN1CCC(Oc2cc(OC)cc3ncnc(Nc4ccc(F)c(Cl)c4)c23)CC1

>  <Set>  (118) 
G2 active

>  <Set_type>  (118) 
Train

>  <MW>  (118) 
444.94

>  <HBD>  (118) 
1

>  <HBA>  (118) 
6

>  <NRB>  (118) 
7

>  <NR>  (118) 
4

>  <NAR>  (118) 
3

>  <PSA>  (118) 
59.51

>  <Standard Type>  (118) 
nan

>  <Standard Relation>  (118) 
nan

>  <Standard Units>  (118) 
nan

>  <Standard Value>  (118) 
nan

>  <Assay ChEMBL ID>  (118) 
nan

>  <Assay Description>  (118) 
nan

>  <BAO Label>  (118) 
nan

$$$$

     RDKit          2D

 30 33  0  0  0  0  0  0  0  0999 V2000
    0.7500   -6.4952    0.0000 C   0  0  0  0  0  0  0  0  0  0  0  0
    1.5000   -5.1962    0.0000 O   0  0  0  0  0  0  0  0  0  0  0  0
    0.7500   -3.8971    0.0000 C   0  0  0  0  0  0  0  0  0  0  0  0
    1.5000   -2.5981    0.0000 C   0  0  0  0  0  0  0  0  0  0  0  0
    0.7500   -1.2990    0.0000 C   0  0  0  0  0  0  0  0  0  0  0  0
    1.5000    0.0000    0.0000 N   0  0  0  0  0  0  0  0  0  0  0  0
    0.7500    1.2990    0.0000 C   0  0  0  0  0  0  0  0  0  0  0  0
   -0.7500    1.2990    0.0000 N   0  0  0  0  0  0  0  0  0  0  0  0
   -1.5000    0.0000    0.0000 C   0  0  0  0  0  0  0  0  0  0  0  0
   -3.0000    0.0000    0.0000 N   0  0  0  0  0  0  0  0  0  0  0  0
   -3.7500    1.2990    0.0000 C   0  0  0  0  0  0  0  0  0  0  0  0
   -3.0000    2.5981    0.0000 C   0  0  0  0  0  0  0  0  0  0  0  0
   -3.7500    3.8971    0.0000 C   0  0  0  0  0  0  0  0  0  0  0  0
   -5.2500    3.8971    0.0000 C   0  0  0  0  0  0  0  0  0  0  0  0
   -6.0000    2.5981    0.0000 C   0  0  0  0  0  0  0  0  0  0  0  0
   -7.5000    2.5981    0.0000 Cl  0  0  0  0  0  0  0  0  0  0  0  0
   -5.2500    1.2990    0.0000 C   0  0  0  0  0  0  0  0  0  0  0  0
   -6.0000    0.0000    0.0000 F   0  0  0  0  0  0  0  0  0  0  0  0
   -0.7500   -1.2990    0.0000 C   0  0  0  0  0  0  0  0  0  0  0  0
   -1.5000   -2.5981    0.0000 C   0  0  0  0  0  0  0  0  0  0  0  0
   -0.7500   -3.8971    0.0000 C   0  0  0  0  0  0  0  0  0  0  0  0
   -1.5000   -5.1962    0.0000 O   0  0  0  0  0  0  0  0  0  0  0  0
   -3.0000   -5.1962    0.0000 C   0  0  0  0  0  0  0  0  0  0  0  0
   -3.7500   -6.4952    0.0000 C   0  0  0  0  0  0  0  0  0  0  0  0
   -5.2500   -6.4952    0.0000 C   0  0  0  0  0  0  0  0  0  0  0  0
   -6.0000   -7.7942    0.0000 C   0  0  0  0  0  0  0  0  0  0  0  0
   -5.2500   -9.0933    0.0000 N   0  0  0  0  0  0  0  0  0  0  0  0
   -6.0000  -10.3923    0.0000 C   0  0  0  0  0  0  0  0  0  0  0  0
   -3.7500   -9.0933    0.0000 C   0  0  0  0  0  0  0  0  0  0  0  0
   -3.0000   -7.7942    0.0000 C   0  0  0  0  0  0  0  0  0  0  0  0
  1  2  1  0
  2  3  1  0
  3  4  2  0
  4  5  1  0
  5  6  2  0
  6  7  1  0
  7  8  2  0
  8  9  1  0
  9 10  1  0
 10 11  1  0
 11 12  2  0
 12 13  1  0
 13 14  2  0
 14 15  1  0
 15 16  1  0
 15 17  2  0
 17 18  1  0
  9 19  2  0
 19 20  1  0
 20 21  2  0
 21 22  1  0
 22 23  1  0
 23 24  1  0
 24 25  1  0
 25 26  1  0
 26 27  1  0
 27 28  1  0
 27 29  1  0
 29 30  1  0
 21  3  1  0
 30 24  1  0
 19  5  1  0
 17 11  1  0
M  END
>  <Compound_ID>  (119) 
CHEMBL213874

>  <Active>  (119) 
1.0

>  <Smiles>  (119) 
COc1cc2ncnc(Nc3cccc(Cl)c3F)c2cc1OCC1CCN(C)CC1

>  <canonical_smi>  (119) 
COc1cc2ncnc(Nc3cccc(Cl)c3F)c2cc1OCC1CCN(C)CC1

>  <Set>  (119) 
G2 active

>  <Set_type>  (119) 
Train

>  <MW>  (119) 
430.91

>  <HBD>  (119) 
1

>  <HBA>  (119) 
6

>  <NRB>  (119) 
6

>  <NR>  (119) 
4

>  <NAR>  (119) 
3

>  <PSA>  (119) 
59.51

>  <Standard Type>  (119) 
nan

>  <Standard Relation>  (119) 
nan

>  <Standard Units>  (119) 
nan

>  <Standard Value>  (119) 
nan

>  <Assay ChEMBL ID>  (119) 
nan

>  <Assay Description>  (119) 
nan

>  <BAO Label>  (119) 
nan

$$$$

     RDKit          2D

 27 30  0  0  0  0  0  0  0  0999 V2000
    6.0000   -0.0000    0.0000 Br  0  0  0  0  0  0  0  0  0  0  0  0
    5.2500   -1.2990    0.0000 C   0  0  0  0  0  0  0  0  0  0  0  0
    6.0000   -2.5981    0.0000 C   0  0  0  0  0  0  0  0  0  0  0  0
    5.2500   -3.8971    0.0000 C   0  0  0  0  0  0  0  0  0  0  0  0
    3.7500   -3.8971    0.0000 C   0  0  0  0  0  0  0  0  0  0  0  0
    3.0000   -2.5981    0.0000 C   0  0  0  0  0  0  0  0  0  0  0  0
    1.5000   -2.5981    0.0000 N   0  0  0  0  0  0  0  0  0  0  0  0
    0.7500   -1.2990    0.0000 C   0  0  0  0  0  0  0  0  0  0  0  0
    1.5000    0.0000    0.0000 N   0  0  0  0  0  0  0  0  0  0  0  0
    0.7500    1.2990    0.0000 C   0  0  0  0  0  0  0  0  0  0  0  0
   -0.7500    1.2990    0.0000 N   0  0  0  0  0  0  0  0  0  0  0  0
   -1.5000    0.0000    0.0000 C   0  0  0  0  0  0  0  0  0  0  0  0
   -3.0000    0.0000    0.0000 C   0  0  0  0  0  0  0  0  0  0  0  0
   -3.7500   -1.2990    0.0000 N   0  0  0  0  0  0  0  0  0  0  0  0
   -3.0000   -2.5981    0.0000 C   0  0  0  0  0  0  0  0  0  0  0  0
   -3.7500   -3.8971    0.0000 N   0  0  0  0  0  0  0  0  0  0  0  0
   -5.2500   -3.8971    0.0000 C   0  0  0  0  0  0  0  0  0  0  0  0
   -6.0000   -5.1962    0.0000 C   0  0  0  0  0  0  0  0  0  0  0  0
   -7.5000   -5.1962    0.0000 C   0  0  0  0  0  0  0  0  0  0  0  0
   -8.2500   -6.4952    0.0000 N   0  0  0  0  0  0  0  0  0  0  0  0
   -7.6399   -7.8655    0.0000 C   0  0  0  0  0  0  0  0  0  0  0  0
   -8.7546   -8.8692    0.0000 C   0  0  0  0  0  0  0  0  0  0  0  0
  -10.0537   -8.1192    0.0000 N   0  0  0  0  0  0  0  0  0  0  0  0
   -9.7418   -6.6520    0.0000 C   0  0  0  0  0  0  0  0  0  0  0  0
   -1.5000   -2.5981    0.0000 N   0  0  0  0  0  0  0  0  0  0  0  0
   -0.7500   -1.2990    0.0000 C   0  0  0  0  0  0  0  0  0  0  0  0
    3.7500   -1.2990    0.0000 C   0  0  0  0  0  0  0  0  0  0  0  0
  1  2  1  0
  2  3  2  0
  3  4  1  0
  4  5  2  0
  5  6  1  0
  6  7  1  0
  7  8  1  0
  8  9  2  0
  9 10  1  0
 10 11  2  0
 11 12  1  0
 12 13  2  0
 13 14  1  0
 14 15  2  0
 15 16  1  0
 16 17  1  0
 17 18  1  0
 18 19  1  0
 19 20  1  0
 20 21  1  0
 21 22  2  0
 22 23  1  0
 23 24  2  0
 15 25  1  0
 25 26  2  0
  6 27  2  0
 27  2  1  0
 26  8  1  0
 26 12  1  0
 24 20  1  0
M  END
>  <Compound_ID>  (120) 
CHEMBL51228

>  <Active>  (120) 
1.0

>  <Smiles>  (120) 
Brc1cccc(Nc2ncnc3cnc(NCCCn4ccnc4)nc23)c1

>  <canonical_smi>  (120) 
Brc1cccc(Nc2ncnc3cnc(NCCCn4ccnc4)nc23)c1

>  <Set>  (120) 
G2 active

>  <Set_type>  (120) 
Train

>  <MW>  (120) 
425.29

>  <HBD>  (120) 
2

>  <HBA>  (120) 
7

>  <NRB>  (120) 
7

>  <NR>  (120) 
4

>  <NAR>  (120) 
4

>  <PSA>  (120) 
93.44

>  <Standard Type>  (120) 
nan

>  <Standard Relation>  (120) 
nan

>  <Standard Units>  (120) 
nan

>  <Standard Value>  (120) 
nan

>  <Assay ChEMBL ID>  (120) 
nan

>  <Assay Description>  (120) 
nan

>  <BAO Label>  (120) 
nan

$$$$

     RDKit          2D

 28 31  0  0  0  0  0  0  0  0999 V2000
    3.0000  -10.3923    0.0000 C   0  0  0  0  0  0  0  0  0  0  0  0
    3.7500   -9.0933    0.0000 O   0  0  0  0  0  0  0  0  0  0  0  0
    3.0000   -7.7942    0.0000 C   0  0  0  0  0  0  0  0  0  0  0  0
    1.5000   -7.7942    0.0000 C   0  0  0  0  0  0  0  0  0  0  0  0
    0.7500   -6.4952    0.0000 C   0  0  0  0  0  0  0  0  0  0  0  0
    1.5000   -5.1962    0.0000 C   0  0  0  0  0  0  0  0  0  0  0  0
    0.7500   -3.8971    0.0000 C   0  0  0  0  0  0  0  0  0  0  0  0
    1.5000   -2.5981    0.0000 N   0  0  0  0  0  0  0  0  0  0  0  0
    0.7500   -1.2990    0.0000 C   0  0  0  0  0  0  0  0  0  0  0  0
    1.5000    0.0000    0.0000 C   0  0  0  0  0  0  0  0  0  0  0  0
    0.7500    1.2990    0.0000 C   0  0  0  0  0  0  0  0  0  0  0  0
    1.5000    2.5981    0.0000 C   0  0  0  0  0  0  0  0  0  0  0  0
    3.0000    2.5981    0.0000 N   0  0  0  0  0  0  0  0  0  0  0  0
    3.7500    3.8971    0.0000 C   0  0  0  0  0  0  0  0  0  0  0  0
    5.2500    3.8971    0.0000 C   0  0  0  0  0  0  0  0  0  0  0  0
    6.0000    5.1962    0.0000 C   0  0  0  0  0  0  0  0  0  0  0  0
    5.2500    6.4952    0.0000 C   0  0  0  0  0  0  0  0  0  0  0  0
    3.7500    6.4952    0.0000 C   0  0  0  0  0  0  0  0  0  0  0  0
    3.0000    7.7942    0.0000 Br  0  0  0  0  0  0  0  0  0  0  0  0
    3.0000    5.1962    0.0000 C   0  0  0  0  0  0  0  0  0  0  0  0
    0.7500    3.8971    0.0000 N   0  0  0  0  0  0  0  0  0  0  0  0
   -0.7500    3.8971    0.0000 C   0  0  0  0  0  0  0  0  0  0  0  0
   -1.5000    2.5981    0.0000 N   0  0  0  0  0  0  0  0  0  0  0  0
   -0.7500    1.2990    0.0000 C   0  0  0  0  0  0  0  0  0  0  0  0
   -1.5000    0.0000    0.0000 C   0  0  0  0  0  0  0  0  0  0  0  0
   -0.7500   -1.2990    0.0000 N   0  0  0  0  0  0  0  0  0  0  0  0
    3.0000   -5.1962    0.0000 C   0  0  0  0  0  0  0  0  0  0  0  0
    3.7500   -6.4952    0.0000 C   0  0  0  0  0  0  0  0  0  0  0  0
  1  2  1  0
  2  3  1  0
  3  4  2  0
  4  5  1  0
  5  6  2  0
  6  7  1  0
  7  8  1  0
  8  9  1  0
  9 10  2  0
 10 11  1  0
 11 12  2  0
 12 13  1  0
 13 14  1  0
 14 15  2  0
 15 16  1  0
 16 17  2  0
 17 18  1  0
 18 19  1  0
 18 20  2  0
 12 21  1  0
 21 22  2  0
 22 23  1  0
 23 24  2  0
 24 25  1  0
 25 26  2  0
  6 27  1  0
 27 28  2  0
 28  3  1  0
 26  9  1  0
 24 11  1  0
 20 14  1  0
M  END
>  <Compound_ID>  (121) 
CHEMBL53299

>  <Active>  (121) 
1.0

>  <Smiles>  (121) 
COc1ccc(CNc2cc3c(Nc4cccc(Br)c4)ncnc3cn2)cc1

>  <canonical_smi>  (121) 
COc1ccc(CNc2cc3c(Nc4cccc(Br)c4)ncnc3cn2)cc1

>  <Set>  (121) 
G2 active

>  <Set_type>  (121) 
Train

>  <MW>  (121) 
436.31

>  <HBD>  (121) 
2

>  <HBA>  (121) 
6

>  <NRB>  (121) 
6

>  <NR>  (121) 
4

>  <NAR>  (121) 
4

>  <PSA>  (121) 
71.96

>  <Standard Type>  (121) 
nan

>  <Standard Relation>  (121) 
nan

>  <Standard Units>  (121) 
nan

>  <Standard Value>  (121) 
nan

>  <Assay ChEMBL ID>  (121) 
nan

>  <Assay Description>  (121) 
nan

>  <BAO Label>  (121) 
nan

$$$$

     RDKit          2D

 34 37  0  0  0  0  0  0  0  0999 V2000
   -3.0000   -7.7942    0.0000 C   0  0  0  0  0  0  0  0  0  0  0  0
   -3.7500   -6.4952    0.0000 C   0  0  0  0  0  0  0  0  0  0  0  0
   -3.0000   -5.1962    0.0000 C   0  0  0  0  0  0  0  0  0  0  0  0
   -1.5000   -5.1962    0.0000 O   0  0  0  0  0  0  0  0  0  0  0  0
   -3.7500   -3.8971    0.0000 N   0  0  0  0  0  0  0  0  0  0  0  0
   -3.0000   -2.5981    0.0000 C   0  0  0  0  0  0  0  0  0  0  0  0
   -1.5000   -2.5981    0.0000 N   0  0  0  0  0  0  0  0  0  0  0  0
   -0.7500   -1.2990    0.0000 C   0  0  0  0  0  0  0  0  0  0  0  0
    0.7500   -1.2990    0.0000 C   0  0  0  0  0  0  0  0  0  0  0  0
    1.5000   -2.5981    0.0000 C   0  0  0  0  0  0  0  0  0  0  0  0
    3.0000   -2.5981    0.0000 C   0  0  0  0  0  0  0  0  0  0  0  0
    3.7500   -3.8971    0.0000 C   0  0  0  0  0  0  0  0  0  0  0  0
    5.2500   -3.8971    0.0000 C   0  0  0  0  0  0  0  0  0  0  0  0
    6.0000   -2.5981    0.0000 C   0  0  0  0  0  0  0  0  0  0  0  0
    7.5000   -2.5981    0.0000 F   0  0  0  0  0  0  0  0  0  0  0  0
    5.2500   -1.2990    0.0000 C   0  0  0  0  0  0  0  0  0  0  0  0
    6.0000   -0.0000    0.0000 Cl  0  0  0  0  0  0  0  0  0  0  0  0
    3.7500   -1.2990    0.0000 C   0  0  0  0  0  0  0  0  0  0  0  0
    1.5000    0.0000    0.0000 N   0  0  0  0  0  0  0  0  0  0  0  0
    0.7500    1.2990    0.0000 C   0  0  0  0  0  0  0  0  0  0  0  0
   -0.7500    1.2990    0.0000 N   0  0  0  0  0  0  0  0  0  0  0  0
   -1.5000    0.0000    0.0000 C   0  0  0  0  0  0  0  0  0  0  0  0
   -3.0000    0.0000    0.0000 C   0  0  0  0  0  0  0  0  0  0  0  0
   -3.7500   -1.2990    0.0000 C   0  0  0  0  0  0  0  0  0  0  0  0
   -5.2500   -1.2990    0.0000 C   0  0  0  0  0  0  0  0  0  0  0  0
   -6.0000    0.0000    0.0000 C   0  0  0  0  0  0  0  0  0  0  0  0
   -7.5000    0.0000    0.0000 C   0  0  0  0  0  0  0  0  0  0  0  0
   -8.2500    1.2990    0.0000 C   0  0  0  0  0  0  0  0  0  0  0  0
   -9.7500    1.2990    0.0000 N   0  0  0  0  0  0  0  0  0  0  0  0
  -10.5000    2.5981    0.0000 C   0  0  0  0  0  0  0  0  0  0  0  0
  -12.0000    2.5981    0.0000 C   0  0  0  0  0  0  0  0  0  0  0  0
  -12.7500    1.2990    0.0000 O   0  0  0  0  0  0  0  0  0  0  0  0
  -12.0000    0.0000    0.0000 C   0  0  0  0  0  0  0  0  0  0  0  0
  -10.5000    0.0000    0.0000 C   0  0  0  0  0  0  0  0  0  0  0  0
  1  2  2  0
  2  3  1  0
  3  4  2  0
  3  5  1  0
  5  6  1  0
  6  7  2  0
  7  8  1  0
  8  9  2  0
  9 10  1  0
 10 11  1  0
 11 12  2  0
 12 13  1  0
 13 14  2  0
 14 15  1  0
 14 16  1  0
 16 17  1  0
 16 18  2  0
  9 19  1  0
 19 20  2  0
 20 21  1  0
 21 22  2  0
 22 23  1  0
 23 24  2  0
 24 25  1  0
 25 26  1  0
 26 27  1  0
 27 28  1  0
 28 29  1  0
 29 30  1  0
 30 31  1  0
 31 32  1  0
 32 33  1  0
 33 34  1  0
 24  6  1  0
 34 29  1  0
 22  8  1  0
 18 11  1  0
M  END
>  <Compound_ID>  (122) 
CHEMBL521601

>  <Active>  (122) 
1.0

>  <Smiles>  (122) 
C=CC(=O)Nc1nc2c(Cc3ccc(F)c(Cl)c3)ncnc2cc1CCCCN1CCOCC1

>  <canonical_smi>  (122) 
C=CC(=O)Nc1nc2c(Cc3ccc(F)c(Cl)c3)ncnc2cc1CCCCN1CCOCC1

>  <Set>  (122) 
G2 active

>  <Set_type>  (122) 
Train

>  <MW>  (122) 
483.98

>  <HBD>  (122) 
1

>  <HBA>  (122) 
6

>  <NRB>  (122) 
9

>  <NR>  (122) 
4

>  <NAR>  (122) 
3

>  <PSA>  (122) 
80.24

>  <Standard Type>  (122) 
nan

>  <Standard Relation>  (122) 
nan

>  <Standard Units>  (122) 
nan

>  <Standard Value>  (122) 
nan

>  <Assay ChEMBL ID>  (122) 
nan

>  <Assay Description>  (122) 
nan

>  <BAO Label>  (122) 
nan

$$$$

     RDKit          2D

 32 35  0  0  0  0  0  0  0  0999 V2000
    5.2500   -3.8971    0.0000 C   0  0  0  0  0  0  0  0  0  0  0  0
    3.7500   -3.8971    0.0000 C   0  0  0  0  0  0  0  0  0  0  0  0
    3.0000   -2.5981    0.0000 C   0  0  0  0  0  0  0  0  0  0  0  0
    3.7500   -1.2990    0.0000 O   0  0  0  0  0  0  0  0  0  0  0  0
    1.5000   -2.5981    0.0000 C   0  0  0  0  0  0  0  0  0  0  0  0
    0.7500   -3.8971    0.0000 C   0  0  0  0  0  0  0  0  0  0  0  0
    1.5000   -5.1962    0.0000 C   0  0  0  0  0  0  0  0  0  0  0  0
    0.7500   -6.4952    0.0000 C   0  0  0  0  0  0  0  0  0  0  0  0
    1.5000   -7.7942    0.0000 N   0  0  0  0  0  0  0  0  0  0  0  0
    0.7500   -9.0933    0.0000 C   0  0  0  0  0  0  0  0  0  0  0  0
    1.5000  -10.3923    0.0000 C   0  0  0  0  0  0  0  0  0  0  0  0
    3.0000  -10.3923    0.0000 O   0  0  0  0  0  0  0  0  0  0  0  0
    3.7500   -9.0933    0.0000 C   0  0  0  0  0  0  0  0  0  0  0  0
    3.0000   -7.7942    0.0000 C   0  0  0  0  0  0  0  0  0  0  0  0
    0.7500   -1.2990    0.0000 C   0  0  0  0  0  0  0  0  0  0  0  0
    1.5000    0.0000    0.0000 C   0  0  0  0  0  0  0  0  0  0  0  0
    0.7500    1.2990    0.0000 C   0  0  0  0  0  0  0  0  0  0  0  0
    1.5000    2.5981    0.0000 C   0  0  0  0  0  0  0  0  0  0  0  0
    3.0000    2.5981    0.0000 N   0  0  0  0  0  0  0  0  0  0  0  0
    3.7500    3.8971    0.0000 C   0  0  0  0  0  0  0  0  0  0  0  0
    5.2500    3.8971    0.0000 C   0  0  0  0  0  0  0  0  0  0  0  0
    6.0000    5.1962    0.0000 C   0  0  0  0  0  0  0  0  0  0  0  0
    5.2500    6.4952    0.0000 C   0  0  0  0  0  0  0  0  0  0  0  0
    3.7500    6.4952    0.0000 C   0  0  0  0  0  0  0  0  0  0  0  0
    3.0000    7.7942    0.0000 Br  0  0  0  0  0  0  0  0  0  0  0  0
    3.0000    5.1962    0.0000 C   0  0  0  0  0  0  0  0  0  0  0  0
    0.7500    3.8971    0.0000 N   0  0  0  0  0  0  0  0  0  0  0  0
   -0.7500    3.8971    0.0000 C   0  0  0  0  0  0  0  0  0  0  0  0
   -1.5000    2.5981    0.0000 N   0  0  0  0  0  0  0  0  0  0  0  0
   -0.7500    1.2990    0.0000 C   0  0  0  0  0  0  0  0  0  0  0  0
   -1.5000    0.0000    0.0000 C   0  0  0  0  0  0  0  0  0  0  0  0
   -0.7500   -1.2990    0.0000 N   0  0  0  0  0  0  0  0  0  0  0  0
  1  2  2  0
  2  3  1  0
  3  4  2  0
  3  5  1  0
  5  6  1  0
  6  7  1  0
  7  8  1  0
  8  9  1  0
  9 10  1  0
 10 11  1  0
 11 12  1  0
 12 13  1  0
 13 14  1  0
  5 15  1  0
 15 16  2  0
 16 17  1  0
 17 18  2  0
 18 19  1  0
 19 20  1  0
 20 21  2  0
 21 22  1  0
 22 23  2  0
 23 24  1  0
 24 25  1  0
 24 26  2  0
 18 27  1  0
 27 28  2  0
 28 29  1  0
 29 30  2  0
 30 31  1  0
 31 32  2  0
 14  9  1  0
 32 15  1  0
 30 17  1  0
 26 20  1  0
M  END
>  <Compound_ID>  (123) 
CHEMBL510597

>  <Active>  (123) 
1.0

>  <Smiles>  (123) 
C=CC(=O)C(CCCN1CCOCC1)c1cc2c(Nc3cccc(Br)c3)ncnc2cn1

>  <canonical_smi>  (123) 
C=CC(=O)C(CCCN1CCOCC1)c1cc2c(Nc3cccc(Br)c3)ncnc2cn1

>  <Set>  (123) 
G2 active

>  <Set_type>  (123) 
Train

>  <MW>  (123) 
496.41

>  <HBD>  (123) 
1

>  <HBA>  (123) 
7

>  <NRB>  (123) 
9

>  <NR>  (123) 
4

>  <NAR>  (123) 
3

>  <PSA>  (123) 
80.24

>  <Standard Type>  (123) 
nan

>  <Standard Relation>  (123) 
nan

>  <Standard Units>  (123) 
nan

>  <Standard Value>  (123) 
nan

>  <Assay ChEMBL ID>  (123) 
nan

>  <Assay Description>  (123) 
nan

>  <BAO Label>  (123) 
nan

$$$$

     RDKit          2D

 34 37  0  0  0  0  0  0  0  0999 V2000
   -3.0000   -7.7942    0.0000 C   0  0  0  0  0  0  0  0  0  0  0  0
   -3.7500   -6.4952    0.0000 C   0  0  0  0  0  0  0  0  0  0  0  0
   -3.0000   -5.1962    0.0000 C   0  0  0  0  0  0  0  0  0  0  0  0
   -1.5000   -5.1962    0.0000 O   0  0  0  0  0  0  0  0  0  0  0  0
   -3.7500   -3.8971    0.0000 N   0  0  0  0  0  0  0  0  0  0  0  0
   -3.0000   -2.5981    0.0000 C   0  0  0  0  0  0  0  0  0  0  0  0
   -1.5000   -2.5981    0.0000 N   0  0  0  0  0  0  0  0  0  0  0  0
   -0.7500   -1.2990    0.0000 C   0  0  0  0  0  0  0  0  0  0  0  0
    0.7500   -1.2990    0.0000 C   0  0  0  0  0  0  0  0  0  0  0  0
    1.5000   -2.5981    0.0000 N   0  0  0  0  0  0  0  0  0  0  0  0
    3.0000   -2.5981    0.0000 C   0  0  0  0  0  0  0  0  0  0  0  0
    3.7500   -3.8971    0.0000 C   0  0  0  0  0  0  0  0  0  0  0  0
    5.2500   -3.8971    0.0000 C   0  0  0  0  0  0  0  0  0  0  0  0
    6.0000   -2.5981    0.0000 C   0  0  0  0  0  0  0  0  0  0  0  0
    7.5000   -2.5981    0.0000 F   0  0  0  0  0  0  0  0  0  0  0  0
    5.2500   -1.2990    0.0000 C   0  0  0  0  0  0  0  0  0  0  0  0
    6.0000   -0.0000    0.0000 Cl  0  0  0  0  0  0  0  0  0  0  0  0
    3.7500   -1.2990    0.0000 C   0  0  0  0  0  0  0  0  0  0  0  0
    1.5000    0.0000    0.0000 N   0  0  0  0  0  0  0  0  0  0  0  0
    0.7500    1.2990    0.0000 C   0  0  0  0  0  0  0  0  0  0  0  0
   -0.7500    1.2990    0.0000 N   0  0  0  0  0  0  0  0  0  0  0  0
   -1.5000    0.0000    0.0000 C   0  0  0  0  0  0  0  0  0  0  0  0
   -3.0000    0.0000    0.0000 C   0  0  0  0  0  0  0  0  0  0  0  0
   -3.7500   -1.2990    0.0000 C   0  0  0  0  0  0  0  0  0  0  0  0
   -5.2500   -1.2990    0.0000 C   0  0  0  0  0  0  0  0  0  0  0  0
   -6.0000    0.0000    0.0000 C   0  0  0  0  0  0  0  0  0  0  0  0
   -7.5000    0.0000    0.0000 C   0  0  0  0  0  0  0  0  0  0  0  0
   -8.2500    1.2990    0.0000 C   0  0  0  0  0  0  0  0  0  0  0  0
   -9.7500    1.2990    0.0000 N   0  0  0  0  0  0  0  0  0  0  0  0
  -10.5000    2.5981    0.0000 C   0  0  0  0  0  0  0  0  0  0  0  0
  -12.0000    2.5981    0.0000 C   0  0  0  0  0  0  0  0  0  0  0  0
  -12.7500    1.2990    0.0000 O   0  0  0  0  0  0  0  0  0  0  0  0
  -12.0000    0.0000    0.0000 C   0  0  0  0  0  0  0  0  0  0  0  0
  -10.5000    0.0000    0.0000 C   0  0  0  0  0  0  0  0  0  0  0  0
  1  2  2  0
  2  3  1  0
  3  4  2  0
  3  5  1  0
  5  6  1  0
  6  7  2  0
  7  8  1  0
  8  9  2  0
  9 10  1  0
 10 11  1  0
 11 12  2  0
 12 13  1  0
 13 14  2  0
 14 15  1  0
 14 16  1  0
 16 17  1  0
 16 18  2  0
  9 19  1  0
 19 20  2  0
 20 21  1  0
 21 22  2  0
 22 23  1  0
 23 24  2  0
 24 25  1  0
 25 26  1  0
 26 27  1  0
 27 28  1  0
 28 29  1  0
 29 30  1  0
 30 31  1  0
 31 32  1  0
 32 33  1  0
 33 34  1  0
 24  6  1  0
 34 29  1  0
 22  8  1  0
 18 11  1  0
M  END
>  <Compound_ID>  (124) 
CHEMBL281543

>  <Active>  (124) 
1.0

>  <Smiles>  (124) 
C=CC(=O)Nc1nc2c(Nc3ccc(F)c(Cl)c3)ncnc2cc1CCCCN1CCOCC1

>  <canonical_smi>  (124) 
C=CC(=O)Nc1nc2c(Nc3ccc(F)c(Cl)c3)ncnc2cc1CCCCN1CCOCC1

>  <Set>  (124) 
G2 active

>  <Set_type>  (124) 
Train

>  <MW>  (124) 
484.96

>  <HBD>  (124) 
2

>  <HBA>  (124) 
7

>  <NRB>  (124) 
9

>  <NR>  (124) 
4

>  <NAR>  (124) 
3

>  <PSA>  (124) 
92.27

>  <Standard Type>  (124) 
nan

>  <Standard Relation>  (124) 
nan

>  <Standard Units>  (124) 
nan

>  <Standard Value>  (124) 
nan

>  <Assay ChEMBL ID>  (124) 
nan

>  <Assay Description>  (124) 
nan

>  <BAO Label>  (124) 
nan

$$$$

     RDKit          2D

 28 31  0  0  0  0  0  0  0  0999 V2000
    6.0000   -0.0000    0.0000 Br  0  0  0  0  0  0  0  0  0  0  0  0
    5.2500   -1.2990    0.0000 C   0  0  0  0  0  0  0  0  0  0  0  0
    6.0000   -2.5981    0.0000 C   0  0  0  0  0  0  0  0  0  0  0  0
    5.2500   -3.8971    0.0000 C   0  0  0  0  0  0  0  0  0  0  0  0
    3.7500   -3.8971    0.0000 C   0  0  0  0  0  0  0  0  0  0  0  0
    3.0000   -2.5981    0.0000 C   0  0  0  0  0  0  0  0  0  0  0  0
    1.5000   -2.5981    0.0000 N   0  0  0  0  0  0  0  0  0  0  0  0
    0.7500   -1.2990    0.0000 C   0  0  0  0  0  0  0  0  0  0  0  0
    1.5000    0.0000    0.0000 N   0  0  0  0  0  0  0  0  0  0  0  0
    0.7500    1.2990    0.0000 C   0  0  0  0  0  0  0  0  0  0  0  0
   -0.7500    1.2990    0.0000 N   0  0  0  0  0  0  0  0  0  0  0  0
   -1.5000    0.0000    0.0000 C   0  0  0  0  0  0  0  0  0  0  0  0
   -3.0000    0.0000    0.0000 C   0  0  0  0  0  0  0  0  0  0  0  0
   -3.7500   -1.2990    0.0000 N   0  0  0  0  0  0  0  0  0  0  0  0
   -3.0000   -2.5981    0.0000 C   0  0  0  0  0  0  0  0  0  0  0  0
   -3.7500   -3.8971    0.0000 N   0  0  0  0  0  0  0  0  0  0  0  0
   -5.2500   -3.8971    0.0000 C   0  0  0  0  0  0  0  0  0  0  0  0
   -6.0000   -5.1962    0.0000 C   0  0  0  0  0  0  0  0  0  0  0  0
   -7.5000   -5.1962    0.0000 C   0  0  0  0  0  0  0  0  0  0  0  0
   -8.2500   -6.4952    0.0000 N   0  0  0  0  0  0  0  0  0  0  0  0
   -9.7500   -6.4952    0.0000 C   0  0  0  0  0  0  0  0  0  0  0  0
  -10.5000   -7.7942    0.0000 C   0  0  0  0  0  0  0  0  0  0  0  0
   -9.7500   -9.0933    0.0000 O   0  0  0  0  0  0  0  0  0  0  0  0
   -8.2500   -9.0933    0.0000 C   0  0  0  0  0  0  0  0  0  0  0  0
   -7.5000   -7.7942    0.0000 C   0  0  0  0  0  0  0  0  0  0  0  0
   -1.5000   -2.5981    0.0000 N   0  0  0  0  0  0  0  0  0  0  0  0
   -0.7500   -1.2990    0.0000 C   0  0  0  0  0  0  0  0  0  0  0  0
    3.7500   -1.2990    0.0000 C   0  0  0  0  0  0  0  0  0  0  0  0
  1  2  1  0
  2  3  2  0
  3  4  1  0
  4  5  2  0
  5  6  1  0
  6  7  1  0
  7  8  1  0
  8  9  2  0
  9 10  1  0
 10 11  2  0
 11 12  1  0
 12 13  2  0
 13 14  1  0
 14 15  2  0
 15 16  1  0
 16 17  1  0
 17 18  1  0
 18 19  1  0
 19 20  1  0
 20 21  1  0
 21 22  1  0
 22 23  1  0
 23 24  1  0
 24 25  1  0
 15 26  1  0
 26 27  2  0
  6 28  2  0
 28  2  1  0
 27  8  1  0
 27 12  1  0
 25 20  1  0
M  END
>  <Compound_ID>  (125) 
CHEMBL417420

>  <Active>  (125) 
1.0

>  <Smiles>  (125) 
Brc1cccc(Nc2ncnc3cnc(NCCCN4CCOCC4)nc23)c1

>  <canonical_smi>  (125) 
Brc1cccc(Nc2ncnc3cnc(NCCCN4CCOCC4)nc23)c1

>  <Set>  (125) 
G2 active

>  <Set_type>  (125) 
Train

>  <MW>  (125) 
444.34

>  <HBD>  (125) 
2

>  <HBA>  (125) 
8

>  <NRB>  (125) 
7

>  <NR>  (125) 
4

>  <NAR>  (125) 
3

>  <PSA>  (125) 
88.09

>  <Standard Type>  (125) 
nan

>  <Standard Relation>  (125) 
nan

>  <Standard Units>  (125) 
nan

>  <Standard Value>  (125) 
nan

>  <Assay ChEMBL ID>  (125) 
nan

>  <Assay Description>  (125) 
nan

>  <BAO Label>  (125) 
nan

$$$$

     RDKit          2D

 25 28  0  0  0  0  0  0  0  0999 V2000
    6.0000   -0.0000    0.0000 Cl  0  0  0  0  0  0  0  0  0  0  0  0
    5.2500   -1.2990    0.0000 C   0  0  0  0  0  0  0  0  0  0  0  0
    6.0000   -2.5981    0.0000 C   0  0  0  0  0  0  0  0  0  0  0  0
    5.2500   -3.8971    0.0000 C   0  0  0  0  0  0  0  0  0  0  0  0
    3.7500   -3.8971    0.0000 C   0  0  0  0  0  0  0  0  0  0  0  0
    3.0000   -2.5981    0.0000 C   0  0  0  0  0  0  0  0  0  0  0  0
    1.5000   -2.5981    0.0000 N   0  0  0  0  0  0  0  0  0  0  0  0
    0.7500   -1.2990    0.0000 C   0  0  0  0  0  0  0  0  0  0  0  0
    1.5000    0.0000    0.0000 N   0  0  0  0  0  0  0  0  0  0  0  0
    0.7500    1.2990    0.0000 C   0  0  0  0  0  0  0  0  0  0  0  0
   -0.7500    1.2990    0.0000 N   0  0  0  0  0  0  0  0  0  0  0  0
   -1.5000    0.0000    0.0000 C   0  0  0  0  0  0  0  0  0  0  0  0
   -2.9672   -0.3119    0.0000 N   0  0  0  0  0  0  0  0  0  0  0  0
   -3.1240   -1.8037    0.0000 N   0  0  0  0  0  0  0  0  0  0  0  0
   -1.7537   -2.4138    0.0000 C   0  0  0  0  0  0  0  0  0  0  0  0
   -1.4418   -3.8810    0.0000 N   0  0  0  0  0  0  0  0  0  0  0  0
   -2.5565   -4.8847    0.0000 C   0  0  0  0  0  0  0  0  0  0  0  0
   -2.2447   -6.3519    0.0000 C   0  0  0  0  0  0  0  0  0  0  0  0
   -3.3594   -7.3556    0.0000 C   0  0  0  0  0  0  0  0  0  0  0  0
   -3.0475   -8.8228    0.0000 C   0  0  0  0  0  0  0  0  0  0  0  0
   -1.6209   -9.2863    0.0000 C   0  0  0  0  0  0  0  0  0  0  0  0
   -0.5062   -8.2826    0.0000 C   0  0  0  0  0  0  0  0  0  0  0  0
   -0.8181   -6.8154    0.0000 C   0  0  0  0  0  0  0  0  0  0  0  0
   -0.7500   -1.2990    0.0000 C   0  0  0  0  0  0  0  0  0  0  0  0
    3.7500   -1.2990    0.0000 C   0  0  0  0  0  0  0  0  0  0  0  0
  1  2  1  0
  2  3  2  0
  3  4  1  0
  4  5  2  0
  5  6  1  0
  6  7  1  0
  7  8  1  0
  8  9  1  0
  9 10  1  0
 10 11  2  0
 11 12  1  0
 12 13  2  0
 13 14  1  0
 14 15  2  0
 15 16  1  0
 16 17  1  0
 17 18  1  0
 18 19  2  0
 19 20  1  0
 20 21  2  0
 21 22  1  0
 22 23  2  0
 15 24  1  0
  6 25  2  0
 25  2  1  0
 24  8  2  0
 24 12  1  0
 23 18  1  0
M  END
>  <Compound_ID>  (126) 
CHEMBL121796

>  <Active>  (126) 
1.0

>  <Smiles>  (126) 
Clc1cccc(Nc2[nH]cnc3nnc(NCc4ccccc4)c2-3)c1

>  <canonical_smi>  (126) 
Clc1cccc(Nc2[nH]cnc3nnc(NCc4ccccc4)c2-3)c1

>  <Set>  (126) 
G2 active

>  <Set_type>  (126) 
Train

>  <MW>  (126) 
350.81

>  <HBD>  (126) 
3

>  <HBA>  (126) 
5

>  <NRB>  (126) 
5

>  <NR>  (126) 
4

>  <NAR>  (126) 
4

>  <PSA>  (126) 
78.52

>  <Standard Type>  (126) 
nan

>  <Standard Relation>  (126) 
nan

>  <Standard Units>  (126) 
nan

>  <Standard Value>  (126) 
nan

>  <Assay ChEMBL ID>  (126) 
nan

>  <Assay Description>  (126) 
nan

>  <BAO Label>  (126) 
nan

$$$$

     RDKit          2D

 32 35  0  0  0  0  0  0  0  0999 V2000
   -7.5000   -5.1962    0.0000 C   0  0  0  0  0  0  0  0  0  0  0  0
   -6.0000   -5.1962    0.0000 C   0  0  0  0  0  0  0  0  0  0  0  0
   -5.2500   -3.8971    0.0000 C   0  0  0  0  0  0  0  0  0  0  0  0
   -6.0000   -2.5981    0.0000 O   0  0  0  0  0  0  0  0  0  0  0  0
   -3.7500   -3.8971    0.0000 N   0  0  0  0  0  0  0  0  0  0  0  0
   -3.0000   -2.5981    0.0000 C   0  0  0  0  0  0  0  0  0  0  0  0
   -1.5000   -2.5981    0.0000 C   0  0  0  0  0  0  0  0  0  0  0  0
   -0.7500   -1.2990    0.0000 C   0  0  0  0  0  0  0  0  0  0  0  0
    0.7500   -1.2990    0.0000 C   0  0  0  0  0  0  0  0  0  0  0  0
    1.5000   -2.5981    0.0000 N   0  0  0  0  0  0  0  0  0  0  0  0
    3.0000   -2.5981    0.0000 C   0  0  0  0  0  0  0  0  0  0  0  0
    3.7500   -3.8971    0.0000 C   0  0  0  0  0  0  0  0  0  0  0  0
    5.2500   -3.8971    0.0000 C   0  0  0  0  0  0  0  0  0  0  0  0
    6.0000   -2.5981    0.0000 C   0  0  0  0  0  0  0  0  0  0  0  0
    5.2500   -1.2990    0.0000 C   0  0  0  0  0  0  0  0  0  0  0  0
    6.0000   -0.0000    0.0000 Br  0  0  0  0  0  0  0  0  0  0  0  0
    3.7500   -1.2990    0.0000 C   0  0  0  0  0  0  0  0  0  0  0  0
    1.5000    0.0000    0.0000 N   0  0  0  0  0  0  0  0  0  0  0  0
    0.7500    1.2990    0.0000 C   0  0  0  0  0  0  0  0  0  0  0  0
   -0.7500    1.2990    0.0000 N   0  0  0  0  0  0  0  0  0  0  0  0
   -1.5000    0.0000    0.0000 C   0  0  0  0  0  0  0  0  0  0  0  0
   -3.0000    0.0000    0.0000 C   0  0  0  0  0  0  0  0  0  0  0  0
   -3.7500   -1.2990    0.0000 C   0  0  0  0  0  0  0  0  0  0  0  0
   -5.2500   -1.2990    0.0000 O   0  0  0  0  0  0  0  0  0  0  0  0
   -6.0000    0.0000    0.0000 C   0  0  0  0  0  0  0  0  0  0  0  0
   -7.5000    0.0000    0.0000 C   0  0  0  0  0  0  0  0  0  0  0  0
   -8.2500    1.2990    0.0000 C   0  0  0  0  0  0  0  0  0  0  0  0
   -9.7500    1.2990    0.0000 N   0  0  0  0  0  0  0  0  0  0  0  0
  -10.6317    0.0855    0.0000 C   0  0  0  0  0  0  0  0  0  0  0  0
  -12.0583    0.5490    0.0000 C   0  0  0  0  0  0  0  0  0  0  0  0
  -12.0583    2.0490    0.0000 N   0  0  0  0  0  0  0  0  0  0  0  0
  -10.6317    2.5126    0.0000 C   0  0  0  0  0  0  0  0  0  0  0  0
  1  2  2  0
  2  3  1  0
  3  4  2  0
  3  5  1  0
  5  6  1  0
  6  7  2  0
  7  8  1  0
  8  9  2  0
  9 10  1  0
 10 11  1  0
 11 12  2  0
 12 13  1  0
 13 14  2  0
 14 15  1  0
 15 16  1  0
 15 17  2  0
  9 18  1  0
 18 19  2  0
 19 20  1  0
 20 21  2  0
 21 22  1  0
 22 23  2  0
 23 24  1  0
 24 25  1  0
 25 26  1  0
 26 27  1  0
 27 28  1  0
 28 29  1  0
 29 30  2  0
 30 31  1  0
 31 32  2  0
 23  6  1  0
 32 28  1  0
 21  8  1  0
 17 11  1  0
M  END
>  <Compound_ID>  (127) 
CHEMBL286343

>  <Active>  (127) 
1.0

>  <Smiles>  (127) 
C=CC(=O)Nc1cc2c(Nc3cccc(Br)c3)ncnc2cc1OCCCn1ccnc1

>  <canonical_smi>  (127) 
C=CC(=O)Nc1cc2c(Nc3cccc(Br)c3)ncnc2cc1OCCCn1ccnc1

>  <Set>  (127) 
G2 active

>  <Set_type>  (127) 
Train

>  <MW>  (127) 
493.37

>  <HBD>  (127) 
2

>  <HBA>  (127) 
6

>  <NRB>  (127) 
9

>  <NR>  (127) 
4

>  <NAR>  (127) 
4

>  <PSA>  (127) 
93.96

>  <Standard Type>  (127) 
nan

>  <Standard Relation>  (127) 
nan

>  <Standard Units>  (127) 
nan

>  <Standard Value>  (127) 
nan

>  <Assay ChEMBL ID>  (127) 
nan

>  <Assay Description>  (127) 
nan

>  <BAO Label>  (127) 
nan

$$$$

     RDKit          2D

 35 40  0  0  0  0  0  0  0  0999 V2000
    1.5000    0.0000    0.0000 C   0  0  0  0  0  0  0  0  0  0  0  0
    0.7500   -1.2990    0.0000 C   0  0  0  0  0  0  0  0  0  0  0  0
   -0.7500   -1.2990    0.0000 C   0  0  0  0  0  0  0  0  0  0  0  0
   -1.5000   -2.5981    0.0000 N   0  0  0  0  0  0  0  0  0  0  0  0
   -0.7500   -3.8971    0.0000 C   0  0  0  0  0  0  0  0  0  0  0  0
    0.7500   -3.8971    0.0000 C   0  0  0  0  0  0  0  0  0  0  0  0
    1.5000   -5.1962    0.0000 C   0  0  0  0  0  0  0  0  0  0  0  0
    0.7500   -6.4952    0.0000 C   0  0  0  0  0  0  0  0  0  0  0  0
    1.2135   -7.9218    0.0000 N   0  0  0  0  0  0  0  0  0  0  0  0
    0.0000   -8.8035    0.0000 C   0  0  0  0  0  0  0  0  0  0  0  0
   -1.2135   -7.9218    0.0000 C   0  0  0  0  0  0  0  0  0  0  0  0
   -0.7500   -6.4952    0.0000 C   0  0  0  0  0  0  0  0  0  0  0  0
   -1.5000   -5.1962    0.0000 C   0  0  0  0  0  0  0  0  0  0  0  0
   -1.5000    0.0000    0.0000 C   0  0  0  0  0  0  0  0  0  0  0  0
   -2.9672    0.3119    0.0000 S   0  0  0  0  0  0  0  0  0  0  0  0
   -3.1240    1.8037    0.0000 C   0  0  0  0  0  0  0  0  0  0  0  0
   -4.4231    2.5537    0.0000 C   0  0  0  0  0  0  0  0  0  0  0  0
   -4.4231    4.0537    0.0000 C   0  0  0  0  0  0  0  0  0  0  0  0
   -5.7221    4.8037    0.0000 C   0  0  0  0  0  0  0  0  0  0  0  0
   -7.0211    4.0537    0.0000 C   0  0  0  0  0  0  0  0  0  0  0  0
   -8.3202    4.8037    0.0000 C   0  0  0  0  0  0  0  0  0  0  0  0
   -8.3202    6.3037    0.0000 N   0  0  0  0  0  0  0  0  0  0  0  0
   -9.6192    7.0537    0.0000 C   0  0  0  0  0  0  0  0  0  0  0  0
   -9.6192    8.5537    0.0000 C   0  0  0  0  0  0  0  0  0  0  0  0
  -10.9182    9.3037    0.0000 N   0  0  0  0  0  0  0  0  0  0  0  0
  -10.9182   10.8037    0.0000 C   0  0  0  0  0  0  0  0  0  0  0  0
  -12.2173   11.5537    0.0000 C   0  0  0  0  0  0  0  0  0  0  0  0
  -13.5163   10.8037    0.0000 N   0  0  0  0  0  0  0  0  0  0  0  0
  -13.5163    9.3037    0.0000 C   0  0  0  0  0  0  0  0  0  0  0  0
  -12.2173    8.5537    0.0000 C   0  0  0  0  0  0  0  0  0  0  0  0
   -7.0211    2.5537    0.0000 C   0  0  0  0  0  0  0  0  0  0  0  0
   -5.7221    1.8037    0.0000 C   0  0  0  0  0  0  0  0  0  0  0  0
   -1.7537    2.4138    0.0000 C   0  0  0  0  0  0  0  0  0  0  0  0
   -0.7500    1.2990    0.0000 C   0  0  0  0  0  0  0  0  0  0  0  0
    0.7500    1.2990    0.0000 N   0  0  0  0  0  0  0  0  0  0  0  0
  1  2  2  0
  2  3  1  0
  3  4  1  0
  4  5  1  0
  5  6  2  0
  6  7  1  0
  7  8  2  0
  8  9  1  0
  9 10  1  0
 10 11  2  0
 11 12  1  0
 12 13  2  0
  3 14  2  0
 14 15  1  0
 15 16  1  0
 16 17  1  0
 17 18  2  0
 18 19  1  0
 19 20  2  0
 20 21  1  0
 21 22  1  0
 22 23  1  0
 23 24  1  0
 24 25  1  0
 25 26  1  0
 26 27  1  0
 27 28  1  0
 28 29  1  0
 29 30  1  0
 20 31  1  0
 31 32  2  0
 16 33  2  0
 33 34  1  0
 34 35  2  0
 35  1  1  0
 13  5  1  0
 34 14  1  0
 12  8  1  0
 32 17  1  0
 30 25  1  0
M  END
>  <Compound_ID>  (128) 
CHEMBL80540

>  <Active>  (128) 
1.0

>  <Smiles>  (128) 
c1cc(Nc2ccc3[nH]ccc3c2)c2sc(-c3ccc(CNCCN4CCNCC4)cc3)cc2n1

>  <canonical_smi>  (128) 
c1cc(Nc2ccc3[nH]ccc3c2)c2sc(-c3ccc(CNCCN4CCNCC4)cc3)cc2n1

>  <Set>  (128) 
G2 active

>  <Set_type>  (128) 
Train

>  <MW>  (128) 
482.66

>  <HBD>  (128) 
4

>  <HBA>  (128) 
5

>  <NRB>  (128) 
8

>  <NR>  (128) 
6

>  <NAR>  (128) 
5

>  <PSA>  (128) 
68.01

>  <Standard Type>  (128) 
nan

>  <Standard Relation>  (128) 
nan

>  <Standard Units>  (128) 
nan

>  <Standard Value>  (128) 
nan

>  <Assay ChEMBL ID>  (128) 
nan

>  <Assay Description>  (128) 
nan

>  <BAO Label>  (128) 
nan

$$$$

     RDKit          2D

 27 30  0  0  0  0  0  0  0  0999 V2000
   -1.5000   -7.7942    0.0000 C   0  0  0  0  0  0  0  0  0  0  0  0
   -0.7500   -6.4952    0.0000 N   0  0  0  0  0  0  0  0  0  0  0  0
   -1.5000   -5.1962    0.0000 C   0  0  0  0  0  0  0  0  0  0  0  0
   -0.7500   -3.8971    0.0000 C   0  0  0  0  0  0  0  0  0  0  0  0
    0.7500   -3.8971    0.0000 C   0  0  0  0  0  0  0  0  0  0  0  0
    1.5000   -2.5981    0.0000 N   0  0  0  0  0  0  0  0  0  0  0  0
    0.7500   -1.2990    0.0000 C   0  0  0  0  0  0  0  0  0  0  0  0
    1.5000    0.0000    0.0000 N   0  0  0  0  0  0  0  0  0  0  0  0
    0.7500    1.2990    0.0000 C   0  0  0  0  0  0  0  0  0  0  0  0
   -0.7500    1.2990    0.0000 C   0  0  0  0  0  0  0  0  0  0  0  0
   -1.5000    2.5981    0.0000 N   0  0  0  0  0  0  0  0  0  0  0  0
   -3.0000    2.5981    0.0000 C   0  0  0  0  0  0  0  0  0  0  0  0
   -3.7500    1.2990    0.0000 N   0  0  0  0  0  0  0  0  0  0  0  0
   -3.0000    0.0000    0.0000 C   0  0  0  0  0  0  0  0  0  0  0  0
   -3.7500   -1.2990    0.0000 N   0  0  0  0  0  0  0  0  0  0  0  0
   -5.2500   -1.2990    0.0000 C   0  0  0  0  0  0  0  0  0  0  0  0
   -6.0000    0.0000    0.0000 C   0  0  0  0  0  0  0  0  0  0  0  0
   -7.5000    0.0000    0.0000 C   0  0  0  0  0  0  0  0  0  0  0  0
   -8.2500   -1.2990    0.0000 C   0  0  0  0  0  0  0  0  0  0  0  0
   -9.7500   -1.2990    0.0000 F   0  0  0  0  0  0  0  0  0  0  0  0
   -7.5000   -2.5981    0.0000 C   0  0  0  0  0  0  0  0  0  0  0  0
   -8.2500   -3.8971    0.0000 Cl  0  0  0  0  0  0  0  0  0  0  0  0
   -6.0000   -2.5981    0.0000 C   0  0  0  0  0  0  0  0  0  0  0  0
   -1.5000    0.0000    0.0000 C   0  0  0  0  0  0  0  0  0  0  0  0
   -0.7500   -1.2990    0.0000 N   0  0  0  0  0  0  0  0  0  0  0  0
    1.5000   -5.1962    0.0000 C   0  0  0  0  0  0  0  0  0  0  0  0
    0.7500   -6.4952    0.0000 C   0  0  0  0  0  0  0  0  0  0  0  0
  1  2  1  0
  2  3  1  0
  3  4  1  0
  4  5  1  0
  5  6  1  0
  6  7  1  0
  7  8  2  0
  8  9  1  0
  9 10  2  0
 10 11  1  0
 11 12  2  0
 12 13  1  0
 13 14  2  0
 14 15  1  0
 15 16  1  0
 16 17  2  0
 17 18  1  0
 18 19  2  0
 19 20  1  0
 19 21  1  0
 21 22  1  0
 21 23  2  0
 14 24  1  0
 24 25  2  0
  5 26  1  0
 26 27  1  0
 27  2  1  0
 25  7  1  0
 24 10  1  0
 23 16  1  0
M  END
>  <Compound_ID>  (129) 
CHEMBL258940

>  <Active>  (129) 
1.0

>  <Smiles>  (129) 
CN1CCC(Nc2ncc3ncnc(Nc4ccc(F)c(Cl)c4)c3n2)CC1

>  <canonical_smi>  (129) 
CN1CCC(Nc2ncc3ncnc(Nc4ccc(F)c(Cl)c4)c3n2)CC1

>  <Set>  (129) 
G2 active

>  <Set_type>  (129) 
Train

>  <MW>  (129) 
387.85

>  <HBD>  (129) 
2

>  <HBA>  (129) 
7

>  <NRB>  (129) 
4

>  <NR>  (129) 
4

>  <NAR>  (129) 
3

>  <PSA>  (129) 
78.86

>  <Standard Type>  (129) 
nan

>  <Standard Relation>  (129) 
nan

>  <Standard Units>  (129) 
nan

>  <Standard Value>  (129) 
nan

>  <Assay ChEMBL ID>  (129) 
nan

>  <Assay Description>  (129) 
nan

>  <BAO Label>  (129) 
nan

$$$$

     RDKit          2D

 28 31  0  0  0  0  0  0  0  0999 V2000
    3.7500   -6.4952    0.0000 C   0  0  0  0  0  0  0  0  0  0  0  0
    3.0000   -5.1962    0.0000 C   0  0  0  0  0  0  0  0  0  0  0  0
    1.5000   -5.1962    0.0000 O   0  0  0  0  0  0  0  0  0  0  0  0
    0.7500   -3.8971    0.0000 C   0  0  0  0  0  0  0  0  0  0  0  0
    1.5000   -2.5981    0.0000 C   0  0  0  0  0  0  0  0  0  0  0  0
    0.7500   -1.2990    0.0000 C   0  0  0  0  0  0  0  0  0  0  0  0
    1.5000    0.0000    0.0000 N   0  0  0  0  0  0  0  0  0  0  0  0
    0.7500    1.2990    0.0000 C   0  0  0  0  0  0  0  0  0  0  0  0
   -0.7500    1.2990    0.0000 N   0  0  0  0  0  0  0  0  0  0  0  0
   -1.5000    0.0000    0.0000 C   0  0  0  0  0  0  0  0  0  0  0  0
   -3.0000    0.0000    0.0000 N   0  0  0  0  0  0  0  0  0  0  0  0
   -3.7500    1.2990    0.0000 C   0  0  0  0  0  0  0  0  0  0  0  0
   -3.0000    2.5981    0.0000 C   0  0  0  0  0  0  0  0  0  0  0  0
   -3.7500    3.8971    0.0000 C   0  0  0  0  0  0  0  0  0  0  0  0
   -5.2500    3.8971    0.0000 C   0  0  0  0  0  0  0  0  0  0  0  0
   -6.0000    2.5981    0.0000 C   0  0  0  0  0  0  0  0  0  0  0  0
   -7.5000    2.5981    0.0000 C   0  0  0  0  0  0  0  0  0  0  0  0
   -8.3817    1.3846    0.0000 C   0  0  0  0  0  0  0  0  0  0  0  0
   -9.8083    1.8481    0.0000 C   0  0  0  0  0  0  0  0  0  0  0  0
   -9.8083    3.3481    0.0000 C   0  0  0  0  0  0  0  0  0  0  0  0
   -8.3817    3.8116    0.0000 O   0  0  0  0  0  0  0  0  0  0  0  0
   -5.2500    1.2990    0.0000 C   0  0  0  0  0  0  0  0  0  0  0  0
   -0.7500   -1.2990    0.0000 C   0  0  0  0  0  0  0  0  0  0  0  0
   -1.5000   -2.5981    0.0000 C   0  0  0  0  0  0  0  0  0  0  0  0
   -0.7500   -3.8971    0.0000 C   0  0  0  0  0  0  0  0  0  0  0  0
   -1.5000   -5.1962    0.0000 O   0  0  0  0  0  0  0  0  0  0  0  0
   -3.0000   -5.1962    0.0000 C   0  0  0  0  0  0  0  0  0  0  0  0
   -3.7500   -6.4952    0.0000 C   0  0  0  0  0  0  0  0  0  0  0  0
  1  2  1  0
  2  3  1  0
  3  4  1  0
  4  5  2  0
  5  6  1  0
  6  7  2  0
  7  8  1  0
  8  9  2  0
  9 10  1  0
 10 11  1  0
 11 12  1  0
 12 13  2  0
 13 14  1  0
 14 15  2  0
 15 16  1  0
 16 17  1  0
 17 18  2  0
 18 19  1  0
 19 20  2  0
 20 21  1  0
 16 22  2  0
 10 23  2  0
 23 24  1  0
 24 25  2  0
 25 26  1  0
 26 27  1  0
 27 28  1  0
 25  4  1  0
 23  6  1  0
 22 12  1  0
 21 17  1  0
M  END
>  <Compound_ID>  (130) 
CHEMBL125086

>  <Active>  (130) 
1.0

>  <Smiles>  (130) 
CCOc1cc2ncnc(Nc3cccc(-c4ccco4)c3)c2cc1OCC

>  <canonical_smi>  (130) 
CCOc1cc2ncnc(Nc3cccc(-c4ccco4)c3)c2cc1OCC

>  <Set>  (130) 
G2 active

>  <Set_type>  (130) 
Train

>  <MW>  (130) 
375.43

>  <HBD>  (130) 
1

>  <HBA>  (130) 
6

>  <NRB>  (130) 
7

>  <NR>  (130) 
4

>  <NAR>  (130) 
4

>  <PSA>  (130) 
69.41

>  <Standard Type>  (130) 
nan

>  <Standard Relation>  (130) 
nan

>  <Standard Units>  (130) 
nan

>  <Standard Value>  (130) 
nan

>  <Assay ChEMBL ID>  (130) 
nan

>  <Assay Description>  (130) 
nan

>  <BAO Label>  (130) 
nan

$$$$

     RDKit          2D

 32 35  0  0  0  0  0  0  0  0999 V2000
   -7.5000   -5.1962    0.0000 C   0  0  0  0  0  0  0  0  0  0  0  0
   -6.0000   -5.1962    0.0000 C   0  0  0  0  0  0  0  0  0  0  0  0
   -5.2500   -3.8971    0.0000 C   0  0  0  0  0  0  0  0  0  0  0  0
   -6.0000   -2.5981    0.0000 O   0  0  0  0  0  0  0  0  0  0  0  0
   -3.7500   -3.8971    0.0000 N   0  0  0  0  0  0  0  0  0  0  0  0
   -3.0000   -2.5981    0.0000 C   0  0  0  0  0  0  0  0  0  0  0  0
   -1.5000   -2.5981    0.0000 C   0  0  0  0  0  0  0  0  0  0  0  0
   -0.7500   -1.2990    0.0000 C   0  0  0  0  0  0  0  0  0  0  0  0
    0.7500   -1.2990    0.0000 C   0  0  0  0  0  0  0  0  0  0  0  0
    1.5000   -2.5981    0.0000 C   0  0  0  0  0  0  0  0  0  0  0  0
    3.0000   -2.5981    0.0000 C   0  0  0  0  0  0  0  0  0  0  0  0
    3.7500   -3.8971    0.0000 C   0  0  0  0  0  0  0  0  0  0  0  0
    5.2500   -3.8971    0.0000 C   0  0  0  0  0  0  0  0  0  0  0  0
    6.0000   -2.5981    0.0000 C   0  0  0  0  0  0  0  0  0  0  0  0
    5.2500   -1.2990    0.0000 C   0  0  0  0  0  0  0  0  0  0  0  0
    6.0000   -0.0000    0.0000 Br  0  0  0  0  0  0  0  0  0  0  0  0
    3.7500   -1.2990    0.0000 C   0  0  0  0  0  0  0  0  0  0  0  0
    1.5000    0.0000    0.0000 N   0  0  0  0  0  0  0  0  0  0  0  0
    0.7500    1.2990    0.0000 C   0  0  0  0  0  0  0  0  0  0  0  0
   -0.7500    1.2990    0.0000 N   0  0  0  0  0  0  0  0  0  0  0  0
   -1.5000    0.0000    0.0000 C   0  0  0  0  0  0  0  0  0  0  0  0
   -3.0000    0.0000    0.0000 C   0  0  0  0  0  0  0  0  0  0  0  0
   -3.7500   -1.2990    0.0000 C   0  0  0  0  0  0  0  0  0  0  0  0
   -5.2500   -1.2990    0.0000 O   0  0  0  0  0  0  0  0  0  0  0  0
   -6.0000    0.0000    0.0000 C   0  0  0  0  0  0  0  0  0  0  0  0
   -7.5000    0.0000    0.0000 C   0  0  0  0  0  0  0  0  0  0  0  0
   -8.2500    1.2990    0.0000 C   0  0  0  0  0  0  0  0  0  0  0  0
   -9.7500    1.2990    0.0000 N   0  0  0  0  0  0  0  0  0  0  0  0
  -10.6317    0.0855    0.0000 C   0  0  0  0  0  0  0  0  0  0  0  0
  -12.0583    0.5490    0.0000 C   0  0  0  0  0  0  0  0  0  0  0  0
  -12.0583    2.0490    0.0000 N   0  0  0  0  0  0  0  0  0  0  0  0
  -10.6317    2.5126    0.0000 C   0  0  0  0  0  0  0  0  0  0  0  0
  1  2  2  0
  2  3  1  0
  3  4  2  0
  3  5  1  0
  5  6  1  0
  6  7  2  0
  7  8  1  0
  8  9  2  0
  9 10  1  0
 10 11  1  0
 11 12  2  0
 12 13  1  0
 13 14  2  0
 14 15  1  0
 15 16  1  0
 15 17  2  0
  9 18  1  0
 18 19  2  0
 19 20  1  0
 20 21  2  0
 21 22  1  0
 22 23  2  0
 23 24  1  0
 24 25  1  0
 25 26  1  0
 26 27  1  0
 27 28  1  0
 28 29  1  0
 29 30  2  0
 30 31  1  0
 31 32  2  0
 23  6  1  0
 32 28  1  0
 21  8  1  0
 17 11  1  0
M  END
>  <Compound_ID>  (131) 
CHEMBL473944

>  <Active>  (131) 
1.0

>  <Smiles>  (131) 
C=CC(=O)Nc1cc2c(Cc3cccc(Br)c3)ncnc2cc1OCCCn1ccnc1

>  <canonical_smi>  (131) 
C=CC(=O)Nc1cc2c(Cc3cccc(Br)c3)ncnc2cc1OCCCn1ccnc1

>  <Set>  (131) 
G2 active

>  <Set_type>  (131) 
Train

>  <MW>  (131) 
492.38

>  <HBD>  (131) 
1

>  <HBA>  (131) 
5

>  <NRB>  (131) 
9

>  <NR>  (131) 
4

>  <NAR>  (131) 
4

>  <PSA>  (131) 
81.93

>  <Standard Type>  (131) 
nan

>  <Standard Relation>  (131) 
nan

>  <Standard Units>  (131) 
nan

>  <Standard Value>  (131) 
nan

>  <Assay ChEMBL ID>  (131) 
nan

>  <Assay Description>  (131) 
nan

>  <BAO Label>  (131) 
nan

$$$$

     RDKit          2D

 32 35  0  0  0  0  0  0  0  0999 V2000
    5.2500   -3.8971    0.0000 C   0  0  0  0  0  0  0  0  0  0  0  0
    3.7500   -3.8971    0.0000 C   0  0  0  0  0  0  0  0  0  0  0  0
    3.0000   -2.5981    0.0000 C   0  0  0  0  0  0  0  0  0  0  0  0
    3.7500   -1.2990    0.0000 O   0  0  0  0  0  0  0  0  0  0  0  0
    1.5000   -2.5981    0.0000 C   0  0  0  0  0  0  0  0  0  0  0  0
    0.7500   -3.8971    0.0000 C   0  0  0  0  0  0  0  0  0  0  0  0
    1.5000   -5.1962    0.0000 C   0  0  0  0  0  0  0  0  0  0  0  0
    0.7500   -6.4952    0.0000 C   0  0  0  0  0  0  0  0  0  0  0  0
    1.5000   -7.7942    0.0000 N   0  0  0  0  0  0  0  0  0  0  0  0
    0.7500   -9.0933    0.0000 C   0  0  0  0  0  0  0  0  0  0  0  0
    1.5000  -10.3923    0.0000 C   0  0  0  0  0  0  0  0  0  0  0  0
    3.0000  -10.3923    0.0000 O   0  0  0  0  0  0  0  0  0  0  0  0
    3.7500   -9.0933    0.0000 C   0  0  0  0  0  0  0  0  0  0  0  0
    3.0000   -7.7942    0.0000 C   0  0  0  0  0  0  0  0  0  0  0  0
    0.7500   -1.2990    0.0000 C   0  0  0  0  0  0  0  0  0  0  0  0
    1.5000    0.0000    0.0000 C   0  0  0  0  0  0  0  0  0  0  0  0
    0.7500    1.2990    0.0000 C   0  0  0  0  0  0  0  0  0  0  0  0
   -0.7500    1.2990    0.0000 C   0  0  0  0  0  0  0  0  0  0  0  0
   -1.5000    2.5981    0.0000 N   0  0  0  0  0  0  0  0  0  0  0  0
   -3.0000    2.5981    0.0000 C   0  0  0  0  0  0  0  0  0  0  0  0
   -3.7500    1.2990    0.0000 N   0  0  0  0  0  0  0  0  0  0  0  0
   -3.0000    0.0000    0.0000 C   0  0  0  0  0  0  0  0  0  0  0  0
   -3.7500   -1.2990    0.0000 N   0  0  0  0  0  0  0  0  0  0  0  0
   -5.2500   -1.2990    0.0000 C   0  0  0  0  0  0  0  0  0  0  0  0
   -6.0000    0.0000    0.0000 C   0  0  0  0  0  0  0  0  0  0  0  0
   -7.5000    0.0000    0.0000 C   0  0  0  0  0  0  0  0  0  0  0  0
   -8.2500   -1.2990    0.0000 C   0  0  0  0  0  0  0  0  0  0  0  0
   -7.5000   -2.5981    0.0000 C   0  0  0  0  0  0  0  0  0  0  0  0
   -8.2500   -3.8971    0.0000 Br  0  0  0  0  0  0  0  0  0  0  0  0
   -6.0000   -2.5981    0.0000 C   0  0  0  0  0  0  0  0  0  0  0  0
   -1.5000    0.0000    0.0000 C   0  0  0  0  0  0  0  0  0  0  0  0
   -0.7500   -1.2990    0.0000 C   0  0  0  0  0  0  0  0  0  0  0  0
  1  2  2  0
  2  3  1  0
  3  4  2  0
  3  5  1  0
  5  6  1  0
  6  7  1  0
  7  8  1  0
  8  9  1  0
  9 10  1  0
 10 11  1  0
 11 12  1  0
 12 13  1  0
 13 14  1  0
  5 15  1  0
 15 16  2  0
 16 17  1  0
 17 18  2  0
 18 19  1  0
 19 20  2  0
 20 21  1  0
 21 22  2  0
 22 23  1  0
 23 24  1  0
 24 25  2  0
 25 26  1  0
 26 27  2  0
 27 28  1  0
 28 29  1  0
 28 30  2  0
 22 31  1  0
 31 32  2  0
 14  9  1  0
 32 15  1  0
 31 18  1  0
 30 24  1  0
M  END
>  <Compound_ID>  (132) 
CHEMBL517127

>  <Active>  (132) 
1.0

>  <Smiles>  (132) 
C=CC(=O)C(CCCN1CCOCC1)c1ccc2ncnc(Nc3cccc(Br)c3)c2c1

>  <canonical_smi>  (132) 
C=CC(=O)C(CCCN1CCOCC1)c1ccc2ncnc(Nc3cccc(Br)c3)c2c1

>  <Set>  (132) 
G2 active

>  <Set_type>  (132) 
Train

>  <MW>  (132) 
495.42

>  <HBD>  (132) 
1

>  <HBA>  (132) 
6

>  <NRB>  (132) 
9

>  <NR>  (132) 
4

>  <NAR>  (132) 
3

>  <PSA>  (132) 
67.35

>  <Standard Type>  (132) 
nan

>  <Standard Relation>  (132) 
nan

>  <Standard Units>  (132) 
nan

>  <Standard Value>  (132) 
nan

>  <Assay ChEMBL ID>  (132) 
nan

>  <Assay Description>  (132) 
nan

>  <BAO Label>  (132) 
nan

$$$$

     RDKit          2D

 30 33  0  0  0  0  0  0  0  0999 V2000
    6.0000   -2.5981    0.0000 C   0  0  0  0  0  0  0  0  0  0  0  0
    5.2500   -1.2990    0.0000 C   0  0  0  0  0  0  0  0  0  0  0  0
    3.7500   -1.2990    0.0000 C   0  0  0  0  0  0  0  0  0  0  0  0
    3.0000   -2.5981    0.0000 O   0  0  0  0  0  0  0  0  0  0  0  0
    3.0000    0.0000    0.0000 N   0  0  0  0  0  0  0  0  0  0  0  0
    1.5000    0.0000    0.0000 C   0  0  0  0  0  0  0  0  0  0  0  0
    0.7500   -1.2990    0.0000 C   0  0  0  0  0  0  0  0  0  0  0  0
   -0.7500   -1.2990    0.0000 C   0  0  0  0  0  0  0  0  0  0  0  0
   -1.5000    0.0000    0.0000 C   0  0  0  0  0  0  0  0  0  0  0  0
   -3.0000    0.0000    0.0000 N   0  0  0  0  0  0  0  0  0  0  0  0
   -3.7500    1.2990    0.0000 C   0  0  0  0  0  0  0  0  0  0  0  0
   -3.0000    2.5981    0.0000 N   0  0  0  0  0  0  0  0  0  0  0  0
   -1.5000    2.5981    0.0000 C   0  0  0  0  0  0  0  0  0  0  0  0
   -0.7500    3.8971    0.0000 N   0  0  0  0  0  0  0  0  0  0  0  0
   -1.5000    5.1962    0.0000 C   0  0  0  0  0  0  0  0  0  0  0  0
   -0.7500    6.4952    0.0000 C   0  0  0  0  0  0  0  0  0  0  0  0
   -1.5000    7.7942    0.0000 C   0  0  0  0  0  0  0  0  0  0  0  0
   -3.0000    7.7942    0.0000 C   0  0  0  0  0  0  0  0  0  0  0  0
   -3.7500    9.0933    0.0000 O   0  0  0  0  0  0  0  0  0  0  0  0
   -3.0000   10.3923    0.0000 C   0  0  0  0  0  0  0  0  0  0  0  0
   -3.7500   11.6913    0.0000 C   0  0  0  0  0  0  0  0  0  0  0  0
   -3.0000   12.9904    0.0000 C   0  0  0  0  0  0  0  0  0  0  0  0
   -3.7500   14.2894    0.0000 C   0  0  0  0  0  0  0  0  0  0  0  0
   -5.2500   14.2894    0.0000 C   0  0  0  0  0  0  0  0  0  0  0  0
   -6.0000   12.9904    0.0000 C   0  0  0  0  0  0  0  0  0  0  0  0
   -5.2500   11.6913    0.0000 C   0  0  0  0  0  0  0  0  0  0  0  0
   -3.7500    6.4952    0.0000 C   0  0  0  0  0  0  0  0  0  0  0  0
   -3.0000    5.1962    0.0000 C   0  0  0  0  0  0  0  0  0  0  0  0
   -0.7500    1.2990    0.0000 C   0  0  0  0  0  0  0  0  0  0  0  0
    0.7500    1.2990    0.0000 C   0  0  0  0  0  0  0  0  0  0  0  0
  1  2  2  0
  2  3  1  0
  3  4  2  0
  3  5  1  0
  5  6  1  0
  6  7  2  0
  7  8  1  0
  8  9  2  0
  9 10  1  0
 10 11  2  0
 11 12  1  0
 12 13  2  0
 13 14  1  0
 14 15  1  0
 15 16  2  0
 16 17  1  0
 17 18  2  0
 18 19  1  0
 19 20  1  0
 20 21  1  0
 21 22  2  0
 22 23  1  0
 23 24  2  0
 24 25  1  0
 25 26  2  0
 18 27  1  0
 27 28  2  0
 13 29  1  0
 29 30  2  0
 30  6  1  0
 29  9  1  0
 28 15  1  0
 26 21  1  0
M  END
>  <Compound_ID>  (133) 
CHEMBL430571

>  <Active>  (133) 
1.0

>  <Smiles>  (133) 
C=CC(=O)Nc1ccc2ncnc(Nc3ccc(OCc4ccccc4)cc3)c2c1

>  <canonical_smi>  (133) 
C=CC(=O)Nc1ccc2ncnc(Nc3ccc(OCc4ccccc4)cc3)c2c1

>  <Set>  (133) 
G2 active

>  <Set_type>  (133) 
Train

>  <MW>  (133) 
396.45

>  <HBD>  (133) 
2

>  <HBA>  (133) 
5

>  <NRB>  (133) 
7

>  <NR>  (133) 
4

>  <NAR>  (133) 
4

>  <PSA>  (133) 
76.14

>  <Standard Type>  (133) 
nan

>  <Standard Relation>  (133) 
nan

>  <Standard Units>  (133) 
nan

>  <Standard Value>  (133) 
nan

>  <Assay ChEMBL ID>  (133) 
nan

>  <Assay Description>  (133) 
nan

>  <BAO Label>  (133) 
nan

$$$$

     RDKit          2D

 29 33  0  0  0  0  0  0  0  0999 V2000
    6.0000   -0.0000    0.0000 Br  0  0  0  0  0  0  0  0  0  0  0  0
    5.2500   -1.2990    0.0000 C   0  0  0  0  0  0  0  0  0  0  0  0
    6.0000   -2.5981    0.0000 C   0  0  0  0  0  0  0  0  0  0  0  0
    5.2500   -3.8971    0.0000 C   0  0  0  0  0  0  0  0  0  0  0  0
    3.7500   -3.8971    0.0000 C   0  0  0  0  0  0  0  0  0  0  0  0
    3.0000   -2.5981    0.0000 C   0  0  0  0  0  0  0  0  0  0  0  0
    1.5000   -2.5981    0.0000 N   0  0  0  0  0  0  0  0  0  0  0  0
    0.7500   -1.2990    0.0000 C   0  0  0  0  0  0  0  0  0  0  0  0
    1.5000    0.0000    0.0000 N   0  0  0  0  0  0  0  0  0  0  0  0
    0.7500    1.2990    0.0000 C   0  0  0  0  0  0  0  0  0  0  0  0
   -0.7500    1.2990    0.0000 N   0  0  0  0  0  0  0  0  0  0  0  0
   -1.5000    0.0000    0.0000 C   0  0  0  0  0  0  0  0  0  0  0  0
   -3.0000    0.0000    0.0000 C   0  0  0  0  0  0  0  0  0  0  0  0
   -3.7500   -1.2990    0.0000 C   0  0  0  0  0  0  0  0  0  0  0  0
   -3.0000   -2.5981    0.0000 C   0  0  0  0  0  0  0  0  0  0  0  0
   -4.0037   -3.7128    0.0000 C   0  0  0  0  0  0  0  0  0  0  0  0
   -5.3740   -3.1027    0.0000 C   0  0  0  0  0  0  0  0  0  0  0  0
   -5.2172   -1.6109    0.0000 N   0  0  0  0  0  0  0  0  0  0  0  0
   -6.3319   -0.6072    0.0000 C   0  0  0  0  0  0  0  0  0  0  0  0
   -7.7585   -1.0707    0.0000 C   0  0  0  0  0  0  0  0  0  0  0  0
   -8.8732   -0.0670    0.0000 N   0  0  0  0  0  0  0  0  0  0  0  0
   -8.5614    1.4002    0.0000 C   0  0  0  0  0  0  0  0  0  0  0  0
   -9.6761    2.4039    0.0000 C   0  0  0  0  0  0  0  0  0  0  0  0
  -11.1027    1.9404    0.0000 O   0  0  0  0  0  0  0  0  0  0  0  0
  -11.4145    0.4731    0.0000 C   0  0  0  0  0  0  0  0  0  0  0  0
  -10.2998   -0.5306    0.0000 C   0  0  0  0  0  0  0  0  0  0  0  0
   -1.5000   -2.5981    0.0000 C   0  0  0  0  0  0  0  0  0  0  0  0
   -0.7500   -1.2990    0.0000 C   0  0  0  0  0  0  0  0  0  0  0  0
    3.7500   -1.2990    0.0000 C   0  0  0  0  0  0  0  0  0  0  0  0
  1  2  1  0
  2  3  2  0
  3  4  1  0
  4  5  2  0
  5  6  1  0
  6  7  1  0
  7  8  1  0
  8  9  2  0
  9 10  1  0
 10 11  2  0
 11 12  1  0
 12 13  2  0
 13 14  1  0
 14 15  2  0
 15 16  1  0
 16 17  2  0
 17 18  1  0
 18 19  1  0
 19 20  1  0
 20 21  1  0
 21 22  1  0
 22 23  1  0
 23 24  1  0
 24 25  1  0
 25 26  1  0
 15 27  1  0
 27 28  2  0
  6 29  2  0
 29  2  1  0
 28  8  1  0
 28 12  1  0
 18 14  1  0
 26 21  1  0
M  END
>  <Compound_ID>  (134) 
CHEMBL40130

>  <Active>  (134) 
1.0

>  <Smiles>  (134) 
Brc1cccc(Nc2ncnc3cc4c(ccn4CCN4CCOCC4)cc23)c1

>  <canonical_smi>  (134) 
Brc1cccc(Nc2ncnc3cc4c(ccn4CCN4CCOCC4)cc23)c1

>  <Set>  (134) 
G2 active

>  <Set_type>  (134) 
Train

>  <MW>  (134) 
452.36

>  <HBD>  (134) 
1

>  <HBA>  (134) 
5

>  <NRB>  (134) 
5

>  <NR>  (134) 
5

>  <NAR>  (134) 
4

>  <PSA>  (134) 
55.21

>  <Standard Type>  (134) 
nan

>  <Standard Relation>  (134) 
nan

>  <Standard Units>  (134) 
nan

>  <Standard Value>  (134) 
nan

>  <Assay ChEMBL ID>  (134) 
nan

>  <Assay Description>  (134) 
nan

>  <BAO Label>  (134) 
nan

$$$$

     RDKit          2D

 31 35  0  0  0  0  0  0  0  0999 V2000
   -8.5614    1.4002    0.0000 O   0  0  0  0  0  0  0  0  0  0  0  0
   -8.8732   -0.0670    0.0000 C   0  0  0  0  0  0  0  0  0  0  0  0
   -7.7585   -1.0707    0.0000 C   0  0  0  0  0  0  0  0  0  0  0  0
   -6.3319   -0.6072    0.0000 C   0  0  0  0  0  0  0  0  0  0  0  0
   -5.2172   -1.6109    0.0000 N   0  0  0  0  0  0  0  0  0  0  0  0
   -5.3740   -3.1027    0.0000 N   0  0  0  0  0  0  0  0  0  0  0  0
   -4.0037   -3.7128    0.0000 C   0  0  0  0  0  0  0  0  0  0  0  0
   -3.0000   -2.5981    0.0000 C   0  0  0  0  0  0  0  0  0  0  0  0
   -1.5000   -2.5981    0.0000 C   0  0  0  0  0  0  0  0  0  0  0  0
   -0.7500   -1.2990    0.0000 C   0  0  0  0  0  0  0  0  0  0  0  0
    0.7500   -1.2990    0.0000 C   0  0  0  0  0  0  0  0  0  0  0  0
    1.5000   -2.5981    0.0000 N   0  0  0  0  0  0  0  0  0  0  0  0
    3.0000   -2.5981    0.0000 C   0  0  0  0  0  0  0  0  0  0  0  0
    3.7500   -3.8971    0.0000 C   0  0  0  0  0  0  0  0  0  0  0  0
    5.2500   -3.8971    0.0000 C   0  0  0  0  0  0  0  0  0  0  0  0
    6.0000   -2.5981    0.0000 C   0  0  0  0  0  0  0  0  0  0  0  0
    5.2500   -1.2990    0.0000 C   0  0  0  0  0  0  0  0  0  0  0  0
    6.0000   -0.0000    0.0000 Br  0  0  0  0  0  0  0  0  0  0  0  0
    3.7500   -1.2990    0.0000 C   0  0  0  0  0  0  0  0  0  0  0  0
    1.5000    0.0000    0.0000 N   0  0  0  0  0  0  0  0  0  0  0  0
    0.7500    1.2990    0.0000 C   0  0  0  0  0  0  0  0  0  0  0  0
   -0.7500    1.2990    0.0000 N   0  0  0  0  0  0  0  0  0  0  0  0
   -1.5000    0.0000    0.0000 C   0  0  0  0  0  0  0  0  0  0  0  0
   -3.0000    0.0000    0.0000 C   0  0  0  0  0  0  0  0  0  0  0  0
   -3.7500   -1.2990    0.0000 C   0  0  0  0  0  0  0  0  0  0  0  0
  -10.2998   -0.5306    0.0000 N   0  0  0  0  0  0  0  0  0  0  0  0
  -11.4145    0.4731    0.0000 C   0  0  0  0  0  0  0  0  0  0  0  0
  -12.8411    0.0096    0.0000 C   0  0  0  0  0  0  0  0  0  0  0  0
  -13.1530   -1.4576    0.0000 O   0  0  0  0  0  0  0  0  0  0  0  0
  -12.0383   -2.4613    0.0000 C   0  0  0  0  0  0  0  0  0  0  0  0
  -10.6117   -1.9978    0.0000 C   0  0  0  0  0  0  0  0  0  0  0  0
  1  2  2  0
  2  3  1  0
  3  4  1  0
  4  5  1  0
  5  6  1  0
  6  7  2  0
  7  8  1  0
  8  9  2  0
  9 10  1  0
 10 11  2  0
 11 12  1  0
 12 13  1  0
 13 14  2  0
 14 15  1  0
 15 16  2  0
 16 17  1  0
 17 18  1  0
 17 19  2  0
 11 20  1  0
 20 21  2  0
 21 22  1  0
 22 23  2  0
 23 24  1  0
 24 25  2  0
  2 26  1  0
 26 27  1  0
 27 28  1  0
 28 29  1  0
 29 30  1  0
 30 31  1  0
 25  5  1  0
 31 26  1  0
 25  8  1  0
 23 10  1  0
 19 13  1  0
M  END
>  <Compound_ID>  (135) 
CHEMBL474341

>  <Active>  (135) 
1.0

>  <Smiles>  (135) 
O=C(CCn1ncc2cc3c(Nc4cccc(Br)c4)ncnc3cc21)N1CCOCC1

>  <canonical_smi>  (135) 
O=C(CCn1ncc2cc3c(Nc4cccc(Br)c4)ncnc3cc21)N1CCOCC1

>  <Set>  (135) 
G2 active

>  <Set_type>  (135) 
Train

>  <MW>  (135) 
481.35

>  <HBD>  (135) 
1

>  <HBA>  (135) 
6

>  <NRB>  (135) 
5

>  <NR>  (135) 
5

>  <NAR>  (135) 
4

>  <PSA>  (135) 
85.17

>  <Standard Type>  (135) 
nan

>  <Standard Relation>  (135) 
nan

>  <Standard Units>  (135) 
nan

>  <Standard Value>  (135) 
nan

>  <Assay ChEMBL ID>  (135) 
nan

>  <Assay Description>  (135) 
nan

>  <BAO Label>  (135) 
nan

$$$$

     RDKit          2D

 30 33  0  0  0  0  0  0  0  0999 V2000
   -1.5000  -12.9904    0.0000 C   0  0  0  0  0  0  0  0  0  0  0  0
   -0.7500  -11.6913    0.0000 N   0  0  0  0  0  0  0  0  0  0  0  0
   -1.5000  -10.3923    0.0000 C   0  0  0  0  0  0  0  0  0  0  0  0
   -0.7500   -9.0933    0.0000 C   0  0  0  0  0  0  0  0  0  0  0  0
    0.7500   -9.0933    0.0000 N   0  0  0  0  0  0  0  0  0  0  0  0
    1.5000   -7.7942    0.0000 N   0  0  0  0  0  0  0  0  0  0  0  0
    0.7500   -6.4952    0.0000 C   0  0  0  0  0  0  0  0  0  0  0  0
    1.5000   -5.1962    0.0000 C   0  0  0  0  0  0  0  0  0  0  0  0
    0.7500   -3.8971    0.0000 C   0  0  0  0  0  0  0  0  0  0  0  0
    1.5000   -2.5981    0.0000 N   0  0  0  0  0  0  0  0  0  0  0  0
    0.7500   -1.2990    0.0000 C   0  0  0  0  0  0  0  0  0  0  0  0
    1.5000    0.0000    0.0000 C   0  0  0  0  0  0  0  0  0  0  0  0
    0.7500    1.2990    0.0000 C   0  0  0  0  0  0  0  0  0  0  0  0
    1.5000    2.5981    0.0000 C   0  0  0  0  0  0  0  0  0  0  0  0
    3.0000    2.5981    0.0000 N   0  0  0  0  0  0  0  0  0  0  0  0
    3.7500    3.8971    0.0000 C   0  0  0  0  0  0  0  0  0  0  0  0
    5.2500    3.8971    0.0000 C   0  0  0  0  0  0  0  0  0  0  0  0
    6.0000    5.1962    0.0000 C   0  0  0  0  0  0  0  0  0  0  0  0
    5.2500    6.4952    0.0000 C   0  0  0  0  0  0  0  0  0  0  0  0
    3.7500    6.4952    0.0000 C   0  0  0  0  0  0  0  0  0  0  0  0
    3.0000    7.7942    0.0000 Br  0  0  0  0  0  0  0  0  0  0  0  0
    3.0000    5.1962    0.0000 C   0  0  0  0  0  0  0  0  0  0  0  0
    0.7500    3.8971    0.0000 N   0  0  0  0  0  0  0  0  0  0  0  0
   -0.7500    3.8971    0.0000 C   0  0  0  0  0  0  0  0  0  0  0  0
   -1.5000    2.5981    0.0000 N   0  0  0  0  0  0  0  0  0  0  0  0
   -0.7500    1.2990    0.0000 C   0  0  0  0  0  0  0  0  0  0  0  0
   -1.5000    0.0000    0.0000 C   0  0  0  0  0  0  0  0  0  0  0  0
   -0.7500   -1.2990    0.0000 N   0  0  0  0  0  0  0  0  0  0  0  0
    1.5000  -10.3923    0.0000 C   0  0  0  0  0  0  0  0  0  0  0  0
    0.7500  -11.6913    0.0000 C   0  0  0  0  0  0  0  0  0  0  0  0
  1  2  1  0
  2  3  1  0
  3  4  1  0
  4  5  1  0
  5  6  1  0
  6  7  1  0
  7  8  1  0
  8  9  1  0
  9 10  1  0
 10 11  1  0
 11 12  2  0
 12 13  1  0
 13 14  2  0
 14 15  1  0
 15 16  1  0
 16 17  2  0
 17 18  1  0
 18 19  2  0
 19 20  1  0
 20 21  1  0
 20 22  2  0
 14 23  1  0
 23 24  2  0
 24 25  1  0
 25 26  2  0
 26 27  1  0
 27 28  2  0
  5 29  1  0
 29 30  1  0
 30  2  1  0
 28 11  1  0
 26 13  1  0
 22 16  1  0
M  END
>  <Compound_ID>  (136) 
CHEMBL166307

>  <Active>  (136) 
1.0

>  <Smiles>  (136) 
CN1CCN(NCCCNc2cc3c(Nc4cccc(Br)c4)ncnc3cn2)CC1

>  <canonical_smi>  (136) 
CN1CCN(NCCCNc2cc3c(Nc4cccc(Br)c4)ncnc3cn2)CC1

>  <Set>  (136) 
G2 active

>  <Set_type>  (136) 
Train

>  <MW>  (136) 
471.41

>  <HBD>  (136) 
3

>  <HBA>  (136) 
8

>  <NRB>  (136) 
8

>  <NR>  (136) 
4

>  <NAR>  (136) 
3

>  <PSA>  (136) 
81.24

>  <Standard Type>  (136) 
nan

>  <Standard Relation>  (136) 
nan

>  <Standard Units>  (136) 
nan

>  <Standard Value>  (136) 
nan

>  <Assay ChEMBL ID>  (136) 
nan

>  <Assay Description>  (136) 
nan

>  <BAO Label>  (136) 
nan

$$$$

     RDKit          2D

 22 24  0  0  0  0  0  0  0  0999 V2000
    3.0000   -5.1962    0.0000 C   0  0  0  0  0  0  0  0  0  0  0  0
    1.5000   -5.1962    0.0000 O   0  0  0  0  0  0  0  0  0  0  0  0
    0.7500   -3.8971    0.0000 C   0  0  0  0  0  0  0  0  0  0  0  0
    1.5000   -2.5981    0.0000 C   0  0  0  0  0  0  0  0  0  0  0  0
    0.7500   -1.2990    0.0000 C   0  0  0  0  0  0  0  0  0  0  0  0
    1.5000    0.0000    0.0000 N   0  0  0  0  0  0  0  0  0  0  0  0
    0.7500    1.2990    0.0000 C   0  0  0  0  0  0  0  0  0  0  0  0
   -0.7500    1.2990    0.0000 N   0  0  0  0  0  0  0  0  0  0  0  0
   -1.5000    0.0000    0.0000 C   0  0  0  0  0  0  0  0  0  0  0  0
   -3.0000    0.0000    0.0000 N   0  0  0  0  0  0  0  0  0  0  0  0
   -3.7500    1.2990    0.0000 C   0  0  0  0  0  0  0  0  0  0  0  0
   -5.2500    1.2990    0.0000 C   0  0  0  0  0  0  0  0  0  0  0  0
   -6.0000    2.5981    0.0000 C   0  0  0  0  0  0  0  0  0  0  0  0
   -7.5000    2.5981    0.0000 C   0  0  0  0  0  0  0  0  0  0  0  0
   -8.2500    1.2990    0.0000 C   0  0  0  0  0  0  0  0  0  0  0  0
   -7.5000    0.0000    0.0000 C   0  0  0  0  0  0  0  0  0  0  0  0
   -6.0000    0.0000    0.0000 C   0  0  0  0  0  0  0  0  0  0  0  0
   -0.7500   -1.2990    0.0000 C   0  0  0  0  0  0  0  0  0  0  0  0
   -1.5000   -2.5981    0.0000 C   0  0  0  0  0  0  0  0  0  0  0  0
   -0.7500   -3.8971    0.0000 C   0  0  0  0  0  0  0  0  0  0  0  0
   -1.5000   -5.1962    0.0000 O   0  0  0  0  0  0  0  0  0  0  0  0
   -3.0000   -5.1962    0.0000 C   0  0  0  0  0  0  0  0  0  0  0  0
  1  2  1  0
  2  3  1  0
  3  4  2  0
  4  5  1  0
  5  6  2  0
  6  7  1  0
  7  8  2  0
  8  9  1  0
  9 10  1  0
 10 11  1  0
 11 12  1  0
 12 13  2  0
 13 14  1  0
 14 15  2  0
 15 16  1  0
 16 17  2  0
  9 18  2  0
 18 19  1  0
 19 20  2  0
 20 21  1  0
 21 22  1  0
 20  3  1  0
 18  5  1  0
 17 12  1  0
M  END
>  <Compound_ID>  (137) 
CHEMBL545541

>  <Active>  (137) 
1.0

>  <Smiles>  (137) 
COc1cc2ncnc(NCc3ccccc3)c2cc1OC

>  <canonical_smi>  (137) 
COc1cc2ncnc(NCc3ccccc3)c2cc1OC

>  <Set>  (137) 
G2 active

>  <Set_type>  (137) 
Train

>  <MW>  (137) 
295.34

>  <HBD>  (137) 
1

>  <HBA>  (137) 
5

>  <NRB>  (137) 
5

>  <NR>  (137) 
3

>  <NAR>  (137) 
3

>  <PSA>  (137) 
56.27

>  <Standard Type>  (137) 
nan

>  <Standard Relation>  (137) 
nan

>  <Standard Units>  (137) 
nan

>  <Standard Value>  (137) 
nan

>  <Assay ChEMBL ID>  (137) 
nan

>  <Assay Description>  (137) 
nan

>  <BAO Label>  (137) 
nan

$$$$

     RDKit          2D

 39 43  0  0  0  0  0  0  0  0999 V2000
    3.0565  -15.0103    0.0000 C   0  0  0  0  0  0  0  0  0  0  0  0
    2.1748  -13.7968    0.0000 S   0  0  0  0  0  0  0  0  0  0  0  0
    3.3883  -12.9151    0.0000 O   0  0  0  0  0  0  0  0  0  0  0  0
    0.9613  -14.6785    0.0000 O   0  0  0  0  0  0  0  0  0  0  0  0
    1.2931  -12.5833    0.0000 C   0  0  0  0  0  0  0  0  0  0  0  0
    1.9033  -11.2129    0.0000 C   0  0  0  0  0  0  0  0  0  0  0  0
    1.0216   -9.9994    0.0000 N   0  0  0  0  0  0  0  0  0  0  0  0
    1.6317   -8.6291    0.0000 C   0  0  0  0  0  0  0  0  0  0  0  0
    0.7500   -7.4156    0.0000 C   0  0  0  0  0  0  0  0  0  0  0  0
    1.2135   -5.9890    0.0000 C   0  0  0  0  0  0  0  0  0  0  0  0
   -0.0000   -5.1073    0.0000 C   0  0  0  0  0  0  0  0  0  0  0  0
   -0.0000   -3.6073    0.0000 C   0  0  0  0  0  0  0  0  0  0  0  0
    1.2135   -2.7256    0.0000 C   0  0  0  0  0  0  0  0  0  0  0  0
    0.7500   -1.2990    0.0000 C   0  0  0  0  0  0  0  0  0  0  0  0
    1.5000    0.0000    0.0000 N   0  0  0  0  0  0  0  0  0  0  0  0
    0.7500    1.2990    0.0000 C   0  0  0  0  0  0  0  0  0  0  0  0
   -0.7500    1.2990    0.0000 N   0  0  0  0  0  0  0  0  0  0  0  0
   -1.5000    0.0000    0.0000 C   0  0  0  0  0  0  0  0  0  0  0  0
   -3.0000    0.0000    0.0000 N   0  0  0  0  0  0  0  0  0  0  0  0
   -3.7500    1.2990    0.0000 C   0  0  0  0  0  0  0  0  0  0  0  0
   -3.0000    2.5981    0.0000 C   0  0  0  0  0  0  0  0  0  0  0  0
   -3.7500    3.8971    0.0000 C   0  0  0  0  0  0  0  0  0  0  0  0
   -5.2500    3.8971    0.0000 C   0  0  0  0  0  0  0  0  0  0  0  0
   -6.0000    5.1962    0.0000 O   0  0  0  0  0  0  0  0  0  0  0  0
   -5.2500    6.4952    0.0000 C   0  0  0  0  0  0  0  0  0  0  0  0
   -6.0000    7.7942    0.0000 C   0  0  0  0  0  0  0  0  0  0  0  0
   -5.2500    9.0933    0.0000 C   0  0  0  0  0  0  0  0  0  0  0  0
   -6.0000   10.3923    0.0000 C   0  0  0  0  0  0  0  0  0  0  0  0
   -7.5000   10.3923    0.0000 C   0  0  0  0  0  0  0  0  0  0  0  0
   -8.2500    9.0933    0.0000 C   0  0  0  0  0  0  0  0  0  0  0  0
   -9.7500    9.0933    0.0000 F   0  0  0  0  0  0  0  0  0  0  0  0
   -7.5000    7.7942    0.0000 C   0  0  0  0  0  0  0  0  0  0  0  0
   -6.0000    2.5981    0.0000 C   0  0  0  0  0  0  0  0  0  0  0  0
   -7.5000    2.5981    0.0000 Cl  0  0  0  0  0  0  0  0  0  0  0  0
   -5.2500    1.2990    0.0000 C   0  0  0  0  0  0  0  0  0  0  0  0
   -0.7500   -1.2990    0.0000 C   0  0  0  0  0  0  0  0  0  0  0  0
   -1.2135   -2.7256    0.0000 S   0  0  0  0  0  0  0  0  0  0  0  0
   -1.2135   -5.9890    0.0000 C   0  0  0  0  0  0  0  0  0  0  0  0
   -0.7500   -7.4156    0.0000 O   0  0  0  0  0  0  0  0  0  0  0  0
  1  2  1  0
  2  3  2  0
  2  4  2  0
  2  5  1  0
  5  6  1  0
  6  7  1  0
  7  8  1  0
  8  9  1  0
  9 10  2  0
 10 11  1  0
 11 12  1  0
 12 13  2  0
 13 14  1  0
 14 15  2  0
 15 16  1  0
 16 17  2  0
 17 18  1  0
 18 19  1  0
 19 20  1  0
 20 21  2  0
 21 22  1  0
 22 23  2  0
 23 24  1  0
 24 25  1  0
 25 26  1  0
 26 27  2  0
 27 28  1  0
 28 29  2  0
 29 30  1  0
 30 31  1  0
 30 32  2  0
 23 33  1  0
 33 34  1  0
 33 35  2  0
 18 36  2  0
 36 37  1  0
 11 38  2  0
 38 39  1  0
 39  9  1  0
 37 12  1  0
 36 14  1  0
 35 20  1  0
 32 26  1  0
M  END
>  <Compound_ID>  (138) 
CHEMBL475769

>  <Active>  (138) 
1.0

>  <Smiles>  (138) 
CS(=O)(=O)CCNCc1cc(-c2cc3ncnc(Nc4ccc(OCc5cccc(F)c5)c(Cl)c4)c3s2)co1

>  <canonical_smi>  (138) 
CS(=O)(=O)CCNCc1cc(-c2cc3ncnc(Nc4ccc(OCc5cccc(F)c5)c(Cl)c4)c3s2)co1

>  <Set>  (138) 
G2 active

>  <Set_type>  (138) 
Train

>  <MW>  (138) 
587.1

>  <HBD>  (138) 
2

>  <HBA>  (138) 
8

>  <NRB>  (138) 
11

>  <NR>  (138) 
5

>  <NAR>  (138) 
5

>  <PSA>  (138) 
106.35

>  <Standard Type>  (138) 
nan

>  <Standard Relation>  (138) 
nan

>  <Standard Units>  (138) 
nan

>  <Standard Value>  (138) 
nan

>  <Assay ChEMBL ID>  (138) 
nan

>  <Assay Description>  (138) 
nan

>  <BAO Label>  (138) 
nan

$$$$

     RDKit          2D

 35 39  0  0  0  0  0  0  0  0999 V2000
   -4.0051   -9.6858    0.0000 C   0  0  0  0  0  0  0  0  0  0  0  0
   -3.1235   -8.4723    0.0000 N   0  0  0  0  0  0  0  0  0  0  0  0
   -3.7336   -7.1020    0.0000 C   0  0  0  0  0  0  0  0  0  0  0  0
   -1.6317   -8.6291    0.0000 C   0  0  0  0  0  0  0  0  0  0  0  0
   -0.7500   -7.4156    0.0000 C   0  0  0  0  0  0  0  0  0  0  0  0
    0.7500   -7.4156    0.0000 C   0  0  0  0  0  0  0  0  0  0  0  0
    1.2135   -5.9890    0.0000 C   0  0  0  0  0  0  0  0  0  0  0  0
   -0.0000   -5.1073    0.0000 C   0  0  0  0  0  0  0  0  0  0  0  0
   -0.0000   -3.6073    0.0000 C   0  0  0  0  0  0  0  0  0  0  0  0
    1.2135   -2.7256    0.0000 C   0  0  0  0  0  0  0  0  0  0  0  0
    0.7500   -1.2990    0.0000 C   0  0  0  0  0  0  0  0  0  0  0  0
    1.5000    0.0000    0.0000 N   0  0  0  0  0  0  0  0  0  0  0  0
    0.7500    1.2990    0.0000 C   0  0  0  0  0  0  0  0  0  0  0  0
   -0.7500    1.2990    0.0000 N   0  0  0  0  0  0  0  0  0  0  0  0
   -1.5000    0.0000    0.0000 C   0  0  0  0  0  0  0  0  0  0  0  0
   -3.0000    0.0000    0.0000 N   0  0  0  0  0  0  0  0  0  0  0  0
   -3.7500    1.2990    0.0000 C   0  0  0  0  0  0  0  0  0  0  0  0
   -3.0000    2.5981    0.0000 C   0  0  0  0  0  0  0  0  0  0  0  0
   -3.7500    3.8971    0.0000 C   0  0  0  0  0  0  0  0  0  0  0  0
   -5.2500    3.8971    0.0000 C   0  0  0  0  0  0  0  0  0  0  0  0
   -6.0000    5.1962    0.0000 O   0  0  0  0  0  0  0  0  0  0  0  0
   -5.2500    6.4952    0.0000 C   0  0  0  0  0  0  0  0  0  0  0  0
   -6.0000    7.7942    0.0000 C   0  0  0  0  0  0  0  0  0  0  0  0
   -5.2500    9.0933    0.0000 C   0  0  0  0  0  0  0  0  0  0  0  0
   -6.0000   10.3923    0.0000 C   0  0  0  0  0  0  0  0  0  0  0  0
   -7.5000   10.3923    0.0000 C   0  0  0  0  0  0  0  0  0  0  0  0
   -8.2500    9.0933    0.0000 C   0  0  0  0  0  0  0  0  0  0  0  0
   -9.7500    9.0933    0.0000 F   0  0  0  0  0  0  0  0  0  0  0  0
   -7.5000    7.7942    0.0000 C   0  0  0  0  0  0  0  0  0  0  0  0
   -6.0000    2.5981    0.0000 C   0  0  0  0  0  0  0  0  0  0  0  0
   -7.5000    2.5981    0.0000 Cl  0  0  0  0  0  0  0  0  0  0  0  0
   -5.2500    1.2990    0.0000 C   0  0  0  0  0  0  0  0  0  0  0  0
   -0.7500   -1.2990    0.0000 C   0  0  0  0  0  0  0  0  0  0  0  0
   -1.2135   -2.7256    0.0000 S   0  0  0  0  0  0  0  0  0  0  0  0
   -1.2135   -5.9890    0.0000 N   0  0  0  0  0  0  0  0  0  0  0  0
  1  2  1  0
  2  3  1  0
  2  4  1  0
  4  5  1  0
  5  6  2  0
  6  7  1  0
  7  8  2  0
  8  9  1  0
  9 10  2  0
 10 11  1  0
 11 12  2  0
 12 13  1  0
 13 14  2  0
 14 15  1  0
 15 16  1  0
 16 17  1  0
 17 18  2  0
 18 19  1  0
 19 20  2  0
 20 21  1  0
 21 22  1  0
 22 23  1  0
 23 24  2  0
 24 25  1  0
 25 26  2  0
 26 27  1  0
 27 28  1  0
 27 29  2  0
 20 30  1  0
 30 31  1  0
 30 32  2  0
 15 33  2  0
 33 34  1  0
  8 35  1  0
 35  5  1  0
 34  9  1  0
 33 11  1  0
 32 17  1  0
 29 23  1  0
M  END
>  <Compound_ID>  (139) 
CHEMBL473437

>  <Active>  (139) 
1.0

>  <Smiles>  (139) 
CN(C)Cc1ccc(-c2cc3ncnc(Nc4ccc(OCc5cccc(F)c5)c(Cl)c4)c3s2)[nH]1

>  <canonical_smi>  (139) 
CN(C)Cc1ccc(-c2cc3ncnc(Nc4ccc(OCc5cccc(F)c5)c(Cl)c4)c3s2)[nH]1

>  <Set>  (139) 
G2 active

>  <Set_type>  (139) 
Train

>  <MW>  (139) 
508.02

>  <HBD>  (139) 
2

>  <HBA>  (139) 
5

>  <NRB>  (139) 
8

>  <NR>  (139) 
5

>  <NAR>  (139) 
5

>  <PSA>  (139) 
66.07

>  <Standard Type>  (139) 
nan

>  <Standard Relation>  (139) 
nan

>  <Standard Units>  (139) 
nan

>  <Standard Value>  (139) 
nan

>  <Assay ChEMBL ID>  (139) 
nan

>  <Assay Description>  (139) 
nan

>  <BAO Label>  (139) 
nan

$$$$

     RDKit          2D

 24 26  0  0  0  0  0  0  0  0999 V2000
    3.0000   -5.1962    0.0000 C   0  0  0  0  0  0  0  0  0  0  0  0
    1.5000   -5.1962    0.0000 O   0  0  0  0  0  0  0  0  0  0  0  0
    0.7500   -3.8971    0.0000 C   0  0  0  0  0  0  0  0  0  0  0  0
    1.5000   -2.5981    0.0000 C   0  0  0  0  0  0  0  0  0  0  0  0
    0.7500   -1.2990    0.0000 C   0  0  0  0  0  0  0  0  0  0  0  0
    1.5000    0.0000    0.0000 N   0  0  0  0  0  0  0  0  0  0  0  0
    0.7500    1.2990    0.0000 C   0  0  0  0  0  0  0  0  0  0  0  0
   -0.7500    1.2990    0.0000 N   0  0  0  0  0  0  0  0  0  0  0  0
   -1.5000    0.0000    0.0000 C   0  0  0  0  0  0  0  0  0  0  0  0
   -3.0000    0.0000    0.0000 C   0  0  0  0  0  0  0  0  0  0  0  0
   -3.7500    1.2990    0.0000 C   0  0  0  0  0  0  0  0  0  0  0  0
   -5.2500    1.2990    0.0000 C   0  0  0  0  0  0  0  0  0  0  0  0
   -6.0000    2.5981    0.0000 C   0  0  0  0  0  0  0  0  0  0  0  0
   -7.5000    2.5981    0.0000 C   0  0  0  0  0  0  0  0  0  0  0  0
   -8.2500    3.8971    0.0000 C   0  0  0  0  0  0  0  0  0  0  0  0
   -9.7500    3.8971    0.0000 C   0  0  0  0  0  0  0  0  0  0  0  0
  -10.5000    2.5981    0.0000 C   0  0  0  0  0  0  0  0  0  0  0  0
   -9.7500    1.2990    0.0000 C   0  0  0  0  0  0  0  0  0  0  0  0
   -8.2500    1.2990    0.0000 C   0  0  0  0  0  0  0  0  0  0  0  0
   -0.7500   -1.2990    0.0000 C   0  0  0  0  0  0  0  0  0  0  0  0
   -1.5000   -2.5981    0.0000 C   0  0  0  0  0  0  0  0  0  0  0  0
   -0.7500   -3.8971    0.0000 C   0  0  0  0  0  0  0  0  0  0  0  0
   -1.5000   -5.1962    0.0000 O   0  0  0  0  0  0  0  0  0  0  0  0
   -3.0000   -5.1962    0.0000 C   0  0  0  0  0  0  0  0  0  0  0  0
  1  2  1  0
  2  3  1  0
  3  4  2  0
  4  5  1  0
  5  6  2  0
  6  7  1  0
  7  8  2  0
  8  9  1  0
  9 10  1  0
 10 11  2  0
 11 12  1  0
 12 13  1  0
 13 14  1  0
 14 15  2  0
 15 16  1  0
 16 17  2  0
 17 18  1  0
 18 19  2  0
  9 20  2  0
 20 21  1  0
 21 22  2  0
 22 23  1  0
 23 24  1  0
 22  3  1  0
 20  5  1  0
 19 14  1  0
M  END
>  <Compound_ID>  (140) 
CHEMBL250923

>  <Active>  (140) 
1.0

>  <Smiles>  (140) 
COc1cc2ncnc(/C=C/CCc3ccccc3)c2cc1OC

>  <canonical_smi>  (140) 
COc1cc2ncnc(/C=C/CCc3ccccc3)c2cc1OC

>  <Set>  (140) 
G2 active

>  <Set_type>  (140) 
Train

>  <MW>  (140) 
320.39

>  <HBD>  (140) 
0

>  <HBA>  (140) 
4

>  <NRB>  (140) 
6

>  <NR>  (140) 
3

>  <NAR>  (140) 
3

>  <PSA>  (140) 
44.24

>  <Standard Type>  (140) 
nan

>  <Standard Relation>  (140) 
nan

>  <Standard Units>  (140) 
nan

>  <Standard Value>  (140) 
nan

>  <Assay ChEMBL ID>  (140) 
nan

>  <Assay Description>  (140) 
nan

>  <BAO Label>  (140) 
nan

$$$$

     RDKit          2D

 21 24  0  0  0  0  0  0  0  0999 V2000
   -9.4590    4.8414    0.0000 Br  0  0  0  0  0  0  0  0  0  0  0  0
   -8.0325    5.3050    0.0000 C   0  0  0  0  0  0  0  0  0  0  0  0
   -7.7206    6.7722    0.0000 C   0  0  0  0  0  0  0  0  0  0  0  0
   -6.2940    7.2357    0.0000 C   0  0  0  0  0  0  0  0  0  0  0  0
   -5.1793    6.2320    0.0000 C   0  0  0  0  0  0  0  0  0  0  0  0
   -5.4912    4.7648    0.0000 C   0  0  0  0  0  0  0  0  0  0  0  0
   -4.3764    3.7611    0.0000 N   0  0  0  0  0  0  0  0  0  0  0  0
   -2.9499    4.2246    0.0000 C   0  0  0  0  0  0  0  0  0  0  0  0
   -2.6380    5.6918    0.0000 N   0  0  0  0  0  0  0  0  0  0  0  0
   -1.2114    6.1554    0.0000 C   0  0  0  0  0  0  0  0  0  0  0  0
   -0.0967    5.1517    0.0000 N   0  0  0  0  0  0  0  0  0  0  0  0
   -0.4086    3.6844    0.0000 C   0  0  0  0  0  0  0  0  0  0  0  0
    0.7062    2.6807    0.0000 C   0  0  0  0  0  0  0  0  0  0  0  0
    0.3943    1.2135    0.0000 C   0  0  0  0  0  0  0  0  0  0  0  0
    1.2760    0.0000    0.0000 N   0  0  0  0  0  0  0  0  0  0  0  0
    0.3943   -1.2135    0.0000 N   0  0  0  0  0  0  0  0  0  0  0  0
   -1.0323   -0.7500    0.0000 N   0  0  0  0  0  0  0  0  0  0  0  0
   -1.0323    0.7500    0.0000 C   0  0  0  0  0  0  0  0  0  0  0  0
   -2.1470    1.7537    0.0000 C   0  0  0  0  0  0  0  0  0  0  0  0
   -1.8351    3.2209    0.0000 C   0  0  0  0  0  0  0  0  0  0  0  0
   -6.9177    4.3013    0.0000 C   0  0  0  0  0  0  0  0  0  0  0  0
  1  2  1  0
  2  3  2  0
  3  4  1  0
  4  5  2  0
  5  6  1  0
  6  7  1  0
  7  8  1  0
  8  9  2  0
  9 10  1  0
 10 11  2  0
 11 12  1  0
 12 13  2  0
 13 14  1  0
 14 15  1  0
 15 16  1  0
 16 17  2  0
 17 18  1  0
 18 19  1  0
 19 20  2  0
  6 21  2  0
 21  2  1  0
 20  8  1  0
 20 12  1  0
 18 14  2  0
M  END
>  <Compound_ID>  (141) 
CHEMBL172652

>  <Active>  (141) 
1.0

>  <Smiles>  (141) 
Brc1cccc(Nc2ncnc3cc4[nH]nnc4cc23)c1

>  <canonical_smi>  (141) 
Brc1cccc(Nc2ncnc3cc4[nH]nnc4cc23)c1

>  <Set>  (141) 
G2 active

>  <Set_type>  (141) 
Train

>  <MW>  (141) 
341.17

>  <HBD>  (141) 
2

>  <HBA>  (141) 
5

>  <NRB>  (141) 
2

>  <NR>  (141) 
4

>  <NAR>  (141) 
4

>  <PSA>  (141) 
79.38

>  <Standard Type>  (141) 
nan

>  <Standard Relation>  (141) 
nan

>  <Standard Units>  (141) 
nan

>  <Standard Value>  (141) 
nan

>  <Assay ChEMBL ID>  (141) 
nan

>  <Assay Description>  (141) 
nan

>  <BAO Label>  (141) 
nan

$$$$

     RDKit          2D

 36 39  0  0  0  0  0  0  0  0999 V2000
    3.7500   -6.4952    0.0000 C   0  0  0  0  0  0  0  0  0  0  0  0
    3.0000   -5.1962    0.0000 C   0  0  0  0  0  0  0  0  0  0  0  0
    1.5000   -5.1962    0.0000 O   0  0  0  0  0  0  0  0  0  0  0  0
    0.7500   -3.8971    0.0000 C   0  0  0  0  0  0  0  0  0  0  0  0
    1.5000   -2.5981    0.0000 C   0  0  0  0  0  0  0  0  0  0  0  0
    0.7500   -1.2990    0.0000 C   0  0  0  0  0  0  0  0  0  0  0  0
    1.5000    0.0000    0.0000 N   0  0  0  0  0  0  0  0  0  0  0  0
    0.7500    1.2990    0.0000 C   0  0  0  0  0  0  0  0  0  0  0  0
   -0.7500    1.2990    0.0000 N   0  0  0  0  0  0  0  0  0  0  0  0
   -1.5000    0.0000    0.0000 C   0  0  0  0  0  0  0  0  0  0  0  0
   -3.0000    0.0000    0.0000 C   0  0  0  0  0  0  0  0  0  0  0  0
   -4.5000    0.0000    0.0000 C   0  0  0  0  0  0  0  0  0  0  0  0
   -6.0000    0.0000    0.0000 C   0  0  0  0  0  0  0  0  0  0  0  0
   -6.0000   -1.5000    0.0000 C   0  0  0  0  0  0  0  0  0  0  0  0
   -6.0000    1.5000    0.0000 C   0  0  0  0  0  0  0  0  0  0  0  0
   -4.7010    2.2500    0.0000 C   0  0  0  0  0  0  0  0  0  0  0  0
   -4.7010    3.7500    0.0000 C   0  0  0  0  0  0  0  0  0  0  0  0
   -3.4019    4.5000    0.0000 C   0  0  0  0  0  0  0  0  0  0  0  0
   -2.1029    3.7500    0.0000 C   0  0  0  0  0  0  0  0  0  0  0  0
   -2.1029    2.2500    0.0000 C   0  0  0  0  0  0  0  0  0  0  0  0
   -3.4019    1.5000    0.0000 C   0  0  0  0  0  0  0  0  0  0  0  0
   -7.5000    0.0000    0.0000 N   0  0  0  0  0  0  0  0  0  0  0  0
   -8.2500   -1.2990    0.0000 C   0  0  0  0  0  0  0  0  0  0  0  0
   -9.7500   -1.2990    0.0000 C   0  0  0  0  0  0  0  0  0  0  0  0
  -10.5000    0.0000    0.0000 C   0  0  0  0  0  0  0  0  0  0  0  0
  -12.0000    0.0000    0.0000 C   0  0  0  0  0  0  0  0  0  0  0  0
  -12.7500   -1.2990    0.0000 O   0  0  0  0  0  0  0  0  0  0  0  0
  -12.7500    1.2990    0.0000 O   0  0  0  0  0  0  0  0  0  0  0  0
   -9.7500    1.2990    0.0000 C   0  0  0  0  0  0  0  0  0  0  0  0
   -8.2500    1.2990    0.0000 C   0  0  0  0  0  0  0  0  0  0  0  0
   -0.7500   -1.2990    0.0000 C   0  0  0  0  0  0  0  0  0  0  0  0
   -1.5000   -2.5981    0.0000 C   0  0  0  0  0  0  0  0  0  0  0  0
   -0.7500   -3.8971    0.0000 C   0  0  0  0  0  0  0  0  0  0  0  0
   -1.5000   -5.1962    0.0000 O   0  0  0  0  0  0  0  0  0  0  0  0
   -3.0000   -5.1962    0.0000 C   0  0  0  0  0  0  0  0  0  0  0  0
   -3.7500   -6.4952    0.0000 C   0  0  0  0  0  0  0  0  0  0  0  0
  1  2  1  0
  2  3  1  0
  3  4  1  0
  4  5  2  0
  5  6  1  0
  6  7  2  0
  7  8  1  0
  8  9  2  0
  9 10  1  0
 10 11  1  0
 11 12  3  0
 12 13  1  0
 13 14  1  1
 13 15  1  0
 15 16  1  0
 16 17  2  0
 17 18  1  0
 18 19  2  0
 19 20  1  0
 20 21  2  0
 13 22  1  0
 22 23  1  0
 23 24  1  0
 24 25  1  0
 25 26  1  0
 26 27  2  0
 26 28  1  0
 25 29  1  0
 29 30  1  0
 10 31  2  0
 31 32  1  0
 32 33  2  0
 33 34  1  0
 34 35  1  0
 35 36  1  0
 33  4  1  0
 31  6  1  0
 21 16  1  0
 30 22  1  0
M  END
>  <Compound_ID>  (142) 
CHEMBL399373

>  <Active>  (142) 
1.0

>  <Smiles>  (142) 
CCOc1cc2ncnc(C#C[C@@](C)(Cc3ccccc3)N3CCC(C(=O)O)CC3)c2cc1OCC

>  <canonical_smi>  (142) 
CCOc1cc2ncnc(C#C[C@@](C)(Cc3ccccc3)N3CCC(C(=O)O)CC3)c2cc1OCC

>  <Set>  (142) 
G2 active

>  <Set_type>  (142) 
Train

>  <MW>  (142) 
487.6

>  <HBD>  (142) 
1

>  <HBA>  (142) 
7

>  <NRB>  (142) 
8

>  <NR>  (142) 
4

>  <NAR>  (142) 
3

>  <PSA>  (142) 
84.78

>  <Standard Type>  (142) 
nan

>  <Standard Relation>  (142) 
nan

>  <Standard Units>  (142) 
nan

>  <Standard Value>  (142) 
nan

>  <Assay ChEMBL ID>  (142) 
nan

>  <Assay Description>  (142) 
nan

>  <BAO Label>  (142) 
nan

$$$$

     RDKit          2D

 42 48  0  0  0  0  0  0  0  0999 V2000
   -5.6213   -4.5165    0.0000 C   0  0  0  0  0  0  0  0  0  0  0  0
   -4.3223   -5.2665    0.0000 C   0  0  0  0  0  0  0  0  0  0  0  0
   -4.1655   -6.7583    0.0000 C   0  0  0  0  0  0  0  0  0  0  0  0
   -2.6983   -7.0701    0.0000 C   0  0  0  0  0  0  0  0  0  0  0  0
   -2.0882   -8.4404    0.0000 C   0  0  0  0  0  0  0  0  0  0  0  0
   -0.5964   -8.5972    0.0000 O   0  0  0  0  0  0  0  0  0  0  0  0
   -2.9699   -9.6540    0.0000 N   0  0  0  0  0  0  0  0  0  0  0  0
   -4.4616   -9.4972    0.0000 C   0  0  0  0  0  0  0  0  0  0  0  0
   -5.3433  -10.7107    0.0000 C   0  0  0  0  0  0  0  0  0  0  0  0
   -4.7332  -12.0810    0.0000 O   0  0  0  0  0  0  0  0  0  0  0  0
   -3.2414  -12.2378    0.0000 C   0  0  0  0  0  0  0  0  0  0  0  0
   -2.3597  -11.0243    0.0000 C   0  0  0  0  0  0  0  0  0  0  0  0
   -1.9483   -5.7711    0.0000 N   0  0  0  0  0  0  0  0  0  0  0  0
   -2.9520   -4.6564    0.0000 C   0  0  0  0  0  0  0  0  0  0  0  0
   -2.6401   -3.1891    0.0000 C   0  0  0  0  0  0  0  0  0  0  0  0
   -1.2135   -2.7256    0.0000 C   0  0  0  0  0  0  0  0  0  0  0  0
   -0.0000   -3.6073    0.0000 C   0  0  0  0  0  0  0  0  0  0  0  0
    0.0000   -5.1073    0.0000 O   0  0  0  0  0  0  0  0  0  0  0  0
    1.2135   -2.7256    0.0000 N   0  0  0  0  0  0  0  0  0  0  0  0
    0.7500   -1.2990    0.0000 C   0  0  0  0  0  0  0  0  0  0  0  0
    1.5000    0.0000    0.0000 N   0  0  0  0  0  0  0  0  0  0  0  0
    0.7500    1.2990    0.0000 C   0  0  0  0  0  0  0  0  0  0  0  0
   -0.7500    1.2990    0.0000 N   0  0  0  0  0  0  0  0  0  0  0  0
   -1.5000    0.0000    0.0000 C   0  0  0  0  0  0  0  0  0  0  0  0
   -3.0000    0.0000    0.0000 N   0  0  0  0  0  0  0  0  0  0  0  0
   -3.7500    1.2990    0.0000 C   0  0  0  0  0  0  0  0  0  0  0  0
   -3.0000    2.5981    0.0000 C   0  0  0  0  0  0  0  0  0  0  0  0
   -3.7500    3.8971    0.0000 C   0  0  0  0  0  0  0  0  0  0  0  0
   -5.2500    3.8971    0.0000 C   0  0  0  0  0  0  0  0  0  0  0  0
   -6.0000    2.5981    0.0000 C   0  0  0  0  0  0  0  0  0  0  0  0
   -7.4672    2.9099    0.0000 C   0  0  0  0  0  0  0  0  0  0  0  0
   -7.6240    4.4017    0.0000 C   0  0  0  0  0  0  0  0  0  0  0  0
   -6.2537    5.0118    0.0000 N   0  0  0  0  0  0  0  0  0  0  0  0
   -5.9418    6.4791    0.0000 C   0  0  0  0  0  0  0  0  0  0  0  0
   -7.0565    7.4827    0.0000 C   0  0  0  0  0  0  0  0  0  0  0  0
   -6.7447    8.9500    0.0000 C   0  0  0  0  0  0  0  0  0  0  0  0
   -7.8594    9.9537    0.0000 C   0  0  0  0  0  0  0  0  0  0  0  0
   -9.2860    9.4901    0.0000 C   0  0  0  0  0  0  0  0  0  0  0  0
   -9.5978    8.0229    0.0000 C   0  0  0  0  0  0  0  0  0  0  0  0
   -8.4831    7.0192    0.0000 C   0  0  0  0  0  0  0  0  0  0  0  0
   -5.2500    1.2990    0.0000 C   0  0  0  0  0  0  0  0  0  0  0  0
   -0.7500   -1.2990    0.0000 C   0  0  0  0  0  0  0  0  0  0  0  0
  1  2  1  0
  2  3  1  0
  3  4  2  0
  4  5  1  0
  5  6  2  0
  5  7  1  0
  7  8  1  0
  8  9  1  0
  9 10  1  0
 10 11  1  0
 11 12  1  0
  4 13  1  0
 13 14  1  0
 14 15  1  0
 15 16  2  0
 16 17  1  0
 17 18  2  0
 17 19  1  0
 19 20  1  0
 20 21  2  0
 21 22  1  0
 22 23  2  0
 23 24  1  0
 24 25  1  0
 25 26  1  0
 26 27  2  0
 27 28  1  0
 28 29  2  0
 29 30  1  0
 30 31  1  0
 31 32  2  0
 32 33  1  0
 33 34  1  0
 34 35  1  0
 35 36  2  0
 36 37  1  0
 37 38  2  0
 38 39  1  0
 39 40  2  0
 30 41  2  0
 24 42  2  0
 14  2  2  0
 42 16  1  0
 12  7  1  0
 42 20  1  0
 41 26  1  0
 33 29  1  0
 40 35  1  0
M  END
>  <Compound_ID>  (143) 
CHEMBL67057

>  <Active>  (143) 
1.0

>  <Smiles>  (143) 
Cc1cc(C(=O)N2CCOCC2)[nH]c1/C=C1\C(=O)Nc2ncnc(Nc3ccc4c(ccn4Cc4ccccc4)c3)c21

>  <canonical_smi>  (143) 
Cc1cc(C(=O)N2CCOCC2)[nH]c1/C=C1\C(=O)Nc2ncnc(Nc3ccc4c(ccn4Cc4ccccc4)c3)c21

>  <Set>  (143) 
G2 active

>  <Set_type>  (143) 
Train

>  <MW>  (143) 
559.63

>  <HBD>  (143) 
3

>  <HBA>  (143) 
6

>  <NRB>  (143) 
6

>  <NR>  (143) 
7

>  <NAR>  (143) 
5

>  <PSA>  (143) 
117.17

>  <Standard Type>  (143) 
nan

>  <Standard Relation>  (143) 
nan

>  <Standard Units>  (143) 
nan

>  <Standard Value>  (143) 
nan

>  <Assay ChEMBL ID>  (143) 
nan

>  <Assay Description>  (143) 
nan

>  <BAO Label>  (143) 
nan

$$$$

     RDKit          2D

 30 34  0  0  0  0  0  0  0  0999 V2000
   -1.8373   -8.2581    0.0000 O   0  0  0  0  0  0  0  0  0  0  0  0
   -2.9520   -7.2544    0.0000 C   0  0  0  0  0  0  0  0  0  0  0  0
   -2.6401   -5.7872    0.0000 C   0  0  0  0  0  0  0  0  0  0  0  0
   -1.2135   -5.3237    0.0000 C   0  0  0  0  0  0  0  0  0  0  0  0
   -0.0000   -6.2054    0.0000 C   0  0  0  0  0  0  0  0  0  0  0  0
    1.2135   -5.3237    0.0000 N   0  0  0  0  0  0  0  0  0  0  0  0
    0.7500   -3.8971    0.0000 C   0  0  0  0  0  0  0  0  0  0  0  0
    1.5000   -2.5981    0.0000 C   0  0  0  0  0  0  0  0  0  0  0  0
    0.7500   -1.2990    0.0000 C   0  0  0  0  0  0  0  0  0  0  0  0
    1.5000    0.0000    0.0000 N   0  0  0  0  0  0  0  0  0  0  0  0
    0.7500    1.2990    0.0000 C   0  0  0  0  0  0  0  0  0  0  0  0
   -0.7500    1.2990    0.0000 N   0  0  0  0  0  0  0  0  0  0  0  0
   -1.5000    0.0000    0.0000 C   0  0  0  0  0  0  0  0  0  0  0  0
   -3.0000    0.0000    0.0000 N   0  0  0  0  0  0  0  0  0  0  0  0
   -3.7500    1.2990    0.0000 C   0  0  0  0  0  0  0  0  0  0  0  0
   -3.0000    2.5981    0.0000 C   0  0  0  0  0  0  0  0  0  0  0  0
   -3.7500    3.8971    0.0000 C   0  0  0  0  0  0  0  0  0  0  0  0
   -5.2500    3.8971    0.0000 C   0  0  0  0  0  0  0  0  0  0  0  0
   -6.0000    2.5981    0.0000 C   0  0  0  0  0  0  0  0  0  0  0  0
   -7.5000    2.5981    0.0000 Br  0  0  0  0  0  0  0  0  0  0  0  0
   -5.2500    1.2990    0.0000 C   0  0  0  0  0  0  0  0  0  0  0  0
   -0.7500   -1.2990    0.0000 C   0  0  0  0  0  0  0  0  0  0  0  0
   -1.5000   -2.5981    0.0000 C   0  0  0  0  0  0  0  0  0  0  0  0
   -0.7500   -3.8971    0.0000 C   0  0  0  0  0  0  0  0  0  0  0  0
   -4.3786   -7.7180    0.0000 N   0  0  0  0  0  0  0  0  0  0  0  0
   -5.4933   -6.7143    0.0000 C   0  0  0  0  0  0  0  0  0  0  0  0
   -6.9199   -7.1778    0.0000 C   0  0  0  0  0  0  0  0  0  0  0  0
   -7.2317   -8.6450    0.0000 O   0  0  0  0  0  0  0  0  0  0  0  0
   -6.1170   -9.6487    0.0000 C   0  0  0  0  0  0  0  0  0  0  0  0
   -4.6904   -9.1852    0.0000 C   0  0  0  0  0  0  0  0  0  0  0  0
  1  2  2  0
  2  3  1  0
  3  4  1  0
  4  5  2  0
  5  6  1  0
  6  7  1  0
  7  8  2  0
  8  9  1  0
  9 10  2  0
 10 11  1  0
 11 12  2  0
 12 13  1  0
 13 14  1  0
 14 15  1  0
 15 16  2  0
 16 17  1  0
 17 18  2  0
 18 19  1  0
 19 20  1  0
 19 21  2  0
 13 22  2  0
 22 23  1  0
 23 24  2  0
  2 25  1  0
 25 26  1  0
 26 27  1  0
 27 28  1  0
 28 29  1  0
 29 30  1  0
 24  4  1  0
 30 25  1  0
 24  7  1  0
 22  9  1  0
 21 15  1  0
M  END
>  <Compound_ID>  (144) 
CHEMBL489501

>  <Active>  (144) 
1.0

>  <Smiles>  (144) 
O=C(Cc1c[nH]c2cc3ncnc(Nc4cccc(Br)c4)c3cc12)N1CCOCC1

>  <canonical_smi>  (144) 
O=C(Cc1c[nH]c2cc3ncnc(Nc4cccc(Br)c4)c3cc12)N1CCOCC1

>  <Set>  (144) 
G2 active

>  <Set_type>  (144) 
Train

>  <MW>  (144) 
466.34

>  <HBD>  (144) 
2

>  <HBA>  (144) 
5

>  <NRB>  (144) 
4

>  <NR>  (144) 
5

>  <NAR>  (144) 
4

>  <PSA>  (144) 
83.14

>  <Standard Type>  (144) 
nan

>  <Standard Relation>  (144) 
nan

>  <Standard Units>  (144) 
nan

>  <Standard Value>  (144) 
nan

>  <Assay ChEMBL ID>  (144) 
nan

>  <Assay Description>  (144) 
nan

>  <BAO Label>  (144) 
nan

$$$$

     RDKit          2D

 28 32  0  0  0  0  0  0  0  0999 V2000
    6.0000   -0.0000    0.0000 Br  0  0  0  0  0  0  0  0  0  0  0  0
    5.2500   -1.2990    0.0000 C   0  0  0  0  0  0  0  0  0  0  0  0
    6.0000   -2.5981    0.0000 C   0  0  0  0  0  0  0  0  0  0  0  0
    5.2500   -3.8971    0.0000 C   0  0  0  0  0  0  0  0  0  0  0  0
    3.7500   -3.8971    0.0000 C   0  0  0  0  0  0  0  0  0  0  0  0
    3.0000   -2.5981    0.0000 C   0  0  0  0  0  0  0  0  0  0  0  0
    1.5000   -2.5981    0.0000 N   0  0  0  0  0  0  0  0  0  0  0  0
    0.7500   -1.2990    0.0000 C   0  0  0  0  0  0  0  0  0  0  0  0
    1.5000    0.0000    0.0000 N   0  0  0  0  0  0  0  0  0  0  0  0
    0.7500    1.2990    0.0000 C   0  0  0  0  0  0  0  0  0  0  0  0
   -0.7500    1.2990    0.0000 N   0  0  0  0  0  0  0  0  0  0  0  0
   -1.5000    0.0000    0.0000 C   0  0  0  0  0  0  0  0  0  0  0  0
   -3.0000    0.0000    0.0000 C   0  0  0  0  0  0  0  0  0  0  0  0
   -3.7500   -1.2990    0.0000 C   0  0  0  0  0  0  0  0  0  0  0  0
   -5.2172   -1.6109    0.0000 N   0  0  0  0  0  0  0  0  0  0  0  0
   -5.3740   -3.1027    0.0000 C   0  0  0  0  0  0  0  0  0  0  0  0
   -4.0037   -3.7128    0.0000 C   0  0  0  0  0  0  0  0  0  0  0  0
   -3.6918   -5.1800    0.0000 C   0  0  0  0  0  0  0  0  0  0  0  0
   -4.8065   -6.1837    0.0000 N   0  0  0  0  0  0  0  0  0  0  0  0
   -6.2331   -5.7202    0.0000 C   0  0  0  0  0  0  0  0  0  0  0  0
   -7.3478   -6.7239    0.0000 C   0  0  0  0  0  0  0  0  0  0  0  0
   -7.0360   -8.1911    0.0000 O   0  0  0  0  0  0  0  0  0  0  0  0
   -5.6094   -8.6546    0.0000 C   0  0  0  0  0  0  0  0  0  0  0  0
   -4.4947   -7.6509    0.0000 C   0  0  0  0  0  0  0  0  0  0  0  0
   -3.0000   -2.5981    0.0000 C   0  0  0  0  0  0  0  0  0  0  0  0
   -1.5000   -2.5981    0.0000 C   0  0  0  0  0  0  0  0  0  0  0  0
   -0.7500   -1.2990    0.0000 C   0  0  0  0  0  0  0  0  0  0  0  0
    3.7500   -1.2990    0.0000 C   0  0  0  0  0  0  0  0  0  0  0  0
  1  2  1  0
  2  3  2  0
  3  4  1  0
  4  5  2  0
  5  6  1  0
  6  7  1  0
  7  8  1  0
  8  9  2  0
  9 10  1  0
 10 11  2  0
 11 12  1  0
 12 13  2  0
 13 14  1  0
 14 15  1  0
 15 16  1  0
 16 17  2  0
 17 18  1  0
 18 19  1  0
 19 20  1  0
 20 21  1  0
 21 22  1  0
 22 23  1  0
 23 24  1  0
 17 25  1  0
 25 26  1  0
 26 27  2  0
  6 28  2  0
 28  2  1  0
 27  8  1  0
 27 12  1  0
 25 14  2  0
 24 19  1  0
M  END
>  <Compound_ID>  (145) 
CHEMBL36967

>  <Active>  (145) 
1.0

>  <Smiles>  (145) 
Brc1cccc(Nc2ncnc3cc4[nH]cc(CN5CCOCC5)c4cc23)c1

>  <canonical_smi>  (145) 
Brc1cccc(Nc2ncnc3cc4[nH]cc(CN5CCOCC5)c4cc23)c1

>  <Set>  (145) 
G2 active

>  <Set_type>  (145) 
Train

>  <MW>  (145) 
438.33

>  <HBD>  (145) 
2

>  <HBA>  (145) 
5

>  <NRB>  (145) 
4

>  <NR>  (145) 
5

>  <NAR>  (145) 
4

>  <PSA>  (145) 
66.07

>  <Standard Type>  (145) 
nan

>  <Standard Relation>  (145) 
nan

>  <Standard Units>  (145) 
nan

>  <Standard Value>  (145) 
nan

>  <Assay ChEMBL ID>  (145) 
nan

>  <Assay Description>  (145) 
nan

>  <BAO Label>  (145) 
nan

$$$$

     RDKit          2D

 29 32  0  0  0  0  0  0  0  0999 V2000
    6.0000   -2.5981    0.0000 C   0  0  0  0  0  0  0  0  0  0  0  0
    5.2500   -1.2990    0.0000 C   0  0  0  0  0  0  0  0  0  0  0  0
    3.7500   -1.2990    0.0000 C   0  0  0  0  0  0  0  0  0  0  0  0
    3.0000   -2.5981    0.0000 O   0  0  0  0  0  0  0  0  0  0  0  0
    3.0000    0.0000    0.0000 N   0  0  0  0  0  0  0  0  0  0  0  0
    1.5000    0.0000    0.0000 C   0  0  0  0  0  0  0  0  0  0  0  0
    0.7500   -1.2990    0.0000 C   0  0  0  0  0  0  0  0  0  0  0  0
   -0.7500   -1.2990    0.0000 C   0  0  0  0  0  0  0  0  0  0  0  0
   -1.5000    0.0000    0.0000 C   0  0  0  0  0  0  0  0  0  0  0  0
   -3.0000    0.0000    0.0000 N   0  0  0  0  0  0  0  0  0  0  0  0
   -3.7500    1.2990    0.0000 C   0  0  0  0  0  0  0  0  0  0  0  0
   -3.0000    2.5981    0.0000 N   0  0  0  0  0  0  0  0  0  0  0  0
   -1.5000    2.5981    0.0000 C   0  0  0  0  0  0  0  0  0  0  0  0
   -0.7500    3.8971    0.0000 N   0  0  0  0  0  0  0  0  0  0  0  0
   -1.5000    5.1962    0.0000 C   0  0  0  0  0  0  0  0  0  0  0  0
   -0.7500    6.4952    0.0000 C   0  0  0  0  0  0  0  0  0  0  0  0
   -1.5000    7.7942    0.0000 C   0  0  0  0  0  0  0  0  0  0  0  0
   -3.0000    7.7942    0.0000 C   0  0  0  0  0  0  0  0  0  0  0  0
   -3.7500    9.0933    0.0000 O   0  0  0  0  0  0  0  0  0  0  0  0
   -3.0000   10.3923    0.0000 C   0  0  0  0  0  0  0  0  0  0  0  0
   -1.5000   10.3923    0.0000 C   0  0  0  0  0  0  0  0  0  0  0  0
   -0.7500   11.6913    0.0000 C   0  0  0  0  0  0  0  0  0  0  0  0
   -1.5000   12.9904    0.0000 C   0  0  0  0  0  0  0  0  0  0  0  0
   -3.0000   12.9904    0.0000 C   0  0  0  0  0  0  0  0  0  0  0  0
   -3.7500   11.6913    0.0000 C   0  0  0  0  0  0  0  0  0  0  0  0
   -3.7500    6.4952    0.0000 C   0  0  0  0  0  0  0  0  0  0  0  0
   -3.0000    5.1962    0.0000 C   0  0  0  0  0  0  0  0  0  0  0  0
   -0.7500    1.2990    0.0000 C   0  0  0  0  0  0  0  0  0  0  0  0
    0.7500    1.2990    0.0000 C   0  0  0  0  0  0  0  0  0  0  0  0
  1  2  2  0
  2  3  1  0
  3  4  2  0
  3  5  1  0
  5  6  1  0
  6  7  2  0
  7  8  1  0
  8  9  2  0
  9 10  1  0
 10 11  2  0
 11 12  1  0
 12 13  2  0
 13 14  1  0
 14 15  1  0
 15 16  2  0
 16 17  1  0
 17 18  2  0
 18 19  1  0
 19 20  1  0
 20 21  2  0
 21 22  1  0
 22 23  2  0
 23 24  1  0
 24 25  2  0
 18 26  1  0
 26 27  2  0
 13 28  1  0
 28 29  2  0
 29  6  1  0
 28  9  1  0
 27 15  1  0
 25 20  1  0
M  END
>  <Compound_ID>  (146) 
CHEMBL53203

>  <Active>  (146) 
1.0

>  <Smiles>  (146) 
C=CC(=O)Nc1ccc2ncnc(Nc3ccc(Oc4ccccc4)cc3)c2c1

>  <canonical_smi>  (146) 
C=CC(=O)Nc1ccc2ncnc(Nc3ccc(Oc4ccccc4)cc3)c2c1

>  <Set>  (146) 
G2 active

>  <Set_type>  (146) 
Train

>  <MW>  (146) 
382.42

>  <HBD>  (146) 
2

>  <HBA>  (146) 
5

>  <NRB>  (146) 
6

>  <NR>  (146) 
4

>  <NAR>  (146) 
4

>  <PSA>  (146) 
76.14

>  <Standard Type>  (146) 
nan

>  <Standard Relation>  (146) 
nan

>  <Standard Units>  (146) 
nan

>  <Standard Value>  (146) 
nan

>  <Assay ChEMBL ID>  (146) 
nan

>  <Assay Description>  (146) 
nan

>  <BAO Label>  (146) 
nan

$$$$

     RDKit          2D

 39 44  0  0  0  0  0  0  0  0999 V2000
   -0.8087  -14.1104    0.0000 C   0  0  0  0  0  0  0  0  0  0  0  0
   -0.1986  -12.7400    0.0000 N   0  0  0  0  0  0  0  0  0  0  0  0
   -1.0803  -11.5265    0.0000 C   0  0  0  0  0  0  0  0  0  0  0  0
   -0.4702  -10.1562    0.0000 C   0  0  0  0  0  0  0  0  0  0  0  0
    1.0216   -9.9994    0.0000 N   0  0  0  0  0  0  0  0  0  0  0  0
    1.6317   -8.6291    0.0000 C   0  0  0  0  0  0  0  0  0  0  0  0
    0.7500   -7.4156    0.0000 C   0  0  0  0  0  0  0  0  0  0  0  0
   -0.7500   -7.4156    0.0000 C   0  0  0  0  0  0  0  0  0  0  0  0
   -1.2135   -5.9890    0.0000 C   0  0  0  0  0  0  0  0  0  0  0  0
   -0.0000   -5.1073    0.0000 C   0  0  0  0  0  0  0  0  0  0  0  0
   -0.0000   -3.6073    0.0000 C   0  0  0  0  0  0  0  0  0  0  0  0
    1.2135   -2.7256    0.0000 C   0  0  0  0  0  0  0  0  0  0  0  0
    0.7500   -1.2990    0.0000 C   0  0  0  0  0  0  0  0  0  0  0  0
    1.5000    0.0000    0.0000 N   0  0  0  0  0  0  0  0  0  0  0  0
    0.7500    1.2990    0.0000 C   0  0  0  0  0  0  0  0  0  0  0  0
   -0.7500    1.2990    0.0000 N   0  0  0  0  0  0  0  0  0  0  0  0
   -1.5000    0.0000    0.0000 C   0  0  0  0  0  0  0  0  0  0  0  0
   -3.0000    0.0000    0.0000 N   0  0  0  0  0  0  0  0  0  0  0  0
   -3.7500    1.2990    0.0000 C   0  0  0  0  0  0  0  0  0  0  0  0
   -3.0000    2.5981    0.0000 C   0  0  0  0  0  0  0  0  0  0  0  0
   -3.7500    3.8971    0.0000 C   0  0  0  0  0  0  0  0  0  0  0  0
   -5.2500    3.8971    0.0000 C   0  0  0  0  0  0  0  0  0  0  0  0
   -6.0000    5.1962    0.0000 O   0  0  0  0  0  0  0  0  0  0  0  0
   -5.2500    6.4952    0.0000 C   0  0  0  0  0  0  0  0  0  0  0  0
   -6.0000    7.7942    0.0000 C   0  0  0  0  0  0  0  0  0  0  0  0
   -5.2500    9.0933    0.0000 C   0  0  0  0  0  0  0  0  0  0  0  0
   -6.0000   10.3923    0.0000 C   0  0  0  0  0  0  0  0  0  0  0  0
   -7.5000   10.3923    0.0000 C   0  0  0  0  0  0  0  0  0  0  0  0
   -8.2500    9.0933    0.0000 C   0  0  0  0  0  0  0  0  0  0  0  0
   -9.7500    9.0933    0.0000 F   0  0  0  0  0  0  0  0  0  0  0  0
   -7.5000    7.7942    0.0000 C   0  0  0  0  0  0  0  0  0  0  0  0
   -6.0000    2.5981    0.0000 C   0  0  0  0  0  0  0  0  0  0  0  0
   -7.5000    2.5981    0.0000 Cl  0  0  0  0  0  0  0  0  0  0  0  0
   -5.2500    1.2990    0.0000 C   0  0  0  0  0  0  0  0  0  0  0  0
   -0.7500   -1.2990    0.0000 C   0  0  0  0  0  0  0  0  0  0  0  0
   -1.2135   -2.7256    0.0000 S   0  0  0  0  0  0  0  0  0  0  0  0
    1.2135   -5.9890    0.0000 O   0  0  0  0  0  0  0  0  0  0  0  0
    1.9033  -11.2129    0.0000 C   0  0  0  0  0  0  0  0  0  0  0  0
    1.2931  -12.5833    0.0000 C   0  0  0  0  0  0  0  0  0  0  0  0
  1  2  1  0
  2  3  1  0
  3  4  1  0
  4  5  1  0
  5  6  1  0
  6  7  1  0
  7  8  2  0
  8  9  1  0
  9 10  2  0
 10 11  1  0
 11 12  2  0
 12 13  1  0
 13 14  2  0
 14 15  1  0
 15 16  2  0
 16 17  1  0
 17 18  1  0
 18 19  1  0
 19 20  2  0
 20 21  1  0
 21 22  2  0
 22 23  1  0
 23 24  1  0
 24 25  1  0
 25 26  2  0
 26 27  1  0
 27 28  2  0
 28 29  1  0
 29 30  1  0
 29 31  2  0
 22 32  1  0
 32 33  1  0
 32 34  2  0
 17 35  2  0
 35 36  1  0
 10 37  1  0
  5 38  1  0
 38 39  1  0
 39  2  1  0
 37  7  1  0
 36 11  1  0
 35 13  1  0
 34 19  1  0
 31 25  1  0
M  END
>  <Compound_ID>  (147) 
CHEMBL475761

>  <Active>  (147) 
1.0

>  <Smiles>  (147) 
CN1CCN(Cc2ccc(-c3cc4ncnc(Nc5ccc(OCc6cccc(F)c6)c(Cl)c5)c4s3)o2)CC1

>  <canonical_smi>  (147) 
CN1CCN(Cc2ccc(-c3cc4ncnc(Nc5ccc(OCc6cccc(F)c6)c(Cl)c5)c4s3)o2)CC1

>  <Set>  (147) 
G2 active

>  <Set_type>  (147) 
Train

>  <MW>  (147) 
564.09

>  <HBD>  (147) 
1

>  <HBA>  (147) 
7

>  <NRB>  (147) 
8

>  <NR>  (147) 
6

>  <NAR>  (147) 
5

>  <PSA>  (147) 
66.66

>  <Standard Type>  (147) 
nan

>  <Standard Relation>  (147) 
nan

>  <Standard Units>  (147) 
nan

>  <Standard Value>  (147) 
nan

>  <Assay ChEMBL ID>  (147) 
nan

>  <Assay Description>  (147) 
nan

>  <BAO Label>  (147) 
nan

$$$$

     RDKit          2D

 36 40  0  0  0  0  0  0  0  0999 V2000
   -6.0000    0.0000    0.0000 C   0  0  0  0  0  0  0  0  0  0  0  0
   -5.2500   -1.2990    0.0000 O   0  0  0  0  0  0  0  0  0  0  0  0
   -3.7500   -1.2990    0.0000 C   0  0  0  0  0  0  0  0  0  0  0  0
   -3.0000   -2.5981    0.0000 C   0  0  0  0  0  0  0  0  0  0  0  0
   -1.5000   -2.5981    0.0000 C   0  0  0  0  0  0  0  0  0  0  0  0
   -0.7500   -3.8971    0.0000 O   0  0  0  0  0  0  0  0  0  0  0  0
   -1.5000   -5.1962    0.0000 N   0  0  0  0  0  0  0  0  0  0  0  0
   -3.0000   -5.1962    0.0000 C   0  0  0  0  0  0  0  0  0  0  0  0
   -3.7500   -6.4952    0.0000 C   0  0  0  0  0  0  0  0  0  0  0  0
   -3.0000   -7.7942    0.0000 C   0  0  0  0  0  0  0  0  0  0  0  0
   -3.7500   -9.0933    0.0000 C   0  0  0  0  0  0  0  0  0  0  0  0
   -1.5000   -7.7942    0.0000 C   0  0  0  0  0  0  0  0  0  0  0  0
   -0.7500   -6.4952    0.0000 C   0  0  0  0  0  0  0  0  0  0  0  0
   -0.7500   -1.2990    0.0000 C   0  0  0  0  0  0  0  0  0  0  0  0
    0.7500   -1.2990    0.0000 C   0  0  0  0  0  0  0  0  0  0  0  0
    1.5000   -2.5981    0.0000 N   0  0  0  0  0  0  0  0  0  0  0  0
    3.0000   -2.5981    0.0000 C   0  0  0  0  0  0  0  0  0  0  0  0
    3.7500   -3.8971    0.0000 C   0  0  0  0  0  0  0  0  0  0  0  0
    5.2500   -3.8971    0.0000 C   0  0  0  0  0  0  0  0  0  0  0  0
    6.0000   -2.5981    0.0000 C   0  0  0  0  0  0  0  0  0  0  0  0
    7.5000   -2.5981    0.0000 O   0  0  0  0  0  0  0  0  0  0  0  0
    8.2500   -3.8971    0.0000 C   0  0  0  0  0  0  0  0  0  0  0  0
    9.7500   -3.8971    0.0000 C   0  0  0  0  0  0  0  0  0  0  0  0
   10.5000   -5.1962    0.0000 C   0  0  0  0  0  0  0  0  0  0  0  0
   12.0000   -5.1962    0.0000 C   0  0  0  0  0  0  0  0  0  0  0  0
   12.7500   -3.8971    0.0000 C   0  0  0  0  0  0  0  0  0  0  0  0
   12.0000   -2.5981    0.0000 C   0  0  0  0  0  0  0  0  0  0  0  0
   10.5000   -2.5981    0.0000 N   0  0  0  0  0  0  0  0  0  0  0  0
    5.2500   -1.2990    0.0000 C   0  0  0  0  0  0  0  0  0  0  0  0
    6.0000   -0.0000    0.0000 Cl  0  0  0  0  0  0  0  0  0  0  0  0
    3.7500   -1.2990    0.0000 C   0  0  0  0  0  0  0  0  0  0  0  0
    1.5000    0.0000    0.0000 N   0  0  0  0  0  0  0  0  0  0  0  0
    0.7500    1.2990    0.0000 C   0  0  0  0  0  0  0  0  0  0  0  0
   -0.7500    1.2990    0.0000 N   0  0  0  0  0  0  0  0  0  0  0  0
   -1.5000    0.0000    0.0000 C   0  0  0  0  0  0  0  0  0  0  0  0
   -3.0000    0.0000    0.0000 C   0  0  0  0  0  0  0  0  0  0  0  0
  1  2  1  0
  2  3  1  0
  3  4  2  0
  4  5  1  0
  5  6  1  0
  6  7  1  0
  7  8  1  0
  8  9  1  0
  9 10  1  0
 10 11  1  0
 10 12  1  0
 12 13  1  0
  5 14  2  0
 14 15  1  0
 15 16  1  0
 16 17  1  0
 17 18  2  0
 18 19  1  0
 19 20  2  0
 20 21  1  0
 21 22  1  0
 22 23  1  0
 23 24  2  0
 24 25  1  0
 25 26  2  0
 26 27  1  0
 27 28  2  0
 20 29  1  0
 29 30  1  0
 29 31  2  0
 15 32  2  0
 32 33  1  0
 33 34  2  0
 34 35  1  0
 35 36  2  0
 36  3  1  0
 13  7  1  0
 35 14  1  0
 31 17  1  0
 28 23  1  0
M  END
>  <Compound_ID>  (148) 
CHEMBL444619

>  <Active>  (148) 
1.0

>  <Smiles>  (148) 
COc1cc(ON2CCC(C)CC2)c2c(Nc3ccc(OCc4ccccn4)c(Cl)c3)ncnc2c1

>  <canonical_smi>  (148) 
COc1cc(ON2CCC(C)CC2)c2c(Nc3ccc(OCc4ccccn4)c(Cl)c3)ncnc2c1

>  <Set>  (148) 
G2 active

>  <Set_type>  (148) 
Train

>  <MW>  (148) 
506.01

>  <HBD>  (148) 
1

>  <HBA>  (148) 
8

>  <NRB>  (148) 
8

>  <NR>  (148) 
5

>  <NAR>  (148) 
4

>  <PSA>  (148) 
81.63

>  <Standard Type>  (148) 
nan

>  <Standard Relation>  (148) 
nan

>  <Standard Units>  (148) 
nan

>  <Standard Value>  (148) 
nan

>  <Assay ChEMBL ID>  (148) 
nan

>  <Assay Description>  (148) 
nan

>  <BAO Label>  (148) 
nan

$$$$

     RDKit          2D

 35 39  0  0  0  0  0  0  0  0999 V2000
    7.5000   -2.5981    0.0000 C   0  0  0  0  0  0  0  0  0  0  0  0
    6.0000   -2.5981    0.0000 N   0  0  0  0  0  0  0  0  0  0  0  0
    5.2500   -3.8971    0.0000 C   0  0  0  0  0  0  0  0  0  0  0  0
    3.7500   -3.8971    0.0000 C   0  0  0  0  0  0  0  0  0  0  0  0
    3.0000   -2.5981    0.0000 C   0  0  0  0  0  0  0  0  0  0  0  0
    1.5000   -2.5981    0.0000 O   0  0  0  0  0  0  0  0  0  0  0  0
    0.7500   -1.2990    0.0000 C   0  0  0  0  0  0  0  0  0  0  0  0
    1.5000    0.0000    0.0000 C   0  0  0  0  0  0  0  0  0  0  0  0
    0.7500    1.2990    0.0000 C   0  0  0  0  0  0  0  0  0  0  0  0
   -0.7500    1.2990    0.0000 C   0  0  0  0  0  0  0  0  0  0  0  0
   -1.5000    0.0000    0.0000 C   0  0  0  0  0  0  0  0  0  0  0  0
   -3.0000    0.0000    0.0000 N   0  0  0  0  0  0  0  0  0  0  0  0
   -3.7500   -1.2990    0.0000 C   0  0  0  0  0  0  0  0  0  0  0  0
   -3.0000   -2.5981    0.0000 N   0  0  0  0  0  0  0  0  0  0  0  0
   -1.5000   -2.5981    0.0000 C   0  0  0  0  0  0  0  0  0  0  0  0
   -0.7500   -3.8971    0.0000 N   0  0  0  0  0  0  0  0  0  0  0  0
   -1.5000   -5.1962    0.0000 C   0  0  0  0  0  0  0  0  0  0  0  0
   -3.0000   -5.1962    0.0000 C   0  0  0  0  0  0  0  0  0  0  0  0
   -3.7500   -6.4952    0.0000 C   0  0  0  0  0  0  0  0  0  0  0  0
   -3.0000   -7.7942    0.0000 C   0  0  0  0  0  0  0  0  0  0  0  0
   -3.7500   -9.0933    0.0000 O   0  0  0  0  0  0  0  0  0  0  0  0
   -5.2500   -9.0933    0.0000 C   0  0  0  0  0  0  0  0  0  0  0  0
   -6.0000  -10.3923    0.0000 C   0  0  0  0  0  0  0  0  0  0  0  0
   -7.5000  -10.3923    0.0000 C   0  0  0  0  0  0  0  0  0  0  0  0
   -8.2500  -11.6913    0.0000 C   0  0  0  0  0  0  0  0  0  0  0  0
   -7.5000  -12.9904    0.0000 C   0  0  0  0  0  0  0  0  0  0  0  0
   -6.0000  -12.9904    0.0000 C   0  0  0  0  0  0  0  0  0  0  0  0
   -5.2500  -14.2894    0.0000 F   0  0  0  0  0  0  0  0  0  0  0  0
   -5.2500  -11.6913    0.0000 C   0  0  0  0  0  0  0  0  0  0  0  0
   -1.5000   -7.7942    0.0000 C   0  0  0  0  0  0  0  0  0  0  0  0
   -0.7500   -9.0933    0.0000 Cl  0  0  0  0  0  0  0  0  0  0  0  0
   -0.7500   -6.4952    0.0000 C   0  0  0  0  0  0  0  0  0  0  0  0
   -0.7500   -1.2990    0.0000 C   0  0  0  0  0  0  0  0  0  0  0  0
    3.7500   -1.2990    0.0000 C   0  0  0  0  0  0  0  0  0  0  0  0
    5.2500   -1.2990    0.0000 C   0  0  0  0  0  0  0  0  0  0  0  0
  1  2  1  0
  2  3  1  0
  3  4  1  0
  4  5  1  0
  5  6  1  0
  6  7  1  0
  7  8  2  0
  8  9  1  0
  9 10  2  0
 10 11  1  0
 11 12  2  0
 12 13  1  0
 13 14  2  0
 14 15  1  0
 15 16  1  0
 16 17  1  0
 17 18  2  0
 18 19  1  0
 19 20  2  0
 20 21  1  0
 21 22  1  0
 22 23  1  0
 23 24  2  0
 24 25  1  0
 25 26  2  0
 26 27  1  0
 27 28  1  0
 27 29  2  0
 20 30  1  0
 30 31  1  0
 30 32  2  0
 15 33  2  0
  5 34  1  0
 34 35  1  0
 35  2  1  0
 33  7  1  0
 33 11  1  0
 32 17  1  0
 29 23  1  0
M  END
>  <Compound_ID>  (149) 
CHEMBL197640

>  <Active>  (149) 
1.0

>  <Smiles>  (149) 
CN1CCC(Oc2cccc3ncnc(Nc4ccc(OCc5cccc(F)c5)c(Cl)c4)c23)CC1

>  <canonical_smi>  (149) 
CN1CCC(Oc2cccc3ncnc(Nc4ccc(OCc5cccc(F)c5)c(Cl)c4)c23)CC1

>  <Set>  (149) 
G2 active

>  <Set_type>  (149) 
Train

>  <MW>  (149) 
492.98

>  <HBD>  (149) 
1

>  <HBA>  (149) 
6

>  <NRB>  (149) 
7

>  <NR>  (149) 
5

>  <NAR>  (149) 
4

>  <PSA>  (149) 
59.51

>  <Standard Type>  (149) 
nan

>  <Standard Relation>  (149) 
nan

>  <Standard Units>  (149) 
nan

>  <Standard Value>  (149) 
nan

>  <Assay ChEMBL ID>  (149) 
nan

>  <Assay Description>  (149) 
nan

>  <BAO Label>  (149) 
nan

$$$$

     RDKit          2D

 28 31  0  0  0  0  0  0  0  0999 V2000
   -4.6904   -6.5871    0.0000 C   0  0  0  0  0  0  0  0  0  0  0  0
   -4.3786   -5.1199    0.0000 C   0  0  0  0  0  0  0  0  0  0  0  0
   -2.9520   -4.6564    0.0000 C   0  0  0  0  0  0  0  0  0  0  0  0
   -1.8373   -5.6601    0.0000 O   0  0  0  0  0  0  0  0  0  0  0  0
   -2.6401   -3.1891    0.0000 N   0  0  0  0  0  0  0  0  0  0  0  0
   -1.2135   -2.7256    0.0000 C   0  0  0  0  0  0  0  0  0  0  0  0
   -0.0000   -3.6073    0.0000 C   0  0  0  0  0  0  0  0  0  0  0  0
    1.2135   -2.7256    0.0000 C   0  0  0  0  0  0  0  0  0  0  0  0
    0.7500   -1.2990    0.0000 C   0  0  0  0  0  0  0  0  0  0  0  0
    1.5000    0.0000    0.0000 N   0  0  0  0  0  0  0  0  0  0  0  0
    0.7500    1.2990    0.0000 C   0  0  0  0  0  0  0  0  0  0  0  0
   -0.7500    1.2990    0.0000 N   0  0  0  0  0  0  0  0  0  0  0  0
   -1.5000    0.0000    0.0000 C   0  0  0  0  0  0  0  0  0  0  0  0
   -3.0000    0.0000    0.0000 N   0  0  0  0  0  0  0  0  0  0  0  0
   -3.7500    1.2990    0.0000 C   0  0  0  0  0  0  0  0  0  0  0  0
   -3.0000    2.5981    0.0000 C   0  0  0  0  0  0  0  0  0  0  0  0
   -3.7500    3.8971    0.0000 C   0  0  0  0  0  0  0  0  0  0  0  0
   -5.2500    3.8971    0.0000 C   0  0  0  0  0  0  0  0  0  0  0  0
   -6.0000    5.1962    0.0000 O   0  0  0  0  0  0  0  0  0  0  0  0
   -5.2500    6.4952    0.0000 C   0  0  0  0  0  0  0  0  0  0  0  0
   -3.7500    6.4952    0.0000 C   0  0  0  0  0  0  0  0  0  0  0  0
   -3.0000    7.7942    0.0000 C   0  0  0  0  0  0  0  0  0  0  0  0
   -3.7500    9.0933    0.0000 C   0  0  0  0  0  0  0  0  0  0  0  0
   -5.2500    9.0933    0.0000 C   0  0  0  0  0  0  0  0  0  0  0  0
   -6.0000    7.7942    0.0000 C   0  0  0  0  0  0  0  0  0  0  0  0
   -6.0000    2.5981    0.0000 C   0  0  0  0  0  0  0  0  0  0  0  0
   -5.2500    1.2990    0.0000 C   0  0  0  0  0  0  0  0  0  0  0  0
   -0.7500   -1.2990    0.0000 C   0  0  0  0  0  0  0  0  0  0  0  0
  1  2  2  0
  2  3  1  0
  3  4  2  0
  3  5  1  0
  5  6  1  0
  6  7  2  0
  7  8  1  0
  8  9  2  0
  9 10  1  0
 10 11  2  0
 11 12  1  0
 12 13  2  0
 13 14  1  0
 14 15  1  0
 15 16  2  0
 16 17  1  0
 17 18  2  0
 18 19  1  0
 19 20  1  0
 20 21  2  0
 21 22  1  0
 22 23  2  0
 23 24  1  0
 24 25  2  0
 18 26  1  0
 26 27  2  0
 13 28  1  0
 28  6  1  0
 28  9  1  0
 27 15  1  0
 25 20  1  0
M  END
>  <Compound_ID>  (150) 
CHEMBL474343

>  <Active>  (150) 
1.0

>  <Smiles>  (150) 
C=CC(=O)NC1=CC=C2N=CN=C(Nc3ccc(Oc4ccccc4)cc3)C21

>  <canonical_smi>  (150) 
C=CC(=O)NC1=CC=C2N=CN=C(Nc3ccc(Oc4ccccc4)cc3)C21

>  <Set>  (150) 
G2 active

>  <Set_type>  (150) 
Train

>  <MW>  (150) 
370.41

>  <HBD>  (150) 
2

>  <HBA>  (150) 
3

>  <NRB>  (150) 
5

>  <NR>  (150) 
4

>  <NAR>  (150) 
2

>  <PSA>  (150) 
75.08

>  <Standard Type>  (150) 
nan

>  <Standard Relation>  (150) 
nan

>  <Standard Units>  (150) 
nan

>  <Standard Value>  (150) 
nan

>  <Assay ChEMBL ID>  (150) 
nan

>  <Assay Description>  (150) 
nan

>  <BAO Label>  (150) 
nan

$$$$

     RDKit          2D

 21 24  0  0  0  0  0  0  0  0999 V2000
   -6.8516   -6.6578    0.0000 Cl  0  0  0  0  0  0  0  0  0  0  0  0
   -6.6948   -5.1660    0.0000 C   0  0  0  0  0  0  0  0  0  0  0  0
   -7.9083   -4.2844    0.0000 C   0  0  0  0  0  0  0  0  0  0  0  0
   -7.7515   -2.7926    0.0000 C   0  0  0  0  0  0  0  0  0  0  0  0
   -6.3812   -2.1825    0.0000 C   0  0  0  0  0  0  0  0  0  0  0  0
   -5.1677   -3.0642    0.0000 C   0  0  0  0  0  0  0  0  0  0  0  0
   -3.7974   -2.4540    0.0000 N   0  0  0  0  0  0  0  0  0  0  0  0
   -2.5838   -3.3357    0.0000 C   0  0  0  0  0  0  0  0  0  0  0  0
   -2.7406   -4.8275    0.0000 N   0  0  0  0  0  0  0  0  0  0  0  0
   -1.5271   -5.7092    0.0000 C   0  0  0  0  0  0  0  0  0  0  0  0
   -0.1568   -5.0991    0.0000 N   0  0  0  0  0  0  0  0  0  0  0  0
   -0.0000   -3.6073    0.0000 C   0  0  0  0  0  0  0  0  0  0  0  0
    1.2135   -2.7256    0.0000 N   0  0  0  0  0  0  0  0  0  0  0  0
    0.7500   -1.2990    0.0000 C   0  0  0  0  0  0  0  0  0  0  0  0
    1.5000    0.0000    0.0000 C   0  0  0  0  0  0  0  0  0  0  0  0
    0.7500    1.2990    0.0000 C   0  0  0  0  0  0  0  0  0  0  0  0
   -0.7500    1.2990    0.0000 C   0  0  0  0  0  0  0  0  0  0  0  0
   -1.5000    0.0000    0.0000 C   0  0  0  0  0  0  0  0  0  0  0  0
   -0.7500   -1.2990    0.0000 C   0  0  0  0  0  0  0  0  0  0  0  0
   -1.2135   -2.7256    0.0000 C   0  0  0  0  0  0  0  0  0  0  0  0
   -5.3245   -4.5559    0.0000 C   0  0  0  0  0  0  0  0  0  0  0  0
  1  2  1  0
  2  3  2  0
  3  4  1  0
  4  5  2  0
  5  6  1  0
  6  7  1  0
  7  8  1  0
  8  9  1  0
  9 10  1  0
 10 11  2  0
 11 12  1  0
 12 13  2  0
 13 14  1  0
 14 15  2  0
 15 16  1  0
 16 17  2  0
 17 18  1  0
 18 19  2  0
 19 20  1  0
  6 21  2  0
 21  2  1  0
 20  8  2  0
 20 12  1  0
 19 14  1  0
M  END
>  <Compound_ID>  (151) 
CHEMBL306315

>  <Active>  (151) 
1.0

>  <Smiles>  (151) 
Clc1cccc(Nc2[nH]cnc3nc4ccccc4c2-3)c1

>  <canonical_smi>  (151) 
Clc1cccc(Nc2[nH]cnc3nc4ccccc4c2-3)c1

>  <Set>  (151) 
G2 active

>  <Set_type>  (151) 
Train

>  <MW>  (151) 
294.75

>  <HBD>  (151) 
2

>  <HBA>  (151) 
3

>  <NRB>  (151) 
2

>  <NR>  (151) 
4

>  <NAR>  (151) 
4

>  <PSA>  (151) 
53.6

>  <Standard Type>  (151) 
nan

>  <Standard Relation>  (151) 
nan

>  <Standard Units>  (151) 
nan

>  <Standard Value>  (151) 
nan

>  <Assay ChEMBL ID>  (151) 
nan

>  <Assay Description>  (151) 
nan

>  <BAO Label>  (151) 
nan

$$$$

     RDKit          2D

 33 37  0  0  0  0  0  0  0  0999 V2000
   -5.8491   -3.3946    0.0000 C   0  0  0  0  0  0  0  0  0  0  0  0
   -5.5373   -4.8618    0.0000 C   0  0  0  0  0  0  0  0  0  0  0  0
   -6.6520   -5.8655    0.0000 C   0  0  0  0  0  0  0  0  0  0  0  0
   -8.1192   -5.5537    0.0000 N   0  0  0  0  0  0  0  0  0  0  0  0
   -8.8692   -6.8527    0.0000 C   0  0  0  0  0  0  0  0  0  0  0  0
   -7.8655   -7.9674    0.0000 C   0  0  0  0  0  0  0  0  0  0  0  0
   -6.4952   -7.3573    0.0000 N   0  0  0  0  0  0  0  0  0  0  0  0
   -5.1962   -8.1073    0.0000 C   0  0  0  0  0  0  0  0  0  0  0  0
   -3.8971   -7.3573    0.0000 C   0  0  0  0  0  0  0  0  0  0  0  0
   -2.5981   -8.1073    0.0000 C   0  0  0  0  0  0  0  0  0  0  0  0
   -1.2990   -7.3573    0.0000 C   0  0  0  0  0  0  0  0  0  0  0  0
   -1.2990   -5.8573    0.0000 C   0  0  0  0  0  0  0  0  0  0  0  0
   -0.0000   -5.1073    0.0000 N   0  0  0  0  0  0  0  0  0  0  0  0
   -0.0000   -3.6073    0.0000 C   0  0  0  0  0  0  0  0  0  0  0  0
    1.2135   -2.7256    0.0000 N   0  0  0  0  0  0  0  0  0  0  0  0
    0.7500   -1.2990    0.0000 C   0  0  0  0  0  0  0  0  0  0  0  0
    1.5000    0.0000    0.0000 N   0  0  0  0  0  0  0  0  0  0  0  0
    0.7500    1.2990    0.0000 C   0  0  0  0  0  0  0  0  0  0  0  0
   -0.7500    1.2990    0.0000 N   0  0  0  0  0  0  0  0  0  0  0  0
   -1.5000    0.0000    0.0000 C   0  0  0  0  0  0  0  0  0  0  0  0
   -3.0000    0.0000    0.0000 N   0  0  0  0  0  0  0  0  0  0  0  0
   -3.7500    1.2990    0.0000 C   0  0  0  0  0  0  0  0  0  0  0  0
   -3.0000    2.5981    0.0000 C   0  0  0  0  0  0  0  0  0  0  0  0
   -3.7500    3.8971    0.0000 C   0  0  0  0  0  0  0  0  0  0  0  0
   -5.2500    3.8971    0.0000 C   0  0  0  0  0  0  0  0  0  0  0  0
   -6.0000    5.1962    0.0000 F   0  0  0  0  0  0  0  0  0  0  0  0
   -6.0000    2.5981    0.0000 C   0  0  0  0  0  0  0  0  0  0  0  0
   -7.5000    2.5981    0.0000 Cl  0  0  0  0  0  0  0  0  0  0  0  0
   -5.2500    1.2990    0.0000 C   0  0  0  0  0  0  0  0  0  0  0  0
   -0.7500   -1.2990    0.0000 C   0  0  0  0  0  0  0  0  0  0  0  0
   -1.2135   -2.7256    0.0000 S   0  0  0  0  0  0  0  0  0  0  0  0
   -2.5981   -5.1073    0.0000 C   0  0  0  0  0  0  0  0  0  0  0  0
   -3.8971   -5.8573    0.0000 C   0  0  0  0  0  0  0  0  0  0  0  0
  1  2  1  0
  2  3  1  0
  3  4  2  0
  4  5  1  0
  5  6  2  0
  6  7  1  0
  7  8  1  0
  8  9  1  0
  9 10  2  0
 10 11  1  0
 11 12  2  0
 12 13  1  0
 13 14  1  0
 14 15  2  0
 15 16  1  0
 16 17  2  0
 17 18  1  0
 18 19  2  0
 19 20  1  0
 20 21  1  0
 21 22  1  0
 22 23  2  0
 23 24  1  0
 24 25  2  0
 25 26  1  0
 25 27  1  0
 27 28  1  0
 27 29  2  0
 20 30  2  0
 30 31  1  0
 12 32  1  0
 32 33  2  0
  7  3  1  0
 33  9  1  0
 31 14  1  0
 30 16  1  0
 29 22  1  0
M  END
>  <Compound_ID>  (152) 
CHEMBL471058

>  <Active>  (152) 
1.0

>  <Smiles>  (152) 
CCc1nccn1Cc1ccc(Nc2nc3ncnc(Nc4ccc(F)c(Cl)c4)c3s2)cc1

>  <canonical_smi>  (152) 
CCc1nccn1Cc1ccc(Nc2nc3ncnc(Nc4ccc(F)c(Cl)c4)c3s2)cc1

>  <Set>  (152) 
G2 active

>  <Set_type>  (152) 
Train

>  <MW>  (152) 
479.97

>  <HBD>  (152) 
2

>  <HBA>  (152) 
6

>  <NRB>  (152) 
7

>  <NR>  (152) 
5

>  <NAR>  (152) 
5

>  <PSA>  (152) 
80.55

>  <Standard Type>  (152) 
nan

>  <Standard Relation>  (152) 
nan

>  <Standard Units>  (152) 
nan

>  <Standard Value>  (152) 
nan

>  <Assay ChEMBL ID>  (152) 
nan

>  <Assay Description>  (152) 
nan

>  <BAO Label>  (152) 
nan

$$$$

     RDKit          2D

 34 37  0  0  0  0  0  0  0  0999 V2000
  -10.5000   -7.7942    0.0000 C   0  0  0  0  0  0  0  0  0  0  0  0
   -9.7500   -6.4952    0.0000 N   0  0  0  0  0  0  0  0  0  0  0  0
  -10.5000   -5.1962    0.0000 C   0  0  0  0  0  0  0  0  0  0  0  0
   -8.2500   -6.4952    0.0000 C   0  0  0  0  0  0  0  0  0  0  0  0
   -7.5000   -5.1962    0.0000 C   0  0  0  0  0  0  0  0  0  0  0  0
   -6.0000   -5.1962    0.0000 C   0  0  0  0  0  0  0  0  0  0  0  0
   -5.2500   -3.8971    0.0000 C   0  0  0  0  0  0  0  0  0  0  0  0
   -6.0000   -2.5981    0.0000 O   0  0  0  0  0  0  0  0  0  0  0  0
   -3.7500   -3.8971    0.0000 N   0  0  0  0  0  0  0  0  0  0  0  0
   -3.0000   -2.5981    0.0000 C   0  0  0  0  0  0  0  0  0  0  0  0
   -1.5000   -2.5981    0.0000 C   0  0  0  0  0  0  0  0  0  0  0  0
   -0.7500   -1.2990    0.0000 C   0  0  0  0  0  0  0  0  0  0  0  0
    0.7500   -1.2990    0.0000 C   0  0  0  0  0  0  0  0  0  0  0  0
    1.5000   -2.5981    0.0000 N   0  0  0  0  0  0  0  0  0  0  0  0
    3.0000   -2.5981    0.0000 C   0  0  0  0  0  0  0  0  0  0  0  0
    3.7500   -3.8971    0.0000 C   0  0  0  0  0  0  0  0  0  0  0  0
    5.2500   -3.8971    0.0000 C   0  0  0  0  0  0  0  0  0  0  0  0
    6.0000   -2.5981    0.0000 C   0  0  0  0  0  0  0  0  0  0  0  0
    7.5000   -2.5981    0.0000 F   0  0  0  0  0  0  0  0  0  0  0  0
    5.2500   -1.2990    0.0000 C   0  0  0  0  0  0  0  0  0  0  0  0
    6.0000   -0.0000    0.0000 Cl  0  0  0  0  0  0  0  0  0  0  0  0
    3.7500   -1.2990    0.0000 C   0  0  0  0  0  0  0  0  0  0  0  0
    1.5000    0.0000    0.0000 C   0  0  0  0  0  0  0  0  0  0  0  0
    0.7500    1.2990    0.0000 C   0  0  0  0  0  0  0  0  0  0  0  0
   -0.7500    1.2990    0.0000 N   0  0  0  0  0  0  0  0  0  0  0  0
   -1.5000    0.0000    0.0000 C   0  0  0  0  0  0  0  0  0  0  0  0
   -3.0000    0.0000    0.0000 C   0  0  0  0  0  0  0  0  0  0  0  0
   -3.7500   -1.2990    0.0000 C   0  0  0  0  0  0  0  0  0  0  0  0
   -5.2500   -1.2990    0.0000 O   0  0  0  0  0  0  0  0  0  0  0  0
   -6.0000    0.0000    0.0000 C   0  0  0  0  0  0  0  0  0  0  0  0
   -7.4918    0.1568    0.0000 C   0  0  0  0  0  0  0  0  0  0  0  0
   -7.8037    1.6240    0.0000 C   0  0  0  0  0  0  0  0  0  0  0  0
   -6.5046    2.3740    0.0000 O   0  0  0  0  0  0  0  0  0  0  0  0
   -5.3899    1.3703    0.0000 C   0  0  0  0  0  0  0  0  0  0  0  0
  1  2  1  0
  2  3  1  0
  2  4  1  0
  4  5  1  0
  5  6  2  0
  6  7  1  0
  7  8  2  0
  7  9  1  0
  9 10  1  0
 10 11  2  0
 11 12  1  0
 12 13  2  0
 13 14  1  0
 14 15  1  0
 15 16  2  0
 16 17  1  0
 17 18  2  0
 18 19  1  0
 18 20  1  0
 20 21  1  0
 20 22  2  0
 13 23  1  0
 23 24  2  0
 24 25  1  0
 25 26  2  0
 26 27  1  0
 27 28  2  0
 28 29  1  0
 30 29  1  1
 30 31  1  0
 31 32  1  0
 32 33  1  0
 33 34  1  0
 28 10  1  0
 34 30  1  0
 26 12  1  0
 22 15  1  0
M  END
>  <Compound_ID>  (153) 
CHEMBL467215

>  <Active>  (153) 
1.0

>  <Smiles>  (153) 
CN(C)C/C=C/C(=O)Nc1cc2c(Nc3ccc(F)c(Cl)c3)ccnc2cc1O[C@H]1CCOC1

>  <canonical_smi>  (153) 
CN(C)C/C=C/C(=O)Nc1cc2c(Nc3ccc(F)c(Cl)c3)ccnc2cc1O[C@H]1CCOC1

>  <Set>  (153) 
G2 active

>  <Set_type>  (153) 
Train

>  <MW>  (153) 
484.96

>  <HBD>  (153) 
2

>  <HBA>  (153) 
6

>  <NRB>  (153) 
8

>  <NR>  (153) 
4

>  <NAR>  (153) 
3

>  <PSA>  (153) 
75.72

>  <Standard Type>  (153) 
nan

>  <Standard Relation>  (153) 
nan

>  <Standard Units>  (153) 
nan

>  <Standard Value>  (153) 
nan

>  <Assay ChEMBL ID>  (153) 
nan

>  <Assay Description>  (153) 
nan

>  <BAO Label>  (153) 
nan

$$$$

     RDKit          2D

 30 33  0  0  0  0  0  0  0  0999 V2000
    3.0000   -5.1962    0.0000 C   0  0  0  0  0  0  0  0  0  0  0  0
    1.5000   -5.1962    0.0000 O   0  0  0  0  0  0  0  0  0  0  0  0
    0.7500   -3.8971    0.0000 C   0  0  0  0  0  0  0  0  0  0  0  0
    1.5000   -2.5981    0.0000 C   0  0  0  0  0  0  0  0  0  0  0  0
    0.7500   -1.2990    0.0000 C   0  0  0  0  0  0  0  0  0  0  0  0
    1.5000    0.0000    0.0000 N   0  0  0  0  0  0  0  0  0  0  0  0
    0.7500    1.2990    0.0000 C   0  0  0  0  0  0  0  0  0  0  0  0
   -0.7500    1.2990    0.0000 N   0  0  0  0  0  0  0  0  0  0  0  0
   -1.5000    0.0000    0.0000 C   0  0  0  0  0  0  0  0  0  0  0  0
   -3.0000    0.0000    0.0000 N   0  0  0  0  0  0  0  0  0  0  0  0
   -3.7500    1.2990    0.0000 C   0  0  0  0  0  0  0  0  0  0  0  0
   -3.0000    2.5981    0.0000 C   0  0  0  0  0  0  0  0  0  0  0  0
   -3.7500    3.8971    0.0000 C   0  0  0  0  0  0  0  0  0  0  0  0
   -5.2500    3.8971    0.0000 C   0  0  0  0  0  0  0  0  0  0  0  0
   -6.0000    5.1962    0.0000 F   0  0  0  0  0  0  0  0  0  0  0  0
   -6.0000    2.5981    0.0000 C   0  0  0  0  0  0  0  0  0  0  0  0
   -7.5000    2.5981    0.0000 Cl  0  0  0  0  0  0  0  0  0  0  0  0
   -5.2500    1.2990    0.0000 C   0  0  0  0  0  0  0  0  0  0  0  0
   -0.7500   -1.2990    0.0000 C   0  0  0  0  0  0  0  0  0  0  0  0
   -1.5000   -2.5981    0.0000 C   0  0  0  0  0  0  0  0  0  0  0  0
   -0.7500   -3.8971    0.0000 C   0  0  0  0  0  0  0  0  0  0  0  0
   -1.5000   -5.1962    0.0000 C   0  0  0  0  0  0  0  0  0  0  0  0
   -3.0000   -5.1962    0.0000 N   0  0  0  0  0  0  0  0  0  0  0  0
   -3.8817   -3.9826    0.0000 C   0  0  0  0  0  0  0  0  0  0  0  0
   -5.3083   -4.4462    0.0000 C   0  0  0  0  0  0  0  0  0  0  0  0
   -5.3083   -5.9462    0.0000 C   0  0  0  0  0  0  0  0  0  0  0  0
   -3.8817   -6.4097    0.0000 C   0  0  0  0  0  0  0  0  0  0  0  0
   -3.4182   -7.8363    0.0000 C   0  0  0  0  0  0  0  0  0  0  0  0
   -4.4218   -8.9510    0.0000 N   0  0  0  0  0  0  0  0  0  0  0  0
   -1.9509   -8.1481    0.0000 O   0  0  0  0  0  0  0  0  0  0  0  0
  1  2  1  0
  2  3  1  0
  3  4  2  0
  4  5  1  0
  5  6  2  0
  6  7  1  0
  7  8  2  0
  8  9  1  0
  9 10  1  0
 10 11  1  0
 11 12  2  0
 12 13  1  0
 13 14  2  0
 14 15  1  0
 14 16  1  0
 16 17  1  0
 16 18  2  0
  9 19  2  0
 19 20  1  0
 20 21  2  0
 21 22  1  0
 22 23  1  0
 23 24  1  0
 24 25  1  0
 25 26  1  0
 26 27  1  0
 27 28  1  1
 28 29  1  0
 28 30  2  0
 21  3  1  0
 27 23  1  0
 19  5  1  0
 18 11  1  0
M  END
>  <Compound_ID>  (154) 
CHEMBL206955

>  <Active>  (154) 
1.0

>  <Smiles>  (154) 
COc1cc2ncnc(Nc3ccc(F)c(Cl)c3)c2cc1CN1CCC[C@@H]1C(N)=O

>  <canonical_smi>  (154) 
COc1cc2ncnc(Nc3ccc(F)c(Cl)c3)c2cc1CN1CCC[C@@H]1C(N)=O

>  <Set>  (154) 
G2 active

>  <Set_type>  (154) 
Train

>  <MW>  (154) 
429.88

>  <HBD>  (154) 
2

>  <HBA>  (154) 
6

>  <NRB>  (154) 
6

>  <NR>  (154) 
4

>  <NAR>  (154) 
3

>  <PSA>  (154) 
93.37

>  <Standard Type>  (154) 
nan

>  <Standard Relation>  (154) 
nan

>  <Standard Units>  (154) 
nan

>  <Standard Value>  (154) 
nan

>  <Assay ChEMBL ID>  (154) 
nan

>  <Assay Description>  (154) 
nan

>  <BAO Label>  (154) 
nan

$$$$

     RDKit          2D

 25 28  0  0  0  0  0  0  0  0999 V2000
    3.0000   -5.1962    0.0000 C   0  0  0  0  0  0  0  0  0  0  0  0
    1.5000   -5.1962    0.0000 O   0  0  0  0  0  0  0  0  0  0  0  0
    0.7500   -3.8971    0.0000 C   0  0  0  0  0  0  0  0  0  0  0  0
    1.5000   -2.5981    0.0000 C   0  0  0  0  0  0  0  0  0  0  0  0
    0.7500   -1.2990    0.0000 C   0  0  0  0  0  0  0  0  0  0  0  0
    1.5000    0.0000    0.0000 N   0  0  0  0  0  0  0  0  0  0  0  0
    0.7500    1.2990    0.0000 C   0  0  0  0  0  0  0  0  0  0  0  0
   -0.7500    1.2990    0.0000 N   0  0  0  0  0  0  0  0  0  0  0  0
   -1.5000    0.0000    0.0000 C   0  0  0  0  0  0  0  0  0  0  0  0
   -3.0000    0.0000    0.0000 N   0  0  0  0  0  0  0  0  0  0  0  0
   -3.7500    1.2990    0.0000 C   0  0  0  0  0  0  0  0  0  0  0  0
   -3.0000    2.5981    0.0000 C   0  0  0  0  0  0  0  0  0  0  0  0
   -3.7500    3.8971    0.0000 N   0  0  0  0  0  0  0  0  0  0  0  0
   -5.2500    3.8971    0.0000 C   0  0  0  0  0  0  0  0  0  0  0  0
   -6.0000    2.5981    0.0000 C   0  0  0  0  0  0  0  0  0  0  0  0
   -7.5000    2.5981    0.0000 C   0  0  0  0  0  0  0  0  0  0  0  0
   -8.2500    1.2990    0.0000 C   0  0  0  0  0  0  0  0  0  0  0  0
   -7.5000    0.0000    0.0000 C   0  0  0  0  0  0  0  0  0  0  0  0
   -6.0000    0.0000    0.0000 C   0  0  0  0  0  0  0  0  0  0  0  0
   -5.2500    1.2990    0.0000 C   0  0  0  0  0  0  0  0  0  0  0  0
   -0.7500   -1.2990    0.0000 C   0  0  0  0  0  0  0  0  0  0  0  0
   -1.5000   -2.5981    0.0000 C   0  0  0  0  0  0  0  0  0  0  0  0
   -0.7500   -3.8971    0.0000 C   0  0  0  0  0  0  0  0  0  0  0  0
   -1.5000   -5.1962    0.0000 O   0  0  0  0  0  0  0  0  0  0  0  0
   -3.0000   -5.1962    0.0000 C   0  0  0  0  0  0  0  0  0  0  0  0
  1  2  1  0
  2  3  1  0
  3  4  2  0
  4  5  1  0
  5  6  2  0
  6  7  1  0
  7  8  2  0
  8  9  1  0
  9 10  1  0
 10 11  1  0
 11 12  2  0
 12 13  1  0
 13 14  2  0
 14 15  1  0
 15 16  2  0
 16 17  1  0
 17 18  2  0
 18 19  1  0
 19 20  2  0
  9 21  2  0
 21 22  1  0
 22 23  2  0
 23 24  1  0
 24 25  1  0
 23  3  1  0
 21  5  1  0
 20 11  1  0
 20 15  1  0
M  END
>  <Compound_ID>  (155) 
CHEMBL329867

>  <Active>  (155) 
1.0

>  <Smiles>  (155) 
COc1cc2ncnc(Nc3cncc4ccccc34)c2cc1OC

>  <canonical_smi>  (155) 
COc1cc2ncnc(Nc3cncc4ccccc34)c2cc1OC

>  <Set>  (155) 
G2 active

>  <Set_type>  (155) 
Train

>  <MW>  (155) 
332.36

>  <HBD>  (155) 
1

>  <HBA>  (155) 
6

>  <NRB>  (155) 
4

>  <NR>  (155) 
4

>  <NAR>  (155) 
4

>  <PSA>  (155) 
69.16

>  <Standard Type>  (155) 
nan

>  <Standard Relation>  (155) 
nan

>  <Standard Units>  (155) 
nan

>  <Standard Value>  (155) 
nan

>  <Assay ChEMBL ID>  (155) 
nan

>  <Assay Description>  (155) 
nan

>  <BAO Label>  (155) 
nan

$$$$

     RDKit          2D

 25 28  0  0  0  0  0  0  0  0999 V2000
    3.7500   -6.4952    0.0000 C   0  0  0  0  0  0  0  0  0  0  0  0
    3.0000   -5.1962    0.0000 N   0  0  0  0  0  0  0  0  0  0  0  0
    1.5000   -5.1962    0.0000 C   0  0  0  0  0  0  0  0  0  0  0  0
    0.7500   -3.8971    0.0000 C   0  0  0  0  0  0  0  0  0  0  0  0
    1.5000   -2.5981    0.0000 N   0  0  0  0  0  0  0  0  0  0  0  0
    0.7500   -1.2990    0.0000 C   0  0  0  0  0  0  0  0  0  0  0  0
    1.5000    0.0000    0.0000 C   0  0  0  0  0  0  0  0  0  0  0  0
    0.7500    1.2990    0.0000 C   0  0  0  0  0  0  0  0  0  0  0  0
    1.5000    2.5981    0.0000 C   0  0  0  0  0  0  0  0  0  0  0  0
    3.0000    2.5981    0.0000 N   0  0  0  0  0  0  0  0  0  0  0  0
    3.7500    3.8971    0.0000 C   0  0  0  0  0  0  0  0  0  0  0  0
    5.2500    3.8971    0.0000 C   0  0  0  0  0  0  0  0  0  0  0  0
    6.0000    5.1962    0.0000 C   0  0  0  0  0  0  0  0  0  0  0  0
    5.2500    6.4952    0.0000 C   0  0  0  0  0  0  0  0  0  0  0  0
    3.7500    6.4952    0.0000 C   0  0  0  0  0  0  0  0  0  0  0  0
    3.0000    7.7942    0.0000 Br  0  0  0  0  0  0  0  0  0  0  0  0
    3.0000    5.1962    0.0000 C   0  0  0  0  0  0  0  0  0  0  0  0
    0.7500    3.8971    0.0000 N   0  0  0  0  0  0  0  0  0  0  0  0
   -0.7500    3.8971    0.0000 C   0  0  0  0  0  0  0  0  0  0  0  0
   -1.5000    2.5981    0.0000 N   0  0  0  0  0  0  0  0  0  0  0  0
   -0.7500    1.2990    0.0000 C   0  0  0  0  0  0  0  0  0  0  0  0
   -1.5000    0.0000    0.0000 C   0  0  0  0  0  0  0  0  0  0  0  0
   -0.7500   -1.2990    0.0000 N   0  0  0  0  0  0  0  0  0  0  0  0
    3.0000   -2.5981    0.0000 C   0  0  0  0  0  0  0  0  0  0  0  0
    3.7500   -3.8971    0.0000 C   0  0  0  0  0  0  0  0  0  0  0  0
  1  2  1  0
  2  3  1  0
  3  4  1  0
  4  5  1  0
  5  6  1  0
  6  7  2  0
  7  8  1  0
  8  9  2  0
  9 10  1  0
 10 11  1  0
 11 12  2  0
 12 13  1  0
 13 14  2  0
 14 15  1  0
 15 16  1  0
 15 17  2  0
  9 18  1  0
 18 19  2  0
 19 20  1  0
 20 21  2  0
 21 22  1  0
 22 23  2  0
  5 24  1  0
 24 25  1  0
 25  2  1  0
 23  6  1  0
 21  8  1  0
 17 11  1  0
M  END
>  <Compound_ID>  (156) 
CHEMBL162719

>  <Active>  (156) 
1.0

>  <Smiles>  (156) 
CN1CCN(c2cc3c(Nc4cccc(Br)c4)ncnc3cn2)CC1

>  <canonical_smi>  (156) 
CN1CCN(c2cc3c(Nc4cccc(Br)c4)ncnc3cn2)CC1

>  <Set>  (156) 
G2 active

>  <Set_type>  (156) 
Train

>  <MW>  (156) 
399.3

>  <HBD>  (156) 
1

>  <HBA>  (156) 
6

>  <NRB>  (156) 
3

>  <NR>  (156) 
4

>  <NAR>  (156) 
3

>  <PSA>  (156) 
57.18

>  <Standard Type>  (156) 
nan

>  <Standard Relation>  (156) 
nan

>  <Standard Units>  (156) 
nan

>  <Standard Value>  (156) 
nan

>  <Assay ChEMBL ID>  (156) 
nan

>  <Assay Description>  (156) 
nan

>  <BAO Label>  (156) 
nan

$$$$

     RDKit          2D

 37 41  0  0  0  0  0  0  0  0999 V2000
   -5.6213   -4.5165    0.0000 C   0  0  0  0  0  0  0  0  0  0  0  0
   -4.3223   -5.2665    0.0000 C   0  0  0  0  0  0  0  0  0  0  0  0
   -4.1655   -6.7583    0.0000 C   0  0  0  0  0  0  0  0  0  0  0  0
   -2.6983   -7.0701    0.0000 C   0  0  0  0  0  0  0  0  0  0  0  0
   -2.0882   -8.4404    0.0000 C   0  0  0  0  0  0  0  0  0  0  0  0
   -0.5964   -8.5972    0.0000 O   0  0  0  0  0  0  0  0  0  0  0  0
   -2.9699   -9.6540    0.0000 N   0  0  0  0  0  0  0  0  0  0  0  0
   -2.3597  -11.0243    0.0000 C   0  0  0  0  0  0  0  0  0  0  0  0
   -3.2414  -12.2378    0.0000 C   0  0  0  0  0  0  0  0  0  0  0  0
   -2.6313  -13.6081    0.0000 N   0  0  0  0  0  0  0  0  0  0  0  0
   -3.5130  -14.8217    0.0000 C   0  0  0  0  0  0  0  0  0  0  0  0
   -2.9029  -16.1920    0.0000 C   0  0  0  0  0  0  0  0  0  0  0  0
   -1.4111  -16.3488    0.0000 O   0  0  0  0  0  0  0  0  0  0  0  0
   -0.5294  -15.1352    0.0000 C   0  0  0  0  0  0  0  0  0  0  0  0
   -1.1395  -13.7649    0.0000 C   0  0  0  0  0  0  0  0  0  0  0  0
   -1.9483   -5.7711    0.0000 N   0  0  0  0  0  0  0  0  0  0  0  0
   -2.9520   -4.6564    0.0000 C   0  0  0  0  0  0  0  0  0  0  0  0
   -2.6401   -3.1891    0.0000 C   0  0  0  0  0  0  0  0  0  0  0  0
   -1.2135   -2.7256    0.0000 C   0  0  0  0  0  0  0  0  0  0  0  0
   -0.0000   -3.6073    0.0000 C   0  0  0  0  0  0  0  0  0  0  0  0
    0.0000   -5.1073    0.0000 O   0  0  0  0  0  0  0  0  0  0  0  0
    1.2135   -2.7256    0.0000 N   0  0  0  0  0  0  0  0  0  0  0  0
    0.7500   -1.2990    0.0000 C   0  0  0  0  0  0  0  0  0  0  0  0
    1.5000    0.0000    0.0000 N   0  0  0  0  0  0  0  0  0  0  0  0
    0.7500    1.2990    0.0000 C   0  0  0  0  0  0  0  0  0  0  0  0
   -0.7500    1.2990    0.0000 N   0  0  0  0  0  0  0  0  0  0  0  0
   -1.5000    0.0000    0.0000 C   0  0  0  0  0  0  0  0  0  0  0  0
   -3.0000    0.0000    0.0000 N   0  0  0  0  0  0  0  0  0  0  0  0
   -3.7500    1.2990    0.0000 C   0  0  0  0  0  0  0  0  0  0  0  0
   -3.0000    2.5981    0.0000 C   0  0  0  0  0  0  0  0  0  0  0  0
   -3.7500    3.8971    0.0000 C   0  0  0  0  0  0  0  0  0  0  0  0
   -5.2500    3.8971    0.0000 C   0  0  0  0  0  0  0  0  0  0  0  0
   -6.0000    5.1962    0.0000 F   0  0  0  0  0  0  0  0  0  0  0  0
   -6.0000    2.5981    0.0000 C   0  0  0  0  0  0  0  0  0  0  0  0
   -7.5000    2.5981    0.0000 Cl  0  0  0  0  0  0  0  0  0  0  0  0
   -5.2500    1.2990    0.0000 C   0  0  0  0  0  0  0  0  0  0  0  0
   -0.7500   -1.2990    0.0000 C   0  0  0  0  0  0  0  0  0  0  0  0
  1  2  1  0
  2  3  1  0
  3  4  2  0
  4  5  1  0
  5  6  2  0
  5  7  1  0
  7  8  1  0
  8  9  1  0
  9 10  1  0
 10 11  1  0
 11 12  1  0
 12 13  1  0
 13 14  1  0
 14 15  1  0
  4 16  1  0
 16 17  1  0
 17 18  1  0
 18 19  2  0
 19 20  1  0
 20 21  2  0
 20 22  1  0
 22 23  1  0
 23 24  2  0
 24 25  1  0
 25 26  2  0
 26 27  1  0
 27 28  1  0
 28 29  1  0
 29 30  2  0
 30 31  1  0
 31 32  2  0
 32 33  1  0
 32 34  1  0
 34 35  1  0
 34 36  2  0
 27 37  2  0
 17  2  2  0
 37 19  1  0
 15 10  1  0
 37 23  1  0
 36 29  1  0
M  END
>  <Compound_ID>  (157) 
CHEMBL69629

>  <Active>  (157) 
1.0

>  <Smiles>  (157) 
Cc1cc(C(=O)NCCN2CCOCC2)[nH]c1/C=C1\C(=O)Nc2ncnc(Nc3ccc(F)c(Cl)c3)c21

>  <canonical_smi>  (157) 
Cc1cc(C(=O)NCCN2CCOCC2)[nH]c1/C=C1\C(=O)Nc2ncnc(Nc3ccc(F)c(Cl)c3)c21

>  <Set>  (157) 
G2 active

>  <Set_type>  (157) 
Train

>  <MW>  (157) 
525.97

>  <HBD>  (157) 
4

>  <HBA>  (157) 
7

>  <NRB>  (157) 
7

>  <NR>  (157) 
5

>  <NAR>  (157) 
3

>  <PSA>  (157) 
124.27

>  <Standard Type>  (157) 
nan

>  <Standard Relation>  (157) 
nan

>  <Standard Units>  (157) 
nan

>  <Standard Value>  (157) 
nan

>  <Assay ChEMBL ID>  (157) 
nan

>  <Assay Description>  (157) 
nan

>  <BAO Label>  (157) 
nan

$$$$

     RDKit          2D

 35 38  0  0  0  0  0  0  0  0999 V2000
   -7.5000   -5.1962    0.0000 C   0  0  0  0  0  0  0  0  0  0  0  0
   -6.0000   -5.1962    0.0000 C   0  0  0  0  0  0  0  0  0  0  0  0
   -5.2500   -3.8971    0.0000 C   0  0  0  0  0  0  0  0  0  0  0  0
   -6.0000   -2.5981    0.0000 O   0  0  0  0  0  0  0  0  0  0  0  0
   -3.7500   -3.8971    0.0000 N   0  0  0  0  0  0  0  0  0  0  0  0
   -3.0000   -2.5981    0.0000 C   0  0  0  0  0  0  0  0  0  0  0  0
   -1.5000   -2.5981    0.0000 N   0  0  0  0  0  0  0  0  0  0  0  0
   -0.7500   -1.2990    0.0000 C   0  0  0  0  0  0  0  0  0  0  0  0
    0.7500   -1.2990    0.0000 C   0  0  0  0  0  0  0  0  0  0  0  0
    1.5000   -2.5981    0.0000 N   0  0  0  0  0  0  0  0  0  0  0  0
    3.0000   -2.5981    0.0000 C   0  0  0  0  0  0  0  0  0  0  0  0
    3.7500   -3.8971    0.0000 C   0  0  0  0  0  0  0  0  0  0  0  0
    5.2500   -3.8971    0.0000 C   0  0  0  0  0  0  0  0  0  0  0  0
    6.0000   -2.5981    0.0000 C   0  0  0  0  0  0  0  0  0  0  0  0
    7.5000   -2.5981    0.0000 F   0  0  0  0  0  0  0  0  0  0  0  0
    5.2500   -1.2990    0.0000 C   0  0  0  0  0  0  0  0  0  0  0  0
    6.0000   -0.0000    0.0000 Cl  0  0  0  0  0  0  0  0  0  0  0  0
    3.7500   -1.2990    0.0000 C   0  0  0  0  0  0  0  0  0  0  0  0
    1.5000    0.0000    0.0000 N   0  0  0  0  0  0  0  0  0  0  0  0
    0.7500    1.2990    0.0000 C   0  0  0  0  0  0  0  0  0  0  0  0
   -0.7500    1.2990    0.0000 N   0  0  0  0  0  0  0  0  0  0  0  0
   -1.5000    0.0000    0.0000 C   0  0  0  0  0  0  0  0  0  0  0  0
   -3.0000    0.0000    0.0000 C   0  0  0  0  0  0  0  0  0  0  0  0
   -3.7500   -1.2990    0.0000 C   0  0  0  0  0  0  0  0  0  0  0  0
   -5.2500   -1.2990    0.0000 O   0  0  0  0  0  0  0  0  0  0  0  0
   -6.0000    0.0000    0.0000 C   0  0  0  0  0  0  0  0  0  0  0  0
   -7.5000    0.0000    0.0000 C   0  0  0  0  0  0  0  0  0  0  0  0
   -8.2500    1.2990    0.0000 C   0  0  0  0  0  0  0  0  0  0  0  0
   -9.7500    1.2990    0.0000 N   0  0  0  0  0  0  0  0  0  0  0  0
  -10.5000    2.5981    0.0000 C   0  0  0  0  0  0  0  0  0  0  0  0
  -12.0000    2.5981    0.0000 C   0  0  0  0  0  0  0  0  0  0  0  0
  -12.7500    1.2990    0.0000 N   0  0  0  0  0  0  0  0  0  0  0  0
  -14.2500    1.2990    0.0000 C   0  0  0  0  0  0  0  0  0  0  0  0
  -12.0000    0.0000    0.0000 C   0  0  0  0  0  0  0  0  0  0  0  0
  -10.5000    0.0000    0.0000 C   0  0  0  0  0  0  0  0  0  0  0  0
  1  2  2  0
  2  3  1  0
  3  4  2  0
  3  5  1  0
  5  6  1  0
  6  7  2  0
  7  8  1  0
  8  9  2  0
  9 10  1  0
 10 11  1  0
 11 12  2  0
 12 13  1  0
 13 14  2  0
 14 15  1  0
 14 16  1  0
 16 17  1  0
 16 18  2  0
  9 19  1  0
 19 20  2  0
 20 21  1  0
 21 22  2  0
 22 23  1  0
 23 24  2  0
 24 25  1  0
 25 26  1  0
 26 27  1  0
 27 28  1  0
 28 29  1  0
 29 30  1  0
 30 31  1  0
 31 32  1  0
 32 33  1  0
 32 34  1  0
 34 35  1  0
 24  6  1  0
 35 29  1  0
 22  8  1  0
 18 11  1  0
M  END
>  <Compound_ID>  (158) 
CHEMBL284326

>  <Active>  (158) 
1.0

>  <Smiles>  (158) 
C=CC(=O)Nc1nc2c(Nc3ccc(F)c(Cl)c3)ncnc2cc1OCCCN1CCN(C)CC1

>  <canonical_smi>  (158) 
C=CC(=O)Nc1nc2c(Nc3ccc(F)c(Cl)c3)ncnc2cc1OCCCN1CCN(C)CC1

>  <Set>  (158) 
G2 active

>  <Set_type>  (158) 
Train

>  <MW>  (158) 
499.98

>  <HBD>  (158) 
2

>  <HBA>  (158) 
8

>  <NRB>  (158) 
9

>  <NR>  (158) 
4

>  <NAR>  (158) 
3

>  <PSA>  (158) 
95.51

>  <Standard Type>  (158) 
nan

>  <Standard Relation>  (158) 
nan

>  <Standard Units>  (158) 
nan

>  <Standard Value>  (158) 
nan

>  <Assay ChEMBL ID>  (158) 
nan

>  <Assay Description>  (158) 
nan

>  <BAO Label>  (158) 
nan

$$$$

     RDKit          2D

 35 38  0  0  0  0  0  0  0  0999 V2000
   -7.5000   -5.1962    0.0000 C   0  0  0  0  0  0  0  0  0  0  0  0
   -6.0000   -5.1962    0.0000 C   0  0  0  0  0  0  0  0  0  0  0  0
   -5.2500   -3.8971    0.0000 C   0  0  0  0  0  0  0  0  0  0  0  0
   -6.0000   -2.5981    0.0000 O   0  0  0  0  0  0  0  0  0  0  0  0
   -3.7500   -3.8971    0.0000 N   0  0  0  0  0  0  0  0  0  0  0  0
   -3.0000   -2.5981    0.0000 C   0  0  0  0  0  0  0  0  0  0  0  0
   -1.5000   -2.5981    0.0000 N   0  0  0  0  0  0  0  0  0  0  0  0
   -0.7500   -1.2990    0.0000 C   0  0  0  0  0  0  0  0  0  0  0  0
    0.7500   -1.2990    0.0000 C   0  0  0  0  0  0  0  0  0  0  0  0
    1.5000   -2.5981    0.0000 C   0  0  0  0  0  0  0  0  0  0  0  0
    3.0000   -2.5981    0.0000 C   0  0  0  0  0  0  0  0  0  0  0  0
    3.7500   -3.8971    0.0000 C   0  0  0  0  0  0  0  0  0  0  0  0
    5.2500   -3.8971    0.0000 C   0  0  0  0  0  0  0  0  0  0  0  0
    6.0000   -2.5981    0.0000 C   0  0  0  0  0  0  0  0  0  0  0  0
    7.5000   -2.5981    0.0000 F   0  0  0  0  0  0  0  0  0  0  0  0
    5.2500   -1.2990    0.0000 C   0  0  0  0  0  0  0  0  0  0  0  0
    6.0000   -0.0000    0.0000 Cl  0  0  0  0  0  0  0  0  0  0  0  0
    3.7500   -1.2990    0.0000 C   0  0  0  0  0  0  0  0  0  0  0  0
    1.5000    0.0000    0.0000 N   0  0  0  0  0  0  0  0  0  0  0  0
    0.7500    1.2990    0.0000 C   0  0  0  0  0  0  0  0  0  0  0  0
   -0.7500    1.2990    0.0000 N   0  0  0  0  0  0  0  0  0  0  0  0
   -1.5000    0.0000    0.0000 C   0  0  0  0  0  0  0  0  0  0  0  0
   -3.0000    0.0000    0.0000 C   0  0  0  0  0  0  0  0  0  0  0  0
   -3.7500   -1.2990    0.0000 C   0  0  0  0  0  0  0  0  0  0  0  0
   -5.2500   -1.2990    0.0000 O   0  0  0  0  0  0  0  0  0  0  0  0
   -6.0000    0.0000    0.0000 C   0  0  0  0  0  0  0  0  0  0  0  0
   -7.5000    0.0000    0.0000 C   0  0  0  0  0  0  0  0  0  0  0  0
   -8.2500    1.2990    0.0000 C   0  0  0  0  0  0  0  0  0  0  0  0
   -9.7500    1.2990    0.0000 N   0  0  0  0  0  0  0  0  0  0  0  0
  -10.5000    2.5981    0.0000 C   0  0  0  0  0  0  0  0  0  0  0  0
  -12.0000    2.5981    0.0000 C   0  0  0  0  0  0  0  0  0  0  0  0
  -12.7500    1.2990    0.0000 C   0  0  0  0  0  0  0  0  0  0  0  0
  -14.2500    1.2990    0.0000 C   0  0  0  0  0  0  0  0  0  0  0  0
  -12.0000    0.0000    0.0000 C   0  0  0  0  0  0  0  0  0  0  0  0
  -10.5000    0.0000    0.0000 C   0  0  0  0  0  0  0  0  0  0  0  0
  1  2  2  0
  2  3  1  0
  3  4  2  0
  3  5  1  0
  5  6  1  0
  6  7  2  0
  7  8  1  0
  8  9  2  0
  9 10  1  0
 10 11  1  0
 11 12  2  0
 12 13  1  0
 13 14  2  0
 14 15  1  0
 14 16  1  0
 16 17  1  0
 16 18  2  0
  9 19  1  0
 19 20  2  0
 20 21  1  0
 21 22  2  0
 22 23  1  0
 23 24  2  0
 24 25  1  0
 25 26  1  0
 26 27  1  0
 27 28  1  0
 28 29  1  0
 29 30  1  0
 30 31  1  0
 31 32  1  0
 32 33  1  0
 32 34  1  0
 34 35  1  0
 24  6  1  0
 35 29  1  0
 22  8  1  0
 18 11  1  0
M  END
>  <Compound_ID>  (159) 
CHEMBL448172

>  <Active>  (159) 
1.0

>  <Smiles>  (159) 
C=CC(=O)Nc1nc2c(Cc3ccc(F)c(Cl)c3)ncnc2cc1OCCCN1CCC(C)CC1

>  <canonical_smi>  (159) 
C=CC(=O)Nc1nc2c(Cc3ccc(F)c(Cl)c3)ncnc2cc1OCCCN1CCC(C)CC1

>  <Set>  (159) 
G2 active

>  <Set_type>  (159) 
Train

>  <MW>  (159) 
498.0

>  <HBD>  (159) 
1

>  <HBA>  (159) 
6

>  <NRB>  (159) 
9

>  <NR>  (159) 
4

>  <NAR>  (159) 
3

>  <PSA>  (159) 
80.24

>  <Standard Type>  (159) 
nan

>  <Standard Relation>  (159) 
nan

>  <Standard Units>  (159) 
nan

>  <Standard Value>  (159) 
nan

>  <Assay ChEMBL ID>  (159) 
nan

>  <Assay Description>  (159) 
nan

>  <BAO Label>  (159) 
nan

$$$$

     RDKit          2D

 27 30  0  0  0  0  0  0  0  0999 V2000
   -9.7730   -5.5068    0.0000 C   0  0  0  0  0  0  0  0  0  0  0  0
   -8.6583   -6.5105    0.0000 O   0  0  0  0  0  0  0  0  0  0  0  0
   -7.2317   -6.0469    0.0000 C   0  0  0  0  0  0  0  0  0  0  0  0
   -6.9199   -4.5797    0.0000 C   0  0  0  0  0  0  0  0  0  0  0  0
   -5.4933   -4.1162    0.0000 C   0  0  0  0  0  0  0  0  0  0  0  0
   -4.3786   -5.1199    0.0000 C   0  0  0  0  0  0  0  0  0  0  0  0
   -2.9520   -4.6564    0.0000 C   0  0  0  0  0  0  0  0  0  0  0  0
   -2.6401   -3.1891    0.0000 N   0  0  0  0  0  0  0  0  0  0  0  0
   -1.2135   -2.7256    0.0000 C   0  0  0  0  0  0  0  0  0  0  0  0
   -0.0000   -3.6073    0.0000 N   0  0  0  0  0  0  0  0  0  0  0  0
    1.2135   -2.7256    0.0000 N   0  0  0  0  0  0  0  0  0  0  0  0
    0.7500   -1.2990    0.0000 C   0  0  0  0  0  0  0  0  0  0  0  0
    1.5000    0.0000    0.0000 N   0  0  0  0  0  0  0  0  0  0  0  0
    0.7500    1.2990    0.0000 C   0  0  0  0  0  0  0  0  0  0  0  0
   -0.7500    1.2990    0.0000 N   0  0  0  0  0  0  0  0  0  0  0  0
   -1.5000    0.0000    0.0000 C   0  0  0  0  0  0  0  0  0  0  0  0
   -3.0000    0.0000    0.0000 N   0  0  0  0  0  0  0  0  0  0  0  0
   -3.7500    1.2990    0.0000 C   0  0  0  0  0  0  0  0  0  0  0  0
   -3.0000    2.5981    0.0000 C   0  0  0  0  0  0  0  0  0  0  0  0
   -3.7500    3.8971    0.0000 C   0  0  0  0  0  0  0  0  0  0  0  0
   -5.2500    3.8971    0.0000 C   0  0  0  0  0  0  0  0  0  0  0  0
   -6.0000    2.5981    0.0000 C   0  0  0  0  0  0  0  0  0  0  0  0
   -7.5000    2.5981    0.0000 Cl  0  0  0  0  0  0  0  0  0  0  0  0
   -5.2500    1.2990    0.0000 C   0  0  0  0  0  0  0  0  0  0  0  0
   -0.7500   -1.2990    0.0000 C   0  0  0  0  0  0  0  0  0  0  0  0
   -4.6904   -6.5871    0.0000 C   0  0  0  0  0  0  0  0  0  0  0  0
   -6.1170   -7.0506    0.0000 C   0  0  0  0  0  0  0  0  0  0  0  0
  1  2  1  0
  2  3  1  0
  3  4  2  0
  4  5  1  0
  5  6  2  0
  6  7  1  0
  7  8  1  0
  8  9  1  0
  9 10  1  0
 10 11  1  0
 11 12  2  0
 12 13  1  0
 13 14  2  0
 14 15  1  0
 15 16  2  0
 16 17  1  0
 17 18  1  0
 18 19  2  0
 19 20  1  0
 20 21  2  0
 21 22  1  0
 22 23  1  0
 22 24  2  0
 16 25  1  0
  6 26  1  0
 26 27  2  0
 27  3  1  0
 25  9  2  0
 25 12  1  0
 24 18  1  0
M  END
>  <Compound_ID>  (160) 
CHEMBL122245

>  <Active>  (160) 
1.0

>  <Smiles>  (160) 
COc1ccc(CNc2[nH]nc3ncnc(Nc4cccc(Cl)c4)c23)cc1

>  <canonical_smi>  (160) 
COc1ccc(CNc2[nH]nc3ncnc(Nc4cccc(Cl)c4)c23)cc1

>  <Set>  (160) 
G2 active

>  <Set_type>  (160) 
Train

>  <MW>  (160) 
380.84

>  <HBD>  (160) 
3

>  <HBA>  (160) 
6

>  <NRB>  (160) 
6

>  <NR>  (160) 
4

>  <NAR>  (160) 
4

>  <PSA>  (160) 
87.75

>  <Standard Type>  (160) 
nan

>  <Standard Relation>  (160) 
nan

>  <Standard Units>  (160) 
nan

>  <Standard Value>  (160) 
nan

>  <Assay ChEMBL ID>  (160) 
nan

>  <Assay Description>  (160) 
nan

>  <BAO Label>  (160) 
nan

$$$$

     RDKit          2D

 35 40  0  0  0  0  0  0  0  0999 V2000
   -6.4952  -11.8573    0.0000 N   0  0  0  0  0  0  0  0  0  0  0  0
   -5.1962  -12.6073    0.0000 C   0  0  0  0  0  0  0  0  0  0  0  0
   -5.1962  -14.1073    0.0000 O   0  0  0  0  0  0  0  0  0  0  0  0
   -3.8971  -11.8573    0.0000 C   0  0  0  0  0  0  0  0  0  0  0  0
   -3.8971  -10.3573    0.0000 C   0  0  0  0  0  0  0  0  0  0  0  0
   -2.5981   -9.6073    0.0000 C   0  0  0  0  0  0  0  0  0  0  0  0
   -1.2990  -10.3573    0.0000 N   0  0  0  0  0  0  0  0  0  0  0  0
   -0.0000   -9.6073    0.0000 C   0  0  0  0  0  0  0  0  0  0  0  0
   -0.0000   -8.1073    0.0000 C   0  0  0  0  0  0  0  0  0  0  0  0
    1.2990   -7.3573    0.0000 C   0  0  0  0  0  0  0  0  0  0  0  0
    1.2990   -5.8573    0.0000 C   0  0  0  0  0  0  0  0  0  0  0  0
   -0.0000   -5.1073    0.0000 C   0  0  0  0  0  0  0  0  0  0  0  0
   -0.0000   -3.6073    0.0000 C   0  0  0  0  0  0  0  0  0  0  0  0
    1.2135   -2.7256    0.0000 C   0  0  0  0  0  0  0  0  0  0  0  0
    0.7500   -1.2990    0.0000 C   0  0  0  0  0  0  0  0  0  0  0  0
    1.5000    0.0000    0.0000 N   0  0  0  0  0  0  0  0  0  0  0  0
    0.7500    1.2990    0.0000 C   0  0  0  0  0  0  0  0  0  0  0  0
   -0.7500    1.2990    0.0000 N   0  0  0  0  0  0  0  0  0  0  0  0
   -1.5000    0.0000    0.0000 C   0  0  0  0  0  0  0  0  0  0  0  0
   -3.0000    0.0000    0.0000 N   0  0  0  0  0  0  0  0  0  0  0  0
   -3.7500    1.2990    0.0000 C   0  0  0  0  0  0  0  0  0  0  0  0
   -3.0000    2.5981    0.0000 C   0  0  0  0  0  0  0  0  0  0  0  0
   -3.7500    3.8971    0.0000 C   0  0  0  0  0  0  0  0  0  0  0  0
   -5.2500    3.8971    0.0000 C   0  0  0  0  0  0  0  0  0  0  0  0
   -6.2537    5.0118    0.0000 N   0  0  0  0  0  0  0  0  0  0  0  0
   -7.6240    4.4017    0.0000 C   0  0  0  0  0  0  0  0  0  0  0  0
   -7.4672    2.9099    0.0000 C   0  0  0  0  0  0  0  0  0  0  0  0
   -6.0000    2.5981    0.0000 C   0  0  0  0  0  0  0  0  0  0  0  0
   -5.2500    1.2990    0.0000 C   0  0  0  0  0  0  0  0  0  0  0  0
   -0.7500   -1.2990    0.0000 C   0  0  0  0  0  0  0  0  0  0  0  0
   -1.2135   -2.7256    0.0000 S   0  0  0  0  0  0  0  0  0  0  0  0
   -1.2990   -5.8573    0.0000 C   0  0  0  0  0  0  0  0  0  0  0  0
   -1.2990   -7.3573    0.0000 C   0  0  0  0  0  0  0  0  0  0  0  0
   -1.2990  -11.8573    0.0000 C   0  0  0  0  0  0  0  0  0  0  0  0
   -2.5981  -12.6073    0.0000 C   0  0  0  0  0  0  0  0  0  0  0  0
  1  2  1  0
  2  3  2  0
  2  4  1  0
  4  5  1  0
  5  6  1  0
  6  7  1  0
  7  8  1  0
  8  9  1  0
  9 10  2  0
 10 11  1  0
 11 12  2  0
 12 13  1  0
 13 14  2  0
 14 15  1  0
 15 16  2  0
 16 17  1  0
 17 18  2  0
 18 19  1  0
 19 20  1  0
 20 21  1  0
 21 22  2  0
 22 23  1  0
 23 24  2  0
 24 25  1  0
 25 26  1  0
 26 27  2  0
 27 28  1  0
 28 29  2  0
 19 30  2  0
 30 31  1  0
 12 32  1  0
 32 33  2  0
  7 34  1  0
 34 35  1  0
 35  4  1  0
 33  9  1  0
 31 13  1  0
 30 15  1  0
 29 21  1  0
 28 24  1  0
M  END
>  <Compound_ID>  (161) 
CHEMBL311109

>  <Active>  (161) 
1.0

>  <Smiles>  (161) 
NC(=O)C1CCN(Cc2ccc(-c3cc4ncnc(Nc5ccc6[nH]ccc6c5)c4s3)cc2)CC1

>  <canonical_smi>  (161) 
NC(=O)C1CCN(Cc2ccc(-c3cc4ncnc(Nc5ccc6[nH]ccc6c5)c4s3)cc2)CC1

>  <Set>  (161) 
G2 active

>  <Set_type>  (161) 
Train

>  <MW>  (161) 
482.61

>  <HBD>  (161) 
3

>  <HBA>  (161) 
5

>  <NRB>  (161) 
6

>  <NR>  (161) 
6

>  <NAR>  (161) 
5

>  <PSA>  (161) 
99.93

>  <Standard Type>  (161) 
nan

>  <Standard Relation>  (161) 
nan

>  <Standard Units>  (161) 
nan

>  <Standard Value>  (161) 
nan

>  <Assay ChEMBL ID>  (161) 
nan

>  <Assay Description>  (161) 
nan

>  <BAO Label>  (161) 
nan

$$$$

     RDKit          2D

 35 39  0  0  0  0  0  0  0  0999 V2000
   10.5000   -7.7942    0.0000 C   0  0  0  0  0  0  0  0  0  0  0  0
    9.7500   -6.4952    0.0000 C   0  0  0  0  0  0  0  0  0  0  0  0
    8.2500   -6.4952    0.0000 C   0  0  0  0  0  0  0  0  0  0  0  0
    7.5000   -5.1962    0.0000 C   0  0  0  0  0  0  0  0  0  0  0  0
    8.2500   -3.8971    0.0000 C   0  0  0  0  0  0  0  0  0  0  0  0
    7.5000   -2.5981    0.0000 O   0  0  0  0  0  0  0  0  0  0  0  0
    6.0000   -2.5981    0.0000 C   0  0  0  0  0  0  0  0  0  0  0  0
    5.2500   -1.2990    0.0000 C   0  0  0  0  0  0  0  0  0  0  0  0
    3.7500   -1.2990    0.0000 C   0  0  0  0  0  0  0  0  0  0  0  0
    3.0000   -2.5981    0.0000 C   0  0  0  0  0  0  0  0  0  0  0  0
    1.5000   -2.5981    0.0000 N   0  0  0  0  0  0  0  0  0  0  0  0
    0.7500   -1.2990    0.0000 C   0  0  0  0  0  0  0  0  0  0  0  0
    1.5000    0.0000    0.0000 N   0  0  0  0  0  0  0  0  0  0  0  0
    0.7500    1.2990    0.0000 C   0  0  0  0  0  0  0  0  0  0  0  0
   -0.7500    1.2990    0.0000 N   0  0  0  0  0  0  0  0  0  0  0  0
   -1.5000    0.0000    0.0000 C   0  0  0  0  0  0  0  0  0  0  0  0
   -2.9672   -0.3119    0.0000 N   0  0  0  0  0  0  0  0  0  0  0  0
   -3.1240   -1.8037    0.0000 N   0  0  0  0  0  0  0  0  0  0  0  0
   -1.7537   -2.4138    0.0000 C   0  0  0  0  0  0  0  0  0  0  0  0
   -1.4418   -3.8810    0.0000 O   0  0  0  0  0  0  0  0  0  0  0  0
   -2.5565   -4.8847    0.0000 C   0  0  0  0  0  0  0  0  0  0  0  0
   -2.2447   -6.3519    0.0000 C   0  0  0  0  0  0  0  0  0  0  0  0
   -3.3594   -7.3556    0.0000 N   0  0  0  0  0  0  0  0  0  0  0  0
   -4.7860   -6.8921    0.0000 C   0  0  0  0  0  0  0  0  0  0  0  0
   -5.9007   -7.8958    0.0000 C   0  0  0  0  0  0  0  0  0  0  0  0
   -5.5888   -9.3630    0.0000 C   0  0  0  0  0  0  0  0  0  0  0  0
   -6.7035  -10.3667    0.0000 O   0  0  0  0  0  0  0  0  0  0  0  0
   -4.1622   -9.8265    0.0000 C   0  0  0  0  0  0  0  0  0  0  0  0
   -3.0475   -8.8228    0.0000 C   0  0  0  0  0  0  0  0  0  0  0  0
   -0.7500   -1.2990    0.0000 C   0  0  0  0  0  0  0  0  0  0  0  0
    3.7500   -3.8971    0.0000 C   0  0  0  0  0  0  0  0  0  0  0  0
    5.2500   -3.8971    0.0000 C   0  0  0  0  0  0  0  0  0  0  0  0
    6.0000   -5.1962    0.0000 Cl  0  0  0  0  0  0  0  0  0  0  0  0
    9.7500   -3.8971    0.0000 C   0  0  0  0  0  0  0  0  0  0  0  0
   10.5000   -5.1962    0.0000 N   0  0  0  0  0  0  0  0  0  0  0  0
  1  2  1  0
  2  3  2  0
  3  4  1  0
  4  5  2  0
  5  6  1  0
  6  7  1  0
  7  8  2  0
  8  9  1  0
  9 10  2  0
 10 11  1  0
 11 12  1  0
 12 13  2  0
 13 14  1  0
 14 15  2  0
 15 16  1  0
 16 17  1  0
 17 18  1  0
 18 19  2  0
 19 20  1  0
 20 21  1  0
 21 22  1  0
 22 23  1  0
 23 24  1  0
 24 25  1  0
 25 26  1  0
 26 27  1  0
 26 28  1  0
 28 29  1  0
 19 30  1  0
 10 31  1  0
 31 32  2  0
 32 33  1  0
  5 34  1  0
 34 35  2  0
 35  2  1  0
 32  7  1  0
 30 12  1  0
 30 16  2  0
 29 23  1  0
M  END
>  <Compound_ID>  (162) 
CHEMBL255170

>  <Active>  (162) 
1.0

>  <Smiles>  (162) 
Cc1ccc(Oc2ccc(Nc3ncnc4[nH]nc(OCCN5CCC(O)CC5)c34)cc2Cl)cn1

>  <canonical_smi>  (162) 
Cc1ccc(Oc2ccc(Nc3ncnc4[nH]nc(OCCN5CCC(O)CC5)c34)cc2Cl)cn1

>  <Set>  (162) 
G2 active

>  <Set_type>  (162) 
Train

>  <MW>  (162) 
495.97

>  <HBD>  (162) 
3

>  <HBA>  (162) 
9

>  <NRB>  (162) 
8

>  <NR>  (162) 
5

>  <NAR>  (162) 
4

>  <PSA>  (162) 
121.31

>  <Standard Type>  (162) 
nan

>  <Standard Relation>  (162) 
nan

>  <Standard Units>  (162) 
nan

>  <Standard Value>  (162) 
nan

>  <Assay ChEMBL ID>  (162) 
nan

>  <Assay Description>  (162) 
nan

>  <BAO Label>  (162) 
nan

$$$$

     RDKit          2D

 33 37  0  0  0  0  0  0  0  0999 V2000
   12.7500   -1.2990    0.0000 F   0  0  0  0  0  0  0  0  0  0  0  0
   12.0000   -2.5981    0.0000 C   0  0  0  0  0  0  0  0  0  0  0  0
   12.7500   -3.8971    0.0000 C   0  0  0  0  0  0  0  0  0  0  0  0
   12.0000   -5.1962    0.0000 C   0  0  0  0  0  0  0  0  0  0  0  0
   10.5000   -5.1962    0.0000 C   0  0  0  0  0  0  0  0  0  0  0  0
    9.7500   -3.8971    0.0000 C   0  0  0  0  0  0  0  0  0  0  0  0
    8.2500   -3.8971    0.0000 C   0  0  0  0  0  0  0  0  0  0  0  0
    7.5000   -2.5981    0.0000 O   0  0  0  0  0  0  0  0  0  0  0  0
    6.0000   -2.5981    0.0000 C   0  0  0  0  0  0  0  0  0  0  0  0
    5.2500   -1.2990    0.0000 C   0  0  0  0  0  0  0  0  0  0  0  0
    3.7500   -1.2990    0.0000 C   0  0  0  0  0  0  0  0  0  0  0  0
    3.0000   -2.5981    0.0000 C   0  0  0  0  0  0  0  0  0  0  0  0
    1.5000   -2.5981    0.0000 N   0  0  0  0  0  0  0  0  0  0  0  0
    0.7500   -1.2990    0.0000 C   0  0  0  0  0  0  0  0  0  0  0  0
    1.5000    0.0000    0.0000 N   0  0  0  0  0  0  0  0  0  0  0  0
    0.7500    1.2990    0.0000 C   0  0  0  0  0  0  0  0  0  0  0  0
   -0.7500    1.2990    0.0000 N   0  0  0  0  0  0  0  0  0  0  0  0
   -1.5000    0.0000    0.0000 C   0  0  0  0  0  0  0  0  0  0  0  0
   -2.9672   -0.3119    0.0000 C   0  0  0  0  0  0  0  0  0  0  0  0
   -3.1240   -1.8037    0.0000 C   0  0  0  0  0  0  0  0  0  0  0  0
   -4.4231   -2.5537    0.0000 C   0  0  0  0  0  0  0  0  0  0  0  0
   -5.7221   -3.3037    0.0000 C   0  0  0  0  0  0  0  0  0  0  0  0
   -7.0211   -4.0537    0.0000 C   0  0  0  0  0  0  0  0  0  0  0  0
   -7.1779   -5.5454    0.0000 C   0  0  0  0  0  0  0  0  0  0  0  0
   -8.6451   -5.8573    0.0000 C   0  0  0  0  0  0  0  0  0  0  0  0
   -9.3951   -4.5583    0.0000 C   0  0  0  0  0  0  0  0  0  0  0  0
   -8.3914   -3.4435    0.0000 N   0  0  0  0  0  0  0  0  0  0  0  0
   -1.7537   -2.4138    0.0000 S   0  0  0  0  0  0  0  0  0  0  0  0
   -0.7500   -1.2990    0.0000 C   0  0  0  0  0  0  0  0  0  0  0  0
    3.7500   -3.8971    0.0000 C   0  0  0  0  0  0  0  0  0  0  0  0
    5.2500   -3.8971    0.0000 C   0  0  0  0  0  0  0  0  0  0  0  0
    6.0000   -5.1962    0.0000 Cl  0  0  0  0  0  0  0  0  0  0  0  0
   10.5000   -2.5981    0.0000 C   0  0  0  0  0  0  0  0  0  0  0  0
  1  2  1  0
  2  3  2  0
  3  4  1  0
  4  5  2  0
  5  6  1  0
  6  7  1  0
  7  8  1  0
  8  9  1  0
  9 10  2  0
 10 11  1  0
 11 12  2  0
 12 13  1  0
 13 14  1  0
 14 15  2  0
 15 16  1  0
 16 17  2  0
 17 18  1  0
 18 19  1  0
 19 20  2  0
 20 21  1  0
 21 22  3  0
 23 22  1  1
 23 24  1  0
 24 25  1  0
 25 26  1  0
 26 27  1  0
 20 28  1  0
 28 29  1  0
 12 30  1  0
 30 31  2  0
 31 32  1  0
  6 33  2  0
 33  2  1  0
 31  9  1  0
 29 14  1  0
 29 18  2  0
 27 23  1  0
M  END
>  <Compound_ID>  (163) 
CHEMBL496174

>  <Active>  (163) 
1.0

>  <Smiles>  (163) 
Fc1cccc(COc2ccc(Nc3ncnc4cc(C#C[C@H]5CCCN5)sc34)cc2Cl)c1

>  <canonical_smi>  (163) 
Fc1cccc(COc2ccc(Nc3ncnc4cc(C#C[C@H]5CCCN5)sc34)cc2Cl)c1

>  <Set>  (163) 
G2 active

>  <Set_type>  (163) 
Train

>  <MW>  (163) 
478.98

>  <HBD>  (163) 
2

>  <HBA>  (163) 
5

>  <NRB>  (163) 
5

>  <NR>  (163) 
5

>  <NAR>  (163) 
4

>  <PSA>  (163) 
59.07

>  <Standard Type>  (163) 
nan

>  <Standard Relation>  (163) 
nan

>  <Standard Units>  (163) 
nan

>  <Standard Value>  (163) 
nan

>  <Assay ChEMBL ID>  (163) 
nan

>  <Assay Description>  (163) 
nan

>  <BAO Label>  (163) 
nan

$$$$

     RDKit          2D

 28 31  0  0  0  0  0  0  0  0999 V2000
   -6.4952   -8.8573    0.0000 N   0  0  0  0  0  0  0  0  0  0  0  0
   -5.1962   -8.1073    0.0000 S   0  0  0  0  0  0  0  0  0  0  0  0
   -5.9462   -6.8083    0.0000 O   0  0  0  0  0  0  0  0  0  0  0  0
   -4.4462   -9.4063    0.0000 O   0  0  0  0  0  0  0  0  0  0  0  0
   -3.8971   -7.3573    0.0000 C   0  0  0  0  0  0  0  0  0  0  0  0
   -3.8971   -5.8573    0.0000 C   0  0  0  0  0  0  0  0  0  0  0  0
   -2.5981   -5.1073    0.0000 C   0  0  0  0  0  0  0  0  0  0  0  0
   -1.2990   -5.8573    0.0000 C   0  0  0  0  0  0  0  0  0  0  0  0
   -0.0000   -5.1073    0.0000 N   0  0  0  0  0  0  0  0  0  0  0  0
   -0.0000   -3.6073    0.0000 C   0  0  0  0  0  0  0  0  0  0  0  0
    1.2135   -2.7256    0.0000 N   0  0  0  0  0  0  0  0  0  0  0  0
    0.7500   -1.2990    0.0000 C   0  0  0  0  0  0  0  0  0  0  0  0
    1.5000    0.0000    0.0000 N   0  0  0  0  0  0  0  0  0  0  0  0
    0.7500    1.2990    0.0000 C   0  0  0  0  0  0  0  0  0  0  0  0
   -0.7500    1.2990    0.0000 N   0  0  0  0  0  0  0  0  0  0  0  0
   -1.5000    0.0000    0.0000 C   0  0  0  0  0  0  0  0  0  0  0  0
   -3.0000    0.0000    0.0000 N   0  0  0  0  0  0  0  0  0  0  0  0
   -3.7500    1.2990    0.0000 C   0  0  0  0  0  0  0  0  0  0  0  0
   -3.0000    2.5981    0.0000 C   0  0  0  0  0  0  0  0  0  0  0  0
   -3.7500    3.8971    0.0000 C   0  0  0  0  0  0  0  0  0  0  0  0
   -5.2500    3.8971    0.0000 C   0  0  0  0  0  0  0  0  0  0  0  0
   -6.0000    2.5981    0.0000 C   0  0  0  0  0  0  0  0  0  0  0  0
   -7.5000    2.5981    0.0000 Cl  0  0  0  0  0  0  0  0  0  0  0  0
   -5.2500    1.2990    0.0000 C   0  0  0  0  0  0  0  0  0  0  0  0
   -0.7500   -1.2990    0.0000 C   0  0  0  0  0  0  0  0  0  0  0  0
   -1.2135   -2.7256    0.0000 S   0  0  0  0  0  0  0  0  0  0  0  0
   -1.2990   -7.3573    0.0000 C   0  0  0  0  0  0  0  0  0  0  0  0
   -2.5981   -8.1073    0.0000 C   0  0  0  0  0  0  0  0  0  0  0  0
  1  2  1  0
  2  3  2  0
  2  4  2  0
  2  5  1  0
  5  6  2  0
  6  7  1  0
  7  8  2  0
  8  9  1  0
  9 10  1  0
 10 11  2  0
 11 12  1  0
 12 13  2  0
 13 14  1  0
 14 15  2  0
 15 16  1  0
 16 17  1  0
 17 18  1  0
 18 19  2  0
 19 20  1  0
 20 21  2  0
 21 22  1  0
 22 23  1  0
 22 24  2  0
 16 25  2  0
 25 26  1  0
  8 27  1  0
 27 28  2  0
 28  5  1  0
 26 10  1  0
 25 12  1  0
 24 18  1  0
M  END
>  <Compound_ID>  (164) 
CHEMBL513418

>  <Active>  (164) 
1.0

>  <Smiles>  (164) 
NS(=O)(=O)c1ccc(Nc2nc3ncnc(Nc4cccc(Cl)c4)c3s2)cc1

>  <canonical_smi>  (164) 
NS(=O)(=O)c1ccc(Nc2nc3ncnc(Nc4cccc(Cl)c4)c3s2)cc1

>  <Set>  (164) 
G2 active

>  <Set_type>  (164) 
Train

>  <MW>  (164) 
432.92

>  <HBD>  (164) 
3

>  <HBA>  (164) 
7

>  <NRB>  (164) 
5

>  <NR>  (164) 
4

>  <NAR>  (164) 
4

>  <PSA>  (164) 
122.89

>  <Standard Type>  (164) 
nan

>  <Standard Relation>  (164) 
nan

>  <Standard Units>  (164) 
nan

>  <Standard Value>  (164) 
nan

>  <Assay ChEMBL ID>  (164) 
nan

>  <Assay Description>  (164) 
nan

>  <BAO Label>  (164) 
nan

$$$$

     RDKit          2D

 39 43  0  0  0  0  0  0  0  0999 V2000
    9.0985   -9.6461    0.0000 C   0  0  0  0  0  0  0  0  0  0  0  0
    7.7282   -9.0360    0.0000 S   0  0  0  0  0  0  0  0  0  0  0  0
    8.3383   -7.6657    0.0000 O   0  0  0  0  0  0  0  0  0  0  0  0
    7.1181  -10.4063    0.0000 O   0  0  0  0  0  0  0  0  0  0  0  0
    6.3579   -8.4259    0.0000 C   0  0  0  0  0  0  0  0  0  0  0  0
    6.2011   -6.9341    0.0000 C   0  0  0  0  0  0  0  0  0  0  0  0
    4.8308   -6.3240    0.0000 N   0  0  0  0  0  0  0  0  0  0  0  0
    4.6740   -4.8322    0.0000 C   0  0  0  0  0  0  0  0  0  0  0  0
    3.3037   -4.2221    0.0000 C   0  0  0  0  0  0  0  0  0  0  0  0
    2.9918   -2.7549    0.0000 N   0  0  0  0  0  0  0  0  0  0  0  0
    1.5000   -2.5981    0.0000 C   0  0  0  0  0  0  0  0  0  0  0  0
    0.7500   -1.2990    0.0000 C   0  0  0  0  0  0  0  0  0  0  0  0
    1.5000    0.0000    0.0000 C   0  0  0  0  0  0  0  0  0  0  0  0
    0.7500    1.2990    0.0000 C   0  0  0  0  0  0  0  0  0  0  0  0
   -0.7500    1.2990    0.0000 C   0  0  0  0  0  0  0  0  0  0  0  0
   -1.5000    2.5981    0.0000 N   0  0  0  0  0  0  0  0  0  0  0  0
   -3.0000    2.5981    0.0000 C   0  0  0  0  0  0  0  0  0  0  0  0
   -3.7500    1.2990    0.0000 N   0  0  0  0  0  0  0  0  0  0  0  0
   -3.0000    0.0000    0.0000 C   0  0  0  0  0  0  0  0  0  0  0  0
   -3.7500   -1.2990    0.0000 N   0  0  0  0  0  0  0  0  0  0  0  0
   -5.2500   -1.2990    0.0000 C   0  0  0  0  0  0  0  0  0  0  0  0
   -6.0000    0.0000    0.0000 C   0  0  0  0  0  0  0  0  0  0  0  0
   -7.5000    0.0000    0.0000 C   0  0  0  0  0  0  0  0  0  0  0  0
   -8.2500   -1.2990    0.0000 C   0  0  0  0  0  0  0  0  0  0  0  0
   -9.7500   -1.2990    0.0000 O   0  0  0  0  0  0  0  0  0  0  0  0
  -10.5000    0.0000    0.0000 C   0  0  0  0  0  0  0  0  0  0  0  0
  -12.0000    0.0000    0.0000 C   0  0  0  0  0  0  0  0  0  0  0  0
  -12.7500    1.2990    0.0000 C   0  0  0  0  0  0  0  0  0  0  0  0
  -14.2500    1.2990    0.0000 C   0  0  0  0  0  0  0  0  0  0  0  0
  -15.0000    0.0000    0.0000 C   0  0  0  0  0  0  0  0  0  0  0  0
  -14.2500   -1.2990    0.0000 C   0  0  0  0  0  0  0  0  0  0  0  0
  -12.7500   -1.2990    0.0000 C   0  0  0  0  0  0  0  0  0  0  0  0
   -7.5000   -2.5981    0.0000 C   0  0  0  0  0  0  0  0  0  0  0  0
   -8.2500   -3.8971    0.0000 Cl  0  0  0  0  0  0  0  0  0  0  0  0
   -6.0000   -2.5981    0.0000 C   0  0  0  0  0  0  0  0  0  0  0  0
   -1.5000    0.0000    0.0000 C   0  0  0  0  0  0  0  0  0  0  0  0
   -0.7500   -1.2990    0.0000 C   0  0  0  0  0  0  0  0  0  0  0  0
    0.8899   -3.9684    0.0000 C   0  0  0  0  0  0  0  0  0  0  0  0
    2.0046   -4.9721    0.0000 S   0  0  0  0  0  0  0  0  0  0  0  0
  1  2  1  0
  2  3  2  0
  2  4  2  0
  2  5  1  0
  5  6  1  0
  6  7  1  0
  7  8  1  0
  8  9  1  0
  9 10  2  0
 10 11  1  0
 11 12  1  0
 12 13  2  0
 13 14  1  0
 14 15  2  0
 15 16  1  0
 16 17  2  0
 17 18  1  0
 18 19  2  0
 19 20  1  0
 20 21  1  0
 21 22  2  0
 22 23  1  0
 23 24  2  0
 24 25  1  0
 25 26  1  0
 26 27  1  0
 27 28  2  0
 28 29  1  0
 29 30  2  0
 30 31  1  0
 31 32  2  0
 24 33  1  0
 33 34  1  0
 33 35  2  0
 19 36  1  0
 36 37  2  0
 11 38  2  0
 38 39  1  0
 39  9  1  0
 37 12  1  0
 36 15  1  0
 35 21  1  0
 32 27  1  0
M  END
>  <Compound_ID>  (165) 
CHEMBL515082

>  <Active>  (165) 
1.0

>  <Smiles>  (165) 
CS(=O)(=O)CCNCc1nc(-c2ccc3ncnc(Nc4ccc(OCc5ccccc5)c(Cl)c4)c3c2)cs1

>  <canonical_smi>  (165) 
CS(=O)(=O)CCNCc1nc(-c2ccc3ncnc(Nc4ccc(OCc5ccccc5)c(Cl)c4)c3c2)cs1

>  <Set>  (165) 
G2 active

>  <Set_type>  (165) 
Train

>  <MW>  (165) 
580.14

>  <HBD>  (165) 
2

>  <HBA>  (165) 
8

>  <NRB>  (165) 
11

>  <NR>  (165) 
5

>  <NAR>  (165) 
5

>  <PSA>  (165) 
106.1

>  <Standard Type>  (165) 
nan

>  <Standard Relation>  (165) 
nan

>  <Standard Units>  (165) 
nan

>  <Standard Value>  (165) 
nan

>  <Assay ChEMBL ID>  (165) 
nan

>  <Assay Description>  (165) 
nan

>  <BAO Label>  (165) 
nan

$$$$

     RDKit          2D

 31 34  0  0  0  0  0  0  0  0999 V2000
    0.7500   -6.4952    0.0000 C   0  0  0  0  0  0  0  0  0  0  0  0
    1.5000   -5.1962    0.0000 O   0  0  0  0  0  0  0  0  0  0  0  0
    0.7500   -3.8971    0.0000 C   0  0  0  0  0  0  0  0  0  0  0  0
    1.5000   -2.5981    0.0000 C   0  0  0  0  0  0  0  0  0  0  0  0
    0.7500   -1.2990    0.0000 C   0  0  0  0  0  0  0  0  0  0  0  0
    1.5000    0.0000    0.0000 N   0  0  0  0  0  0  0  0  0  0  0  0
    0.7500    1.2990    0.0000 C   0  0  0  0  0  0  0  0  0  0  0  0
   -0.7500    1.2990    0.0000 N   0  0  0  0  0  0  0  0  0  0  0  0
   -1.5000    0.0000    0.0000 C   0  0  0  0  0  0  0  0  0  0  0  0
   -3.0000    0.0000    0.0000 N   0  0  0  0  0  0  0  0  0  0  0  0
   -3.7500    1.2990    0.0000 C   0  0  0  0  0  0  0  0  0  0  0  0
   -3.0000    2.5981    0.0000 C   0  0  0  0  0  0  0  0  0  0  0  0
   -3.7500    3.8971    0.0000 C   0  0  0  0  0  0  0  0  0  0  0  0
   -5.2500    3.8971    0.0000 C   0  0  0  0  0  0  0  0  0  0  0  0
   -6.0000    5.1962    0.0000 F   0  0  0  0  0  0  0  0  0  0  0  0
   -6.0000    2.5981    0.0000 C   0  0  0  0  0  0  0  0  0  0  0  0
   -7.5000    2.5981    0.0000 Cl  0  0  0  0  0  0  0  0  0  0  0  0
   -5.2500    1.2990    0.0000 C   0  0  0  0  0  0  0  0  0  0  0  0
   -0.7500   -1.2990    0.0000 C   0  0  0  0  0  0  0  0  0  0  0  0
   -1.5000   -2.5981    0.0000 C   0  0  0  0  0  0  0  0  0  0  0  0
   -0.7500   -3.8971    0.0000 C   0  0  0  0  0  0  0  0  0  0  0  0
   -1.5000   -5.1962    0.0000 O   0  0  0  0  0  0  0  0  0  0  0  0
   -3.0000   -5.1962    0.0000 C   0  0  0  0  0  0  0  0  0  0  0  0
   -3.7500   -6.4952    0.0000 C   0  0  0  0  0  0  0  0  0  0  0  0
   -3.0000   -7.7942    0.0000 O   0  0  0  0  0  0  0  0  0  0  0  0
   -5.2500   -6.4952    0.0000 C   0  0  0  0  0  0  0  0  0  0  0  0
   -6.0000   -7.7942    0.0000 N   0  0  0  0  0  0  0  0  0  0  0  0
   -5.3899   -9.1645    0.0000 C   0  0  0  0  0  0  0  0  0  0  0  0
   -6.5046  -10.1682    0.0000 C   0  0  0  0  0  0  0  0  0  0  0  0
   -7.8037   -9.4182    0.0000 N   0  0  0  0  0  0  0  0  0  0  0  0
   -7.4918   -7.9510    0.0000 C   0  0  0  0  0  0  0  0  0  0  0  0
  1  2  1  0
  2  3  1  0
  3  4  2  0
  4  5  1  0
  5  6  2  0
  6  7  1  0
  7  8  2  0
  8  9  1  0
  9 10  1  0
 10 11  1  0
 11 12  2  0
 12 13  1  0
 13 14  2  0
 14 15  1  0
 14 16  1  0
 16 17  1  0
 16 18  2  0
  9 19  2  0
 19 20  1  0
 20 21  2  0
 21 22  1  0
 22 23  1  0
 23 24  1  0
 24 25  1  0
 24 26  1  0
 26 27  1  0
 27 28  1  0
 28 29  2  0
 29 30  1  0
 30 31  2  0
 21  3  1  0
 31 27  1  0
 19  5  1  0
 18 11  1  0
M  END
>  <Compound_ID>  (166) 
CHEMBL60826

>  <Active>  (166) 
1.0

>  <Smiles>  (166) 
COc1cc2ncnc(Nc3ccc(F)c(Cl)c3)c2cc1OCC(O)Cn1ccnc1

>  <canonical_smi>  (166) 
COc1cc2ncnc(Nc3ccc(F)c(Cl)c3)c2cc1OCC(O)Cn1ccnc1

>  <Set>  (166) 
G2 active

>  <Set_type>  (166) 
Train

>  <MW>  (166) 
443.87

>  <HBD>  (166) 
2

>  <HBA>  (166) 
7

>  <NRB>  (166) 
8

>  <NR>  (166) 
4

>  <NAR>  (166) 
4

>  <PSA>  (166) 
94.32

>  <Standard Type>  (166) 
nan

>  <Standard Relation>  (166) 
nan

>  <Standard Units>  (166) 
nan

>  <Standard Value>  (166) 
nan

>  <Assay ChEMBL ID>  (166) 
nan

>  <Assay Description>  (166) 
nan

>  <BAO Label>  (166) 
nan

$$$$

     RDKit          2D

 20 22  0  0  0  0  0  0  0  0999 V2000
    3.0000    0.0000    0.0000 O   0  0  0  0  0  0  0  0  0  0  0  0
    1.5000    0.0000    0.0000 C   0  0  0  0  0  0  0  0  0  0  0  0
    0.7500   -1.2990    0.0000 C   0  0  0  0  0  0  0  0  0  0  0  0
   -0.7500   -1.2990    0.0000 C   0  0  0  0  0  0  0  0  0  0  0  0
   -1.5000   -2.5981    0.0000 O   0  0  0  0  0  0  0  0  0  0  0  0
   -1.5000    0.0000    0.0000 C   0  0  0  0  0  0  0  0  0  0  0  0
   -3.0000    0.0000    0.0000 C   0  0  0  0  0  0  0  0  0  0  0  0
   -3.7500   -1.2990    0.0000 O   0  0  0  0  0  0  0  0  0  0  0  0
   -3.7500    1.2990    0.0000 C   0  0  0  0  0  0  0  0  0  0  0  0
   -5.2500    1.2990    0.0000 C   0  0  0  0  0  0  0  0  0  0  0  0
   -6.0000    2.5981    0.0000 C   0  0  0  0  0  0  0  0  0  0  0  0
   -7.5000    2.5981    0.0000 C   0  0  0  0  0  0  0  0  0  0  0  0
   -8.2500    1.2990    0.0000 C   0  0  0  0  0  0  0  0  0  0  0  0
   -7.5000    0.0000    0.0000 C   0  0  0  0  0  0  0  0  0  0  0  0
   -8.2500   -1.2990    0.0000 Cl  0  0  0  0  0  0  0  0  0  0  0  0
   -6.0000    0.0000    0.0000 C   0  0  0  0  0  0  0  0  0  0  0  0
   -3.0000    2.5981    0.0000 C   0  0  0  0  0  0  0  0  0  0  0  0
   -1.5000    2.5981    0.0000 N   0  0  0  0  0  0  0  0  0  0  0  0
   -0.7500    1.2990    0.0000 C   0  0  0  0  0  0  0  0  0  0  0  0
    0.7500    1.2990    0.0000 C   0  0  0  0  0  0  0  0  0  0  0  0
  1  2  1  0
  2  3  2  0
  3  4  1  0
  4  5  1  0
  4  6  2  0
  6  7  1  0
  7  8  1  0
  7  9  2  0
  9 10  1  0
 10 11  2  0
 11 12  1  0
 12 13  2  0
 13 14  1  0
 14 15  1  0
 14 16  2  0
  9 17  1  0
 17 18  2  0
 18 19  1  0
 19 20  2  0
 20  2  1  0
 19  6  1  0
 16 10  1  0
M  END
>  <Compound_ID>  (167) 
CHEMBL266995

>  <Active>  (167) 
1.0

>  <Smiles>  (167) 
Oc1cc(O)c2c(O)c(-c3cccc(Cl)c3)cnc2c1

>  <canonical_smi>  (167) 
Oc1cc(O)c2c(O)c(-c3cccc(Cl)c3)cnc2c1

>  <Set>  (167) 
G2 active

>  <Set_type>  (167) 
Train

>  <MW>  (167) 
287.7

>  <HBD>  (167) 
3

>  <HBA>  (167) 
4

>  <NRB>  (167) 
1

>  <NR>  (167) 
3

>  <NAR>  (167) 
3

>  <PSA>  (167) 
73.58

>  <Standard Type>  (167) 
nan

>  <Standard Relation>  (167) 
nan

>  <Standard Units>  (167) 
nan

>  <Standard Value>  (167) 
nan

>  <Assay ChEMBL ID>  (167) 
nan

>  <Assay Description>  (167) 
nan

>  <BAO Label>  (167) 
nan

$$$$

     RDKit          2D

 33 37  0  0  0  0  0  0  0  0999 V2000
    6.0000   -5.1962    0.0000 Cl  0  0  0  0  0  0  0  0  0  0  0  0
    5.2500   -3.8971    0.0000 C   0  0  0  0  0  0  0  0  0  0  0  0
    3.7500   -3.8971    0.0000 C   0  0  0  0  0  0  0  0  0  0  0  0
    3.0000   -2.5981    0.0000 C   0  0  0  0  0  0  0  0  0  0  0  0
    1.5000   -2.5981    0.0000 N   0  0  0  0  0  0  0  0  0  0  0  0
    0.7500   -1.2990    0.0000 C   0  0  0  0  0  0  0  0  0  0  0  0
    1.5000    0.0000    0.0000 N   0  0  0  0  0  0  0  0  0  0  0  0
    0.7500    1.2990    0.0000 C   0  0  0  0  0  0  0  0  0  0  0  0
   -0.7500    1.2990    0.0000 N   0  0  0  0  0  0  0  0  0  0  0  0
   -1.5000    0.0000    0.0000 C   0  0  0  0  0  0  0  0  0  0  0  0
   -2.9672   -0.3119    0.0000 N   0  0  0  0  0  0  0  0  0  0  0  0
   -3.1240   -1.8037    0.0000 N   0  0  0  0  0  0  0  0  0  0  0  0
   -1.7537   -2.4138    0.0000 C   0  0  0  0  0  0  0  0  0  0  0  0
   -1.4418   -3.8810    0.0000 O   0  0  0  0  0  0  0  0  0  0  0  0
   -2.5565   -4.8847    0.0000 C   0  0  0  0  0  0  0  0  0  0  0  0
   -2.2447   -6.3519    0.0000 C   0  0  0  0  0  0  0  0  0  0  0  0
   -3.3594   -7.3556    0.0000 N   0  0  0  0  0  0  0  0  0  0  0  0
   -3.2026   -8.8474    0.0000 C   0  0  0  0  0  0  0  0  0  0  0  0
   -4.5729   -9.4575    0.0000 C   0  0  0  0  0  0  0  0  0  0  0  0
   -5.5766   -8.3428    0.0000 C   0  0  0  0  0  0  0  0  0  0  0  0
   -4.8266   -7.0437    0.0000 C   0  0  0  0  0  0  0  0  0  0  0  0
   -0.7500   -1.2990    0.0000 C   0  0  0  0  0  0  0  0  0  0  0  0
    3.7500   -1.2990    0.0000 C   0  0  0  0  0  0  0  0  0  0  0  0
    5.2500   -1.2990    0.0000 C   0  0  0  0  0  0  0  0  0  0  0  0
    6.0000   -2.5981    0.0000 C   0  0  0  0  0  0  0  0  0  0  0  0
    7.5000   -2.5981    0.0000 O   0  0  0  0  0  0  0  0  0  0  0  0
    8.2500   -1.2990    0.0000 C   0  0  0  0  0  0  0  0  0  0  0  0
    9.7500   -1.2990    0.0000 C   0  0  0  0  0  0  0  0  0  0  0  0
   10.5000   -2.5981    0.0000 C   0  0  0  0  0  0  0  0  0  0  0  0
   12.0000   -2.5981    0.0000 C   0  0  0  0  0  0  0  0  0  0  0  0
   12.7500   -1.2990    0.0000 C   0  0  0  0  0  0  0  0  0  0  0  0
   12.0000   -0.0000    0.0000 C   0  0  0  0  0  0  0  0  0  0  0  0
   10.5000   -0.0000    0.0000 N   0  0  0  0  0  0  0  0  0  0  0  0
  1  2  1  0
  2  3  2  0
  3  4  1  0
  4  5  1  0
  5  6  1  0
  6  7  2  0
  7  8  1  0
  8  9  2  0
  9 10  1  0
 10 11  1  0
 11 12  1  0
 12 13  2  0
 13 14  1  0
 14 15  1  0
 15 16  1  0
 16 17  1  0
 17 18  1  0
 18 19  1  0
 19 20  1  0
 20 21  1  0
 13 22  1  0
  4 23  2  0
 23 24  1  0
 24 25  2  0
 25 26  1  0
 26 27  1  0
 27 28  1  0
 28 29  2  0
 29 30  1  0
 30 31  2  0
 31 32  1  0
 32 33  2  0
 25  2  1  0
 33 28  1  0
 22  6  1  0
 22 10  2  0
 21 17  1  0
M  END
>  <Compound_ID>  (168) 
CHEMBL402553

>  <Active>  (168) 
1.0

>  <Smiles>  (168) 
Clc1cc(Nc2ncnc3[nH]nc(OCCN4CCCC4)c23)ccc1OCc1ccccn1

>  <canonical_smi>  (168) 
Clc1cc(Nc2ncnc3[nH]nc(OCCN4CCCC4)c23)ccc1OCc1ccccn1

>  <Set>  (168) 
G2 active

>  <Set_type>  (168) 
Train

>  <MW>  (168) 
465.95

>  <HBD>  (168) 
2

>  <HBA>  (168) 
8

>  <NRB>  (168) 
9

>  <NR>  (168) 
5

>  <NAR>  (168) 
4

>  <PSA>  (168) 
101.08

>  <Standard Type>  (168) 
nan

>  <Standard Relation>  (168) 
nan

>  <Standard Units>  (168) 
nan

>  <Standard Value>  (168) 
nan

>  <Assay ChEMBL ID>  (168) 
nan

>  <Assay Description>  (168) 
nan

>  <BAO Label>  (168) 
nan

$$$$

     RDKit          2D

 31 35  0  0  0  0  0  0  0  0999 V2000
   12.7500   -1.2990    0.0000 F   0  0  0  0  0  0  0  0  0  0  0  0
   12.0000   -2.5981    0.0000 C   0  0  0  0  0  0  0  0  0  0  0  0
   12.7500   -3.8971    0.0000 C   0  0  0  0  0  0  0  0  0  0  0  0
   12.0000   -5.1962    0.0000 C   0  0  0  0  0  0  0  0  0  0  0  0
   10.5000   -5.1962    0.0000 C   0  0  0  0  0  0  0  0  0  0  0  0
    9.7500   -3.8971    0.0000 C   0  0  0  0  0  0  0  0  0  0  0  0
    8.2500   -3.8971    0.0000 C   0  0  0  0  0  0  0  0  0  0  0  0
    7.5000   -2.5981    0.0000 O   0  0  0  0  0  0  0  0  0  0  0  0
    6.0000   -2.5981    0.0000 C   0  0  0  0  0  0  0  0  0  0  0  0
    5.2500   -1.2990    0.0000 C   0  0  0  0  0  0  0  0  0  0  0  0
    3.7500   -1.2990    0.0000 C   0  0  0  0  0  0  0  0  0  0  0  0
    3.0000   -2.5981    0.0000 C   0  0  0  0  0  0  0  0  0  0  0  0
    1.5000   -2.5981    0.0000 N   0  0  0  0  0  0  0  0  0  0  0  0
    0.7500   -1.2990    0.0000 C   0  0  0  0  0  0  0  0  0  0  0  0
    1.5000    0.0000    0.0000 N   0  0  0  0  0  0  0  0  0  0  0  0
    0.7500    1.2990    0.0000 C   0  0  0  0  0  0  0  0  0  0  0  0
   -0.7500    1.2990    0.0000 N   0  0  0  0  0  0  0  0  0  0  0  0
   -1.5000    0.0000    0.0000 C   0  0  0  0  0  0  0  0  0  0  0  0
   -2.9672   -0.3119    0.0000 C   0  0  0  0  0  0  0  0  0  0  0  0
   -3.1240   -1.8037    0.0000 C   0  0  0  0  0  0  0  0  0  0  0  0
   -4.4231   -2.5537    0.0000 C   0  0  0  0  0  0  0  0  0  0  0  0
   -4.5798   -4.0454    0.0000 C   0  0  0  0  0  0  0  0  0  0  0  0
   -6.0471   -4.3573    0.0000 C   0  0  0  0  0  0  0  0  0  0  0  0
   -6.7971   -3.0583    0.0000 C   0  0  0  0  0  0  0  0  0  0  0  0
   -5.7934   -1.9435    0.0000 S   0  0  0  0  0  0  0  0  0  0  0  0
   -1.7537   -2.4138    0.0000 S   0  0  0  0  0  0  0  0  0  0  0  0
   -0.7500   -1.2990    0.0000 C   0  0  0  0  0  0  0  0  0  0  0  0
    3.7500   -3.8971    0.0000 C   0  0  0  0  0  0  0  0  0  0  0  0
    5.2500   -3.8971    0.0000 C   0  0  0  0  0  0  0  0  0  0  0  0
    6.0000   -5.1962    0.0000 Cl  0  0  0  0  0  0  0  0  0  0  0  0
   10.5000   -2.5981    0.0000 C   0  0  0  0  0  0  0  0  0  0  0  0
  1  2  1  0
  2  3  2  0
  3  4  1  0
  4  5  2  0
  5  6  1  0
  6  7  1  0
  7  8  1  0
  8  9  1  0
  9 10  2  0
 10 11  1  0
 11 12  2  0
 12 13  1  0
 13 14  1  0
 14 15  2  0
 15 16  1  0
 16 17  2  0
 17 18  1  0
 18 19  1  0
 19 20  2  0
 20 21  1  0
 21 22  2  0
 22 23  1  0
 23 24  2  0
 24 25  1  0
 20 26  1  0
 26 27  1  0
 12 28  1  0
 28 29  2  0
 29 30  1  0
  6 31  2  0
 31  2  1  0
 29  9  1  0
 27 14  1  0
 27 18  2  0
 25 21  1  0
M  END
>  <Compound_ID>  (169) 
CHEMBL473427

>  <Active>  (169) 
1.0

>  <Smiles>  (169) 
Fc1cccc(COc2ccc(Nc3ncnc4cc(-c5cccs5)sc34)cc2Cl)c1

>  <canonical_smi>  (169) 
Fc1cccc(COc2ccc(Nc3ncnc4cc(-c5cccs5)sc34)cc2Cl)c1

>  <Set>  (169) 
G2 active

>  <Set_type>  (169) 
Train

>  <MW>  (169) 
467.98

>  <HBD>  (169) 
1

>  <HBA>  (169) 
4

>  <NRB>  (169) 
6

>  <NR>  (169) 
5

>  <NAR>  (169) 
5

>  <PSA>  (169) 
47.04

>  <Standard Type>  (169) 
nan

>  <Standard Relation>  (169) 
nan

>  <Standard Units>  (169) 
nan

>  <Standard Value>  (169) 
nan

>  <Assay ChEMBL ID>  (169) 
nan

>  <Assay Description>  (169) 
nan

>  <BAO Label>  (169) 
nan

$$$$

     RDKit          2D

 31 34  0  0  0  0  0  0  0  0999 V2000
    3.0000   -5.1962    0.0000 C   0  0  0  0  0  0  0  0  0  0  0  0
    1.5000   -5.1962    0.0000 O   0  0  0  0  0  0  0  0  0  0  0  0
    0.7500   -3.8971    0.0000 C   0  0  0  0  0  0  0  0  0  0  0  0
    1.5000   -2.5981    0.0000 C   0  0  0  0  0  0  0  0  0  0  0  0
    0.7500   -1.2990    0.0000 C   0  0  0  0  0  0  0  0  0  0  0  0
    1.5000    0.0000    0.0000 N   0  0  0  0  0  0  0  0  0  0  0  0
    0.7500    1.2990    0.0000 C   0  0  0  0  0  0  0  0  0  0  0  0
   -0.7500    1.2990    0.0000 N   0  0  0  0  0  0  0  0  0  0  0  0
   -1.5000    0.0000    0.0000 C   0  0  0  0  0  0  0  0  0  0  0  0
   -3.0000    0.0000    0.0000 N   0  0  0  0  0  0  0  0  0  0  0  0
   -3.7500    1.2990    0.0000 C   0  0  0  0  0  0  0  0  0  0  0  0
   -3.0000    2.5981    0.0000 C   0  0  0  0  0  0  0  0  0  0  0  0
   -3.7500    3.8971    0.0000 C   0  0  0  0  0  0  0  0  0  0  0  0
   -5.2500    3.8971    0.0000 C   0  0  0  0  0  0  0  0  0  0  0  0
   -6.0000    2.5981    0.0000 C   0  0  0  0  0  0  0  0  0  0  0  0
   -7.5000    2.5981    0.0000 Cl  0  0  0  0  0  0  0  0  0  0  0  0
   -5.2500    1.2990    0.0000 C   0  0  0  0  0  0  0  0  0  0  0  0
   -6.0000    0.0000    0.0000 F   0  0  0  0  0  0  0  0  0  0  0  0
   -0.7500   -1.2990    0.0000 C   0  0  0  0  0  0  0  0  0  0  0  0
   -1.5000   -2.5981    0.0000 C   0  0  0  0  0  0  0  0  0  0  0  0
   -0.7500   -3.8971    0.0000 C   0  0  0  0  0  0  0  0  0  0  0  0
   -1.5000   -5.1962    0.0000 C   0  0  0  0  0  0  0  0  0  0  0  0
   -3.0000   -5.1962    0.0000 N   0  0  0  0  0  0  0  0  0  0  0  0
   -3.7500   -3.8971    0.0000 C   0  0  0  0  0  0  0  0  0  0  0  0
   -5.2500   -3.8971    0.0000 C   0  0  0  0  0  0  0  0  0  0  0  0
   -6.0000   -5.1962    0.0000 C   0  0  0  0  0  0  0  0  0  0  0  0
   -5.2500   -6.4952    0.0000 C   0  0  0  0  0  0  0  0  0  0  0  0
   -3.7500   -6.4952    0.0000 C   0  0  0  0  0  0  0  0  0  0  0  0
   -3.0000   -7.7942    0.0000 C   0  0  0  0  0  0  0  0  0  0  0  0
   -3.7500   -9.0933    0.0000 N   0  0  0  0  0  0  0  0  0  0  0  0
   -1.5000   -7.7942    0.0000 O   0  0  0  0  0  0  0  0  0  0  0  0
  1  2  1  0
  2  3  1  0
  3  4  2  0
  4  5  1  0
  5  6  2  0
  6  7  1  0
  7  8  2  0
  8  9  1  0
  9 10  1  0
 10 11  1  0
 11 12  2  0
 12 13  1  0
 13 14  2  0
 14 15  1  0
 15 16  1  0
 15 17  2  0
 17 18  1  0
  9 19  2  0
 19 20  1  0
 20 21  2  0
 21 22  1  0
 22 23  1  0
 23 24  1  0
 24 25  1  0
 25 26  1  0
 26 27  1  0
 27 28  1  0
 28 29  1  1
 29 30  1  0
 29 31  2  0
 21  3  1  0
 28 23  1  0
 19  5  1  0
 17 11  1  0
M  END
>  <Compound_ID>  (170) 
CHEMBL206783

>  <Active>  (170) 
1.0

>  <Smiles>  (170) 
COc1cc2ncnc(Nc3cccc(Cl)c3F)c2cc1CN1CCCC[C@@H]1C(N)=O

>  <canonical_smi>  (170) 
COc1cc2ncnc(Nc3cccc(Cl)c3F)c2cc1CN1CCCC[C@@H]1C(N)=O

>  <Set>  (170) 
G2 active

>  <Set_type>  (170) 
Train

>  <MW>  (170) 
443.91

>  <HBD>  (170) 
2

>  <HBA>  (170) 
6

>  <NRB>  (170) 
6

>  <NR>  (170) 
4

>  <NAR>  (170) 
3

>  <PSA>  (170) 
93.37

>  <Standard Type>  (170) 
nan

>  <Standard Relation>  (170) 
nan

>  <Standard Units>  (170) 
nan

>  <Standard Value>  (170) 
nan

>  <Assay ChEMBL ID>  (170) 
nan

>  <Assay Description>  (170) 
nan

>  <BAO Label>  (170) 
nan

$$$$

     RDKit          2D

 32 35  0  0  0  0  0  0  0  0999 V2000
    3.0000   -5.1962    0.0000 C   0  0  0  0  0  0  0  0  0  0  0  0
    1.5000   -5.1962    0.0000 O   0  0  0  0  0  0  0  0  0  0  0  0
    0.7500   -3.8971    0.0000 C   0  0  0  0  0  0  0  0  0  0  0  0
    1.5000   -2.5981    0.0000 C   0  0  0  0  0  0  0  0  0  0  0  0
    0.7500   -1.2990    0.0000 C   0  0  0  0  0  0  0  0  0  0  0  0
    1.5000    0.0000    0.0000 N   0  0  0  0  0  0  0  0  0  0  0  0
    0.7500    1.2990    0.0000 C   0  0  0  0  0  0  0  0  0  0  0  0
   -0.7500    1.2990    0.0000 N   0  0  0  0  0  0  0  0  0  0  0  0
   -1.5000    0.0000    0.0000 C   0  0  0  0  0  0  0  0  0  0  0  0
   -3.0000    0.0000    0.0000 N   0  0  0  0  0  0  0  0  0  0  0  0
   -3.7500    1.2990    0.0000 C   0  0  0  0  0  0  0  0  0  0  0  0
   -3.0000    2.5981    0.0000 C   0  0  0  0  0  0  0  0  0  0  0  0
   -3.7500    3.8971    0.0000 C   0  0  0  0  0  0  0  0  0  0  0  0
   -5.2500    3.8971    0.0000 C   0  0  0  0  0  0  0  0  0  0  0  0
   -6.0000    5.1962    0.0000 F   0  0  0  0  0  0  0  0  0  0  0  0
   -6.0000    2.5981    0.0000 C   0  0  0  0  0  0  0  0  0  0  0  0
   -7.5000    2.5981    0.0000 Cl  0  0  0  0  0  0  0  0  0  0  0  0
   -5.2500    1.2990    0.0000 C   0  0  0  0  0  0  0  0  0  0  0  0
   -0.7500   -1.2990    0.0000 C   0  0  0  0  0  0  0  0  0  0  0  0
   -1.5000   -2.5981    0.0000 C   0  0  0  0  0  0  0  0  0  0  0  0
   -0.7500   -3.8971    0.0000 C   0  0  0  0  0  0  0  0  0  0  0  0
   -1.5000   -5.1962    0.0000 C   0  0  0  0  0  0  0  0  0  0  0  0
   -3.0000   -5.1962    0.0000 N   0  0  0  0  0  0  0  0  0  0  0  0
   -3.7500   -6.4952    0.0000 C   0  0  0  0  0  0  0  0  0  0  0  0
   -3.0000   -7.7942    0.0000 O   0  0  0  0  0  0  0  0  0  0  0  0
   -5.2500   -6.4952    0.0000 C   0  0  0  0  0  0  0  0  0  0  0  0
   -6.0000   -5.1962    0.0000 C   0  0  0  0  0  0  0  0  0  0  0  0
   -7.5000   -5.1962    0.0000 C   0  0  0  0  0  0  0  0  0  0  0  0
   -8.2500   -6.4952    0.0000 C   0  0  0  0  0  0  0  0  0  0  0  0
   -7.5000   -7.7942    0.0000 C   0  0  0  0  0  0  0  0  0  0  0  0
   -6.0000   -7.7942    0.0000 N   0  0  0  0  0  0  0  0  0  0  0  0
   -5.2500   -9.0933    0.0000 C   0  0  0  0  0  0  0  0  0  0  0  0
  1  2  1  0
  2  3  1  0
  3  4  2  0
  4  5  1  0
  5  6  2  0
  6  7  1  0
  7  8  2  0
  8  9  1  0
  9 10  1  0
 10 11  1  0
 11 12  2  0
 12 13  1  0
 13 14  2  0
 14 15  1  0
 14 16  1  0
 16 17  1  0
 16 18  2  0
  9 19  2  0
 19 20  1  0
 20 21  2  0
 21 22  1  0
 22 23  1  0
 23 24  1  0
 24 25  2  0
 26 24  1  6
 26 27  1  0
 27 28  1  0
 28 29  1  0
 29 30  1  0
 30 31  1  0
 31 32  1  0
 21  3  1  0
 31 26  1  0
 19  5  1  0
 18 11  1  0
M  END
>  <Compound_ID>  (171) 
CHEMBL461967

>  <Active>  (171) 
1.0

>  <Smiles>  (171) 
COc1cc2ncnc(Nc3ccc(F)c(Cl)c3)c2cc1CNC(=O)[C@H]1CCCCN1C

>  <canonical_smi>  (171) 
COc1cc2ncnc(Nc3ccc(F)c(Cl)c3)c2cc1CNC(=O)[C@H]1CCCCN1C

>  <Set>  (171) 
G2 active

>  <Set_type>  (171) 
Train

>  <MW>  (171) 
457.94

>  <HBD>  (171) 
2

>  <HBA>  (171) 
6

>  <NRB>  (171) 
6

>  <NR>  (171) 
4

>  <NAR>  (171) 
3

>  <PSA>  (171) 
79.38

>  <Standard Type>  (171) 
nan

>  <Standard Relation>  (171) 
nan

>  <Standard Units>  (171) 
nan

>  <Standard Value>  (171) 
nan

>  <Assay ChEMBL ID>  (171) 
nan

>  <Assay Description>  (171) 
nan

>  <BAO Label>  (171) 
nan

$$$$

     RDKit          2D

 30 33  0  0  0  0  0  0  0  0999 V2000
   -0.7500   -3.8971    0.0000 O   0  0  0  0  0  0  0  0  0  0  0  0
    0.7500   -3.8971    0.0000 C   0  0  0  0  0  0  0  0  0  0  0  0
    1.5000   -5.1962    0.0000 C   0  0  0  0  0  0  0  0  0  0  0  0
    0.7500   -6.4952    0.0000 O   0  0  0  0  0  0  0  0  0  0  0  0
    1.5000   -7.7942    0.0000 C   0  0  0  0  0  0  0  0  0  0  0  0
    0.7500   -9.0933    0.0000 C   0  0  0  0  0  0  0  0  0  0  0  0
    1.5000  -10.3923    0.0000 C   0  0  0  0  0  0  0  0  0  0  0  0
    3.0000  -10.3923    0.0000 C   0  0  0  0  0  0  0  0  0  0  0  0
    3.7500  -11.6913    0.0000 F   0  0  0  0  0  0  0  0  0  0  0  0
    3.7500   -9.0933    0.0000 C   0  0  0  0  0  0  0  0  0  0  0  0
    3.0000   -7.7942    0.0000 C   0  0  0  0  0  0  0  0  0  0  0  0
    1.5000   -2.5981    0.0000 N   0  0  0  0  0  0  0  0  0  0  0  0
    0.7500   -1.2990    0.0000 C   0  0  0  0  0  0  0  0  0  0  0  0
    1.5000    0.0000    0.0000 C   0  0  0  0  0  0  0  0  0  0  0  0
    0.7500    1.2990    0.0000 C   0  0  0  0  0  0  0  0  0  0  0  0
   -0.7500    1.2990    0.0000 C   0  0  0  0  0  0  0  0  0  0  0  0
   -1.5000    2.5981    0.0000 N   0  0  0  0  0  0  0  0  0  0  0  0
   -3.0000    2.5981    0.0000 C   0  0  0  0  0  0  0  0  0  0  0  0
   -3.7500    1.2990    0.0000 N   0  0  0  0  0  0  0  0  0  0  0  0
   -3.0000    0.0000    0.0000 C   0  0  0  0  0  0  0  0  0  0  0  0
   -3.7500   -1.2990    0.0000 N   0  0  0  0  0  0  0  0  0  0  0  0
   -5.2500   -1.2990    0.0000 C   0  0  0  0  0  0  0  0  0  0  0  0
   -6.0000    0.0000    0.0000 C   0  0  0  0  0  0  0  0  0  0  0  0
   -7.5000    0.0000    0.0000 C   0  0  0  0  0  0  0  0  0  0  0  0
   -8.2500   -1.2990    0.0000 C   0  0  0  0  0  0  0  0  0  0  0  0
   -7.5000   -2.5981    0.0000 C   0  0  0  0  0  0  0  0  0  0  0  0
   -8.2500   -3.8971    0.0000 Br  0  0  0  0  0  0  0  0  0  0  0  0
   -6.0000   -2.5981    0.0000 C   0  0  0  0  0  0  0  0  0  0  0  0
   -1.5000    0.0000    0.0000 C   0  0  0  0  0  0  0  0  0  0  0  0
   -0.7500   -1.2990    0.0000 C   0  0  0  0  0  0  0  0  0  0  0  0
  1  2  2  0
  2  3  1  0
  3  4  1  0
  4  5  1  0
  5  6  2  0
  6  7  1  0
  7  8  2  0
  8  9  1  0
  8 10  1  0
 10 11  2  0
  2 12  1  0
 12 13  1  0
 13 14  2  0
 14 15  1  0
 15 16  2  0
 16 17  1  0
 17 18  2  0
 18 19  1  0
 19 20  2  0
 20 21  1  0
 21 22  1  0
 22 23  2  0
 23 24  1  0
 24 25  2  0
 25 26  1  0
 26 27  1  0
 26 28  2  0
 20 29  1  0
 29 30  2  0
 11  5  1  0
 30 13  1  0
 29 16  1  0
 28 22  1  0
M  END
>  <Compound_ID>  (172) 
CHEMBL597200

>  <Active>  (172) 
1.0

>  <Smiles>  (172) 
O=C(COc1ccc(F)cc1)Nc1ccc2ncnc(Nc3cccc(Br)c3)c2c1

>  <canonical_smi>  (172) 
O=C(COc1ccc(F)cc1)Nc1ccc2ncnc(Nc3cccc(Br)c3)c2c1

>  <Set>  (172) 
G2 active

>  <Set_type>  (172) 
Train

>  <MW>  (172) 
467.3

>  <HBD>  (172) 
2

>  <HBA>  (172) 
5

>  <NRB>  (172) 
6

>  <NR>  (172) 
4

>  <NAR>  (172) 
4

>  <PSA>  (172) 
76.14

>  <Standard Type>  (172) 
nan

>  <Standard Relation>  (172) 
nan

>  <Standard Units>  (172) 
nan

>  <Standard Value>  (172) 
nan

>  <Assay ChEMBL ID>  (172) 
nan

>  <Assay Description>  (172) 
nan

>  <BAO Label>  (172) 
nan

$$$$

     RDKit          2D

 31 35  0  0  0  0  0  0  0  0999 V2000
   -7.6626    2.6859    0.0000 O   0  0  0  0  0  0  0  0  0  0  0  0
   -8.7233    1.6252    0.0000 C   0  0  0  0  0  0  0  0  0  0  0  0
   -8.3350    0.1763    0.0000 C   0  0  0  0  0  0  0  0  0  0  0  0
   -6.8862   -0.2119    0.0000 C   0  0  0  0  0  0  0  0  0  0  0  0
   -6.4979   -1.6608    0.0000 C   0  0  0  0  0  0  0  0  0  0  0  0
   -5.0490   -2.0490    0.0000 N   0  0  0  0  0  0  0  0  0  0  0  0
   -4.2990   -3.3481    0.0000 C   0  0  0  0  0  0  0  0  0  0  0  0
   -3.0000   -2.5981    0.0000 C   0  0  0  0  0  0  0  0  0  0  0  0
   -1.5000   -2.5981    0.0000 C   0  0  0  0  0  0  0  0  0  0  0  0
   -0.7500   -1.2990    0.0000 C   0  0  0  0  0  0  0  0  0  0  0  0
    0.7500   -1.2990    0.0000 C   0  0  0  0  0  0  0  0  0  0  0  0
    1.5000   -2.5981    0.0000 N   0  0  0  0  0  0  0  0  0  0  0  0
    3.0000   -2.5981    0.0000 C   0  0  0  0  0  0  0  0  0  0  0  0
    3.7500   -3.8971    0.0000 C   0  0  0  0  0  0  0  0  0  0  0  0
    5.2500   -3.8971    0.0000 C   0  0  0  0  0  0  0  0  0  0  0  0
    6.0000   -2.5981    0.0000 C   0  0  0  0  0  0  0  0  0  0  0  0
    5.2500   -1.2990    0.0000 C   0  0  0  0  0  0  0  0  0  0  0  0
    6.0000   -0.0000    0.0000 Br  0  0  0  0  0  0  0  0  0  0  0  0
    3.7500   -1.2990    0.0000 C   0  0  0  0  0  0  0  0  0  0  0  0
    1.5000    0.0000    0.0000 N   0  0  0  0  0  0  0  0  0  0  0  0
    0.7500    1.2990    0.0000 C   0  0  0  0  0  0  0  0  0  0  0  0
   -0.7500    1.2990    0.0000 N   0  0  0  0  0  0  0  0  0  0  0  0
   -1.5000    0.0000    0.0000 C   0  0  0  0  0  0  0  0  0  0  0  0
   -3.0000    0.0000    0.0000 C   0  0  0  0  0  0  0  0  0  0  0  0
   -3.7500   -1.2990    0.0000 C   0  0  0  0  0  0  0  0  0  0  0  0
  -10.1722    2.0134    0.0000 N   0  0  0  0  0  0  0  0  0  0  0  0
  -10.5604    3.4623    0.0000 C   0  0  0  0  0  0  0  0  0  0  0  0
  -12.0093    3.8505    0.0000 C   0  0  0  0  0  0  0  0  0  0  0  0
  -13.0699    2.7899    0.0000 O   0  0  0  0  0  0  0  0  0  0  0  0
  -12.6817    1.3410    0.0000 C   0  0  0  0  0  0  0  0  0  0  0  0
  -11.2328    0.9528    0.0000 C   0  0  0  0  0  0  0  0  0  0  0  0
  1  2  2  0
  2  3  1  0
  3  4  1  0
  4  5  1  0
  5  6  1  0
  6  7  1  0
  7  8  1  0
  8  9  2  0
  9 10  1  0
 10 11  2  0
 11 12  1  0
 12 13  1  0
 13 14  2  0
 14 15  1  0
 15 16  2  0
 16 17  1  0
 17 18  1  0
 17 19  2  0
 11 20  1  0
 20 21  2  0
 21 22  1  0
 22 23  2  0
 23 24  1  0
 24 25  2  0
  2 26  1  0
 26 27  1  0
 27 28  1  0
 28 29  1  0
 29 30  1  0
 30 31  1  0
 25  6  1  0
 31 26  1  0
 25  8  1  0
 23 10  1  0
 19 13  1  0
M  END
>  <Compound_ID>  (173) 
CHEMBL489307

>  <Active>  (173) 
1.0

>  <Smiles>  (173) 
O=C(CCCN1Cc2cc3c(Nc4cccc(Br)c4)ncnc3cc21)N1CCOCC1

>  <canonical_smi>  (173) 
O=C(CCCN1Cc2cc3c(Nc4cccc(Br)c4)ncnc3cc21)N1CCOCC1

>  <Set>  (173) 
G2 active

>  <Set_type>  (173) 
Train

>  <MW>  (173) 
482.38

>  <HBD>  (173) 
1

>  <HBA>  (173) 
6

>  <NRB>  (173) 
6

>  <NR>  (173) 
5

>  <NAR>  (173) 
3

>  <PSA>  (173) 
70.59

>  <Standard Type>  (173) 
nan

>  <Standard Relation>  (173) 
nan

>  <Standard Units>  (173) 
nan

>  <Standard Value>  (173) 
nan

>  <Assay ChEMBL ID>  (173) 
nan

>  <Assay Description>  (173) 
nan

>  <BAO Label>  (173) 
nan

$$$$

     RDKit          2D

 30 34  0  0  0  0  0  0  0  0999 V2000
    6.0000   -0.0000    0.0000 Br  0  0  0  0  0  0  0  0  0  0  0  0
    5.2500   -1.2990    0.0000 C   0  0  0  0  0  0  0  0  0  0  0  0
    6.0000   -2.5981    0.0000 C   0  0  0  0  0  0  0  0  0  0  0  0
    5.2500   -3.8971    0.0000 C   0  0  0  0  0  0  0  0  0  0  0  0
    3.7500   -3.8971    0.0000 C   0  0  0  0  0  0  0  0  0  0  0  0
    3.0000   -2.5981    0.0000 C   0  0  0  0  0  0  0  0  0  0  0  0
    1.5000   -2.5981    0.0000 N   0  0  0  0  0  0  0  0  0  0  0  0
    0.7500   -1.2990    0.0000 C   0  0  0  0  0  0  0  0  0  0  0  0
    1.5000    0.0000    0.0000 N   0  0  0  0  0  0  0  0  0  0  0  0
    0.7500    1.2990    0.0000 C   0  0  0  0  0  0  0  0  0  0  0  0
   -0.7500    1.2990    0.0000 N   0  0  0  0  0  0  0  0  0  0  0  0
   -1.5000    0.0000    0.0000 C   0  0  0  0  0  0  0  0  0  0  0  0
   -3.0000    0.0000    0.0000 C   0  0  0  0  0  0  0  0  0  0  0  0
   -3.7500   -1.2990    0.0000 C   0  0  0  0  0  0  0  0  0  0  0  0
   -3.0000   -2.5981    0.0000 C   0  0  0  0  0  0  0  0  0  0  0  0
   -4.0037   -3.7128    0.0000 C   0  0  0  0  0  0  0  0  0  0  0  0
   -5.3740   -3.1027    0.0000 N   0  0  0  0  0  0  0  0  0  0  0  0
   -5.2172   -1.6109    0.0000 N   0  0  0  0  0  0  0  0  0  0  0  0
   -6.3319   -0.6072    0.0000 C   0  0  0  0  0  0  0  0  0  0  0  0
   -7.7585   -1.0707    0.0000 C   0  0  0  0  0  0  0  0  0  0  0  0
   -8.8732   -0.0670    0.0000 C   0  0  0  0  0  0  0  0  0  0  0  0
  -10.2998   -0.5306    0.0000 N   0  0  0  0  0  0  0  0  0  0  0  0
  -11.4145    0.4731    0.0000 C   0  0  0  0  0  0  0  0  0  0  0  0
  -12.8411    0.0096    0.0000 C   0  0  0  0  0  0  0  0  0  0  0  0
  -13.1530   -1.4576    0.0000 O   0  0  0  0  0  0  0  0  0  0  0  0
  -12.0383   -2.4613    0.0000 C   0  0  0  0  0  0  0  0  0  0  0  0
  -10.6117   -1.9978    0.0000 C   0  0  0  0  0  0  0  0  0  0  0  0
   -1.5000   -2.5981    0.0000 C   0  0  0  0  0  0  0  0  0  0  0  0
   -0.7500   -1.2990    0.0000 C   0  0  0  0  0  0  0  0  0  0  0  0
    3.7500   -1.2990    0.0000 C   0  0  0  0  0  0  0  0  0  0  0  0
  1  2  1  0
  2  3  2  0
  3  4  1  0
  4  5  2  0
  5  6  1  0
  6  7  1  0
  7  8  1  0
  8  9  2  0
  9 10  1  0
 10 11  2  0
 11 12  1  0
 12 13  2  0
 13 14  1  0
 14 15  2  0
 15 16  1  0
 16 17  2  0
 17 18  1  0
 18 19  1  0
 19 20  1  0
 20 21  1  0
 21 22  1  0
 22 23  1  0
 23 24  1  0
 24 25  1  0
 25 26  1  0
 26 27  1  0
 15 28  1  0
 28 29  2  0
  6 30  2  0
 30  2  1  0
 29  8  1  0
 29 12  1  0
 18 14  1  0
 27 22  1  0
M  END
>  <Compound_ID>  (174) 
CHEMBL39355

>  <Active>  (174) 
1.0

>  <Smiles>  (174) 
Brc1cccc(Nc2ncnc3cc4c(cnn4CCCN4CCOCC4)cc23)c1

>  <canonical_smi>  (174) 
Brc1cccc(Nc2ncnc3cc4c(cnn4CCCN4CCOCC4)cc23)c1

>  <Set>  (174) 
G2 active

>  <Set_type>  (174) 
Train

>  <MW>  (174) 
467.37

>  <HBD>  (174) 
1

>  <HBA>  (174) 
6

>  <NRB>  (174) 
6

>  <NR>  (174) 
5

>  <NAR>  (174) 
4

>  <PSA>  (174) 
68.1

>  <Standard Type>  (174) 
nan

>  <Standard Relation>  (174) 
nan

>  <Standard Units>  (174) 
nan

>  <Standard Value>  (174) 
nan

>  <Assay ChEMBL ID>  (174) 
nan

>  <Assay Description>  (174) 
nan

>  <BAO Label>  (174) 
nan

$$$$

     RDKit          2D

 27 31  0  0  0  0  0  0  0  0999 V2000
    1.2990   -5.8573    0.0000 O   0  0  0  0  0  0  0  0  0  0  0  0
   -0.0000   -5.1073    0.0000 C   0  0  0  0  0  0  0  0  0  0  0  0
   -1.2990   -5.8573    0.0000 C   0  0  0  0  0  0  0  0  0  0  0  0
   -2.5981   -5.1073    0.0000 C   0  0  0  0  0  0  0  0  0  0  0  0
   -3.8971   -5.8573    0.0000 C   0  0  0  0  0  0  0  0  0  0  0  0
   -3.8971   -7.3573    0.0000 C   0  0  0  0  0  0  0  0  0  0  0  0
   -2.5981   -8.1073    0.0000 C   0  0  0  0  0  0  0  0  0  0  0  0
   -1.2990   -7.3573    0.0000 C   0  0  0  0  0  0  0  0  0  0  0  0
   -0.0000   -3.6073    0.0000 C   0  0  0  0  0  0  0  0  0  0  0  0
    1.2135   -2.7256    0.0000 C   0  0  0  0  0  0  0  0  0  0  0  0
    0.7500   -1.2990    0.0000 C   0  0  0  0  0  0  0  0  0  0  0  0
    1.5000    0.0000    0.0000 N   0  0  0  0  0  0  0  0  0  0  0  0
    0.7500    1.2990    0.0000 C   0  0  0  0  0  0  0  0  0  0  0  0
   -0.7500    1.2990    0.0000 N   0  0  0  0  0  0  0  0  0  0  0  0
   -1.5000    0.0000    0.0000 C   0  0  0  0  0  0  0  0  0  0  0  0
   -3.0000    0.0000    0.0000 N   0  0  0  0  0  0  0  0  0  0  0  0
   -3.7500    1.2990    0.0000 C   0  0  0  0  0  0  0  0  0  0  0  0
   -3.0000    2.5981    0.0000 C   0  0  0  0  0  0  0  0  0  0  0  0
   -3.7500    3.8971    0.0000 C   0  0  0  0  0  0  0  0  0  0  0  0
   -5.2500    3.8971    0.0000 C   0  0  0  0  0  0  0  0  0  0  0  0
   -6.2537    5.0118    0.0000 N   0  0  0  0  0  0  0  0  0  0  0  0
   -7.6240    4.4017    0.0000 C   0  0  0  0  0  0  0  0  0  0  0  0
   -7.4672    2.9099    0.0000 C   0  0  0  0  0  0  0  0  0  0  0  0
   -6.0000    2.5981    0.0000 C   0  0  0  0  0  0  0  0  0  0  0  0
   -5.2500    1.2990    0.0000 C   0  0  0  0  0  0  0  0  0  0  0  0
   -0.7500   -1.2990    0.0000 C   0  0  0  0  0  0  0  0  0  0  0  0
   -1.2135   -2.7256    0.0000 S   0  0  0  0  0  0  0  0  0  0  0  0
  1  2  2  0
  2  3  1  0
  3  4  2  0
  4  5  1  0
  5  6  2  0
  6  7  1  0
  7  8  2  0
  2  9  1  0
  9 10  2  0
 10 11  1  0
 11 12  2  0
 12 13  1  0
 13 14  2  0
 14 15  1  0
 15 16  1  0
 16 17  1  0
 17 18  2  0
 18 19  1  0
 19 20  2  0
 20 21  1  0
 21 22  1  0
 22 23  2  0
 23 24  1  0
 24 25  2  0
 15 26  2  0
 26 27  1  0
  8  3  1  0
 27  9  1  0
 26 11  1  0
 25 17  1  0
 24 20  1  0
M  END
>  <Compound_ID>  (175) 
CHEMBL81712

>  <Active>  (175) 
1.0

>  <Smiles>  (175) 
O=C(c1ccccc1)c1cc2ncnc(Nc3ccc4[nH]ccc4c3)c2s1

>  <canonical_smi>  (175) 
O=C(c1ccccc1)c1cc2ncnc(Nc3ccc4[nH]ccc4c3)c2s1

>  <Set>  (175) 
G2 active

>  <Set_type>  (175) 
Train

>  <MW>  (175) 
370.44

>  <HBD>  (175) 
2

>  <HBA>  (175) 
4

>  <NRB>  (175) 
4

>  <NR>  (175) 
5

>  <NAR>  (175) 
5

>  <PSA>  (175) 
70.67

>  <Standard Type>  (175) 
nan

>  <Standard Relation>  (175) 
nan

>  <Standard Units>  (175) 
nan

>  <Standard Value>  (175) 
nan

>  <Assay ChEMBL ID>  (175) 
nan

>  <Assay Description>  (175) 
nan

>  <BAO Label>  (175) 
nan

$$$$

     RDKit          2D

 41 46  0  0  0  0  0  0  0  0999 V2000
  -10.3923   -5.1073    0.0000 C   0  0  0  0  0  0  0  0  0  0  0  0
   -9.0933   -5.8573    0.0000 N   0  0  0  0  0  0  0  0  0  0  0  0
   -7.7942   -5.1073    0.0000 C   0  0  0  0  0  0  0  0  0  0  0  0
   -6.4952   -5.8573    0.0000 C   0  0  0  0  0  0  0  0  0  0  0  0
   -6.4952   -7.3573    0.0000 N   0  0  0  0  0  0  0  0  0  0  0  0
   -5.1962   -8.1073    0.0000 C   0  0  0  0  0  0  0  0  0  0  0  0
   -3.8971   -7.3573    0.0000 C   0  0  0  0  0  0  0  0  0  0  0  0
   -2.5981   -8.1073    0.0000 C   0  0  0  0  0  0  0  0  0  0  0  0
   -1.2990   -7.3573    0.0000 C   0  0  0  0  0  0  0  0  0  0  0  0
   -1.2990   -5.8573    0.0000 C   0  0  0  0  0  0  0  0  0  0  0  0
   -0.0000   -5.1073    0.0000 N   0  0  0  0  0  0  0  0  0  0  0  0
   -0.0000   -3.6073    0.0000 C   0  0  0  0  0  0  0  0  0  0  0  0
    1.2135   -2.7256    0.0000 N   0  0  0  0  0  0  0  0  0  0  0  0
    0.7500   -1.2990    0.0000 C   0  0  0  0  0  0  0  0  0  0  0  0
    1.5000    0.0000    0.0000 N   0  0  0  0  0  0  0  0  0  0  0  0
    0.7500    1.2990    0.0000 C   0  0  0  0  0  0  0  0  0  0  0  0
   -0.7500    1.2990    0.0000 N   0  0  0  0  0  0  0  0  0  0  0  0
   -1.5000    0.0000    0.0000 C   0  0  0  0  0  0  0  0  0  0  0  0
   -3.0000    0.0000    0.0000 N   0  0  0  0  0  0  0  0  0  0  0  0
   -3.7500    1.2990    0.0000 C   0  0  0  0  0  0  0  0  0  0  0  0
   -3.0000    2.5981    0.0000 C   0  0  0  0  0  0  0  0  0  0  0  0
   -3.7500    3.8971    0.0000 C   0  0  0  0  0  0  0  0  0  0  0  0
   -5.2500    3.8971    0.0000 C   0  0  0  0  0  0  0  0  0  0  0  0
   -6.0000    5.1962    0.0000 O   0  0  0  0  0  0  0  0  0  0  0  0
   -5.2500    6.4952    0.0000 C   0  0  0  0  0  0  0  0  0  0  0  0
   -6.0000    7.7942    0.0000 C   0  0  0  0  0  0  0  0  0  0  0  0
   -5.2500    9.0933    0.0000 C   0  0  0  0  0  0  0  0  0  0  0  0
   -6.0000   10.3923    0.0000 C   0  0  0  0  0  0  0  0  0  0  0  0
   -7.5000   10.3923    0.0000 C   0  0  0  0  0  0  0  0  0  0  0  0
   -8.2500    9.0933    0.0000 C   0  0  0  0  0  0  0  0  0  0  0  0
   -9.7500    9.0933    0.0000 F   0  0  0  0  0  0  0  0  0  0  0  0
   -7.5000    7.7942    0.0000 C   0  0  0  0  0  0  0  0  0  0  0  0
   -6.0000    2.5981    0.0000 C   0  0  0  0  0  0  0  0  0  0  0  0
   -7.5000    2.5981    0.0000 Cl  0  0  0  0  0  0  0  0  0  0  0  0
   -5.2500    1.2990    0.0000 C   0  0  0  0  0  0  0  0  0  0  0  0
   -0.7500   -1.2990    0.0000 C   0  0  0  0  0  0  0  0  0  0  0  0
   -1.2135   -2.7256    0.0000 S   0  0  0  0  0  0  0  0  0  0  0  0
   -2.5981   -5.1073    0.0000 C   0  0  0  0  0  0  0  0  0  0  0  0
   -3.8971   -5.8573    0.0000 C   0  0  0  0  0  0  0  0  0  0  0  0
   -7.7942   -8.1073    0.0000 C   0  0  0  0  0  0  0  0  0  0  0  0
   -9.0933   -7.3573    0.0000 C   0  0  0  0  0  0  0  0  0  0  0  0
  1  2  1  0
  2  3  1  0
  3  4  1  0
  4  5  1  0
  5  6  1  0
  6  7  1  0
  7  8  2  0
  8  9  1  0
  9 10  2  0
 10 11  1  0
 11 12  1  0
 12 13  2  0
 13 14  1  0
 14 15  2  0
 15 16  1  0
 16 17  2  0
 17 18  1  0
 18 19  1  0
 19 20  1  0
 20 21  2  0
 21 22  1  0
 22 23  2  0
 23 24  1  0
 24 25  1  0
 25 26  1  0
 26 27  2  0
 27 28  1  0
 28 29  2  0
 29 30  1  0
 30 31  1  0
 30 32  2  0
 23 33  1  0
 33 34  1  0
 33 35  2  0
 18 36  2  0
 36 37  1  0
 10 38  1  0
 38 39  2  0
  5 40  1  0
 40 41  1  0
 41  2  1  0
 39  7  1  0
 37 12  1  0
 36 14  1  0
 35 20  1  0
 32 26  1  0
M  END
>  <Compound_ID>  (176) 
CHEMBL503418

>  <Active>  (176) 
1.0

>  <Smiles>  (176) 
CN1CCN(Cc2ccc(Nc3nc4ncnc(Nc5ccc(OCc6cccc(F)c6)c(Cl)c5)c4s3)cc2)CC1

>  <canonical_smi>  (176) 
CN1CCN(Cc2ccc(Nc3nc4ncnc(Nc5ccc(OCc6cccc(F)c6)c(Cl)c5)c4s3)cc2)CC1

>  <Set>  (176) 
G2 active

>  <Set_type>  (176) 
Train

>  <MW>  (176) 
590.13

>  <HBD>  (176) 
2

>  <HBA>  (176) 
8

>  <NRB>  (176) 
9

>  <NR>  (176) 
6

>  <NAR>  (176) 
5

>  <PSA>  (176) 
78.44

>  <Standard Type>  (176) 
nan

>  <Standard Relation>  (176) 
nan

>  <Standard Units>  (176) 
nan

>  <Standard Value>  (176) 
nan

>  <Assay ChEMBL ID>  (176) 
nan

>  <Assay Description>  (176) 
nan

>  <BAO Label>  (176) 
nan

$$$$

     RDKit          2D

 31 35  0  0  0  0  0  0  0  0999 V2000
   12.7500   -1.2990    0.0000 F   0  0  0  0  0  0  0  0  0  0  0  0
   12.0000   -2.5981    0.0000 C   0  0  0  0  0  0  0  0  0  0  0  0
   12.7500   -3.8971    0.0000 C   0  0  0  0  0  0  0  0  0  0  0  0
   12.0000   -5.1962    0.0000 C   0  0  0  0  0  0  0  0  0  0  0  0
   10.5000   -5.1962    0.0000 C   0  0  0  0  0  0  0  0  0  0  0  0
    9.7500   -3.8971    0.0000 C   0  0  0  0  0  0  0  0  0  0  0  0
    8.2500   -3.8971    0.0000 C   0  0  0  0  0  0  0  0  0  0  0  0
    7.5000   -2.5981    0.0000 O   0  0  0  0  0  0  0  0  0  0  0  0
    6.0000   -2.5981    0.0000 C   0  0  0  0  0  0  0  0  0  0  0  0
    5.2500   -1.2990    0.0000 C   0  0  0  0  0  0  0  0  0  0  0  0
    3.7500   -1.2990    0.0000 C   0  0  0  0  0  0  0  0  0  0  0  0
    3.0000   -2.5981    0.0000 C   0  0  0  0  0  0  0  0  0  0  0  0
    1.5000   -2.5981    0.0000 N   0  0  0  0  0  0  0  0  0  0  0  0
    0.7500   -1.2990    0.0000 C   0  0  0  0  0  0  0  0  0  0  0  0
    1.5000    0.0000    0.0000 N   0  0  0  0  0  0  0  0  0  0  0  0
    0.7500    1.2990    0.0000 C   0  0  0  0  0  0  0  0  0  0  0  0
   -0.7500    1.2990    0.0000 N   0  0  0  0  0  0  0  0  0  0  0  0
   -1.5000    0.0000    0.0000 C   0  0  0  0  0  0  0  0  0  0  0  0
   -2.9672   -0.3119    0.0000 S   0  0  0  0  0  0  0  0  0  0  0  0
   -3.1240   -1.8037    0.0000 C   0  0  0  0  0  0  0  0  0  0  0  0
   -4.4231   -2.5537    0.0000 C   0  0  0  0  0  0  0  0  0  0  0  0
   -4.5798   -4.0454    0.0000 C   0  0  0  0  0  0  0  0  0  0  0  0
   -6.0471   -4.3573    0.0000 C   0  0  0  0  0  0  0  0  0  0  0  0
   -6.7971   -3.0583    0.0000 C   0  0  0  0  0  0  0  0  0  0  0  0
   -5.7934   -1.9435    0.0000 S   0  0  0  0  0  0  0  0  0  0  0  0
   -1.7537   -2.4138    0.0000 C   0  0  0  0  0  0  0  0  0  0  0  0
   -0.7500   -1.2990    0.0000 C   0  0  0  0  0  0  0  0  0  0  0  0
    3.7500   -3.8971    0.0000 C   0  0  0  0  0  0  0  0  0  0  0  0
    5.2500   -3.8971    0.0000 C   0  0  0  0  0  0  0  0  0  0  0  0
    6.0000   -5.1962    0.0000 Cl  0  0  0  0  0  0  0  0  0  0  0  0
   10.5000   -2.5981    0.0000 C   0  0  0  0  0  0  0  0  0  0  0  0
  1  2  1  0
  2  3  2  0
  3  4  1  0
  4  5  2  0
  5  6  1  0
  6  7  1  0
  7  8  1  0
  8  9  1  0
  9 10  2  0
 10 11  1  0
 11 12  2  0
 12 13  1  0
 13 14  1  0
 14 15  2  0
 15 16  1  0
 16 17  2  0
 17 18  1  0
 18 19  1  0
 19 20  1  0
 20 21  1  0
 21 22  2  0
 22 23  1  0
 23 24  2  0
 24 25  1  0
 20 26  2  0
 26 27  1  0
 12 28  1  0
 28 29  2  0
 29 30  1  0
  6 31  2  0
 31  2  1  0
 29  9  1  0
 27 14  1  0
 27 18  2  0
 25 21  1  0
M  END
>  <Compound_ID>  (177) 
CHEMBL506414

>  <Active>  (177) 
1.0

>  <Smiles>  (177) 
Fc1cccc(COc2ccc(Nc3ncnc4sc(-c5cccs5)cc34)cc2Cl)c1

>  <canonical_smi>  (177) 
Fc1cccc(COc2ccc(Nc3ncnc4sc(-c5cccs5)cc34)cc2Cl)c1

>  <Set>  (177) 
G2 active

>  <Set_type>  (177) 
Train

>  <MW>  (177) 
467.98

>  <HBD>  (177) 
1

>  <HBA>  (177) 
4

>  <NRB>  (177) 
6

>  <NR>  (177) 
5

>  <NAR>  (177) 
5

>  <PSA>  (177) 
47.04

>  <Standard Type>  (177) 
nan

>  <Standard Relation>  (177) 
nan

>  <Standard Units>  (177) 
nan

>  <Standard Value>  (177) 
nan

>  <Assay ChEMBL ID>  (177) 
nan

>  <Assay Description>  (177) 
nan

>  <BAO Label>  (177) 
nan

$$$$

     RDKit          2D

 37 40  0  0  0  0  0  0  0  0999 V2000
  -10.9664   -3.4354    0.0000 C   0  0  0  0  0  0  0  0  0  0  0  0
   -9.9627   -4.5501    0.0000 C   0  0  0  0  0  0  0  0  0  0  0  0
   -8.4955   -4.2382    0.0000 C   0  0  0  0  0  0  0  0  0  0  0  0
   -8.0320   -2.8116    0.0000 O   0  0  0  0  0  0  0  0  0  0  0  0
   -7.4918   -5.3529    0.0000 N   0  0  0  0  0  0  0  0  0  0  0  0
   -7.8037   -6.8202    0.0000 C   0  0  0  0  0  0  0  0  0  0  0  0
   -6.5046   -7.5702    0.0000 C   0  0  0  0  0  0  0  0  0  0  0  0
   -5.3899   -6.5665    0.0000 C   0  0  0  0  0  0  0  0  0  0  0  0
   -6.0000   -5.1962    0.0000 C   0  0  0  0  0  0  0  0  0  0  0  0
   -5.2500   -3.8971    0.0000 C   0  0  0  0  0  0  0  0  0  0  0  0
   -6.0000   -2.5981    0.0000 O   0  0  0  0  0  0  0  0  0  0  0  0
   -3.7500   -3.8971    0.0000 N   0  0  0  0  0  0  0  0  0  0  0  0
   -3.0000   -2.5981    0.0000 C   0  0  0  0  0  0  0  0  0  0  0  0
   -1.5000   -2.5981    0.0000 C   0  0  0  0  0  0  0  0  0  0  0  0
   -0.7500   -1.2990    0.0000 C   0  0  0  0  0  0  0  0  0  0  0  0
    0.7500   -1.2990    0.0000 C   0  0  0  0  0  0  0  0  0  0  0  0
    1.5000   -2.5981    0.0000 N   0  0  0  0  0  0  0  0  0  0  0  0
    3.0000   -2.5981    0.0000 C   0  0  0  0  0  0  0  0  0  0  0  0
    3.7500   -3.8971    0.0000 C   0  0  0  0  0  0  0  0  0  0  0  0
    5.2500   -3.8971    0.0000 C   0  0  0  0  0  0  0  0  0  0  0  0
    6.0000   -2.5981    0.0000 C   0  0  0  0  0  0  0  0  0  0  0  0
    7.5000   -2.5981    0.0000 F   0  0  0  0  0  0  0  0  0  0  0  0
    5.2500   -1.2990    0.0000 C   0  0  0  0  0  0  0  0  0  0  0  0
    6.0000   -0.0000    0.0000 Cl  0  0  0  0  0  0  0  0  0  0  0  0
    3.7500   -1.2990    0.0000 C   0  0  0  0  0  0  0  0  0  0  0  0
    3.0000   -0.0000    0.0000 F   0  0  0  0  0  0  0  0  0  0  0  0
    1.5000    0.0000    0.0000 N   0  0  0  0  0  0  0  0  0  0  0  0
    0.7500    1.2990    0.0000 C   0  0  0  0  0  0  0  0  0  0  0  0
   -0.7500    1.2990    0.0000 N   0  0  0  0  0  0  0  0  0  0  0  0
   -1.5000    0.0000    0.0000 C   0  0  0  0  0  0  0  0  0  0  0  0
   -3.0000    0.0000    0.0000 C   0  0  0  0  0  0  0  0  0  0  0  0
   -3.7500   -1.2990    0.0000 C   0  0  0  0  0  0  0  0  0  0  0  0
   -5.2500   -1.2990    0.0000 O   0  0  0  0  0  0  0  0  0  0  0  0
   -6.0000    0.0000    0.0000 C   0  0  0  0  0  0  0  0  0  0  0  0
   -7.5000    0.0000    0.0000 C   0  0  0  0  0  0  0  0  0  0  0  0
   -8.2500    1.2990    0.0000 O   0  0  0  0  0  0  0  0  0  0  0  0
   -9.7500    1.2990    0.0000 C   0  0  0  0  0  0  0  0  0  0  0  0
  1  2  2  0
  2  3  1  0
  3  4  2  0
  3  5  1  0
  5  6  1  0
  6  7  1  0
  7  8  1  0
  8  9  1  0
  9 10  1  6
 10 11  2  0
 10 12  1  0
 12 13  1  0
 13 14  2  0
 14 15  1  0
 15 16  2  0
 16 17  1  0
 17 18  1  0
 18 19  2  0
 19 20  1  0
 20 21  2  0
 21 22  1  0
 21 23  1  0
 23 24  1  0
 23 25  2  0
 25 26  1  0
 16 27  1  0
 27 28  2  0
 28 29  1  0
 29 30  2  0
 30 31  1  0
 31 32  2  0
 32 33  1  0
 33 34  1  0
 34 35  1  0
 35 36  1  0
 36 37  1  0
  9  5  1  0
 32 13  1  0
 30 15  1  0
 25 18  1  0
M  END
>  <Compound_ID>  (178) 
CHEMBL569880

>  <Active>  (178) 
1.0

>  <Smiles>  (178) 
C=CC(=O)N1CCC[C@H]1C(=O)Nc1cc2c(Nc3ccc(F)c(Cl)c3F)ncnc2cc1OCCOC

>  <canonical_smi>  (178) 
C=CC(=O)N1CCC[C@H]1C(=O)Nc1cc2c(Nc3ccc(F)c(Cl)c3F)ncnc2cc1OCCOC

>  <Set>  (178) 
G2 active

>  <Set_type>  (178) 
Train

>  <MW>  (178) 
531.95

>  <HBD>  (178) 
2

>  <HBA>  (178) 
7

>  <NRB>  (178) 
9

>  <NR>  (178) 
4

>  <NAR>  (178) 
3

>  <PSA>  (178) 
105.68

>  <Standard Type>  (178) 
nan

>  <Standard Relation>  (178) 
nan

>  <Standard Units>  (178) 
nan

>  <Standard Value>  (178) 
nan

>  <Assay ChEMBL ID>  (178) 
nan

>  <Assay Description>  (178) 
nan

>  <BAO Label>  (178) 
nan

$$$$

     RDKit          2D

 34 37  0  0  0  0  0  0  0  0999 V2000
    3.0000   -5.1962    0.0000 C   0  0  0  0  0  0  0  0  0  0  0  0
    1.5000   -5.1962    0.0000 O   0  0  0  0  0  0  0  0  0  0  0  0
    0.7500   -3.8971    0.0000 C   0  0  0  0  0  0  0  0  0  0  0  0
    1.5000   -2.5981    0.0000 C   0  0  0  0  0  0  0  0  0  0  0  0
    0.7500   -1.2990    0.0000 C   0  0  0  0  0  0  0  0  0  0  0  0
    1.5000    0.0000    0.0000 N   0  0  0  0  0  0  0  0  0  0  0  0
    0.7500    1.2990    0.0000 C   0  0  0  0  0  0  0  0  0  0  0  0
   -0.7500    1.2990    0.0000 N   0  0  0  0  0  0  0  0  0  0  0  0
   -1.5000    0.0000    0.0000 C   0  0  0  0  0  0  0  0  0  0  0  0
   -3.0000    0.0000    0.0000 N   0  0  0  0  0  0  0  0  0  0  0  0
   -3.7500    1.2990    0.0000 C   0  0  0  0  0  0  0  0  0  0  0  0
   -3.0000    2.5981    0.0000 C   0  0  0  0  0  0  0  0  0  0  0  0
   -3.7500    3.8971    0.0000 C   0  0  0  0  0  0  0  0  0  0  0  0
   -5.2500    3.8971    0.0000 C   0  0  0  0  0  0  0  0  0  0  0  0
   -6.0000    2.5981    0.0000 C   0  0  0  0  0  0  0  0  0  0  0  0
   -7.5000    2.5981    0.0000 Cl  0  0  0  0  0  0  0  0  0  0  0  0
   -5.2500    1.2990    0.0000 C   0  0  0  0  0  0  0  0  0  0  0  0
   -6.0000    0.0000    0.0000 F   0  0  0  0  0  0  0  0  0  0  0  0
   -0.7500   -1.2990    0.0000 C   0  0  0  0  0  0  0  0  0  0  0  0
   -1.5000   -2.5981    0.0000 C   0  0  0  0  0  0  0  0  0  0  0  0
   -0.7500   -3.8971    0.0000 C   0  0  0  0  0  0  0  0  0  0  0  0
   -1.5000   -5.1962    0.0000 C   0  0  0  0  0  0  0  0  0  0  0  0
   -3.0000   -5.1962    0.0000 N   0  0  0  0  0  0  0  0  0  0  0  0
   -3.7500   -3.8971    0.0000 C   0  0  0  0  0  0  0  0  0  0  0  0
   -3.7500   -6.4952    0.0000 C   0  0  0  0  0  0  0  0  0  0  0  0
   -2.3405   -7.0082    0.0000 C   0  0  0  0  0  0  0  0  0  0  0  0
   -2.0800   -8.4854    0.0000 N   0  0  0  0  0  0  0  0  0  0  0  0
   -1.1914   -6.0440    0.0000 O   0  0  0  0  0  0  0  0  0  0  0  0
   -4.8991   -5.5310    0.0000 C   0  0  0  0  0  0  0  0  0  0  0  0
   -6.3086   -6.0440    0.0000 C   0  0  0  0  0  0  0  0  0  0  0  0
   -6.5691   -7.5213    0.0000 N   0  0  0  0  0  0  0  0  0  0  0  0
   -7.9786   -8.0343    0.0000 C   0  0  0  0  0  0  0  0  0  0  0  0
   -5.4200   -8.4854    0.0000 C   0  0  0  0  0  0  0  0  0  0  0  0
   -4.0105   -7.9724    0.0000 C   0  0  0  0  0  0  0  0  0  0  0  0
  1  2  1  0
  2  3  1  0
  3  4  2  0
  4  5  1  0
  5  6  2  0
  6  7  1  0
  7  8  2  0
  8  9  1  0
  9 10  1  0
 10 11  1  0
 11 12  2  0
 12 13  1  0
 13 14  2  0
 14 15  1  0
 15 16  1  0
 15 17  2  0
 17 18  1  0
  9 19  2  0
 19 20  1  0
 20 21  2  0
 21 22  1  0
 22 23  1  0
 23 24  1  0
 23 25  1  0
 25 26  1  0
 26 27  1  0
 26 28  2  0
 25 29  1  0
 29 30  1  0
 30 31  1  0
 31 32  1  0
 31 33  1  0
 33 34  1  0
 21  3  1  0
 34 25  1  0
 19  5  1  0
 17 11  1  0
M  END
>  <Compound_ID>  (179) 
CHEMBL207130

>  <Active>  (179) 
1.0

>  <Smiles>  (179) 
COc1cc2ncnc(Nc3cccc(Cl)c3F)c2cc1CN(C)C1(C(N)=O)CCN(C)CC1

>  <canonical_smi>  (179) 
COc1cc2ncnc(Nc3cccc(Cl)c3F)c2cc1CN(C)C1(C(N)=O)CCN(C)CC1

>  <Set>  (179) 
G2 active

>  <Set_type>  (179) 
Train

>  <MW>  (179) 
486.98

>  <HBD>  (179) 
2

>  <HBA>  (179) 
7

>  <NRB>  (179) 
7

>  <NR>  (179) 
4

>  <NAR>  (179) 
3

>  <PSA>  (179) 
96.61

>  <Standard Type>  (179) 
nan

>  <Standard Relation>  (179) 
nan

>  <Standard Units>  (179) 
nan

>  <Standard Value>  (179) 
nan

>  <Assay ChEMBL ID>  (179) 
nan

>  <Assay Description>  (179) 
nan

>  <BAO Label>  (179) 
nan

$$$$

     RDKit          2D

 29 32  0  0  0  0  0  0  0  0999 V2000
   -0.7500   -3.8971    0.0000 O   0  0  0  0  0  0  0  0  0  0  0  0
    0.7500   -3.8971    0.0000 C   0  0  0  0  0  0  0  0  0  0  0  0
    1.5000   -5.1962    0.0000 C   0  0  0  0  0  0  0  0  0  0  0  0
    0.7500   -6.4952    0.0000 C   0  0  0  0  0  0  0  0  0  0  0  0
    1.5000   -7.7942    0.0000 C   0  0  0  0  0  0  0  0  0  0  0  0
    0.7500   -9.0933    0.0000 C   0  0  0  0  0  0  0  0  0  0  0  0
    1.5000  -10.3923    0.0000 C   0  0  0  0  0  0  0  0  0  0  0  0
    3.0000  -10.3923    0.0000 C   0  0  0  0  0  0  0  0  0  0  0  0
    3.7500   -9.0933    0.0000 C   0  0  0  0  0  0  0  0  0  0  0  0
    3.0000   -7.7942    0.0000 C   0  0  0  0  0  0  0  0  0  0  0  0
    1.5000   -2.5981    0.0000 C   0  0  0  0  0  0  0  0  0  0  0  0
    0.7500   -1.2990    0.0000 C   0  0  0  0  0  0  0  0  0  0  0  0
    1.5000    0.0000    0.0000 C   0  0  0  0  0  0  0  0  0  0  0  0
    0.7500    1.2990    0.0000 C   0  0  0  0  0  0  0  0  0  0  0  0
    1.5000    2.5981    0.0000 C   0  0  0  0  0  0  0  0  0  0  0  0
    3.0000    2.5981    0.0000 N   0  0  0  0  0  0  0  0  0  0  0  0
    3.7500    3.8971    0.0000 C   0  0  0  0  0  0  0  0  0  0  0  0
    5.2500    3.8971    0.0000 C   0  0  0  0  0  0  0  0  0  0  0  0
    6.0000    5.1962    0.0000 C   0  0  0  0  0  0  0  0  0  0  0  0
    5.2500    6.4952    0.0000 C   0  0  0  0  0  0  0  0  0  0  0  0
    3.7500    6.4952    0.0000 C   0  0  0  0  0  0  0  0  0  0  0  0
    3.0000    7.7942    0.0000 Br  0  0  0  0  0  0  0  0  0  0  0  0
    3.0000    5.1962    0.0000 C   0  0  0  0  0  0  0  0  0  0  0  0
    0.7500    3.8971    0.0000 N   0  0  0  0  0  0  0  0  0  0  0  0
   -0.7500    3.8971    0.0000 C   0  0  0  0  0  0  0  0  0  0  0  0
   -1.5000    2.5981    0.0000 N   0  0  0  0  0  0  0  0  0  0  0  0
   -0.7500    1.2990    0.0000 C   0  0  0  0  0  0  0  0  0  0  0  0
   -1.5000    0.0000    0.0000 C   0  0  0  0  0  0  0  0  0  0  0  0
   -0.7500   -1.2990    0.0000 N   0  0  0  0  0  0  0  0  0  0  0  0
  1  2  2  0
  2  3  1  0
  3  4  2  0
  4  5  1  0
  5  6  2  0
  6  7  1  0
  7  8  2  0
  8  9  1  0
  9 10  2  0
  2 11  1  0
 11 12  1  0
 12 13  2  0
 13 14  1  0
 14 15  2  0
 15 16  1  0
 16 17  1  0
 17 18  2  0
 18 19  1  0
 19 20  2  0
 20 21  1  0
 21 22  1  0
 21 23  2  0
 15 24  1  0
 24 25  2  0
 25 26  1  0
 26 27  2  0
 27 28  1  0
 28 29  2  0
 10  5  1  0
 29 12  1  0
 27 14  1  0
 23 17  1  0
M  END
>  <Compound_ID>  (180) 
CHEMBL509914

>  <Active>  (180) 
1.0

>  <Smiles>  (180) 
O=C(/C=C/c1ccccc1)Cc1cc2c(Nc3cccc(Br)c3)ncnc2cn1

>  <canonical_smi>  (180) 
O=C(/C=C/c1ccccc1)Cc1cc2c(Nc3cccc(Br)c3)ncnc2cn1

>  <Set>  (180) 
G2 active

>  <Set_type>  (180) 
Train

>  <MW>  (180) 
445.32

>  <HBD>  (180) 
1

>  <HBA>  (180) 
5

>  <NRB>  (180) 
6

>  <NR>  (180) 
4

>  <NAR>  (180) 
4

>  <PSA>  (180) 
67.77

>  <Standard Type>  (180) 
nan

>  <Standard Relation>  (180) 
nan

>  <Standard Units>  (180) 
nan

>  <Standard Value>  (180) 
nan

>  <Assay ChEMBL ID>  (180) 
nan

>  <Assay Description>  (180) 
nan

>  <BAO Label>  (180) 
nan

$$$$

     RDKit          2D

 22 24  0  0  0  0  0  0  0  0999 V2000
    3.0000   -5.1962    0.0000 C   0  0  0  0  0  0  0  0  0  0  0  0
    1.5000   -5.1962    0.0000 O   0  0  0  0  0  0  0  0  0  0  0  0
    0.7500   -3.8971    0.0000 C   0  0  0  0  0  0  0  0  0  0  0  0
    1.5000   -2.5981    0.0000 C   0  0  0  0  0  0  0  0  0  0  0  0
    0.7500   -1.2990    0.0000 C   0  0  0  0  0  0  0  0  0  0  0  0
    1.5000    0.0000    0.0000 N   0  0  0  0  0  0  0  0  0  0  0  0
    0.7500    1.2990    0.0000 C   0  0  0  0  0  0  0  0  0  0  0  0
   -0.7500    1.2990    0.0000 N   0  0  0  0  0  0  0  0  0  0  0  0
   -1.5000    0.0000    0.0000 C   0  0  0  0  0  0  0  0  0  0  0  0
   -3.0000    0.0000    0.0000 S   0  0  0  0  0  0  0  0  0  0  0  0
   -3.7500    1.2990    0.0000 C   0  0  0  0  0  0  0  0  0  0  0  0
   -3.0000    2.5981    0.0000 C   0  0  0  0  0  0  0  0  0  0  0  0
   -3.7500    3.8971    0.0000 C   0  0  0  0  0  0  0  0  0  0  0  0
   -5.2500    3.8971    0.0000 C   0  0  0  0  0  0  0  0  0  0  0  0
   -6.0000    2.5981    0.0000 C   0  0  0  0  0  0  0  0  0  0  0  0
   -7.5000    2.5981    0.0000 Cl  0  0  0  0  0  0  0  0  0  0  0  0
   -5.2500    1.2990    0.0000 C   0  0  0  0  0  0  0  0  0  0  0  0
   -0.7500   -1.2990    0.0000 C   0  0  0  0  0  0  0  0  0  0  0  0
   -1.5000   -2.5981    0.0000 C   0  0  0  0  0  0  0  0  0  0  0  0
   -0.7500   -3.8971    0.0000 C   0  0  0  0  0  0  0  0  0  0  0  0
   -1.5000   -5.1962    0.0000 O   0  0  0  0  0  0  0  0  0  0  0  0
   -3.0000   -5.1962    0.0000 C   0  0  0  0  0  0  0  0  0  0  0  0
  1  2  1  0
  2  3  1  0
  3  4  2  0
  4  5  1  0
  5  6  2  0
  6  7  1  0
  7  8  2  0
  8  9  1  0
  9 10  1  0
 10 11  1  0
 11 12  2  0
 12 13  1  0
 13 14  2  0
 14 15  1  0
 15 16  1  0
 15 17  2  0
  9 18  2  0
 18 19  1  0
 19 20  2  0
 20 21  1  0
 21 22  1  0
 20  3  1  0
 18  5  1  0
 17 11  1  0
M  END
>  <Compound_ID>  (181) 
CHEMBL135902

>  <Active>  (181) 
1.0

>  <Smiles>  (181) 
COc1cc2ncnc(Sc3cccc(Cl)c3)c2cc1OC

>  <canonical_smi>  (181) 
COc1cc2ncnc(Sc3cccc(Cl)c3)c2cc1OC

>  <Set>  (181) 
G2 active

>  <Set_type>  (181) 
Train

>  <MW>  (181) 
332.81

>  <HBD>  (181) 
0

>  <HBA>  (181) 
5

>  <NRB>  (181) 
4

>  <NR>  (181) 
3

>  <NAR>  (181) 
3

>  <PSA>  (181) 
44.24

>  <Standard Type>  (181) 
nan

>  <Standard Relation>  (181) 
nan

>  <Standard Units>  (181) 
nan

>  <Standard Value>  (181) 
nan

>  <Assay ChEMBL ID>  (181) 
nan

>  <Assay Description>  (181) 
nan

>  <BAO Label>  (181) 
nan

$$$$

     RDKit          2D

 24 27  0  0  0  0  0  0  0  0999 V2000
    3.0000   -5.1962    0.0000 C   0  0  0  0  0  0  0  0  0  0  0  0
    1.5000   -5.1962    0.0000 O   0  0  0  0  0  0  0  0  0  0  0  0
    0.7500   -3.8971    0.0000 C   0  0  0  0  0  0  0  0  0  0  0  0
    1.5000   -2.5981    0.0000 C   0  0  0  0  0  0  0  0  0  0  0  0
    0.7500   -1.2990    0.0000 C   0  0  0  0  0  0  0  0  0  0  0  0
    1.5000    0.0000    0.0000 N   0  0  0  0  0  0  0  0  0  0  0  0
    0.7500    1.2990    0.0000 C   0  0  0  0  0  0  0  0  0  0  0  0
   -0.7500    1.2990    0.0000 N   0  0  0  0  0  0  0  0  0  0  0  0
   -1.5000    0.0000    0.0000 C   0  0  0  0  0  0  0  0  0  0  0  0
   -3.0000    0.0000    0.0000 N   0  0  0  0  0  0  0  0  0  0  0  0
   -3.7500    1.2990    0.0000 C   0  0  0  0  0  0  0  0  0  0  0  0
   -5.0490    2.0490    0.0000 C   0  0  0  0  0  0  0  0  0  0  0  0
   -3.7500    2.7990    0.0000 C   0  0  0  0  0  0  0  0  0  0  0  0
   -3.0000    4.0981    0.0000 C   0  0  0  0  0  0  0  0  0  0  0  0
   -1.5000    4.0981    0.0000 C   0  0  0  0  0  0  0  0  0  0  0  0
   -0.7500    5.3971    0.0000 C   0  0  0  0  0  0  0  0  0  0  0  0
   -1.5000    6.6962    0.0000 C   0  0  0  0  0  0  0  0  0  0  0  0
   -3.0000    6.6962    0.0000 C   0  0  0  0  0  0  0  0  0  0  0  0
   -3.7500    5.3971    0.0000 C   0  0  0  0  0  0  0  0  0  0  0  0
   -0.7500   -1.2990    0.0000 C   0  0  0  0  0  0  0  0  0  0  0  0
   -1.5000   -2.5981    0.0000 C   0  0  0  0  0  0  0  0  0  0  0  0
   -0.7500   -3.8971    0.0000 C   0  0  0  0  0  0  0  0  0  0  0  0
   -1.5000   -5.1962    0.0000 O   0  0  0  0  0  0  0  0  0  0  0  0
   -3.0000   -5.1962    0.0000 C   0  0  0  0  0  0  0  0  0  0  0  0
  1  2  1  0
  2  3  1  0
  3  4  2  0
  4  5  1  0
  5  6  2  0
  6  7  1  0
  7  8  2  0
  8  9  1  0
  9 10  1  0
 10 11  1  0
 11 12  1  0
 12 13  1  0
 13 14  1  0
 14 15  2  0
 15 16  1  0
 16 17  2  0
 17 18  1  0
 18 19  2  0
  9 20  2  0
 20 21  1  0
 21 22  2  0
 22 23  1  0
 23 24  1  0
 22  3  1  0
 20  5  1  0
 13 11  1  0
 19 14  1  0
M  END
>  <Compound_ID>  (182) 
CHEMBL419137

>  <Active>  (182) 
1.0

>  <Smiles>  (182) 
COc1cc2ncnc(NC3CC3c3ccccc3)c2cc1OC

>  <canonical_smi>  (182) 
COc1cc2ncnc(NC3CC3c3ccccc3)c2cc1OC

>  <Set>  (182) 
G2 active

>  <Set_type>  (182) 
Train

>  <MW>  (182) 
321.38

>  <HBD>  (182) 
1

>  <HBA>  (182) 
5

>  <NRB>  (182) 
5

>  <NR>  (182) 
4

>  <NAR>  (182) 
3

>  <PSA>  (182) 
56.27

>  <Standard Type>  (182) 
nan

>  <Standard Relation>  (182) 
nan

>  <Standard Units>  (182) 
nan

>  <Standard Value>  (182) 
nan

>  <Assay ChEMBL ID>  (182) 
nan

>  <Assay Description>  (182) 
nan

>  <BAO Label>  (182) 
nan

$$$$

     RDKit          2D

 39 43  0  0  0  0  0  0  0  0999 V2000
    7.5000  -10.3923    0.0000 C   0  0  0  0  0  0  0  0  0  0  0  0
    8.2500   -9.0933    0.0000 C   0  0  0  0  0  0  0  0  0  0  0  0
    7.5000   -7.7942    0.0000 N   0  0  0  0  0  0  0  0  0  0  0  0
    6.0000   -7.7942    0.0000 C   0  0  0  0  0  0  0  0  0  0  0  0
    5.2500   -6.4952    0.0000 C   0  0  0  0  0  0  0  0  0  0  0  0
    6.0000   -5.1962    0.0000 N   0  0  0  0  0  0  0  0  0  0  0  0
    5.2500   -3.8971    0.0000 C   0  0  0  0  0  0  0  0  0  0  0  0
    3.7500   -3.8971    0.0000 C   0  0  0  0  0  0  0  0  0  0  0  0
    3.0000   -2.5981    0.0000 C   0  0  0  0  0  0  0  0  0  0  0  0
    1.5000   -2.5981    0.0000 C   0  0  0  0  0  0  0  0  0  0  0  0
    0.7500   -1.2990    0.0000 C   0  0  0  0  0  0  0  0  0  0  0  0
    1.5000    0.0000    0.0000 C   0  0  0  0  0  0  0  0  0  0  0  0
    0.7500    1.2990    0.0000 C   0  0  0  0  0  0  0  0  0  0  0  0
   -0.7500    1.2990    0.0000 C   0  0  0  0  0  0  0  0  0  0  0  0
   -1.5000    2.5981    0.0000 C   0  0  0  0  0  0  0  0  0  0  0  0
   -0.7500    3.8971    0.0000 N   0  0  0  0  0  0  0  0  0  0  0  0
    0.7500    3.8971    0.0000 C   0  0  0  0  0  0  0  0  0  0  0  0
    1.5000    2.5981    0.0000 C   0  0  0  0  0  0  0  0  0  0  0  0
    3.0000    2.5981    0.0000 C   0  0  0  0  0  0  0  0  0  0  0  0
    3.7500    3.8971    0.0000 C   0  0  0  0  0  0  0  0  0  0  0  0
    5.2500    3.8971    0.0000 S   0  0  0  0  0  0  0  0  0  0  0  0
    6.0000    2.5981    0.0000 C   0  0  0  0  0  0  0  0  0  0  0  0
    7.4918    2.4413    0.0000 N   0  0  0  0  0  0  0  0  0  0  0  0
    7.8037    0.9741    0.0000 C   0  0  0  0  0  0  0  0  0  0  0  0
    6.5046    0.2241    0.0000 C   0  0  0  0  0  0  0  0  0  0  0  0
    5.3899    1.2278    0.0000 N   0  0  0  0  0  0  0  0  0  0  0  0
    3.9227    0.9159    0.0000 C   0  0  0  0  0  0  0  0  0  0  0  0
    3.0000    5.1962    0.0000 C   0  0  0  0  0  0  0  0  0  0  0  0
    3.7500    6.4952    0.0000 Cl  0  0  0  0  0  0  0  0  0  0  0  0
    1.5000    5.1962    0.0000 C   0  0  0  0  0  0  0  0  0  0  0  0
   -3.0000    2.5981    0.0000 C   0  0  0  0  0  0  0  0  0  0  0  0
   -3.7500    3.8971    0.0000 C   0  0  0  0  0  0  0  0  0  0  0  0
   -4.5000    5.1962    0.0000 N   0  0  0  0  0  0  0  0  0  0  0  0
   -3.7500    1.2990    0.0000 C   0  0  0  0  0  0  0  0  0  0  0  0
   -3.0000    0.0000    0.0000 N   0  0  0  0  0  0  0  0  0  0  0  0
   -1.5000    0.0000    0.0000 C   0  0  0  0  0  0  0  0  0  0  0  0
   -0.7500   -1.2990    0.0000 C   0  0  0  0  0  0  0  0  0  0  0  0
    7.5000   -5.1962    0.0000 C   0  0  0  0  0  0  0  0  0  0  0  0
    8.2500   -6.4952    0.0000 C   0  0  0  0  0  0  0  0  0  0  0  0
  1  2  1  0
  2  3  1  0
  3  4  1  0
  4  5  1  0
  5  6  1  0
  6  7  1  0
  7  8  1  0
  8  9  1  0
  9 10  2  0
 10 11  1  0
 11 12  2  0
 12 13  1  0
 13 14  2  0
 14 15  1  0
 15 16  1  0
 16 17  1  0
 17 18  2  0
 18 19  1  0
 19 20  2  0
 20 21  1  0
 21 22  1  0
 22 23  2  0
 23 24  1  0
 24 25  2  0
 25 26  1  0
 26 27  1  0
 20 28  1  0
 28 29  1  0
 28 30  2  0
 15 31  2  0
 31 32  1  0
 32 33  3  0
 31 34  1  0
 34 35  2  0
 35 36  1  0
 36 37  2  0
  6 38  1  0
 38 39  1  0
 39  3  1  0
 37 11  1  0
 36 14  1  0
 30 17  1  0
 26 22  1  0
M  END
>  <Compound_ID>  (183) 
CHEMBL489058

>  <Active>  (183) 
1.0

>  <Smiles>  (183) 
CCN1CCN(CC/C=C/c2ccc3c(Nc4ccc(Sc5nccn5C)c(Cl)c4)c(C#N)cnc3c2)CC1

>  <canonical_smi>  (183) 
CCN1CCN(CC/C=C/c2ccc3c(Nc4ccc(Sc5nccn5C)c(Cl)c4)c(C#N)cnc3c2)CC1

>  <Set>  (183) 
G2 active

>  <Set_type>  (183) 
Train

>  <MW>  (183) 
558.16

>  <HBD>  (183) 
1

>  <HBA>  (183) 
7

>  <NRB>  (183) 
9

>  <NR>  (183) 
5

>  <NAR>  (183) 
4

>  <PSA>  (183) 
73.01

>  <Standard Type>  (183) 
nan

>  <Standard Relation>  (183) 
nan

>  <Standard Units>  (183) 
nan

>  <Standard Value>  (183) 
nan

>  <Assay ChEMBL ID>  (183) 
nan

>  <Assay Description>  (183) 
nan

>  <BAO Label>  (183) 
nan

$$$$

     RDKit          2D

 29 32  0  0  0  0  0  0  0  0999 V2000
    3.7500   -6.4952    0.0000 C   0  0  0  0  0  0  0  0  0  0  0  0
    3.0000   -5.1962    0.0000 C   0  0  0  0  0  0  0  0  0  0  0  0
    1.5000   -5.1962    0.0000 O   0  0  0  0  0  0  0  0  0  0  0  0
    0.7500   -3.8971    0.0000 C   0  0  0  0  0  0  0  0  0  0  0  0
    1.5000   -2.5981    0.0000 C   0  0  0  0  0  0  0  0  0  0  0  0
    0.7500   -1.2990    0.0000 C   0  0  0  0  0  0  0  0  0  0  0  0
    1.5000    0.0000    0.0000 N   0  0  0  0  0  0  0  0  0  0  0  0
    0.7500    1.2990    0.0000 C   0  0  0  0  0  0  0  0  0  0  0  0
   -0.7500    1.2990    0.0000 N   0  0  0  0  0  0  0  0  0  0  0  0
   -1.5000    0.0000    0.0000 C   0  0  0  0  0  0  0  0  0  0  0  0
   -3.0000    0.0000    0.0000 C   0  0  0  0  0  0  0  0  0  0  0  0
   -4.5000    0.0000    0.0000 C   0  0  0  0  0  0  0  0  0  0  0  0
   -6.0000    0.0000    0.0000 C   0  0  0  0  0  0  0  0  0  0  0  0
   -6.8817   -1.2135    0.0000 N   0  0  0  0  0  0  0  0  0  0  0  0
   -8.3083   -0.7500    0.0000 C   0  0  0  0  0  0  0  0  0  0  0  0
   -8.3083    0.7500    0.0000 C   0  0  0  0  0  0  0  0  0  0  0  0
   -6.8817    1.2135    0.0000 C   0  0  0  0  0  0  0  0  0  0  0  0
   -6.4182    2.6401    0.0000 C   0  0  0  0  0  0  0  0  0  0  0  0
   -4.9509    2.9520    0.0000 C   0  0  0  0  0  0  0  0  0  0  0  0
   -4.4874    4.3786    0.0000 C   0  0  0  0  0  0  0  0  0  0  0  0
   -5.4911    5.4933    0.0000 C   0  0  0  0  0  0  0  0  0  0  0  0
   -6.9583    5.1814    0.0000 C   0  0  0  0  0  0  0  0  0  0  0  0
   -7.4218    3.7548    0.0000 C   0  0  0  0  0  0  0  0  0  0  0  0
   -0.7500   -1.2990    0.0000 C   0  0  0  0  0  0  0  0  0  0  0  0
   -1.5000   -2.5981    0.0000 C   0  0  0  0  0  0  0  0  0  0  0  0
   -0.7500   -3.8971    0.0000 C   0  0  0  0  0  0  0  0  0  0  0  0
   -1.5000   -5.1962    0.0000 O   0  0  0  0  0  0  0  0  0  0  0  0
   -3.0000   -5.1962    0.0000 C   0  0  0  0  0  0  0  0  0  0  0  0
   -3.7500   -6.4952    0.0000 C   0  0  0  0  0  0  0  0  0  0  0  0
  1  2  1  0
  2  3  1  0
  3  4  1  0
  4  5  2  0
  5  6  1  0
  6  7  2  0
  7  8  1  0
  8  9  2  0
  9 10  1  0
 10 11  1  0
 11 12  3  0
 12 13  1  0
 13 14  1  0
 14 15  1  0
 15 16  2  0
 16 17  1  0
 17 18  1  0
 18 19  2  0
 19 20  1  0
 20 21  2  0
 21 22  1  0
 22 23  2  0
 10 24  2  0
 24 25  1  0
 25 26  2  0
 26 27  1  0
 27 28  1  0
 28 29  1  0
 26  4  1  0
 24  6  1  0
 17 13  2  0
 23 18  1  0
M  END
>  <Compound_ID>  (184) 
CHEMBL251124

>  <Active>  (184) 
1.0

>  <Smiles>  (184) 
CCOc1cc2ncnc(C#Cc3[nH]ccc3-c3ccccc3)c2cc1OCC

>  <canonical_smi>  (184) 
CCOc1cc2ncnc(C#Cc3[nH]ccc3-c3ccccc3)c2cc1OCC

>  <Set>  (184) 
G2 active

>  <Set_type>  (184) 
Train

>  <MW>  (184) 
383.45

>  <HBD>  (184) 
1

>  <HBA>  (184) 
4

>  <NRB>  (184) 
5

>  <NR>  (184) 
4

>  <NAR>  (184) 
4

>  <PSA>  (184) 
60.03

>  <Standard Type>  (184) 
nan

>  <Standard Relation>  (184) 
nan

>  <Standard Units>  (184) 
nan

>  <Standard Value>  (184) 
nan

>  <Assay ChEMBL ID>  (184) 
nan

>  <Assay Description>  (184) 
nan

>  <BAO Label>  (184) 
nan

$$$$

     RDKit          2D

 35 38  0  0  0  0  0  0  0  0999 V2000
   10.5000   -5.1962    0.0000 C   0  0  0  0  0  0  0  0  0  0  0  0
    9.7500   -3.8971    0.0000 O   0  0  0  0  0  0  0  0  0  0  0  0
    8.2500   -3.8971    0.0000 C   0  0  0  0  0  0  0  0  0  0  0  0
    7.5000   -2.5981    0.0000 C   0  0  0  0  0  0  0  0  0  0  0  0
    8.2500   -1.2990    0.0000 O   0  0  0  0  0  0  0  0  0  0  0  0
    6.0000   -2.5981    0.0000 N   0  0  0  0  0  0  0  0  0  0  0  0
    5.2500   -1.2990    0.0000 C   0  0  0  0  0  0  0  0  0  0  0  0
    3.7500   -1.2990    0.0000 C   0  0  0  0  0  0  0  0  0  0  0  0
    3.0000    0.0000    0.0000 C   0  0  0  0  0  0  0  0  0  0  0  0
    1.5000    0.0000    0.0000 C   0  0  0  0  0  0  0  0  0  0  0  0
    0.7500   -1.2990    0.0000 C   0  0  0  0  0  0  0  0  0  0  0  0
   -0.7500   -1.2990    0.0000 C   0  0  0  0  0  0  0  0  0  0  0  0
   -1.5000    0.0000    0.0000 C   0  0  0  0  0  0  0  0  0  0  0  0
   -3.0000    0.0000    0.0000 N   0  0  0  0  0  0  0  0  0  0  0  0
   -3.7500    1.2990    0.0000 C   0  0  0  0  0  0  0  0  0  0  0  0
   -3.0000    2.5981    0.0000 N   0  0  0  0  0  0  0  0  0  0  0  0
   -1.5000    2.5981    0.0000 C   0  0  0  0  0  0  0  0  0  0  0  0
   -0.7500    3.8971    0.0000 N   0  0  0  0  0  0  0  0  0  0  0  0
   -1.5000    5.1962    0.0000 C   0  0  0  0  0  0  0  0  0  0  0  0
   -0.7500    6.4952    0.0000 C   0  0  0  0  0  0  0  0  0  0  0  0
   -1.5000    7.7942    0.0000 C   0  0  0  0  0  0  0  0  0  0  0  0
   -3.0000    7.7942    0.0000 C   0  0  0  0  0  0  0  0  0  0  0  0
   -3.7500    9.0933    0.0000 O   0  0  0  0  0  0  0  0  0  0  0  0
   -3.0000   10.3923    0.0000 C   0  0  0  0  0  0  0  0  0  0  0  0
   -1.5000   10.3923    0.0000 C   0  0  0  0  0  0  0  0  0  0  0  0
   -0.7500   11.6913    0.0000 C   0  0  0  0  0  0  0  0  0  0  0  0
   -1.5000   12.9904    0.0000 C   0  0  0  0  0  0  0  0  0  0  0  0
   -0.7500   14.2894    0.0000 C   0  0  0  0  0  0  0  0  0  0  0  0
   -3.0000   12.9904    0.0000 N   0  0  0  0  0  0  0  0  0  0  0  0
   -3.7500   11.6913    0.0000 C   0  0  0  0  0  0  0  0  0  0  0  0
   -3.7500    6.4952    0.0000 C   0  0  0  0  0  0  0  0  0  0  0  0
   -5.2500    6.4952    0.0000 C   0  0  0  0  0  0  0  0  0  0  0  0
   -3.0000    5.1962    0.0000 C   0  0  0  0  0  0  0  0  0  0  0  0
   -0.7500    1.2990    0.0000 C   0  0  0  0  0  0  0  0  0  0  0  0
    0.7500    1.2990    0.0000 C   0  0  0  0  0  0  0  0  0  0  0  0
  1  2  1  0
  2  3  1  0
  3  4  1  0
  4  5  2  0
  4  6  1  0
  6  7  1  0
  7  8  1  0
  8  9  2  0
  9 10  1  0
 10 11  2  0
 11 12  1  0
 12 13  2  0
 13 14  1  0
 14 15  2  0
 15 16  1  0
 16 17  2  0
 17 18  1  0
 18 19  1  0
 19 20  2  0
 20 21  1  0
 21 22  2  0
 22 23  1  0
 23 24  1  0
 24 25  2  0
 25 26  1  0
 26 27  2  0
 27 28  1  0
 27 29  1  0
 29 30  2  0
 22 31  1  0
 31 32  1  0
 31 33  2  0
 17 34  1  0
 34 35  2  0
 35 10  1  0
 34 13  1  0
 33 19  1  0
 30 24  1  0
M  END
>  <Compound_ID>  (185) 
CHEMBL483321

>  <Active>  (185) 
1.0

>  <Smiles>  (185) 
COCC(=O)NC/C=C/c1ccc2ncnc(Nc3ccc(Oc4ccc(C)nc4)c(C)c3)c2c1

>  <canonical_smi>  (185) 
COCC(=O)NC/C=C/c1ccc2ncnc(Nc3ccc(Oc4ccc(C)nc4)c(C)c3)c2c1

>  <Set>  (185) 
G2 active

>  <Set_type>  (185) 
Train

>  <MW>  (185) 
469.55

>  <HBD>  (185) 
2

>  <HBA>  (185) 
7

>  <NRB>  (185) 
9

>  <NR>  (185) 
4

>  <NAR>  (185) 
4

>  <PSA>  (185) 
98.26

>  <Standard Type>  (185) 
nan

>  <Standard Relation>  (185) 
nan

>  <Standard Units>  (185) 
nan

>  <Standard Value>  (185) 
nan

>  <Assay ChEMBL ID>  (185) 
nan

>  <Assay Description>  (185) 
nan

>  <BAO Label>  (185) 
nan

$$$$

     RDKit          2D

 17 19  0  0  0  0  0  0  0  0999 V2000
   -8.6562    2.3705    0.0000 Br  0  0  0  0  0  0  0  0  0  0  0  0
   -7.2296    2.8340    0.0000 C   0  0  0  0  0  0  0  0  0  0  0  0
   -6.9177    4.3013    0.0000 C   0  0  0  0  0  0  0  0  0  0  0  0
   -5.4912    4.7648    0.0000 C   0  0  0  0  0  0  0  0  0  0  0  0
   -4.3764    3.7611    0.0000 C   0  0  0  0  0  0  0  0  0  0  0  0
   -4.6883    2.2939    0.0000 C   0  0  0  0  0  0  0  0  0  0  0  0
   -3.5736    1.2902    0.0000 N   0  0  0  0  0  0  0  0  0  0  0  0
   -2.1470    1.7537    0.0000 C   0  0  0  0  0  0  0  0  0  0  0  0
   -1.8351    3.2209    0.0000 N   0  0  0  0  0  0  0  0  0  0  0  0
   -0.4086    3.6844    0.0000 C   0  0  0  0  0  0  0  0  0  0  0  0
    0.7062    2.6807    0.0000 N   0  0  0  0  0  0  0  0  0  0  0  0
    0.3943    1.2135    0.0000 C   0  0  0  0  0  0  0  0  0  0  0  0
    1.2760    0.0000    0.0000 C   0  0  0  0  0  0  0  0  0  0  0  0
    0.3943   -1.2135    0.0000 C   0  0  0  0  0  0  0  0  0  0  0  0
   -1.0323   -0.7500    0.0000 S   0  0  0  0  0  0  0  0  0  0  0  0
   -1.0323    0.7500    0.0000 C   0  0  0  0  0  0  0  0  0  0  0  0
   -6.1149    1.8303    0.0000 C   0  0  0  0  0  0  0  0  0  0  0  0
  1  2  1  0
  2  3  2  0
  3  4  1  0
  4  5  2  0
  5  6  1  0
  6  7  1  0
  7  8  1  0
  8  9  2  0
  9 10  1  0
 10 11  2  0
 11 12  1  0
 12 13  1  0
 13 14  2  0
 14 15  1  0
 15 16  1  0
  6 17  2  0
 17  2  1  0
 16  8  1  0
 16 12  2  0
M  END
>  <Compound_ID>  (186) 
CHEMBL345294

>  <Active>  (186) 
1.0

>  <Smiles>  (186) 
Brc1cccc(Nc2ncnc3ccsc23)c1

>  <canonical_smi>  (186) 
Brc1cccc(Nc2ncnc3ccsc23)c1

>  <Set>  (186) 
G2 active

>  <Set_type>  (186) 
Train

>  <MW>  (186) 
306.19

>  <HBD>  (186) 
1

>  <HBA>  (186) 
3

>  <NRB>  (186) 
2

>  <NR>  (186) 
3

>  <NAR>  (186) 
3

>  <PSA>  (186) 
37.81

>  <Standard Type>  (186) 
nan

>  <Standard Relation>  (186) 
nan

>  <Standard Units>  (186) 
nan

>  <Standard Value>  (186) 
nan

>  <Assay ChEMBL ID>  (186) 
nan

>  <Assay Description>  (186) 
nan

>  <BAO Label>  (186) 
nan

$$$$

     RDKit          2D

 34 37  0  0  0  0  0  0  0  0999 V2000
  -10.5000   -7.7942    0.0000 C   0  0  0  0  0  0  0  0  0  0  0  0
   -9.7500   -6.4952    0.0000 N   0  0  0  0  0  0  0  0  0  0  0  0
  -10.5000   -5.1962    0.0000 C   0  0  0  0  0  0  0  0  0  0  0  0
   -8.2500   -6.4952    0.0000 C   0  0  0  0  0  0  0  0  0  0  0  0
   -7.5000   -5.1962    0.0000 C   0  0  0  0  0  0  0  0  0  0  0  0
   -6.0000   -5.1962    0.0000 C   0  0  0  0  0  0  0  0  0  0  0  0
   -5.2500   -3.8971    0.0000 C   0  0  0  0  0  0  0  0  0  0  0  0
   -6.0000   -2.5981    0.0000 O   0  0  0  0  0  0  0  0  0  0  0  0
   -3.7500   -3.8971    0.0000 N   0  0  0  0  0  0  0  0  0  0  0  0
   -3.0000   -2.5981    0.0000 C   0  0  0  0  0  0  0  0  0  0  0  0
   -1.5000   -2.5981    0.0000 C   0  0  0  0  0  0  0  0  0  0  0  0
   -0.7500   -1.2990    0.0000 C   0  0  0  0  0  0  0  0  0  0  0  0
    0.7500   -1.2990    0.0000 C   0  0  0  0  0  0  0  0  0  0  0  0
    1.5000   -2.5981    0.0000 N   0  0  0  0  0  0  0  0  0  0  0  0
    3.0000   -2.5981    0.0000 C   0  0  0  0  0  0  0  0  0  0  0  0
    3.7500   -3.8971    0.0000 C   0  0  0  0  0  0  0  0  0  0  0  0
    5.2500   -3.8971    0.0000 C   0  0  0  0  0  0  0  0  0  0  0  0
    6.0000   -2.5981    0.0000 C   0  0  0  0  0  0  0  0  0  0  0  0
    7.5000   -2.5981    0.0000 F   0  0  0  0  0  0  0  0  0  0  0  0
    5.2500   -1.2990    0.0000 C   0  0  0  0  0  0  0  0  0  0  0  0
    6.0000   -0.0000    0.0000 Cl  0  0  0  0  0  0  0  0  0  0  0  0
    3.7500   -1.2990    0.0000 C   0  0  0  0  0  0  0  0  0  0  0  0
    1.5000    0.0000    0.0000 N   0  0  0  0  0  0  0  0  0  0  0  0
    0.7500    1.2990    0.0000 C   0  0  0  0  0  0  0  0  0  0  0  0
   -0.7500    1.2990    0.0000 N   0  0  0  0  0  0  0  0  0  0  0  0
   -1.5000    0.0000    0.0000 C   0  0  0  0  0  0  0  0  0  0  0  0
   -3.0000    0.0000    0.0000 C   0  0  0  0  0  0  0  0  0  0  0  0
   -3.7500   -1.2990    0.0000 C   0  0  0  0  0  0  0  0  0  0  0  0
   -5.2500   -1.2990    0.0000 O   0  0  0  0  0  0  0  0  0  0  0  0
   -6.0000    0.0000    0.0000 C   0  0  0  0  0  0  0  0  0  0  0  0
   -7.4918    0.1568    0.0000 C   0  0  0  0  0  0  0  0  0  0  0  0
   -7.8037    1.6240    0.0000 C   0  0  0  0  0  0  0  0  0  0  0  0
   -6.5046    2.3740    0.0000 O   0  0  0  0  0  0  0  0  0  0  0  0
   -5.3899    1.3703    0.0000 C   0  0  0  0  0  0  0  0  0  0  0  0
  1  2  1  0
  2  3  1  0
  2  4  1  0
  4  5  1  0
  5  6  2  0
  6  7  1  0
  7  8  2  0
  7  9  1  0
  9 10  1  0
 10 11  2  0
 11 12  1  0
 12 13  2  0
 13 14  1  0
 14 15  1  0
 15 16  2  0
 16 17  1  0
 17 18  2  0
 18 19  1  0
 18 20  1  0
 20 21  1  0
 20 22  2  0
 13 23  1  0
 23 24  2  0
 24 25  1  0
 25 26  2  0
 26 27  1  0
 27 28  2  0
 28 29  1  0
 30 29  1  1
 30 31  1  0
 31 32  1  0
 32 33  1  0
 33 34  1  0
 28 10  1  0
 34 30  1  0
 26 12  1  0
 22 15  1  0
M  END
>  <Compound_ID>  (187) 
CHEMBL1173655

>  <Active>  (187) 
1.0

>  <Smiles>  (187) 
CN(C)C/C=C/C(=O)Nc1cc2c(Nc3ccc(F)c(Cl)c3)ncnc2cc1O[C@H]1CCOC1

>  <canonical_smi>  (187) 
CN(C)C/C=C/C(=O)Nc1cc2c(Nc3ccc(F)c(Cl)c3)ncnc2cc1O[C@H]1CCOC1

>  <Set>  (187) 
G2 active

>  <Set_type>  (187) 
Train

>  <MW>  (187) 
485.95

>  <HBD>  (187) 
2

>  <HBA>  (187) 
7

>  <NRB>  (187) 
8

>  <NR>  (187) 
4

>  <NAR>  (187) 
3

>  <PSA>  (187) 
88.61

>  <Standard Type>  (187) 
nan

>  <Standard Relation>  (187) 
nan

>  <Standard Units>  (187) 
nan

>  <Standard Value>  (187) 
nan

>  <Assay ChEMBL ID>  (187) 
nan

>  <Assay Description>  (187) 
nan

>  <BAO Label>  (187) 
nan

$$$$

     RDKit          2D

 28 31  0  0  0  0  0  0  0  0999 V2000
    3.7500   -6.4952    0.0000 C   0  0  0  0  0  0  0  0  0  0  0  0
    3.0000   -5.1962    0.0000 C   0  0  0  0  0  0  0  0  0  0  0  0
    1.5000   -5.1962    0.0000 O   0  0  0  0  0  0  0  0  0  0  0  0
    0.7500   -3.8971    0.0000 C   0  0  0  0  0  0  0  0  0  0  0  0
    1.5000   -2.5981    0.0000 C   0  0  0  0  0  0  0  0  0  0  0  0
    0.7500   -1.2990    0.0000 C   0  0  0  0  0  0  0  0  0  0  0  0
    1.5000    0.0000    0.0000 N   0  0  0  0  0  0  0  0  0  0  0  0
    0.7500    1.2990    0.0000 C   0  0  0  0  0  0  0  0  0  0  0  0
   -0.7500    1.2990    0.0000 N   0  0  0  0  0  0  0  0  0  0  0  0
   -1.5000    0.0000    0.0000 C   0  0  0  0  0  0  0  0  0  0  0  0
   -3.0000    0.0000    0.0000 N   0  0  0  0  0  0  0  0  0  0  0  0
   -3.7500    1.2990    0.0000 C   0  0  0  0  0  0  0  0  0  0  0  0
   -3.0000    2.5981    0.0000 C   0  0  0  0  0  0  0  0  0  0  0  0
   -3.7500    3.8971    0.0000 C   0  0  0  0  0  0  0  0  0  0  0  0
   -5.2500    3.8971    0.0000 C   0  0  0  0  0  0  0  0  0  0  0  0
   -6.0000    2.5981    0.0000 C   0  0  0  0  0  0  0  0  0  0  0  0
   -7.5000    2.5981    0.0000 C   0  0  0  0  0  0  0  0  0  0  0  0
   -8.3817    1.3846    0.0000 C   0  0  0  0  0  0  0  0  0  0  0  0
   -9.8083    1.8481    0.0000 N   0  0  0  0  0  0  0  0  0  0  0  0
   -9.8083    3.3481    0.0000 C   0  0  0  0  0  0  0  0  0  0  0  0
   -8.3817    3.8116    0.0000 S   0  0  0  0  0  0  0  0  0  0  0  0
   -5.2500    1.2990    0.0000 C   0  0  0  0  0  0  0  0  0  0  0  0
   -0.7500   -1.2990    0.0000 C   0  0  0  0  0  0  0  0  0  0  0  0
   -1.5000   -2.5981    0.0000 C   0  0  0  0  0  0  0  0  0  0  0  0
   -0.7500   -3.8971    0.0000 C   0  0  0  0  0  0  0  0  0  0  0  0
   -1.5000   -5.1962    0.0000 O   0  0  0  0  0  0  0  0  0  0  0  0
   -3.0000   -5.1962    0.0000 C   0  0  0  0  0  0  0  0  0  0  0  0
   -3.7500   -6.4952    0.0000 C   0  0  0  0  0  0  0  0  0  0  0  0
  1  2  1  0
  2  3  1  0
  3  4  1  0
  4  5  2  0
  5  6  1  0
  6  7  2  0
  7  8  1  0
  8  9  2  0
  9 10  1  0
 10 11  1  0
 11 12  1  0
 12 13  2  0
 13 14  1  0
 14 15  2  0
 15 16  1  0
 16 17  1  0
 17 18  2  0
 18 19  1  0
 19 20  2  0
 20 21  1  0
 16 22  2  0
 10 23  2  0
 23 24  1  0
 24 25  2  0
 25 26  1  0
 26 27  1  0
 27 28  1  0
 25  4  1  0
 23  6  1  0
 22 12  1  0
 21 17  1  0
M  END
>  <Compound_ID>  (188) 
CHEMBL340862

>  <Active>  (188) 
1.0

>  <Smiles>  (188) 
CCOc1cc2ncnc(Nc3cccc(-c4cncs4)c3)c2cc1OCC

>  <canonical_smi>  (188) 
CCOc1cc2ncnc(Nc3cccc(-c4cncs4)c3)c2cc1OCC

>  <Set>  (188) 
G2 active

>  <Set_type>  (188) 
Train

>  <MW>  (188) 
392.48

>  <HBD>  (188) 
1

>  <HBA>  (188) 
6

>  <NRB>  (188) 
7

>  <NR>  (188) 
4

>  <NAR>  (188) 
4

>  <PSA>  (188) 
69.16

>  <Standard Type>  (188) 
nan

>  <Standard Relation>  (188) 
nan

>  <Standard Units>  (188) 
nan

>  <Standard Value>  (188) 
nan

>  <Assay ChEMBL ID>  (188) 
nan

>  <Assay Description>  (188) 
nan

>  <BAO Label>  (188) 
nan

$$$$

     RDKit          2D

 28 31  0  0  0  0  0  0  0  0999 V2000
    3.7500   -6.4952    0.0000 C   0  0  0  0  0  0  0  0  0  0  0  0
    3.0000   -5.1962    0.0000 C   0  0  0  0  0  0  0  0  0  0  0  0
    1.5000   -5.1962    0.0000 O   0  0  0  0  0  0  0  0  0  0  0  0
    0.7500   -3.8971    0.0000 C   0  0  0  0  0  0  0  0  0  0  0  0
    1.5000   -2.5981    0.0000 C   0  0  0  0  0  0  0  0  0  0  0  0
    0.7500   -1.2990    0.0000 C   0  0  0  0  0  0  0  0  0  0  0  0
    1.5000    0.0000    0.0000 N   0  0  0  0  0  0  0  0  0  0  0  0
    0.7500    1.2990    0.0000 C   0  0  0  0  0  0  0  0  0  0  0  0
   -0.7500    1.2990    0.0000 N   0  0  0  0  0  0  0  0  0  0  0  0
   -1.5000    0.0000    0.0000 C   0  0  0  0  0  0  0  0  0  0  0  0
   -3.0000    0.0000    0.0000 N   0  0  0  0  0  0  0  0  0  0  0  0
   -3.7500    1.2990    0.0000 C   0  0  0  0  0  0  0  0  0  0  0  0
   -3.0000    2.5981    0.0000 C   0  0  0  0  0  0  0  0  0  0  0  0
   -3.7500    3.8971    0.0000 C   0  0  0  0  0  0  0  0  0  0  0  0
   -5.2500    3.8971    0.0000 C   0  0  0  0  0  0  0  0  0  0  0  0
   -6.0000    2.5981    0.0000 C   0  0  0  0  0  0  0  0  0  0  0  0
   -7.5000    2.5981    0.0000 C   0  0  0  0  0  0  0  0  0  0  0  0
   -8.3817    1.3846    0.0000 C   0  0  0  0  0  0  0  0  0  0  0  0
   -9.8083    1.8481    0.0000 C   0  0  0  0  0  0  0  0  0  0  0  0
   -9.8083    3.3481    0.0000 N   0  0  0  0  0  0  0  0  0  0  0  0
   -8.3817    3.8116    0.0000 N   0  0  0  0  0  0  0  0  0  0  0  0
   -5.2500    1.2990    0.0000 C   0  0  0  0  0  0  0  0  0  0  0  0
   -0.7500   -1.2990    0.0000 C   0  0  0  0  0  0  0  0  0  0  0  0
   -1.5000   -2.5981    0.0000 C   0  0  0  0  0  0  0  0  0  0  0  0
   -0.7500   -3.8971    0.0000 C   0  0  0  0  0  0  0  0  0  0  0  0
   -1.5000   -5.1962    0.0000 O   0  0  0  0  0  0  0  0  0  0  0  0
   -3.0000   -5.1962    0.0000 C   0  0  0  0  0  0  0  0  0  0  0  0
   -3.7500   -6.4952    0.0000 C   0  0  0  0  0  0  0  0  0  0  0  0
  1  2  1  0
  2  3  1  0
  3  4  1  0
  4  5  2  0
  5  6  1  0
  6  7  2  0
  7  8  1  0
  8  9  2  0
  9 10  1  0
 10 11  1  0
 11 12  1  0
 12 13  2  0
 13 14  1  0
 14 15  2  0
 15 16  1  0
 16 17  1  0
 17 18  1  0
 18 19  2  0
 19 20  1  0
 20 21  1  0
 16 22  2  0
 10 23  2  0
 23 24  1  0
 24 25  2  0
 25 26  1  0
 26 27  1  0
 27 28  1  0
 25  4  1  0
 23  6  1  0
 22 12  1  0
 21 17  2  0
M  END
>  <Compound_ID>  (189) 
CHEMBL125920

>  <Active>  (189) 
1.0

>  <Smiles>  (189) 
CCOc1cc2ncnc(Nc3cccc(-c4cc[nH]n4)c3)c2cc1OCC

>  <canonical_smi>  (189) 
CCOc1cc2ncnc(Nc3cccc(-c4cc[nH]n4)c3)c2cc1OCC

>  <Set>  (189) 
G2 active

>  <Set_type>  (189) 
Train

>  <MW>  (189) 
375.43

>  <HBD>  (189) 
2

>  <HBA>  (189) 
6

>  <NRB>  (189) 
7

>  <NR>  (189) 
4

>  <NAR>  (189) 
4

>  <PSA>  (189) 
84.95

>  <Standard Type>  (189) 
nan

>  <Standard Relation>  (189) 
nan

>  <Standard Units>  (189) 
nan

>  <Standard Value>  (189) 
nan

>  <Assay ChEMBL ID>  (189) 
nan

>  <Assay Description>  (189) 
nan

>  <BAO Label>  (189) 
nan

$$$$

     RDKit          2D

 28 30  0  0  0  0  0  0  0  0999 V2000
    6.0000   -2.5981    0.0000 C   0  0  0  0  0  0  0  0  0  0  0  0
    5.2500   -1.2990    0.0000 O   0  0  0  0  0  0  0  0  0  0  0  0
    3.7500   -1.2990    0.0000 N   0  0  0  0  0  0  0  0  0  0  0  0
    3.0000    0.0000    0.0000 C   0  0  0  0  0  0  0  0  0  0  0  0
    1.5000    0.0000    0.0000 C   0  0  0  0  0  0  0  0  0  0  0  0
    0.7500   -1.2990    0.0000 C   0  0  0  0  0  0  0  0  0  0  0  0
    1.5000   -2.5981    0.0000 N   0  0  0  0  0  0  0  0  0  0  0  0
   -0.7500   -1.2990    0.0000 N   0  0  0  0  0  0  0  0  0  0  0  0
   -1.5000    0.0000    0.0000 C   0  0  0  0  0  0  0  0  0  0  0  0
   -0.7500    1.2990    0.0000 N   0  0  0  0  0  0  0  0  0  0  0  0
    0.7500    1.2990    0.0000 C   0  0  0  0  0  0  0  0  0  0  0  0
    1.5000    2.5981    0.0000 N   0  0  0  0  0  0  0  0  0  0  0  0
    0.7500    3.8971    0.0000 C   0  0  0  0  0  0  0  0  0  0  0  0
    1.5000    5.1962    0.0000 C   0  0  0  0  0  0  0  0  0  0  0  0
    0.7500    6.4952    0.0000 C   0  0  0  0  0  0  0  0  0  0  0  0
   -0.7500    6.4952    0.0000 C   0  0  0  0  0  0  0  0  0  0  0  0
   -1.5000    7.7942    0.0000 O   0  0  0  0  0  0  0  0  0  0  0  0
   -0.7500    9.0933    0.0000 C   0  0  0  0  0  0  0  0  0  0  0  0
   -1.5000   10.3923    0.0000 C   0  0  0  0  0  0  0  0  0  0  0  0
   -0.7500   11.6913    0.0000 C   0  0  0  0  0  0  0  0  0  0  0  0
   -1.5000   12.9904    0.0000 C   0  0  0  0  0  0  0  0  0  0  0  0
   -3.0000   12.9904    0.0000 C   0  0  0  0  0  0  0  0  0  0  0  0
   -3.7500   11.6913    0.0000 C   0  0  0  0  0  0  0  0  0  0  0  0
   -5.2500   11.6913    0.0000 F   0  0  0  0  0  0  0  0  0  0  0  0
   -3.0000   10.3923    0.0000 C   0  0  0  0  0  0  0  0  0  0  0  0
   -1.5000    5.1962    0.0000 C   0  0  0  0  0  0  0  0  0  0  0  0
   -3.0000    5.1962    0.0000 Cl  0  0  0  0  0  0  0  0  0  0  0  0
   -0.7500    3.8971    0.0000 C   0  0  0  0  0  0  0  0  0  0  0  0
  1  2  1  0
  2  3  1  0
  3  4  2  0
  4  5  1  0
  5  6  2  0
  6  7  1  0
  6  8  1  0
  8  9  2  0
  9 10  1  0
 10 11  2  0
 11 12  1  0
 12 13  1  0
 13 14  2  0
 14 15  1  0
 15 16  2  0
 16 17  1  0
 17 18  1  0
 18 19  1  0
 19 20  2  0
 20 21  1  0
 21 22  2  0
 22 23  1  0
 23 24  1  0
 23 25  2  0
 16 26  1  0
 26 27  1  0
 26 28  2  0
 11  5  1  0
 28 13  1  0
 25 19  1  0
M  END
>  <Compound_ID>  (190) 
CHEMBL256297

>  <Active>  (190) 
1.0

>  <Smiles>  (190) 
CO/N=C/c1c(N)ncnc1Nc1ccc(OCc2cccc(F)c2)c(Cl)c1

>  <canonical_smi>  (190) 
CO/N=C/c1c(N)ncnc1Nc1ccc(OCc2cccc(F)c2)c(Cl)c1

>  <Set>  (190) 
G2 active

>  <Set_type>  (190) 
Train

>  <MW>  (190) 
401.83

>  <HBD>  (190) 
2

>  <HBA>  (190) 
6

>  <NRB>  (190) 
7

>  <NR>  (190) 
3

>  <NAR>  (190) 
3

>  <PSA>  (190) 
94.65

>  <Standard Type>  (190) 
nan

>  <Standard Relation>  (190) 
nan

>  <Standard Units>  (190) 
nan

>  <Standard Value>  (190) 
nan

>  <Assay ChEMBL ID>  (190) 
nan

>  <Assay Description>  (190) 
nan

>  <BAO Label>  (190) 
nan

$$$$

     RDKit          2D

 32 36  0  0  0  0  0  0  0  0999 V2000
    7.5000   -2.5981    0.0000 F   0  0  0  0  0  0  0  0  0  0  0  0
    6.0000   -2.5981    0.0000 C   0  0  0  0  0  0  0  0  0  0  0  0
    5.2500   -3.8971    0.0000 C   0  0  0  0  0  0  0  0  0  0  0  0
    3.7500   -3.8971    0.0000 C   0  0  0  0  0  0  0  0  0  0  0  0
    3.0000   -2.5981    0.0000 C   0  0  0  0  0  0  0  0  0  0  0  0
    1.5000   -2.5981    0.0000 N   0  0  0  0  0  0  0  0  0  0  0  0
    0.7500   -1.2990    0.0000 C   0  0  0  0  0  0  0  0  0  0  0  0
    1.5000    0.0000    0.0000 N   0  0  0  0  0  0  0  0  0  0  0  0
    0.7500    1.2990    0.0000 C   0  0  0  0  0  0  0  0  0  0  0  0
   -0.7500    1.2990    0.0000 N   0  0  0  0  0  0  0  0  0  0  0  0
   -1.5000    0.0000    0.0000 C   0  0  0  0  0  0  0  0  0  0  0  0
   -2.9672   -0.3119    0.0000 N   0  0  0  0  0  0  0  0  0  0  0  0
   -3.1240   -1.8037    0.0000 C   0  0  0  0  0  0  0  0  0  0  0  0
   -4.4231   -2.5537    0.0000 N   0  0  0  0  0  0  0  0  0  0  0  0
   -5.7221   -1.8037    0.0000 C   0  0  0  0  0  0  0  0  0  0  0  0
   -5.7221   -0.3037    0.0000 C   0  0  0  0  0  0  0  0  0  0  0  0
   -7.0211    0.4463    0.0000 C   0  0  0  0  0  0  0  0  0  0  0  0
   -8.3202   -0.3037    0.0000 C   0  0  0  0  0  0  0  0  0  0  0  0
   -9.6192    0.4463    0.0000 C   0  0  0  0  0  0  0  0  0  0  0  0
   -9.6192    1.9463    0.0000 N   0  0  0  0  0  0  0  0  0  0  0  0
   -8.3202    2.6963    0.0000 C   0  0  0  0  0  0  0  0  0  0  0  0
   -8.3202    4.1963    0.0000 C   0  0  0  0  0  0  0  0  0  0  0  0
   -9.6192    4.9463    0.0000 O   0  0  0  0  0  0  0  0  0  0  0  0
  -10.9182    4.1963    0.0000 C   0  0  0  0  0  0  0  0  0  0  0  0
  -10.9182    2.6963    0.0000 C   0  0  0  0  0  0  0  0  0  0  0  0
   -8.3202   -1.8037    0.0000 C   0  0  0  0  0  0  0  0  0  0  0  0
   -7.0211   -2.5537    0.0000 C   0  0  0  0  0  0  0  0  0  0  0  0
   -1.7537   -2.4138    0.0000 S   0  0  0  0  0  0  0  0  0  0  0  0
   -0.7500   -1.2990    0.0000 C   0  0  0  0  0  0  0  0  0  0  0  0
    3.7500   -1.2990    0.0000 C   0  0  0  0  0  0  0  0  0  0  0  0
    5.2500   -1.2990    0.0000 C   0  0  0  0  0  0  0  0  0  0  0  0
    6.0000   -0.0000    0.0000 Cl  0  0  0  0  0  0  0  0  0  0  0  0
  1  2  1  0
  2  3  2  0
  3  4  1  0
  4  5  2  0
  5  6  1  0
  6  7  1  0
  7  8  2  0
  8  9  1  0
  9 10  2  0
 10 11  1  0
 11 12  1  0
 12 13  2  0
 13 14  1  0
 14 15  1  0
 15 16  2  0
 16 17  1  0
 17 18  2  0
 18 19  1  0
 19 20  1  0
 20 21  1  0
 21 22  1  0
 22 23  1  0
 23 24  1  0
 24 25  1  0
 18 26  1  0
 26 27  2  0
 13 28  1  0
 28 29  1  0
  5 30  1  0
 30 31  2  0
 31 32  1  0
 31  2  1  0
 29  7  1  0
 29 11  2  0
 27 15  1  0
 25 20  1  0
M  END
>  <Compound_ID>  (191) 
CHEMBL511637

>  <Active>  (191) 
1.0

>  <Smiles>  (191) 
Fc1ccc(Nc2ncnc3nc(Nc4ccc(CN5CCOCC5)cc4)sc23)cc1Cl

>  <canonical_smi>  (191) 
Fc1ccc(Nc2ncnc3nc(Nc4ccc(CN5CCOCC5)cc4)sc23)cc1Cl

>  <Set>  (191) 
G2 active

>  <Set_type>  (191) 
Train

>  <MW>  (191) 
470.96

>  <HBD>  (191) 
2

>  <HBA>  (191) 
7

>  <NRB>  (191) 
6

>  <NR>  (191) 
5

>  <NAR>  (191) 
4

>  <PSA>  (191) 
75.2

>  <Standard Type>  (191) 
nan

>  <Standard Relation>  (191) 
nan

>  <Standard Units>  (191) 
nan

>  <Standard Value>  (191) 
nan

>  <Assay ChEMBL ID>  (191) 
nan

>  <Assay Description>  (191) 
nan

>  <BAO Label>  (191) 
nan

$$$$

     RDKit          2D

 35 38  0  0  0  0  0  0  0  0999 V2000
    5.2500   -1.2990    0.0000 C   0  0  0  0  0  0  0  0  0  0  0  0
    3.7500   -1.2990    0.0000 C   0  0  0  0  0  0  0  0  0  0  0  0
    3.0000   -2.5981    0.0000 O   0  0  0  0  0  0  0  0  0  0  0  0
    3.0000    0.0000    0.0000 N   0  0  0  0  0  0  0  0  0  0  0  0
    1.5000    0.0000    0.0000 C   0  0  0  0  0  0  0  0  0  0  0  0
    0.7500   -1.2990    0.0000 C   0  0  0  0  0  0  0  0  0  0  0  0
   -0.7500   -1.2990    0.0000 C   0  0  0  0  0  0  0  0  0  0  0  0
   -1.5000    0.0000    0.0000 C   0  0  0  0  0  0  0  0  0  0  0  0
   -0.7500    1.2990    0.0000 C   0  0  0  0  0  0  0  0  0  0  0  0
   -1.5000    2.5981    0.0000 C   0  0  0  0  0  0  0  0  0  0  0  0
   -2.2500    3.8971    0.0000 C   0  0  0  0  0  0  0  0  0  0  0  0
   -3.0000    5.1962    0.0000 C   0  0  0  0  0  0  0  0  0  0  0  0
   -2.2500    6.4952    0.0000 C   0  0  0  0  0  0  0  0  0  0  0  0
   -3.0000    7.7942    0.0000 N   0  0  0  0  0  0  0  0  0  0  0  0
   -4.5000    7.7942    0.0000 C   0  0  0  0  0  0  0  0  0  0  0  0
   -5.2500    6.4952    0.0000 N   0  0  0  0  0  0  0  0  0  0  0  0
   -4.5000    5.1962    0.0000 C   0  0  0  0  0  0  0  0  0  0  0  0
   -5.2500    3.8971    0.0000 N   0  0  0  0  0  0  0  0  0  0  0  0
   -6.7500    3.8971    0.0000 C   0  0  0  0  0  0  0  0  0  0  0  0
   -7.5000    5.1962    0.0000 C   0  0  0  0  0  0  0  0  0  0  0  0
   -9.0000    5.1962    0.0000 C   0  0  0  0  0  0  0  0  0  0  0  0
   -9.7500    3.8971    0.0000 C   0  0  0  0  0  0  0  0  0  0  0  0
  -11.2500    3.8971    0.0000 O   0  0  0  0  0  0  0  0  0  0  0  0
  -12.0000    5.1962    0.0000 C   0  0  0  0  0  0  0  0  0  0  0  0
  -13.5000    5.1962    0.0000 C   0  0  0  0  0  0  0  0  0  0  0  0
  -14.2500    6.4952    0.0000 C   0  0  0  0  0  0  0  0  0  0  0  0
  -15.7500    6.4952    0.0000 C   0  0  0  0  0  0  0  0  0  0  0  0
  -16.5000    5.1962    0.0000 C   0  0  0  0  0  0  0  0  0  0  0  0
  -15.7500    3.8971    0.0000 C   0  0  0  0  0  0  0  0  0  0  0  0
  -16.5000    2.5981    0.0000 F   0  0  0  0  0  0  0  0  0  0  0  0
  -14.2500    3.8971    0.0000 C   0  0  0  0  0  0  0  0  0  0  0  0
   -9.0000    2.5981    0.0000 C   0  0  0  0  0  0  0  0  0  0  0  0
   -9.7500    1.2990    0.0000 Cl  0  0  0  0  0  0  0  0  0  0  0  0
   -7.5000    2.5981    0.0000 C   0  0  0  0  0  0  0  0  0  0  0  0
    0.7500    1.2990    0.0000 C   0  0  0  0  0  0  0  0  0  0  0  0
  1  2  1  0
  2  3  2  0
  2  4  1  0
  4  5  1  0
  5  6  2  0
  6  7  1  0
  7  8  2  0
  8  9  1  0
  9 10  1  0
 10 11  3  0
 11 12  1  0
 12 13  2  0
 13 14  1  0
 14 15  2  0
 15 16  1  0
 16 17  2  0
 17 18  1  0
 18 19  1  0
 19 20  2  0
 20 21  1  0
 21 22  2  0
 22 23  1  0
 23 24  1  0
 24 25  1  0
 25 26  2  0
 26 27  1  0
 27 28  2  0
 28 29  1  0
 29 30  1  0
 29 31  2  0
 22 32  1  0
 32 33  1  0
 32 34  2  0
  9 35  2  0
 35  5  1  0
 17 12  1  0
 34 19  1  0
 31 25  1  0
M  END
>  <Compound_ID>  (192) 
CHEMBL205798

>  <Active>  (192) 
1.0

>  <Smiles>  (192) 
CC(=O)Nc1cccc(C#Cc2cncnc2Nc2ccc(OCc3cccc(F)c3)c(Cl)c2)c1

>  <canonical_smi>  (192) 
CC(=O)Nc1cccc(C#Cc2cncnc2Nc2ccc(OCc3cccc(F)c3)c(Cl)c2)c1

>  <Set>  (192) 
G2 active

>  <Set_type>  (192) 
Train

>  <MW>  (192) 
486.93

>  <HBD>  (192) 
2

>  <HBA>  (192) 
5

>  <NRB>  (192) 
6

>  <NR>  (192) 
4

>  <NAR>  (192) 
4

>  <PSA>  (192) 
76.14

>  <Standard Type>  (192) 
nan

>  <Standard Relation>  (192) 
nan

>  <Standard Units>  (192) 
nan

>  <Standard Value>  (192) 
nan

>  <Assay ChEMBL ID>  (192) 
nan

>  <Assay Description>  (192) 
nan

>  <BAO Label>  (192) 
nan

$$$$

     RDKit          2D

 39 44  0  0  0  0  0  0  0  0999 V2000
    5.3011  -10.7993    0.0000 O   0  0  0  0  0  0  0  0  0  0  0  0
    5.1443   -9.3075    0.0000 S   0  0  0  0  0  0  0  0  0  0  0  0
    3.7740   -8.6974    0.0000 C   0  0  0  0  0  0  0  0  0  0  0  0
    3.6172   -7.2057    0.0000 C   0  0  0  0  0  0  0  0  0  0  0  0
    4.8308   -6.3240    0.0000 N   0  0  0  0  0  0  0  0  0  0  0  0
    4.6740   -4.8322    0.0000 C   0  0  0  0  0  0  0  0  0  0  0  0
    3.3037   -4.2221    0.0000 C   0  0  0  0  0  0  0  0  0  0  0  0
    2.0046   -4.9721    0.0000 C   0  0  0  0  0  0  0  0  0  0  0  0
    0.8899   -3.9684    0.0000 C   0  0  0  0  0  0  0  0  0  0  0  0
    1.5000   -2.5981    0.0000 C   0  0  0  0  0  0  0  0  0  0  0  0
    0.7500   -1.2990    0.0000 C   0  0  0  0  0  0  0  0  0  0  0  0
    1.5000    0.0000    0.0000 C   0  0  0  0  0  0  0  0  0  0  0  0
    0.7500    1.2990    0.0000 C   0  0  0  0  0  0  0  0  0  0  0  0
   -0.7500    1.2990    0.0000 C   0  0  0  0  0  0  0  0  0  0  0  0
   -1.5000    2.5981    0.0000 N   0  0  0  0  0  0  0  0  0  0  0  0
   -3.0000    2.5981    0.0000 C   0  0  0  0  0  0  0  0  0  0  0  0
   -3.7500    1.2990    0.0000 N   0  0  0  0  0  0  0  0  0  0  0  0
   -3.0000    0.0000    0.0000 C   0  0  0  0  0  0  0  0  0  0  0  0
   -3.7500   -1.2990    0.0000 N   0  0  0  0  0  0  0  0  0  0  0  0
   -5.2500   -1.2990    0.0000 C   0  0  0  0  0  0  0  0  0  0  0  0
   -6.0000    0.0000    0.0000 C   0  0  0  0  0  0  0  0  0  0  0  0
   -7.5000    0.0000    0.0000 C   0  0  0  0  0  0  0  0  0  0  0  0
   -8.2500   -1.2990    0.0000 C   0  0  0  0  0  0  0  0  0  0  0  0
   -9.7500   -1.2990    0.0000 O   0  0  0  0  0  0  0  0  0  0  0  0
  -10.5000    0.0000    0.0000 C   0  0  0  0  0  0  0  0  0  0  0  0
  -12.0000    0.0000    0.0000 C   0  0  0  0  0  0  0  0  0  0  0  0
  -12.7500    1.2990    0.0000 C   0  0  0  0  0  0  0  0  0  0  0  0
  -14.2500    1.2990    0.0000 C   0  0  0  0  0  0  0  0  0  0  0  0
  -15.0000    0.0000    0.0000 C   0  0  0  0  0  0  0  0  0  0  0  0
  -14.2500   -1.2990    0.0000 C   0  0  0  0  0  0  0  0  0  0  0  0
  -12.7500   -1.2990    0.0000 C   0  0  0  0  0  0  0  0  0  0  0  0
   -7.5000   -2.5981    0.0000 C   0  0  0  0  0  0  0  0  0  0  0  0
   -8.2500   -3.8971    0.0000 Cl  0  0  0  0  0  0  0  0  0  0  0  0
   -6.0000   -2.5981    0.0000 C   0  0  0  0  0  0  0  0  0  0  0  0
   -1.5000    0.0000    0.0000 C   0  0  0  0  0  0  0  0  0  0  0  0
   -0.7500   -1.2990    0.0000 C   0  0  0  0  0  0  0  0  0  0  0  0
    2.9918   -2.7549    0.0000 O   0  0  0  0  0  0  0  0  0  0  0  0
    6.2011   -6.9341    0.0000 C   0  0  0  0  0  0  0  0  0  0  0  0
    6.3579   -8.4259    0.0000 C   0  0  0  0  0  0  0  0  0  0  0  0
  1  2  2  0
  2  3  1  0
  3  4  1  0
  4  5  1  0
  5  6  1  0
  6  7  1  0
  7  8  2  0
  8  9  1  0
  9 10  2  0
 10 11  1  0
 11 12  2  0
 12 13  1  0
 13 14  2  0
 14 15  1  0
 15 16  2  0
 16 17  1  0
 17 18  2  0
 18 19  1  0
 19 20  1  0
 20 21  2  0
 21 22  1  0
 22 23  2  0
 23 24  1  0
 24 25  1  0
 25 26  1  0
 26 27  2  0
 27 28  1  0
 28 29  2  0
 29 30  1  0
 30 31  2  0
 23 32  1  0
 32 33  1  0
 32 34  2  0
 18 35  1  0
 35 36  2  0
 10 37  1  0
  5 38  1  0
 38 39  1  0
 39  2  1  0
 37  7  1  0
 36 11  1  0
 35 14  1  0
 34 20  1  0
 31 26  1  0
M  END
>  <Compound_ID>  (193) 
CHEMBL212965

>  <Active>  (193) 
1.0

>  <Smiles>  (193) 
O=S1CCN(Cc2ccc(-c3ccc4ncnc(Nc5ccc(OCc6ccccc6)c(Cl)c5)c4c3)o2)CC1

>  <canonical_smi>  (193) 
O=S1CCN(Cc2ccc(-c3ccc4ncnc(Nc5ccc(OCc6ccccc6)c(Cl)c5)c4c3)o2)CC1

>  <Set>  (193) 
G2 active

>  <Set_type>  (193) 
Train

>  <MW>  (193) 
559.09

>  <HBD>  (193) 
1

>  <HBA>  (193) 
7

>  <NRB>  (193) 
8

>  <NR>  (193) 
6

>  <NAR>  (193) 
5

>  <PSA>  (193) 
80.49

>  <Standard Type>  (193) 
nan

>  <Standard Relation>  (193) 
nan

>  <Standard Units>  (193) 
nan

>  <Standard Value>  (193) 
nan

>  <Assay ChEMBL ID>  (193) 
nan

>  <Assay Description>  (193) 
nan

>  <BAO Label>  (193) 
nan

$$$$

     RDKit          2D

 29 32  0  0  0  0  0  0  0  0999 V2000
    3.7500   -6.4952    0.0000 C   0  0  0  0  0  0  0  0  0  0  0  0
    3.0000   -5.1962    0.0000 C   0  0  0  0  0  0  0  0  0  0  0  0
    1.5000   -5.1962    0.0000 O   0  0  0  0  0  0  0  0  0  0  0  0
    0.7500   -3.8971    0.0000 C   0  0  0  0  0  0  0  0  0  0  0  0
    1.5000   -2.5981    0.0000 C   0  0  0  0  0  0  0  0  0  0  0  0
    0.7500   -1.2990    0.0000 C   0  0  0  0  0  0  0  0  0  0  0  0
    1.5000    0.0000    0.0000 N   0  0  0  0  0  0  0  0  0  0  0  0
    0.7500    1.2990    0.0000 C   0  0  0  0  0  0  0  0  0  0  0  0
   -0.7500    1.2990    0.0000 N   0  0  0  0  0  0  0  0  0  0  0  0
   -1.5000    0.0000    0.0000 C   0  0  0  0  0  0  0  0  0  0  0  0
   -3.0000    0.0000    0.0000 C   0  0  0  0  0  0  0  0  0  0  0  0
   -4.5000    0.0000    0.0000 C   0  0  0  0  0  0  0  0  0  0  0  0
   -6.0000    0.0000    0.0000 C   0  0  0  0  0  0  0  0  0  0  0  0
   -6.8817   -1.2135    0.0000 N   0  0  0  0  0  0  0  0  0  0  0  0
   -8.3083   -0.7500    0.0000 C   0  0  0  0  0  0  0  0  0  0  0  0
   -8.3083    0.7500    0.0000 C   0  0  0  0  0  0  0  0  0  0  0  0
   -6.8817    1.2135    0.0000 N   0  0  0  0  0  0  0  0  0  0  0  0
   -6.4182    2.6401    0.0000 C   0  0  0  0  0  0  0  0  0  0  0  0
   -4.9509    2.9520    0.0000 C   0  0  0  0  0  0  0  0  0  0  0  0
   -4.4874    4.3786    0.0000 C   0  0  0  0  0  0  0  0  0  0  0  0
   -5.4911    5.4933    0.0000 C   0  0  0  0  0  0  0  0  0  0  0  0
   -6.9583    5.1814    0.0000 C   0  0  0  0  0  0  0  0  0  0  0  0
   -7.4218    3.7548    0.0000 C   0  0  0  0  0  0  0  0  0  0  0  0
   -0.7500   -1.2990    0.0000 C   0  0  0  0  0  0  0  0  0  0  0  0
   -1.5000   -2.5981    0.0000 C   0  0  0  0  0  0  0  0  0  0  0  0
   -0.7500   -3.8971    0.0000 C   0  0  0  0  0  0  0  0  0  0  0  0
   -1.5000   -5.1962    0.0000 O   0  0  0  0  0  0  0  0  0  0  0  0
   -3.0000   -5.1962    0.0000 C   0  0  0  0  0  0  0  0  0  0  0  0
   -3.7500   -6.4952    0.0000 C   0  0  0  0  0  0  0  0  0  0  0  0
  1  2  1  0
  2  3  1  0
  3  4  1  0
  4  5  2  0
  5  6  1  0
  6  7  2  0
  7  8  1  0
  8  9  2  0
  9 10  1  0
 10 11  1  0
 11 12  3  0
 12 13  1  0
 13 14  2  0
 14 15  1  0
 15 16  2  0
 16 17  1  0
 17 18  1  0
 18 19  2  0
 19 20  1  0
 20 21  2  0
 21 22  1  0
 22 23  2  0
 10 24  2  0
 24 25  1  0
 25 26  2  0
 26 27  1  0
 27 28  1  0
 28 29  1  0
 26  4  1  0
 24  6  1  0
 17 13  1  0
 23 18  1  0
M  END
>  <Compound_ID>  (194) 
CHEMBL399372

>  <Active>  (194) 
1.0

>  <Smiles>  (194) 
CCOc1cc2ncnc(C#Cc3nccn3-c3ccccc3)c2cc1OCC

>  <canonical_smi>  (194) 
CCOc1cc2ncnc(C#Cc3nccn3-c3ccccc3)c2cc1OCC

>  <Set>  (194) 
G2 active

>  <Set_type>  (194) 
Train

>  <MW>  (194) 
384.44

>  <HBD>  (194) 
0

>  <HBA>  (194) 
5

>  <NRB>  (194) 
5

>  <NR>  (194) 
4

>  <NAR>  (194) 
4

>  <PSA>  (194) 
62.06

>  <Standard Type>  (194) 
nan

>  <Standard Relation>  (194) 
nan

>  <Standard Units>  (194) 
nan

>  <Standard Value>  (194) 
nan

>  <Assay ChEMBL ID>  (194) 
nan

>  <Assay Description>  (194) 
nan

>  <BAO Label>  (194) 
nan

$$$$

     RDKit          2D

 29 32  0  0  0  0  0  0  0  0999 V2000
    6.0000   -7.7942    0.0000 C   0  0  0  0  0  0  0  0  0  0  0  0
    5.2500   -6.4952    0.0000 O   0  0  0  0  0  0  0  0  0  0  0  0
    3.7500   -6.4952    0.0000 N   0  0  0  0  0  0  0  0  0  0  0  0
    3.0000   -5.1962    0.0000 C   0  0  0  0  0  0  0  0  0  0  0  0
    1.5000   -5.1962    0.0000 C   0  0  0  0  0  0  0  0  0  0  0  0
    0.7500   -6.4952    0.0000 C   0  0  0  0  0  0  0  0  0  0  0  0
    1.5000   -7.7942    0.0000 N   0  0  0  0  0  0  0  0  0  0  0  0
   -0.7500   -6.4952    0.0000 N   0  0  0  0  0  0  0  0  0  0  0  0
   -1.5000   -5.1962    0.0000 C   0  0  0  0  0  0  0  0  0  0  0  0
   -0.7500   -3.8971    0.0000 N   0  0  0  0  0  0  0  0  0  0  0  0
    0.7500   -3.8971    0.0000 C   0  0  0  0  0  0  0  0  0  0  0  0
    1.5000   -2.5981    0.0000 N   0  0  0  0  0  0  0  0  0  0  0  0
    0.7500   -1.2990    0.0000 C   0  0  0  0  0  0  0  0  0  0  0  0
    1.5000    0.0000    0.0000 C   0  0  0  0  0  0  0  0  0  0  0  0
    0.7500    1.2990    0.0000 C   0  0  0  0  0  0  0  0  0  0  0  0
   -0.7500    1.2990    0.0000 C   0  0  0  0  0  0  0  0  0  0  0  0
   -1.5000    0.0000    0.0000 C   0  0  0  0  0  0  0  0  0  0  0  0
   -2.9672    0.3119    0.0000 C   0  0  0  0  0  0  0  0  0  0  0  0
   -3.1240    1.8037    0.0000 C   0  0  0  0  0  0  0  0  0  0  0  0
   -1.7537    2.4138    0.0000 N   0  0  0  0  0  0  0  0  0  0  0  0
   -1.4418    3.8810    0.0000 C   0  0  0  0  0  0  0  0  0  0  0  0
   -2.5565    4.8847    0.0000 C   0  0  0  0  0  0  0  0  0  0  0  0
   -2.2447    6.3519    0.0000 C   0  0  0  0  0  0  0  0  0  0  0  0
   -3.3594    7.3556    0.0000 C   0  0  0  0  0  0  0  0  0  0  0  0
   -4.7860    6.8921    0.0000 C   0  0  0  0  0  0  0  0  0  0  0  0
   -5.0978    5.4248    0.0000 C   0  0  0  0  0  0  0  0  0  0  0  0
   -6.5244    4.9613    0.0000 F   0  0  0  0  0  0  0  0  0  0  0  0
   -3.9831    4.4211    0.0000 C   0  0  0  0  0  0  0  0  0  0  0  0
   -0.7500   -1.2990    0.0000 C   0  0  0  0  0  0  0  0  0  0  0  0
  1  2  1  0
  2  3  1  0
  3  4  2  0
  4  5  1  0
  5  6  2  0
  6  7  1  0
  6  8  1  0
  8  9  2  0
  9 10  1  0
 10 11  2  0
 11 12  1  0
 12 13  1  0
 13 14  2  0
 14 15  1  0
 15 16  2  0
 16 17  1  0
 17 18  1  0
 18 19  2  0
 19 20  1  0
 20 21  1  0
 21 22  1  0
 22 23  2  0
 23 24  1  0
 24 25  2  0
 25 26  1  0
 26 27  1  0
 26 28  2  0
 17 29  2  0
 11  5  1  0
 29 13  1  0
 20 16  1  0
 28 22  1  0
M  END
>  <Compound_ID>  (195) 
CHEMBL257816

>  <Active>  (195) 
1.0

>  <Smiles>  (195) 
CO/N=C/c1c(N)ncnc1Nc1ccc2c(ccn2Cc2cccc(F)c2)c1

>  <canonical_smi>  (195) 
CO/N=C/c1c(N)ncnc1Nc1ccc2c(ccn2Cc2cccc(F)c2)c1

>  <Set>  (195) 
G2 active

>  <Set_type>  (195) 
Train

>  <MW>  (195) 
390.42

>  <HBD>  (195) 
2

>  <HBA>  (195) 
5

>  <NRB>  (195) 
6

>  <NR>  (195) 
4

>  <NAR>  (195) 
4

>  <PSA>  (195) 
90.35

>  <Standard Type>  (195) 
nan

>  <Standard Relation>  (195) 
nan

>  <Standard Units>  (195) 
nan

>  <Standard Value>  (195) 
nan

>  <Assay ChEMBL ID>  (195) 
nan

>  <Assay Description>  (195) 
nan

>  <BAO Label>  (195) 
nan

$$$$

     RDKit          2D

 34 37  0  0  0  0  0  0  0  0999 V2000
    3.0000   -7.7942    0.0000 O   0  0  0  0  0  0  0  0  0  0  0  0
    1.5000   -7.7942    0.0000 C   0  0  0  0  0  0  0  0  0  0  0  0
    0.7500   -6.4952    0.0000 C   0  0  0  0  0  0  0  0  0  0  0  0
    1.5000   -5.1962    0.0000 C   0  0  0  0  0  0  0  0  0  0  0  0
    0.7500   -3.8971    0.0000 C   0  0  0  0  0  0  0  0  0  0  0  0
   -0.7500   -3.8971    0.0000 O   0  0  0  0  0  0  0  0  0  0  0  0
    1.5000   -2.5981    0.0000 N   0  0  0  0  0  0  0  0  0  0  0  0
    0.7500   -1.2990    0.0000 C   0  0  0  0  0  0  0  0  0  0  0  0
    1.5000    0.0000    0.0000 C   0  0  0  0  0  0  0  0  0  0  0  0
    0.7500    1.2990    0.0000 C   0  0  0  0  0  0  0  0  0  0  0  0
    1.5000    2.5981    0.0000 C   0  0  0  0  0  0  0  0  0  0  0  0
    3.0000    2.5981    0.0000 N   0  0  0  0  0  0  0  0  0  0  0  0
    3.7500    3.8971    0.0000 C   0  0  0  0  0  0  0  0  0  0  0  0
    5.2500    3.8971    0.0000 C   0  0  0  0  0  0  0  0  0  0  0  0
    6.0000    5.1962    0.0000 C   0  0  0  0  0  0  0  0  0  0  0  0
    5.2500    6.4952    0.0000 C   0  0  0  0  0  0  0  0  0  0  0  0
    3.7500    6.4952    0.0000 C   0  0  0  0  0  0  0  0  0  0  0  0
    3.0000    7.7942    0.0000 Br  0  0  0  0  0  0  0  0  0  0  0  0
    3.0000    5.1962    0.0000 C   0  0  0  0  0  0  0  0  0  0  0  0
    0.7500    3.8971    0.0000 N   0  0  0  0  0  0  0  0  0  0  0  0
   -0.7500    3.8971    0.0000 C   0  0  0  0  0  0  0  0  0  0  0  0
   -1.5000    2.5981    0.0000 N   0  0  0  0  0  0  0  0  0  0  0  0
   -0.7500    1.2990    0.0000 C   0  0  0  0  0  0  0  0  0  0  0  0
   -1.5000    0.0000    0.0000 C   0  0  0  0  0  0  0  0  0  0  0  0
   -0.7500   -1.2990    0.0000 N   0  0  0  0  0  0  0  0  0  0  0  0
    0.7500   -9.0933    0.0000 N   0  0  0  0  0  0  0  0  0  0  0  0
    1.5000  -10.3923    0.0000 C   0  0  0  0  0  0  0  0  0  0  0  0
    0.7500  -11.6913    0.0000 C   0  0  0  0  0  0  0  0  0  0  0  0
    1.5000  -12.9904    0.0000 C   0  0  0  0  0  0  0  0  0  0  0  0
    0.7500  -14.2894    0.0000 N   0  0  0  0  0  0  0  0  0  0  0  0
    1.3601  -15.6597    0.0000 C   0  0  0  0  0  0  0  0  0  0  0  0
    0.2454  -16.6634    0.0000 C   0  0  0  0  0  0  0  0  0  0  0  0
   -1.0537  -15.9134    0.0000 N   0  0  0  0  0  0  0  0  0  0  0  0
   -0.7418  -14.4462    0.0000 C   0  0  0  0  0  0  0  0  0  0  0  0
  1  2  2  0
  2  3  1  0
  3  4  2  0
  4  5  1  0
  5  6  2  0
  5  7  1  0
  7  8  1  0
  8  9  2  0
  9 10  1  0
 10 11  2  0
 11 12  1  0
 12 13  1  0
 13 14  2  0
 14 15  1  0
 15 16  2  0
 16 17  1  0
 17 18  1  0
 17 19  2  0
 11 20  1  0
 20 21  2  0
 21 22  1  0
 22 23  2  0
 23 24  1  0
 24 25  2  0
  2 26  1  0
 26 27  1  0
 27 28  1  0
 28 29  1  0
 29 30  1  0
 30 31  1  0
 31 32  2  0
 32 33  1  0
 33 34  2  0
 25  8  1  0
 34 30  1  0
 23 10  1  0
 19 13  1  0
M  END
>  <Compound_ID>  (196) 
CHEMBL342828

>  <Active>  (196) 
1.0

>  <Smiles>  (196) 
O=C(/C=C/C(=O)Nc1cc2c(Nc3cccc(Br)c3)ncnc2cn1)NCCCn1ccnc1

>  <canonical_smi>  (196) 
O=C(/C=C/C(=O)Nc1cc2c(Nc3cccc(Br)c3)ncnc2cn1)NCCCn1ccnc1

>  <Set>  (196) 
G2 active

>  <Set_type>  (196) 
Train

>  <MW>  (196) 
521.38

>  <HBD>  (196) 
3

>  <HBA>  (196) 
7

>  <NRB>  (196) 
9

>  <NR>  (196) 
4

>  <NAR>  (196) 
4

>  <PSA>  (196) 
126.72

>  <Standard Type>  (196) 
nan

>  <Standard Relation>  (196) 
nan

>  <Standard Units>  (196) 
nan

>  <Standard Value>  (196) 
nan

>  <Assay ChEMBL ID>  (196) 
nan

>  <Assay Description>  (196) 
nan

>  <BAO Label>  (196) 
nan

$$$$

     RDKit          2D

 21 24  0  0  0  0  0  0  0  0999 V2000
   -0.2758   10.5570    0.0000 Br  0  0  0  0  0  0  0  0  0  0  0  0
    0.8389    9.5533    0.0000 C   0  0  0  0  0  0  0  0  0  0  0  0
    2.2655   10.0169    0.0000 C   0  0  0  0  0  0  0  0  0  0  0  0
    3.3802    9.0132    0.0000 C   0  0  0  0  0  0  0  0  0  0  0  0
    3.0684    7.5459    0.0000 C   0  0  0  0  0  0  0  0  0  0  0  0
    1.6418    7.0824    0.0000 C   0  0  0  0  0  0  0  0  0  0  0  0
    1.3299    5.6152    0.0000 N   0  0  0  0  0  0  0  0  0  0  0  0
   -0.0967    5.1517    0.0000 C   0  0  0  0  0  0  0  0  0  0  0  0
   -1.2114    6.1554    0.0000 N   0  0  0  0  0  0  0  0  0  0  0  0
   -2.6380    5.6918    0.0000 C   0  0  0  0  0  0  0  0  0  0  0  0
   -2.9499    4.2246    0.0000 N   0  0  0  0  0  0  0  0  0  0  0  0
   -1.8351    3.2209    0.0000 C   0  0  0  0  0  0  0  0  0  0  0  0
   -2.1470    1.7537    0.0000 C   0  0  0  0  0  0  0  0  0  0  0  0
   -1.0323    0.7500    0.0000 C   0  0  0  0  0  0  0  0  0  0  0  0
    0.3943    1.2135    0.0000 C   0  0  0  0  0  0  0  0  0  0  0  0
    0.7062    2.6807    0.0000 C   0  0  0  0  0  0  0  0  0  0  0  0
   -0.4086    3.6844    0.0000 C   0  0  0  0  0  0  0  0  0  0  0  0
    1.2760    0.0000    0.0000 O   0  0  0  0  0  0  0  0  0  0  0  0
    0.3943   -1.2135    0.0000 C   0  0  0  0  0  0  0  0  0  0  0  0
   -1.0323   -0.7500    0.0000 O   0  0  0  0  0  0  0  0  0  0  0  0
    0.5271    8.0861    0.0000 C   0  0  0  0  0  0  0  0  0  0  0  0
  1  2  1  0
  2  3  2  0
  3  4  1  0
  4  5  2  0
  5  6  1  0
  6  7  1  0
  7  8  1  0
  8  9  2  0
  9 10  1  0
 10 11  2  0
 11 12  1  0
 12 13  2  0
 13 14  1  0
 14 15  2  0
 15 16  1  0
 16 17  2  0
 15 18  1  0
 18 19  1  0
 19 20  1  0
  6 21  2  0
 21  2  1  0
 17  8  1  0
 17 12  1  0
 20 14  1  0
M  END
>  <Compound_ID>  (197) 
CHEMBL93051

>  <Active>  (197) 
1.0

>  <Smiles>  (197) 
Brc1cccc(Nc2ncnc3cc4c(cc23)OCO4)c1

>  <canonical_smi>  (197) 
Brc1cccc(Nc2ncnc3cc4c(cc23)OCO4)c1

>  <Set>  (197) 
G2 active

>  <Set_type>  (197) 
Train

>  <MW>  (197) 
344.17

>  <HBD>  (197) 
1

>  <HBA>  (197) 
5

>  <NRB>  (197) 
2

>  <NR>  (197) 
4

>  <NAR>  (197) 
3

>  <PSA>  (197) 
56.27

>  <Standard Type>  (197) 
nan

>  <Standard Relation>  (197) 
nan

>  <Standard Units>  (197) 
nan

>  <Standard Value>  (197) 
nan

>  <Assay ChEMBL ID>  (197) 
nan

>  <Assay Description>  (197) 
nan

>  <BAO Label>  (197) 
nan

$$$$

     RDKit          2D

 41 46  0  0  0  0  0  0  0  0999 V2000
    0.7500   -6.4952    0.0000 C   0  0  0  0  0  0  0  0  0  0  0  0
    1.5000   -5.1962    0.0000 O   0  0  0  0  0  0  0  0  0  0  0  0
    0.7500   -3.8971    0.0000 C   0  0  0  0  0  0  0  0  0  0  0  0
    1.5000   -2.5981    0.0000 C   0  0  0  0  0  0  0  0  0  0  0  0
    0.7500   -1.2990    0.0000 C   0  0  0  0  0  0  0  0  0  0  0  0
    1.5000    0.0000    0.0000 N   0  0  0  0  0  0  0  0  0  0  0  0
    0.7500    1.2990    0.0000 C   0  0  0  0  0  0  0  0  0  0  0  0
   -0.7500    1.2990    0.0000 N   0  0  0  0  0  0  0  0  0  0  0  0
   -1.5000    0.0000    0.0000 C   0  0  0  0  0  0  0  0  0  0  0  0
   -3.0000    0.0000    0.0000 N   0  0  0  0  0  0  0  0  0  0  0  0
   -3.7500    1.2990    0.0000 C   0  0  0  0  0  0  0  0  0  0  0  0
   -3.0000    2.5981    0.0000 C   0  0  0  0  0  0  0  0  0  0  0  0
   -3.7500    3.8971    0.0000 C   0  0  0  0  0  0  0  0  0  0  0  0
   -5.2500    3.8971    0.0000 C   0  0  0  0  0  0  0  0  0  0  0  0
   -6.0000    5.1962    0.0000 C   0  0  0  0  0  0  0  0  0  0  0  0
   -5.3899    6.5665    0.0000 N   0  0  0  0  0  0  0  0  0  0  0  0
   -6.5046    7.5702    0.0000 C   0  0  0  0  0  0  0  0  0  0  0  0
   -6.5046    9.0702    0.0000 C   0  0  0  0  0  0  0  0  0  0  0  0
   -7.8037    9.8202    0.0000 C   0  0  0  0  0  0  0  0  0  0  0  0
   -9.1027    9.0702    0.0000 C   0  0  0  0  0  0  0  0  0  0  0  0
   -9.1027    7.5702    0.0000 C   0  0  0  0  0  0  0  0  0  0  0  0
   -7.8037    6.8202    0.0000 C   0  0  0  0  0  0  0  0  0  0  0  0
   -7.4918    5.3529    0.0000 S   0  0  0  0  0  0  0  0  0  0  0  0
   -6.0000    2.5981    0.0000 C   0  0  0  0  0  0  0  0  0  0  0  0
   -7.5000    2.5981    0.0000 O   0  0  0  0  0  0  0  0  0  0  0  0
   -8.2500    1.2990    0.0000 C   0  0  0  0  0  0  0  0  0  0  0  0
   -5.2500    1.2990    0.0000 C   0  0  0  0  0  0  0  0  0  0  0  0
   -0.7500   -1.2990    0.0000 C   0  0  0  0  0  0  0  0  0  0  0  0
   -1.5000   -2.5981    0.0000 C   0  0  0  0  0  0  0  0  0  0  0  0
   -0.7500   -3.8971    0.0000 C   0  0  0  0  0  0  0  0  0  0  0  0
   -1.5000   -5.1962    0.0000 O   0  0  0  0  0  0  0  0  0  0  0  0
   -3.0000   -5.1962    0.0000 C   0  0  0  0  0  0  0  0  0  0  0  0
   -3.7500   -6.4952    0.0000 C   0  0  0  0  0  0  0  0  0  0  0  0
   -5.2500   -6.4952    0.0000 C   0  0  0  0  0  0  0  0  0  0  0  0
   -6.0000   -7.7942    0.0000 N   0  0  0  0  0  0  0  0  0  0  0  0
   -7.5000   -7.7942    0.0000 C   0  0  0  0  0  0  0  0  0  0  0  0
   -8.2500   -9.0933    0.0000 C   0  0  0  0  0  0  0  0  0  0  0  0
   -7.5000  -10.3923    0.0000 N   0  0  0  0  0  0  0  0  0  0  0  0
   -8.2500  -11.6913    0.0000 C   0  0  0  0  0  0  0  0  0  0  0  0
   -6.0000  -10.3923    0.0000 C   0  0  0  0  0  0  0  0  0  0  0  0
   -5.2500   -9.0933    0.0000 C   0  0  0  0  0  0  0  0  0  0  0  0
  1  2  1  0
  2  3  1  0
  3  4  2  0
  4  5  1  0
  5  6  2  0
  6  7  1  0
  7  8  2  0
  8  9  1  0
  9 10  1  0
 10 11  1  0
 11 12  2  0
 12 13  1  0
 13 14  2  0
 14 15  1  0
 15 16  2  0
 16 17  1  0
 17 18  2  0
 18 19  1  0
 19 20  2  0
 20 21  1  0
 21 22  2  0
 22 23  1  0
 14 24  1  0
 24 25  1  0
 25 26  1  0
 24 27  2  0
  9 28  2  0
 28 29  1  0
 29 30  2  0
 30 31  1  0
 31 32  1  0
 32 33  1  0
 33 34  1  0
 34 35  1  0
 35 36  1  0
 36 37  1  0
 37 38  1  0
 38 39  1  0
 38 40  1  0
 40 41  1  0
 30  3  1  0
 41 35  1  0
 28  5  1  0
 27 11  1  0
 23 15  1  0
 22 17  1  0
M  END
>  <Compound_ID>  (198) 
CHEMBL593911

>  <Active>  (198) 
1.0

>  <Smiles>  (198) 
COc1cc2ncnc(Nc3ccc(-c4nc5ccccc5s4)c(OC)c3)c2cc1OCCCN1CCN(C)CC1

>  <canonical_smi>  (198) 
COc1cc2ncnc(Nc3ccc(-c4nc5ccccc5s4)c(OC)c3)c2cc1OCCCN1CCN(C)CC1

>  <Set>  (198) 
G2 active

>  <Set_type>  (198) 
Train

>  <MW>  (198) 
570.72

>  <HBD>  (198) 
1

>  <HBA>  (198) 
9

>  <NRB>  (198) 
10

>  <NR>  (198) 
6

>  <NAR>  (198) 
5

>  <PSA>  (198) 
84.87

>  <Standard Type>  (198) 
nan

>  <Standard Relation>  (198) 
nan

>  <Standard Units>  (198) 
nan

>  <Standard Value>  (198) 
nan

>  <Assay ChEMBL ID>  (198) 
nan

>  <Assay Description>  (198) 
nan

>  <BAO Label>  (198) 
nan

$$$$

     RDKit          2D

 24 26  0  0  0  0  0  0  0  0999 V2000
    3.7500   -6.4952    0.0000 C   0  0  0  0  0  0  0  0  0  0  0  0
    3.0000   -5.1962    0.0000 C   0  0  0  0  0  0  0  0  0  0  0  0
    1.5000   -5.1962    0.0000 O   0  0  0  0  0  0  0  0  0  0  0  0
    0.7500   -3.8971    0.0000 C   0  0  0  0  0  0  0  0  0  0  0  0
    1.5000   -2.5981    0.0000 C   0  0  0  0  0  0  0  0  0  0  0  0
    0.7500   -1.2990    0.0000 C   0  0  0  0  0  0  0  0  0  0  0  0
    1.5000    0.0000    0.0000 N   0  0  0  0  0  0  0  0  0  0  0  0
    0.7500    1.2990    0.0000 C   0  0  0  0  0  0  0  0  0  0  0  0
   -0.7500    1.2990    0.0000 N   0  0  0  0  0  0  0  0  0  0  0  0
   -1.5000    0.0000    0.0000 C   0  0  0  0  0  0  0  0  0  0  0  0
   -3.0000    0.0000    0.0000 C   0  0  0  0  0  0  0  0  0  0  0  0
   -3.7500    1.2990    0.0000 C   0  0  0  0  0  0  0  0  0  0  0  0
   -5.2500    1.2990    0.0000 C   0  0  0  0  0  0  0  0  0  0  0  0
   -6.0000    2.5981    0.0000 C   0  0  0  0  0  0  0  0  0  0  0  0
   -7.5000    2.5981    0.0000 C   0  0  0  0  0  0  0  0  0  0  0  0
   -8.2500    1.2990    0.0000 C   0  0  0  0  0  0  0  0  0  0  0  0
   -7.5000    0.0000    0.0000 C   0  0  0  0  0  0  0  0  0  0  0  0
   -6.0000    0.0000    0.0000 C   0  0  0  0  0  0  0  0  0  0  0  0
   -0.7500   -1.2990    0.0000 C   0  0  0  0  0  0  0  0  0  0  0  0
   -1.5000   -2.5981    0.0000 C   0  0  0  0  0  0  0  0  0  0  0  0
   -0.7500   -3.8971    0.0000 C   0  0  0  0  0  0  0  0  0  0  0  0
   -1.5000   -5.1962    0.0000 O   0  0  0  0  0  0  0  0  0  0  0  0
   -3.0000   -5.1962    0.0000 C   0  0  0  0  0  0  0  0  0  0  0  0
   -3.7500   -6.4952    0.0000 C   0  0  0  0  0  0  0  0  0  0  0  0
  1  2  1  0
  2  3  1  0
  3  4  1  0
  4  5  2  0
  5  6  1  0
  6  7  2  0
  7  8  1  0
  8  9  2  0
  9 10  1  0
 10 11  1  0
 11 12  2  0
 12 13  1  0
 13 14  2  0
 14 15  1  0
 15 16  2  0
 16 17  1  0
 17 18  2  0
 10 19  2  0
 19 20  1  0
 20 21  2  0
 21 22  1  0
 22 23  1  0
 23 24  1  0
 21  4  1  0
 19  6  1  0
 18 13  1  0
M  END
>  <Compound_ID>  (199) 
CHEMBL250925

>  <Active>  (199) 
1.0

>  <Smiles>  (199) 
CCOc1cc2ncnc(/C=C/c3ccccc3)c2cc1OCC

>  <canonical_smi>  (199) 
CCOc1cc2ncnc(/C=C/c3ccccc3)c2cc1OCC

>  <Set>  (199) 
G2 active

>  <Set_type>  (199) 
Train

>  <MW>  (199) 
320.39

>  <HBD>  (199) 
0

>  <HBA>  (199) 
4

>  <NRB>  (199) 
6

>  <NR>  (199) 
3

>  <NAR>  (199) 
3

>  <PSA>  (199) 
44.24

>  <Standard Type>  (199) 
nan

>  <Standard Relation>  (199) 
nan

>  <Standard Units>  (199) 
nan

>  <Standard Value>  (199) 
nan

>  <Assay ChEMBL ID>  (199) 
nan

>  <Assay Description>  (199) 
nan

>  <BAO Label>  (199) 
nan

$$$$

     RDKit          2D

 24 26  0  0  0  0  0  0  0  0999 V2000
    3.0000   -5.1962    0.0000 C   0  0  0  0  0  0  0  0  0  0  0  0
    1.5000   -5.1962    0.0000 O   0  0  0  0  0  0  0  0  0  0  0  0
    0.7500   -3.8971    0.0000 C   0  0  0  0  0  0  0  0  0  0  0  0
    1.5000   -2.5981    0.0000 C   0  0  0  0  0  0  0  0  0  0  0  0
    0.7500   -1.2990    0.0000 C   0  0  0  0  0  0  0  0  0  0  0  0
    1.5000    0.0000    0.0000 N   0  0  0  0  0  0  0  0  0  0  0  0
    0.7500    1.2990    0.0000 C   0  0  0  0  0  0  0  0  0  0  0  0
   -0.7500    1.2990    0.0000 N   0  0  0  0  0  0  0  0  0  0  0  0
   -1.5000    0.0000    0.0000 C   0  0  0  0  0  0  0  0  0  0  0  0
   -3.0000    0.0000    0.0000 C   0  0  0  0  0  0  0  0  0  0  0  0
   -4.5000    0.0000    0.0000 C   0  0  0  0  0  0  0  0  0  0  0  0
   -6.0000    0.0000    0.0000 C   0  0  0  0  0  0  0  0  0  0  0  0
   -6.7500    1.2990    0.0000 O   0  0  0  0  0  0  0  0  0  0  0  0
   -8.2500    1.2990    0.0000 C   0  0  0  0  0  0  0  0  0  0  0  0
   -9.0000    2.5981    0.0000 C   0  0  0  0  0  0  0  0  0  0  0  0
  -10.5000    2.5981    0.0000 C   0  0  0  0  0  0  0  0  0  0  0  0
  -11.2500    1.2990    0.0000 C   0  0  0  0  0  0  0  0  0  0  0  0
  -10.5000    0.0000    0.0000 C   0  0  0  0  0  0  0  0  0  0  0  0
   -9.0000    0.0000    0.0000 C   0  0  0  0  0  0  0  0  0  0  0  0
   -0.7500   -1.2990    0.0000 C   0  0  0  0  0  0  0  0  0  0  0  0
   -1.5000   -2.5981    0.0000 C   0  0  0  0  0  0  0  0  0  0  0  0
   -0.7500   -3.8971    0.0000 C   0  0  0  0  0  0  0  0  0  0  0  0
   -1.5000   -5.1962    0.0000 O   0  0  0  0  0  0  0  0  0  0  0  0
   -3.0000   -5.1962    0.0000 C   0  0  0  0  0  0  0  0  0  0  0  0
  1  2  1  0
  2  3  1  0
  3  4  2  0
  4  5  1  0
  5  6  2  0
  6  7  1  0
  7  8  2  0
  8  9  1  0
  9 10  1  0
 10 11  3  0
 11 12  1  0
 12 13  1  0
 13 14  1  0
 14 15  2  0
 15 16  1  0
 16 17  2  0
 17 18  1  0
 18 19  2  0
  9 20  2  0
 20 21  1  0
 21 22  2  0
 22 23  1  0
 23 24  1  0
 22  3  1  0
 20  5  1  0
 19 14  1  0
M  END
>  <Compound_ID>  (200) 
CHEMBL250523

>  <Active>  (200) 
1.0

>  <Smiles>  (200) 
COc1cc2ncnc(C#CCOc3ccccc3)c2cc1OC

>  <canonical_smi>  (200) 
COc1cc2ncnc(C#CCOc3ccccc3)c2cc1OC

>  <Set>  (200) 
G2 active

>  <Set_type>  (200) 
Train

>  <MW>  (200) 
320.35

>  <HBD>  (200) 
0

>  <HBA>  (200) 
5

>  <NRB>  (200) 
4

>  <NR>  (200) 
3

>  <NAR>  (200) 
3

>  <PSA>  (200) 
53.47

>  <Standard Type>  (200) 
nan

>  <Standard Relation>  (200) 
nan

>  <Standard Units>  (200) 
nan

>  <Standard Value>  (200) 
nan

>  <Assay ChEMBL ID>  (200) 
nan

>  <Assay Description>  (200) 
nan

>  <BAO Label>  (200) 
nan

$$$$

     RDKit          2D

 28 31  0  0  0  0  0  0  0  0999 V2000
   -1.9635   -4.0247    0.0000 C   0  0  0  0  0  0  0  0  0  0  0  0
   -1.2135   -2.7256    0.0000 C   0  0  0  0  0  0  0  0  0  0  0  0
   -2.5838   -2.1155    0.0000 C   0  0  0  0  0  0  0  0  0  0  0  0
   -0.0000   -3.6073    0.0000 C   0  0  0  0  0  0  0  0  0  0  0  0
    1.2135   -2.7256    0.0000 N   0  0  0  0  0  0  0  0  0  0  0  0
    0.7500   -1.2990    0.0000 C   0  0  0  0  0  0  0  0  0  0  0  0
    1.5000    0.0000    0.0000 C   0  0  0  0  0  0  0  0  0  0  0  0
    0.7500    1.2990    0.0000 C   0  0  0  0  0  0  0  0  0  0  0  0
    1.5000    2.5981    0.0000 N   0  0  0  0  0  0  0  0  0  0  0  0
    3.0000    2.5981    0.0000 C   0  0  0  0  0  0  0  0  0  0  0  0
    3.7500    1.2990    0.0000 O   0  0  0  0  0  0  0  0  0  0  0  0
    3.7500    3.8971    0.0000 C   0  0  0  0  0  0  0  0  0  0  0  0
    5.2500    3.8971    0.0000 C   0  0  0  0  0  0  0  0  0  0  0  0
    6.0000    5.1962    0.0000 C   0  0  0  0  0  0  0  0  0  0  0  0
    5.2500    6.4952    0.0000 C   0  0  0  0  0  0  0  0  0  0  0  0
    3.7500    6.4952    0.0000 N   0  0  0  0  0  0  0  0  0  0  0  0
    3.0000    5.1962    0.0000 C   0  0  0  0  0  0  0  0  0  0  0  0
    1.5000    5.1962    0.0000 N   0  0  0  0  0  0  0  0  0  0  0  0
    0.7500    6.4952    0.0000 C   0  0  0  0  0  0  0  0  0  0  0  0
   -0.7500    6.4952    0.0000 C   0  0  0  0  0  0  0  0  0  0  0  0
   -1.5000    7.7942    0.0000 C   0  0  0  0  0  0  0  0  0  0  0  0
   -3.0000    7.7942    0.0000 C   0  0  0  0  0  0  0  0  0  0  0  0
   -3.7500    6.4952    0.0000 N   0  0  0  0  0  0  0  0  0  0  0  0
   -3.0000    5.1962    0.0000 C   0  0  0  0  0  0  0  0  0  0  0  0
   -1.5000    5.1962    0.0000 C   0  0  0  0  0  0  0  0  0  0  0  0
   -0.7500    1.2990    0.0000 C   0  0  0  0  0  0  0  0  0  0  0  0
   -1.5000    0.0000    0.0000 C   0  0  0  0  0  0  0  0  0  0  0  0
   -0.7500   -1.2990    0.0000 C   0  0  0  0  0  0  0  0  0  0  0  0
  1  2  1  0
  2  3  1  0
  2  4  1  0
  4  5  1  0
  5  6  1  0
  6  7  2  0
  7  8  1  0
  8  9  1  0
  9 10  1  0
 10 11  2  0
 10 12  1  0
 12 13  2  0
 13 14  1  0
 14 15  2  0
 15 16  1  0
 16 17  2  0
 17 18  1  0
 18 19  1  0
 19 20  1  0
 20 21  2  0
 21 22  1  0
 22 23  2  0
 23 24  1  0
 24 25  2  0
  8 26  2  0
 26 27  1  0
 27 28  2  0
 28  2  1  0
 28  6  1  0
 17 12  1  0
 25 20  1  0
M  END
>  <Compound_ID>  (201) 
CHEMBL572881

>  <Active>  (201) 
1.0

>  <Smiles>  (201) 
CC1(C)CNc2cc(NC(=O)c3cccnc3NCc3ccncc3)ccc21

>  <canonical_smi>  (201) 
CC1(C)CNc2cc(NC(=O)c3cccnc3NCc3ccncc3)ccc21

>  <Set>  (201) 
G2 active

>  <Set_type>  (201) 
Train

>  <MW>  (201) 
373.46

>  <HBD>  (201) 
3

>  <HBA>  (201) 
5

>  <NRB>  (201) 
5

>  <NR>  (201) 
4

>  <NAR>  (201) 
3

>  <PSA>  (201) 
78.94

>  <Standard Type>  (201) 
nan

>  <Standard Relation>  (201) 
nan

>  <Standard Units>  (201) 
nan

>  <Standard Value>  (201) 
nan

>  <Assay ChEMBL ID>  (201) 
nan

>  <Assay Description>  (201) 
nan

>  <BAO Label>  (201) 
nan

$$$$

     RDKit          2D

 35 39  0  0  0  0  0  0  0  0999 V2000
    6.0000   -5.1962    0.0000 Cl  0  0  0  0  0  0  0  0  0  0  0  0
    5.2500   -3.8971    0.0000 C   0  0  0  0  0  0  0  0  0  0  0  0
    3.7500   -3.8971    0.0000 C   0  0  0  0  0  0  0  0  0  0  0  0
    3.0000   -2.5981    0.0000 C   0  0  0  0  0  0  0  0  0  0  0  0
    1.5000   -2.5981    0.0000 N   0  0  0  0  0  0  0  0  0  0  0  0
    0.7500   -1.2990    0.0000 C   0  0  0  0  0  0  0  0  0  0  0  0
    1.5000    0.0000    0.0000 N   0  0  0  0  0  0  0  0  0  0  0  0
    0.7500    1.2990    0.0000 C   0  0  0  0  0  0  0  0  0  0  0  0
   -0.7500    1.2990    0.0000 N   0  0  0  0  0  0  0  0  0  0  0  0
   -1.5000    0.0000    0.0000 C   0  0  0  0  0  0  0  0  0  0  0  0
   -2.9672   -0.3119    0.0000 N   0  0  0  0  0  0  0  0  0  0  0  0
   -3.1240   -1.8037    0.0000 N   0  0  0  0  0  0  0  0  0  0  0  0
   -1.7537   -2.4138    0.0000 C   0  0  0  0  0  0  0  0  0  0  0  0
   -1.4418   -3.8810    0.0000 O   0  0  0  0  0  0  0  0  0  0  0  0
   -2.5565   -4.8847    0.0000 C   0  0  0  0  0  0  0  0  0  0  0  0
   -2.2447   -6.3519    0.0000 C   0  0  0  0  0  0  0  0  0  0  0  0
   -3.3594   -7.3556    0.0000 C   0  0  0  0  0  0  0  0  0  0  0  0
   -3.0475   -8.8228    0.0000 N   0  0  0  0  0  0  0  0  0  0  0  0
   -4.1622   -9.8265    0.0000 C   0  0  0  0  0  0  0  0  0  0  0  0
   -3.8504  -11.2937    0.0000 C   0  0  0  0  0  0  0  0  0  0  0  0
   -2.4238  -11.7573    0.0000 O   0  0  0  0  0  0  0  0  0  0  0  0
   -1.3091  -10.7536    0.0000 C   0  0  0  0  0  0  0  0  0  0  0  0
   -1.6209   -9.2863    0.0000 C   0  0  0  0  0  0  0  0  0  0  0  0
   -0.7500   -1.2990    0.0000 C   0  0  0  0  0  0  0  0  0  0  0  0
    3.7500   -1.2990    0.0000 C   0  0  0  0  0  0  0  0  0  0  0  0
    5.2500   -1.2990    0.0000 C   0  0  0  0  0  0  0  0  0  0  0  0
    6.0000   -2.5981    0.0000 C   0  0  0  0  0  0  0  0  0  0  0  0
    7.5000   -2.5981    0.0000 O   0  0  0  0  0  0  0  0  0  0  0  0
    8.2500   -1.2990    0.0000 C   0  0  0  0  0  0  0  0  0  0  0  0
    9.7500   -1.2990    0.0000 C   0  0  0  0  0  0  0  0  0  0  0  0
   10.5000   -2.5981    0.0000 C   0  0  0  0  0  0  0  0  0  0  0  0
   12.0000   -2.5981    0.0000 C   0  0  0  0  0  0  0  0  0  0  0  0
   12.7500   -1.2990    0.0000 C   0  0  0  0  0  0  0  0  0  0  0  0
   12.0000   -0.0000    0.0000 C   0  0  0  0  0  0  0  0  0  0  0  0
   10.5000   -0.0000    0.0000 N   0  0  0  0  0  0  0  0  0  0  0  0
  1  2  1  0
  2  3  2  0
  3  4  1  0
  4  5  1  0
  5  6  1  0
  6  7  2  0
  7  8  1  0
  8  9  2  0
  9 10  1  0
 10 11  1  0
 11 12  1  0
 12 13  2  0
 13 14  1  0
 14 15  1  0
 15 16  1  0
 16 17  1  0
 17 18  1  0
 18 19  1  0
 19 20  1  0
 20 21  1  0
 21 22  1  0
 22 23  1  0
 13 24  1  0
  4 25  2  0
 25 26  1  0
 26 27  2  0
 27 28  1  0
 28 29  1  0
 29 30  1  0
 30 31  2  0
 31 32  1  0
 32 33  2  0
 33 34  1  0
 34 35  2  0
 27  2  1  0
 35 30  1  0
 24  6  1  0
 24 10  2  0
 23 18  1  0
M  END
>  <Compound_ID>  (202) 
CHEMBL257859

>  <Active>  (202) 
1.0

>  <Smiles>  (202) 
Clc1cc(Nc2ncnc3[nH]nc(OCCCN4CCOCC4)c23)ccc1OCc1ccccn1

>  <canonical_smi>  (202) 
Clc1cc(Nc2ncnc3[nH]nc(OCCCN4CCOCC4)c23)ccc1OCc1ccccn1

>  <Set>  (202) 
G2 active

>  <Set_type>  (202) 
Train

>  <MW>  (202) 
495.97

>  <HBD>  (202) 
2

>  <HBA>  (202) 
9

>  <NRB>  (202) 
10

>  <NR>  (202) 
5

>  <NAR>  (202) 
4

>  <PSA>  (202) 
110.31

>  <Standard Type>  (202) 
nan

>  <Standard Relation>  (202) 
nan

>  <Standard Units>  (202) 
nan

>  <Standard Value>  (202) 
nan

>  <Assay ChEMBL ID>  (202) 
nan

>  <Assay Description>  (202) 
nan

>  <BAO Label>  (202) 
nan

$$$$

     RDKit          2D

 36 43  0  0  0  0  0  0  0  0999 V2000
    7.0384   -5.9220    0.0000 C   0  0  0  0  0  0  0  0  0  0  0  0
    6.3474   -4.5907    0.0000 N   0  0  0  0  0  0  0  0  0  0  0  0
    4.8489   -4.5234    0.0000 C   0  0  0  0  0  0  0  0  0  0  0  0
    4.0414   -5.7874    0.0000 C   0  0  0  0  0  0  0  0  0  0  0  0
    2.5382   -5.8249    0.0000 C   0  0  0  0  0  0  0  0  0  0  0  0
    3.2490   -4.5040    0.0000 O   0  0  0  0  0  0  0  0  0  0  0  0
    2.6595   -3.1247    0.0000 C   0  0  0  0  0  0  0  0  0  0  0  0
    3.6464   -1.9951    0.0000 C   0  0  0  0  0  0  0  0  0  0  0  0
    4.1580   -3.1920    0.0000 C   0  0  0  0  0  0  0  0  0  0  0  0
    4.9655   -1.9279    0.0000 O   0  0  0  0  0  0  0  0  0  0  0  0
    6.4640   -1.9952    0.0000 C   0  0  0  0  0  0  0  0  0  0  0  0
    1.2135   -2.7256    0.0000 N   0  0  0  0  0  0  0  0  0  0  0  0
    0.7500   -1.2990    0.0000 C   0  0  0  0  0  0  0  0  0  0  0  0
    1.5000    0.0000    0.0000 C   0  0  0  0  0  0  0  0  0  0  0  0
    0.7500    1.2990    0.0000 C   0  0  0  0  0  0  0  0  0  0  0  0
   -0.7500    1.2990    0.0000 C   0  0  0  0  0  0  0  0  0  0  0  0
   -1.5000    0.0000    0.0000 C   0  0  0  0  0  0  0  0  0  0  0  0
   -0.7500   -1.2990    0.0000 C   0  0  0  0  0  0  0  0  0  0  0  0
   -1.2135   -2.7256    0.0000 C   0  0  0  0  0  0  0  0  0  0  0  0
   -2.5518   -3.5691    0.0000 C   0  0  0  0  0  0  0  0  0  0  0  0
   -2.6191   -5.0676    0.0000 C   0  0  0  0  0  0  0  0  0  0  0  0
   -1.3550   -5.8751    0.0000 C   0  0  0  0  0  0  0  0  0  0  0  0
   -1.0212   -7.3375    0.0000 C   0  0  0  0  0  0  0  0  0  0  0  0
   -1.8846   -8.5641    0.0000 C   0  0  0  0  0  0  0  0  0  0  0  0
   -1.2541   -9.9251    0.0000 C   0  0  0  0  0  0  0  0  0  0  0  0
    0.2399  -10.0596    0.0000 C   0  0  0  0  0  0  0  0  0  0  0  0
    1.1033   -8.8330    0.0000 C   0  0  0  0  0  0  0  0  0  0  0  0
    0.4728   -7.4720    0.0000 C   0  0  0  0  0  0  0  0  0  0  0  0
    1.0623   -6.0927    0.0000 N   0  0  0  0  0  0  0  0  0  0  0  0
   -0.0673   -5.1058    0.0000 C   0  0  0  0  0  0  0  0  0  0  0  0
   -0.0000   -3.6073    0.0000 C   0  0  0  0  0  0  0  0  0  0  0  0
   -4.0650   -5.4667    0.0000 C   0  0  0  0  0  0  0  0  0  0  0  0
   -4.5921   -6.8710    0.0000 O   0  0  0  0  0  0  0  0  0  0  0  0
   -4.8913   -4.2148    0.0000 N   0  0  0  0  0  0  0  0  0  0  0  0
   -3.9561   -3.0421    0.0000 C   0  0  0  0  0  0  0  0  0  0  0  0
   -4.3552   -1.5961    0.0000 O   0  0  0  0  0  0  0  0  0  0  0  0
  1  2  1  0
  3  2  1  1
  3  4  1  0
  5  4  1  1
  5  6  1  0
  6  7  1  0
  7  8  1  6
  7  9  1  0
  9 10  1  1
 10 11  1  0
  7 12  1  0
 12 13  1  0
 13 14  2  0
 14 15  1  0
 15 16  2  0
 16 17  1  0
 17 18  2  0
 18 19  1  0
 19 20  2  0
 20 21  1  0
 21 22  2  0
 22 23  1  0
 23 24  2  0
 24 25  1  0
 25 26  2  0
 26 27  1  0
 27 28  2  0
 28 29  1  0
 29 30  1  0
 30 31  2  0
 21 32  1  0
 32 33  2  0
 32 34  1  0
 34 35  1  0
 35 36  1  6
  9  3  1  0
 31 12  1  0
 29  5  1  0
 18 13  1  0
 31 19  1  0
 35 20  1  0
 30 22  1  0
 28 23  1  0
M  END
>  <Compound_ID>  (203) 
CHEMBL338049

>  <Active>  (203) 
1.0

>  <Smiles>  (203) 
CN[C@H]1C[C@@H]2O[C@](C)([C@H]1OC)n1c3ccccc3c3c4c(c5c6ccccc6n2c5c31)C(=O)N[C@@H]4O

>  <canonical_smi>  (203) 
CN[C@H]1C[C@@H]2O[C@](C)([C@H]1OC)n1c3ccccc3c3c4c(c5c6ccccc6n2c5c31)C(=O)N[C@@H]4O

>  <Set>  (203) 
G2 active

>  <Set_type>  (203) 
Train

>  <MW>  (203) 
482.54

>  <HBD>  (203) 
3

>  <HBA>  (203) 
5

>  <NRB>  (203) 
2

>  <NR>  (203) 
8

>  <NAR>  (203) 
5

>  <PSA>  (203) 
89.68

>  <Standard Type>  (203) 
nan

>  <Standard Relation>  (203) 
nan

>  <Standard Units>  (203) 
nan

>  <Standard Value>  (203) 
nan

>  <Assay ChEMBL ID>  (203) 
nan

>  <Assay Description>  (203) 
nan

>  <BAO Label>  (203) 
nan

$$$$

     RDKit          2D

 31 34  0  0  0  0  0  0  0  0999 V2000
    3.0000    0.0000    0.0000 F   0  0  0  0  0  0  0  0  0  0  0  0
    1.5000    0.0000    0.0000 C   0  0  0  0  0  0  0  0  0  0  0  0
    0.7500   -1.2990    0.0000 C   0  0  0  0  0  0  0  0  0  0  0  0
   -0.7500   -1.2990    0.0000 C   0  0  0  0  0  0  0  0  0  0  0  0
   -1.5000    0.0000    0.0000 C   0  0  0  0  0  0  0  0  0  0  0  0
   -0.7500    1.2990    0.0000 C   0  0  0  0  0  0  0  0  0  0  0  0
   -1.5000    2.5981    0.0000 C   0  0  0  0  0  0  0  0  0  0  0  0
   -0.7500    3.8971    0.0000 O   0  0  0  0  0  0  0  0  0  0  0  0
   -1.5000    5.1962    0.0000 C   0  0  0  0  0  0  0  0  0  0  0  0
   -0.7500    6.4952    0.0000 C   0  0  0  0  0  0  0  0  0  0  0  0
   -1.5000    7.7942    0.0000 C   0  0  0  0  0  0  0  0  0  0  0  0
   -3.0000    7.7942    0.0000 C   0  0  0  0  0  0  0  0  0  0  0  0
   -3.7500    9.0933    0.0000 N   0  0  0  0  0  0  0  0  0  0  0  0
   -3.0000   10.3923    0.0000 C   0  0  0  0  0  0  0  0  0  0  0  0
   -1.5000   10.3923    0.0000 N   0  0  0  0  0  0  0  0  0  0  0  0
   -0.7500   11.6913    0.0000 C   0  0  0  0  0  0  0  0  0  0  0  0
   -1.5000   12.9904    0.0000 N   0  0  0  0  0  0  0  0  0  0  0  0
   -3.0000   12.9904    0.0000 C   0  0  0  0  0  0  0  0  0  0  0  0
   -3.7500   11.6913    0.0000 C   0  0  0  0  0  0  0  0  0  0  0  0
   -5.2500   11.6913    0.0000 C   0  0  0  0  0  0  0  0  0  0  0  0
   -6.7500   11.6913    0.0000 C   0  0  0  0  0  0  0  0  0  0  0  0
   -8.2500   11.6913    0.0000 C   0  0  0  0  0  0  0  0  0  0  0  0
   -9.0000   12.9904    0.0000 C   0  0  0  0  0  0  0  0  0  0  0  0
  -10.5000   12.9904    0.0000 C   0  0  0  0  0  0  0  0  0  0  0  0
  -11.2500   11.6913    0.0000 C   0  0  0  0  0  0  0  0  0  0  0  0
  -10.5000   10.3923    0.0000 C   0  0  0  0  0  0  0  0  0  0  0  0
   -9.0000   10.3923    0.0000 N   0  0  0  0  0  0  0  0  0  0  0  0
   -3.7500    6.4952    0.0000 C   0  0  0  0  0  0  0  0  0  0  0  0
   -3.0000    5.1962    0.0000 C   0  0  0  0  0  0  0  0  0  0  0  0
   -3.7500    3.8971    0.0000 Cl  0  0  0  0  0  0  0  0  0  0  0  0
    0.7500    1.2990    0.0000 C   0  0  0  0  0  0  0  0  0  0  0  0
  1  2  1  0
  2  3  2  0
  3  4  1  0
  4  5  2  0
  5  6  1  0
  6  7  1  0
  7  8  1  0
  8  9  1  0
  9 10  2  0
 10 11  1  0
 11 12  2  0
 12 13  1  0
 13 14  1  0
 14 15  2  0
 15 16  1  0
 16 17  2  0
 17 18  1  0
 18 19  2  0
 19 20  1  0
 20 21  3  0
 21 22  1  0
 22 23  2  0
 23 24  1  0
 24 25  2  0
 25 26  1  0
 26 27  2  0
 12 28  1  0
 28 29  2  0
 29 30  1  0
  6 31  2  0
 31  2  1  0
 29  9  1  0
 19 14  1  0
 27 22  1  0
M  END
>  <Compound_ID>  (204) 
CHEMBL205045

>  <Active>  (204) 
1.0

>  <Smiles>  (204) 
Fc1cccc(COc2ccc(Nc3ncncc3C#Cc3ccccn3)cc2Cl)c1

>  <canonical_smi>  (204) 
Fc1cccc(COc2ccc(Nc3ncncc3C#Cc3ccccn3)cc2Cl)c1

>  <Set>  (204) 
G2 active

>  <Set_type>  (204) 
Train

>  <MW>  (204) 
430.87

>  <HBD>  (204) 
1

>  <HBA>  (204) 
5

>  <NRB>  (204) 
5

>  <NR>  (204) 
4

>  <NAR>  (204) 
4

>  <PSA>  (204) 
59.93

>  <Standard Type>  (204) 
nan

>  <Standard Relation>  (204) 
nan

>  <Standard Units>  (204) 
nan

>  <Standard Value>  (204) 
nan

>  <Assay ChEMBL ID>  (204) 
nan

>  <Assay Description>  (204) 
nan

>  <BAO Label>  (204) 
nan

$$$$

     RDKit          2D

 28 31  0  0  0  0  0  0  0  0999 V2000
    3.7500   -6.4952    0.0000 C   0  0  0  0  0  0  0  0  0  0  0  0
    3.0000   -5.1962    0.0000 C   0  0  0  0  0  0  0  0  0  0  0  0
    1.5000   -5.1962    0.0000 O   0  0  0  0  0  0  0  0  0  0  0  0
    0.7500   -3.8971    0.0000 C   0  0  0  0  0  0  0  0  0  0  0  0
    1.5000   -2.5981    0.0000 C   0  0  0  0  0  0  0  0  0  0  0  0
    0.7500   -1.2990    0.0000 C   0  0  0  0  0  0  0  0  0  0  0  0
    1.5000    0.0000    0.0000 N   0  0  0  0  0  0  0  0  0  0  0  0
    0.7500    1.2990    0.0000 C   0  0  0  0  0  0  0  0  0  0  0  0
   -0.7500    1.2990    0.0000 N   0  0  0  0  0  0  0  0  0  0  0  0
   -1.5000    0.0000    0.0000 C   0  0  0  0  0  0  0  0  0  0  0  0
   -3.0000    0.0000    0.0000 N   0  0  0  0  0  0  0  0  0  0  0  0
   -3.7500    1.2990    0.0000 C   0  0  0  0  0  0  0  0  0  0  0  0
   -3.0000    2.5981    0.0000 C   0  0  0  0  0  0  0  0  0  0  0  0
   -3.7500    3.8971    0.0000 C   0  0  0  0  0  0  0  0  0  0  0  0
   -5.2500    3.8971    0.0000 C   0  0  0  0  0  0  0  0  0  0  0  0
   -6.0000    2.5981    0.0000 C   0  0  0  0  0  0  0  0  0  0  0  0
   -7.5000    2.5981    0.0000 C   0  0  0  0  0  0  0  0  0  0  0  0
   -8.3817    1.3846    0.0000 C   0  0  0  0  0  0  0  0  0  0  0  0
   -9.8083    1.8481    0.0000 S   0  0  0  0  0  0  0  0  0  0  0  0
   -9.8083    3.3481    0.0000 C   0  0  0  0  0  0  0  0  0  0  0  0
   -8.3817    3.8116    0.0000 N   0  0  0  0  0  0  0  0  0  0  0  0
   -5.2500    1.2990    0.0000 C   0  0  0  0  0  0  0  0  0  0  0  0
   -0.7500   -1.2990    0.0000 C   0  0  0  0  0  0  0  0  0  0  0  0
   -1.5000   -2.5981    0.0000 C   0  0  0  0  0  0  0  0  0  0  0  0
   -0.7500   -3.8971    0.0000 C   0  0  0  0  0  0  0  0  0  0  0  0
   -1.5000   -5.1962    0.0000 O   0  0  0  0  0  0  0  0  0  0  0  0
   -3.0000   -5.1962    0.0000 C   0  0  0  0  0  0  0  0  0  0  0  0
   -3.7500   -6.4952    0.0000 C   0  0  0  0  0  0  0  0  0  0  0  0
  1  2  1  0
  2  3  1  0
  3  4  1  0
  4  5  2  0
  5  6  1  0
  6  7  2  0
  7  8  1  0
  8  9  2  0
  9 10  1  0
 10 11  1  0
 11 12  1  0
 12 13  2  0
 13 14  1  0
 14 15  2  0
 15 16  1  0
 16 17  1  0
 17 18  2  0
 18 19  1  0
 19 20  1  0
 20 21  2  0
 16 22  2  0
 10 23  2  0
 23 24  1  0
 24 25  2  0
 25 26  1  0
 26 27  1  0
 27 28  1  0
 25  4  1  0
 23  6  1  0
 22 12  1  0
 21 17  1  0
M  END
>  <Compound_ID>  (205) 
CHEMBL127223

>  <Active>  (205) 
1.0

>  <Smiles>  (205) 
CCOc1cc2ncnc(Nc3cccc(-c4cscn4)c3)c2cc1OCC

>  <canonical_smi>  (205) 
CCOc1cc2ncnc(Nc3cccc(-c4cscn4)c3)c2cc1OCC

>  <Set>  (205) 
G2 active

>  <Set_type>  (205) 
Train

>  <MW>  (205) 
392.48

>  <HBD>  (205) 
1

>  <HBA>  (205) 
6

>  <NRB>  (205) 
7

>  <NR>  (205) 
4

>  <NAR>  (205) 
4

>  <PSA>  (205) 
69.16

>  <Standard Type>  (205) 
nan

>  <Standard Relation>  (205) 
nan

>  <Standard Units>  (205) 
nan

>  <Standard Value>  (205) 
nan

>  <Assay ChEMBL ID>  (205) 
nan

>  <Assay Description>  (205) 
nan

>  <BAO Label>  (205) 
nan

$$$$

     RDKit          2D

 23 26  0  0  0  0  0  0  0  0999 V2000
    6.0000   -0.0000    0.0000 Cl  0  0  0  0  0  0  0  0  0  0  0  0
    5.2500   -1.2990    0.0000 C   0  0  0  0  0  0  0  0  0  0  0  0
    6.0000   -2.5981    0.0000 C   0  0  0  0  0  0  0  0  0  0  0  0
    5.2500   -3.8971    0.0000 C   0  0  0  0  0  0  0  0  0  0  0  0
    3.7500   -3.8971    0.0000 C   0  0  0  0  0  0  0  0  0  0  0  0
    3.0000   -2.5981    0.0000 C   0  0  0  0  0  0  0  0  0  0  0  0
    1.5000   -2.5981    0.0000 N   0  0  0  0  0  0  0  0  0  0  0  0
    0.7500   -1.2990    0.0000 C   0  0  0  0  0  0  0  0  0  0  0  0
    1.5000    0.0000    0.0000 N   0  0  0  0  0  0  0  0  0  0  0  0
    0.7500    1.2990    0.0000 C   0  0  0  0  0  0  0  0  0  0  0  0
   -0.7500    1.2990    0.0000 N   0  0  0  0  0  0  0  0  0  0  0  0
   -1.5000    0.0000    0.0000 C   0  0  0  0  0  0  0  0  0  0  0  0
   -2.9672   -0.3119    0.0000 N   0  0  0  0  0  0  0  0  0  0  0  0
   -3.1240   -1.8037    0.0000 N   0  0  0  0  0  0  0  0  0  0  0  0
   -1.7537   -2.4138    0.0000 C   0  0  0  0  0  0  0  0  0  0  0  0
   -1.4418   -3.8810    0.0000 C   0  0  0  0  0  0  0  0  0  0  0  0
   -2.5565   -4.8847    0.0000 C   0  0  0  0  0  0  0  0  0  0  0  0
   -2.2447   -6.3519    0.0000 C   0  0  0  0  0  0  0  0  0  0  0  0
   -0.8181   -6.8154    0.0000 C   0  0  0  0  0  0  0  0  0  0  0  0
    0.2966   -5.8117    0.0000 C   0  0  0  0  0  0  0  0  0  0  0  0
   -0.0152   -4.3445    0.0000 C   0  0  0  0  0  0  0  0  0  0  0  0
   -0.7500   -1.2990    0.0000 C   0  0  0  0  0  0  0  0  0  0  0  0
    3.7500   -1.2990    0.0000 C   0  0  0  0  0  0  0  0  0  0  0  0
  1  2  1  0
  2  3  2  0
  3  4  1  0
  4  5  2  0
  5  6  1  0
  6  7  1  0
  7  8  1  0
  8  9  1  0
  9 10  1  0
 10 11  2  0
 11 12  1  0
 12 13  2  0
 13 14  1  0
 14 15  2  0
 15 16  1  0
 16 17  2  0
 17 18  1  0
 18 19  2  0
 19 20  1  0
 20 21  2  0
 15 22  1  0
  6 23  2  0
 23  2  1  0
 22  8  2  0
 22 12  1  0
 21 16  1  0
M  END
>  <Compound_ID>  (206) 
CHEMBL119977

>  <Active>  (206) 
1.0

>  <Smiles>  (206) 
Clc1cccc(Nc2[nH]cnc3nnc(-c4ccccc4)c2-3)c1

>  <canonical_smi>  (206) 
Clc1cccc(Nc2[nH]cnc3nnc(-c4ccccc4)c2-3)c1

>  <Set>  (206) 
G2 active

>  <Set_type>  (206) 
Train

>  <MW>  (206) 
321.77

>  <HBD>  (206) 
2

>  <HBA>  (206) 
4

>  <NRB>  (206) 
3

>  <NR>  (206) 
4

>  <NAR>  (206) 
4

>  <PSA>  (206) 
66.49

>  <Standard Type>  (206) 
nan

>  <Standard Relation>  (206) 
nan

>  <Standard Units>  (206) 
nan

>  <Standard Value>  (206) 
nan

>  <Assay ChEMBL ID>  (206) 
nan

>  <Assay Description>  (206) 
nan

>  <BAO Label>  (206) 
nan

$$$$

     RDKit          2D

 40 45  0  0  0  0  0  0  0  0999 V2000
   -2.5565   -4.8847    0.0000 C   0  0  0  0  0  0  0  0  0  0  0  0
   -1.4418   -3.8810    0.0000 C   0  0  0  0  0  0  0  0  0  0  0  0
   -1.7537   -2.4138    0.0000 C   0  0  0  0  0  0  0  0  0  0  0  0
   -0.7500   -1.2990    0.0000 C   0  0  0  0  0  0  0  0  0  0  0  0
    0.7500   -1.2990    0.0000 C   0  0  0  0  0  0  0  0  0  0  0  0
    1.5000   -2.5981    0.0000 N   0  0  0  0  0  0  0  0  0  0  0  0
    3.0000   -2.5981    0.0000 C   0  0  0  0  0  0  0  0  0  0  0  0
    3.7500   -1.2990    0.0000 C   0  0  0  0  0  0  0  0  0  0  0  0
    5.2500   -1.2990    0.0000 C   0  0  0  0  0  0  0  0  0  0  0  0
    6.0000   -2.5981    0.0000 C   0  0  0  0  0  0  0  0  0  0  0  0
    5.2500   -3.8971    0.0000 C   0  0  0  0  0  0  0  0  0  0  0  0
    6.2537   -5.0118    0.0000 C   0  0  0  0  0  0  0  0  0  0  0  0
    7.6240   -4.4017    0.0000 N   0  0  0  0  0  0  0  0  0  0  0  0
    7.4672   -2.9099    0.0000 N   0  0  0  0  0  0  0  0  0  0  0  0
    8.5819   -1.9062    0.0000 C   0  0  0  0  0  0  0  0  0  0  0  0
   10.0085   -2.3698    0.0000 C   0  0  0  0  0  0  0  0  0  0  0  0
   10.3204   -3.8370    0.0000 C   0  0  0  0  0  0  0  0  0  0  0  0
   11.7470   -4.3005    0.0000 C   0  0  0  0  0  0  0  0  0  0  0  0
   12.8617   -3.2968    0.0000 C   0  0  0  0  0  0  0  0  0  0  0  0
   12.5498   -1.8296    0.0000 C   0  0  0  0  0  0  0  0  0  0  0  0
   11.1232   -1.3661    0.0000 C   0  0  0  0  0  0  0  0  0  0  0  0
    3.7500   -3.8971    0.0000 C   0  0  0  0  0  0  0  0  0  0  0  0
    1.5000    0.0000    0.0000 N   0  0  0  0  0  0  0  0  0  0  0  0
    0.7500    1.2990    0.0000 C   0  0  0  0  0  0  0  0  0  0  0  0
   -0.7500    1.2990    0.0000 N   0  0  0  0  0  0  0  0  0  0  0  0
   -1.5000    0.0000    0.0000 C   0  0  0  0  0  0  0  0  0  0  0  0
   -2.9672   -0.3119    0.0000 N   0  0  0  0  0  0  0  0  0  0  0  0
   -3.1240   -1.8037    0.0000 C   0  0  0  0  0  0  0  0  0  0  0  0
   -4.4231   -2.5537    0.0000 N   0  0  0  0  0  0  0  0  0  0  0  0
   -5.7221   -1.8037    0.0000 C   0  0  0  0  0  0  0  0  0  0  0  0
   -5.7221   -0.3037    0.0000 O   0  0  0  0  0  0  0  0  0  0  0  0
   -7.0211   -2.5537    0.0000 O   0  0  0  0  0  0  0  0  0  0  0  0
   -8.3202   -1.8037    0.0000 C   0  0  0  0  0  0  0  0  0  0  0  0
   -8.3202   -0.3037    0.0000 C   0  0  0  0  0  0  0  0  0  0  0  0
   -9.6192    0.4463    0.0000 C   0  0  0  0  0  0  0  0  0  0  0  0
  -10.9182   -0.3037    0.0000 C   0  0  0  0  0  0  0  0  0  0  0  0
  -12.3955   -0.5641    0.0000 C   0  0  0  0  0  0  0  0  0  0  0  0
  -11.4313    1.1059    0.0000 N   0  0  0  0  0  0  0  0  0  0  0  0
  -10.9182   -1.8037    0.0000 C   0  0  0  0  0  0  0  0  0  0  0  0
   -9.6192   -2.5537    0.0000 C   0  0  0  0  0  0  0  0  0  0  0  0
  1  2  1  0
  2  3  1  0
  3  4  2  0
  4  5  1  0
  5  6  1  0
  6  7  1  0
  7  8  2  0
  8  9  1  0
  9 10  2  0
 10 11  1  0
 11 12  1  0
 12 13  2  0
 13 14  1  0
 14 15  1  0
 15 16  1  0
 16 17  2  0
 17 18  1  0
 18 19  2  0
 19 20  1  0
 20 21  2  0
 11 22  2  0
  5 23  2  0
 23 24  1  0
 24 25  2  0
 25 26  1  0
 26 27  1  0
 27 28  2  0
 28 29  1  0
 29 30  1  0
 30 31  2  0
 30 32  1  0
 32 33  1  0
 33 34  1  0
 34 35  1  0
 35 36  1  0
 36 37  1  0
 36 38  1  0
 36 39  1  0
 39 40  1  0
 28  3  1  0
 40 33  1  0
 26  4  1  0
 22  7  1  0
 14 10  1  0
 21 16  1  0
M  END
>  <Compound_ID>  (207) 
CHEMBL567197

>  <Active>  (207) 
1.0

>  <Smiles>  (207) 
CCC1=C2C(Nc3ccc4c(cnn4Cc4ccccc4)c3)=NC=NC2N=C1NC(=O)OC1CCC(C)(N)CC1

>  <canonical_smi>  (207) 
CCC1=C2C(Nc3ccc4c(cnn4Cc4ccccc4)c3)=NC=NC2N=C1NC(=O)OC1CCC(C)(N)CC1

>  <Set>  (207) 
G2 active

>  <Set_type>  (207) 
Train

>  <MW>  (207) 
538.66

>  <HBD>  (207) 
3

>  <HBA>  (207) 
5

>  <NRB>  (207) 
5

>  <NR>  (207) 
6

>  <NAR>  (207) 
3

>  <PSA>  (207) 
131.28

>  <Standard Type>  (207) 
nan

>  <Standard Relation>  (207) 
nan

>  <Standard Units>  (207) 
nan

>  <Standard Value>  (207) 
nan

>  <Assay ChEMBL ID>  (207) 
nan

>  <Assay Description>  (207) 
nan

>  <BAO Label>  (207) 
nan

$$$$

     RDKit          2D

 31 35  0  0  0  0  0  0  0  0999 V2000
   -2.9520   -4.6564    0.0000 C   0  0  0  0  0  0  0  0  0  0  0  0
   -2.6401   -3.1891    0.0000 C   0  0  0  0  0  0  0  0  0  0  0  0
   -1.2135   -2.7256    0.0000 C   0  0  0  0  0  0  0  0  0  0  0  0
   -0.0000   -3.6073    0.0000 C   0  0  0  0  0  0  0  0  0  0  0  0
   -0.0000   -5.1073    0.0000 C   0  0  0  0  0  0  0  0  0  0  0  0
   -1.2990   -5.8573    0.0000 O   0  0  0  0  0  0  0  0  0  0  0  0
    1.2990   -5.8573    0.0000 O   0  0  0  0  0  0  0  0  0  0  0  0
    1.2135   -2.7256    0.0000 C   0  0  0  0  0  0  0  0  0  0  0  0
    0.7500   -1.2990    0.0000 N   0  0  0  0  0  0  0  0  0  0  0  0
    1.5000    0.0000    0.0000 N   0  0  0  0  0  0  0  0  0  0  0  0
    0.7500    1.2990    0.0000 C   0  0  0  0  0  0  0  0  0  0  0  0
   -0.7500    1.2990    0.0000 N   0  0  0  0  0  0  0  0  0  0  0  0
   -1.5000    0.0000    0.0000 C   0  0  0  0  0  0  0  0  0  0  0  0
   -3.0000    0.0000    0.0000 N   0  0  0  0  0  0  0  0  0  0  0  0
   -3.7500    1.2990    0.0000 C   0  0  0  0  0  0  0  0  0  0  0  0
   -3.0000    2.5981    0.0000 C   0  0  0  0  0  0  0  0  0  0  0  0
   -3.7500    3.8971    0.0000 C   0  0  0  0  0  0  0  0  0  0  0  0
   -5.2500    3.8971    0.0000 C   0  0  0  0  0  0  0  0  0  0  0  0
   -6.0000    2.5981    0.0000 C   0  0  0  0  0  0  0  0  0  0  0  0
   -7.4672    2.9099    0.0000 C   0  0  0  0  0  0  0  0  0  0  0  0
   -7.6240    4.4017    0.0000 N   0  0  0  0  0  0  0  0  0  0  0  0
   -6.2537    5.0118    0.0000 N   0  0  0  0  0  0  0  0  0  0  0  0
   -5.9418    6.4791    0.0000 C   0  0  0  0  0  0  0  0  0  0  0  0
   -7.0565    7.4827    0.0000 C   0  0  0  0  0  0  0  0  0  0  0  0
   -6.7447    8.9500    0.0000 C   0  0  0  0  0  0  0  0  0  0  0  0
   -7.8594    9.9537    0.0000 C   0  0  0  0  0  0  0  0  0  0  0  0
   -9.2860    9.4901    0.0000 C   0  0  0  0  0  0  0  0  0  0  0  0
   -9.5978    8.0229    0.0000 C   0  0  0  0  0  0  0  0  0  0  0  0
   -8.4831    7.0192    0.0000 C   0  0  0  0  0  0  0  0  0  0  0  0
   -5.2500    1.2990    0.0000 C   0  0  0  0  0  0  0  0  0  0  0  0
   -0.7500   -1.2990    0.0000 C   0  0  0  0  0  0  0  0  0  0  0  0
  1  2  1  0
  2  3  1  0
  3  4  1  0
  4  5  1  0
  5  6  2  0
  5  7  1  0
  4  8  2  0
  8  9  1  0
  9 10  1  0
 10 11  2  0
 11 12  1  0
 12 13  2  0
 13 14  1  0
 14 15  1  0
 15 16  2  0
 16 17  1  0
 17 18  2  0
 18 19  1  0
 19 20  1  0
 20 21  2  0
 21 22  1  0
 22 23  1  0
 23 24  1  0
 24 25  2  0
 25 26  1  0
 26 27  2  0
 27 28  1  0
 28 29  2  0
 19 30  2  0
 13 31  1  0
 31  3  2  0
 31  9  1  0
 30 15  1  0
 22 18  1  0
 29 24  1  0
M  END
>  <Compound_ID>  (208) 
CHEMBL196438

>  <Active>  (208) 
1.0

>  <Smiles>  (208) 
CCc1c(C(=O)O)cn2ncnc(Nc3ccc4c(cnn4Cc4ccccc4)c3)c12

>  <canonical_smi>  (208) 
CCc1c(C(=O)O)cn2ncnc(Nc3ccc4c(cnn4Cc4ccccc4)c3)c12

>  <Set>  (208) 
G2 active

>  <Set_type>  (208) 
Train

>  <MW>  (208) 
412.45

>  <HBD>  (208) 
2

>  <HBA>  (208) 
6

>  <NRB>  (208) 
6

>  <NR>  (208) 
5

>  <NAR>  (208) 
5

>  <PSA>  (208) 
97.34

>  <Standard Type>  (208) 
nan

>  <Standard Relation>  (208) 
nan

>  <Standard Units>  (208) 
nan

>  <Standard Value>  (208) 
nan

>  <Assay ChEMBL ID>  (208) 
nan

>  <Assay Description>  (208) 
nan

>  <BAO Label>  (208) 
nan

$$$$

     RDKit          2D

 22 24  0  0  0  0  0  0  0  0999 V2000
    3.0000   -5.1962    0.0000 C   0  0  0  0  0  0  0  0  0  0  0  0
    1.5000   -5.1962    0.0000 O   0  0  0  0  0  0  0  0  0  0  0  0
    0.7500   -3.8971    0.0000 C   0  0  0  0  0  0  0  0  0  0  0  0
    1.5000   -2.5981    0.0000 C   0  0  0  0  0  0  0  0  0  0  0  0
    0.7500   -1.2990    0.0000 C   0  0  0  0  0  0  0  0  0  0  0  0
    1.5000    0.0000    0.0000 N   0  0  0  0  0  0  0  0  0  0  0  0
    0.7500    1.2990    0.0000 C   0  0  0  0  0  0  0  0  0  0  0  0
   -0.7500    1.2990    0.0000 N   0  0  0  0  0  0  0  0  0  0  0  0
   -1.5000    0.0000    0.0000 C   0  0  0  0  0  0  0  0  0  0  0  0
   -3.0000    0.0000    0.0000 O   0  0  0  0  0  0  0  0  0  0  0  0
   -3.7500    1.2990    0.0000 C   0  0  0  0  0  0  0  0  0  0  0  0
   -3.0000    2.5981    0.0000 C   0  0  0  0  0  0  0  0  0  0  0  0
   -3.7500    3.8971    0.0000 C   0  0  0  0  0  0  0  0  0  0  0  0
   -5.2500    3.8971    0.0000 C   0  0  0  0  0  0  0  0  0  0  0  0
   -6.0000    2.5981    0.0000 C   0  0  0  0  0  0  0  0  0  0  0  0
   -7.5000    2.5981    0.0000 Cl  0  0  0  0  0  0  0  0  0  0  0  0
   -5.2500    1.2990    0.0000 C   0  0  0  0  0  0  0  0  0  0  0  0
   -0.7500   -1.2990    0.0000 C   0  0  0  0  0  0  0  0  0  0  0  0
   -1.5000   -2.5981    0.0000 C   0  0  0  0  0  0  0  0  0  0  0  0
   -0.7500   -3.8971    0.0000 C   0  0  0  0  0  0  0  0  0  0  0  0
   -1.5000   -5.1962    0.0000 O   0  0  0  0  0  0  0  0  0  0  0  0
   -3.0000   -5.1962    0.0000 C   0  0  0  0  0  0  0  0  0  0  0  0
  1  2  1  0
  2  3  1  0
  3  4  2  0
  4  5  1  0
  5  6  2  0
  6  7  1  0
  7  8  2  0
  8  9  1  0
  9 10  1  0
 10 11  1  0
 11 12  2  0
 12 13  1  0
 13 14  2  0
 14 15  1  0
 15 16  1  0
 15 17  2  0
  9 18  2  0
 18 19  1  0
 19 20  2  0
 20 21  1  0
 21 22  1  0
 20  3  1  0
 18  5  1  0
 17 11  1  0
M  END
>  <Compound_ID>  (209) 
CHEMBL135853

>  <Active>  (209) 
1.0

>  <Smiles>  (209) 
COc1cc2ncnc(Oc3cccc(Cl)c3)c2cc1OC

>  <canonical_smi>  (209) 
COc1cc2ncnc(Oc3cccc(Cl)c3)c2cc1OC

>  <Set>  (209) 
G2 active

>  <Set_type>  (209) 
Train

>  <MW>  (209) 
316.74

>  <HBD>  (209) 
0

>  <HBA>  (209) 
5

>  <NRB>  (209) 
4

>  <NR>  (209) 
3

>  <NAR>  (209) 
3

>  <PSA>  (209) 
53.47

>  <Standard Type>  (209) 
nan

>  <Standard Relation>  (209) 
nan

>  <Standard Units>  (209) 
nan

>  <Standard Value>  (209) 
nan

>  <Assay ChEMBL ID>  (209) 
nan

>  <Assay Description>  (209) 
nan

>  <BAO Label>  (209) 
nan

$$$$

     RDKit          2D

 30 33  0  0  0  0  0  0  0  0999 V2000
    3.0000   -5.1962    0.0000 C   0  0  0  0  0  0  0  0  0  0  0  0
    1.5000   -5.1962    0.0000 O   0  0  0  0  0  0  0  0  0  0  0  0
    0.7500   -3.8971    0.0000 C   0  0  0  0  0  0  0  0  0  0  0  0
    1.5000   -2.5981    0.0000 C   0  0  0  0  0  0  0  0  0  0  0  0
    0.7500   -1.2990    0.0000 C   0  0  0  0  0  0  0  0  0  0  0  0
    1.5000    0.0000    0.0000 N   0  0  0  0  0  0  0  0  0  0  0  0
    0.7500    1.2990    0.0000 C   0  0  0  0  0  0  0  0  0  0  0  0
   -0.7500    1.2990    0.0000 N   0  0  0  0  0  0  0  0  0  0  0  0
   -1.5000    0.0000    0.0000 C   0  0  0  0  0  0  0  0  0  0  0  0
   -3.0000    0.0000    0.0000 N   0  0  0  0  0  0  0  0  0  0  0  0
   -3.7500    1.2990    0.0000 C   0  0  0  0  0  0  0  0  0  0  0  0
   -3.0000    2.5981    0.0000 C   0  0  0  0  0  0  0  0  0  0  0  0
   -3.7500    3.8971    0.0000 C   0  0  0  0  0  0  0  0  0  0  0  0
   -5.2500    3.8971    0.0000 C   0  0  0  0  0  0  0  0  0  0  0  0
   -6.0000    2.5981    0.0000 C   0  0  0  0  0  0  0  0  0  0  0  0
   -7.5000    2.5981    0.0000 Cl  0  0  0  0  0  0  0  0  0  0  0  0
   -5.2500    1.2990    0.0000 C   0  0  0  0  0  0  0  0  0  0  0  0
   -6.0000    0.0000    0.0000 F   0  0  0  0  0  0  0  0  0  0  0  0
   -0.7500   -1.2990    0.0000 C   0  0  0  0  0  0  0  0  0  0  0  0
   -1.5000   -2.5981    0.0000 C   0  0  0  0  0  0  0  0  0  0  0  0
   -0.7500   -3.8971    0.0000 C   0  0  0  0  0  0  0  0  0  0  0  0
   -1.5000   -5.1962    0.0000 C   0  0  0  0  0  0  0  0  0  0  0  0
   -3.0000   -5.1962    0.0000 N   0  0  0  0  0  0  0  0  0  0  0  0
   -3.7500   -6.4952    0.0000 C   0  0  0  0  0  0  0  0  0  0  0  0
   -3.7500   -3.8971    0.0000 C   0  0  0  0  0  0  0  0  0  0  0  0
   -3.1399   -2.5268    0.0000 C   0  0  0  0  0  0  0  0  0  0  0  0
   -4.2546   -1.5231    0.0000 C   0  0  0  0  0  0  0  0  0  0  0  0
   -5.5537   -2.2731    0.0000 N   0  0  0  0  0  0  0  0  0  0  0  0
   -5.2418   -3.7403    0.0000 C   0  0  0  0  0  0  0  0  0  0  0  0
   -6.2455   -4.8550    0.0000 O   0  0  0  0  0  0  0  0  0  0  0  0
  1  2  1  0
  2  3  1  0
  3  4  2  0
  4  5  1  0
  5  6  2  0
  6  7  1  0
  7  8  2  0
  8  9  1  0
  9 10  1  0
 10 11  1  0
 11 12  2  0
 12 13  1  0
 13 14  2  0
 14 15  1  0
 15 16  1  0
 15 17  2  0
 17 18  1  0
  9 19  2  0
 19 20  1  0
 20 21  2  0
 21 22  1  0
 22 23  1  0
 23 24  1  0
 23 25  1  0
 25 26  1  0
 26 27  1  0
 27 28  1  0
 28 29  1  0
 29 30  2  0
 21  3  1  0
 29 25  1  0
 19  5  1  0
 17 11  1  0
M  END
>  <Compound_ID>  (210) 
CHEMBL378370

>  <Active>  (210) 
1.0

>  <Smiles>  (210) 
COc1cc2ncnc(Nc3cccc(Cl)c3F)c2cc1CN(C)C1CCNC1=O

>  <canonical_smi>  (210) 
COc1cc2ncnc(Nc3cccc(Cl)c3F)c2cc1CN(C)C1CCNC1=O

>  <Set>  (210) 
G2 active

>  <Set_type>  (210) 
Train

>  <MW>  (210) 
429.88

>  <HBD>  (210) 
2

>  <HBA>  (210) 
6

>  <NRB>  (210) 
6

>  <NR>  (210) 
4

>  <NAR>  (210) 
3

>  <PSA>  (210) 
79.38

>  <Standard Type>  (210) 
nan

>  <Standard Relation>  (210) 
nan

>  <Standard Units>  (210) 
nan

>  <Standard Value>  (210) 
nan

>  <Assay ChEMBL ID>  (210) 
nan

>  <Assay Description>  (210) 
nan

>  <BAO Label>  (210) 
nan

$$$$

     RDKit          2D

 30 33  0  0  0  0  0  0  0  0999 V2000
   -0.7500   -3.8971    0.0000 O   0  0  0  0  0  0  0  0  0  0  0  0
    0.7500   -3.8971    0.0000 C   0  0  0  0  0  0  0  0  0  0  0  0
    1.5000   -2.5981    0.0000 N   0  0  0  0  0  0  0  0  0  0  0  0
    0.7500   -1.2990    0.0000 C   0  0  0  0  0  0  0  0  0  0  0  0
    1.5000    0.0000    0.0000 C   0  0  0  0  0  0  0  0  0  0  0  0
    0.7500    1.2990    0.0000 C   0  0  0  0  0  0  0  0  0  0  0  0
   -0.7500    1.2990    0.0000 C   0  0  0  0  0  0  0  0  0  0  0  0
   -1.5000    0.0000    0.0000 C   0  0  0  0  0  0  0  0  0  0  0  0
   -3.0000    0.0000    0.0000 N   0  0  0  0  0  0  0  0  0  0  0  0
   -3.7500    1.2990    0.0000 C   0  0  0  0  0  0  0  0  0  0  0  0
   -3.0000    2.5981    0.0000 C   0  0  0  0  0  0  0  0  0  0  0  0
   -3.7500    3.8971    0.0000 C   0  0  0  0  0  0  0  0  0  0  0  0
   -3.0000    5.1962    0.0000 N   0  0  0  0  0  0  0  0  0  0  0  0
   -1.5000    5.1962    0.0000 C   0  0  0  0  0  0  0  0  0  0  0  0
   -0.7500    3.8971    0.0000 C   0  0  0  0  0  0  0  0  0  0  0  0
    0.7500    3.8971    0.0000 C   0  0  0  0  0  0  0  0  0  0  0  0
    1.5000    5.1962    0.0000 C   0  0  0  0  0  0  0  0  0  0  0  0
    0.7500    6.4952    0.0000 C   0  0  0  0  0  0  0  0  0  0  0  0
    1.5000    7.7942    0.0000 C   0  0  0  0  0  0  0  0  0  0  0  0
    2.2500    9.0933    0.0000 F   0  0  0  0  0  0  0  0  0  0  0  0
    2.7990    7.0442    0.0000 F   0  0  0  0  0  0  0  0  0  0  0  0
    0.2010    8.5442    0.0000 F   0  0  0  0  0  0  0  0  0  0  0  0
   -0.7500    6.4952    0.0000 C   0  0  0  0  0  0  0  0  0  0  0  0
   -5.2500    3.8971    0.0000 N   0  0  0  0  0  0  0  0  0  0  0  0
   -6.0000    2.5981    0.0000 C   0  0  0  0  0  0  0  0  0  0  0  0
   -5.2500    1.2990    0.0000 N   0  0  0  0  0  0  0  0  0  0  0  0
   -0.7500   -1.2990    0.0000 C   0  0  0  0  0  0  0  0  0  0  0  0
    1.5000   -5.1962    0.0000 C   0  0  0  0  0  0  0  0  0  0  0  0
    2.7990   -5.9462    0.0000 C   0  0  0  0  0  0  0  0  0  0  0  0
    1.5000   -6.6962    0.0000 C   0  0  0  0  0  0  0  0  0  0  0  0
  1  2  2  0
  2  3  1  0
  3  4  1  0
  4  5  2  0
  5  6  1  0
  6  7  2  0
  7  8  1  0
  8  9  1  0
  9 10  1  0
 10 11  2  0
 11 12  1  0
 12 13  1  0
 13 14  1  0
 14 15  2  0
 15 16  1  0
 16 17  2  0
 17 18  1  0
 18 19  1  0
 19 20  1  0
 19 21  1  0
 19 22  1  0
 18 23  2  0
 12 24  2  0
 24 25  1  0
 25 26  2  0
  8 27  2  0
  2 28  1  0
 28 29  1  0
 29 30  1  0
 27  4  1  0
 30 28  1  0
 26 10  1  0
 23 14  1  0
M  END
>  <Compound_ID>  (211) 
CHEMBL387187

>  <Active>  (211) 
1.0

>  <Smiles>  (211) 
O=C(Nc1cccc(Nc2cc(Nc3cccc(C(F)(F)F)c3)ncn2)c1)C1CC1

>  <canonical_smi>  (211) 
O=C(Nc1cccc(Nc2cc(Nc3cccc(C(F)(F)F)c3)ncn2)c1)C1CC1

>  <Set>  (211) 
G2 active

>  <Set_type>  (211) 
Train

>  <MW>  (211) 
413.4

>  <HBD>  (211) 
3

>  <HBA>  (211) 
5

>  <NRB>  (211) 
6

>  <NR>  (211) 
4

>  <NAR>  (211) 
3

>  <PSA>  (211) 
78.94

>  <Standard Type>  (211) 
nan

>  <Standard Relation>  (211) 
nan

>  <Standard Units>  (211) 
nan

>  <Standard Value>  (211) 
nan

>  <Assay ChEMBL ID>  (211) 
nan

>  <Assay Description>  (211) 
nan

>  <BAO Label>  (211) 
nan

$$$$

     RDKit          2D

 40 45  0  0  0  0  0  0  0  0999 V2000
   -2.5565   -4.8847    0.0000 C   0  0  0  0  0  0  0  0  0  0  0  0
   -1.4418   -3.8810    0.0000 C   0  0  0  0  0  0  0  0  0  0  0  0
   -1.7537   -2.4138    0.0000 C   0  0  0  0  0  0  0  0  0  0  0  0
   -0.7500   -1.2990    0.0000 C   0  0  0  0  0  0  0  0  0  0  0  0
    0.7500   -1.2990    0.0000 C   0  0  0  0  0  0  0  0  0  0  0  0
    1.5000   -2.5981    0.0000 N   0  0  0  0  0  0  0  0  0  0  0  0
    3.0000   -2.5981    0.0000 C   0  0  0  0  0  0  0  0  0  0  0  0
    3.7500   -1.2990    0.0000 C   0  0  0  0  0  0  0  0  0  0  0  0
    5.2500   -1.2990    0.0000 C   0  0  0  0  0  0  0  0  0  0  0  0
    6.0000   -2.5981    0.0000 C   0  0  0  0  0  0  0  0  0  0  0  0
    5.2500   -3.8971    0.0000 C   0  0  0  0  0  0  0  0  0  0  0  0
    6.2537   -5.0118    0.0000 C   0  0  0  0  0  0  0  0  0  0  0  0
    7.6240   -4.4017    0.0000 N   0  0  0  0  0  0  0  0  0  0  0  0
    7.4672   -2.9099    0.0000 N   0  0  0  0  0  0  0  0  0  0  0  0
    8.5819   -1.9062    0.0000 C   0  0  0  0  0  0  0  0  0  0  0  0
   10.0085   -2.3698    0.0000 C   0  0  0  0  0  0  0  0  0  0  0  0
   10.3204   -3.8370    0.0000 C   0  0  0  0  0  0  0  0  0  0  0  0
   11.7470   -4.3005    0.0000 C   0  0  0  0  0  0  0  0  0  0  0  0
   12.8617   -3.2968    0.0000 C   0  0  0  0  0  0  0  0  0  0  0  0
   12.5498   -1.8296    0.0000 C   0  0  0  0  0  0  0  0  0  0  0  0
   11.1232   -1.3661    0.0000 C   0  0  0  0  0  0  0  0  0  0  0  0
    3.7500   -3.8971    0.0000 C   0  0  0  0  0  0  0  0  0  0  0  0
    1.5000    0.0000    0.0000 N   0  0  0  0  0  0  0  0  0  0  0  0
    0.7500    1.2990    0.0000 C   0  0  0  0  0  0  0  0  0  0  0  0
   -0.7500    1.2990    0.0000 N   0  0  0  0  0  0  0  0  0  0  0  0
   -1.5000    0.0000    0.0000 C   0  0  0  0  0  0  0  0  0  0  0  0
   -2.9672   -0.3119    0.0000 N   0  0  0  0  0  0  0  0  0  0  0  0
   -3.1240   -1.8037    0.0000 C   0  0  0  0  0  0  0  0  0  0  0  0
   -4.4231   -2.5537    0.0000 N   0  0  0  0  0  0  0  0  0  0  0  0
   -5.7221   -1.8037    0.0000 C   0  0  0  0  0  0  0  0  0  0  0  0
   -5.7221   -0.3037    0.0000 O   0  0  0  0  0  0  0  0  0  0  0  0
   -7.0211   -2.5537    0.0000 O   0  0  0  0  0  0  0  0  0  0  0  0
   -8.3202   -1.8037    0.0000 C   0  0  0  0  0  0  0  0  0  0  0  0
   -9.6192   -2.5537    0.0000 C   0  0  0  0  0  0  0  0  0  0  0  0
  -10.9182   -1.8037    0.0000 N   0  0  0  0  0  0  0  0  0  0  0  0
  -10.9182   -0.3037    0.0000 C   0  0  0  0  0  0  0  0  0  0  0  0
  -12.2173    0.4463    0.0000 C   0  0  0  0  0  0  0  0  0  0  0  0
  -13.5163   -0.3037    0.0000 N   0  0  0  0  0  0  0  0  0  0  0  0
  -13.5163   -1.8037    0.0000 C   0  0  0  0  0  0  0  0  0  0  0  0
  -12.2173   -2.5537    0.0000 C   0  0  0  0  0  0  0  0  0  0  0  0
  1  2  1  0
  2  3  1  0
  3  4  2  0
  4  5  1  0
  5  6  1  0
  6  7  1  0
  7  8  2  0
  8  9  1  0
  9 10  2  0
 10 11  1  0
 11 12  1  0
 12 13  2  0
 13 14  1  0
 14 15  1  0
 15 16  1  0
 16 17  2  0
 17 18  1  0
 18 19  2  0
 19 20  1  0
 20 21  2  0
 11 22  2  0
  5 23  2  0
 23 24  1  0
 24 25  2  0
 25 26  1  0
 26 27  1  0
 27 28  2  0
 28 29  1  0
 29 30  1  0
 30 31  2  0
 30 32  1  0
 32 33  1  0
 33 34  1  0
 34 35  1  0
 35 36  1  0
 36 37  1  0
 37 38  1  0
 38 39  1  0
 39 40  1  0
 28  3  1  0
 40 35  1  0
 26  4  1  0
 22  7  1  0
 14 10  1  0
 21 16  1  0
M  END
>  <Compound_ID>  (212) 
CHEMBL565714

>  <Active>  (212) 
1.0

>  <Smiles>  (212) 
CCC1=C2C(Nc3ccc4c(cnn4Cc4ccccc4)c3)=NC=NC2N=C1NC(=O)OCCN1CCNCC1

>  <canonical_smi>  (212) 
CCC1=C2C(Nc3ccc4c(cnn4Cc4ccccc4)c3)=NC=NC2N=C1NC(=O)OCCN1CCNCC1

>  <Set>  (212) 
G2 active

>  <Set_type>  (212) 
Train

>  <MW>  (212) 
539.64

>  <HBD>  (212) 
3

>  <HBA>  (212) 
6

>  <NRB>  (212) 
7

>  <NR>  (212) 
6

>  <NAR>  (212) 
3

>  <PSA>  (212) 
120.53

>  <Standard Type>  (212) 
nan

>  <Standard Relation>  (212) 
nan

>  <Standard Units>  (212) 
nan

>  <Standard Value>  (212) 
nan

>  <Assay ChEMBL ID>  (212) 
nan

>  <Assay Description>  (212) 
nan

>  <BAO Label>  (212) 
nan

$$$$

     RDKit          2D

 35 39  0  0  0  0  0  0  0  0999 V2000
    1.5000   -7.7942    0.0000 N   0  0  0  0  0  0  0  0  0  0  0  0
    0.7500   -6.4952    0.0000 C   0  0  0  0  0  0  0  0  0  0  0  0
   -0.7500   -6.4952    0.0000 N   0  0  0  0  0  0  0  0  0  0  0  0
   -1.5000   -5.1962    0.0000 C   0  0  0  0  0  0  0  0  0  0  0  0
   -0.7500   -3.8971    0.0000 N   0  0  0  0  0  0  0  0  0  0  0  0
    0.7500   -3.8971    0.0000 C   0  0  0  0  0  0  0  0  0  0  0  0
    1.5000   -2.5981    0.0000 N   0  0  0  0  0  0  0  0  0  0  0  0
    0.7500   -1.2990    0.0000 C   0  0  0  0  0  0  0  0  0  0  0  0
    1.5000    0.0000    0.0000 C   0  0  0  0  0  0  0  0  0  0  0  0
    0.7500    1.2990    0.0000 C   0  0  0  0  0  0  0  0  0  0  0  0
   -0.7500    1.2990    0.0000 C   0  0  0  0  0  0  0  0  0  0  0  0
   -1.5000    0.0000    0.0000 C   0  0  0  0  0  0  0  0  0  0  0  0
   -2.9672    0.3119    0.0000 C   0  0  0  0  0  0  0  0  0  0  0  0
   -3.1240    1.8037    0.0000 N   0  0  0  0  0  0  0  0  0  0  0  0
   -1.7537    2.4138    0.0000 N   0  0  0  0  0  0  0  0  0  0  0  0
   -1.4418    3.8810    0.0000 C   0  0  0  0  0  0  0  0  0  0  0  0
   -2.5565    4.8847    0.0000 C   0  0  0  0  0  0  0  0  0  0  0  0
   -2.2447    6.3519    0.0000 C   0  0  0  0  0  0  0  0  0  0  0  0
   -3.3594    7.3556    0.0000 C   0  0  0  0  0  0  0  0  0  0  0  0
   -4.7860    6.8921    0.0000 C   0  0  0  0  0  0  0  0  0  0  0  0
   -5.0978    5.4248    0.0000 C   0  0  0  0  0  0  0  0  0  0  0  0
   -6.5244    4.9613    0.0000 F   0  0  0  0  0  0  0  0  0  0  0  0
   -3.9831    4.4211    0.0000 C   0  0  0  0  0  0  0  0  0  0  0  0
   -0.7500   -1.2990    0.0000 C   0  0  0  0  0  0  0  0  0  0  0  0
    1.5000   -5.1962    0.0000 C   0  0  0  0  0  0  0  0  0  0  0  0
    3.0000   -5.1962    0.0000 C   0  0  0  0  0  0  0  0  0  0  0  0
    3.7500   -6.4952    0.0000 N   0  0  0  0  0  0  0  0  0  0  0  0
    5.2500   -6.4952    0.0000 O   0  0  0  0  0  0  0  0  0  0  0  0
    6.0000   -7.7942    0.0000 C   0  0  0  0  0  0  0  0  0  0  0  0
    7.5000   -7.7942    0.0000 C   0  0  0  0  0  0  0  0  0  0  0  0
    8.2500   -9.0933    0.0000 C   0  0  0  0  0  0  0  0  0  0  0  0
    9.7500   -9.0933    0.0000 C   0  0  0  0  0  0  0  0  0  0  0  0
   10.5000   -7.7942    0.0000 C   0  0  0  0  0  0  0  0  0  0  0  0
    9.7500   -6.4952    0.0000 C   0  0  0  0  0  0  0  0  0  0  0  0
    8.2500   -6.4952    0.0000 C   0  0  0  0  0  0  0  0  0  0  0  0
  1  2  1  0
  2  3  2  0
  3  4  1  0
  4  5  2  0
  5  6  1  0
  6  7  1  0
  7  8  1  0
  8  9  2  0
  9 10  1  0
 10 11  2  0
 11 12  1  0
 12 13  1  0
 13 14  2  0
 14 15  1  0
 15 16  1  0
 16 17  1  0
 17 18  2  0
 18 19  1  0
 19 20  2  0
 20 21  1  0
 21 22  1  0
 21 23  2  0
 12 24  2  0
  6 25  2  0
 25 26  1  0
 26 27  2  0
 27 28  1  0
 28 29  1  0
 29 30  1  0
 30 31  2  0
 31 32  1  0
 32 33  2  0
 33 34  1  0
 34 35  2  0
 25  2  1  0
 35 30  1  0
 24  8  1  0
 15 11  1  0
 23 17  1  0
M  END
>  <Compound_ID>  (213) 
CHEMBL255438

>  <Active>  (213) 
1.0

>  <Smiles>  (213) 
Nc1ncnc(Nc2ccc3c(cnn3Cc3cccc(F)c3)c2)c1/C=N/OCc1ccccc1

>  <canonical_smi>  (213) 
Nc1ncnc(Nc2ccc3c(cnn3Cc3cccc(F)c3)c2)c1/C=N/OCc1ccccc1

>  <Set>  (213) 
G2 active

>  <Set_type>  (213) 
Train

>  <MW>  (213) 
467.51

>  <HBD>  (213) 
2

>  <HBA>  (213) 
6

>  <NRB>  (213) 
8

>  <NR>  (213) 
5

>  <NAR>  (213) 
5

>  <PSA>  (213) 
103.24

>  <Standard Type>  (213) 
nan

>  <Standard Relation>  (213) 
nan

>  <Standard Units>  (213) 
nan

>  <Standard Value>  (213) 
nan

>  <Assay ChEMBL ID>  (213) 
nan

>  <Assay Description>  (213) 
nan

>  <BAO Label>  (213) 
nan

$$$$

     RDKit          2D

 40 45  0  0  0  0  0  0  0  0999 V2000
   -2.5565   -4.8847    0.0000 C   0  0  0  0  0  0  0  0  0  0  0  0
   -1.4418   -3.8810    0.0000 C   0  0  0  0  0  0  0  0  0  0  0  0
   -1.7537   -2.4138    0.0000 C   0  0  0  0  0  0  0  0  0  0  0  0
   -0.7500   -1.2990    0.0000 C   0  0  0  0  0  0  0  0  0  0  0  0
    0.7500   -1.2990    0.0000 C   0  0  0  0  0  0  0  0  0  0  0  0
    1.5000   -2.5981    0.0000 N   0  0  0  0  0  0  0  0  0  0  0  0
    3.0000   -2.5981    0.0000 C   0  0  0  0  0  0  0  0  0  0  0  0
    3.7500   -1.2990    0.0000 C   0  0  0  0  0  0  0  0  0  0  0  0
    5.2500   -1.2990    0.0000 C   0  0  0  0  0  0  0  0  0  0  0  0
    6.0000   -2.5981    0.0000 C   0  0  0  0  0  0  0  0  0  0  0  0
    5.2500   -3.8971    0.0000 C   0  0  0  0  0  0  0  0  0  0  0  0
    6.2537   -5.0118    0.0000 C   0  0  0  0  0  0  0  0  0  0  0  0
    7.6240   -4.4017    0.0000 N   0  0  0  0  0  0  0  0  0  0  0  0
    7.4672   -2.9099    0.0000 N   0  0  0  0  0  0  0  0  0  0  0  0
    8.5819   -1.9062    0.0000 C   0  0  0  0  0  0  0  0  0  0  0  0
   10.0085   -2.3698    0.0000 C   0  0  0  0  0  0  0  0  0  0  0  0
   10.3204   -3.8370    0.0000 C   0  0  0  0  0  0  0  0  0  0  0  0
   11.7470   -4.3005    0.0000 C   0  0  0  0  0  0  0  0  0  0  0  0
   12.8617   -3.2968    0.0000 C   0  0  0  0  0  0  0  0  0  0  0  0
   12.5498   -1.8296    0.0000 C   0  0  0  0  0  0  0  0  0  0  0  0
   13.6645   -0.8259    0.0000 F   0  0  0  0  0  0  0  0  0  0  0  0
   11.1232   -1.3661    0.0000 C   0  0  0  0  0  0  0  0  0  0  0  0
    3.7500   -3.8971    0.0000 C   0  0  0  0  0  0  0  0  0  0  0  0
    1.5000    0.0000    0.0000 N   0  0  0  0  0  0  0  0  0  0  0  0
    0.7500    1.2990    0.0000 C   0  0  0  0  0  0  0  0  0  0  0  0
   -0.7500    1.2990    0.0000 N   0  0  0  0  0  0  0  0  0  0  0  0
   -1.5000    0.0000    0.0000 C   0  0  0  0  0  0  0  0  0  0  0  0
   -2.9672   -0.3119    0.0000 N   0  0  0  0  0  0  0  0  0  0  0  0
   -3.1240   -1.8037    0.0000 C   0  0  0  0  0  0  0  0  0  0  0  0
   -4.4231   -2.5537    0.0000 N   0  0  0  0  0  0  0  0  0  0  0  0
   -5.7221   -1.8037    0.0000 C   0  0  0  0  0  0  0  0  0  0  0  0
   -5.7221   -0.3037    0.0000 O   0  0  0  0  0  0  0  0  0  0  0  0
   -7.0211   -2.5537    0.0000 O   0  0  0  0  0  0  0  0  0  0  0  0
   -8.3202   -1.8037    0.0000 C   0  0  0  0  0  0  0  0  0  0  0  0
   -9.6192   -2.5537    0.0000 C   0  0  0  0  0  0  0  0  0  0  0  0
  -10.9182   -1.8037    0.0000 C   0  0  0  0  0  0  0  0  0  0  0  0
  -12.2173   -2.5537    0.0000 O   0  0  0  0  0  0  0  0  0  0  0  0
  -12.2173   -4.0537    0.0000 C   0  0  0  0  0  0  0  0  0  0  0  0
  -10.9182   -4.8037    0.0000 C   0  0  0  0  0  0  0  0  0  0  0  0
   -9.6192   -4.0537    0.0000 N   0  0  0  0  0  0  0  0  0  0  0  0
  1  2  1  0
  2  3  1  0
  3  4  2  0
  4  5  1  0
  5  6  1  0
  6  7  1  0
  7  8  2  0
  8  9  1  0
  9 10  2  0
 10 11  1  0
 11 12  1  0
 12 13  2  0
 13 14  1  0
 14 15  1  0
 15 16  1  0
 16 17  2  0
 17 18  1  0
 18 19  2  0
 19 20  1  0
 20 21  1  0
 20 22  2  0
 11 23  2  0
  5 24  2  0
 24 25  1  0
 25 26  2  0
 26 27  1  0
 27 28  1  0
 28 29  2  0
 29 30  1  0
 30 31  1  0
 31 32  2  0
 31 33  1  0
 33 34  1  0
 35 34  1  1
 35 36  1  0
 36 37  1  0
 37 38  1  0
 38 39  1  0
 39 40  1  0
 29  3  1  0
 40 35  1  0
 27  4  1  0
 23  7  1  0
 14 10  1  0
 22 16  1  0
M  END
>  <Compound_ID>  (214) 
CHEMBL583403

>  <Active>  (214) 
1.0

>  <Smiles>  (214) 
CCC1=C2C(Nc3ccc4c(cnn4Cc4cccc(F)c4)c3)=NC=NC2N=C1NC(=O)OC[C@@H]1COCCN1

>  <canonical_smi>  (214) 
CCC1=C2C(Nc3ccc4c(cnn4Cc4cccc(F)c4)c3)=NC=NC2N=C1NC(=O)OC[C@@H]1COCCN1

>  <Set>  (214) 
G2 active

>  <Set_type>  (214) 
Train

>  <MW>  (214) 
544.59

>  <HBD>  (214) 
3

>  <HBA>  (214) 
6

>  <NRB>  (214) 
6

>  <NR>  (214) 
6

>  <NAR>  (214) 
3

>  <PSA>  (214) 
126.52

>  <Standard Type>  (214) 
nan

>  <Standard Relation>  (214) 
nan

>  <Standard Units>  (214) 
nan

>  <Standard Value>  (214) 
nan

>  <Assay ChEMBL ID>  (214) 
nan

>  <Assay Description>  (214) 
nan

>  <BAO Label>  (214) 
nan

$$$$

     RDKit          2D

 42 46  0  0  0  0  0  0  0  0999 V2000
    5.2500   -1.2990    0.0000 C   0  0  0  0  0  0  0  0  0  0  0  0
    3.7500   -1.2990    0.0000 C   0  0  0  0  0  0  0  0  0  0  0  0
    3.0000    0.0000    0.0000 O   0  0  0  0  0  0  0  0  0  0  0  0
    1.5000    0.0000    0.0000 C   0  0  0  0  0  0  0  0  0  0  0  0
    0.7500   -1.2990    0.0000 C   0  0  0  0  0  0  0  0  0  0  0  0
   -0.7500   -1.2990    0.0000 C   0  0  0  0  0  0  0  0  0  0  0  0
   -1.5000   -2.5981    0.0000 N   0  0  0  0  0  0  0  0  0  0  0  0
   -3.0000   -2.5981    0.0000 C   0  0  0  0  0  0  0  0  0  0  0  0
   -3.7500   -1.2990    0.0000 C   0  0  0  0  0  0  0  0  0  0  0  0
   -5.2500   -1.2990    0.0000 C   0  0  0  0  0  0  0  0  0  0  0  0
   -6.7500   -1.2990    0.0000 N   0  0  0  0  0  0  0  0  0  0  0  0
   -3.0000    0.0000    0.0000 C   0  0  0  0  0  0  0  0  0  0  0  0
   -3.7500    1.2990    0.0000 N   0  0  0  0  0  0  0  0  0  0  0  0
   -3.0000    2.5981    0.0000 C   0  0  0  0  0  0  0  0  0  0  0  0
   -1.5000    2.5981    0.0000 C   0  0  0  0  0  0  0  0  0  0  0  0
   -0.7500    3.8971    0.0000 C   0  0  0  0  0  0  0  0  0  0  0  0
   -1.5000    5.1962    0.0000 C   0  0  0  0  0  0  0  0  0  0  0  0
   -0.7500    6.4952    0.0000 O   0  0  0  0  0  0  0  0  0  0  0  0
    0.7500    6.4952    0.0000 C   0  0  0  0  0  0  0  0  0  0  0  0
    1.5000    7.7942    0.0000 C   0  0  0  0  0  0  0  0  0  0  0  0
    3.0000    7.7942    0.0000 C   0  0  0  0  0  0  0  0  0  0  0  0
    3.7500    9.0933    0.0000 C   0  0  0  0  0  0  0  0  0  0  0  0
    3.0000   10.3923    0.0000 C   0  0  0  0  0  0  0  0  0  0  0  0
    1.5000   10.3923    0.0000 C   0  0  0  0  0  0  0  0  0  0  0  0
    0.7500    9.0933    0.0000 C   0  0  0  0  0  0  0  0  0  0  0  0
   -3.0000    5.1962    0.0000 C   0  0  0  0  0  0  0  0  0  0  0  0
   -3.7500    6.4952    0.0000 Cl  0  0  0  0  0  0  0  0  0  0  0  0
   -3.7500    3.8971    0.0000 C   0  0  0  0  0  0  0  0  0  0  0  0
   -1.5000    0.0000    0.0000 C   0  0  0  0  0  0  0  0  0  0  0  0
   -0.7500    1.2990    0.0000 C   0  0  0  0  0  0  0  0  0  0  0  0
    0.7500    1.2990    0.0000 C   0  0  0  0  0  0  0  0  0  0  0  0
    1.5000    2.5981    0.0000 N   0  0  0  0  0  0  0  0  0  0  0  0
    3.0000    2.5981    0.0000 C   0  0  0  0  0  0  0  0  0  0  0  0
    3.7500    1.2990    0.0000 O   0  0  0  0  0  0  0  0  0  0  0  0
    3.7500    3.8971    0.0000 C   0  0  0  0  0  0  0  0  0  0  0  0
    5.2500    3.8971    0.0000 C   0  0  0  0  0  0  0  0  0  0  0  0
    6.0000    5.1962    0.0000 C   0  0  0  0  0  0  0  0  0  0  0  0
    7.5000    5.1962    0.0000 C   0  0  0  0  0  0  0  0  0  0  0  0
    8.3817    6.4097    0.0000 C   0  0  0  0  0  0  0  0  0  0  0  0
    9.8083    5.9462    0.0000 N   0  0  0  0  0  0  0  0  0  0  0  0
    9.8083    4.4462    0.0000 C   0  0  0  0  0  0  0  0  0  0  0  0
    8.3817    3.9826    0.0000 N   0  0  0  0  0  0  0  0  0  0  0  0
  1  2  1  0
  2  3  1  0
  3  4  1  0
  4  5  2  0
  5  6  1  0
  6  7  2  0
  7  8  1  0
  8  9  2  0
  9 10  1  0
 10 11  3  0
  9 12  1  0
 12 13  1  0
 13 14  1  0
 14 15  2  0
 15 16  1  0
 16 17  2  0
 17 18  1  0
 18 19  1  0
 19 20  1  0
 20 21  2  0
 21 22  1  0
 22 23  2  0
 23 24  1  0
 24 25  2  0
 17 26  1  0
 26 27  1  0
 26 28  2  0
 12 29  2  0
 29 30  1  0
 30 31  2  0
 31 32  1  0
 32 33  1  0
 33 34  2  0
 33 35  1  0
 35 36  2  0
 36 37  1  0
 37 38  1  0
 38 39  2  0
 39 40  1  0
 40 41  1  0
 41 42  2  0
 31  4  1  0
 42 38  1  0
 29  6  1  0
 28 14  1  0
 25 20  1  0
M  END
>  <Compound_ID>  (215) 
CHEMBL359630

>  <Active>  (215) 
1.0

>  <Smiles>  (215) 
CCOc1cc2ncc(C#N)c(Nc3ccc(OCc4ccccc4)c(Cl)c3)c2cc1NC(=O)/C=C/Cc1c[nH]cn1

>  <canonical_smi>  (215) 
CCOc1cc2ncc(C#N)c(Nc3ccc(OCc4ccccc4)c(Cl)c3)c2cc1NC(=O)/C=C/Cc1c[nH]cn1

>  <Set>  (215) 
G2 active

>  <Set_type>  (215) 
Train

>  <MW>  (215) 
579.06

>  <HBD>  (215) 
3

>  <HBA>  (215) 
7

>  <NRB>  (215) 
11

>  <NR>  (215) 
5

>  <NAR>  (215) 
5

>  <PSA>  (215) 
124.95

>  <Standard Type>  (215) 
nan

>  <Standard Relation>  (215) 
nan

>  <Standard Units>  (215) 
nan

>  <Standard Value>  (215) 
nan

>  <Assay ChEMBL ID>  (215) 
nan

>  <Assay Description>  (215) 
nan

>  <BAO Label>  (215) 
nan

$$$$

     RDKit          2D

 39 43  0  0  0  0  0  0  0  0999 V2000
   11.2500   -6.4952    0.0000 C   0  0  0  0  0  0  0  0  0  0  0  0
   10.5000   -5.1962    0.0000 S   0  0  0  0  0  0  0  0  0  0  0  0
    9.2010   -5.9462    0.0000 O   0  0  0  0  0  0  0  0  0  0  0  0
   11.7990   -4.4462    0.0000 O   0  0  0  0  0  0  0  0  0  0  0  0
    9.7500   -3.8971    0.0000 C   0  0  0  0  0  0  0  0  0  0  0  0
    8.2500   -3.8971    0.0000 N   0  0  0  0  0  0  0  0  0  0  0  0
    7.5000   -2.5981    0.0000 C   0  0  0  0  0  0  0  0  0  0  0  0
    6.0000   -2.5981    0.0000 C   0  0  0  0  0  0  0  0  0  0  0  0
    5.2500   -1.2990    0.0000 C   0  0  0  0  0  0  0  0  0  0  0  0
    3.7500   -1.2990    0.0000 C   0  0  0  0  0  0  0  0  0  0  0  0
    3.0000    0.0000    0.0000 O   0  0  0  0  0  0  0  0  0  0  0  0
    1.5000    0.0000    0.0000 C   0  0  0  0  0  0  0  0  0  0  0  0
    0.7500   -1.2990    0.0000 C   0  0  0  0  0  0  0  0  0  0  0  0
   -0.7500   -1.2990    0.0000 C   0  0  0  0  0  0  0  0  0  0  0  0
   -1.5000    0.0000    0.0000 C   0  0  0  0  0  0  0  0  0  0  0  0
   -3.0000    0.0000    0.0000 N   0  0  0  0  0  0  0  0  0  0  0  0
   -3.7500    1.2990    0.0000 C   0  0  0  0  0  0  0  0  0  0  0  0
   -3.0000    2.5981    0.0000 N   0  0  0  0  0  0  0  0  0  0  0  0
   -1.5000    2.5981    0.0000 C   0  0  0  0  0  0  0  0  0  0  0  0
   -0.7500    3.8971    0.0000 N   0  0  0  0  0  0  0  0  0  0  0  0
   -1.5000    5.1962    0.0000 C   0  0  0  0  0  0  0  0  0  0  0  0
   -3.0000    5.1962    0.0000 C   0  0  0  0  0  0  0  0  0  0  0  0
   -3.7500    6.4952    0.0000 C   0  0  0  0  0  0  0  0  0  0  0  0
   -3.0000    7.7942    0.0000 C   0  0  0  0  0  0  0  0  0  0  0  0
   -1.5000    7.7942    0.0000 C   0  0  0  0  0  0  0  0  0  0  0  0
   -1.0365    9.2208    0.0000 C   0  0  0  0  0  0  0  0  0  0  0  0
   -2.2500   10.1025    0.0000 N   0  0  0  0  0  0  0  0  0  0  0  0
   -3.4635    9.2208    0.0000 N   0  0  0  0  0  0  0  0  0  0  0  0
   -4.8901    9.6843    0.0000 C   0  0  0  0  0  0  0  0  0  0  0  0
   -5.2020   11.1516    0.0000 C   0  0  0  0  0  0  0  0  0  0  0  0
   -4.0873   12.1553    0.0000 C   0  0  0  0  0  0  0  0  0  0  0  0
   -4.3991   13.6225    0.0000 C   0  0  0  0  0  0  0  0  0  0  0  0
   -5.8257   14.0860    0.0000 C   0  0  0  0  0  0  0  0  0  0  0  0
   -6.9404   13.0823    0.0000 C   0  0  0  0  0  0  0  0  0  0  0  0
   -8.3670   13.5458    0.0000 F   0  0  0  0  0  0  0  0  0  0  0  0
   -6.6286   11.6151    0.0000 C   0  0  0  0  0  0  0  0  0  0  0  0
   -0.7500    6.4952    0.0000 C   0  0  0  0  0  0  0  0  0  0  0  0
   -0.7500    1.2990    0.0000 C   0  0  0  0  0  0  0  0  0  0  0  0
    0.7500    1.2990    0.0000 C   0  0  0  0  0  0  0  0  0  0  0  0
  1  2  1  0
  2  3  2  0
  2  4  2  0
  2  5  1  0
  5  6  1  0
  6  7  1  0
  7  8  1  0
  8  9  1  0
  9 10  1  0
 10 11  1  0
 11 12  1  0
 12 13  2  0
 13 14  1  0
 14 15  2  0
 15 16  1  0
 16 17  2  0
 17 18  1  0
 18 19  2  0
 19 20  1  0
 20 21  1  0
 21 22  2  0
 22 23  1  0
 23 24  2  0
 24 25  1  0
 25 26  1  0
 26 27  2  0
 27 28  1  0
 28 29  1  0
 29 30  1  0
 30 31  2  0
 31 32  1  0
 32 33  2  0
 33 34  1  0
 34 35  1  0
 34 36  2  0
 25 37  2  0
 19 38  1  0
 38 39  2  0
 39 12  1  0
 38 15  1  0
 37 21  1  0
 28 24  1  0
 36 30  1  0
M  END
>  <Compound_ID>  (216) 
CHEMBL14515

>  <Active>  (216) 
1.0

>  <Smiles>  (216) 
CS(=O)(=O)CNCCCCOc1ccc2ncnc(Nc3ccc4c(cnn4Cc4cccc(F)c4)c3)c2c1

>  <canonical_smi>  (216) 
CS(=O)(=O)CNCCCCOc1ccc2ncnc(Nc3ccc4c(cnn4Cc4cccc(F)c4)c3)c2c1

>  <Set>  (216) 
G2 active

>  <Set_type>  (216) 
Train

>  <MW>  (216) 
548.64

>  <HBD>  (216) 
2

>  <HBA>  (216) 
8

>  <NRB>  (216) 
12

>  <NR>  (216) 
5

>  <NAR>  (216) 
5

>  <PSA>  (216) 
111.03

>  <Standard Type>  (216) 
nan

>  <Standard Relation>  (216) 
nan

>  <Standard Units>  (216) 
nan

>  <Standard Value>  (216) 
nan

>  <Assay ChEMBL ID>  (216) 
nan

>  <Assay Description>  (216) 
nan

>  <BAO Label>  (216) 
nan

$$$$

     RDKit          2D

 26 29  0  0  0  0  0  0  0  0999 V2000
    3.7500   -1.2990    0.0000 C   0  0  0  0  0  0  0  0  0  0  0  0
    3.0000    0.0000    0.0000 O   0  0  0  0  0  0  0  0  0  0  0  0
    1.5000    0.0000    0.0000 C   0  0  0  0  0  0  0  0  0  0  0  0
    0.7500   -1.2990    0.0000 C   0  0  0  0  0  0  0  0  0  0  0  0
   -0.7500   -1.2990    0.0000 C   0  0  0  0  0  0  0  0  0  0  0  0
   -1.5000   -2.5981    0.0000 N   0  0  0  0  0  0  0  0  0  0  0  0
   -3.0000   -2.5981    0.0000 C   0  0  0  0  0  0  0  0  0  0  0  0
   -3.7500   -1.2990    0.0000 C   0  0  0  0  0  0  0  0  0  0  0  0
   -5.2500   -1.2990    0.0000 C   0  0  0  0  0  0  0  0  0  0  0  0
   -6.7500   -1.2990    0.0000 N   0  0  0  0  0  0  0  0  0  0  0  0
   -3.0000    0.0000    0.0000 C   0  0  0  0  0  0  0  0  0  0  0  0
   -3.7500    1.2990    0.0000 N   0  0  0  0  0  0  0  0  0  0  0  0
   -5.2500    1.2990    0.0000 C   0  0  0  0  0  0  0  0  0  0  0  0
   -6.5490    0.5490    0.0000 C   0  0  0  0  0  0  0  0  0  0  0  0
   -6.5490    2.0490    0.0000 C   0  0  0  0  0  0  0  0  0  0  0  0
   -7.2990    3.3481    0.0000 C   0  0  0  0  0  0  0  0  0  0  0  0
   -6.5490    4.6471    0.0000 C   0  0  0  0  0  0  0  0  0  0  0  0
   -7.2990    5.9462    0.0000 C   0  0  0  0  0  0  0  0  0  0  0  0
   -8.7990    5.9462    0.0000 C   0  0  0  0  0  0  0  0  0  0  0  0
   -9.5490    4.6471    0.0000 C   0  0  0  0  0  0  0  0  0  0  0  0
   -8.7990    3.3481    0.0000 C   0  0  0  0  0  0  0  0  0  0  0  0
   -1.5000    0.0000    0.0000 C   0  0  0  0  0  0  0  0  0  0  0  0
   -0.7500    1.2990    0.0000 C   0  0  0  0  0  0  0  0  0  0  0  0
    0.7500    1.2990    0.0000 C   0  0  0  0  0  0  0  0  0  0  0  0
    1.5000    2.5981    0.0000 O   0  0  0  0  0  0  0  0  0  0  0  0
    3.0000    2.5981    0.0000 C   0  0  0  0  0  0  0  0  0  0  0  0
  1  2  1  0
  2  3  1  0
  3  4  2  0
  4  5  1  0
  5  6  2  0
  6  7  1  0
  7  8  2  0
  8  9  1  0
  9 10  3  0
  8 11  1  0
 11 12  1  0
 13 12  1  6
 13 14  1  0
 14 15  1  0
 15 16  1  1
 16 17  2  0
 17 18  1  0
 18 19  2  0
 19 20  1  0
 20 21  2  0
 11 22  2  0
 22 23  1  0
 23 24  2  0
 24 25  1  0
 25 26  1  0
 24  3  1  0
 22  5  1  0
 15 13  1  0
 21 16  1  0
M  END
>  <Compound_ID>  (217) 
CHEMBL248044

>  <Active>  (217) 
1.0

>  <Smiles>  (217) 
COc1cc2ncc(C#N)c(N[C@@H]3C[C@H]3c3ccccc3)c2cc1OC

>  <canonical_smi>  (217) 
COc1cc2ncc(C#N)c(N[C@@H]3C[C@H]3c3ccccc3)c2cc1OC

>  <Set>  (217) 
G2 active

>  <Set_type>  (217) 
Train

>  <MW>  (217) 
345.4

>  <HBD>  (217) 
1

>  <HBA>  (217) 
5

>  <NRB>  (217) 
5

>  <NR>  (217) 
4

>  <NAR>  (217) 
3

>  <PSA>  (217) 
67.17

>  <Standard Type>  (217) 
nan

>  <Standard Relation>  (217) 
nan

>  <Standard Units>  (217) 
nan

>  <Standard Value>  (217) 
nan

>  <Assay ChEMBL ID>  (217) 
nan

>  <Assay Description>  (217) 
nan

>  <BAO Label>  (217) 
nan

$$$$

     RDKit          2D

 28 31  0  0  0  0  0  0  0  0999 V2000
    6.0000   -0.0000    0.0000 Br  0  0  0  0  0  0  0  0  0  0  0  0
    5.2500   -1.2990    0.0000 C   0  0  0  0  0  0  0  0  0  0  0  0
    6.0000   -2.5981    0.0000 C   0  0  0  0  0  0  0  0  0  0  0  0
    5.2500   -3.8971    0.0000 C   0  0  0  0  0  0  0  0  0  0  0  0
    3.7500   -3.8971    0.0000 C   0  0  0  0  0  0  0  0  0  0  0  0
    3.0000   -2.5981    0.0000 C   0  0  0  0  0  0  0  0  0  0  0  0
    1.5000   -2.5981    0.0000 N   0  0  0  0  0  0  0  0  0  0  0  0
    0.7500   -1.2990    0.0000 C   0  0  0  0  0  0  0  0  0  0  0  0
    1.5000    0.0000    0.0000 N   0  0  0  0  0  0  0  0  0  0  0  0
    0.7500    1.2990    0.0000 C   0  0  0  0  0  0  0  0  0  0  0  0
   -0.7500    1.2990    0.0000 N   0  0  0  0  0  0  0  0  0  0  0  0
   -1.5000    0.0000    0.0000 C   0  0  0  0  0  0  0  0  0  0  0  0
   -3.0000    0.0000    0.0000 C   0  0  0  0  0  0  0  0  0  0  0  0
   -3.7500   -1.2990    0.0000 C   0  0  0  0  0  0  0  0  0  0  0  0
   -3.0000   -2.5981    0.0000 C   0  0  0  0  0  0  0  0  0  0  0  0
   -3.7500   -3.8971    0.0000 N   0  0  0  0  0  0  0  0  0  0  0  0
   -5.2500   -3.8971    0.0000 N   0  0  0  0  0  0  0  0  0  0  0  0
   -6.0000   -5.1962    0.0000 N   0  0  0  0  0  0  0  0  0  0  0  0
   -7.5000   -5.1962    0.0000 C   0  0  0  0  0  0  0  0  0  0  0  0
   -8.2500   -6.4952    0.0000 C   0  0  0  0  0  0  0  0  0  0  0  0
   -9.7500   -6.4952    0.0000 C   0  0  0  0  0  0  0  0  0  0  0  0
  -10.5000   -7.7942    0.0000 C   0  0  0  0  0  0  0  0  0  0  0  0
   -9.7500   -9.0933    0.0000 C   0  0  0  0  0  0  0  0  0  0  0  0
   -8.2500   -9.0933    0.0000 C   0  0  0  0  0  0  0  0  0  0  0  0
   -7.5000   -7.7942    0.0000 C   0  0  0  0  0  0  0  0  0  0  0  0
   -1.5000   -2.5981    0.0000 C   0  0  0  0  0  0  0  0  0  0  0  0
   -0.7500   -1.2990    0.0000 C   0  0  0  0  0  0  0  0  0  0  0  0
    3.7500   -1.2990    0.0000 C   0  0  0  0  0  0  0  0  0  0  0  0
  1  2  1  0
  2  3  2  0
  3  4  1  0
  4  5  2  0
  5  6  1  0
  6  7  1  0
  7  8  1  0
  8  9  2  0
  9 10  1  0
 10 11  2  0
 11 12  1  0
 12 13  2  0
 13 14  1  0
 14 15  2  0
 15 16  1  0
 16 17  1  0
 17 18  2  3
 18 19  1  0
 19 20  1  0
 20 21  2  0
 21 22  1  0
 22 23  2  0
 23 24  1  0
 24 25  2  0
 15 26  1  0
 26 27  2  0
  6 28  2  0
 28  2  1  0
 27  8  1  0
 27 12  1  0
 25 20  1  0
M  END
>  <Compound_ID>  (218) 
CHEMBL424093

>  <Active>  (218) 
1.0

>  <Smiles>  (218) 
Brc1cccc(Nc2ncnc3ccc(NN=NCc4ccccc4)cc23)c1

>  <canonical_smi>  (218) 
Brc1cccc(Nc2ncnc3ccc(NN=NCc4ccccc4)cc23)c1

>  <Set>  (218) 
G2 active

>  <Set_type>  (218) 
Train

>  <MW>  (218) 
433.31

>  <HBD>  (218) 
2

>  <HBA>  (218) 
4

>  <NRB>  (218) 
6

>  <NR>  (218) 
4

>  <NAR>  (218) 
4

>  <PSA>  (218) 
74.56

>  <Standard Type>  (218) 
nan

>  <Standard Relation>  (218) 
nan

>  <Standard Units>  (218) 
nan

>  <Standard Value>  (218) 
nan

>  <Assay ChEMBL ID>  (218) 
nan

>  <Assay Description>  (218) 
nan

>  <BAO Label>  (218) 
nan

$$$$

     RDKit          2D

 19 21  0  0  0  0  0  0  0  0999 V2000
   -0.0000   -5.1073    0.0000 C   0  0  0  0  0  0  0  0  0  0  0  0
   -0.0000   -3.6073    0.0000 C   0  0  0  0  0  0  0  0  0  0  0  0
    1.2135   -2.7256    0.0000 N   0  0  0  0  0  0  0  0  0  0  0  0
    0.7500   -1.2990    0.0000 C   0  0  0  0  0  0  0  0  0  0  0  0
    1.5000    0.0000    0.0000 N   0  0  0  0  0  0  0  0  0  0  0  0
    0.7500    1.2990    0.0000 C   0  0  0  0  0  0  0  0  0  0  0  0
   -0.7500    1.2990    0.0000 N   0  0  0  0  0  0  0  0  0  0  0  0
   -1.5000    0.0000    0.0000 C   0  0  0  0  0  0  0  0  0  0  0  0
   -3.0000    0.0000    0.0000 N   0  0  0  0  0  0  0  0  0  0  0  0
   -3.7500    1.2990    0.0000 C   0  0  0  0  0  0  0  0  0  0  0  0
   -3.0000    2.5981    0.0000 C   0  0  0  0  0  0  0  0  0  0  0  0
   -3.7500    3.8971    0.0000 C   0  0  0  0  0  0  0  0  0  0  0  0
   -5.2500    3.8971    0.0000 C   0  0  0  0  0  0  0  0  0  0  0  0
   -6.0000    2.5981    0.0000 C   0  0  0  0  0  0  0  0  0  0  0  0
   -7.5000    2.5981    0.0000 Br  0  0  0  0  0  0  0  0  0  0  0  0
   -5.2500    1.2990    0.0000 C   0  0  0  0  0  0  0  0  0  0  0  0
   -0.7500   -1.2990    0.0000 C   0  0  0  0  0  0  0  0  0  0  0  0
   -1.2135   -2.7256    0.0000 C   0  0  0  0  0  0  0  0  0  0  0  0
   -2.6401   -3.1891    0.0000 C   0  0  0  0  0  0  0  0  0  0  0  0
  1  2  1  0
  2  3  1  0
  3  4  1  0
  4  5  2  0
  5  6  1  0
  6  7  2  0
  7  8  1  0
  8  9  1  0
  9 10  1  0
 10 11  2  0
 11 12  1  0
 12 13  2  0
 13 14  1  0
 14 15  1  0
 14 16  2  0
  8 17  2  0
 17 18  1  0
 18 19  1  0
 18  2  2  0
 17  4  1  0
 16 10  1  0
M  END
>  <Compound_ID>  (219) 
CHEMBL74722

>  <Active>  (219) 
1.0

>  <Smiles>  (219) 
Cc1[nH]c2ncnc(Nc3cccc(Br)c3)c2c1C

>  <canonical_smi>  (219) 
Cc1[nH]c2ncnc(Nc3cccc(Br)c3)c2c1C

>  <Set>  (219) 
G2 active

>  <Set_type>  (219) 
Train

>  <MW>  (219) 
317.19

>  <HBD>  (219) 
2

>  <HBA>  (219) 
3

>  <NRB>  (219) 
2

>  <NR>  (219) 
3

>  <NAR>  (219) 
3

>  <PSA>  (219) 
53.6

>  <Standard Type>  (219) 
nan

>  <Standard Relation>  (219) 
nan

>  <Standard Units>  (219) 
nan

>  <Standard Value>  (219) 
nan

>  <Assay ChEMBL ID>  (219) 
nan

>  <Assay Description>  (219) 
nan

>  <BAO Label>  (219) 
nan

$$$$

     RDKit          2D

 28 31  0  0  0  0  0  0  0  0999 V2000
    3.0000   -5.1962    0.0000 C   0  0  0  0  0  0  0  0  0  0  0  0
    1.5000   -5.1962    0.0000 O   0  0  0  0  0  0  0  0  0  0  0  0
    0.7500   -3.8971    0.0000 C   0  0  0  0  0  0  0  0  0  0  0  0
    1.5000   -2.5981    0.0000 C   0  0  0  0  0  0  0  0  0  0  0  0
    0.7500   -1.2990    0.0000 C   0  0  0  0  0  0  0  0  0  0  0  0
    1.5000    0.0000    0.0000 N   0  0  0  0  0  0  0  0  0  0  0  0
    0.7500    1.2990    0.0000 C   0  0  0  0  0  0  0  0  0  0  0  0
   -0.7500    1.2990    0.0000 N   0  0  0  0  0  0  0  0  0  0  0  0
   -1.5000    0.0000    0.0000 C   0  0  0  0  0  0  0  0  0  0  0  0
   -3.0000    0.0000    0.0000 C   0  0  0  0  0  0  0  0  0  0  0  0
   -4.5000    0.0000    0.0000 C   0  0  0  0  0  0  0  0  0  0  0  0
   -6.0000    0.0000    0.0000 C   0  0  0  0  0  0  0  0  0  0  0  0
   -6.7500    1.2990    0.0000 C   0  0  0  0  0  0  0  0  0  0  0  0
   -8.2500    1.2990    0.0000 C   0  0  0  0  0  0  0  0  0  0  0  0
   -9.0000    0.0000    0.0000 C   0  0  0  0  0  0  0  0  0  0  0  0
   -8.2500   -1.2990    0.0000 C   0  0  0  0  0  0  0  0  0  0  0  0
   -6.7500   -1.2990    0.0000 C   0  0  0  0  0  0  0  0  0  0  0  0
   -6.0000   -2.5981    0.0000 C   0  0  0  0  0  0  0  0  0  0  0  0
   -6.7500   -3.8971    0.0000 C   0  0  0  0  0  0  0  0  0  0  0  0
   -6.0000   -5.1962    0.0000 C   0  0  0  0  0  0  0  0  0  0  0  0
   -4.5000   -5.1962    0.0000 C   0  0  0  0  0  0  0  0  0  0  0  0
   -3.7500   -3.8971    0.0000 C   0  0  0  0  0  0  0  0  0  0  0  0
   -4.5000   -2.5981    0.0000 C   0  0  0  0  0  0  0  0  0  0  0  0
   -0.7500   -1.2990    0.0000 C   0  0  0  0  0  0  0  0  0  0  0  0
   -1.5000   -2.5981    0.0000 C   0  0  0  0  0  0  0  0  0  0  0  0
   -0.7500   -3.8971    0.0000 C   0  0  0  0  0  0  0  0  0  0  0  0
   -1.5000   -5.1962    0.0000 O   0  0  0  0  0  0  0  0  0  0  0  0
   -3.0000   -5.1962    0.0000 C   0  0  0  0  0  0  0  0  0  0  0  0
  1  2  1  0
  2  3  1  0
  3  4  2  0
  4  5  1  0
  5  6  2  0
  6  7  1  0
  7  8  2  0
  8  9  1  0
  9 10  1  0
 10 11  3  0
 11 12  1  0
 12 13  2  0
 13 14  1  0
 14 15  2  0
 15 16  1  0
 16 17  2  0
 17 18  1  0
 18 19  2  0
 19 20  1  0
 20 21  2  0
 21 22  1  0
 22 23  2  0
  9 24  2  0
 24 25  1  0
 25 26  2  0
 26 27  1  0
 27 28  1  0
 26  3  1  0
 24  5  1  0
 17 12  1  0
 23 18  1  0
M  END
>  <Compound_ID>  (220) 
CHEMBL250924

>  <Active>  (220) 
1.0

>  <Smiles>  (220) 
COc1cc2ncnc(C#Cc3ccccc3-c3ccccc3)c2cc1OC

>  <canonical_smi>  (220) 
COc1cc2ncnc(C#Cc3ccccc3-c3ccccc3)c2cc1OC

>  <Set>  (220) 
G2 active

>  <Set_type>  (220) 
Train

>  <MW>  (220) 
366.42

>  <HBD>  (220) 
0

>  <HBA>  (220) 
4

>  <NRB>  (220) 
3

>  <NR>  (220) 
4

>  <NAR>  (220) 
4

>  <PSA>  (220) 
44.24

>  <Standard Type>  (220) 
nan

>  <Standard Relation>  (220) 
nan

>  <Standard Units>  (220) 
nan

>  <Standard Value>  (220) 
nan

>  <Assay ChEMBL ID>  (220) 
nan

>  <Assay Description>  (220) 
nan

>  <BAO Label>  (220) 
nan

$$$$

     RDKit          2D

 35 39  0  0  0  0  0  0  0  0999 V2000
    6.2083   -1.3138    0.0000 C   0  0  0  0  0  0  0  0  0  0  0  0
    6.6718   -2.7404    0.0000 O   0  0  0  0  0  0  0  0  0  0  0  0
    5.6682   -3.8551    0.0000 C   0  0  0  0  0  0  0  0  0  0  0  0
    6.1317   -5.2817    0.0000 C   0  0  0  0  0  0  0  0  0  0  0  0
    7.5583   -5.7452    0.0000 C   0  0  0  0  0  0  0  0  0  0  0  0
    7.5583   -7.2452    0.0000 C   0  0  0  0  0  0  0  0  0  0  0  0
    6.1317   -7.7087    0.0000 C   0  0  0  0  0  0  0  0  0  0  0  0
    5.2500   -6.4952    0.0000 N   0  0  0  0  0  0  0  0  0  0  0  0
    3.7500   -6.4952    0.0000 N   0  0  0  0  0  0  0  0  0  0  0  0
    3.0000   -5.1962    0.0000 C   0  0  0  0  0  0  0  0  0  0  0  0
    1.5000   -5.1962    0.0000 C   0  0  0  0  0  0  0  0  0  0  0  0
    0.7500   -6.4952    0.0000 C   0  0  0  0  0  0  0  0  0  0  0  0
    1.5000   -7.7942    0.0000 N   0  0  0  0  0  0  0  0  0  0  0  0
   -0.7500   -6.4952    0.0000 N   0  0  0  0  0  0  0  0  0  0  0  0
   -1.5000   -5.1962    0.0000 C   0  0  0  0  0  0  0  0  0  0  0  0
   -0.7500   -3.8971    0.0000 N   0  0  0  0  0  0  0  0  0  0  0  0
    0.7500   -3.8971    0.0000 C   0  0  0  0  0  0  0  0  0  0  0  0
    1.5000   -2.5981    0.0000 N   0  0  0  0  0  0  0  0  0  0  0  0
    0.7500   -1.2990    0.0000 C   0  0  0  0  0  0  0  0  0  0  0  0
   -0.7500   -1.2990    0.0000 C   0  0  0  0  0  0  0  0  0  0  0  0
   -1.5000   -0.0000    0.0000 C   0  0  0  0  0  0  0  0  0  0  0  0
   -0.7500    1.2990    0.0000 C   0  0  0  0  0  0  0  0  0  0  0  0
    0.7500    1.2990    0.0000 C   0  0  0  0  0  0  0  0  0  0  0  0
    1.2135    2.7256    0.0000 C   0  0  0  0  0  0  0  0  0  0  0  0
   -0.0000    3.6073    0.0000 N   0  0  0  0  0  0  0  0  0  0  0  0
   -1.2135    2.7256    0.0000 N   0  0  0  0  0  0  0  0  0  0  0  0
   -2.6401    3.1891    0.0000 C   0  0  0  0  0  0  0  0  0  0  0  0
   -2.9520    4.6564    0.0000 C   0  0  0  0  0  0  0  0  0  0  0  0
   -4.3786    5.1199    0.0000 C   0  0  0  0  0  0  0  0  0  0  0  0
   -4.6904    6.5871    0.0000 C   0  0  0  0  0  0  0  0  0  0  0  0
   -3.5757    7.5908    0.0000 C   0  0  0  0  0  0  0  0  0  0  0  0
   -2.1491    7.1273    0.0000 C   0  0  0  0  0  0  0  0  0  0  0  0
   -1.0344    8.1310    0.0000 F   0  0  0  0  0  0  0  0  0  0  0  0
   -1.8373    5.6601    0.0000 C   0  0  0  0  0  0  0  0  0  0  0  0
    1.5000   -0.0000    0.0000 C   0  0  0  0  0  0  0  0  0  0  0  0
  1  2  1  0
  2  3  1  0
  4  3  1  6
  4  5  1  0
  5  6  1  0
  6  7  1  0
  7  8  1  0
  8  9  1  0
  9 10  2  0
 10 11  1  0
 11 12  2  0
 12 13  1  0
 12 14  1  0
 14 15  2  0
 15 16  1  0
 16 17  2  0
 17 18  1  0
 18 19  1  0
 19 20  2  0
 20 21  1  0
 21 22  2  0
 22 23  1  0
 23 24  1  0
 24 25  2  0
 25 26  1  0
 26 27  1  0
 27 28  1  0
 28 29  2  0
 29 30  1  0
 30 31  2  0
 31 32  1  0
 32 33  1  0
 32 34  2  0
 23 35  2  0
  8  4  1  0
 17 11  1  0
 35 19  1  0
 26 22  1  0
 34 28  1  0
M  END
>  <Compound_ID>  (221) 
CHEMBL456758

>  <Active>  (221) 
1.0

>  <Smiles>  (221) 
COC[C@@H]1CCCN1/N=C/c1c(N)ncnc1Nc1ccc2c(cnn2Cc2cccc(F)c2)c1

>  <canonical_smi>  (221) 
COC[C@@H]1CCCN1/N=C/c1c(N)ncnc1Nc1ccc2c(cnn2Cc2cccc(F)c2)c1

>  <Set>  (221) 
G2 active

>  <Set_type>  (221) 
Train

>  <MW>  (221) 
474.54

>  <HBD>  (221) 
2

>  <HBA>  (221) 
7

>  <NRB>  (221) 
8

>  <NR>  (221) 
5

>  <NAR>  (221) 
4

>  <PSA>  (221) 
106.48

>  <Standard Type>  (221) 
nan

>  <Standard Relation>  (221) 
nan

>  <Standard Units>  (221) 
nan

>  <Standard Value>  (221) 
nan

>  <Assay ChEMBL ID>  (221) 
nan

>  <Assay Description>  (221) 
nan

>  <BAO Label>  (221) 
nan

$$$$

     RDKit          2D

 21 24  0  0  0  0  0  0  0  0999 V2000
   -7.3624   -4.0385    0.0000 Br  0  0  0  0  0  0  0  0  0  0  0  0
   -7.0505   -2.5713    0.0000 C   0  0  0  0  0  0  0  0  0  0  0  0
   -8.1652   -1.5676    0.0000 C   0  0  0  0  0  0  0  0  0  0  0  0
   -7.8533   -0.1004    0.0000 C   0  0  0  0  0  0  0  0  0  0  0  0
   -6.4268    0.3631    0.0000 C   0  0  0  0  0  0  0  0  0  0  0  0
   -5.3120   -0.6406    0.0000 C   0  0  0  0  0  0  0  0  0  0  0  0
   -3.8855   -0.1771    0.0000 N   0  0  0  0  0  0  0  0  0  0  0  0
   -3.5736    1.2902    0.0000 C   0  0  0  0  0  0  0  0  0  0  0  0
   -4.6883    2.2939    0.0000 N   0  0  0  0  0  0  0  0  0  0  0  0
   -4.3764    3.7611    0.0000 C   0  0  0  0  0  0  0  0  0  0  0  0
   -2.9499    4.2246    0.0000 N   0  0  0  0  0  0  0  0  0  0  0  0
   -1.8351    3.2209    0.0000 C   0  0  0  0  0  0  0  0  0  0  0  0
   -0.4086    3.6844    0.0000 C   0  0  0  0  0  0  0  0  0  0  0  0
    0.7062    2.6807    0.0000 C   0  0  0  0  0  0  0  0  0  0  0  0
    0.3943    1.2135    0.0000 C   0  0  0  0  0  0  0  0  0  0  0  0
    1.2760    0.0000    0.0000 N   0  0  0  0  0  0  0  0  0  0  0  0
    0.3943   -1.2135    0.0000 C   0  0  0  0  0  0  0  0  0  0  0  0
   -1.0323   -0.7500    0.0000 N   0  0  0  0  0  0  0  0  0  0  0  0
   -1.0323    0.7500    0.0000 C   0  0  0  0  0  0  0  0  0  0  0  0
   -2.1470    1.7537    0.0000 C   0  0  0  0  0  0  0  0  0  0  0  0
   -5.6239   -2.1078    0.0000 C   0  0  0  0  0  0  0  0  0  0  0  0
  1  2  1  0
  2  3  2  0
  3  4  1  0
  4  5  2  0
  5  6  1  0
  6  7  1  0
  7  8  1  0
  8  9  2  0
  9 10  1  0
 10 11  2  0
 11 12  1  0
 12 13  2  0
 13 14  1  0
 14 15  2  0
 15 16  1  0
 16 17  1  0
 17 18  2  0
 18 19  1  0
 19 20  2  0
  6 21  2  0
 21  2  1  0
 20  8  1  0
 20 12  1  0
 19 15  1  0
M  END
>  <Compound_ID>  (222) 
CHEMBL153170

>  <Active>  (222) 
1.0

>  <Smiles>  (222) 
Brc1cccc(Nc2ncnc3ccc4[nH]cnc4c23)c1

>  <canonical_smi>  (222) 
Brc1cccc(Nc2ncnc3ccc4[nH]cnc4c23)c1

>  <Set>  (222) 
G2 active

>  <Set_type>  (222) 
Train

>  <MW>  (222) 
340.18

>  <HBD>  (222) 
2

>  <HBA>  (222) 
4

>  <NRB>  (222) 
2

>  <NR>  (222) 
4

>  <NAR>  (222) 
4

>  <PSA>  (222) 
66.49

>  <Standard Type>  (222) 
nan

>  <Standard Relation>  (222) 
nan

>  <Standard Units>  (222) 
nan

>  <Standard Value>  (222) 
nan

>  <Assay ChEMBL ID>  (222) 
nan

>  <Assay Description>  (222) 
nan

>  <BAO Label>  (222) 
nan

$$$$

     RDKit          2D

 21 24  0  0  0  0  0  0  0  0999 V2000
    8.9651   -1.9109    0.0000 Cl  0  0  0  0  0  0  0  0  0  0  0  0
    7.7515   -2.7926    0.0000 C   0  0  0  0  0  0  0  0  0  0  0  0
    7.9083   -4.2844    0.0000 C   0  0  0  0  0  0  0  0  0  0  0  0
    6.6948   -5.1660    0.0000 C   0  0  0  0  0  0  0  0  0  0  0  0
    5.3245   -4.5559    0.0000 C   0  0  0  0  0  0  0  0  0  0  0  0
    5.1677   -3.0642    0.0000 C   0  0  0  0  0  0  0  0  0  0  0  0
    3.7974   -2.4540    0.0000 N   0  0  0  0  0  0  0  0  0  0  0  0
    2.5838   -3.3357    0.0000 C   0  0  0  0  0  0  0  0  0  0  0  0
    2.7406   -4.8275    0.0000 N   0  0  0  0  0  0  0  0  0  0  0  0
    1.5271   -5.7092    0.0000 C   0  0  0  0  0  0  0  0  0  0  0  0
    0.1568   -5.0991    0.0000 N   0  0  0  0  0  0  0  0  0  0  0  0
   -0.0000   -3.6073    0.0000 C   0  0  0  0  0  0  0  0  0  0  0  0
   -1.2135   -2.7256    0.0000 N   0  0  0  0  0  0  0  0  0  0  0  0
   -0.7500   -1.2990    0.0000 C   0  0  0  0  0  0  0  0  0  0  0  0
    0.7500   -1.2990    0.0000 C   0  0  0  0  0  0  0  0  0  0  0  0
    1.2135   -2.7256    0.0000 C   0  0  0  0  0  0  0  0  0  0  0  0
    1.5000    0.0000    0.0000 C   0  0  0  0  0  0  0  0  0  0  0  0
    0.7500    1.2990    0.0000 C   0  0  0  0  0  0  0  0  0  0  0  0
   -0.7500    1.2990    0.0000 C   0  0  0  0  0  0  0  0  0  0  0  0
   -1.5000    0.0000    0.0000 C   0  0  0  0  0  0  0  0  0  0  0  0
    6.3812   -2.1825    0.0000 C   0  0  0  0  0  0  0  0  0  0  0  0
  1  2  1  0
  2  3  2  0
  3  4  1  0
  4  5  2  0
  5  6  1  0
  6  7  1  0
  7  8  1  0
  8  9  1  0
  9 10  1  0
 10 11  2  0
 11 12  1  0
 12 13  2  0
 13 14  1  0
 14 15  2  0
 15 16  1  0
 15 17  1  0
 17 18  1  0
 18 19  1  0
 19 20  1  0
  6 21  2  0
 21  2  1  0
 16  8  2  0
 16 12  1  0
 20 14  1  0
M  END
>  <Compound_ID>  (223) 
CHEMBL75177

>  <Active>  (223) 
1.0

>  <Smiles>  (223) 
Clc1cccc(Nc2[nH]cnc3nc4c(c2-3)CCCC4)c1

>  <canonical_smi>  (223) 
Clc1cccc(Nc2[nH]cnc3nc4c(c2-3)CCCC4)c1

>  <Set>  (223) 
G2 active

>  <Set_type>  (223) 
Train

>  <MW>  (223) 
298.78

>  <HBD>  (223) 
2

>  <HBA>  (223) 
3

>  <NRB>  (223) 
2

>  <NR>  (223) 
4

>  <NAR>  (223) 
3

>  <PSA>  (223) 
53.6

>  <Standard Type>  (223) 
nan

>  <Standard Relation>  (223) 
nan

>  <Standard Units>  (223) 
nan

>  <Standard Value>  (223) 
nan

>  <Assay ChEMBL ID>  (223) 
nan

>  <Assay Description>  (223) 
nan

>  <BAO Label>  (223) 
nan

$$$$

     RDKit          2D

 20 21  0  0  0  0  0  0  0  0999 V2000
    3.7500    1.2990    0.0000 O   0  0  0  0  0  0  0  0  0  0  0  0
    3.0000    0.0000    0.0000 C   0  0  0  0  0  0  0  0  0  0  0  0
    3.7500   -1.2990    0.0000 O   0  0  0  0  0  0  0  0  0  0  0  0
    1.5000    0.0000    0.0000 C   0  0  0  0  0  0  0  0  0  0  0  0
    0.7500   -1.2990    0.0000 C   0  0  0  0  0  0  0  0  0  0  0  0
   -0.7500   -1.2990    0.0000 C   0  0  0  0  0  0  0  0  0  0  0  0
   -1.5000   -2.5981    0.0000 N   0  0  0  0  0  0  0  0  0  0  0  0
   -3.0000   -2.5981    0.0000 C   0  0  0  0  0  0  0  0  0  0  0  0
   -3.7500   -3.8971    0.0000 C   0  0  0  0  0  0  0  0  0  0  0  0
   -5.2500   -3.8971    0.0000 C   0  0  0  0  0  0  0  0  0  0  0  0
   -6.0000   -5.1962    0.0000 C   0  0  0  0  0  0  0  0  0  0  0  0
   -7.5000   -5.1962    0.0000 O   0  0  0  0  0  0  0  0  0  0  0  0
   -5.2500   -6.4952    0.0000 C   0  0  0  0  0  0  0  0  0  0  0  0
   -3.7500   -6.4952    0.0000 C   0  0  0  0  0  0  0  0  0  0  0  0
   -3.0000   -5.1962    0.0000 C   0  0  0  0  0  0  0  0  0  0  0  0
   -1.5000   -5.1962    0.0000 O   0  0  0  0  0  0  0  0  0  0  0  0
   -1.5000    0.0000    0.0000 C   0  0  0  0  0  0  0  0  0  0  0  0
   -0.7500    1.2990    0.0000 C   0  0  0  0  0  0  0  0  0  0  0  0
    0.7500    1.2990    0.0000 C   0  0  0  0  0  0  0  0  0  0  0  0
    1.5000    2.5981    0.0000 O   0  0  0  0  0  0  0  0  0  0  0  0
  1  2  2  0
  2  3  1  0
  2  4  1  0
  4  5  2  0
  5  6  1  0
  6  7  1  0
  7  8  1  0
  8  9  1  0
  9 10  2  0
 10 11  1  0
 11 12  1  0
 11 13  2  0
 13 14  1  0
 14 15  2  0
 15 16  1  0
  6 17  2  0
 17 18  1  0
 18 19  2  0
 19 20  1  0
 19  4  1  0
 15  9  1  0
M  END
>  <Compound_ID>  (224) 
CHEMBL319620

>  <Active>  (224) 
1.0

>  <Smiles>  (224) 
O=C(O)c1cc(NCc2cc(O)ccc2O)ccc1O

>  <canonical_smi>  (224) 
O=C(O)c1cc(NCc2cc(O)ccc2O)ccc1O

>  <Set>  (224) 
G2 active

>  <Set_type>  (224) 
Train

>  <MW>  (224) 
275.26

>  <HBD>  (224) 
5

>  <HBA>  (224) 
6

>  <NRB>  (224) 
4

>  <NR>  (224) 
2

>  <NAR>  (224) 
2

>  <PSA>  (224) 
110.02

>  <Standard Type>  (224) 
nan

>  <Standard Relation>  (224) 
nan

>  <Standard Units>  (224) 
nan

>  <Standard Value>  (224) 
nan

>  <Assay ChEMBL ID>  (224) 
nan

>  <Assay Description>  (224) 
nan

>  <BAO Label>  (224) 
nan

$$$$

     RDKit          2D

 28 31  0  0  0  0  0  0  0  0999 V2000
   -2.2500   -6.4952    0.0000 N   0  0  0  0  0  0  0  0  0  0  0  0
   -1.5000   -5.1962    0.0000 C   0  0  0  0  0  0  0  0  0  0  0  0
   -0.7500   -3.8971    0.0000 C   0  0  0  0  0  0  0  0  0  0  0  0
    0.7500   -3.8971    0.0000 C   0  0  0  0  0  0  0  0  0  0  0  0
    1.5000   -2.5981    0.0000 N   0  0  0  0  0  0  0  0  0  0  0  0
    0.7500   -1.2990    0.0000 C   0  0  0  0  0  0  0  0  0  0  0  0
    1.5000    0.0000    0.0000 C   0  0  0  0  0  0  0  0  0  0  0  0
    0.7500    1.2990    0.0000 C   0  0  0  0  0  0  0  0  0  0  0  0
   -0.7500    1.2990    0.0000 C   0  0  0  0  0  0  0  0  0  0  0  0
   -1.5000    2.5981    0.0000 N   0  0  0  0  0  0  0  0  0  0  0  0
   -0.7500    3.8971    0.0000 C   0  0  0  0  0  0  0  0  0  0  0  0
   -1.5000    5.1962    0.0000 C   0  0  0  0  0  0  0  0  0  0  0  0
   -2.9918    5.3529    0.0000 C   0  0  0  0  0  0  0  0  0  0  0  0
   -3.3037    6.8202    0.0000 N   0  0  0  0  0  0  0  0  0  0  0  0
   -2.0046    7.5702    0.0000 C   0  0  0  0  0  0  0  0  0  0  0  0
   -0.8899    6.5665    0.0000 N   0  0  0  0  0  0  0  0  0  0  0  0
   -1.5000    0.0000    0.0000 C   0  0  0  0  0  0  0  0  0  0  0  0
   -0.7500   -1.2990    0.0000 C   0  0  0  0  0  0  0  0  0  0  0  0
   -1.5000   -2.5981    0.0000 C   0  0  0  0  0  0  0  0  0  0  0  0
   -3.0000   -2.5981    0.0000 N   0  0  0  0  0  0  0  0  0  0  0  0
   -3.7500   -1.2990    0.0000 C   0  0  0  0  0  0  0  0  0  0  0  0
   -3.0000    0.0000    0.0000 C   0  0  0  0  0  0  0  0  0  0  0  0
   -3.7500    1.2990    0.0000 C   0  0  0  0  0  0  0  0  0  0  0  0
   -5.2500    1.2990    0.0000 C   0  0  0  0  0  0  0  0  0  0  0  0
   -6.0000    2.5981    0.0000 F   0  0  0  0  0  0  0  0  0  0  0  0
   -6.0000    0.0000    0.0000 C   0  0  0  0  0  0  0  0  0  0  0  0
   -7.5000    0.0000    0.0000 Cl  0  0  0  0  0  0  0  0  0  0  0  0
   -5.2500   -1.2990    0.0000 C   0  0  0  0  0  0  0  0  0  0  0  0
  1  2  3  0
  2  3  1  0
  3  4  2  0
  4  5  1  0
  5  6  2  0
  6  7  1  0
  7  8  2  0
  8  9  1  0
  9 10  1  0
 10 11  1  0
 11 12  1  0
 12 13  2  0
 13 14  1  0
 14 15  1  0
 15 16  2  0
  9 17  2  0
 17 18  1  0
 18 19  2  0
 19 20  1  0
 20 21  1  0
 21 22  2  0
 22 23  1  0
 23 24  2  0
 24 25  1  0
 24 26  1  0
 26 27  1  0
 26 28  2  0
 19  3  1  0
 28 21  1  0
 18  6  1  0
 16 12  1  0
M  END
>  <Compound_ID>  (225) 
CHEMBL220037

>  <Active>  (225) 
1.0

>  <Smiles>  (225) 
N#Cc1cnc2ccc(NCc3c[nH]cn3)cc2c1Nc1ccc(F)c(Cl)c1

>  <canonical_smi>  (225) 
N#Cc1cnc2ccc(NCc3c[nH]cn3)cc2c1Nc1ccc(F)c(Cl)c1

>  <Set>  (225) 
G2 active

>  <Set_type>  (225) 
Train

>  <MW>  (225) 
392.83

>  <HBD>  (225) 
3

>  <HBA>  (225) 
5

>  <NRB>  (225) 
5

>  <NR>  (225) 
4

>  <NAR>  (225) 
4

>  <PSA>  (225) 
89.42

>  <Standard Type>  (225) 
nan

>  <Standard Relation>  (225) 
nan

>  <Standard Units>  (225) 
nan

>  <Standard Value>  (225) 
nan

>  <Assay ChEMBL ID>  (225) 
nan

>  <Assay Description>  (225) 
nan

>  <BAO Label>  (225) 
nan

$$$$

     RDKit          2D

 29 32  0  0  0  0  0  0  0  0999 V2000
    0.7500   -9.0933    0.0000 C   0  0  0  0  0  0  0  0  0  0  0  0
    1.5000   -7.7942    0.0000 O   0  0  0  0  0  0  0  0  0  0  0  0
    0.7500   -6.4952    0.0000 C   0  0  0  0  0  0  0  0  0  0  0  0
   -0.7500   -6.4952    0.0000 C   0  0  0  0  0  0  0  0  0  0  0  0
   -1.5000   -5.1962    0.0000 C   0  0  0  0  0  0  0  0  0  0  0  0
   -0.7500   -3.8971    0.0000 C   0  0  0  0  0  0  0  0  0  0  0  0
    0.7500   -3.8971    0.0000 C   0  0  0  0  0  0  0  0  0  0  0  0
    1.5000   -2.5981    0.0000 N   0  0  0  0  0  0  0  0  0  0  0  0
    0.7500   -1.2990    0.0000 C   0  0  0  0  0  0  0  0  0  0  0  0
    1.5000    0.0000    0.0000 N   0  0  0  0  0  0  0  0  0  0  0  0
    0.7500    1.2990    0.0000 C   0  0  0  0  0  0  0  0  0  0  0  0
   -0.7500    1.2990    0.0000 C   0  0  0  0  0  0  0  0  0  0  0  0
   -1.5000    2.5981    0.0000 C   0  0  0  0  0  0  0  0  0  0  0  0
   -3.0000    2.5981    0.0000 C   0  0  0  0  0  0  0  0  0  0  0  0
   -3.7500    3.8971    0.0000 C   0  0  0  0  0  0  0  0  0  0  0  0
   -3.0000    5.1962    0.0000 C   0  0  0  0  0  0  0  0  0  0  0  0
   -1.5000    5.1962    0.0000 Cl  0  0  0  0  0  0  0  0  0  0  0  0
   -3.7500    6.4952    0.0000 C   0  0  0  0  0  0  0  0  0  0  0  0
   -5.2500    6.4952    0.0000 C   0  0  0  0  0  0  0  0  0  0  0  0
   -6.0000    5.1962    0.0000 C   0  0  0  0  0  0  0  0  0  0  0  0
   -5.2500    3.8971    0.0000 C   0  0  0  0  0  0  0  0  0  0  0  0
   -6.0000    2.5981    0.0000 Cl  0  0  0  0  0  0  0  0  0  0  0  0
   -3.7500    1.2990    0.0000 C   0  0  0  0  0  0  0  0  0  0  0  0
   -5.2500    1.2990    0.0000 O   0  0  0  0  0  0  0  0  0  0  0  0
   -3.0000    0.0000    0.0000 N   0  0  0  0  0  0  0  0  0  0  0  0
   -3.7500   -1.2990    0.0000 C   0  0  0  0  0  0  0  0  0  0  0  0
   -1.5000    0.0000    0.0000 C   0  0  0  0  0  0  0  0  0  0  0  0
   -0.7500   -1.2990    0.0000 N   0  0  0  0  0  0  0  0  0  0  0  0
    1.5000   -5.1962    0.0000 C   0  0  0  0  0  0  0  0  0  0  0  0
  1  2  1  0
  2  3  1  0
  3  4  2  0
  4  5  1  0
  5  6  2  0
  6  7  1  0
  7  8  1  0
  8  9  1  0
  9 10  2  0
 10 11  1  0
 11 12  2  0
 12 13  1  0
 13 14  2  0
 14 15  1  0
 15 16  2  0
 16 17  1  0
 16 18  1  0
 18 19  2  0
 19 20  1  0
 20 21  2  0
 21 22  1  0
 14 23  1  0
 23 24  2  0
 23 25  1  0
 25 26  1  0
 25 27  1  0
 27 28  2  0
  7 29  2  0
 29  3  1  0
 28  9  1  0
 27 12  1  0
 21 15  1  0
M  END
>  <Compound_ID>  (226) 
CHEMBL111197

>  <Active>  (226) 
1.0

>  <Smiles>  (226) 
COc1cccc(Nc2ncc3cc(-c4c(Cl)cccc4Cl)c(=O)n(C)c3n2)c1

>  <canonical_smi>  (226) 
COc1cccc(Nc2ncc3cc(-c4c(Cl)cccc4Cl)c(=O)n(C)c3n2)c1

>  <Set>  (226) 
G2 active

>  <Set_type>  (226) 
Train

>  <MW>  (226) 
427.29

>  <HBD>  (226) 
1

>  <HBA>  (226) 
5

>  <NRB>  (226) 
4

>  <NR>  (226) 
4

>  <NAR>  (226) 
4

>  <PSA>  (226) 
69.04

>  <Standard Type>  (226) 
nan

>  <Standard Relation>  (226) 
nan

>  <Standard Units>  (226) 
nan

>  <Standard Value>  (226) 
nan

>  <Assay ChEMBL ID>  (226) 
nan

>  <Assay Description>  (226) 
nan

>  <BAO Label>  (226) 
nan

$$$$

     RDKit          2D

 32 37  0  0  0  0  0  0  0  0999 V2000
    1.5000    0.0000    0.0000 C   0  0  0  0  0  0  0  0  0  0  0  0
    0.7500   -1.2990    0.0000 C   0  0  0  0  0  0  0  0  0  0  0  0
   -0.7500   -1.2990    0.0000 C   0  0  0  0  0  0  0  0  0  0  0  0
   -1.5000   -2.5981    0.0000 N   0  0  0  0  0  0  0  0  0  0  0  0
   -0.7500   -3.8971    0.0000 C   0  0  0  0  0  0  0  0  0  0  0  0
    0.7500   -3.8971    0.0000 C   0  0  0  0  0  0  0  0  0  0  0  0
    1.5000   -5.1962    0.0000 C   0  0  0  0  0  0  0  0  0  0  0  0
    0.7500   -6.4952    0.0000 C   0  0  0  0  0  0  0  0  0  0  0  0
    1.2135   -7.9218    0.0000 N   0  0  0  0  0  0  0  0  0  0  0  0
    0.0000   -8.8035    0.0000 C   0  0  0  0  0  0  0  0  0  0  0  0
   -1.2135   -7.9218    0.0000 C   0  0  0  0  0  0  0  0  0  0  0  0
   -0.7500   -6.4952    0.0000 C   0  0  0  0  0  0  0  0  0  0  0  0
   -1.5000   -5.1962    0.0000 C   0  0  0  0  0  0  0  0  0  0  0  0
   -1.5000    0.0000    0.0000 C   0  0  0  0  0  0  0  0  0  0  0  0
   -2.9672    0.3119    0.0000 S   0  0  0  0  0  0  0  0  0  0  0  0
   -3.1240    1.8037    0.0000 C   0  0  0  0  0  0  0  0  0  0  0  0
   -4.4231    2.5537    0.0000 C   0  0  0  0  0  0  0  0  0  0  0  0
   -4.4231    4.0537    0.0000 C   0  0  0  0  0  0  0  0  0  0  0  0
   -5.7221    4.8037    0.0000 C   0  0  0  0  0  0  0  0  0  0  0  0
   -7.0211    4.0537    0.0000 C   0  0  0  0  0  0  0  0  0  0  0  0
   -8.3202    4.8037    0.0000 C   0  0  0  0  0  0  0  0  0  0  0  0
   -8.3202    6.3037    0.0000 N   0  0  0  0  0  0  0  0  0  0  0  0
   -7.0211    7.0537    0.0000 C   0  0  0  0  0  0  0  0  0  0  0  0
   -7.0211    8.5537    0.0000 C   0  0  0  0  0  0  0  0  0  0  0  0
   -8.3202    9.3037    0.0000 O   0  0  0  0  0  0  0  0  0  0  0  0
   -9.6192    8.5537    0.0000 C   0  0  0  0  0  0  0  0  0  0  0  0
   -9.6192    7.0537    0.0000 C   0  0  0  0  0  0  0  0  0  0  0  0
   -7.0211    2.5537    0.0000 C   0  0  0  0  0  0  0  0  0  0  0  0
   -5.7221    1.8037    0.0000 C   0  0  0  0  0  0  0  0  0  0  0  0
   -1.7537    2.4138    0.0000 C   0  0  0  0  0  0  0  0  0  0  0  0
   -0.7500    1.2990    0.0000 C   0  0  0  0  0  0  0  0  0  0  0  0
    0.7500    1.2990    0.0000 N   0  0  0  0  0  0  0  0  0  0  0  0
  1  2  2  0
  2  3  1  0
  3  4  1  0
  4  5  1  0
  5  6  2  0
  6  7  1  0
  7  8  2  0
  8  9  1  0
  9 10  1  0
 10 11  2  0
 11 12  1  0
 12 13  2  0
  3 14  2  0
 14 15  1  0
 15 16  1  0
 16 17  1  0
 17 18  2  0
 18 19  1  0
 19 20  2  0
 20 21  1  0
 21 22  1  0
 22 23  1  0
 23 24  1  0
 24 25  1  0
 25 26  1  0
 26 27  1  0
 20 28  1  0
 28 29  2  0
 16 30  2  0
 30 31  1  0
 31 32  2  0
 32  1  1  0
 13  5  1  0
 31 14  1  0
 12  8  1  0
 29 17  1  0
 27 22  1  0
M  END
>  <Compound_ID>  (227) 
CHEMBL312482

>  <Active>  (227) 
1.0

>  <Smiles>  (227) 
c1cc(Nc2ccc3[nH]ccc3c2)c2sc(-c3ccc(CN4CCOCC4)cc3)cc2n1

>  <canonical_smi>  (227) 
c1cc(Nc2ccc3[nH]ccc3c2)c2sc(-c3ccc(CN4CCOCC4)cc3)cc2n1

>  <Set>  (227) 
G2 active

>  <Set_type>  (227) 
Train

>  <MW>  (227) 
440.57

>  <HBD>  (227) 
2

>  <HBA>  (227) 
4

>  <NRB>  (227) 
5

>  <NR>  (227) 
6

>  <NAR>  (227) 
5

>  <PSA>  (227) 
53.18

>  <Standard Type>  (227) 
nan

>  <Standard Relation>  (227) 
nan

>  <Standard Units>  (227) 
nan

>  <Standard Value>  (227) 
nan

>  <Assay ChEMBL ID>  (227) 
nan

>  <Assay Description>  (227) 
nan

>  <BAO Label>  (227) 
nan

$$$$

     RDKit          2D

 36 40  0  0  0  0  0  0  0  0999 V2000
    3.0000    0.0000    0.0000 N   0  0  0  0  0  0  0  0  0  0  0  0
    1.5000    0.0000    0.0000 C   0  0  0  0  0  0  0  0  0  0  0  0
    0.7500   -1.2990    0.0000 N   0  0  0  0  0  0  0  0  0  0  0  0
   -0.7500   -1.2990    0.0000 C   0  0  0  0  0  0  0  0  0  0  0  0
   -1.5000    0.0000    0.0000 N   0  0  0  0  0  0  0  0  0  0  0  0
   -0.7500    1.2990    0.0000 C   0  0  0  0  0  0  0  0  0  0  0  0
   -1.5000    2.5981    0.0000 N   0  0  0  0  0  0  0  0  0  0  0  0
   -3.0000    2.5981    0.0000 C   0  0  0  0  0  0  0  0  0  0  0  0
   -3.7500    3.8971    0.0000 C   0  0  0  0  0  0  0  0  0  0  0  0
   -5.2500    3.8971    0.0000 C   0  0  0  0  0  0  0  0  0  0  0  0
   -6.0000    2.5981    0.0000 C   0  0  0  0  0  0  0  0  0  0  0  0
   -7.5000    2.5981    0.0000 O   0  0  0  0  0  0  0  0  0  0  0  0
   -8.2500    3.8971    0.0000 C   0  0  0  0  0  0  0  0  0  0  0  0
   -9.7500    3.8971    0.0000 C   0  0  0  0  0  0  0  0  0  0  0  0
  -10.5000    5.1962    0.0000 C   0  0  0  0  0  0  0  0  0  0  0  0
  -12.0000    5.1962    0.0000 C   0  0  0  0  0  0  0  0  0  0  0  0
  -12.7500    3.8971    0.0000 C   0  0  0  0  0  0  0  0  0  0  0  0
  -12.0000    2.5981    0.0000 C   0  0  0  0  0  0  0  0  0  0  0  0
  -10.5000    2.5981    0.0000 C   0  0  0  0  0  0  0  0  0  0  0  0
   -5.2500    1.2990    0.0000 C   0  0  0  0  0  0  0  0  0  0  0  0
   -6.0000   -0.0000    0.0000 Cl  0  0  0  0  0  0  0  0  0  0  0  0
   -3.7500    1.2990    0.0000 C   0  0  0  0  0  0  0  0  0  0  0  0
    0.7500    1.2990    0.0000 C   0  0  0  0  0  0  0  0  0  0  0  0
    1.5000    2.5981    0.0000 C   0  0  0  0  0  0  0  0  0  0  0  0
    0.8899    3.9684    0.0000 N   0  0  0  0  0  0  0  0  0  0  0  0
    2.0046    4.9721    0.0000 N   0  0  0  0  0  0  0  0  0  0  0  0
    3.3037    4.2221    0.0000 C   0  0  0  0  0  0  0  0  0  0  0  0
    4.6740    4.8322    0.0000 C   0  0  0  0  0  0  0  0  0  0  0  0
    5.8875    3.9505    0.0000 C   0  0  0  0  0  0  0  0  0  0  0  0
    7.2578    4.5606    0.0000 N   0  0  0  0  0  0  0  0  0  0  0  0
    8.4713    3.6789    0.0000 C   0  0  0  0  0  0  0  0  0  0  0  0
    9.8417    4.2890    0.0000 C   0  0  0  0  0  0  0  0  0  0  0  0
    9.9984    5.7808    0.0000 O   0  0  0  0  0  0  0  0  0  0  0  0
    8.7849    6.6625    0.0000 C   0  0  0  0  0  0  0  0  0  0  0  0
    7.4146    6.0524    0.0000 C   0  0  0  0  0  0  0  0  0  0  0  0
    2.9918    2.7549    0.0000 O   0  0  0  0  0  0  0  0  0  0  0  0
  1  2  1  0
  2  3  2  0
  3  4  1  0
  4  5  2  0
  5  6  1  0
  6  7  1  0
  7  8  1  0
  8  9  2  0
  9 10  1  0
 10 11  2  0
 11 12  1  0
 12 13  1  0
 13 14  1  0
 14 15  2  0
 15 16  1  0
 16 17  2  0
 17 18  1  0
 18 19  2  0
 11 20  1  0
 20 21  1  0
 20 22  2  0
  6 23  2  0
 23 24  1  0
 24 25  2  0
 25 26  1  0
 26 27  2  0
 27 28  1  0
 28 29  1  0
 29 30  1  0
 30 31  1  0
 31 32  1  0
 32 33  1  0
 33 34  1  0
 34 35  1  0
 27 36  1  0
 23  2  1  0
 36 24  1  0
 22  8  1  0
 35 30  1  0
 19 14  1  0
M  END
>  <Compound_ID>  (228) 
CHEMBL472545

>  <Active>  (228) 
1.0

>  <Smiles>  (228) 
Nc1ncnc(Nc2ccc(OCc3ccccc3)c(Cl)c2)c1-c1nnc(CCN2CCOCC2)o1

>  <canonical_smi>  (228) 
Nc1ncnc(Nc2ccc(OCc3ccccc3)c(Cl)c2)c1-c1nnc(CCN2CCOCC2)o1

>  <Set>  (228) 
G2 active

>  <Set_type>  (228) 
Train

>  <MW>  (228) 
507.98

>  <HBD>  (228) 
2

>  <HBA>  (228) 
10

>  <NRB>  (228) 
9

>  <NR>  (228) 
5

>  <NAR>  (228) 
4

>  <PSA>  (228) 
124.45

>  <Standard Type>  (228) 
nan

>  <Standard Relation>  (228) 
nan

>  <Standard Units>  (228) 
nan

>  <Standard Value>  (228) 
nan

>  <Assay ChEMBL ID>  (228) 
nan

>  <Assay Description>  (228) 
nan

>  <BAO Label>  (228) 
nan

$$$$

     RDKit          2D

 32 35  0  0  0  0  0  0  0  0999 V2000
    3.0000   -5.1962    0.0000 C   0  0  0  0  0  0  0  0  0  0  0  0
    1.5000   -5.1962    0.0000 O   0  0  0  0  0  0  0  0  0  0  0  0
    0.7500   -3.8971    0.0000 C   0  0  0  0  0  0  0  0  0  0  0  0
    1.5000   -2.5981    0.0000 C   0  0  0  0  0  0  0  0  0  0  0  0
    0.7500   -1.2990    0.0000 C   0  0  0  0  0  0  0  0  0  0  0  0
    1.5000    0.0000    0.0000 N   0  0  0  0  0  0  0  0  0  0  0  0
    0.7500    1.2990    0.0000 C   0  0  0  0  0  0  0  0  0  0  0  0
   -0.7500    1.2990    0.0000 N   0  0  0  0  0  0  0  0  0  0  0  0
   -1.5000    0.0000    0.0000 C   0  0  0  0  0  0  0  0  0  0  0  0
   -3.0000    0.0000    0.0000 N   0  0  0  0  0  0  0  0  0  0  0  0
   -3.7500    1.2990    0.0000 C   0  0  0  0  0  0  0  0  0  0  0  0
   -3.0000    2.5981    0.0000 C   0  0  0  0  0  0  0  0  0  0  0  0
   -3.7500    3.8971    0.0000 C   0  0  0  0  0  0  0  0  0  0  0  0
   -5.2500    3.8971    0.0000 C   0  0  0  0  0  0  0  0  0  0  0  0
   -6.0000    2.5981    0.0000 C   0  0  0  0  0  0  0  0  0  0  0  0
   -7.5000    2.5981    0.0000 Cl  0  0  0  0  0  0  0  0  0  0  0  0
   -5.2500    1.2990    0.0000 C   0  0  0  0  0  0  0  0  0  0  0  0
   -6.0000    0.0000    0.0000 F   0  0  0  0  0  0  0  0  0  0  0  0
   -0.7500   -1.2990    0.0000 C   0  0  0  0  0  0  0  0  0  0  0  0
   -1.5000   -2.5981    0.0000 C   0  0  0  0  0  0  0  0  0  0  0  0
   -0.7500   -3.8971    0.0000 C   0  0  0  0  0  0  0  0  0  0  0  0
   -1.5000   -5.1962    0.0000 C   0  0  0  0  0  0  0  0  0  0  0  0
   -3.0000   -5.1962    0.0000 N   0  0  0  0  0  0  0  0  0  0  0  0
   -3.7500   -3.8971    0.0000 C   0  0  0  0  0  0  0  0  0  0  0  0
   -5.2500   -3.8971    0.0000 C   0  0  0  0  0  0  0  0  0  0  0  0
   -6.0000   -5.1962    0.0000 N   0  0  0  0  0  0  0  0  0  0  0  0
   -7.5000   -5.1962    0.0000 C   0  0  0  0  0  0  0  0  0  0  0  0
   -5.2500   -6.4952    0.0000 C   0  0  0  0  0  0  0  0  0  0  0  0
   -3.7500   -6.4952    0.0000 C   0  0  0  0  0  0  0  0  0  0  0  0
   -3.0000   -7.7942    0.0000 C   0  0  0  0  0  0  0  0  0  0  0  0
   -3.7500   -9.0933    0.0000 N   0  0  0  0  0  0  0  0  0  0  0  0
   -1.5000   -7.7942    0.0000 O   0  0  0  0  0  0  0  0  0  0  0  0
  1  2  1  0
  2  3  1  0
  3  4  2  0
  4  5  1  0
  5  6  2  0
  6  7  1  0
  7  8  2  0
  8  9  1  0
  9 10  1  0
 10 11  1  0
 11 12  2  0
 12 13  1  0
 13 14  2  0
 14 15  1  0
 15 16  1  0
 15 17  2  0
 17 18  1  0
  9 19  2  0
 19 20  1  0
 20 21  2  0
 21 22  1  0
 22 23  1  0
 23 24  1  0
 24 25  1  0
 25 26  1  0
 26 27  1  0
 26 28  1  0
 28 29  1  0
 29 30  1  0
 30 31  1  0
 30 32  2  0
 21  3  1  0
 29 23  1  0
 19  5  1  0
 17 11  1  0
M  END
>  <Compound_ID>  (229) 
CHEMBL204420

>  <Active>  (229) 
1.0

>  <Smiles>  (229) 
COc1cc2ncnc(Nc3cccc(Cl)c3F)c2cc1CN1CCN(C)CC1C(N)=O

>  <canonical_smi>  (229) 
COc1cc2ncnc(Nc3cccc(Cl)c3F)c2cc1CN1CCN(C)CC1C(N)=O

>  <Set>  (229) 
G2 active

>  <Set_type>  (229) 
Train

>  <MW>  (229) 
458.93

>  <HBD>  (229) 
2

>  <HBA>  (229) 
7

>  <NRB>  (229) 
6

>  <NR>  (229) 
4

>  <NAR>  (229) 
3

>  <PSA>  (229) 
96.61

>  <Standard Type>  (229) 
nan

>  <Standard Relation>  (229) 
nan

>  <Standard Units>  (229) 
nan

>  <Standard Value>  (229) 
nan

>  <Assay ChEMBL ID>  (229) 
nan

>  <Assay Description>  (229) 
nan

>  <BAO Label>  (229) 
nan

$$$$

     RDKit          2D

 33 37  0  0  0  0  0  0  0  0999 V2000
    1.5000   -7.7942    0.0000 N   0  0  0  0  0  0  0  0  0  0  0  0
    0.7500   -6.4952    0.0000 C   0  0  0  0  0  0  0  0  0  0  0  0
   -0.7500   -6.4952    0.0000 N   0  0  0  0  0  0  0  0  0  0  0  0
   -1.5000   -5.1962    0.0000 C   0  0  0  0  0  0  0  0  0  0  0  0
   -0.7500   -3.8971    0.0000 N   0  0  0  0  0  0  0  0  0  0  0  0
    0.7500   -3.8971    0.0000 C   0  0  0  0  0  0  0  0  0  0  0  0
    1.5000   -2.5981    0.0000 N   0  0  0  0  0  0  0  0  0  0  0  0
    0.7500   -1.2990    0.0000 C   0  0  0  0  0  0  0  0  0  0  0  0
    1.5000    0.0000    0.0000 C   0  0  0  0  0  0  0  0  0  0  0  0
    0.7500    1.2990    0.0000 C   0  0  0  0  0  0  0  0  0  0  0  0
   -0.7500    1.2990    0.0000 C   0  0  0  0  0  0  0  0  0  0  0  0
   -1.5000    0.0000    0.0000 C   0  0  0  0  0  0  0  0  0  0  0  0
   -2.9672    0.3119    0.0000 C   0  0  0  0  0  0  0  0  0  0  0  0
   -3.1240    1.8037    0.0000 N   0  0  0  0  0  0  0  0  0  0  0  0
   -1.7537    2.4138    0.0000 N   0  0  0  0  0  0  0  0  0  0  0  0
   -1.4418    3.8810    0.0000 C   0  0  0  0  0  0  0  0  0  0  0  0
   -2.5565    4.8847    0.0000 C   0  0  0  0  0  0  0  0  0  0  0  0
   -2.2447    6.3519    0.0000 C   0  0  0  0  0  0  0  0  0  0  0  0
   -3.3594    7.3556    0.0000 C   0  0  0  0  0  0  0  0  0  0  0  0
   -4.7860    6.8921    0.0000 C   0  0  0  0  0  0  0  0  0  0  0  0
   -5.0978    5.4248    0.0000 C   0  0  0  0  0  0  0  0  0  0  0  0
   -6.5244    4.9613    0.0000 F   0  0  0  0  0  0  0  0  0  0  0  0
   -3.9831    4.4211    0.0000 C   0  0  0  0  0  0  0  0  0  0  0  0
   -0.7500   -1.2990    0.0000 C   0  0  0  0  0  0  0  0  0  0  0  0
    1.5000   -5.1962    0.0000 C   0  0  0  0  0  0  0  0  0  0  0  0
    3.0000   -5.1962    0.0000 C   0  0  0  0  0  0  0  0  0  0  0  0
    3.7500   -6.4952    0.0000 N   0  0  0  0  0  0  0  0  0  0  0  0
    5.2500   -6.4952    0.0000 N   0  0  0  0  0  0  0  0  0  0  0  0
    6.0000   -7.7942    0.0000 C   0  0  0  0  0  0  0  0  0  0  0  0
    7.5000   -7.7942    0.0000 C   0  0  0  0  0  0  0  0  0  0  0  0
    8.2500   -6.4952    0.0000 C   0  0  0  0  0  0  0  0  0  0  0  0
    7.5000   -5.1962    0.0000 C   0  0  0  0  0  0  0  0  0  0  0  0
    6.0000   -5.1962    0.0000 C   0  0  0  0  0  0  0  0  0  0  0  0
  1  2  1  0
  2  3  2  0
  3  4  1  0
  4  5  2  0
  5  6  1  0
  6  7  1  0
  7  8  1  0
  8  9  2  0
  9 10  1  0
 10 11  2  0
 11 12  1  0
 12 13  1  0
 13 14  2  0
 14 15  1  0
 15 16  1  0
 16 17  1  0
 17 18  2  0
 18 19  1  0
 19 20  2  0
 20 21  1  0
 21 22  1  0
 21 23  2  0
 12 24  2  0
  6 25  2  0
 25 26  1  0
 26 27  2  0
 27 28  1  0
 28 29  1  0
 29 30  1  0
 30 31  1  0
 31 32  1  0
 32 33  1  0
 25  2  1  0
 33 28  1  0
 24  8  1  0
 15 11  1  0
 23 17  1  0
M  END
>  <Compound_ID>  (230) 
CHEMBL524457

>  <Active>  (230) 
1.0

>  <Smiles>  (230) 
Nc1ncnc(Nc2ccc3c(cnn3Cc3cccc(F)c3)c2)c1/C=N/N1CCCCC1

>  <canonical_smi>  (230) 
Nc1ncnc(Nc2ccc3c(cnn3Cc3cccc(F)c3)c2)c1/C=N/N1CCCCC1

>  <Set>  (230) 
G2 active

>  <Set_type>  (230) 
Train

>  <MW>  (230) 
444.52

>  <HBD>  (230) 
2

>  <HBA>  (230) 
6

>  <NRB>  (230) 
6

>  <NR>  (230) 
5

>  <NAR>  (230) 
4

>  <PSA>  (230) 
97.25

>  <Standard Type>  (230) 
nan

>  <Standard Relation>  (230) 
nan

>  <Standard Units>  (230) 
nan

>  <Standard Value>  (230) 
nan

>  <Assay ChEMBL ID>  (230) 
nan

>  <Assay Description>  (230) 
nan

>  <BAO Label>  (230) 
nan

$$$$

     RDKit          2D

 30 34  0  0  0  0  0  0  0  0999 V2000
  -13.5464   -8.2166    0.0000 F   0  0  0  0  0  0  0  0  0  0  0  0
  -13.3896   -6.7248    0.0000 C   0  0  0  0  0  0  0  0  0  0  0  0
  -14.6031   -5.8431    0.0000 C   0  0  0  0  0  0  0  0  0  0  0  0
  -14.4463   -4.3513    0.0000 C   0  0  0  0  0  0  0  0  0  0  0  0
  -13.0760   -3.7412    0.0000 C   0  0  0  0  0  0  0  0  0  0  0  0
  -11.8625   -4.6229    0.0000 C   0  0  0  0  0  0  0  0  0  0  0  0
  -10.4922   -4.0128    0.0000 C   0  0  0  0  0  0  0  0  0  0  0  0
   -9.2786   -4.8945    0.0000 O   0  0  0  0  0  0  0  0  0  0  0  0
   -7.9083   -4.2844    0.0000 C   0  0  0  0  0  0  0  0  0  0  0  0
   -6.6948   -5.1660    0.0000 C   0  0  0  0  0  0  0  0  0  0  0  0
   -5.3245   -4.5559    0.0000 C   0  0  0  0  0  0  0  0  0  0  0  0
   -5.1677   -3.0642    0.0000 C   0  0  0  0  0  0  0  0  0  0  0  0
   -3.7974   -2.4540    0.0000 N   0  0  0  0  0  0  0  0  0  0  0  0
   -2.5838   -3.3357    0.0000 C   0  0  0  0  0  0  0  0  0  0  0  0
   -2.7406   -4.8275    0.0000 N   0  0  0  0  0  0  0  0  0  0  0  0
   -1.5271   -5.7092    0.0000 C   0  0  0  0  0  0  0  0  0  0  0  0
   -0.1568   -5.0991    0.0000 N   0  0  0  0  0  0  0  0  0  0  0  0
   -0.0000   -3.6073    0.0000 C   0  0  0  0  0  0  0  0  0  0  0  0
    1.2135   -2.7256    0.0000 N   0  0  0  0  0  0  0  0  0  0  0  0
    0.7500   -1.2990    0.0000 N   0  0  0  0  0  0  0  0  0  0  0  0
    1.5000    0.0000    0.0000 C   0  0  0  0  0  0  0  0  0  0  0  0
    0.7500    1.2990    0.0000 C   0  0  0  0  0  0  0  0  0  0  0  0
   -0.7500    1.2990    0.0000 C   0  0  0  0  0  0  0  0  0  0  0  0
   -1.5000    0.0000    0.0000 C   0  0  0  0  0  0  0  0  0  0  0  0
   -0.7500   -1.2990    0.0000 C   0  0  0  0  0  0  0  0  0  0  0  0
   -1.2135   -2.7256    0.0000 C   0  0  0  0  0  0  0  0  0  0  0  0
   -6.3812   -2.1825    0.0000 C   0  0  0  0  0  0  0  0  0  0  0  0
   -7.7515   -2.7926    0.0000 C   0  0  0  0  0  0  0  0  0  0  0  0
   -8.9651   -1.9109    0.0000 Cl  0  0  0  0  0  0  0  0  0  0  0  0
  -12.0193   -6.1147    0.0000 C   0  0  0  0  0  0  0  0  0  0  0  0
  1  2  1  0
  2  3  2  0
  3  4  1  0
  4  5  2  0
  5  6  1  0
  6  7  1  0
  7  8  1  0
  8  9  1  0
  9 10  2  0
 10 11  1  0
 11 12  2  0
 12 13  1  0
 13 14  1  0
 14 15  2  0
 15 16  1  0
 16 17  2  0
 17 18  1  0
 18 19  2  0
 19 20  1  0
 20 21  1  0
 21 22  2  0
 22 23  1  0
 23 24  2  0
 24 25  1  0
 25 26  2  0
 12 27  1  0
 27 28  2  0
 28 29  1  0
  6 30  2  0
 30  2  1  0
 28  9  1  0
 26 14  1  0
 26 18  1  0
 25 20  1  0
M  END
>  <Compound_ID>  (231) 
CHEMBL182254

>  <Active>  (231) 
1.0

>  <Smiles>  (231) 
Fc1cccc(COc2ccc(Nc3ncnc4nn5ccccc5c34)cc2Cl)c1

>  <canonical_smi>  (231) 
Fc1cccc(COc2ccc(Nc3ncnc4nn5ccccc5c34)cc2Cl)c1

>  <Set>  (231) 
G2 active

>  <Set_type>  (231) 
Train

>  <MW>  (231) 
419.85

>  <HBD>  (231) 
1

>  <HBA>  (231) 
5

>  <NRB>  (231) 
5

>  <NR>  (231) 
5

>  <NAR>  (231) 
5

>  <PSA>  (231) 
64.34

>  <Standard Type>  (231) 
nan

>  <Standard Relation>  (231) 
nan

>  <Standard Units>  (231) 
nan

>  <Standard Value>  (231) 
nan

>  <Assay ChEMBL ID>  (231) 
nan

>  <Assay Description>  (231) 
nan

>  <BAO Label>  (231) 
nan

$$$$

     RDKit          2D

 32 35  0  0  0  0  0  0  0  0999 V2000
    3.0000    0.0000    0.0000 N   0  0  0  0  0  0  0  0  0  0  0  0
    1.5000    0.0000    0.0000 C   0  0  0  0  0  0  0  0  0  0  0  0
    0.7500   -1.2990    0.0000 N   0  0  0  0  0  0  0  0  0  0  0  0
   -0.7500   -1.2990    0.0000 C   0  0  0  0  0  0  0  0  0  0  0  0
   -1.5000    0.0000    0.0000 C   0  0  0  0  0  0  0  0  0  0  0  0
   -0.7500    1.2990    0.0000 C   0  0  0  0  0  0  0  0  0  0  0  0
   -1.5000    2.5981    0.0000 C   0  0  0  0  0  0  0  0  0  0  0  0
   -2.2500    3.8971    0.0000 C   0  0  0  0  0  0  0  0  0  0  0  0
   -3.0000    5.1962    0.0000 C   0  0  0  0  0  0  0  0  0  0  0  0
   -2.2500    6.4952    0.0000 C   0  0  0  0  0  0  0  0  0  0  0  0
   -3.0000    7.7942    0.0000 N   0  0  0  0  0  0  0  0  0  0  0  0
   -4.5000    7.7942    0.0000 C   0  0  0  0  0  0  0  0  0  0  0  0
   -5.2500    6.4952    0.0000 N   0  0  0  0  0  0  0  0  0  0  0  0
   -4.5000    5.1962    0.0000 C   0  0  0  0  0  0  0  0  0  0  0  0
   -5.2500    3.8971    0.0000 N   0  0  0  0  0  0  0  0  0  0  0  0
   -6.7500    3.8971    0.0000 C   0  0  0  0  0  0  0  0  0  0  0  0
   -7.5000    5.1962    0.0000 C   0  0  0  0  0  0  0  0  0  0  0  0
   -9.0000    5.1962    0.0000 C   0  0  0  0  0  0  0  0  0  0  0  0
   -9.7500    3.8971    0.0000 C   0  0  0  0  0  0  0  0  0  0  0  0
  -11.2500    3.8971    0.0000 O   0  0  0  0  0  0  0  0  0  0  0  0
  -12.0000    5.1962    0.0000 C   0  0  0  0  0  0  0  0  0  0  0  0
  -13.5000    5.1962    0.0000 C   0  0  0  0  0  0  0  0  0  0  0  0
  -14.2500    6.4952    0.0000 C   0  0  0  0  0  0  0  0  0  0  0  0
  -15.7500    6.4952    0.0000 C   0  0  0  0  0  0  0  0  0  0  0  0
  -16.5000    5.1962    0.0000 C   0  0  0  0  0  0  0  0  0  0  0  0
  -15.7500    3.8971    0.0000 C   0  0  0  0  0  0  0  0  0  0  0  0
  -16.5000    2.5981    0.0000 F   0  0  0  0  0  0  0  0  0  0  0  0
  -14.2500    3.8971    0.0000 C   0  0  0  0  0  0  0  0  0  0  0  0
   -9.0000    2.5981    0.0000 C   0  0  0  0  0  0  0  0  0  0  0  0
   -9.7500    1.2990    0.0000 Cl  0  0  0  0  0  0  0  0  0  0  0  0
   -7.5000    2.5981    0.0000 C   0  0  0  0  0  0  0  0  0  0  0  0
    0.7500    1.2990    0.0000 N   0  0  0  0  0  0  0  0  0  0  0  0
  1  2  1  0
  2  3  2  0
  3  4  1  0
  4  5  2  0
  5  6  1  0
  6  7  1  0
  7  8  3  0
  8  9  1  0
  9 10  2  0
 10 11  1  0
 11 12  2  0
 12 13  1  0
 13 14  2  0
 14 15  1  0
 15 16  1  0
 16 17  2  0
 17 18  1  0
 18 19  2  0
 19 20  1  0
 20 21  1  0
 21 22  1  0
 22 23  2  0
 23 24  1  0
 24 25  2  0
 25 26  1  0
 26 27  1  0
 26 28  2  0
 19 29  1  0
 29 30  1  0
 29 31  2  0
  6 32  2  0
 32  2  1  0
 14  9  1  0
 31 16  1  0
 28 22  1  0
M  END
>  <Compound_ID>  (232) 
CHEMBL381604

>  <Active>  (232) 
1.0

>  <Smiles>  (232) 
Nc1nccc(C#Cc2cncnc2Nc2ccc(OCc3cccc(F)c3)c(Cl)c2)n1

>  <canonical_smi>  (232) 
Nc1nccc(C#Cc2cncnc2Nc2ccc(OCc3cccc(F)c3)c(Cl)c2)n1

>  <Set>  (232) 
G2 active

>  <Set_type>  (232) 
Train

>  <MW>  (232) 
446.87

>  <HBD>  (232) 
2

>  <HBA>  (232) 
7

>  <NRB>  (232) 
5

>  <NR>  (232) 
4

>  <NAR>  (232) 
4

>  <PSA>  (232) 
98.84

>  <Standard Type>  (232) 
nan

>  <Standard Relation>  (232) 
nan

>  <Standard Units>  (232) 
nan

>  <Standard Value>  (232) 
nan

>  <Assay ChEMBL ID>  (232) 
nan

>  <Assay Description>  (232) 
nan

>  <BAO Label>  (232) 
nan

$$$$

     RDKit          2D

 32 35  0  0  0  0  0  0  0  0999 V2000
    1.9775   -9.6721    0.0000 O   0  0  0  0  0  0  0  0  0  0  0  0
    3.3478   -9.0619    0.0000 C   0  0  0  0  0  0  0  0  0  0  0  0
    3.5046   -7.5702    0.0000 C   0  0  0  0  0  0  0  0  0  0  0  0
    4.8037   -6.8202    0.0000 C   0  0  0  0  0  0  0  0  0  0  0  0
    4.4918   -5.3529    0.0000 C   0  0  0  0  0  0  0  0  0  0  0  0
    3.0000   -5.1962    0.0000 C   0  0  0  0  0  0  0  0  0  0  0  0
    2.2500   -3.8971    0.0000 C   0  0  0  0  0  0  0  0  0  0  0  0
    1.5000   -2.5981    0.0000 C   0  0  0  0  0  0  0  0  0  0  0  0
    0.7500   -1.2990    0.0000 C   0  0  0  0  0  0  0  0  0  0  0  0
    1.5000    0.0000    0.0000 C   0  0  0  0  0  0  0  0  0  0  0  0
    0.7500    1.2990    0.0000 N   0  0  0  0  0  0  0  0  0  0  0  0
   -0.7500    1.2990    0.0000 C   0  0  0  0  0  0  0  0  0  0  0  0
   -1.5000    0.0000    0.0000 N   0  0  0  0  0  0  0  0  0  0  0  0
   -0.7500   -1.2990    0.0000 C   0  0  0  0  0  0  0  0  0  0  0  0
   -1.5000   -2.5981    0.0000 N   0  0  0  0  0  0  0  0  0  0  0  0
   -3.0000   -2.5981    0.0000 C   0  0  0  0  0  0  0  0  0  0  0  0
   -3.7500   -1.2990    0.0000 C   0  0  0  0  0  0  0  0  0  0  0  0
   -5.2500   -1.2990    0.0000 C   0  0  0  0  0  0  0  0  0  0  0  0
   -6.0000   -2.5981    0.0000 C   0  0  0  0  0  0  0  0  0  0  0  0
   -7.5000   -2.5981    0.0000 O   0  0  0  0  0  0  0  0  0  0  0  0
   -8.2500   -1.2990    0.0000 C   0  0  0  0  0  0  0  0  0  0  0  0
   -9.7500   -1.2990    0.0000 C   0  0  0  0  0  0  0  0  0  0  0  0
  -10.5000    0.0000    0.0000 C   0  0  0  0  0  0  0  0  0  0  0  0
  -12.0000    0.0000    0.0000 C   0  0  0  0  0  0  0  0  0  0  0  0
  -12.7500   -1.2990    0.0000 C   0  0  0  0  0  0  0  0  0  0  0  0
  -12.0000   -2.5981    0.0000 C   0  0  0  0  0  0  0  0  0  0  0  0
  -12.7500   -3.8971    0.0000 F   0  0  0  0  0  0  0  0  0  0  0  0
  -10.5000   -2.5981    0.0000 C   0  0  0  0  0  0  0  0  0  0  0  0
   -5.2500   -3.8971    0.0000 C   0  0  0  0  0  0  0  0  0  0  0  0
   -6.0000   -5.1962    0.0000 Cl  0  0  0  0  0  0  0  0  0  0  0  0
   -3.7500   -3.8971    0.0000 C   0  0  0  0  0  0  0  0  0  0  0  0
    2.3899   -6.5665    0.0000 O   0  0  0  0  0  0  0  0  0  0  0  0
  1  2  1  0
  2  3  1  0
  3  4  2  0
  4  5  1  0
  5  6  2  0
  6  7  1  0
  7  8  3  0
  8  9  1  0
  9 10  2  0
 10 11  1  0
 11 12  2  0
 12 13  1  0
 13 14  2  0
 14 15  1  0
 15 16  1  0
 16 17  2  0
 17 18  1  0
 18 19  2  0
 19 20  1  0
 20 21  1  0
 21 22  1  0
 22 23  2  0
 23 24  1  0
 24 25  2  0
 25 26  1  0
 26 27  1  0
 26 28  2  0
 19 29  1  0
 29 30  1  0
 29 31  2  0
  6 32  1  0
 32  3  1  0
 14  9  1  0
 31 16  1  0
 28 22  1  0
M  END
>  <Compound_ID>  (233) 
CHEMBL204467

>  <Active>  (233) 
1.0

>  <Smiles>  (233) 
OCc1ccc(C#Cc2cncnc2Nc2ccc(OCc3cccc(F)c3)c(Cl)c2)o1

>  <canonical_smi>  (233) 
OCc1ccc(C#Cc2cncnc2Nc2ccc(OCc3cccc(F)c3)c(Cl)c2)o1

>  <Set>  (233) 
G2 active

>  <Set_type>  (233) 
Train

>  <MW>  (233) 
449.87

>  <HBD>  (233) 
2

>  <HBA>  (233) 
6

>  <NRB>  (233) 
6

>  <NR>  (233) 
4

>  <NAR>  (233) 
4

>  <PSA>  (233) 
80.41

>  <Standard Type>  (233) 
nan

>  <Standard Relation>  (233) 
nan

>  <Standard Units>  (233) 
nan

>  <Standard Value>  (233) 
nan

>  <Assay ChEMBL ID>  (233) 
nan

>  <Assay Description>  (233) 
nan

>  <BAO Label>  (233) 
nan

$$$$

     RDKit          2D

 32 35  0  0  0  0  0  0  0  0999 V2000
    9.0985   -9.6461    0.0000 C   0  0  0  0  0  0  0  0  0  0  0  0
    7.7282   -9.0360    0.0000 S   0  0  0  0  0  0  0  0  0  0  0  0
    8.3383   -7.6657    0.0000 O   0  0  0  0  0  0  0  0  0  0  0  0
    7.1181  -10.4063    0.0000 O   0  0  0  0  0  0  0  0  0  0  0  0
    6.3579   -8.4259    0.0000 C   0  0  0  0  0  0  0  0  0  0  0  0
    6.2011   -6.9341    0.0000 C   0  0  0  0  0  0  0  0  0  0  0  0
    4.8308   -6.3240    0.0000 N   0  0  0  0  0  0  0  0  0  0  0  0
    4.6740   -4.8322    0.0000 C   0  0  0  0  0  0  0  0  0  0  0  0
    3.3037   -4.2221    0.0000 C   0  0  0  0  0  0  0  0  0  0  0  0
    2.9918   -2.7549    0.0000 N   0  0  0  0  0  0  0  0  0  0  0  0
    1.5000   -2.5981    0.0000 C   0  0  0  0  0  0  0  0  0  0  0  0
    0.7500   -1.2990    0.0000 C   0  0  0  0  0  0  0  0  0  0  0  0
    1.5000    0.0000    0.0000 C   0  0  0  0  0  0  0  0  0  0  0  0
    0.7500    1.2990    0.0000 C   0  0  0  0  0  0  0  0  0  0  0  0
   -0.7500    1.2990    0.0000 C   0  0  0  0  0  0  0  0  0  0  0  0
   -1.5000    2.5981    0.0000 N   0  0  0  0  0  0  0  0  0  0  0  0
   -3.0000    2.5981    0.0000 C   0  0  0  0  0  0  0  0  0  0  0  0
   -3.7500    1.2990    0.0000 N   0  0  0  0  0  0  0  0  0  0  0  0
   -3.0000    0.0000    0.0000 C   0  0  0  0  0  0  0  0  0  0  0  0
   -3.7500   -1.2990    0.0000 N   0  0  0  0  0  0  0  0  0  0  0  0
   -5.2500   -1.2990    0.0000 C   0  0  0  0  0  0  0  0  0  0  0  0
   -6.0000    0.0000    0.0000 C   0  0  0  0  0  0  0  0  0  0  0  0
   -7.5000    0.0000    0.0000 C   0  0  0  0  0  0  0  0  0  0  0  0
   -8.2500   -1.2990    0.0000 C   0  0  0  0  0  0  0  0  0  0  0  0
   -9.7500   -1.2990    0.0000 F   0  0  0  0  0  0  0  0  0  0  0  0
   -7.5000   -2.5981    0.0000 C   0  0  0  0  0  0  0  0  0  0  0  0
   -8.2500   -3.8971    0.0000 Cl  0  0  0  0  0  0  0  0  0  0  0  0
   -6.0000   -2.5981    0.0000 C   0  0  0  0  0  0  0  0  0  0  0  0
   -1.5000    0.0000    0.0000 C   0  0  0  0  0  0  0  0  0  0  0  0
   -0.7500   -1.2990    0.0000 C   0  0  0  0  0  0  0  0  0  0  0  0
    0.8899   -3.9684    0.0000 C   0  0  0  0  0  0  0  0  0  0  0  0
    2.0046   -4.9721    0.0000 S   0  0  0  0  0  0  0  0  0  0  0  0
  1  2  1  0
  2  3  2  0
  2  4  2  0
  2  5  1  0
  5  6  1  0
  6  7  1  0
  7  8  1  0
  8  9  1  0
  9 10  2  0
 10 11  1  0
 11 12  1  0
 12 13  2  0
 13 14  1  0
 14 15  2  0
 15 16  1  0
 16 17  2  0
 17 18  1  0
 18 19  2  0
 19 20  1  0
 20 21  1  0
 21 22  2  0
 22 23  1  0
 23 24  2  0
 24 25  1  0
 24 26  1  0
 26 27  1  0
 26 28  2  0
 19 29  1  0
 29 30  2  0
 11 31  2  0
 31 32  1  0
 32  9  1  0
 30 12  1  0
 29 15  1  0
 28 21  1  0
M  END
>  <Compound_ID>  (234) 
CHEMBL516375

>  <Active>  (234) 
1.0

>  <Smiles>  (234) 
CS(=O)(=O)CCNCc1nc(-c2ccc3ncnc(Nc4ccc(F)c(Cl)c4)c3c2)cs1

>  <canonical_smi>  (234) 
CS(=O)(=O)CCNCc1nc(-c2ccc3ncnc(Nc4ccc(F)c(Cl)c4)c3c2)cs1

>  <Set>  (234) 
G2 active

>  <Set_type>  (234) 
Train

>  <MW>  (234) 
492.0

>  <HBD>  (234) 
2

>  <HBA>  (234) 
7

>  <NRB>  (234) 
8

>  <NR>  (234) 
4

>  <NAR>  (234) 
4

>  <PSA>  (234) 
96.87

>  <Standard Type>  (234) 
nan

>  <Standard Relation>  (234) 
nan

>  <Standard Units>  (234) 
nan

>  <Standard Value>  (234) 
nan

>  <Assay ChEMBL ID>  (234) 
nan

>  <Assay Description>  (234) 
nan

>  <BAO Label>  (234) 
nan

$$$$

     RDKit          2D

 17 19  0  0  0  0  0  0  0  0999 V2000
   -8.6562    2.3705    0.0000 Br  0  0  0  0  0  0  0  0  0  0  0  0
   -7.2296    2.8340    0.0000 C   0  0  0  0  0  0  0  0  0  0  0  0
   -6.9177    4.3013    0.0000 C   0  0  0  0  0  0  0  0  0  0  0  0
   -5.4912    4.7648    0.0000 C   0  0  0  0  0  0  0  0  0  0  0  0
   -4.3764    3.7611    0.0000 C   0  0  0  0  0  0  0  0  0  0  0  0
   -4.6883    2.2939    0.0000 C   0  0  0  0  0  0  0  0  0  0  0  0
   -3.5736    1.2902    0.0000 N   0  0  0  0  0  0  0  0  0  0  0  0
   -2.1470    1.7537    0.0000 C   0  0  0  0  0  0  0  0  0  0  0  0
   -1.8351    3.2209    0.0000 N   0  0  0  0  0  0  0  0  0  0  0  0
   -0.4086    3.6844    0.0000 C   0  0  0  0  0  0  0  0  0  0  0  0
    0.7062    2.6807    0.0000 N   0  0  0  0  0  0  0  0  0  0  0  0
    0.3943    1.2135    0.0000 C   0  0  0  0  0  0  0  0  0  0  0  0
    1.2760    0.0000    0.0000 S   0  0  0  0  0  0  0  0  0  0  0  0
    0.3943   -1.2135    0.0000 C   0  0  0  0  0  0  0  0  0  0  0  0
   -1.0323   -0.7500    0.0000 C   0  0  0  0  0  0  0  0  0  0  0  0
   -1.0323    0.7500    0.0000 C   0  0  0  0  0  0  0  0  0  0  0  0
   -6.1149    1.8303    0.0000 C   0  0  0  0  0  0  0  0  0  0  0  0
  1  2  1  0
  2  3  2  0
  3  4  1  0
  4  5  2  0
  5  6  1  0
  6  7  1  0
  7  8  1  0
  8  9  2  0
  9 10  1  0
 10 11  2  0
 11 12  1  0
 12 13  1  0
 13 14  1  0
 14 15  2  0
 15 16  1  0
  6 17  2  0
 17  2  1  0
 16  8  1  0
 16 12  2  0
M  END
>  <Compound_ID>  (235) 
CHEMBL355982

>  <Active>  (235) 
1.0

>  <Smiles>  (235) 
Brc1cccc(Nc2ncnc3sccc23)c1

>  <canonical_smi>  (235) 
Brc1cccc(Nc2ncnc3sccc23)c1

>  <Set>  (235) 
G2 active

>  <Set_type>  (235) 
Train

>  <MW>  (235) 
306.19

>  <HBD>  (235) 
1

>  <HBA>  (235) 
3

>  <NRB>  (235) 
2

>  <NR>  (235) 
3

>  <NAR>  (235) 
3

>  <PSA>  (235) 
37.81

>  <Standard Type>  (235) 
nan

>  <Standard Relation>  (235) 
nan

>  <Standard Units>  (235) 
nan

>  <Standard Value>  (235) 
nan

>  <Assay ChEMBL ID>  (235) 
nan

>  <Assay Description>  (235) 
nan

>  <BAO Label>  (235) 
nan

$$$$

     RDKit          2D

 33 37  0  0  0  0  0  0  0  0999 V2000
   -3.8876   -9.0580    0.0000 N   0  0  0  0  0  0  0  0  0  0  0  0
   -3.5757   -7.5908    0.0000 C   0  0  0  0  0  0  0  0  0  0  0  0
   -4.6904   -6.5871    0.0000 C   0  0  0  0  0  0  0  0  0  0  0  0
   -4.3786   -5.1199    0.0000 C   0  0  0  0  0  0  0  0  0  0  0  0
   -2.9520   -4.6564    0.0000 N   0  0  0  0  0  0  0  0  0  0  0  0
   -2.6401   -3.1891    0.0000 C   0  0  0  0  0  0  0  0  0  0  0  0
   -1.2135   -2.7256    0.0000 C   0  0  0  0  0  0  0  0  0  0  0  0
   -0.0000   -3.6073    0.0000 C   0  0  0  0  0  0  0  0  0  0  0  0
    1.2135   -2.7256    0.0000 C   0  0  0  0  0  0  0  0  0  0  0  0
    0.7500   -1.2990    0.0000 N   0  0  0  0  0  0  0  0  0  0  0  0
    1.5000    0.0000    0.0000 N   0  0  0  0  0  0  0  0  0  0  0  0
    0.7500    1.2990    0.0000 C   0  0  0  0  0  0  0  0  0  0  0  0
   -0.7500    1.2990    0.0000 N   0  0  0  0  0  0  0  0  0  0  0  0
   -1.5000    0.0000    0.0000 C   0  0  0  0  0  0  0  0  0  0  0  0
   -3.0000    0.0000    0.0000 N   0  0  0  0  0  0  0  0  0  0  0  0
   -3.7500    1.2990    0.0000 C   0  0  0  0  0  0  0  0  0  0  0  0
   -3.0000    2.5981    0.0000 C   0  0  0  0  0  0  0  0  0  0  0  0
   -3.7500    3.8971    0.0000 C   0  0  0  0  0  0  0  0  0  0  0  0
   -5.2500    3.8971    0.0000 C   0  0  0  0  0  0  0  0  0  0  0  0
   -6.0000    5.1962    0.0000 O   0  0  0  0  0  0  0  0  0  0  0  0
   -5.2500    6.4952    0.0000 C   0  0  0  0  0  0  0  0  0  0  0  0
   -6.0000    7.7942    0.0000 C   0  0  0  0  0  0  0  0  0  0  0  0
   -5.2500    9.0933    0.0000 C   0  0  0  0  0  0  0  0  0  0  0  0
   -6.0000   10.3923    0.0000 C   0  0  0  0  0  0  0  0  0  0  0  0
   -7.5000   10.3923    0.0000 C   0  0  0  0  0  0  0  0  0  0  0  0
   -8.2500    9.0933    0.0000 C   0  0  0  0  0  0  0  0  0  0  0  0
   -7.5000    7.7942    0.0000 N   0  0  0  0  0  0  0  0  0  0  0  0
   -6.0000    2.5981    0.0000 C   0  0  0  0  0  0  0  0  0  0  0  0
   -7.5000    2.5981    0.0000 Cl  0  0  0  0  0  0  0  0  0  0  0  0
   -5.2500    1.2990    0.0000 C   0  0  0  0  0  0  0  0  0  0  0  0
   -0.7500   -1.2990    0.0000 C   0  0  0  0  0  0  0  0  0  0  0  0
   -1.8373   -5.6601    0.0000 C   0  0  0  0  0  0  0  0  0  0  0  0
   -2.1491   -7.1273    0.0000 C   0  0  0  0  0  0  0  0  0  0  0  0
  1  2  1  0
  2  3  1  0
  3  4  1  0
  4  5  1  0
  5  6  1  0
  6  7  1  0
  7  8  1  0
  8  9  2  0
  9 10  1  0
 10 11  1  0
 11 12  2  0
 12 13  1  0
 13 14  2  0
 14 15  1  0
 15 16  1  0
 16 17  2  0
 17 18  1  0
 18 19  2  0
 19 20  1  0
 20 21  1  0
 21 22  1  0
 22 23  2  0
 23 24  1  0
 24 25  2  0
 25 26  1  0
 26 27  2  0
 19 28  1  0
 28 29  1  0
 28 30  2  0
 14 31  1  0
  5 32  1  0
 32 33  1  0
 33  2  1  0
 31  7  2  0
 31 10  1  0
 30 16  1  0
 27 22  1  0
M  END
>  <Compound_ID>  (236) 
CHEMBL248116

>  <Active>  (236) 
1.0

>  <Smiles>  (236) 
NC1CCN(Cc2ccn3ncnc(Nc4ccc(OCc5ccccn5)c(Cl)c4)c23)CC1

>  <canonical_smi>  (236) 
NC1CCN(Cc2ccn3ncnc(Nc4ccc(OCc5ccccn5)c(Cl)c4)c23)CC1

>  <Set>  (236) 
G2 active

>  <Set_type>  (236) 
Train

>  <MW>  (236) 
463.97

>  <HBD>  (236) 
2

>  <HBA>  (236) 
7

>  <NRB>  (236) 
7

>  <NR>  (236) 
5

>  <NAR>  (236) 
4

>  <PSA>  (236) 
93.6

>  <Standard Type>  (236) 
nan

>  <Standard Relation>  (236) 
nan

>  <Standard Units>  (236) 
nan

>  <Standard Value>  (236) 
nan

>  <Assay ChEMBL ID>  (236) 
nan

>  <Assay Description>  (236) 
nan

>  <BAO Label>  (236) 
nan

$$$$

     RDKit          2D

 39 44  0  0  0  0  0  0  0  0999 V2000
   -2.9520   -4.6564    0.0000 C   0  0  0  0  0  0  0  0  0  0  0  0
   -2.6401   -3.1891    0.0000 C   0  0  0  0  0  0  0  0  0  0  0  0
   -1.2135   -2.7256    0.0000 C   0  0  0  0  0  0  0  0  0  0  0  0
   -0.0000   -3.6073    0.0000 C   0  0  0  0  0  0  0  0  0  0  0  0
   -0.0000   -5.1073    0.0000 C   0  0  0  0  0  0  0  0  0  0  0  0
   -1.2990   -5.8573    0.0000 O   0  0  0  0  0  0  0  0  0  0  0  0
    1.2990   -5.8573    0.0000 N   0  0  0  0  0  0  0  0  0  0  0  0
    1.2990   -7.3573    0.0000 C   0  0  0  0  0  0  0  0  0  0  0  0
    2.5981   -8.1073    0.0000 C   0  0  0  0  0  0  0  0  0  0  0  0
    2.5981   -9.6073    0.0000 C   0  0  0  0  0  0  0  0  0  0  0  0
    3.8971  -10.3573    0.0000 N   0  0  0  0  0  0  0  0  0  0  0  0
    5.2674   -9.7472    0.0000 C   0  0  0  0  0  0  0  0  0  0  0  0
    6.2711  -10.8619    0.0000 C   0  0  0  0  0  0  0  0  0  0  0  0
    5.5211  -12.1610    0.0000 N   0  0  0  0  0  0  0  0  0  0  0  0
    4.0539  -11.8491    0.0000 C   0  0  0  0  0  0  0  0  0  0  0  0
    1.2135   -2.7256    0.0000 C   0  0  0  0  0  0  0  0  0  0  0  0
    0.7500   -1.2990    0.0000 N   0  0  0  0  0  0  0  0  0  0  0  0
    1.5000    0.0000    0.0000 N   0  0  0  0  0  0  0  0  0  0  0  0
    0.7500    1.2990    0.0000 C   0  0  0  0  0  0  0  0  0  0  0  0
   -0.7500    1.2990    0.0000 N   0  0  0  0  0  0  0  0  0  0  0  0
   -1.5000    0.0000    0.0000 C   0  0  0  0  0  0  0  0  0  0  0  0
   -3.0000    0.0000    0.0000 N   0  0  0  0  0  0  0  0  0  0  0  0
   -3.7500    1.2990    0.0000 C   0  0  0  0  0  0  0  0  0  0  0  0
   -3.0000    2.5981    0.0000 C   0  0  0  0  0  0  0  0  0  0  0  0
   -3.7500    3.8971    0.0000 C   0  0  0  0  0  0  0  0  0  0  0  0
   -5.2500    3.8971    0.0000 C   0  0  0  0  0  0  0  0  0  0  0  0
   -6.0000    2.5981    0.0000 C   0  0  0  0  0  0  0  0  0  0  0  0
   -7.4672    2.9099    0.0000 C   0  0  0  0  0  0  0  0  0  0  0  0
   -7.6240    4.4017    0.0000 N   0  0  0  0  0  0  0  0  0  0  0  0
   -6.2537    5.0118    0.0000 N   0  0  0  0  0  0  0  0  0  0  0  0
   -5.9418    6.4791    0.0000 C   0  0  0  0  0  0  0  0  0  0  0  0
   -7.0565    7.4827    0.0000 C   0  0  0  0  0  0  0  0  0  0  0  0
   -6.7447    8.9500    0.0000 C   0  0  0  0  0  0  0  0  0  0  0  0
   -7.8594    9.9537    0.0000 C   0  0  0  0  0  0  0  0  0  0  0  0
   -9.2860    9.4901    0.0000 C   0  0  0  0  0  0  0  0  0  0  0  0
   -9.5978    8.0229    0.0000 C   0  0  0  0  0  0  0  0  0  0  0  0
   -8.4831    7.0192    0.0000 C   0  0  0  0  0  0  0  0  0  0  0  0
   -5.2500    1.2990    0.0000 C   0  0  0  0  0  0  0  0  0  0  0  0
   -0.7500   -1.2990    0.0000 C   0  0  0  0  0  0  0  0  0  0  0  0
  1  2  1  0
  2  3  1  0
  3  4  1  0
  4  5  1  0
  5  6  2  0
  5  7  1  0
  7  8  1  0
  8  9  1  0
  9 10  1  0
 10 11  1  0
 11 12  1  0
 12 13  2  0
 13 14  1  0
 14 15  2  0
  4 16  2  0
 16 17  1  0
 17 18  1  0
 18 19  2  0
 19 20  1  0
 20 21  2  0
 21 22  1  0
 22 23  1  0
 23 24  2  0
 24 25  1  0
 25 26  2  0
 26 27  1  0
 27 28  1  0
 28 29  2  0
 29 30  1  0
 30 31  1  0
 31 32  1  0
 32 33  2  0
 33 34  1  0
 34 35  2  0
 35 36  1  0
 36 37  2  0
 27 38  2  0
 21 39  1  0
 39  3  2  0
 15 11  1  0
 39 17  1  0
 38 23  1  0
 30 26  1  0
 37 32  1  0
M  END
>  <Compound_ID>  (237) 
CHEMBL193681

>  <Active>  (237) 
1.0

>  <Smiles>  (237) 
CCc1c(C(=O)NCCCn2ccnc2)cn2ncnc(Nc3ccc4c(cnn4Cc4ccccc4)c3)c12

>  <canonical_smi>  (237) 
CCc1c(C(=O)NCCCn2ccnc2)cn2ncnc(Nc3ccc4c(cnn4Cc4ccccc4)c3)c12

>  <Set>  (237) 
G2 active

>  <Set_type>  (237) 
Train

>  <MW>  (237) 
519.61

>  <HBD>  (237) 
2

>  <HBA>  (237) 
6

>  <NRB>  (237) 
10

>  <NR>  (237) 
6

>  <NAR>  (237) 
6

>  <PSA>  (237) 
106.96

>  <Standard Type>  (237) 
nan

>  <Standard Relation>  (237) 
nan

>  <Standard Units>  (237) 
nan

>  <Standard Value>  (237) 
nan

>  <Assay ChEMBL ID>  (237) 
nan

>  <Assay Description>  (237) 
nan

>  <BAO Label>  (237) 
nan

$$$$

     RDKit          2D

 20 23  0  0  0  0  0  0  0  0999 V2000
   -4.9645    8.8151    0.0000 Br  0  0  0  0  0  0  0  0  0  0  0  0
   -3.4727    8.6583    0.0000 C   0  0  0  0  0  0  0  0  0  0  0  0
   -2.5910    9.8718    0.0000 C   0  0  0  0  0  0  0  0  0  0  0  0
   -1.0992    9.7151    0.0000 C   0  0  0  0  0  0  0  0  0  0  0  0
   -0.4891    8.3447    0.0000 C   0  0  0  0  0  0  0  0  0  0  0  0
   -1.3708    7.1312    0.0000 C   0  0  0  0  0  0  0  0  0  0  0  0
   -0.7607    5.7609    0.0000 N   0  0  0  0  0  0  0  0  0  0  0  0
   -1.6424    4.5474    0.0000 C   0  0  0  0  0  0  0  0  0  0  0  0
   -3.1342    4.7042    0.0000 N   0  0  0  0  0  0  0  0  0  0  0  0
   -4.0159    3.4906    0.0000 C   0  0  0  0  0  0  0  0  0  0  0  0
   -3.4057    2.1203    0.0000 N   0  0  0  0  0  0  0  0  0  0  0  0
   -1.9140    1.9635    0.0000 C   0  0  0  0  0  0  0  0  0  0  0  0
   -1.0323    3.1771    0.0000 C   0  0  0  0  0  0  0  0  0  0  0  0
    0.3943    2.7135    0.0000 S   0  0  0  0  0  0  0  0  0  0  0  0
    0.3943    1.2135    0.0000 C   0  0  0  0  0  0  0  0  0  0  0  0
    1.2760    0.0000    0.0000 N   0  0  0  0  0  0  0  0  0  0  0  0
    0.3943   -1.2135    0.0000 C   0  0  0  0  0  0  0  0  0  0  0  0
   -1.0323   -0.7500    0.0000 S   0  0  0  0  0  0  0  0  0  0  0  0
   -1.0323    0.7500    0.0000 C   0  0  0  0  0  0  0  0  0  0  0  0
   -2.8626    7.2880    0.0000 C   0  0  0  0  0  0  0  0  0  0  0  0
  1  2  1  0
  2  3  2  0
  3  4  1  0
  4  5  2  0
  5  6  1  0
  6  7  1  0
  7  8  1  0
  8  9  2  0
  9 10  1  0
 10 11  2  0
 11 12  1  0
 12 13  2  0
 13 14  1  0
 14 15  1  0
 15 16  1  0
 16 17  2  0
 17 18  1  0
 18 19  1  0
  6 20  2  0
 20  2  1  0
 13  8  1  0
 19 15  2  0
 19 12  1  0
M  END
>  <Compound_ID>  (238) 
CHEMBL346863

>  <Active>  (238) 
1.0

>  <Smiles>  (238) 
Brc1cccc(Nc2ncnc3c2sc2ncsc23)c1

>  <canonical_smi>  (238) 
Brc1cccc(Nc2ncnc3c2sc2ncsc23)c1

>  <Set>  (238) 
G2 active

>  <Set_type>  (238) 
Train

>  <MW>  (238) 
363.27

>  <HBD>  (238) 
1

>  <HBA>  (238) 
4

>  <NRB>  (238) 
2

>  <NR>  (238) 
4

>  <NAR>  (238) 
4

>  <PSA>  (238) 
50.7

>  <Standard Type>  (238) 
nan

>  <Standard Relation>  (238) 
nan

>  <Standard Units>  (238) 
nan

>  <Standard Value>  (238) 
nan

>  <Assay ChEMBL ID>  (238) 
nan

>  <Assay Description>  (238) 
nan

>  <BAO Label>  (238) 
nan

$$$$

     RDKit          2D

 34 38  0  0  0  0  0  0  0  0999 V2000
   -5.6213   -4.5165    0.0000 C   0  0  0  0  0  0  0  0  0  0  0  0
   -4.3223   -5.2665    0.0000 C   0  0  0  0  0  0  0  0  0  0  0  0
   -4.1655   -6.7583    0.0000 C   0  0  0  0  0  0  0  0  0  0  0  0
   -2.6983   -7.0701    0.0000 C   0  0  0  0  0  0  0  0  0  0  0  0
   -2.0882   -8.4404    0.0000 C   0  0  0  0  0  0  0  0  0  0  0  0
   -0.5964   -8.5972    0.0000 O   0  0  0  0  0  0  0  0  0  0  0  0
   -2.9699   -9.6540    0.0000 N   0  0  0  0  0  0  0  0  0  0  0  0
   -4.4616   -9.4972    0.0000 C   0  0  0  0  0  0  0  0  0  0  0  0
   -5.3433  -10.7107    0.0000 C   0  0  0  0  0  0  0  0  0  0  0  0
   -4.7332  -12.0810    0.0000 O   0  0  0  0  0  0  0  0  0  0  0  0
   -3.2414  -12.2378    0.0000 C   0  0  0  0  0  0  0  0  0  0  0  0
   -2.3597  -11.0243    0.0000 C   0  0  0  0  0  0  0  0  0  0  0  0
   -1.9483   -5.7711    0.0000 N   0  0  0  0  0  0  0  0  0  0  0  0
   -2.9520   -4.6564    0.0000 C   0  0  0  0  0  0  0  0  0  0  0  0
   -2.6401   -3.1891    0.0000 C   0  0  0  0  0  0  0  0  0  0  0  0
   -1.2135   -2.7256    0.0000 C   0  0  0  0  0  0  0  0  0  0  0  0
   -0.0000   -3.6073    0.0000 C   0  0  0  0  0  0  0  0  0  0  0  0
    0.0000   -5.1073    0.0000 O   0  0  0  0  0  0  0  0  0  0  0  0
    1.2135   -2.7256    0.0000 N   0  0  0  0  0  0  0  0  0  0  0  0
    0.7500   -1.2990    0.0000 C   0  0  0  0  0  0  0  0  0  0  0  0
    1.5000    0.0000    0.0000 N   0  0  0  0  0  0  0  0  0  0  0  0
    0.7500    1.2990    0.0000 C   0  0  0  0  0  0  0  0  0  0  0  0
   -0.7500    1.2990    0.0000 N   0  0  0  0  0  0  0  0  0  0  0  0
   -1.5000    0.0000    0.0000 C   0  0  0  0  0  0  0  0  0  0  0  0
   -3.0000    0.0000    0.0000 N   0  0  0  0  0  0  0  0  0  0  0  0
   -3.7500    1.2990    0.0000 C   0  0  0  0  0  0  0  0  0  0  0  0
   -3.0000    2.5981    0.0000 C   0  0  0  0  0  0  0  0  0  0  0  0
   -3.7500    3.8971    0.0000 C   0  0  0  0  0  0  0  0  0  0  0  0
   -5.2500    3.8971    0.0000 C   0  0  0  0  0  0  0  0  0  0  0  0
   -6.0000    5.1962    0.0000 F   0  0  0  0  0  0  0  0  0  0  0  0
   -6.0000    2.5981    0.0000 C   0  0  0  0  0  0  0  0  0  0  0  0
   -7.5000    2.5981    0.0000 Cl  0  0  0  0  0  0  0  0  0  0  0  0
   -5.2500    1.2990    0.0000 C   0  0  0  0  0  0  0  0  0  0  0  0
   -0.7500   -1.2990    0.0000 C   0  0  0  0  0  0  0  0  0  0  0  0
  1  2  1  0
  2  3  1  0
  3  4  2  0
  4  5  1  0
  5  6  2  0
  5  7  1  0
  7  8  1  0
  8  9  1  0
  9 10  1  0
 10 11  1  0
 11 12  1  0
  4 13  1  0
 13 14  1  0
 14 15  1  0
 15 16  2  0
 16 17  1  0
 17 18  2  0
 17 19  1  0
 19 20  1  0
 20 21  2  0
 21 22  1  0
 22 23  2  0
 23 24  1  0
 24 25  1  0
 25 26  1  0
 26 27  2  0
 27 28  1  0
 28 29  2  0
 29 30  1  0
 29 31  1  0
 31 32  1  0
 31 33  2  0
 24 34  2  0
 14  2  2  0
 34 16  1  0
 12  7  1  0
 34 20  1  0
 33 26  1  0
M  END
>  <Compound_ID>  (239) 
CHEMBL69960

>  <Active>  (239) 
1.0

>  <Smiles>  (239) 
Cc1cc(C(=O)N2CCOCC2)[nH]c1/C=C1\C(=O)Nc2ncnc(Nc3ccc(F)c(Cl)c3)c21

>  <canonical_smi>  (239) 
Cc1cc(C(=O)N2CCOCC2)[nH]c1/C=C1\C(=O)Nc2ncnc(Nc3ccc(F)c(Cl)c3)c21

>  <Set>  (239) 
G2 active

>  <Set_type>  (239) 
Train

>  <MW>  (239) 
482.9

>  <HBD>  (239) 
3

>  <HBA>  (239) 
6

>  <NRB>  (239) 
4

>  <NR>  (239) 
5

>  <NAR>  (239) 
3

>  <PSA>  (239) 
112.24

>  <Standard Type>  (239) 
nan

>  <Standard Relation>  (239) 
nan

>  <Standard Units>  (239) 
nan

>  <Standard Value>  (239) 
nan

>  <Assay ChEMBL ID>  (239) 
nan

>  <Assay Description>  (239) 
nan

>  <BAO Label>  (239) 
nan

$$$$

     RDKit          2D

 21 24  0  0  0  0  0  0  0  0999 V2000
   -9.4590    4.8414    0.0000 Br  0  0  0  0  0  0  0  0  0  0  0  0
   -8.0325    5.3050    0.0000 C   0  0  0  0  0  0  0  0  0  0  0  0
   -7.7206    6.7722    0.0000 C   0  0  0  0  0  0  0  0  0  0  0  0
   -6.2940    7.2357    0.0000 C   0  0  0  0  0  0  0  0  0  0  0  0
   -5.1793    6.2320    0.0000 C   0  0  0  0  0  0  0  0  0  0  0  0
   -5.4912    4.7648    0.0000 C   0  0  0  0  0  0  0  0  0  0  0  0
   -4.3764    3.7611    0.0000 N   0  0  0  0  0  0  0  0  0  0  0  0
   -2.9499    4.2246    0.0000 C   0  0  0  0  0  0  0  0  0  0  0  0
   -2.6380    5.6918    0.0000 N   0  0  0  0  0  0  0  0  0  0  0  0
   -1.2114    6.1554    0.0000 C   0  0  0  0  0  0  0  0  0  0  0  0
   -0.0967    5.1517    0.0000 N   0  0  0  0  0  0  0  0  0  0  0  0
   -0.4086    3.6844    0.0000 C   0  0  0  0  0  0  0  0  0  0  0  0
    0.7062    2.6807    0.0000 C   0  0  0  0  0  0  0  0  0  0  0  0
    0.3943    1.2135    0.0000 C   0  0  0  0  0  0  0  0  0  0  0  0
    1.2760    0.0000    0.0000 N   0  0  0  0  0  0  0  0  0  0  0  0
    0.3943   -1.2135    0.0000 C   0  0  0  0  0  0  0  0  0  0  0  0
   -1.0323   -0.7500    0.0000 S   0  0  0  0  0  0  0  0  0  0  0  0
   -1.0323    0.7500    0.0000 C   0  0  0  0  0  0  0  0  0  0  0  0
   -2.1470    1.7537    0.0000 C   0  0  0  0  0  0  0  0  0  0  0  0
   -1.8351    3.2209    0.0000 C   0  0  0  0  0  0  0  0  0  0  0  0
   -6.9177    4.3013    0.0000 C   0  0  0  0  0  0  0  0  0  0  0  0
  1  2  1  0
  2  3  2  0
  3  4  1  0
  4  5  2  0
  5  6  1  0
  6  7  1  0
  7  8  1  0
  8  9  2  0
  9 10  1  0
 10 11  2  0
 11 12  1  0
 12 13  2  0
 13 14  1  0
 14 15  1  0
 15 16  2  0
 16 17  1  0
 17 18  1  0
 18 19  1  0
 19 20  2  0
  6 21  2  0
 21  2  1  0
 20  8  1  0
 20 12  1  0
 18 14  2  0
M  END
>  <Compound_ID>  (240) 
CHEMBL177053

>  <Active>  (240) 
1.0

>  <Smiles>  (240) 
Brc1cccc(Nc2ncnc3cc4ncsc4cc23)c1

>  <canonical_smi>  (240) 
Brc1cccc(Nc2ncnc3cc4ncsc4cc23)c1

>  <Set>  (240) 
G2 active

>  <Set_type>  (240) 
Train

>  <MW>  (240) 
357.24

>  <HBD>  (240) 
1

>  <HBA>  (240) 
4

>  <NRB>  (240) 
2

>  <NR>  (240) 
4

>  <NAR>  (240) 
4

>  <PSA>  (240) 
50.7

>  <Standard Type>  (240) 
nan

>  <Standard Relation>  (240) 
nan

>  <Standard Units>  (240) 
nan

>  <Standard Value>  (240) 
nan

>  <Assay ChEMBL ID>  (240) 
nan

>  <Assay Description>  (240) 
nan

>  <BAO Label>  (240) 
nan

$$$$

     RDKit          2D

 40 43  0  0  0  0  0  0  0  0999 V2000
    5.2500   -1.2990    0.0000 C   0  0  0  0  0  0  0  0  0  0  0  0
    3.7500   -1.2990    0.0000 C   0  0  0  0  0  0  0  0  0  0  0  0
    3.0000    0.0000    0.0000 O   0  0  0  0  0  0  0  0  0  0  0  0
    1.5000    0.0000    0.0000 C   0  0  0  0  0  0  0  0  0  0  0  0
    0.7500   -1.2990    0.0000 C   0  0  0  0  0  0  0  0  0  0  0  0
   -0.7500   -1.2990    0.0000 C   0  0  0  0  0  0  0  0  0  0  0  0
   -1.5000   -2.5981    0.0000 N   0  0  0  0  0  0  0  0  0  0  0  0
   -3.0000   -2.5981    0.0000 C   0  0  0  0  0  0  0  0  0  0  0  0
   -3.7500   -1.2990    0.0000 C   0  0  0  0  0  0  0  0  0  0  0  0
   -5.2500   -1.2990    0.0000 C   0  0  0  0  0  0  0  0  0  0  0  0
   -6.7500   -1.2990    0.0000 N   0  0  0  0  0  0  0  0  0  0  0  0
   -3.0000    0.0000    0.0000 C   0  0  0  0  0  0  0  0  0  0  0  0
   -3.7500    1.2990    0.0000 N   0  0  0  0  0  0  0  0  0  0  0  0
   -3.0000    2.5981    0.0000 C   0  0  0  0  0  0  0  0  0  0  0  0
   -1.5000    2.5981    0.0000 C   0  0  0  0  0  0  0  0  0  0  0  0
   -0.7500    3.8971    0.0000 C   0  0  0  0  0  0  0  0  0  0  0  0
   -1.5000    5.1962    0.0000 C   0  0  0  0  0  0  0  0  0  0  0  0
   -0.7500    6.4952    0.0000 N   0  0  0  0  0  0  0  0  0  0  0  0
    0.7500    6.4952    0.0000 C   0  0  0  0  0  0  0  0  0  0  0  0
    1.5000    7.7942    0.0000 C   0  0  0  0  0  0  0  0  0  0  0  0
    3.0000    7.7942    0.0000 C   0  0  0  0  0  0  0  0  0  0  0  0
    3.7500    9.0933    0.0000 C   0  0  0  0  0  0  0  0  0  0  0  0
    3.0000   10.3923    0.0000 C   0  0  0  0  0  0  0  0  0  0  0  0
    1.5000   10.3923    0.0000 C   0  0  0  0  0  0  0  0  0  0  0  0
    0.7500    9.0933    0.0000 C   0  0  0  0  0  0  0  0  0  0  0  0
   -3.0000    5.1962    0.0000 C   0  0  0  0  0  0  0  0  0  0  0  0
   -3.7500    6.4952    0.0000 Cl  0  0  0  0  0  0  0  0  0  0  0  0
   -3.7500    3.8971    0.0000 C   0  0  0  0  0  0  0  0  0  0  0  0
   -1.5000    0.0000    0.0000 C   0  0  0  0  0  0  0  0  0  0  0  0
   -0.7500    1.2990    0.0000 C   0  0  0  0  0  0  0  0  0  0  0  0
    0.7500    1.2990    0.0000 C   0  0  0  0  0  0  0  0  0  0  0  0
    1.5000    2.5981    0.0000 N   0  0  0  0  0  0  0  0  0  0  0  0
    3.0000    2.5981    0.0000 C   0  0  0  0  0  0  0  0  0  0  0  0
    3.7500    1.2990    0.0000 O   0  0  0  0  0  0  0  0  0  0  0  0
    3.7500    3.8971    0.0000 C   0  0  0  0  0  0  0  0  0  0  0  0
    5.2500    3.8971    0.0000 C   0  0  0  0  0  0  0  0  0  0  0  0
    6.0000    5.1962    0.0000 C   0  0  0  0  0  0  0  0  0  0  0  0
    7.5000    5.1962    0.0000 N   0  0  0  0  0  0  0  0  0  0  0  0
    8.2500    6.4952    0.0000 C   0  0  0  0  0  0  0  0  0  0  0  0
    8.2500    3.8971    0.0000 C   0  0  0  0  0  0  0  0  0  0  0  0
  1  2  1  0
  2  3  1  0
  3  4  1  0
  4  5  2  0
  5  6  1  0
  6  7  2  0
  7  8  1  0
  8  9  2  0
  9 10  1  0
 10 11  3  0
  9 12  1  0
 12 13  1  0
 13 14  1  0
 14 15  2  0
 15 16  1  0
 16 17  2  0
 17 18  1  0
 18 19  1  0
 19 20  1  0
 20 21  2  0
 21 22  1  0
 22 23  2  0
 23 24  1  0
 24 25  2  0
 17 26  1  0
 26 27  1  0
 26 28  2  0
 12 29  2  0
 29 30  1  0
 30 31  2  0
 31 32  1  0
 32 33  1  0
 33 34  2  0
 33 35  1  0
 35 36  2  0
 36 37  1  0
 37 38  1  0
 38 39  1  0
 38 40  1  0
 31  4  1  0
 29  6  1  0
 28 14  1  0
 25 20  1  0
M  END
>  <Compound_ID>  (241) 
CHEMBL179577

>  <Active>  (241) 
1.0

>  <Smiles>  (241) 
CCOc1cc2ncc(C#N)c(Nc3ccc(NCc4ccccc4)c(Cl)c3)c2cc1NC(=O)/C=C/CN(C)C

>  <canonical_smi>  (241) 
CCOc1cc2ncc(C#N)c(Nc3ccc(NCc4ccccc4)c(Cl)c3)c2cc1NC(=O)/C=C/CN(C)C

>  <Set>  (241) 
G2 active

>  <Set_type>  (241) 
Train

>  <MW>  (241) 
555.08

>  <HBD>  (241) 
3

>  <HBA>  (241) 
7

>  <NRB>  (241) 
11

>  <NR>  (241) 
4

>  <NAR>  (241) 
4

>  <PSA>  (241) 
102.31

>  <Standard Type>  (241) 
nan

>  <Standard Relation>  (241) 
nan

>  <Standard Units>  (241) 
nan

>  <Standard Value>  (241) 
nan

>  <Assay ChEMBL ID>  (241) 
nan

>  <Assay Description>  (241) 
nan

>  <BAO Label>  (241) 
nan

$$$$

     RDKit          2D

 39 44  0  0  0  0  0  0  0  0999 V2000
   -2.5565   -4.8847    0.0000 C   0  0  0  0  0  0  0  0  0  0  0  0
   -1.4418   -3.8810    0.0000 C   0  0  0  0  0  0  0  0  0  0  0  0
   -1.7537   -2.4138    0.0000 C   0  0  0  0  0  0  0  0  0  0  0  0
   -0.7500   -1.2990    0.0000 C   0  0  0  0  0  0  0  0  0  0  0  0
    0.7500   -1.2990    0.0000 C   0  0  0  0  0  0  0  0  0  0  0  0
    1.5000   -2.5981    0.0000 N   0  0  0  0  0  0  0  0  0  0  0  0
    3.0000   -2.5981    0.0000 C   0  0  0  0  0  0  0  0  0  0  0  0
    3.7500   -1.2990    0.0000 C   0  0  0  0  0  0  0  0  0  0  0  0
    5.2500   -1.2990    0.0000 C   0  0  0  0  0  0  0  0  0  0  0  0
    6.0000   -2.5981    0.0000 C   0  0  0  0  0  0  0  0  0  0  0  0
    5.2500   -3.8971    0.0000 C   0  0  0  0  0  0  0  0  0  0  0  0
    6.2537   -5.0118    0.0000 C   0  0  0  0  0  0  0  0  0  0  0  0
    7.6240   -4.4017    0.0000 N   0  0  0  0  0  0  0  0  0  0  0  0
    7.4672   -2.9099    0.0000 N   0  0  0  0  0  0  0  0  0  0  0  0
    8.5819   -1.9062    0.0000 C   0  0  0  0  0  0  0  0  0  0  0  0
   10.0085   -2.3698    0.0000 C   0  0  0  0  0  0  0  0  0  0  0  0
   10.3204   -3.8370    0.0000 C   0  0  0  0  0  0  0  0  0  0  0  0
   11.7470   -4.3005    0.0000 C   0  0  0  0  0  0  0  0  0  0  0  0
   12.8617   -3.2968    0.0000 C   0  0  0  0  0  0  0  0  0  0  0  0
   12.5498   -1.8296    0.0000 C   0  0  0  0  0  0  0  0  0  0  0  0
   11.1232   -1.3661    0.0000 C   0  0  0  0  0  0  0  0  0  0  0  0
    3.7500   -3.8971    0.0000 C   0  0  0  0  0  0  0  0  0  0  0  0
    1.5000    0.0000    0.0000 N   0  0  0  0  0  0  0  0  0  0  0  0
    0.7500    1.2990    0.0000 C   0  0  0  0  0  0  0  0  0  0  0  0
   -0.7500    1.2990    0.0000 N   0  0  0  0  0  0  0  0  0  0  0  0
   -1.5000    0.0000    0.0000 C   0  0  0  0  0  0  0  0  0  0  0  0
   -2.9672   -0.3119    0.0000 N   0  0  0  0  0  0  0  0  0  0  0  0
   -3.1240   -1.8037    0.0000 C   0  0  0  0  0  0  0  0  0  0  0  0
   -4.4231   -2.5537    0.0000 N   0  0  0  0  0  0  0  0  0  0  0  0
   -5.7221   -1.8037    0.0000 C   0  0  0  0  0  0  0  0  0  0  0  0
   -5.7221   -0.3037    0.0000 O   0  0  0  0  0  0  0  0  0  0  0  0
   -7.0211   -2.5537    0.0000 O   0  0  0  0  0  0  0  0  0  0  0  0
   -8.3202   -1.8037    0.0000 C   0  0  0  0  0  0  0  0  0  0  0  0
   -9.6192   -2.5537    0.0000 C   0  0  0  0  0  0  0  0  0  0  0  0
  -10.9182   -1.8037    0.0000 C   0  0  0  0  0  0  0  0  0  0  0  0
  -12.2173   -2.5537    0.0000 C   0  0  0  0  0  0  0  0  0  0  0  0
  -12.2173   -4.0537    0.0000 C   0  0  0  0  0  0  0  0  0  0  0  0
  -10.9182   -4.8037    0.0000 C   0  0  0  0  0  0  0  0  0  0  0  0
   -9.6192   -4.0537    0.0000 N   0  0  0  0  0  0  0  0  0  0  0  0
  1  2  1  0
  2  3  1  0
  3  4  2  0
  4  5  1  0
  5  6  1  0
  6  7  1  0
  7  8  2  0
  8  9  1  0
  9 10  2  0
 10 11  1  0
 11 12  1  0
 12 13  2  0
 13 14  1  0
 14 15  1  0
 15 16  1  0
 16 17  2  0
 17 18  1  0
 18 19  2  0
 19 20  1  0
 20 21  2  0
 11 22  2  0
  5 23  2  0
 23 24  1  0
 24 25  2  0
 25 26  1  0
 26 27  1  0
 27 28  2  0
 28 29  1  0
 29 30  1  0
 30 31  2  0
 30 32  1  0
 32 33  1  0
 33 34  1  0
 34 35  1  0
 35 36  1  0
 36 37  1  0
 37 38  1  0
 38 39  1  0
 28  3  1  0
 39 34  1  0
 26  4  1  0
 22  7  1  0
 14 10  1  0
 21 16  1  0
M  END
>  <Compound_ID>  (242) 
CHEMBL566559

>  <Active>  (242) 
1.0

>  <Smiles>  (242) 
CCC1=C2C(Nc3ccc4c(cnn4Cc4ccccc4)c3)=NC=NC2N=C1NC(=O)OCC1CCCCN1

>  <canonical_smi>  (242) 
CCC1=C2C(Nc3ccc4c(cnn4Cc4ccccc4)c3)=NC=NC2N=C1NC(=O)OCC1CCCCN1

>  <Set>  (242) 
G2 active

>  <Set_type>  (242) 
Train

>  <MW>  (242) 
524.63

>  <HBD>  (242) 
3

>  <HBA>  (242) 
5

>  <NRB>  (242) 
6

>  <NR>  (242) 
6

>  <NAR>  (242) 
3

>  <PSA>  (242) 
117.29

>  <Standard Type>  (242) 
nan

>  <Standard Relation>  (242) 
nan

>  <Standard Units>  (242) 
nan

>  <Standard Value>  (242) 
nan

>  <Assay ChEMBL ID>  (242) 
nan

>  <Assay Description>  (242) 
nan

>  <BAO Label>  (242) 
nan

$$$$

     RDKit          2D

 34 38  0  0  0  0  0  0  0  0999 V2000
   12.7500   -1.2990    0.0000 F   0  0  0  0  0  0  0  0  0  0  0  0
   12.0000   -2.5981    0.0000 C   0  0  0  0  0  0  0  0  0  0  0  0
   12.7500   -3.8971    0.0000 C   0  0  0  0  0  0  0  0  0  0  0  0
   12.0000   -5.1962    0.0000 C   0  0  0  0  0  0  0  0  0  0  0  0
   10.5000   -5.1962    0.0000 C   0  0  0  0  0  0  0  0  0  0  0  0
    9.7500   -3.8971    0.0000 C   0  0  0  0  0  0  0  0  0  0  0  0
    8.2500   -3.8971    0.0000 C   0  0  0  0  0  0  0  0  0  0  0  0
    7.5000   -2.5981    0.0000 O   0  0  0  0  0  0  0  0  0  0  0  0
    6.0000   -2.5981    0.0000 C   0  0  0  0  0  0  0  0  0  0  0  0
    5.2500   -1.2990    0.0000 C   0  0  0  0  0  0  0  0  0  0  0  0
    3.7500   -1.2990    0.0000 C   0  0  0  0  0  0  0  0  0  0  0  0
    3.0000   -2.5981    0.0000 C   0  0  0  0  0  0  0  0  0  0  0  0
    1.5000   -2.5981    0.0000 N   0  0  0  0  0  0  0  0  0  0  0  0
    0.7500   -1.2990    0.0000 C   0  0  0  0  0  0  0  0  0  0  0  0
    1.5000    0.0000    0.0000 N   0  0  0  0  0  0  0  0  0  0  0  0
    0.7500    1.2990    0.0000 C   0  0  0  0  0  0  0  0  0  0  0  0
   -0.7500    1.2990    0.0000 N   0  0  0  0  0  0  0  0  0  0  0  0
   -1.5000    0.0000    0.0000 N   0  0  0  0  0  0  0  0  0  0  0  0
   -2.9672   -0.3119    0.0000 C   0  0  0  0  0  0  0  0  0  0  0  0
   -3.1240   -1.8037    0.0000 C   0  0  0  0  0  0  0  0  0  0  0  0
   -1.7537   -2.4138    0.0000 C   0  0  0  0  0  0  0  0  0  0  0  0
   -1.4418   -3.8810    0.0000 C   0  0  0  0  0  0  0  0  0  0  0  0
   -2.5565   -4.8847    0.0000 N   0  0  0  0  0  0  0  0  0  0  0  0
   -2.1359   -6.3245    0.0000 C   0  0  0  0  0  0  0  0  0  0  0  0
   -2.9993   -7.5511    0.0000 C   0  0  0  0  0  0  0  0  0  0  0  0
   -4.4966   -7.6408    0.0000 C   0  0  0  0  0  0  0  0  0  0  0  0
   -5.5003   -6.5261    0.0000 N   0  0  0  0  0  0  0  0  0  0  0  0
   -5.2546   -5.0463    0.0000 C   0  0  0  0  0  0  0  0  0  0  0  0
   -3.9445   -4.3158    0.0000 C   0  0  0  0  0  0  0  0  0  0  0  0
   -0.7500   -1.2990    0.0000 C   0  0  0  0  0  0  0  0  0  0  0  0
    3.7500   -3.8971    0.0000 C   0  0  0  0  0  0  0  0  0  0  0  0
    5.2500   -3.8971    0.0000 C   0  0  0  0  0  0  0  0  0  0  0  0
    6.0000   -5.1962    0.0000 Cl  0  0  0  0  0  0  0  0  0  0  0  0
   10.5000   -2.5981    0.0000 C   0  0  0  0  0  0  0  0  0  0  0  0
  1  2  1  0
  2  3  2  0
  3  4  1  0
  4  5  2  0
  5  6  1  0
  6  7  1  0
  7  8  1  0
  8  9  1  0
  9 10  2  0
 10 11  1  0
 11 12  2  0
 12 13  1  0
 13 14  1  0
 14 15  2  0
 15 16  1  0
 16 17  2  0
 17 18  1  0
 18 19  1  0
 19 20  2  0
 20 21  1  0
 21 22  1  0
 22 23  1  0
 23 24  1  0
 24 25  1  0
 25 26  1  0
 26 27  1  0
 27 28  1  0
 28 29  1  0
 21 30  2  0
 12 31  1  0
 31 32  2  0
 32 33  1  0
  6 34  2  0
 34  2  1  0
 32  9  1  0
 30 14  1  0
 30 18  1  0
 29 23  1  0
M  END
>  <Compound_ID>  (243) 
CHEMBL247709

>  <Active>  (243) 
1.0

>  <Smiles>  (243) 
Fc1cccc(COc2ccc(Nc3ncnn4ccc(CN5CCCNCC5)c34)cc2Cl)c1

>  <canonical_smi>  (243) 
Fc1cccc(COc2ccc(Nc3ncnn4ccc(CN5CCCNCC5)c34)cc2Cl)c1

>  <Set>  (243) 
G2 active

>  <Set_type>  (243) 
Train

>  <MW>  (243) 
480.98

>  <HBD>  (243) 
2

>  <HBA>  (243) 
6

>  <NRB>  (243) 
7

>  <NR>  (243) 
5

>  <NAR>  (243) 
4

>  <PSA>  (243) 
66.72

>  <Standard Type>  (243) 
nan

>  <Standard Relation>  (243) 
nan

>  <Standard Units>  (243) 
nan

>  <Standard Value>  (243) 
nan

>  <Assay ChEMBL ID>  (243) 
nan

>  <Assay Description>  (243) 
nan

>  <BAO Label>  (243) 
nan

$$$$

     RDKit          2D

 35 39  0  0  0  0  0  0  0  0999 V2000
   -7.5000    2.5981    0.0000 C   0  0  0  0  0  0  0  0  0  0  0  0
   -6.0000    2.5981    0.0000 O   0  0  0  0  0  0  0  0  0  0  0  0
   -5.2500    1.2990    0.0000 C   0  0  0  0  0  0  0  0  0  0  0  0
   -3.7500    1.2990    0.0000 C   0  0  0  0  0  0  0  0  0  0  0  0
   -3.0000    0.0000    0.0000 C   0  0  0  0  0  0  0  0  0  0  0  0
   -3.7500   -1.2990    0.0000 C   0  0  0  0  0  0  0  0  0  0  0  0
   -3.0000   -2.5981    0.0000 N   0  0  0  0  0  0  0  0  0  0  0  0
   -1.5000   -2.5981    0.0000 C   0  0  0  0  0  0  0  0  0  0  0  0
   -0.7500   -3.8971    0.0000 C   0  0  0  0  0  0  0  0  0  0  0  0
   -1.5000   -5.1962    0.0000 C   0  0  0  0  0  0  0  0  0  0  0  0
   -3.0000   -5.1962    0.0000 N   0  0  0  0  0  0  0  0  0  0  0  0
   -0.7500   -6.4952    0.0000 N   0  0  0  0  0  0  0  0  0  0  0  0
    0.7500   -6.4952    0.0000 C   0  0  0  0  0  0  0  0  0  0  0  0
    1.5000   -5.1962    0.0000 N   0  0  0  0  0  0  0  0  0  0  0  0
    0.7500   -3.8971    0.0000 C   0  0  0  0  0  0  0  0  0  0  0  0
    1.5000   -2.5981    0.0000 N   0  0  0  0  0  0  0  0  0  0  0  0
    0.7500   -1.2990    0.0000 C   0  0  0  0  0  0  0  0  0  0  0  0
   -0.7500   -1.2990    0.0000 C   0  0  0  0  0  0  0  0  0  0  0  0
   -1.5000   -0.0000    0.0000 C   0  0  0  0  0  0  0  0  0  0  0  0
   -0.7500    1.2990    0.0000 C   0  0  0  0  0  0  0  0  0  0  0  0
    0.7500    1.2990    0.0000 C   0  0  0  0  0  0  0  0  0  0  0  0
    1.2135    2.7256    0.0000 C   0  0  0  0  0  0  0  0  0  0  0  0
   -0.0000    3.6073    0.0000 N   0  0  0  0  0  0  0  0  0  0  0  0
   -1.2135    2.7256    0.0000 N   0  0  0  0  0  0  0  0  0  0  0  0
   -2.6401    3.1891    0.0000 C   0  0  0  0  0  0  0  0  0  0  0  0
   -2.9520    4.6564    0.0000 C   0  0  0  0  0  0  0  0  0  0  0  0
   -4.3786    5.1199    0.0000 C   0  0  0  0  0  0  0  0  0  0  0  0
   -4.6904    6.5871    0.0000 C   0  0  0  0  0  0  0  0  0  0  0  0
   -3.5757    7.5908    0.0000 C   0  0  0  0  0  0  0  0  0  0  0  0
   -2.1491    7.1273    0.0000 C   0  0  0  0  0  0  0  0  0  0  0  0
   -1.0344    8.1310    0.0000 F   0  0  0  0  0  0  0  0  0  0  0  0
   -1.8373    5.6601    0.0000 C   0  0  0  0  0  0  0  0  0  0  0  0
    1.5000   -0.0000    0.0000 C   0  0  0  0  0  0  0  0  0  0  0  0
   -5.2500   -1.2990    0.0000 C   0  0  0  0  0  0  0  0  0  0  0  0
   -6.0000    0.0000    0.0000 C   0  0  0  0  0  0  0  0  0  0  0  0
  1  2  1  0
  2  3  1  0
  3  4  2  0
  4  5  1  0
  5  6  2  0
  6  7  1  0
  7  8  2  0
  8  9  1  0
  9 10  2  0
 10 11  1  0
 10 12  1  0
 12 13  2  0
 13 14  1  0
 14 15  2  0
 15 16  1  0
 16 17  1  0
 17 18  2  0
 18 19  1  0
 19 20  2  0
 20 21  1  0
 21 22  1  0
 22 23  2  0
 23 24  1  0
 24 25  1  0
 25 26  1  0
 26 27  2  0
 27 28  1  0
 28 29  2  0
 29 30  1  0
 30 31  1  0
 30 32  2  0
 21 33  2  0
  6 34  1  0
 34 35  2  0
 35  3  1  0
 15  9  1  0
 33 17  1  0
 24 20  1  0
 32 26  1  0
M  END
>  <Compound_ID>  (244) 
CHEMBL525725

>  <Active>  (244) 
1.0

>  <Smiles>  (244) 
COc1ccc(/N=C/c2c(N)ncnc2Nc2ccc3c(cnn3Cc3cccc(F)c3)c2)cc1

>  <canonical_smi>  (244) 
COc1ccc(/N=C/c2c(N)ncnc2Nc2ccc3c(cnn3Cc3cccc(F)c3)c2)cc1

>  <Set>  (244) 
G2 active

>  <Set_type>  (244) 
Train

>  <MW>  (244) 
467.51

>  <HBD>  (244) 
2

>  <HBA>  (244) 
6

>  <NRB>  (244) 
7

>  <NR>  (244) 
5

>  <NAR>  (244) 
5

>  <PSA>  (244) 
103.24

>  <Standard Type>  (244) 
nan

>  <Standard Relation>  (244) 
nan

>  <Standard Units>  (244) 
nan

>  <Standard Value>  (244) 
nan

>  <Assay ChEMBL ID>  (244) 
nan

>  <Assay Description>  (244) 
nan

>  <BAO Label>  (244) 
nan

$$$$

     RDKit          2D

 29 32  0  0  0  0  0  0  0  0999 V2000
   -5.2500   -3.8971    0.0000 C   0  0  0  0  0  0  0  0  0  0  0  0
   -3.7500   -3.8971    0.0000 O   0  0  0  0  0  0  0  0  0  0  0  0
   -3.0000   -2.5981    0.0000 C   0  0  0  0  0  0  0  0  0  0  0  0
   -1.5000   -2.5981    0.0000 C   0  0  0  0  0  0  0  0  0  0  0  0
   -0.7500   -1.2990    0.0000 C   0  0  0  0  0  0  0  0  0  0  0  0
    0.7500   -1.2990    0.0000 C   0  0  0  0  0  0  0  0  0  0  0  0
    1.5000   -2.5981    0.0000 N   0  0  0  0  0  0  0  0  0  0  0  0
    3.0000   -2.5981    0.0000 C   0  0  0  0  0  0  0  0  0  0  0  0
    3.7500   -3.8971    0.0000 C   0  0  0  0  0  0  0  0  0  0  0  0
    5.2500   -3.8971    0.0000 C   0  0  0  0  0  0  0  0  0  0  0  0
    6.0000   -2.5981    0.0000 C   0  0  0  0  0  0  0  0  0  0  0  0
    7.5000   -2.5981    0.0000 Br  0  0  0  0  0  0  0  0  0  0  0  0
    5.2500   -1.2990    0.0000 C   0  0  0  0  0  0  0  0  0  0  0  0
    3.7500   -1.2990    0.0000 C   0  0  0  0  0  0  0  0  0  0  0  0
    3.0000   -0.0000    0.0000 F   0  0  0  0  0  0  0  0  0  0  0  0
    1.5000    0.0000    0.0000 N   0  0  0  0  0  0  0  0  0  0  0  0
    0.7500    1.2990    0.0000 C   0  0  0  0  0  0  0  0  0  0  0  0
   -0.7500    1.2990    0.0000 N   0  0  0  0  0  0  0  0  0  0  0  0
   -1.5000    0.0000    0.0000 C   0  0  0  0  0  0  0  0  0  0  0  0
   -3.0000    0.0000    0.0000 C   0  0  0  0  0  0  0  0  0  0  0  0
   -3.7500   -1.2990    0.0000 C   0  0  0  0  0  0  0  0  0  0  0  0
   -5.2500   -1.2990    0.0000 O   0  0  0  0  0  0  0  0  0  0  0  0
   -6.0000    0.0000    0.0000 C   0  0  0  0  0  0  0  0  0  0  0  0
   -7.5000    0.0000    0.0000 C   0  0  0  0  0  0  0  0  0  0  0  0
   -8.2500    1.2990    0.0000 N   0  0  0  0  0  0  0  0  0  0  0  0
   -9.7418    1.4558    0.0000 C   0  0  0  0  0  0  0  0  0  0  0  0
  -10.0537    2.9231    0.0000 C   0  0  0  0  0  0  0  0  0  0  0  0
   -8.7546    3.6731    0.0000 N   0  0  0  0  0  0  0  0  0  0  0  0
   -7.6399    2.6694    0.0000 N   0  0  0  0  0  0  0  0  0  0  0  0
  1  2  1  0
  2  3  1  0
  3  4  2  0
  4  5  1  0
  5  6  2  0
  6  7  1  0
  7  8  1  0
  8  9  2  0
  9 10  1  0
 10 11  2  0
 11 12  1  0
 11 13  1  0
 13 14  2  0
 14 15  1  0
  6 16  1  0
 16 17  2  0
 17 18  1  0
 18 19  2  0
 19 20  1  0
 20 21  2  0
 21 22  1  0
 22 23  1  0
 23 24  1  0
 24 25  1  0
 25 26  1  0
 26 27  2  0
 27 28  1  0
 28 29  2  0
 21  3  1  0
 29 25  1  0
 19  5  1  0
 14  8  1  0
M  END
>  <Compound_ID>  (245) 
CHEMBL281872

>  <Active>  (245) 
1.0

>  <Smiles>  (245) 
COc1cc2c(Nc3ccc(Br)cc3F)ncnc2cc1OCCn1ccnn1

>  <canonical_smi>  (245) 
COc1cc2c(Nc3ccc(Br)cc3F)ncnc2cc1OCCn1ccnn1

>  <Set>  (245) 
G2 active

>  <Set_type>  (245) 
Train

>  <MW>  (245) 
459.28

>  <HBD>  (245) 
1

>  <HBA>  (245) 
7

>  <NRB>  (245) 
7

>  <NR>  (245) 
4

>  <NAR>  (245) 
4

>  <PSA>  (245) 
86.98

>  <Standard Type>  (245) 
nan

>  <Standard Relation>  (245) 
nan

>  <Standard Units>  (245) 
nan

>  <Standard Value>  (245) 
nan

>  <Assay ChEMBL ID>  (245) 
nan

>  <Assay Description>  (245) 
nan

>  <BAO Label>  (245) 
nan

$$$$

     RDKit          2D

 28 30  0  0  0  0  0  0  0  0999 V2000
   -0.7500   -6.4952    0.0000 O   0  0  0  0  0  0  0  0  0  0  0  0
    0.7500   -6.4952    0.0000 C   0  0  0  0  0  0  0  0  0  0  0  0
    1.5000   -5.1962    0.0000 N   0  0  0  0  0  0  0  0  0  0  0  0
    0.7500   -3.8971    0.0000 O   0  0  0  0  0  0  0  0  0  0  0  0
    1.5000   -2.5981    0.0000 C   0  0  0  0  0  0  0  0  0  0  0  0
    0.7500   -1.2990    0.0000 C   0  0  0  0  0  0  0  0  0  0  0  0
    1.5000    0.0000    0.0000 C   0  0  0  0  0  0  0  0  0  0  0  0
    0.7500    1.2990    0.0000 C   0  0  0  0  0  0  0  0  0  0  0  0
   -0.7500    1.2990    0.0000 C   0  0  0  0  0  0  0  0  0  0  0  0
   -1.5000    0.0000    0.0000 C   0  0  0  0  0  0  0  0  0  0  0  0
   -0.7500   -1.2990    0.0000 C   0  0  0  0  0  0  0  0  0  0  0  0
    1.5000   -7.7942    0.0000 C   0  0  0  0  0  0  0  0  0  0  0  0
    0.7500   -9.0933    0.0000 C   0  0  0  0  0  0  0  0  0  0  0  0
    1.5000  -10.3923    0.0000 C   0  0  0  0  0  0  0  0  0  0  0  0
    0.7500  -11.6913    0.0000 N   0  0  0  0  0  0  0  0  0  0  0  0
   -0.7500  -11.6913    0.0000 C   0  0  0  0  0  0  0  0  0  0  0  0
   -1.5000  -12.9904    0.0000 C   0  0  0  0  0  0  0  0  0  0  0  0
   -3.0000  -12.9904    0.0000 C   0  0  0  0  0  0  0  0  0  0  0  0
   -3.7500  -14.2894    0.0000 C   0  0  0  0  0  0  0  0  0  0  0  0
   -5.2500  -14.2894    0.0000 O   0  0  0  0  0  0  0  0  0  0  0  0
   -3.0000  -15.5885    0.0000 C   0  0  0  0  0  0  0  0  0  0  0  0
   -1.5000  -15.5885    0.0000 C   0  0  0  0  0  0  0  0  0  0  0  0
   -0.7500  -14.2894    0.0000 C   0  0  0  0  0  0  0  0  0  0  0  0
    0.7500  -14.2894    0.0000 O   0  0  0  0  0  0  0  0  0  0  0  0
    3.0000  -10.3923    0.0000 C   0  0  0  0  0  0  0  0  0  0  0  0
    3.7500   -9.0933    0.0000 C   0  0  0  0  0  0  0  0  0  0  0  0
    3.0000   -7.7942    0.0000 C   0  0  0  0  0  0  0  0  0  0  0  0
    3.7500   -6.4952    0.0000 O   0  0  0  0  0  0  0  0  0  0  0  0
  1  2  2  0
  2  3  1  0
  3  4  1  0
  4  5  1  0
  5  6  1  0
  6  7  2  0
  7  8  1  0
  8  9  2  0
  9 10  1  0
 10 11  2  0
  2 12  1  0
 12 13  2  0
 13 14  1  0
 14 15  1  0
 15 16  1  0
 16 17  1  0
 17 18  2  0
 18 19  1  0
 19 20  1  0
 19 21  2  0
 21 22  1  0
 22 23  2  0
 23 24  1  0
 14 25  2  0
 25 26  1  0
 26 27  2  0
 27 28  1  0
 11  6  1  0
 27 12  1  0
 23 17  1  0
M  END
>  <Compound_ID>  (246) 
CHEMBL355294

>  <Active>  (246) 
1.0

>  <Smiles>  (246) 
O=C(NOCc1ccccc1)c1cc(NCc2cc(O)ccc2O)ccc1O

>  <canonical_smi>  (246) 
O=C(NOCc1ccccc1)c1cc(NCc2cc(O)ccc2O)ccc1O

>  <Set>  (246) 
G2 active

>  <Set_type>  (246) 
Train

>  <MW>  (246) 
380.4

>  <HBD>  (246) 
5

>  <HBA>  (246) 
6

>  <NRB>  (246) 
7

>  <NR>  (246) 
3

>  <NAR>  (246) 
3

>  <PSA>  (246) 
111.05

>  <Standard Type>  (246) 
nan

>  <Standard Relation>  (246) 
nan

>  <Standard Units>  (246) 
nan

>  <Standard Value>  (246) 
nan

>  <Assay ChEMBL ID>  (246) 
nan

>  <Assay Description>  (246) 
nan

>  <BAO Label>  (246) 
nan

$$$$

     RDKit          2D

 29 32  0  0  0  0  0  0  0  0999 V2000
    3.0000   -5.1962    0.0000 C   0  0  0  0  0  0  0  0  0  0  0  0
    1.5000   -5.1962    0.0000 O   0  0  0  0  0  0  0  0  0  0  0  0
    0.7500   -3.8971    0.0000 C   0  0  0  0  0  0  0  0  0  0  0  0
    1.5000   -2.5981    0.0000 C   0  0  0  0  0  0  0  0  0  0  0  0
    0.7500   -1.2990    0.0000 C   0  0  0  0  0  0  0  0  0  0  0  0
    1.5000    0.0000    0.0000 N   0  0  0  0  0  0  0  0  0  0  0  0
    0.7500    1.2990    0.0000 C   0  0  0  0  0  0  0  0  0  0  0  0
   -0.7500    1.2990    0.0000 N   0  0  0  0  0  0  0  0  0  0  0  0
   -1.5000    0.0000    0.0000 C   0  0  0  0  0  0  0  0  0  0  0  0
   -3.0000    0.0000    0.0000 N   0  0  0  0  0  0  0  0  0  0  0  0
   -3.7500    1.2990    0.0000 C   0  0  0  0  0  0  0  0  0  0  0  0
   -3.0000    2.5981    0.0000 C   0  0  0  0  0  0  0  0  0  0  0  0
   -3.7500    3.8971    0.0000 C   0  0  0  0  0  0  0  0  0  0  0  0
   -5.2500    3.8971    0.0000 C   0  0  0  0  0  0  0  0  0  0  0  0
   -6.0000    2.5981    0.0000 C   0  0  0  0  0  0  0  0  0  0  0  0
   -7.5000    2.5981    0.0000 Cl  0  0  0  0  0  0  0  0  0  0  0  0
   -5.2500    1.2990    0.0000 C   0  0  0  0  0  0  0  0  0  0  0  0
   -6.0000    0.0000    0.0000 F   0  0  0  0  0  0  0  0  0  0  0  0
   -0.7500   -1.2990    0.0000 C   0  0  0  0  0  0  0  0  0  0  0  0
   -1.5000   -2.5981    0.0000 C   0  0  0  0  0  0  0  0  0  0  0  0
   -0.7500   -3.8971    0.0000 C   0  0  0  0  0  0  0  0  0  0  0  0
   -1.5000   -5.1962    0.0000 C   0  0  0  0  0  0  0  0  0  0  0  0
   -3.0000   -5.1962    0.0000 N   0  0  0  0  0  0  0  0  0  0  0  0
   -4.0607   -4.1355    0.0000 C   0  0  0  0  0  0  0  0  0  0  0  0
   -5.1213   -5.1962    0.0000 C   0  0  0  0  0  0  0  0  0  0  0  0
   -6.6213   -5.1962    0.0000 C   0  0  0  0  0  0  0  0  0  0  0  0
   -7.3713   -3.8971    0.0000 N   0  0  0  0  0  0  0  0  0  0  0  0
   -7.3713   -6.4952    0.0000 O   0  0  0  0  0  0  0  0  0  0  0  0
   -4.0607   -6.2568    0.0000 C   0  0  0  0  0  0  0  0  0  0  0  0
  1  2  1  0
  2  3  1  0
  3  4  2  0
  4  5  1  0
  5  6  2  0
  6  7  1  0
  7  8  2  0
  8  9  1  0
  9 10  1  0
 10 11  1  0
 11 12  2  0
 12 13  1  0
 13 14  2  0
 14 15  1  0
 15 16  1  0
 15 17  2  0
 17 18  1  0
  9 19  2  0
 19 20  1  0
 20 21  2  0
 21 22  1  0
 22 23  1  0
 23 24  1  0
 24 25  1  0
 25 26  1  0
 26 27  1  0
 26 28  2  0
 25 29  1  0
 21  3  1  0
 29 23  1  0
 19  5  1  0
 17 11  1  0
M  END
>  <Compound_ID>  (247) 
CHEMBL207037

>  <Active>  (247) 
1.0

>  <Smiles>  (247) 
COc1cc2ncnc(Nc3cccc(Cl)c3F)c2cc1CN1CC(C(N)=O)C1

>  <canonical_smi>  (247) 
COc1cc2ncnc(Nc3cccc(Cl)c3F)c2cc1CN1CC(C(N)=O)C1

>  <Set>  (247) 
G2 active

>  <Set_type>  (247) 
Train

>  <MW>  (247) 
415.86

>  <HBD>  (247) 
2

>  <HBA>  (247) 
6

>  <NRB>  (247) 
6

>  <NR>  (247) 
4

>  <NAR>  (247) 
3

>  <PSA>  (247) 
93.37

>  <Standard Type>  (247) 
nan

>  <Standard Relation>  (247) 
nan

>  <Standard Units>  (247) 
nan

>  <Standard Value>  (247) 
nan

>  <Assay ChEMBL ID>  (247) 
nan

>  <Assay Description>  (247) 
nan

>  <BAO Label>  (247) 
nan

$$$$

     RDKit          2D

 31 34  0  0  0  0  0  0  0  0999 V2000
    3.0000   -5.1962    0.0000 C   0  0  0  0  0  0  0  0  0  0  0  0
    1.5000   -5.1962    0.0000 O   0  0  0  0  0  0  0  0  0  0  0  0
    0.7500   -3.8971    0.0000 C   0  0  0  0  0  0  0  0  0  0  0  0
    1.5000   -2.5981    0.0000 C   0  0  0  0  0  0  0  0  0  0  0  0
    0.7500   -1.2990    0.0000 C   0  0  0  0  0  0  0  0  0  0  0  0
    1.5000    0.0000    0.0000 N   0  0  0  0  0  0  0  0  0  0  0  0
    0.7500    1.2990    0.0000 C   0  0  0  0  0  0  0  0  0  0  0  0
   -0.7500    1.2990    0.0000 N   0  0  0  0  0  0  0  0  0  0  0  0
   -1.5000    0.0000    0.0000 C   0  0  0  0  0  0  0  0  0  0  0  0
   -3.0000    0.0000    0.0000 N   0  0  0  0  0  0  0  0  0  0  0  0
   -3.7500    1.2990    0.0000 C   0  0  0  0  0  0  0  0  0  0  0  0
   -3.0000    2.5981    0.0000 C   0  0  0  0  0  0  0  0  0  0  0  0
   -3.7500    3.8971    0.0000 C   0  0  0  0  0  0  0  0  0  0  0  0
   -5.2500    3.8971    0.0000 C   0  0  0  0  0  0  0  0  0  0  0  0
   -6.0000    2.5981    0.0000 C   0  0  0  0  0  0  0  0  0  0  0  0
   -7.5000    2.5981    0.0000 Cl  0  0  0  0  0  0  0  0  0  0  0  0
   -5.2500    1.2990    0.0000 C   0  0  0  0  0  0  0  0  0  0  0  0
   -6.0000    0.0000    0.0000 F   0  0  0  0  0  0  0  0  0  0  0  0
   -0.7500   -1.2990    0.0000 C   0  0  0  0  0  0  0  0  0  0  0  0
   -1.5000   -2.5981    0.0000 C   0  0  0  0  0  0  0  0  0  0  0  0
   -0.7500   -3.8971    0.0000 C   0  0  0  0  0  0  0  0  0  0  0  0
   -1.5000   -5.1962    0.0000 C   0  0  0  0  0  0  0  0  0  0  0  0
   -3.0000   -5.1962    0.0000 N   0  0  0  0  0  0  0  0  0  0  0  0
   -3.7500   -3.8971    0.0000 C   0  0  0  0  0  0  0  0  0  0  0  0
   -5.2500   -3.8971    0.0000 C   0  0  0  0  0  0  0  0  0  0  0  0
   -6.0000   -5.1962    0.0000 O   0  0  0  0  0  0  0  0  0  0  0  0
   -5.2500   -6.4952    0.0000 C   0  0  0  0  0  0  0  0  0  0  0  0
   -3.7500   -6.4952    0.0000 C   0  0  0  0  0  0  0  0  0  0  0  0
   -3.0000   -7.7942    0.0000 C   0  0  0  0  0  0  0  0  0  0  0  0
   -3.7500   -9.0933    0.0000 N   0  0  0  0  0  0  0  0  0  0  0  0
   -1.5000   -7.7942    0.0000 O   0  0  0  0  0  0  0  0  0  0  0  0
  1  2  1  0
  2  3  1  0
  3  4  2  0
  4  5  1  0
  5  6  2  0
  6  7  1  0
  7  8  2  0
  8  9  1  0
  9 10  1  0
 10 11  1  0
 11 12  2  0
 12 13  1  0
 13 14  2  0
 14 15  1  0
 15 16  1  0
 15 17  2  0
 17 18  1  0
  9 19  2  0
 19 20  1  0
 20 21  2  0
 21 22  1  0
 22 23  1  0
 23 24  1  0
 24 25  1  0
 25 26  1  0
 26 27  1  0
 27 28  1  0
 28 29  1  0
 29 30  1  0
 29 31  2  0
 21  3  1  0
 28 23  1  0
 19  5  1  0
 17 11  1  0
M  END
>  <Compound_ID>  (248) 
CHEMBL207674

>  <Active>  (248) 
1.0

>  <Smiles>  (248) 
COc1cc2ncnc(Nc3cccc(Cl)c3F)c2cc1CN1CCOCC1C(N)=O

>  <canonical_smi>  (248) 
COc1cc2ncnc(Nc3cccc(Cl)c3F)c2cc1CN1CCOCC1C(N)=O

>  <Set>  (248) 
G2 active

>  <Set_type>  (248) 
Train

>  <MW>  (248) 
445.88

>  <HBD>  (248) 
2

>  <HBA>  (248) 
7

>  <NRB>  (248) 
6

>  <NR>  (248) 
4

>  <NAR>  (248) 
3

>  <PSA>  (248) 
102.6

>  <Standard Type>  (248) 
nan

>  <Standard Relation>  (248) 
nan

>  <Standard Units>  (248) 
nan

>  <Standard Value>  (248) 
nan

>  <Assay ChEMBL ID>  (248) 
nan

>  <Assay Description>  (248) 
nan

>  <BAO Label>  (248) 
nan

$$$$

     RDKit          2D

 25 26  0  0  0  0  0  0  0  0999 V2000
    3.7500    1.2990    0.0000 O   0  0  0  0  0  0  0  0  0  0  0  0
    3.0000    0.0000    0.0000 C   0  0  0  0  0  0  0  0  0  0  0  0
    3.7500   -1.2990    0.0000 O   0  0  0  0  0  0  0  0  0  0  0  0
    1.5000    0.0000    0.0000 C   0  0  0  0  0  0  0  0  0  0  0  0
    0.7500   -1.2990    0.0000 C   0  0  0  0  0  0  0  0  0  0  0  0
   -0.7500   -1.2990    0.0000 C   0  0  0  0  0  0  0  0  0  0  0  0
   -1.5000    0.0000    0.0000 C   0  0  0  0  0  0  0  0  0  0  0  0
   -3.0000    0.0000    0.0000 S   0  0  0  0  0  0  0  0  0  0  0  0
   -3.0000    1.5000    0.0000 O   0  0  0  0  0  0  0  0  0  0  0  0
   -3.0000   -1.5000    0.0000 O   0  0  0  0  0  0  0  0  0  0  0  0
   -4.5000    0.0000    0.0000 O   0  0  0  0  0  0  0  0  0  0  0  0
   -5.2500   -1.2990    0.0000 C   0  0  0  0  0  0  0  0  0  0  0  0
   -6.7500   -1.2990    0.0000 C   0  0  0  0  0  0  0  0  0  0  0  0
   -7.5000   -2.5981    0.0000 C   0  0  0  0  0  0  0  0  0  0  0  0
   -6.7500   -3.8971    0.0000 C   0  0  0  0  0  0  0  0  0  0  0  0
   -7.5000   -5.1962    0.0000 C   0  0  0  0  0  0  0  0  0  0  0  0
   -9.0000   -5.1962    0.0000 C   0  0  0  0  0  0  0  0  0  0  0  0
   -9.7500   -6.4952    0.0000 N   0  0  0  0  0  4  0  0  0  0  0  0
   -9.0000   -7.7942    0.0000 O   0  0  0  0  0  0  0  0  0  0  0  0
  -11.2500   -6.4952    0.0000 O   0  0  0  0  0  1  0  0  0  0  0  0
   -5.2500   -3.8971    0.0000 C   0  0  0  0  0  0  0  0  0  0  0  0
   -4.5000   -2.5981    0.0000 C   0  0  0  0  0  0  0  0  0  0  0  0
   -0.7500    1.2990    0.0000 C   0  0  0  0  0  0  0  0  0  0  0  0
    0.7500    1.2990    0.0000 C   0  0  0  0  0  0  0  0  0  0  0  0
    1.5000    2.5981    0.0000 O   0  0  0  0  0  0  0  0  0  0  0  0
  1  2  2  0
  2  3  1  0
  2  4  1  0
  4  5  2  0
  5  6  1  0
  6  7  2  0
  7  8  1  0
  8  9  2  0
  8 10  2  0
  8 11  1  0
 11 12  1  0
 12 13  2  0
 13 14  1  0
 14 15  2  0
 15 16  1  0
 16 17  2  0
 17 18  1  0
 18 19  2  0
 18 20  1  0
 15 21  1  0
 21 22  2  0
  7 23  1  0
 23 24  2  0
 24 25  1  0
 24  4  1  0
 22 12  1  0
M  CHG  2  18   1  20  -1
M  END
>  <Compound_ID>  (249) 
CHEMBL449093

>  <Active>  (249) 
1.0

>  <Smiles>  (249) 
O=C(O)c1ccc(S(=O)(=O)Oc2ccc(/C=C/[N+](=O)[O-])cc2)cc1O

>  <canonical_smi>  (249) 
O=C(O)c1ccc(S(=O)(=O)Oc2ccc(/C=C/[N+](=O)[O-])cc2)cc1O

>  <Set>  (249) 
G2 active

>  <Set_type>  (249) 
Train

>  <MW>  (249) 
365.32

>  <HBD>  (249) 
2

>  <HBA>  (249) 
8

>  <NRB>  (249) 
6

>  <NR>  (249) 
2

>  <NAR>  (249) 
2

>  <PSA>  (249) 
144.04

>  <Standard Type>  (249) 
nan

>  <Standard Relation>  (249) 
nan

>  <Standard Units>  (249) 
nan

>  <Standard Value>  (249) 
nan

>  <Assay ChEMBL ID>  (249) 
nan

>  <Assay Description>  (249) 
nan

>  <BAO Label>  (249) 
nan

$$$$

     RDKit          2D

 20 22  0  0  0  0  0  0  0  0999 V2000
    3.7500   -1.2990    0.0000 C   0  0  0  0  0  0  0  0  0  0  0  0
    3.0000    0.0000    0.0000 N   0  0  0  0  0  0  0  0  0  0  0  0
    1.5000    0.0000    0.0000 C   0  0  0  0  0  0  0  0  0  0  0  0
    0.7500   -1.2990    0.0000 C   0  0  0  0  0  0  0  0  0  0  0  0
   -0.7500   -1.2990    0.0000 C   0  0  0  0  0  0  0  0  0  0  0  0
   -1.5000    0.0000    0.0000 C   0  0  0  0  0  0  0  0  0  0  0  0
   -3.0000    0.0000    0.0000 C   0  0  0  0  0  0  0  0  0  0  0  0
   -3.7500   -1.2990    0.0000 N   0  0  0  0  0  0  0  0  0  0  0  0
   -5.2500   -1.2990    0.0000 C   0  0  0  0  0  0  0  0  0  0  0  0
   -6.0000    0.0000    0.0000 C   0  0  0  0  0  0  0  0  0  0  0  0
   -7.5000    0.0000    0.0000 C   0  0  0  0  0  0  0  0  0  0  0  0
   -8.2500   -1.2990    0.0000 C   0  0  0  0  0  0  0  0  0  0  0  0
   -7.5000   -2.5981    0.0000 C   0  0  0  0  0  0  0  0  0  0  0  0
   -8.2500   -3.8971    0.0000 Br  0  0  0  0  0  0  0  0  0  0  0  0
   -6.0000   -2.5981    0.0000 C   0  0  0  0  0  0  0  0  0  0  0  0
   -3.7500    1.2990    0.0000 N   0  0  0  0  0  0  0  0  0  0  0  0
   -3.0000    2.5981    0.0000 C   0  0  0  0  0  0  0  0  0  0  0  0
   -1.5000    2.5981    0.0000 N   0  0  0  0  0  0  0  0  0  0  0  0
   -0.7500    1.2990    0.0000 C   0  0  0  0  0  0  0  0  0  0  0  0
    0.7500    1.2990    0.0000 N   0  0  0  0  0  0  0  0  0  0  0  0
  1  2  1  0
  2  3  1  0
  3  4  2  0
  4  5  1  0
  5  6  2  0
  6  7  1  0
  7  8  1  0
  8  9  1  0
  9 10  2  0
 10 11  1  0
 11 12  2  0
 12 13  1  0
 13 14  1  0
 13 15  2  0
  7 16  2  0
 16 17  1  0
 17 18  2  0
 18 19  1  0
 19 20  2  0
 20  3  1  0
 19  6  1  0
 15  9  1  0
M  END
>  <Compound_ID>  (250) 
CHEMBL298637

>  <Active>  (250) 
1.0

>  <Smiles>  (250) 
CNc1ccc2c(Nc3cccc(Br)c3)ncnc2n1

>  <canonical_smi>  (250) 
CNc1ccc2c(Nc3cccc(Br)c3)ncnc2n1

>  <Set>  (250) 
G2 active

>  <Set_type>  (250) 
Train

>  <MW>  (250) 
330.19

>  <HBD>  (250) 
2

>  <HBA>  (250) 
5

>  <NRB>  (250) 
3

>  <NR>  (250) 
3

>  <NAR>  (250) 
3

>  <PSA>  (250) 
62.73

>  <Standard Type>  (250) 
nan

>  <Standard Relation>  (250) 
nan

>  <Standard Units>  (250) 
nan

>  <Standard Value>  (250) 
nan

>  <Assay ChEMBL ID>  (250) 
nan

>  <Assay Description>  (250) 
nan

>  <BAO Label>  (250) 
nan

$$$$

     RDKit          2D

 34 38  0  0  0  0  0  0  0  0999 V2000
    3.7500   -1.2990    0.0000 C   0  0  0  0  0  0  0  0  0  0  0  0
    3.0000    0.0000    0.0000 O   0  0  0  0  0  0  0  0  0  0  0  0
    1.5000    0.0000    0.0000 C   0  0  0  0  0  0  0  0  0  0  0  0
    0.7500   -1.2990    0.0000 C   0  0  0  0  0  0  0  0  0  0  0  0
   -0.7500   -1.2990    0.0000 C   0  0  0  0  0  0  0  0  0  0  0  0
   -1.5000   -2.5981    0.0000 N   0  0  0  0  0  0  0  0  0  0  0  0
   -3.0000   -2.5981    0.0000 C   0  0  0  0  0  0  0  0  0  0  0  0
   -3.7500   -1.2990    0.0000 C   0  0  0  0  0  0  0  0  0  0  0  0
   -5.2500   -1.2990    0.0000 C   0  0  0  0  0  0  0  0  0  0  0  0
   -6.7500   -1.2990    0.0000 N   0  0  0  0  0  0  0  0  0  0  0  0
   -3.0000    0.0000    0.0000 C   0  0  0  0  0  0  0  0  0  0  0  0
   -3.7500    1.2990    0.0000 N   0  0  0  0  0  0  0  0  0  0  0  0
   -5.2500    1.2990    0.0000 C   0  0  0  0  0  0  0  0  0  0  0  0
   -6.5490    0.5490    0.0000 C   0  0  0  0  0  0  0  0  0  0  0  0
   -6.5490    2.0490    0.0000 C   0  0  0  0  0  0  0  0  0  0  0  0
   -7.2990    3.3481    0.0000 C   0  0  0  0  0  0  0  0  0  0  0  0
   -6.5490    4.6471    0.0000 C   0  0  0  0  0  0  0  0  0  0  0  0
   -7.2990    5.9462    0.0000 C   0  0  0  0  0  0  0  0  0  0  0  0
   -8.7990    5.9462    0.0000 C   0  0  0  0  0  0  0  0  0  0  0  0
   -9.5490    4.6471    0.0000 C   0  0  0  0  0  0  0  0  0  0  0  0
   -8.7990    3.3481    0.0000 C   0  0  0  0  0  0  0  0  0  0  0  0
   -1.5000    0.0000    0.0000 C   0  0  0  0  0  0  0  0  0  0  0  0
   -0.7500    1.2990    0.0000 C   0  0  0  0  0  0  0  0  0  0  0  0
    0.7500    1.2990    0.0000 C   0  0  0  0  0  0  0  0  0  0  0  0
    1.5000    2.5981    0.0000 O   0  0  0  0  0  0  0  0  0  0  0  0
    0.7500    3.8971    0.0000 C   0  0  0  0  0  0  0  0  0  0  0  0
    1.5000    5.1962    0.0000 C   0  0  0  0  0  0  0  0  0  0  0  0
    0.7500    6.4952    0.0000 C   0  0  0  0  0  0  0  0  0  0  0  0
    1.5000    7.7942    0.0000 N   0  0  0  0  0  0  0  0  0  0  0  0
    3.0000    7.7942    0.0000 C   0  0  0  0  0  0  0  0  0  0  0  0
    3.7500    9.0933    0.0000 C   0  0  0  0  0  0  0  0  0  0  0  0
    3.0000   10.3923    0.0000 O   0  0  0  0  0  0  0  0  0  0  0  0
    1.5000   10.3923    0.0000 C   0  0  0  0  0  0  0  0  0  0  0  0
    0.7500    9.0933    0.0000 C   0  0  0  0  0  0  0  0  0  0  0  0
  1  2  1  0
  2  3  1  0
  3  4  2  0
  4  5  1  0
  5  6  2  0
  6  7  1  0
  7  8  2  0
  8  9  1  0
  9 10  3  0
  8 11  1  0
 11 12  1  0
 13 12  1  6
 13 14  1  0
 14 15  1  0
 15 16  1  1
 16 17  2  0
 17 18  1  0
 18 19  2  0
 19 20  1  0
 20 21  2  0
 11 22  2  0
 22 23  1  0
 23 24  2  0
 24 25  1  0
 25 26  1  0
 26 27  1  0
 27 28  1  0
 28 29  1  0
 29 30  1  0
 30 31  1  0
 31 32  1  0
 32 33  1  0
 33 34  1  0
 24  3  1  0
 34 29  1  0
 22  5  1  0
 15 13  1  0
 21 16  1  0
M  END
>  <Compound_ID>  (251) 
CHEMBL248221

>  <Active>  (251) 
1.0

>  <Smiles>  (251) 
COc1cc2ncc(C#N)c(N[C@@H]3C[C@H]3c3ccccc3)c2cc1OCCCN1CCOCC1

>  <canonical_smi>  (251) 
COc1cc2ncc(C#N)c(N[C@@H]3C[C@H]3c3ccccc3)c2cc1OCCCN1CCOCC1

>  <Set>  (251) 
G2 active

>  <Set_type>  (251) 
Train

>  <MW>  (251) 
458.56

>  <HBD>  (251) 
1

>  <HBA>  (251) 
7

>  <NRB>  (251) 
9

>  <NR>  (251) 
5

>  <NAR>  (251) 
3

>  <PSA>  (251) 
79.64

>  <Standard Type>  (251) 
nan

>  <Standard Relation>  (251) 
nan

>  <Standard Units>  (251) 
nan

>  <Standard Value>  (251) 
nan

>  <Assay ChEMBL ID>  (251) 
nan

>  <Assay Description>  (251) 
nan

>  <BAO Label>  (251) 
nan

$$$$

     RDKit          2D

 40 45  0  0  0  0  0  0  0  0999 V2000
   12.7500   -1.2990    0.0000 F   0  0  0  0  0  0  0  0  0  0  0  0
   12.0000   -2.5981    0.0000 C   0  0  0  0  0  0  0  0  0  0  0  0
   12.7500   -3.8971    0.0000 C   0  0  0  0  0  0  0  0  0  0  0  0
   12.0000   -5.1962    0.0000 C   0  0  0  0  0  0  0  0  0  0  0  0
   10.5000   -5.1962    0.0000 C   0  0  0  0  0  0  0  0  0  0  0  0
    9.7500   -3.8971    0.0000 C   0  0  0  0  0  0  0  0  0  0  0  0
    8.2500   -3.8971    0.0000 C   0  0  0  0  0  0  0  0  0  0  0  0
    7.5000   -2.5981    0.0000 O   0  0  0  0  0  0  0  0  0  0  0  0
    6.0000   -2.5981    0.0000 C   0  0  0  0  0  0  0  0  0  0  0  0
    5.2500   -1.2990    0.0000 C   0  0  0  0  0  0  0  0  0  0  0  0
    3.7500   -1.2990    0.0000 C   0  0  0  0  0  0  0  0  0  0  0  0
    3.0000   -2.5981    0.0000 C   0  0  0  0  0  0  0  0  0  0  0  0
    1.5000   -2.5981    0.0000 N   0  0  0  0  0  0  0  0  0  0  0  0
    0.7500   -1.2990    0.0000 C   0  0  0  0  0  0  0  0  0  0  0  0
    1.5000    0.0000    0.0000 N   0  0  0  0  0  0  0  0  0  0  0  0
    0.7500    1.2990    0.0000 C   0  0  0  0  0  0  0  0  0  0  0  0
   -0.7500    1.2990    0.0000 N   0  0  0  0  0  0  0  0  0  0  0  0
   -1.5000    0.0000    0.0000 C   0  0  0  0  0  0  0  0  0  0  0  0
   -2.9672   -0.3119    0.0000 S   0  0  0  0  0  0  0  0  0  0  0  0
   -3.1240   -1.8037    0.0000 C   0  0  0  0  0  0  0  0  0  0  0  0
   -4.4231   -2.5537    0.0000 C   0  0  0  0  0  0  0  0  0  0  0  0
   -4.5798   -4.0454    0.0000 C   0  0  0  0  0  0  0  0  0  0  0  0
   -6.0471   -4.3573    0.0000 C   0  0  0  0  0  0  0  0  0  0  0  0
   -6.7971   -3.0583    0.0000 C   0  0  0  0  0  0  0  0  0  0  0  0
   -8.2888   -2.9015    0.0000 C   0  0  0  0  0  0  0  0  0  0  0  0
   -8.8990   -1.5312    0.0000 N   0  0  0  0  0  0  0  0  0  0  0  0
  -10.3907   -1.3744    0.0000 C   0  0  0  0  0  0  0  0  0  0  0  0
  -11.0008   -0.0040    0.0000 C   0  0  0  0  0  0  0  0  0  0  0  0
  -10.1192    1.2095    0.0000 C   0  0  0  0  0  0  0  0  0  0  0  0
  -10.7293    2.5798    0.0000 C   0  0  0  0  0  0  0  0  0  0  0  0
  -12.2211    2.7366    0.0000 C   0  0  0  0  0  0  0  0  0  0  0  0
  -13.1027    1.5231    0.0000 C   0  0  0  0  0  0  0  0  0  0  0  0
  -12.4926    0.1528    0.0000 C   0  0  0  0  0  0  0  0  0  0  0  0
   -5.7934   -1.9435    0.0000 O   0  0  0  0  0  0  0  0  0  0  0  0
   -1.7537   -2.4138    0.0000 C   0  0  0  0  0  0  0  0  0  0  0  0
   -0.7500   -1.2990    0.0000 C   0  0  0  0  0  0  0  0  0  0  0  0
    3.7500   -3.8971    0.0000 C   0  0  0  0  0  0  0  0  0  0  0  0
    5.2500   -3.8971    0.0000 C   0  0  0  0  0  0  0  0  0  0  0  0
    6.0000   -5.1962    0.0000 Cl  0  0  0  0  0  0  0  0  0  0  0  0
   10.5000   -2.5981    0.0000 C   0  0  0  0  0  0  0  0  0  0  0  0
  1  2  1  0
  2  3  2  0
  3  4  1  0
  4  5  2  0
  5  6  1  0
  6  7  1  0
  7  8  1  0
  8  9  1  0
  9 10  2  0
 10 11  1  0
 11 12  2  0
 12 13  1  0
 13 14  1  0
 14 15  2  0
 15 16  1  0
 16 17  2  0
 17 18  1  0
 18 19  1  0
 19 20  1  0
 20 21  1  0
 21 22  2  0
 22 23  1  0
 23 24  2  0
 24 25  1  0
 25 26  1  0
 26 27  1  0
 27 28  1  0
 28 29  2  0
 29 30  1  0
 30 31  2  0
 31 32  1  0
 32 33  2  0
 24 34  1  0
 20 35  2  0
 35 36  1  0
 12 37  1  0
 37 38  2  0
 38 39  1  0
  6 40  2  0
 40  2  1  0
 38  9  1  0
 36 14  1  0
 36 18  2  0
 34 21  1  0
 33 28  1  0
M  END
>  <Compound_ID>  (252) 
CHEMBL519757

>  <Active>  (252) 
1.0

>  <Smiles>  (252) 
Fc1cccc(COc2ccc(Nc3ncnc4sc(-c5ccc(CNCc6ccccc6)o5)cc34)cc2Cl)c1

>  <canonical_smi>  (252) 
Fc1cccc(COc2ccc(Nc3ncnc4sc(-c5ccc(CNCc6ccccc6)o5)cc34)cc2Cl)c1

>  <Set>  (252) 
G2 active

>  <Set_type>  (252) 
Train

>  <MW>  (252) 
571.08

>  <HBD>  (252) 
2

>  <HBA>  (252) 
6

>  <NRB>  (252) 
10

>  <NR>  (252) 
6

>  <NAR>  (252) 
6

>  <PSA>  (252) 
72.21

>  <Standard Type>  (252) 
nan

>  <Standard Relation>  (252) 
nan

>  <Standard Units>  (252) 
nan

>  <Standard Value>  (252) 
nan

>  <Assay ChEMBL ID>  (252) 
nan

>  <Assay Description>  (252) 
nan

>  <BAO Label>  (252) 
nan

$$$$

     RDKit          2D

 29 32  0  0  0  0  0  0  0  0999 V2000
    6.0000   -7.7942    0.0000 C   0  0  0  0  0  0  0  0  0  0  0  0
    5.2500   -6.4952    0.0000 O   0  0  0  0  0  0  0  0  0  0  0  0
    3.7500   -6.4952    0.0000 N   0  0  0  0  0  0  0  0  0  0  0  0
    3.0000   -5.1962    0.0000 C   0  0  0  0  0  0  0  0  0  0  0  0
    1.5000   -5.1962    0.0000 C   0  0  0  0  0  0  0  0  0  0  0  0
    0.7500   -6.4952    0.0000 C   0  0  0  0  0  0  0  0  0  0  0  0
    1.5000   -7.7942    0.0000 N   0  0  0  0  0  0  0  0  0  0  0  0
   -0.7500   -6.4952    0.0000 N   0  0  0  0  0  0  0  0  0  0  0  0
   -1.5000   -5.1962    0.0000 C   0  0  0  0  0  0  0  0  0  0  0  0
   -0.7500   -3.8971    0.0000 N   0  0  0  0  0  0  0  0  0  0  0  0
    0.7500   -3.8971    0.0000 C   0  0  0  0  0  0  0  0  0  0  0  0
    1.5000   -2.5981    0.0000 N   0  0  0  0  0  0  0  0  0  0  0  0
    0.7500   -1.2990    0.0000 C   0  0  0  0  0  0  0  0  0  0  0  0
    1.5000    0.0000    0.0000 C   0  0  0  0  0  0  0  0  0  0  0  0
    0.7500    1.2990    0.0000 C   0  0  0  0  0  0  0  0  0  0  0  0
   -0.7500    1.2990    0.0000 C   0  0  0  0  0  0  0  0  0  0  0  0
   -1.5000    0.0000    0.0000 C   0  0  0  0  0  0  0  0  0  0  0  0
   -0.7500   -1.2990    0.0000 C   0  0  0  0  0  0  0  0  0  0  0  0
   -2.9672    0.3119    0.0000 C   0  0  0  0  0  0  0  0  0  0  0  0
   -3.1240    1.8037    0.0000 C   0  0  0  0  0  0  0  0  0  0  0  0
   -1.7537    2.4138    0.0000 N   0  0  0  0  0  0  0  0  0  0  0  0
   -1.4418    3.8810    0.0000 C   0  0  0  0  0  0  0  0  0  0  0  0
   -2.5565    4.8847    0.0000 C   0  0  0  0  0  0  0  0  0  0  0  0
   -2.2447    6.3519    0.0000 C   0  0  0  0  0  0  0  0  0  0  0  0
   -3.3594    7.3556    0.0000 C   0  0  0  0  0  0  0  0  0  0  0  0
   -4.7860    6.8921    0.0000 C   0  0  0  0  0  0  0  0  0  0  0  0
   -5.0978    5.4248    0.0000 C   0  0  0  0  0  0  0  0  0  0  0  0
   -6.5244    4.9613    0.0000 F   0  0  0  0  0  0  0  0  0  0  0  0
   -3.9831    4.4211    0.0000 C   0  0  0  0  0  0  0  0  0  0  0  0
  1  2  1  0
  2  3  1  0
  3  4  2  0
  4  5  1  0
  5  6  2  0
  6  7  1  0
  6  8  1  0
  8  9  2  0
  9 10  1  0
 10 11  2  0
 11 12  1  0
 12 13  1  0
 13 14  2  0
 14 15  1  0
 15 16  2  0
 16 17  1  0
 17 18  2  0
 17 19  1  0
 19 20  1  0
 20 21  1  0
 21 22  1  0
 22 23  1  0
 23 24  2  0
 24 25  1  0
 25 26  2  0
 26 27  1  0
 27 28  1  0
 27 29  2  0
 11  5  1  0
 18 13  1  0
 29 23  1  0
 21 16  1  0
M  END
>  <Compound_ID>  (253) 
CHEMBL257814

>  <Active>  (253) 
1.0

>  <Smiles>  (253) 
CO/N=C/c1c(N)ncnc1Nc1ccc2c(c1)CCN2Cc1cccc(F)c1

>  <canonical_smi>  (253) 
CO/N=C/c1c(N)ncnc1Nc1ccc2c(c1)CCN2Cc1cccc(F)c1

>  <Set>  (253) 
G2 active

>  <Set_type>  (253) 
Train

>  <MW>  (253) 
392.44

>  <HBD>  (253) 
2

>  <HBA>  (253) 
6

>  <NRB>  (253) 
6

>  <NR>  (253) 
4

>  <NAR>  (253) 
3

>  <PSA>  (253) 
88.66

>  <Standard Type>  (253) 
nan

>  <Standard Relation>  (253) 
nan

>  <Standard Units>  (253) 
nan

>  <Standard Value>  (253) 
nan

>  <Assay ChEMBL ID>  (253) 
nan

>  <Assay Description>  (253) 
nan

>  <BAO Label>  (253) 
nan

$$$$

     RDKit          2D

 41 47  0  0  0  0  0  0  0  0999 V2000
    0.0000   -9.6073    0.0000 C   0  0  0  0  0  0  0  0  0  0  0  0
    0.0000   -8.1073    0.0000 O   0  0  0  0  0  0  0  0  0  0  0  0
   -1.2990   -7.3573    0.0000 C   0  0  0  0  0  0  0  0  0  0  0  0
   -2.5981   -8.1073    0.0000 C   0  0  0  0  0  0  0  0  0  0  0  0
   -3.8971   -7.3573    0.0000 C   0  0  0  0  0  0  0  0  0  0  0  0
   -3.8971   -5.8573    0.0000 C   0  0  0  0  0  0  0  0  0  0  0  0
   -2.5981   -5.1073    0.0000 C   0  0  0  0  0  0  0  0  0  0  0  0
   -1.2990   -5.8573    0.0000 C   0  0  0  0  0  0  0  0  0  0  0  0
   -0.0000   -5.1073    0.0000 C   0  0  0  0  0  0  0  0  0  0  0  0
   -0.0000   -3.6073    0.0000 C   0  0  0  0  0  0  0  0  0  0  0  0
    1.2135   -2.7256    0.0000 N   0  0  0  0  0  0  0  0  0  0  0  0
    0.7500   -1.2990    0.0000 C   0  0  0  0  0  0  0  0  0  0  0  0
    1.5000    0.0000    0.0000 C   0  0  0  0  0  0  0  0  0  0  0  0
    0.7500    1.2990    0.0000 C   0  0  0  0  0  0  0  0  0  0  0  0
   -0.7500    1.2990    0.0000 C   0  0  0  0  0  0  0  0  0  0  0  0
   -1.5000    2.5981    0.0000 C   0  0  0  0  0  0  0  0  0  0  0  0
   -2.9918    2.7549    0.0000 N   0  0  0  0  0  0  0  0  0  0  0  0
   -3.3037    4.2221    0.0000 N   0  0  0  0  0  0  0  0  0  0  0  0
   -4.6740    4.8322    0.0000 C   0  0  0  0  0  0  0  0  0  0  0  0
   -4.8308    6.3240    0.0000 C   0  0  0  0  0  0  0  0  0  0  0  0
   -6.2011    6.9341    0.0000 C   0  0  0  0  0  0  0  0  0  0  0  0
   -7.4146    6.0524    0.0000 C   0  0  0  0  0  0  0  0  0  0  0  0
   -8.7849    6.6625    0.0000 C   0  0  0  0  0  0  0  0  0  0  0  0
   -8.9417    8.1543    0.0000 C   0  0  0  0  0  0  0  0  0  0  0  0
  -10.3120    8.7644    0.0000 C   0  0  0  0  0  0  0  0  0  0  0  0
  -11.5256    7.8827    0.0000 N   0  0  0  0  0  0  0  0  0  0  0  0
  -12.8959    8.4928    0.0000 C   0  0  0  0  0  0  0  0  0  0  0  0
  -11.3688    6.3909    0.0000 C   0  0  0  0  0  0  0  0  0  0  0  0
   -9.9984    5.7808    0.0000 C   0  0  0  0  0  0  0  0  0  0  0  0
   -7.2578    4.5606    0.0000 C   0  0  0  0  0  0  0  0  0  0  0  0
   -5.8875    3.9505    0.0000 C   0  0  0  0  0  0  0  0  0  0  0  0
   -2.0046    4.9721    0.0000 C   0  0  0  0  0  0  0  0  0  0  0  0
   -1.6927    6.4393    0.0000 N   0  0  0  0  0  0  0  0  0  0  0  0
   -0.2662    6.9028    0.0000 C   0  0  0  0  0  0  0  0  0  0  0  0
    0.8486    5.8991    0.0000 N   0  0  0  0  0  0  0  0  0  0  0  0
    0.5367    4.4319    0.0000 C   0  0  0  0  0  0  0  0  0  0  0  0
    1.6514    3.4282    0.0000 N   0  0  0  0  0  0  0  0  0  0  0  0
   -0.8899    3.9684    0.0000 C   0  0  0  0  0  0  0  0  0  0  0  0
   -1.5000    0.0000    0.0000 C   0  0  0  0  0  0  0  0  0  0  0  0
   -0.7500   -1.2990    0.0000 C   0  0  0  0  0  0  0  0  0  0  0  0
   -1.2135   -2.7256    0.0000 N   0  0  0  0  0  0  0  0  0  0  0  0
  1  2  1  0
  2  3  1  0
  3  4  2  0
  4  5  1  0
  5  6  2  0
  6  7  1  0
  7  8  2  0
  8  9  1  0
  9 10  1  0
 10 11  2  0
 11 12  1  0
 12 13  2  0
 13 14  1  0
 14 15  2  0
 15 16  1  0
 16 17  2  0
 17 18  1  0
 18 19  1  0
 19 20  1  0
 20 21  1  0
 21 22  1  0
 22 23  1  0
 23 24  1  0
 24 25  1  0
 25 26  1  0
 26 27  1  0
 26 28  1  0
 28 29  1  0
 22 30  1  0
 30 31  1  0
 18 32  1  0
 32 33  2  0
 33 34  1  0
 34 35  2  0
 35 36  1  0
 36 37  1  0
 36 38  2  0
 15 39  1  0
 39 40  2  0
 40 41  1  0
  8  3  1  0
 41 10  1  0
 40 12  1  0
 38 16  1  0
 31 19  1  0
 38 32  1  0
 29 23  1  0
M  END
>  <Compound_ID>  (254) 
CHEMBL1077305

>  <Active>  (254) 
1.0

>  <Smiles>  (254) 
COc1ccccc1Cc1nc2ccc(-c3nn(C4CCC(C5CCN(C)CC5)CC4)c4ncnc(N)c34)cc2[nH]1

>  <canonical_smi>  (254) 
COc1ccccc1Cc1nc2ccc(-c3nn(C4CCC(C5CCN(C)CC5)CC4)c4ncnc(N)c34)cc2[nH]1

>  <Set>  (254) 
G2 active

>  <Set_type>  (254) 
Train

>  <MW>  (254) 
550.71

>  <HBD>  (254) 
2

>  <HBA>  (254) 
7

>  <NRB>  (254) 
6

>  <NR>  (254) 
7

>  <NAR>  (254) 
5

>  <PSA>  (254) 
110.77

>  <Standard Type>  (254) 
nan

>  <Standard Relation>  (254) 
nan

>  <Standard Units>  (254) 
nan

>  <Standard Value>  (254) 
nan

>  <Assay ChEMBL ID>  (254) 
nan

>  <Assay Description>  (254) 
nan

>  <BAO Label>  (254) 
nan

$$$$

     RDKit          2D

 24 26  0  0  0  0  0  0  0  0999 V2000
    2.5981   -8.1073    0.0000 C   0  0  0  0  0  0  0  0  0  0  0  0
    1.2990   -7.3573    0.0000 C   0  0  0  0  0  0  0  0  0  0  0  0
    1.2990   -5.8573    0.0000 O   0  0  0  0  0  0  0  0  0  0  0  0
   -0.0000   -5.1073    0.0000 C   0  0  0  0  0  0  0  0  0  0  0  0
   -1.2990   -5.8573    0.0000 O   0  0  0  0  0  0  0  0  0  0  0  0
   -0.0000   -3.6073    0.0000 C   0  0  0  0  0  0  0  0  0  0  0  0
    1.2135   -2.7256    0.0000 C   0  0  0  0  0  0  0  0  0  0  0  0
    0.7500   -1.2990    0.0000 N   0  0  0  0  0  0  0  0  0  0  0  0
    1.5000    0.0000    0.0000 N   0  0  0  0  0  0  0  0  0  0  0  0
    0.7500    1.2990    0.0000 C   0  0  0  0  0  0  0  0  0  0  0  0
   -0.7500    1.2990    0.0000 N   0  0  0  0  0  0  0  0  0  0  0  0
   -1.5000    0.0000    0.0000 C   0  0  0  0  0  0  0  0  0  0  0  0
   -3.0000    0.0000    0.0000 N   0  0  0  0  0  0  0  0  0  0  0  0
   -3.7500    1.2990    0.0000 C   0  0  0  0  0  0  0  0  0  0  0  0
   -3.0000    2.5981    0.0000 C   0  0  0  0  0  0  0  0  0  0  0  0
   -3.7500    3.8971    0.0000 C   0  0  0  0  0  0  0  0  0  0  0  0
   -5.2500    3.8971    0.0000 C   0  0  0  0  0  0  0  0  0  0  0  0
   -6.0000    2.5981    0.0000 C   0  0  0  0  0  0  0  0  0  0  0  0
   -7.5000    2.5981    0.0000 Br  0  0  0  0  0  0  0  0  0  0  0  0
   -5.2500    1.2990    0.0000 C   0  0  0  0  0  0  0  0  0  0  0  0
   -0.7500   -1.2990    0.0000 C   0  0  0  0  0  0  0  0  0  0  0  0
   -1.2135   -2.7256    0.0000 C   0  0  0  0  0  0  0  0  0  0  0  0
   -2.6401   -3.1891    0.0000 C   0  0  0  0  0  0  0  0  0  0  0  0
   -2.9520   -4.6564    0.0000 C   0  0  0  0  0  0  0  0  0  0  0  0
  1  2  1  0
  2  3  1  0
  3  4  1  0
  4  5  2  0
  4  6  1  0
  6  7  2  0
  7  8  1  0
  8  9  1  0
  9 10  2  0
 10 11  1  0
 11 12  2  0
 12 13  1  0
 13 14  1  0
 14 15  2  0
 15 16  1  0
 16 17  2  0
 17 18  1  0
 18 19  1  0
 18 20  2  0
 12 21  1  0
 21 22  2  0
 22 23  1  0
 23 24  1  0
 22  6  1  0
 21  8  1  0
 20 14  1  0
M  END
>  <Compound_ID>  (255) 
CHEMBL370934

>  <Active>  (255) 
1.0

>  <Smiles>  (255) 
CCOC(=O)c1cn2ncnc(Nc3cccc(Br)c3)c2c1CC

>  <canonical_smi>  (255) 
CCOC(=O)c1cn2ncnc(Nc3cccc(Br)c3)c2c1CC

>  <Set>  (255) 
G2 active

>  <Set_type>  (255) 
Train

>  <MW>  (255) 
389.25

>  <HBD>  (255) 
1

>  <HBA>  (255) 
5

>  <NRB>  (255) 
5

>  <NR>  (255) 
3

>  <NAR>  (255) 
3

>  <PSA>  (255) 
68.52

>  <Standard Type>  (255) 
nan

>  <Standard Relation>  (255) 
nan

>  <Standard Units>  (255) 
nan

>  <Standard Value>  (255) 
nan

>  <Assay ChEMBL ID>  (255) 
nan

>  <Assay Description>  (255) 
nan

>  <BAO Label>  (255) 
nan

$$$$

     RDKit          2D

 26 29  0  0  0  0  0  0  0  0999 V2000
   -0.7500   -3.8971    0.0000 O   0  0  0  0  0  0  0  0  0  0  0  0
    0.7500   -3.8971    0.0000 C   0  0  0  0  0  0  0  0  0  0  0  0
    1.5000   -2.5981    0.0000 N   0  0  0  0  0  0  0  0  0  0  0  0
    0.7500   -1.2990    0.0000 C   0  0  0  0  0  0  0  0  0  0  0  0
    1.5000    0.0000    0.0000 C   0  0  0  0  0  0  0  0  0  0  0  0
    0.7500    1.2990    0.0000 C   0  0  0  0  0  0  0  0  0  0  0  0
   -0.7500    1.2990    0.0000 C   0  0  0  0  0  0  0  0  0  0  0  0
   -1.5000    2.5981    0.0000 N   0  0  0  0  0  0  0  0  0  0  0  0
   -3.0000    2.5981    0.0000 C   0  0  0  0  0  0  0  0  0  0  0  0
   -3.7500    1.2990    0.0000 N   0  0  0  0  0  0  0  0  0  0  0  0
   -3.0000    0.0000    0.0000 C   0  0  0  0  0  0  0  0  0  0  0  0
   -3.7500   -1.2990    0.0000 N   0  0  0  0  0  0  0  0  0  0  0  0
   -5.2500   -1.2990    0.0000 C   0  0  0  0  0  0  0  0  0  0  0  0
   -6.0000    0.0000    0.0000 C   0  0  0  0  0  0  0  0  0  0  0  0
   -7.5000    0.0000    0.0000 C   0  0  0  0  0  0  0  0  0  0  0  0
   -8.2500   -1.2990    0.0000 C   0  0  0  0  0  0  0  0  0  0  0  0
   -7.5000   -2.5981    0.0000 C   0  0  0  0  0  0  0  0  0  0  0  0
   -8.2500   -3.8971    0.0000 Br  0  0  0  0  0  0  0  0  0  0  0  0
   -6.0000   -2.5981    0.0000 C   0  0  0  0  0  0  0  0  0  0  0  0
   -1.5000    0.0000    0.0000 C   0  0  0  0  0  0  0  0  0  0  0  0
   -0.7500   -1.2990    0.0000 C   0  0  0  0  0  0  0  0  0  0  0  0
    1.5000   -5.1962    0.0000 C   0  0  0  0  0  0  0  0  0  0  0  0
    2.9918   -5.3529    0.0000 C   0  0  0  0  0  0  0  0  0  0  0  0
    3.3037   -6.8202    0.0000 C   0  0  0  0  0  0  0  0  0  0  0  0
    2.0046   -7.5702    0.0000 S   0  0  0  0  0  0  0  0  0  0  0  0
    0.8899   -6.5665    0.0000 S   0  0  0  0  0  0  0  0  0  0  0  0
  1  2  2  0
  2  3  1  0
  3  4  1  0
  4  5  2  0
  5  6  1  0
  6  7  2  0
  7  8  1  0
  8  9  2  0
  9 10  1  0
 10 11  2  0
 11 12  1  0
 12 13  1  0
 13 14  2  0
 14 15  1  0
 15 16  2  0
 16 17  1  0
 17 18  1  0
 17 19  2  0
 11 20  1  0
 20 21  2  0
  2 22  1  0
 22 23  1  0
 23 24  1  0
 24 25  1  0
 25 26  1  0
 21  4  1  0
 26 22  1  0
 20  7  1  0
 19 13  1  0
M  END
>  <Compound_ID>  (256) 
CHEMBL217536

>  <Active>  (256) 
1.0

>  <Smiles>  (256) 
O=C(Nc1ccc2ncnc(Nc3cccc(Br)c3)c2c1)C1CCSS1

>  <canonical_smi>  (256) 
O=C(Nc1ccc2ncnc(Nc3cccc(Br)c3)c2c1)C1CCSS1

>  <Set>  (256) 
G2 active

>  <Set_type>  (256) 
Train

>  <MW>  (256) 
447.38

>  <HBD>  (256) 
2

>  <HBA>  (256) 
6

>  <NRB>  (256) 
4

>  <NR>  (256) 
4

>  <NAR>  (256) 
3

>  <PSA>  (256) 
66.91

>  <Standard Type>  (256) 
nan

>  <Standard Relation>  (256) 
nan

>  <Standard Units>  (256) 
nan

>  <Standard Value>  (256) 
nan

>  <Assay ChEMBL ID>  (256) 
nan

>  <Assay Description>  (256) 
nan

>  <BAO Label>  (256) 
nan

$$$$

     RDKit          2D

 36 41  0  0  0  0  0  0  0  0999 V2000
   -1.0344   -8.1310    0.0000 F   0  0  0  0  0  0  0  0  0  0  0  0
   -2.1491   -7.1273    0.0000 C   0  0  0  0  0  0  0  0  0  0  0  0
   -3.5757   -7.5908    0.0000 C   0  0  0  0  0  0  0  0  0  0  0  0
   -4.6904   -6.5871    0.0000 C   0  0  0  0  0  0  0  0  0  0  0  0
   -4.3786   -5.1199    0.0000 C   0  0  0  0  0  0  0  0  0  0  0  0
   -2.9520   -4.6564    0.0000 C   0  0  0  0  0  0  0  0  0  0  0  0
   -2.6401   -3.1891    0.0000 C   0  0  0  0  0  0  0  0  0  0  0  0
   -1.2135   -2.7256    0.0000 N   0  0  0  0  0  0  0  0  0  0  0  0
   -0.0000   -3.6073    0.0000 N   0  0  0  0  0  0  0  0  0  0  0  0
    1.2135   -2.7256    0.0000 C   0  0  0  0  0  0  0  0  0  0  0  0
    0.7500   -1.2990    0.0000 C   0  0  0  0  0  0  0  0  0  0  0  0
    1.5000    0.0000    0.0000 C   0  0  0  0  0  0  0  0  0  0  0  0
    0.7500    1.2990    0.0000 C   0  0  0  0  0  0  0  0  0  0  0  0
    1.5000    2.5981    0.0000 N   0  0  0  0  0  0  0  0  0  0  0  0
    3.0000    2.5981    0.0000 C   0  0  0  0  0  0  0  0  0  0  0  0
    3.7500    1.2990    0.0000 N   0  0  0  0  0  0  0  0  0  0  0  0
    5.2500    1.2990    0.0000 C   0  0  0  0  0  0  0  0  0  0  0  0
    6.0000    2.5981    0.0000 N   0  0  0  0  0  0  0  0  0  0  0  0
    5.2500    3.8971    0.0000 N   0  0  0  0  0  0  0  0  0  0  0  0
    5.7135    5.3237    0.0000 C   0  0  0  0  0  0  0  0  0  0  0  0
    4.5000    6.2054    0.0000 C   0  0  0  0  0  0  0  0  0  0  0  0
    3.2865    5.3237    0.0000 C   0  0  0  0  0  0  0  0  0  0  0  0
    1.8599    5.7872    0.0000 C   0  0  0  0  0  0  0  0  0  0  0  0
    1.5480    7.2544    0.0000 O   0  0  0  0  0  0  0  0  0  0  0  0
    0.1214    7.7180    0.0000 C   0  0  0  0  0  0  0  0  0  0  0  0
   -0.1904    9.1852    0.0000 C   0  0  0  0  0  0  0  0  0  0  0  0
    0.9243   10.1889    0.0000 C   0  0  0  0  0  0  0  0  0  0  0  0
    0.6124   11.6561    0.0000 N   0  0  0  0  0  0  0  0  0  0  0  0
   -0.8142   12.1196    0.0000 C   0  0  0  0  0  0  0  0  0  0  0  0
   -1.9289   11.1159    0.0000 C   0  0  0  0  0  0  0  0  0  0  0  0
   -1.6170    9.6487    0.0000 O   0  0  0  0  0  0  0  0  0  0  0  0
    3.7500    3.8971    0.0000 C   0  0  0  0  0  0  0  0  0  0  0  0
   -0.7500    1.2990    0.0000 C   0  0  0  0  0  0  0  0  0  0  0  0
   -1.5000    0.0000    0.0000 C   0  0  0  0  0  0  0  0  0  0  0  0
   -0.7500   -1.2990    0.0000 C   0  0  0  0  0  0  0  0  0  0  0  0
   -1.8373   -5.6601    0.0000 C   0  0  0  0  0  0  0  0  0  0  0  0
  1  2  1  0
  2  3  2  0
  3  4  1  0
  4  5  2  0
  5  6  1  0
  6  7  1  0
  7  8  1  0
  8  9  1  0
  9 10  2  0
 10 11  1  0
 11 12  2  0
 12 13  1  0
 13 14  1  0
 14 15  1  0
 15 16  2  0
 16 17  1  0
 17 18  2  0
 18 19  1  0
 19 20  1  0
 20 21  2  0
 21 22  1  0
 22 23  1  0
 23 24  1  0
 24 25  1  0
 26 25  1  1
 26 27  1  0
 27 28  1  0
 28 29  1  0
 29 30  1  0
 30 31  1  0
 22 32  2  0
 13 33  2  0
 33 34  1  0
 34 35  2  0
  6 36  2  0
 36  2  1  0
 35  8  1  0
 35 11  1  0
 32 15  1  0
 32 19  1  0
 31 26  1  0
M  END
>  <Compound_ID>  (257) 
CHEMBL246284

>  <Active>  (257) 
1.0

>  <Smiles>  (257) 
Fc1cccc(Cn2ncc3cc(Nc4ncnn5ccc(COC[C@@H]6CNCCO6)c45)ccc32)c1

>  <canonical_smi>  (257) 
Fc1cccc(Cn2ncc3cc(Nc4ncnn5ccc(COC[C@@H]6CNCCO6)c45)ccc32)c1

>  <Set>  (257) 
G2 active

>  <Set_type>  (257) 
Train

>  <MW>  (257) 
487.54

>  <HBD>  (257) 
2

>  <HBA>  (257) 
7

>  <NRB>  (257) 
8

>  <NR>  (257) 
6

>  <NAR>  (257) 
5

>  <PSA>  (257) 
90.53

>  <Standard Type>  (257) 
nan

>  <Standard Relation>  (257) 
nan

>  <Standard Units>  (257) 
nan

>  <Standard Value>  (257) 
nan

>  <Assay ChEMBL ID>  (257) 
nan

>  <Assay Description>  (257) 
nan

>  <BAO Label>  (257) 
nan

$$$$

     RDKit          2D

 32 36  0  0  0  0  0  0  0  0999 V2000
    3.0000   -5.1962    0.0000 C   0  0  0  0  0  0  0  0  0  0  0  0
    1.5000   -5.1962    0.0000 O   0  0  0  0  0  0  0  0  0  0  0  0
    0.7500   -3.8971    0.0000 C   0  0  0  0  0  0  0  0  0  0  0  0
    1.5000   -2.5981    0.0000 C   0  0  0  0  0  0  0  0  0  0  0  0
    0.7500   -1.2990    0.0000 C   0  0  0  0  0  0  0  0  0  0  0  0
    1.5000    0.0000    0.0000 N   0  0  0  0  0  0  0  0  0  0  0  0
    0.7500    1.2990    0.0000 C   0  0  0  0  0  0  0  0  0  0  0  0
   -0.7500    1.2990    0.0000 N   0  0  0  0  0  0  0  0  0  0  0  0
   -1.5000    0.0000    0.0000 C   0  0  0  0  0  0  0  0  0  0  0  0
   -3.0000    0.0000    0.0000 N   0  0  0  0  0  0  0  0  0  0  0  0
   -3.7500    1.2990    0.0000 C   0  0  0  0  0  0  0  0  0  0  0  0
   -3.0000    2.5981    0.0000 C   0  0  0  0  0  0  0  0  0  0  0  0
   -3.7500    3.8971    0.0000 C   0  0  0  0  0  0  0  0  0  0  0  0
   -5.2500    3.8971    0.0000 C   0  0  0  0  0  0  0  0  0  0  0  0
   -6.0000    5.1962    0.0000 C   0  0  0  0  0  0  0  0  0  0  0  0
   -5.3899    6.5665    0.0000 N   0  0  0  0  0  0  0  0  0  0  0  0
   -6.5046    7.5702    0.0000 C   0  0  0  0  0  0  0  0  0  0  0  0
   -6.5046    9.0702    0.0000 C   0  0  0  0  0  0  0  0  0  0  0  0
   -7.8037    9.8202    0.0000 C   0  0  0  0  0  0  0  0  0  0  0  0
   -9.1027    9.0702    0.0000 C   0  0  0  0  0  0  0  0  0  0  0  0
   -9.1027    7.5702    0.0000 C   0  0  0  0  0  0  0  0  0  0  0  0
   -7.8037    6.8202    0.0000 C   0  0  0  0  0  0  0  0  0  0  0  0
   -7.4918    5.3529    0.0000 S   0  0  0  0  0  0  0  0  0  0  0  0
   -6.0000    2.5981    0.0000 C   0  0  0  0  0  0  0  0  0  0  0  0
   -7.5000    2.5981    0.0000 O   0  0  0  0  0  0  0  0  0  0  0  0
   -8.2500    1.2990    0.0000 C   0  0  0  0  0  0  0  0  0  0  0  0
   -5.2500    1.2990    0.0000 C   0  0  0  0  0  0  0  0  0  0  0  0
   -0.7500   -1.2990    0.0000 C   0  0  0  0  0  0  0  0  0  0  0  0
   -1.5000   -2.5981    0.0000 C   0  0  0  0  0  0  0  0  0  0  0  0
   -0.7500   -3.8971    0.0000 C   0  0  0  0  0  0  0  0  0  0  0  0
   -1.5000   -5.1962    0.0000 O   0  0  0  0  0  0  0  0  0  0  0  0
   -3.0000   -5.1962    0.0000 C   0  0  0  0  0  0  0  0  0  0  0  0
  1  2  1  0
  2  3  1  0
  3  4  2  0
  4  5  1  0
  5  6  2  0
  6  7  1  0
  7  8  2  0
  8  9  1  0
  9 10  1  0
 10 11  1  0
 11 12  2  0
 12 13  1  0
 13 14  2  0
 14 15  1  0
 15 16  2  0
 16 17  1  0
 17 18  2  0
 18 19  1  0
 19 20  2  0
 20 21  1  0
 21 22  2  0
 22 23  1  0
 14 24  1  0
 24 25  1  0
 25 26  1  0
 24 27  2  0
  9 28  2  0
 28 29  1  0
 29 30  2  0
 30 31  1  0
 31 32  1  0
 30  3  1  0
 28  5  1  0
 27 11  1  0
 23 15  1  0
 22 17  1  0
M  END
>  <Compound_ID>  (258) 
CHEMBL473553

>  <Active>  (258) 
1.0

>  <Smiles>  (258) 
COc1cc2ncnc(Nc3ccc(-c4nc5ccccc5s4)c(OC)c3)c2cc1OC

>  <canonical_smi>  (258) 
COc1cc2ncnc(Nc3ccc(-c4nc5ccccc5s4)c(OC)c3)c2cc1OC

>  <Set>  (258) 
G2 active

>  <Set_type>  (258) 
Train

>  <MW>  (258) 
444.52

>  <HBD>  (258) 
1

>  <HBA>  (258) 
7

>  <NRB>  (258) 
6

>  <NR>  (258) 
5

>  <NAR>  (258) 
5

>  <PSA>  (258) 
78.39

>  <Standard Type>  (258) 
nan

>  <Standard Relation>  (258) 
nan

>  <Standard Units>  (258) 
nan

>  <Standard Value>  (258) 
nan

>  <Assay ChEMBL ID>  (258) 
nan

>  <Assay Description>  (258) 
nan

>  <BAO Label>  (258) 
nan

$$$$

     RDKit          2D

 29 32  0  0  0  0  0  0  0  0999 V2000
    6.0000   -0.0000    0.0000 Br  0  0  0  0  0  0  0  0  0  0  0  0
    5.2500   -1.2990    0.0000 C   0  0  0  0  0  0  0  0  0  0  0  0
    6.0000   -2.5981    0.0000 C   0  0  0  0  0  0  0  0  0  0  0  0
    5.2500   -3.8971    0.0000 C   0  0  0  0  0  0  0  0  0  0  0  0
    3.7500   -3.8971    0.0000 C   0  0  0  0  0  0  0  0  0  0  0  0
    3.0000   -2.5981    0.0000 C   0  0  0  0  0  0  0  0  0  0  0  0
    1.5000   -2.5981    0.0000 N   0  0  0  0  0  0  0  0  0  0  0  0
    0.7500   -1.2990    0.0000 C   0  0  0  0  0  0  0  0  0  0  0  0
    1.5000    0.0000    0.0000 N   0  0  0  0  0  0  0  0  0  0  0  0
    0.7500    1.2990    0.0000 C   0  0  0  0  0  0  0  0  0  0  0  0
   -0.7500    1.2990    0.0000 N   0  0  0  0  0  0  0  0  0  0  0  0
   -1.5000    0.0000    0.0000 C   0  0  0  0  0  0  0  0  0  0  0  0
   -3.0000    0.0000    0.0000 C   0  0  0  0  0  0  0  0  0  0  0  0
   -3.7500   -1.2990    0.0000 C   0  0  0  0  0  0  0  0  0  0  0  0
   -3.0000   -2.5981    0.0000 C   0  0  0  0  0  0  0  0  0  0  0  0
   -3.7500   -3.8971    0.0000 N   0  0  0  0  0  0  0  0  0  0  0  0
   -5.2500   -3.8971    0.0000 N   0  0  0  0  0  0  0  0  0  0  0  0
   -6.0000   -5.1962    0.0000 N   0  0  0  0  0  0  0  0  0  0  0  0
   -7.5000   -5.1962    0.0000 C   0  0  0  0  0  0  0  0  0  0  0  0
   -8.2500   -6.4952    0.0000 C   0  0  0  0  0  0  0  0  0  0  0  0
   -9.7500   -6.4952    0.0000 N   0  0  0  0  0  0  0  0  0  0  0  0
  -10.5000   -5.1962    0.0000 C   0  0  0  0  0  0  0  0  0  0  0  0
  -12.0000   -5.1962    0.0000 C   0  0  0  0  0  0  0  0  0  0  0  0
  -12.7500   -6.4952    0.0000 O   0  0  0  0  0  0  0  0  0  0  0  0
  -12.0000   -7.7942    0.0000 C   0  0  0  0  0  0  0  0  0  0  0  0
  -10.5000   -7.7942    0.0000 C   0  0  0  0  0  0  0  0  0  0  0  0
   -1.5000   -2.5981    0.0000 C   0  0  0  0  0  0  0  0  0  0  0  0
   -0.7500   -1.2990    0.0000 C   0  0  0  0  0  0  0  0  0  0  0  0
    3.7500   -1.2990    0.0000 C   0  0  0  0  0  0  0  0  0  0  0  0
  1  2  1  0
  2  3  2  0
  3  4  1  0
  4  5  2  0
  5  6  1  0
  6  7  1  0
  7  8  1  0
  8  9  2  0
  9 10  1  0
 10 11  2  0
 11 12  1  0
 12 13  2  0
 13 14  1  0
 14 15  2  0
 15 16  1  0
 16 17  1  0
 17 18  2  3
 18 19  1  0
 19 20  1  0
 20 21  1  0
 21 22  1  0
 22 23  1  0
 23 24  1  0
 24 25  1  0
 25 26  1  0
 15 27  1  0
 27 28  2  0
  6 29  2  0
 29  2  1  0
 28  8  1  0
 28 12  1  0
 26 21  1  0
M  END
>  <Compound_ID>  (259) 
CHEMBL137364

>  <Active>  (259) 
1.0

>  <Smiles>  (259) 
Brc1cccc(Nc2ncnc3ccc(NN=NCCN4CCOCC4)cc23)c1

>  <canonical_smi>  (259) 
Brc1cccc(Nc2ncnc3ccc(NN=NCCN4CCOCC4)cc23)c1

>  <Set>  (259) 
G2 active

>  <Set_type>  (259) 
Train

>  <MW>  (259) 
456.35

>  <HBD>  (259) 
2

>  <HBA>  (259) 
6

>  <NRB>  (259) 
7

>  <NR>  (259) 
4

>  <NAR>  (259) 
3

>  <PSA>  (259) 
87.03

>  <Standard Type>  (259) 
nan

>  <Standard Relation>  (259) 
nan

>  <Standard Units>  (259) 
nan

>  <Standard Value>  (259) 
nan

>  <Assay ChEMBL ID>  (259) 
nan

>  <Assay Description>  (259) 
nan

>  <BAO Label>  (259) 
nan

$$$$

     RDKit          2D

 26 28  0  0  0  0  0  0  0  0999 V2000
   -6.0000   -5.1962    0.0000 C   0  0  0  0  0  0  0  0  0  0  0  0
   -5.2500   -3.8971    0.0000 O   0  0  0  0  0  0  0  0  0  0  0  0
   -3.7500   -3.8971    0.0000 C   0  0  0  0  0  0  0  0  0  0  0  0
   -3.0000   -5.1962    0.0000 O   0  0  0  0  0  0  0  0  0  0  0  0
   -3.0000   -2.5981    0.0000 C   0  0  0  0  0  0  0  0  0  0  0  0
   -1.5000   -2.5981    0.0000 N   0  0  0  0  0  0  0  0  0  0  0  0
   -0.7500   -3.8971    0.0000 C   0  0  0  0  0  0  0  0  0  0  0  0
    0.7500   -3.8971    0.0000 C   0  0  0  0  0  0  0  0  0  0  0  0
    1.5000   -5.1962    0.0000 C   0  0  0  0  0  0  0  0  0  0  0  0
    0.7500   -6.4952    0.0000 C   0  0  0  0  0  0  0  0  0  0  0  0
    1.5000   -7.7942    0.0000 C   0  0  0  0  0  0  0  0  0  0  0  0
    3.0000   -7.7942    0.0000 C   0  0  0  0  0  0  0  0  0  0  0  0
    3.7500   -6.4952    0.0000 C   0  0  0  0  0  0  0  0  0  0  0  0
    5.2500   -6.4952    0.0000 Cl  0  0  0  0  0  0  0  0  0  0  0  0
    3.0000   -5.1962    0.0000 C   0  0  0  0  0  0  0  0  0  0  0  0
    1.5000   -2.5981    0.0000 C   0  0  0  0  0  0  0  0  0  0  0  0
    3.0000   -2.5981    0.0000 O   0  0  0  0  0  0  0  0  0  0  0  0
    0.7500   -1.2990    0.0000 C   0  0  0  0  0  0  0  0  0  0  0  0
    1.5000    0.0000    0.0000 C   0  0  0  0  0  0  0  0  0  0  0  0
    3.0000    0.0000    0.0000 O   0  0  0  0  0  0  0  0  0  0  0  0
    0.7500    1.2990    0.0000 C   0  0  0  0  0  0  0  0  0  0  0  0
   -0.7500    1.2990    0.0000 C   0  0  0  0  0  0  0  0  0  0  0  0
   -1.5000    2.5981    0.0000 O   0  0  0  0  0  0  0  0  0  0  0  0
   -0.7500    3.8971    0.0000 C   0  0  0  0  0  0  0  0  0  0  0  0
   -1.5000    0.0000    0.0000 C   0  0  0  0  0  0  0  0  0  0  0  0
   -0.7500   -1.2990    0.0000 C   0  0  0  0  0  0  0  0  0  0  0  0
  1  2  1  0
  2  3  1  0
  3  4  2  0
  3  5  1  0
  5  6  1  0
  6  7  1  0
  7  8  2  0
  8  9  1  0
  9 10  2  0
 10 11  1  0
 11 12  2  0
 12 13  1  0
 13 14  1  0
 13 15  2  0
  8 16  1  0
 16 17  2  0
 16 18  1  0
 18 19  2  0
 19 20  1  0
 19 21  1  0
 21 22  2  0
 22 23  1  0
 23 24  1  0
 22 25  1  0
 25 26  2  0
 26  6  1  0
 15  9  1  0
 26 18  1  0
M  END
>  <Compound_ID>  (260) 
CHEMBL7866

>  <Active>  (260) 
1.0

>  <Smiles>  (260) 
COC(=O)Cn1cc(-c2cccc(Cl)c2)c(=O)c2c(O)cc(OC)cc21

>  <canonical_smi>  (260) 
COC(=O)Cn1cc(-c2cccc(Cl)c2)c(=O)c2c(O)cc(OC)cc21

>  <Set>  (260) 
G2 active

>  <Set_type>  (260) 
Train

>  <MW>  (260) 
373.79

>  <HBD>  (260) 
1

>  <HBA>  (260) 
5

>  <NRB>  (260) 
4

>  <NR>  (260) 
3

>  <NAR>  (260) 
3

>  <PSA>  (260) 
77.76

>  <Standard Type>  (260) 
nan

>  <Standard Relation>  (260) 
nan

>  <Standard Units>  (260) 
nan

>  <Standard Value>  (260) 
nan

>  <Assay ChEMBL ID>  (260) 
nan

>  <Assay Description>  (260) 
nan

>  <BAO Label>  (260) 
nan

$$$$

     RDKit          2D

 32 35  0  0  0  0  0  0  0  0999 V2000
   -2.7164   -7.3325    0.0000 C   0  0  0  0  0  0  0  0  0  0  0  0
   -1.7127   -8.4472    0.0000 O   0  0  0  0  0  0  0  0  0  0  0  0
   -0.2455   -8.1353    0.0000 C   0  0  0  0  0  0  0  0  0  0  0  0
    0.7582   -9.2501    0.0000 C   0  0  0  0  0  0  0  0  0  0  0  0
    0.4463  -10.7173    0.0000 C   0  0  0  0  0  0  0  0  0  0  0  0
    1.7454  -11.4673    0.0000 C   0  0  0  0  0  0  0  0  0  0  0  0
    2.8601  -10.4636    0.0000 C   0  0  0  0  0  0  0  0  0  0  0  0
    2.2500   -9.0933    0.0000 N   0  0  0  0  0  0  0  0  0  0  0  0
    3.0000   -7.7942    0.0000 C   0  0  0  0  0  0  0  0  0  0  0  0
    2.2500   -6.4952    0.0000 C   0  0  0  0  0  0  0  0  0  0  0  0
    1.5000   -5.1962    0.0000 C   0  0  0  0  0  0  0  0  0  0  0  0
    0.7500   -3.8971    0.0000 C   0  0  0  0  0  0  0  0  0  0  0  0
   -0.7500   -3.8971    0.0000 O   0  0  0  0  0  0  0  0  0  0  0  0
    1.5000   -2.5981    0.0000 N   0  0  0  0  0  0  0  0  0  0  0  0
    0.7500   -1.2990    0.0000 C   0  0  0  0  0  0  0  0  0  0  0  0
    1.5000    0.0000    0.0000 C   0  0  0  0  0  0  0  0  0  0  0  0
    0.7500    1.2990    0.0000 C   0  0  0  0  0  0  0  0  0  0  0  0
   -0.7500    1.2990    0.0000 C   0  0  0  0  0  0  0  0  0  0  0  0
   -1.5000    2.5981    0.0000 N   0  0  0  0  0  0  0  0  0  0  0  0
   -3.0000    2.5981    0.0000 C   0  0  0  0  0  0  0  0  0  0  0  0
   -3.7500    1.2990    0.0000 N   0  0  0  0  0  0  0  0  0  0  0  0
   -3.0000    0.0000    0.0000 C   0  0  0  0  0  0  0  0  0  0  0  0
   -3.7500   -1.2990    0.0000 N   0  0  0  0  0  0  0  0  0  0  0  0
   -5.2500   -1.2990    0.0000 C   0  0  0  0  0  0  0  0  0  0  0  0
   -6.0000    0.0000    0.0000 C   0  0  0  0  0  0  0  0  0  0  0  0
   -7.5000    0.0000    0.0000 C   0  0  0  0  0  0  0  0  0  0  0  0
   -8.2500   -1.2990    0.0000 C   0  0  0  0  0  0  0  0  0  0  0  0
   -7.5000   -2.5981    0.0000 C   0  0  0  0  0  0  0  0  0  0  0  0
   -8.2500   -3.8971    0.0000 Br  0  0  0  0  0  0  0  0  0  0  0  0
   -6.0000   -2.5981    0.0000 C   0  0  0  0  0  0  0  0  0  0  0  0
   -1.5000    0.0000    0.0000 C   0  0  0  0  0  0  0  0  0  0  0  0
   -0.7500   -1.2990    0.0000 C   0  0  0  0  0  0  0  0  0  0  0  0
  1  2  1  0
  2  3  1  0
  3  4  1  0
  4  5  1  0
  5  6  1  0
  6  7  1  0
  7  8  1  0
  8  9  1  0
  9 10  1  0
 10 11  3  0
 11 12  1  0
 12 13  2  0
 12 14  1  0
 14 15  1  0
 15 16  2  0
 16 17  1  0
 17 18  2  0
 18 19  1  0
 19 20  2  0
 20 21  1  0
 21 22  2  0
 22 23  1  0
 23 24  1  0
 24 25  2  0
 25 26  1  0
 26 27  2  0
 27 28  1  0
 28 29  1  0
 28 30  2  0
 22 31  1  0
 31 32  2  0
  8  4  1  0
 32 15  1  0
 31 18  1  0
 30 24  1  0
M  END
>  <Compound_ID>  (261) 
CHEMBL93784

>  <Active>  (261) 
1.0

>  <Smiles>  (261) 
COCC1CCCN1CC#CC(=O)Nc1ccc2ncnc(Nc3cccc(Br)c3)c2c1

>  <canonical_smi>  (261) 
COCC1CCCN1CC#CC(=O)Nc1ccc2ncnc(Nc3cccc(Br)c3)c2c1

>  <Set>  (261) 
G2 active

>  <Set_type>  (261) 
Train

>  <MW>  (261) 
494.39

>  <HBD>  (261) 
2

>  <HBA>  (261) 
6

>  <NRB>  (261) 
6

>  <NR>  (261) 
4

>  <NAR>  (261) 
3

>  <PSA>  (261) 
79.38

>  <Standard Type>  (261) 
nan

>  <Standard Relation>  (261) 
nan

>  <Standard Units>  (261) 
nan

>  <Standard Value>  (261) 
nan

>  <Assay ChEMBL ID>  (261) 
nan

>  <Assay Description>  (261) 
nan

>  <BAO Label>  (261) 
nan

$$$$

     RDKit          2D

 29 32  0  0  0  0  0  0  0  0999 V2000
    0.7500   -6.4952    0.0000 C   0  0  0  0  0  0  0  0  0  0  0  0
    1.5000   -5.1962    0.0000 O   0  0  0  0  0  0  0  0  0  0  0  0
    0.7500   -3.8971    0.0000 C   0  0  0  0  0  0  0  0  0  0  0  0
    1.5000   -2.5981    0.0000 C   0  0  0  0  0  0  0  0  0  0  0  0
    0.7500   -1.2990    0.0000 C   0  0  0  0  0  0  0  0  0  0  0  0
    1.5000    0.0000    0.0000 N   0  0  0  0  0  0  0  0  0  0  0  0
    0.7500    1.2990    0.0000 C   0  0  0  0  0  0  0  0  0  0  0  0
   -0.7500    1.2990    0.0000 N   0  0  0  0  0  0  0  0  0  0  0  0
   -1.5000    0.0000    0.0000 C   0  0  0  0  0  0  0  0  0  0  0  0
   -3.0000    0.0000    0.0000 N   0  0  0  0  0  0  0  0  0  0  0  0
   -3.7500    1.2990    0.0000 C   0  0  0  0  0  0  0  0  0  0  0  0
   -3.0000    2.5981    0.0000 C   0  0  0  0  0  0  0  0  0  0  0  0
   -3.7500    3.8971    0.0000 C   0  0  0  0  0  0  0  0  0  0  0  0
   -5.2500    3.8971    0.0000 C   0  0  0  0  0  0  0  0  0  0  0  0
   -6.0000    5.1962    0.0000 F   0  0  0  0  0  0  0  0  0  0  0  0
   -6.0000    2.5981    0.0000 C   0  0  0  0  0  0  0  0  0  0  0  0
   -7.5000    2.5981    0.0000 Cl  0  0  0  0  0  0  0  0  0  0  0  0
   -5.2500    1.2990    0.0000 C   0  0  0  0  0  0  0  0  0  0  0  0
   -0.7500   -1.2990    0.0000 C   0  0  0  0  0  0  0  0  0  0  0  0
   -1.5000   -2.5981    0.0000 C   0  0  0  0  0  0  0  0  0  0  0  0
   -0.7500   -3.8971    0.0000 C   0  0  0  0  0  0  0  0  0  0  0  0
   -1.5000   -5.1962    0.0000 O   0  0  0  0  0  0  0  0  0  0  0  0
   -3.0000   -5.1962    0.0000 C   0  0  0  0  0  0  0  0  0  0  0  0
   -3.7500   -6.4952    0.0000 C   0  0  0  0  0  0  0  0  0  0  0  0
   -5.2500   -6.4952    0.0000 N   0  0  0  0  0  0  0  0  0  0  0  0
   -6.1317   -7.7087    0.0000 C   0  0  0  0  0  0  0  0  0  0  0  0
   -7.5583   -7.2452    0.0000 C   0  0  0  0  0  0  0  0  0  0  0  0
   -7.5583   -5.7452    0.0000 N   0  0  0  0  0  0  0  0  0  0  0  0
   -6.1317   -5.2817    0.0000 C   0  0  0  0  0  0  0  0  0  0  0  0
  1  2  1  0
  2  3  1  0
  3  4  2  0
  4  5  1  0
  5  6  2  0
  6  7  1  0
  7  8  2  0
  8  9  1  0
  9 10  1  0
 10 11  1  0
 11 12  2  0
 12 13  1  0
 13 14  2  0
 14 15  1  0
 14 16  1  0
 16 17  1  0
 16 18  2  0
  9 19  2  0
 19 20  1  0
 20 21  2  0
 21 22  1  0
 22 23  1  0
 23 24  1  0
 24 25  1  0
 25 26  1  0
 26 27  2  0
 27 28  1  0
 28 29  2  0
 21  3  1  0
 29 25  1  0
 19  5  1  0
 18 11  1  0
M  END
>  <Compound_ID>  (262) 
CHEMBL294034

>  <Active>  (262) 
1.0

>  <Smiles>  (262) 
COc1cc2ncnc(Nc3ccc(F)c(Cl)c3)c2cc1OCCn1ccnc1

>  <canonical_smi>  (262) 
COc1cc2ncnc(Nc3ccc(F)c(Cl)c3)c2cc1OCCn1ccnc1

>  <Set>  (262) 
G2 active

>  <Set_type>  (262) 
Train

>  <MW>  (262) 
413.84

>  <HBD>  (262) 
1

>  <HBA>  (262) 
6

>  <NRB>  (262) 
7

>  <NR>  (262) 
4

>  <NAR>  (262) 
4

>  <PSA>  (262) 
74.09

>  <Standard Type>  (262) 
nan

>  <Standard Relation>  (262) 
nan

>  <Standard Units>  (262) 
nan

>  <Standard Value>  (262) 
nan

>  <Assay ChEMBL ID>  (262) 
nan

>  <Assay Description>  (262) 
nan

>  <BAO Label>  (262) 
nan

$$$$

     RDKit          2D

 37 41  0  0  0  0  0  0  0  0999 V2000
  -14.2500    1.2990    0.0000 C   0  0  0  0  0  0  0  0  0  0  0  0
  -12.7500    1.2990    0.0000 N   0  0  0  0  0  0  0  0  0  0  0  0
  -12.0000    2.5981    0.0000 C   0  0  0  0  0  0  0  0  0  0  0  0
  -10.5000    2.5981    0.0000 C   0  0  0  0  0  0  0  0  0  0  0  0
   -9.7500    1.2990    0.0000 N   0  0  0  0  0  0  0  0  0  0  0  0
   -8.2500    1.2990    0.0000 C   0  0  0  0  0  0  0  0  0  0  0  0
   -7.5000    0.0000    0.0000 C   0  0  0  0  0  0  0  0  0  0  0  0
   -6.0000    0.0000    0.0000 C   0  0  0  0  0  0  0  0  0  0  0  0
   -5.2500   -1.2990    0.0000 O   0  0  0  0  0  0  0  0  0  0  0  0
   -3.7500   -1.2990    0.0000 C   0  0  0  0  0  0  0  0  0  0  0  0
   -3.0000   -2.5981    0.0000 C   0  0  0  0  0  0  0  0  0  0  0  0
   -1.5000   -2.5981    0.0000 C   0  0  0  0  0  0  0  0  0  0  0  0
   -0.7500   -3.8971    0.0000 O   0  0  0  0  0  0  0  0  0  0  0  0
   -1.5000   -5.1962    0.0000 C   0  0  0  0  0  0  0  0  0  0  0  0
   -3.0000   -5.1962    0.0000 C   0  0  0  0  0  0  0  0  0  0  0  0
   -3.7500   -6.4952    0.0000 C   0  0  0  0  0  0  0  0  0  0  0  0
   -3.0000   -7.7942    0.0000 O   0  0  0  0  0  0  0  0  0  0  0  0
   -1.5000   -7.7942    0.0000 C   0  0  0  0  0  0  0  0  0  0  0  0
   -0.7500   -6.4952    0.0000 C   0  0  0  0  0  0  0  0  0  0  0  0
   -0.7500   -1.2990    0.0000 C   0  0  0  0  0  0  0  0  0  0  0  0
    0.7500   -1.2990    0.0000 C   0  0  0  0  0  0  0  0  0  0  0  0
    1.5000   -2.5981    0.0000 N   0  0  0  0  0  0  0  0  0  0  0  0
    3.0000   -2.5981    0.0000 C   0  0  0  0  0  0  0  0  0  0  0  0
    3.7500   -3.8971    0.0000 C   0  0  0  0  0  0  0  0  0  0  0  0
    5.2500   -3.8971    0.0000 C   0  0  0  0  0  0  0  0  0  0  0  0
    6.0000   -2.5981    0.0000 C   0  0  0  0  0  0  0  0  0  0  0  0
    7.5000   -2.5981    0.0000 F   0  0  0  0  0  0  0  0  0  0  0  0
    5.2500   -1.2990    0.0000 C   0  0  0  0  0  0  0  0  0  0  0  0
    6.0000   -0.0000    0.0000 Cl  0  0  0  0  0  0  0  0  0  0  0  0
    3.7500   -1.2990    0.0000 C   0  0  0  0  0  0  0  0  0  0  0  0
    1.5000    0.0000    0.0000 N   0  0  0  0  0  0  0  0  0  0  0  0
    0.7500    1.2990    0.0000 C   0  0  0  0  0  0  0  0  0  0  0  0
   -0.7500    1.2990    0.0000 N   0  0  0  0  0  0  0  0  0  0  0  0
   -1.5000    0.0000    0.0000 C   0  0  0  0  0  0  0  0  0  0  0  0
   -3.0000    0.0000    0.0000 C   0  0  0  0  0  0  0  0  0  0  0  0
  -10.5000    0.0000    0.0000 C   0  0  0  0  0  0  0  0  0  0  0  0
  -12.0000    0.0000    0.0000 C   0  0  0  0  0  0  0  0  0  0  0  0
  1  2  1  0
  2  3  1  0
  3  4  1  0
  4  5  1  0
  5  6  1  0
  6  7  1  0
  7  8  1  0
  8  9  1  0
  9 10  1  0
 10 11  2  0
 11 12  1  0
 12 13  1  0
 13 14  1  0
 14 15  1  0
 15 16  1  0
 16 17  1  0
 17 18  1  0
 18 19  1  0
 12 20  2  0
 20 21  1  0
 21 22  1  0
 22 23  1  0
 23 24  2  0
 24 25  1  0
 25 26  2  0
 26 27  1  0
 26 28  1  0
 28 29  1  0
 28 30  2  0
 21 31  2  0
 31 32  1  0
 32 33  2  0
 33 34  1  0
 34 35  2  0
  5 36  1  0
 36 37  1  0
 37  2  1  0
 35 10  1  0
 19 14  1  0
 34 20  1  0
 30 23  1  0
M  END
>  <Compound_ID>  (263) 
CHEMBL205776

>  <Active>  (263) 
1.0

>  <Smiles>  (263) 
CN1CCN(CCCOc2cc(OC3CCOCC3)c3c(Nc4ccc(F)c(Cl)c4)ncnc3c2)CC1

>  <canonical_smi>  (263) 
CN1CCN(CCCOc2cc(OC3CCOCC3)c3c(Nc4ccc(F)c(Cl)c4)ncnc3c2)CC1

>  <Set>  (263) 
G2 active

>  <Set_type>  (263) 
Train

>  <MW>  (263) 
530.04

>  <HBD>  (263) 
1

>  <HBA>  (263) 
8

>  <NRB>  (263) 
9

>  <NR>  (263) 
5

>  <NAR>  (263) 
3

>  <PSA>  (263) 
71.98

>  <Standard Type>  (263) 
nan

>  <Standard Relation>  (263) 
nan

>  <Standard Units>  (263) 
nan

>  <Standard Value>  (263) 
nan

>  <Assay ChEMBL ID>  (263) 
nan

>  <Assay Description>  (263) 
nan

>  <BAO Label>  (263) 
nan

$$$$

     RDKit          2D

 35 39  0  0  0  0  0  0  0  0999 V2000
  -10.3907   -1.3744    0.0000 C   0  0  0  0  0  0  0  0  0  0  0  0
   -8.8990   -1.5312    0.0000 N   0  0  0  0  0  0  0  0  0  0  0  0
   -8.0173   -0.3176    0.0000 C   0  0  0  0  0  0  0  0  0  0  0  0
   -8.2888   -2.9015    0.0000 C   0  0  0  0  0  0  0  0  0  0  0  0
   -6.7971   -3.0583    0.0000 C   0  0  0  0  0  0  0  0  0  0  0  0
   -6.0471   -4.3573    0.0000 C   0  0  0  0  0  0  0  0  0  0  0  0
   -4.5798   -4.0454    0.0000 C   0  0  0  0  0  0  0  0  0  0  0  0
   -4.4231   -2.5537    0.0000 C   0  0  0  0  0  0  0  0  0  0  0  0
   -3.1240   -1.8037    0.0000 C   0  0  0  0  0  0  0  0  0  0  0  0
   -1.7537   -2.4138    0.0000 C   0  0  0  0  0  0  0  0  0  0  0  0
   -0.7500   -1.2990    0.0000 C   0  0  0  0  0  0  0  0  0  0  0  0
    0.7500   -1.2990    0.0000 C   0  0  0  0  0  0  0  0  0  0  0  0
    1.5000   -2.5981    0.0000 N   0  0  0  0  0  0  0  0  0  0  0  0
    3.0000   -2.5981    0.0000 C   0  0  0  0  0  0  0  0  0  0  0  0
    3.7500   -3.8971    0.0000 C   0  0  0  0  0  0  0  0  0  0  0  0
    5.2500   -3.8971    0.0000 C   0  0  0  0  0  0  0  0  0  0  0  0
    6.0000   -2.5981    0.0000 C   0  0  0  0  0  0  0  0  0  0  0  0
    7.5000   -2.5981    0.0000 O   0  0  0  0  0  0  0  0  0  0  0  0
    8.2500   -3.8971    0.0000 C   0  0  0  0  0  0  0  0  0  0  0  0
    9.7500   -3.8971    0.0000 C   0  0  0  0  0  0  0  0  0  0  0  0
   10.5000   -5.1962    0.0000 C   0  0  0  0  0  0  0  0  0  0  0  0
   12.0000   -5.1962    0.0000 C   0  0  0  0  0  0  0  0  0  0  0  0
   12.7500   -3.8971    0.0000 C   0  0  0  0  0  0  0  0  0  0  0  0
   12.0000   -2.5981    0.0000 C   0  0  0  0  0  0  0  0  0  0  0  0
   12.7500   -1.2990    0.0000 F   0  0  0  0  0  0  0  0  0  0  0  0
   10.5000   -2.5981    0.0000 C   0  0  0  0  0  0  0  0  0  0  0  0
    5.2500   -1.2990    0.0000 C   0  0  0  0  0  0  0  0  0  0  0  0
    6.0000   -0.0000    0.0000 Cl  0  0  0  0  0  0  0  0  0  0  0  0
    3.7500   -1.2990    0.0000 C   0  0  0  0  0  0  0  0  0  0  0  0
    1.5000    0.0000    0.0000 N   0  0  0  0  0  0  0  0  0  0  0  0
    0.7500    1.2990    0.0000 C   0  0  0  0  0  0  0  0  0  0  0  0
   -0.7500    1.2990    0.0000 N   0  0  0  0  0  0  0  0  0  0  0  0
   -1.5000    0.0000    0.0000 C   0  0  0  0  0  0  0  0  0  0  0  0
   -2.9672   -0.3119    0.0000 S   0  0  0  0  0  0  0  0  0  0  0  0
   -5.7934   -1.9435    0.0000 N   0  0  0  0  0  0  0  0  0  0  0  0
  1  2  1  0
  2  3  1  0
  2  4  1  0
  4  5  1  0
  5  6  2  0
  6  7  1  0
  7  8  2  0
  8  9  1  0
  9 10  2  0
 10 11  1  0
 11 12  2  0
 12 13  1  0
 13 14  1  0
 14 15  2  0
 15 16  1  0
 16 17  2  0
 17 18  1  0
 18 19  1  0
 19 20  1  0
 20 21  2  0
 21 22  1  0
 22 23  2  0
 23 24  1  0
 24 25  1  0
 24 26  2  0
 17 27  1  0
 27 28  1  0
 27 29  2  0
 12 30  1  0
 30 31  2  0
 31 32  1  0
 32 33  2  0
 33 34  1  0
  8 35  1  0
 35  5  1  0
 34  9  1  0
 33 11  1  0
 29 14  1  0
 26 20  1  0
M  END
>  <Compound_ID>  (264) 
CHEMBL475767

>  <Active>  (264) 
1.0

>  <Smiles>  (264) 
CN(C)Cc1ccc(-c2cc3c(Nc4ccc(OCc5cccc(F)c5)c(Cl)c4)ncnc3s2)[nH]1

>  <canonical_smi>  (264) 
CN(C)Cc1ccc(-c2cc3c(Nc4ccc(OCc5cccc(F)c5)c(Cl)c4)ncnc3s2)[nH]1

>  <Set>  (264) 
G2 active

>  <Set_type>  (264) 
Train

>  <MW>  (264) 
508.02

>  <HBD>  (264) 
2

>  <HBA>  (264) 
5

>  <NRB>  (264) 
8

>  <NR>  (264) 
5

>  <NAR>  (264) 
5

>  <PSA>  (264) 
66.07

>  <Standard Type>  (264) 
nan

>  <Standard Relation>  (264) 
nan

>  <Standard Units>  (264) 
nan

>  <Standard Value>  (264) 
nan

>  <Assay ChEMBL ID>  (264) 
nan

>  <Assay Description>  (264) 
nan

>  <BAO Label>  (264) 
nan

$$$$

     RDKit          2D

 26 28  0  0  0  0  0  0  0  0999 V2000
   -0.7500   -3.8971    0.0000 O   0  0  0  0  0  0  0  0  0  0  0  0
    0.7500   -3.8971    0.0000 C   0  0  0  0  0  0  0  0  0  0  0  0
    1.5000   -2.5981    0.0000 O   0  0  0  0  0  0  0  0  0  0  0  0
    0.7500   -1.2990    0.0000 C   0  0  0  0  0  0  0  0  0  0  0  0
    1.5000    0.0000    0.0000 C   0  0  0  0  0  0  0  0  0  0  0  0
    0.7500    1.2990    0.0000 C   0  0  0  0  0  0  0  0  0  0  0  0
   -0.7500    1.2990    0.0000 C   0  0  0  0  0  0  0  0  0  0  0  0
   -1.5000    0.0000    0.0000 C   0  0  0  0  0  0  0  0  0  0  0  0
   -0.7500   -1.2990    0.0000 C   0  0  0  0  0  0  0  0  0  0  0  0
    1.5000   -5.1962    0.0000 C   0  0  0  0  0  0  0  0  0  0  0  0
    0.7500   -6.4952    0.0000 C   0  0  0  0  0  0  0  0  0  0  0  0
    1.5000   -7.7942    0.0000 C   0  0  0  0  0  0  0  0  0  0  0  0
    0.7500   -9.0933    0.0000 N   0  0  0  0  0  0  0  0  0  0  0  0
   -0.7500   -9.0933    0.0000 C   0  0  0  0  0  0  0  0  0  0  0  0
   -1.5000  -10.3923    0.0000 C   0  0  0  0  0  0  0  0  0  0  0  0
   -3.0000  -10.3923    0.0000 C   0  0  0  0  0  0  0  0  0  0  0  0
   -3.7500  -11.6913    0.0000 C   0  0  0  0  0  0  0  0  0  0  0  0
   -5.2500  -11.6913    0.0000 O   0  0  0  0  0  0  0  0  0  0  0  0
   -3.0000  -12.9904    0.0000 C   0  0  0  0  0  0  0  0  0  0  0  0
   -1.5000  -12.9904    0.0000 C   0  0  0  0  0  0  0  0  0  0  0  0
   -0.7500  -11.6913    0.0000 C   0  0  0  0  0  0  0  0  0  0  0  0
    0.7500  -11.6913    0.0000 O   0  0  0  0  0  0  0  0  0  0  0  0
    3.0000   -7.7942    0.0000 C   0  0  0  0  0  0  0  0  0  0  0  0
    3.7500   -6.4952    0.0000 C   0  0  0  0  0  0  0  0  0  0  0  0
    3.0000   -5.1962    0.0000 C   0  0  0  0  0  0  0  0  0  0  0  0
    3.7500   -3.8971    0.0000 O   0  0  0  0  0  0  0  0  0  0  0  0
  1  2  2  0
  2  3  1  0
  3  4  1  0
  4  5  2  0
  5  6  1  0
  6  7  2  0
  7  8  1  0
  8  9  2  0
  2 10  1  0
 10 11  2  0
 11 12  1  0
 12 13  1  0
 13 14  1  0
 14 15  1  0
 15 16  2  0
 16 17  1  0
 17 18  1  0
 17 19  2  0
 19 20  1  0
 20 21  2  0
 21 22  1  0
 12 23  2  0
 23 24  1  0
 24 25  2  0
 25 26  1  0
  9  4  1  0
 25 10  1  0
 21 15  1  0
M  END
>  <Compound_ID>  (265) 
CHEMBL169970

>  <Active>  (265) 
1.0

>  <Smiles>  (265) 
O=C(Oc1ccccc1)c1cc(NCc2cc(O)ccc2O)ccc1O

>  <canonical_smi>  (265) 
O=C(Oc1ccccc1)c1cc(NCc2cc(O)ccc2O)ccc1O

>  <Set>  (265) 
G2 active

>  <Set_type>  (265) 
Train

>  <MW>  (265) 
351.36

>  <HBD>  (265) 
4

>  <HBA>  (265) 
6

>  <NRB>  (265) 
5

>  <NR>  (265) 
3

>  <NAR>  (265) 
3

>  <PSA>  (265) 
99.02

>  <Standard Type>  (265) 
nan

>  <Standard Relation>  (265) 
nan

>  <Standard Units>  (265) 
nan

>  <Standard Value>  (265) 
nan

>  <Assay ChEMBL ID>  (265) 
nan

>  <Assay Description>  (265) 
nan

>  <BAO Label>  (265) 
nan

$$$$

     RDKit          2D

 34 38  0  0  0  0  0  0  0  0999 V2000
   -3.8876   -9.0580    0.0000 N   0  0  0  0  0  0  0  0  0  0  0  0
   -3.5757   -7.5908    0.0000 C   0  0  0  0  0  0  0  0  0  0  0  0
   -4.6904   -6.5871    0.0000 C   0  0  0  0  0  0  0  0  0  0  0  0
   -4.3786   -5.1199    0.0000 C   0  0  0  0  0  0  0  0  0  0  0  0
   -2.9520   -4.6564    0.0000 N   0  0  0  0  0  0  0  0  0  0  0  0
   -2.6401   -3.1891    0.0000 C   0  0  0  0  0  0  0  0  0  0  0  0
   -1.2135   -2.7256    0.0000 C   0  0  0  0  0  0  0  0  0  0  0  0
   -0.0000   -3.6073    0.0000 C   0  0  0  0  0  0  0  0  0  0  0  0
    1.2135   -2.7256    0.0000 C   0  0  0  0  0  0  0  0  0  0  0  0
    0.7500   -1.2990    0.0000 N   0  0  0  0  0  0  0  0  0  0  0  0
    1.5000    0.0000    0.0000 N   0  0  0  0  0  0  0  0  0  0  0  0
    0.7500    1.2990    0.0000 C   0  0  0  0  0  0  0  0  0  0  0  0
   -0.7500    1.2990    0.0000 N   0  0  0  0  0  0  0  0  0  0  0  0
   -1.5000    0.0000    0.0000 C   0  0  0  0  0  0  0  0  0  0  0  0
   -3.0000    0.0000    0.0000 N   0  0  0  0  0  0  0  0  0  0  0  0
   -3.7500    1.2990    0.0000 C   0  0  0  0  0  0  0  0  0  0  0  0
   -3.0000    2.5981    0.0000 C   0  0  0  0  0  0  0  0  0  0  0  0
   -3.7500    3.8971    0.0000 C   0  0  0  0  0  0  0  0  0  0  0  0
   -5.2500    3.8971    0.0000 C   0  0  0  0  0  0  0  0  0  0  0  0
   -6.0000    5.1962    0.0000 O   0  0  0  0  0  0  0  0  0  0  0  0
   -5.2500    6.4952    0.0000 C   0  0  0  0  0  0  0  0  0  0  0  0
   -6.0000    7.7942    0.0000 C   0  0  0  0  0  0  0  0  0  0  0  0
   -5.2500    9.0933    0.0000 C   0  0  0  0  0  0  0  0  0  0  0  0
   -6.0000   10.3923    0.0000 C   0  0  0  0  0  0  0  0  0  0  0  0
   -7.5000   10.3923    0.0000 C   0  0  0  0  0  0  0  0  0  0  0  0
   -8.2500    9.0933    0.0000 C   0  0  0  0  0  0  0  0  0  0  0  0
   -7.5000    7.7942    0.0000 N   0  0  0  0  0  4  0  0  0  0  0  0
   -8.2500    6.4952    0.0000 O   0  0  0  0  0  1  0  0  0  0  0  0
   -6.0000    2.5981    0.0000 C   0  0  0  0  0  0  0  0  0  0  0  0
   -7.5000    2.5981    0.0000 Cl  0  0  0  0  0  0  0  0  0  0  0  0
   -5.2500    1.2990    0.0000 C   0  0  0  0  0  0  0  0  0  0  0  0
   -0.7500   -1.2990    0.0000 C   0  0  0  0  0  0  0  0  0  0  0  0
   -1.8373   -5.6601    0.0000 C   0  0  0  0  0  0  0  0  0  0  0  0
   -2.1491   -7.1273    0.0000 C   0  0  0  0  0  0  0  0  0  0  0  0
  1  2  1  0
  2  3  1  0
  3  4  1  0
  4  5  1  0
  5  6  1  0
  6  7  1  0
  7  8  1  0
  8  9  2  0
  9 10  1  0
 10 11  1  0
 11 12  2  0
 12 13  1  0
 13 14  2  0
 14 15  1  0
 15 16  1  0
 16 17  2  0
 17 18  1  0
 18 19  2  0
 19 20  1  0
 20 21  1  0
 21 22  1  0
 22 23  2  0
 23 24  1  0
 24 25  2  0
 25 26  1  0
 26 27  2  0
 27 28  1  0
 19 29  1  0
 29 30  1  0
 29 31  2  0
 14 32  1  0
  5 33  1  0
 33 34  1  0
 34  2  1  0
 32  7  2  0
 32 10  1  0
 31 16  1  0
 27 22  1  0
M  CHG  2  27   1  28  -1
M  END
>  <Compound_ID>  (266) 
CHEMBL248322

>  <Active>  (266) 
1.0

>  <Smiles>  (266) 
NC1CCN(Cc2ccn3ncnc(Nc4ccc(OCc5cccc[n+]5[O-])c(Cl)c4)c23)CC1

>  <canonical_smi>  (266) 
NC1CCN(Cc2ccn3ncnc(Nc4ccc(OCc5cccc[n+]5[O-])c(Cl)c4)c23)CC1

>  <Set>  (266) 
G2 active

>  <Set_type>  (266) 
Train

>  <MW>  (266) 
479.97

>  <HBD>  (266) 
2

>  <HBA>  (266) 
7

>  <NRB>  (266) 
7

>  <NR>  (266) 
5

>  <NAR>  (266) 
4

>  <PSA>  (266) 
107.65

>  <Standard Type>  (266) 
nan

>  <Standard Relation>  (266) 
nan

>  <Standard Units>  (266) 
nan

>  <Standard Value>  (266) 
nan

>  <Assay ChEMBL ID>  (266) 
nan

>  <Assay Description>  (266) 
nan

>  <BAO Label>  (266) 
nan

$$$$

     RDKit          2D

 40 45  0  0  0  0  0  0  0  0999 V2000
    9.0985   -9.6461    0.0000 C   0  0  0  0  0  0  0  0  0  0  0  0
    7.7282   -9.0360    0.0000 S   0  0  0  0  0  0  0  0  0  0  0  0
    8.3383   -7.6657    0.0000 O   0  0  0  0  0  0  0  0  0  0  0  0
    7.1181  -10.4063    0.0000 O   0  0  0  0  0  0  0  0  0  0  0  0
    6.3579   -8.4259    0.0000 C   0  0  0  0  0  0  0  0  0  0  0  0
    6.2011   -6.9341    0.0000 C   0  0  0  0  0  0  0  0  0  0  0  0
    4.8308   -6.3240    0.0000 N   0  0  0  0  0  0  0  0  0  0  0  0
    4.6740   -4.8322    0.0000 C   0  0  0  0  0  0  0  0  0  0  0  0
    3.3037   -4.2221    0.0000 C   0  0  0  0  0  0  0  0  0  0  0  0
    2.9918   -2.7549    0.0000 N   0  0  0  0  0  0  0  0  0  0  0  0
    1.5000   -2.5981    0.0000 C   0  0  0  0  0  0  0  0  0  0  0  0
    0.7500   -1.2990    0.0000 C   0  0  0  0  0  0  0  0  0  0  0  0
    1.5000    0.0000    0.0000 C   0  0  0  0  0  0  0  0  0  0  0  0
    0.7500    1.2990    0.0000 C   0  0  0  0  0  0  0  0  0  0  0  0
   -0.7500    1.2990    0.0000 C   0  0  0  0  0  0  0  0  0  0  0  0
   -1.5000    2.5981    0.0000 N   0  0  0  0  0  0  0  0  0  0  0  0
   -3.0000    2.5981    0.0000 C   0  0  0  0  0  0  0  0  0  0  0  0
   -3.7500    1.2990    0.0000 N   0  0  0  0  0  0  0  0  0  0  0  0
   -3.0000    0.0000    0.0000 C   0  0  0  0  0  0  0  0  0  0  0  0
   -3.7500   -1.2990    0.0000 N   0  0  0  0  0  0  0  0  0  0  0  0
   -5.2500   -1.2990    0.0000 C   0  0  0  0  0  0  0  0  0  0  0  0
   -6.0000    0.0000    0.0000 C   0  0  0  0  0  0  0  0  0  0  0  0
   -7.5000    0.0000    0.0000 C   0  0  0  0  0  0  0  0  0  0  0  0
   -8.2500   -1.2990    0.0000 C   0  0  0  0  0  0  0  0  0  0  0  0
   -7.5000   -2.5981    0.0000 C   0  0  0  0  0  0  0  0  0  0  0  0
   -8.5037   -3.7128    0.0000 C   0  0  0  0  0  0  0  0  0  0  0  0
   -9.8740   -3.1027    0.0000 N   0  0  0  0  0  0  0  0  0  0  0  0
   -9.7172   -1.6109    0.0000 N   0  0  0  0  0  0  0  0  0  0  0  0
  -10.8319   -0.6072    0.0000 C   0  0  0  0  0  0  0  0  0  0  0  0
  -12.2585   -1.0707    0.0000 C   0  0  0  0  0  0  0  0  0  0  0  0
  -13.3732   -0.0670    0.0000 C   0  0  0  0  0  0  0  0  0  0  0  0
  -14.7998   -0.5306    0.0000 C   0  0  0  0  0  0  0  0  0  0  0  0
  -15.1117   -1.9978    0.0000 C   0  0  0  0  0  0  0  0  0  0  0  0
  -13.9970   -3.0015    0.0000 C   0  0  0  0  0  0  0  0  0  0  0  0
  -12.5704   -2.5380    0.0000 C   0  0  0  0  0  0  0  0  0  0  0  0
   -6.0000   -2.5981    0.0000 C   0  0  0  0  0  0  0  0  0  0  0  0
   -1.5000    0.0000    0.0000 C   0  0  0  0  0  0  0  0  0  0  0  0
   -0.7500   -1.2990    0.0000 C   0  0  0  0  0  0  0  0  0  0  0  0
    0.8899   -3.9684    0.0000 C   0  0  0  0  0  0  0  0  0  0  0  0
    2.0046   -4.9721    0.0000 S   0  0  0  0  0  0  0  0  0  0  0  0
  1  2  1  0
  2  3  2  0
  2  4  2  0
  2  5  1  0
  5  6  1  0
  6  7  1  0
  7  8  1  0
  8  9  1  0
  9 10  2  0
 10 11  1  0
 11 12  1  0
 12 13  2  0
 13 14  1  0
 14 15  2  0
 15 16  1  0
 16 17  2  0
 17 18  1  0
 18 19  2  0
 19 20  1  0
 20 21  1  0
 21 22  2  0
 22 23  1  0
 23 24  2  0
 24 25  1  0
 25 26  1  0
 26 27  2  0
 27 28  1  0
 28 29  1  0
 29 30  1  0
 30 31  2  0
 31 32  1  0
 32 33  2  0
 33 34  1  0
 34 35  2  0
 25 36  2  0
 19 37  1  0
 37 38  2  0
 11 39  2  0
 39 40  1  0
 40  9  1  0
 38 12  1  0
 37 15  1  0
 36 21  1  0
 28 24  1  0
 35 30  1  0
M  END
>  <Compound_ID>  (267) 
CHEMBL472581

>  <Active>  (267) 
1.0

>  <Smiles>  (267) 
CS(=O)(=O)CCNCc1nc(-c2ccc3ncnc(Nc4ccc5c(cnn5Cc5ccccc5)c4)c3c2)cs1

>  <canonical_smi>  (267) 
CS(=O)(=O)CCNCc1nc(-c2ccc3ncnc(Nc4ccc5c(cnn5Cc5ccccc5)c4)c3c2)cs1

>  <Set>  (267) 
G2 active

>  <Set_type>  (267) 
Train

>  <MW>  (267) 
569.72

>  <HBD>  (267) 
2

>  <HBA>  (267) 
8

>  <NRB>  (267) 
10

>  <NR>  (267) 
6

>  <NAR>  (267) 
6

>  <PSA>  (267) 
114.69

>  <Standard Type>  (267) 
nan

>  <Standard Relation>  (267) 
nan

>  <Standard Units>  (267) 
nan

>  <Standard Value>  (267) 
nan

>  <Assay ChEMBL ID>  (267) 
nan

>  <Assay Description>  (267) 
nan

>  <BAO Label>  (267) 
nan

$$$$

     RDKit          2D

 34 37  0  0  0  0  0  0  0  0999 V2000
   -3.0000  -10.3923    0.0000 Cl  0  0  0  0  0  0  0  0  0  0  0  0
   -1.5000  -10.3923    0.0000 C   0  0  0  0  0  0  0  0  0  0  0  0
   -0.7500   -9.0933    0.0000 C   0  0  0  0  0  0  0  0  0  0  0  0
    0.7500   -9.0933    0.0000 N   0  0  0  0  0  0  0  0  0  0  0  0
    1.5000   -7.7942    0.0000 C   0  0  0  0  0  0  0  0  0  0  0  0
    0.7500   -6.4952    0.0000 C   0  0  0  0  0  0  0  0  0  0  0  0
    1.5000   -5.1962    0.0000 N   0  0  0  0  0  0  0  0  0  0  0  0
    0.7500   -3.8971    0.0000 N   0  0  0  0  0  0  0  0  0  0  0  0
    1.5000   -2.5981    0.0000 N   0  0  0  0  0  0  0  0  0  0  0  0
    0.7500   -1.2990    0.0000 C   0  0  0  0  0  0  0  0  0  0  0  0
    1.5000    0.0000    0.0000 C   0  0  0  0  0  0  0  0  0  0  0  0
    0.7500    1.2990    0.0000 C   0  0  0  0  0  0  0  0  0  0  0  0
   -0.7500    1.2990    0.0000 C   0  0  0  0  0  0  0  0  0  0  0  0
   -1.5000    2.5981    0.0000 N   0  0  0  0  0  0  0  0  0  0  0  0
   -3.0000    2.5981    0.0000 C   0  0  0  0  0  0  0  0  0  0  0  0
   -3.7500    1.2990    0.0000 N   0  0  0  0  0  0  0  0  0  0  0  0
   -3.0000    0.0000    0.0000 C   0  0  0  0  0  0  0  0  0  0  0  0
   -3.7500   -1.2990    0.0000 N   0  0  0  0  0  0  0  0  0  0  0  0
   -5.2500   -1.2990    0.0000 C   0  0  0  0  0  0  0  0  0  0  0  0
   -6.0000    0.0000    0.0000 C   0  0  0  0  0  0  0  0  0  0  0  0
   -7.5000    0.0000    0.0000 C   0  0  0  0  0  0  0  0  0  0  0  0
   -8.2500   -1.2990    0.0000 C   0  0  0  0  0  0  0  0  0  0  0  0
   -7.5000   -2.5981    0.0000 C   0  0  0  0  0  0  0  0  0  0  0  0
   -8.2500   -3.8971    0.0000 Cl  0  0  0  0  0  0  0  0  0  0  0  0
   -6.0000   -2.5981    0.0000 C   0  0  0  0  0  0  0  0  0  0  0  0
   -1.5000    0.0000    0.0000 C   0  0  0  0  0  0  0  0  0  0  0  0
   -0.7500   -1.2990    0.0000 C   0  0  0  0  0  0  0  0  0  0  0  0
    1.5000  -10.3923    0.0000 C   0  0  0  0  0  0  0  0  0  0  0  0
    0.7500  -11.6913    0.0000 C   0  0  0  0  0  0  0  0  0  0  0  0
   -0.7500  -11.6913    0.0000 C   0  0  0  0  0  0  0  0  0  0  0  0
   -1.5000  -12.9904    0.0000 C   0  0  0  0  0  0  0  0  0  0  0  0
   -0.7500  -14.2894    0.0000 C   0  0  0  0  0  0  0  0  0  0  0  0
    0.7500  -14.2894    0.0000 C   0  0  0  0  0  0  0  0  0  0  0  0
    1.5000  -12.9904    0.0000 C   0  0  0  0  0  0  0  0  0  0  0  0
  1  2  1  0
  2  3  1  0
  3  4  1  0
  4  5  1  0
  5  6  1  0
  6  7  1  0
  7  8  1  0
  8  9  2  3
  9 10  1  0
 10 11  2  0
 11 12  1  0
 12 13  2  0
 13 14  1  0
 14 15  2  0
 15 16  1  0
 16 17  2  0
 17 18  1  0
 18 19  1  0
 19 20  2  0
 20 21  1  0
 21 22  2  0
 22 23  1  0
 23 24  1  0
 23 25  2  0
 17 26  1  0
 26 27  2  0
  4 28  1  0
 28 29  1  0
 29 30  2  0
 30 31  1  0
 31 32  2  0
 32 33  1  0
 33 34  2  0
 27 10  1  0
 34 29  1  0
 26 13  1  0
 25 19  1  0
M  END
>  <Compound_ID>  (268) 
CHEMBL225929

>  <Active>  (268) 
1.0

>  <Smiles>  (268) 
ClCCN(CCNN=Nc1ccc2ncnc(Nc3cccc(Cl)c3)c2c1)Cc1ccccc1

>  <canonical_smi>  (268) 
ClCCN(CCNN=Nc1ccc2ncnc(Nc3cccc(Cl)c3)c2c1)Cc1ccccc1

>  <Set>  (268) 
G2 active

>  <Set_type>  (268) 
Train

>  <MW>  (268) 
494.43

>  <HBD>  (268) 
2

>  <HBA>  (268) 
5

>  <NRB>  (268) 
11

>  <NR>  (268) 
4

>  <NAR>  (268) 
4

>  <PSA>  (268) 
77.8

>  <Standard Type>  (268) 
nan

>  <Standard Relation>  (268) 
nan

>  <Standard Units>  (268) 
nan

>  <Standard Value>  (268) 
nan

>  <Assay ChEMBL ID>  (268) 
nan

>  <Assay Description>  (268) 
nan

>  <BAO Label>  (268) 
nan

$$$$

     RDKit          2D

 39 42  0  0  0  0  0  0  0  0999 V2000
    3.7500   -1.2990    0.0000 C   0  0  0  0  0  0  0  0  0  0  0  0
    3.0000    0.0000    0.0000 O   0  0  0  0  0  0  0  0  0  0  0  0
    1.5000    0.0000    0.0000 C   0  0  0  0  0  0  0  0  0  0  0  0
    0.7500   -1.2990    0.0000 C   0  0  0  0  0  0  0  0  0  0  0  0
   -0.7500   -1.2990    0.0000 C   0  0  0  0  0  0  0  0  0  0  0  0
   -1.5000   -2.5981    0.0000 N   0  0  0  0  0  0  0  0  0  0  0  0
   -3.0000   -2.5981    0.0000 C   0  0  0  0  0  0  0  0  0  0  0  0
   -3.7500   -1.2990    0.0000 C   0  0  0  0  0  0  0  0  0  0  0  0
   -5.2500   -1.2990    0.0000 C   0  0  0  0  0  0  0  0  0  0  0  0
   -6.7500   -1.2990    0.0000 N   0  0  0  0  0  0  0  0  0  0  0  0
   -3.0000    0.0000    0.0000 C   0  0  0  0  0  0  0  0  0  0  0  0
   -3.7500    1.2990    0.0000 N   0  0  0  0  0  0  0  0  0  0  0  0
   -3.0000    2.5981    0.0000 C   0  0  0  0  0  0  0  0  0  0  0  0
   -1.5000    2.5981    0.0000 C   0  0  0  0  0  0  0  0  0  0  0  0
   -0.7500    3.8971    0.0000 C   0  0  0  0  0  0  0  0  0  0  0  0
   -1.5000    5.1962    0.0000 C   0  0  0  0  0  0  0  0  0  0  0  0
   -0.7500    6.4952    0.0000 N   0  0  0  0  0  0  0  0  0  0  0  0
    0.7500    6.4952    0.0000 C   0  0  0  0  0  0  0  0  0  0  0  0
    1.5000    7.7942    0.0000 C   0  0  0  0  0  0  0  0  0  0  0  0
    3.0000    7.7942    0.0000 C   0  0  0  0  0  0  0  0  0  0  0  0
    3.7500    9.0933    0.0000 C   0  0  0  0  0  0  0  0  0  0  0  0
    3.0000   10.3923    0.0000 C   0  0  0  0  0  0  0  0  0  0  0  0
    1.5000   10.3923    0.0000 N   0  0  0  0  0  0  0  0  0  0  0  0
    0.7500    9.0933    0.0000 C   0  0  0  0  0  0  0  0  0  0  0  0
   -3.0000    5.1962    0.0000 C   0  0  0  0  0  0  0  0  0  0  0  0
   -3.7500    6.4952    0.0000 Cl  0  0  0  0  0  0  0  0  0  0  0  0
   -3.7500    3.8971    0.0000 C   0  0  0  0  0  0  0  0  0  0  0  0
   -1.5000    0.0000    0.0000 C   0  0  0  0  0  0  0  0  0  0  0  0
   -0.7500    1.2990    0.0000 C   0  0  0  0  0  0  0  0  0  0  0  0
    0.7500    1.2990    0.0000 C   0  0  0  0  0  0  0  0  0  0  0  0
    1.5000    2.5981    0.0000 N   0  0  0  0  0  0  0  0  0  0  0  0
    3.0000    2.5981    0.0000 C   0  0  0  0  0  0  0  0  0  0  0  0
    3.7500    1.2990    0.0000 O   0  0  0  0  0  0  0  0  0  0  0  0
    3.7500    3.8971    0.0000 C   0  0  0  0  0  0  0  0  0  0  0  0
    5.2500    3.8971    0.0000 C   0  0  0  0  0  0  0  0  0  0  0  0
    6.0000    5.1962    0.0000 C   0  0  0  0  0  0  0  0  0  0  0  0
    7.5000    5.1962    0.0000 N   0  0  0  0  0  0  0  0  0  0  0  0
    8.2500    6.4952    0.0000 C   0  0  0  0  0  0  0  0  0  0  0  0
    8.2500    3.8971    0.0000 C   0  0  0  0  0  0  0  0  0  0  0  0
  1  2  1  0
  2  3  1  0
  3  4  2  0
  4  5  1  0
  5  6  2  0
  6  7  1  0
  7  8  2  0
  8  9  1  0
  9 10  3  0
  8 11  1  0
 11 12  1  0
 12 13  1  0
 13 14  2  0
 14 15  1  0
 15 16  2  0
 16 17  1  0
 17 18  1  0
 18 19  1  0
 19 20  2  0
 20 21  1  0
 21 22  2  0
 22 23  1  0
 23 24  2  0
 16 25  1  0
 25 26  1  0
 25 27  2  0
 11 28  2  0
 28 29  1  0
 29 30  2  0
 30 31  1  0
 31 32  1  0
 32 33  2  0
 32 34  1  0
 34 35  2  0
 35 36  1  0
 36 37  1  0
 37 38  1  0
 37 39  1  0
 30  3  1  0
 28  5  1  0
 27 13  1  0
 24 19  1  0
M  END
>  <Compound_ID>  (269) 
CHEMBL179633

>  <Active>  (269) 
1.0

>  <Smiles>  (269) 
COc1cc2ncc(C#N)c(Nc3ccc(NCc4cccnc4)c(Cl)c3)c2cc1NC(=O)/C=C/CN(C)C

>  <canonical_smi>  (269) 
COc1cc2ncc(C#N)c(Nc3ccc(NCc4cccnc4)c(Cl)c3)c2cc1NC(=O)/C=C/CN(C)C

>  <Set>  (269) 
G2 active

>  <Set_type>  (269) 
Train

>  <MW>  (269) 
542.04

>  <HBD>  (269) 
3

>  <HBA>  (269) 
8

>  <NRB>  (269) 
10

>  <NR>  (269) 
4

>  <NAR>  (269) 
4

>  <PSA>  (269) 
115.2

>  <Standard Type>  (269) 
nan

>  <Standard Relation>  (269) 
nan

>  <Standard Units>  (269) 
nan

>  <Standard Value>  (269) 
nan

>  <Assay ChEMBL ID>  (269) 
nan

>  <Assay Description>  (269) 
nan

>  <BAO Label>  (269) 
nan

$$$$

     RDKit          2D

 21 24  0  0  0  0  0  0  0  0999 V2000
    1.9975  -10.1845    0.0000 Br  0  0  0  0  0  0  0  0  0  0  0  0
    0.6272   -9.5744    0.0000 C   0  0  0  0  0  0  0  0  0  0  0  0
   -0.5864  -10.4561    0.0000 C   0  0  0  0  0  0  0  0  0  0  0  0
   -1.9567   -9.8460    0.0000 C   0  0  0  0  0  0  0  0  0  0  0  0
   -2.1135   -8.3542    0.0000 C   0  0  0  0  0  0  0  0  0  0  0  0
   -0.8999   -7.4725    0.0000 C   0  0  0  0  0  0  0  0  0  0  0  0
   -1.0567   -5.9808    0.0000 N   0  0  0  0  0  0  0  0  0  0  0  0
    0.1568   -5.0991    0.0000 C   0  0  0  0  0  0  0  0  0  0  0  0
    1.5271   -5.7092    0.0000 N   0  0  0  0  0  0  0  0  0  0  0  0
    2.7406   -4.8275    0.0000 C   0  0  0  0  0  0  0  0  0  0  0  0
    2.5838   -3.3357    0.0000 N   0  0  0  0  0  0  0  0  0  0  0  0
    1.2135   -2.7256    0.0000 C   0  0  0  0  0  0  0  0  0  0  0  0
    0.7500   -1.2990    0.0000 C   0  0  0  0  0  0  0  0  0  0  0  0
    1.5000    0.0000    0.0000 C   0  0  0  0  0  0  0  0  0  0  0  0
    0.7500    1.2990    0.0000 C   0  0  0  0  0  0  0  0  0  0  0  0
   -0.7500    1.2990    0.0000 C   0  0  0  0  0  0  0  0  0  0  0  0
   -1.5000    0.0000    0.0000 C   0  0  0  0  0  0  0  0  0  0  0  0
   -0.7500   -1.2990    0.0000 C   0  0  0  0  0  0  0  0  0  0  0  0
   -1.2135   -2.7256    0.0000 N   0  0  0  0  0  0  0  0  0  0  0  0
    0.0000   -3.6073    0.0000 C   0  0  0  0  0  0  0  0  0  0  0  0
    0.4704   -8.0826    0.0000 C   0  0  0  0  0  0  0  0  0  0  0  0
  1  2  1  0
  2  3  2  0
  3  4  1  0
  4  5  2  0
  5  6  1  0
  6  7  1  0
  7  8  1  0
  8  9  1  0
  9 10  1  0
 10 11  2  0
 11 12  1  0
 12 13  2  0
 13 14  1  0
 14 15  2  0
 15 16  1  0
 16 17  2  0
 17 18  1  0
 18 19  2  0
 19 20  1  0
  6 21  2  0
 21  2  1  0
 20  8  2  0
 20 12  1  0
 18 13  1  0
M  END
>  <Compound_ID>  (270) 
CHEMBL554983

>  <Active>  (270) 
1.0

>  <Smiles>  (270) 
Brc1cccc(Nc2[nH]cnc3c4ccccc4nc2-3)c1

>  <canonical_smi>  (270) 
Brc1cccc(Nc2[nH]cnc3c4ccccc4nc2-3)c1

>  <Set>  (270) 
G2 active

>  <Set_type>  (270) 
Train

>  <MW>  (270) 
339.2

>  <HBD>  (270) 
2

>  <HBA>  (270) 
3

>  <NRB>  (270) 
2

>  <NR>  (270) 
4

>  <NAR>  (270) 
4

>  <PSA>  (270) 
53.6

>  <Standard Type>  (270) 
nan

>  <Standard Relation>  (270) 
nan

>  <Standard Units>  (270) 
nan

>  <Standard Value>  (270) 
nan

>  <Assay ChEMBL ID>  (270) 
nan

>  <Assay Description>  (270) 
nan

>  <BAO Label>  (270) 
nan

$$$$

     RDKit          2D

 35 40  0  0  0  0  0  0  0  0999 V2000
   -1.0344   -8.1310    0.0000 F   0  0  0  0  0  0  0  0  0  0  0  0
   -2.1491   -7.1273    0.0000 C   0  0  0  0  0  0  0  0  0  0  0  0
   -3.5757   -7.5908    0.0000 C   0  0  0  0  0  0  0  0  0  0  0  0
   -4.6904   -6.5871    0.0000 C   0  0  0  0  0  0  0  0  0  0  0  0
   -4.3786   -5.1199    0.0000 C   0  0  0  0  0  0  0  0  0  0  0  0
   -2.9520   -4.6564    0.0000 C   0  0  0  0  0  0  0  0  0  0  0  0
   -2.6401   -3.1891    0.0000 C   0  0  0  0  0  0  0  0  0  0  0  0
   -1.2135   -2.7256    0.0000 N   0  0  0  0  0  0  0  0  0  0  0  0
   -0.0000   -3.6073    0.0000 N   0  0  0  0  0  0  0  0  0  0  0  0
    1.2135   -2.7256    0.0000 C   0  0  0  0  0  0  0  0  0  0  0  0
    0.7500   -1.2990    0.0000 C   0  0  0  0  0  0  0  0  0  0  0  0
    1.5000    0.0000    0.0000 C   0  0  0  0  0  0  0  0  0  0  0  0
    0.7500    1.2990    0.0000 C   0  0  0  0  0  0  0  0  0  0  0  0
    1.5000    2.5981    0.0000 N   0  0  0  0  0  0  0  0  0  0  0  0
    3.0000    2.5981    0.0000 C   0  0  0  0  0  0  0  0  0  0  0  0
    3.7500    1.2990    0.0000 N   0  0  0  0  0  0  0  0  0  0  0  0
    5.2500    1.2990    0.0000 C   0  0  0  0  0  0  0  0  0  0  0  0
    6.0000    2.5981    0.0000 N   0  0  0  0  0  0  0  0  0  0  0  0
    5.2500    3.8971    0.0000 N   0  0  0  0  0  0  0  0  0  0  0  0
    5.7135    5.3237    0.0000 C   0  0  0  0  0  0  0  0  0  0  0  0
    4.5000    6.2054    0.0000 C   0  0  0  0  0  0  0  0  0  0  0  0
    3.2865    5.3237    0.0000 C   0  0  0  0  0  0  0  0  0  0  0  0
    1.8599    5.7872    0.0000 C   0  0  0  0  0  0  0  0  0  0  0  0
    1.5480    7.2544    0.0000 O   0  0  0  0  0  0  0  0  0  0  0  0
    0.1214    7.7180    0.0000 C   0  0  0  0  0  0  0  0  0  0  0  0
   -0.1904    9.1852    0.0000 C   0  0  0  0  0  0  0  0  0  0  0  0
   -1.6170    9.6487    0.0000 C   0  0  0  0  0  0  0  0  0  0  0  0
   -2.7317    8.6450    0.0000 N   0  0  0  0  0  0  0  0  0  0  0  0
   -2.4199    7.1778    0.0000 C   0  0  0  0  0  0  0  0  0  0  0  0
   -0.9933    6.7143    0.0000 C   0  0  0  0  0  0  0  0  0  0  0  0
    3.7500    3.8971    0.0000 C   0  0  0  0  0  0  0  0  0  0  0  0
   -0.7500    1.2990    0.0000 C   0  0  0  0  0  0  0  0  0  0  0  0
   -1.5000    0.0000    0.0000 C   0  0  0  0  0  0  0  0  0  0  0  0
   -0.7500   -1.2990    0.0000 C   0  0  0  0  0  0  0  0  0  0  0  0
   -1.8373   -5.6601    0.0000 C   0  0  0  0  0  0  0  0  0  0  0  0
  1  2  1  0
  2  3  2  0
  3  4  1  0
  4  5  2  0
  5  6  1  0
  6  7  1  0
  7  8  1  0
  8  9  1  0
  9 10  2  0
 10 11  1  0
 11 12  2  0
 12 13  1  0
 13 14  1  0
 14 15  1  0
 15 16  2  0
 16 17  1  0
 17 18  2  0
 18 19  1  0
 19 20  1  0
 20 21  2  0
 21 22  1  0
 22 23  1  0
 23 24  1  0
 24 25  1  0
 25 26  1  0
 26 27  1  0
 27 28  1  0
 28 29  1  0
 29 30  1  0
 22 31  2  0
 13 32  2  0
 32 33  1  0
 33 34  2  0
  6 35  2  0
 35  2  1  0
 34  8  1  0
 34 11  1  0
 31 15  1  0
 31 19  1  0
 30 25  1  0
M  END
>  <Compound_ID>  (271) 
CHEMBL245869

>  <Active>  (271) 
1.0

>  <Smiles>  (271) 
Fc1cccc(Cn2ncc3cc(Nc4ncnn5ccc(COC6CCNCC6)c45)ccc32)c1

>  <canonical_smi>  (271) 
Fc1cccc(Cn2ncc3cc(Nc4ncnn5ccc(COC6CCNCC6)c45)ccc32)c1

>  <Set>  (271) 
G2 active

>  <Set_type>  (271) 
Train

>  <MW>  (271) 
471.54

>  <HBD>  (271) 
2

>  <HBA>  (271) 
6

>  <NRB>  (271) 
7

>  <NR>  (271) 
6

>  <NAR>  (271) 
5

>  <PSA>  (271) 
81.3

>  <Standard Type>  (271) 
nan

>  <Standard Relation>  (271) 
nan

>  <Standard Units>  (271) 
nan

>  <Standard Value>  (271) 
nan

>  <Assay ChEMBL ID>  (271) 
nan

>  <Assay Description>  (271) 
nan

>  <BAO Label>  (271) 
nan

$$$$

     RDKit          2D

 31 34  0  0  0  0  0  0  0  0999 V2000
    3.0000    0.0000    0.0000 F   0  0  0  0  0  0  0  0  0  0  0  0
    1.5000    0.0000    0.0000 C   0  0  0  0  0  0  0  0  0  0  0  0
    0.7500   -1.2990    0.0000 C   0  0  0  0  0  0  0  0  0  0  0  0
   -0.7500   -1.2990    0.0000 C   0  0  0  0  0  0  0  0  0  0  0  0
   -1.5000    0.0000    0.0000 C   0  0  0  0  0  0  0  0  0  0  0  0
   -0.7500    1.2990    0.0000 C   0  0  0  0  0  0  0  0  0  0  0  0
   -1.5000    2.5981    0.0000 C   0  0  0  0  0  0  0  0  0  0  0  0
   -0.7500    3.8971    0.0000 O   0  0  0  0  0  0  0  0  0  0  0  0
   -1.5000    5.1962    0.0000 C   0  0  0  0  0  0  0  0  0  0  0  0
   -0.7500    6.4952    0.0000 C   0  0  0  0  0  0  0  0  0  0  0  0
   -1.5000    7.7942    0.0000 C   0  0  0  0  0  0  0  0  0  0  0  0
   -3.0000    7.7942    0.0000 C   0  0  0  0  0  0  0  0  0  0  0  0
   -3.7500    9.0933    0.0000 N   0  0  0  0  0  0  0  0  0  0  0  0
   -3.0000   10.3923    0.0000 C   0  0  0  0  0  0  0  0  0  0  0  0
   -1.5000   10.3923    0.0000 N   0  0  0  0  0  0  0  0  0  0  0  0
   -0.7500   11.6913    0.0000 C   0  0  0  0  0  0  0  0  0  0  0  0
   -1.5000   12.9904    0.0000 N   0  0  0  0  0  0  0  0  0  0  0  0
   -3.0000   12.9904    0.0000 C   0  0  0  0  0  0  0  0  0  0  0  0
   -3.7500   11.6913    0.0000 C   0  0  0  0  0  0  0  0  0  0  0  0
   -5.2500   11.6913    0.0000 C   0  0  0  0  0  0  0  0  0  0  0  0
   -6.7500   11.6913    0.0000 C   0  0  0  0  0  0  0  0  0  0  0  0
   -8.2500   11.6913    0.0000 C   0  0  0  0  0  0  0  0  0  0  0  0
   -9.0000   12.9904    0.0000 C   0  0  0  0  0  0  0  0  0  0  0  0
  -10.5000   12.9904    0.0000 C   0  0  0  0  0  0  0  0  0  0  0  0
  -11.2500   11.6913    0.0000 C   0  0  0  0  0  0  0  0  0  0  0  0
  -10.5000   10.3923    0.0000 N   0  0  0  0  0  0  0  0  0  0  0  0
   -9.0000   10.3923    0.0000 C   0  0  0  0  0  0  0  0  0  0  0  0
   -3.7500    6.4952    0.0000 C   0  0  0  0  0  0  0  0  0  0  0  0
   -3.0000    5.1962    0.0000 C   0  0  0  0  0  0  0  0  0  0  0  0
   -3.7500    3.8971    0.0000 Cl  0  0  0  0  0  0  0  0  0  0  0  0
    0.7500    1.2990    0.0000 C   0  0  0  0  0  0  0  0  0  0  0  0
  1  2  1  0
  2  3  2  0
  3  4  1  0
  4  5  2  0
  5  6  1  0
  6  7  1  0
  7  8  1  0
  8  9  1  0
  9 10  2  0
 10 11  1  0
 11 12  2  0
 12 13  1  0
 13 14  1  0
 14 15  2  0
 15 16  1  0
 16 17  2  0
 17 18  1  0
 18 19  2  0
 19 20  1  0
 20 21  3  0
 21 22  1  0
 22 23  2  0
 23 24  1  0
 24 25  2  0
 25 26  1  0
 26 27  2  0
 12 28  1  0
 28 29  2  0
 29 30  1  0
  6 31  2  0
 31  2  1  0
 29  9  1  0
 19 14  1  0
 27 22  1  0
M  END
>  <Compound_ID>  (272) 
CHEMBL438440

>  <Active>  (272) 
1.0

>  <Smiles>  (272) 
Fc1cccc(COc2ccc(Nc3ncncc3C#Cc3cccnc3)cc2Cl)c1

>  <canonical_smi>  (272) 
Fc1cccc(COc2ccc(Nc3ncncc3C#Cc3cccnc3)cc2Cl)c1

>  <Set>  (272) 
G2 active

>  <Set_type>  (272) 
Train

>  <MW>  (272) 
430.87

>  <HBD>  (272) 
1

>  <HBA>  (272) 
5

>  <NRB>  (272) 
5

>  <NR>  (272) 
4

>  <NAR>  (272) 
4

>  <PSA>  (272) 
59.93

>  <Standard Type>  (272) 
nan

>  <Standard Relation>  (272) 
nan

>  <Standard Units>  (272) 
nan

>  <Standard Value>  (272) 
nan

>  <Assay ChEMBL ID>  (272) 
nan

>  <Assay Description>  (272) 
nan

>  <BAO Label>  (272) 
nan

$$$$

     RDKit          2D

 43 47  0  0  0  0  0  0  0  0999 V2000
    0.7500   -6.4952    0.0000 C   0  0  0  0  0  0  0  0  0  0  0  0
    1.5000   -5.1962    0.0000 C   0  0  0  0  0  0  0  0  0  0  0  0
    3.0000   -5.1962    0.0000 C   0  0  0  0  0  0  0  0  0  0  0  0
    3.7500   -6.4952    0.0000 N   0  0  0  0  0  0  0  0  0  0  0  0
    3.0000   -7.7942    0.0000 C   0  0  0  0  0  0  0  0  0  0  0  0
    3.7500   -9.0933    0.0000 C   0  0  0  0  0  0  0  0  0  0  0  0
    5.2500   -9.0933    0.0000 O   0  0  0  0  0  0  0  0  0  0  0  0
    6.0000   -7.7942    0.0000 C   0  0  0  0  0  0  0  0  0  0  0  0
    5.2500   -6.4952    0.0000 C   0  0  0  0  0  0  0  0  0  0  0  0
    0.7500   -3.8971    0.0000 C   0  0  0  0  0  0  0  0  0  0  0  0
   -0.7500   -3.8971    0.0000 O   0  0  0  0  0  0  0  0  0  0  0  0
    1.5000   -2.5981    0.0000 N   0  0  0  0  0  0  0  0  0  0  0  0
    0.7500   -1.2990    0.0000 C   0  0  0  0  0  0  0  0  0  0  0  0
    1.5000    0.0000    0.0000 C   0  0  0  0  0  0  0  0  0  0  0  0
    0.7500    1.2990    0.0000 C   0  0  0  0  0  0  0  0  0  0  0  0
    1.5000    2.5981    0.0000 C   0  0  0  0  0  0  0  0  0  0  0  0
    3.0000    2.5981    0.0000 N   0  0  0  0  0  0  0  0  0  0  0  0
    3.7500    1.2990    0.0000 C   0  0  0  0  0  0  0  0  0  0  0  0
    3.0000   -0.0000    0.0000 C   0  0  0  0  0  0  0  0  0  0  0  0
    3.7500   -1.2990    0.0000 C   0  0  0  0  0  0  0  0  0  0  0  0
    5.2500   -1.2990    0.0000 C   0  0  0  0  0  0  0  0  0  0  0  0
    6.0000   -2.5981    0.0000 O   0  0  0  0  0  0  0  0  0  0  0  0
    7.5000   -2.5981    0.0000 C   0  0  0  0  0  0  0  0  0  0  0  0
    8.2500   -3.8971    0.0000 C   0  0  0  0  0  0  0  0  0  0  0  0
    9.7500   -3.8971    0.0000 C   0  0  0  0  0  0  0  0  0  0  0  0
   10.5000   -5.1962    0.0000 C   0  0  0  0  0  0  0  0  0  0  0  0
    9.7500   -6.4952    0.0000 C   0  0  0  0  0  0  0  0  0  0  0  0
    8.2500   -6.4952    0.0000 C   0  0  0  0  0  0  0  0  0  0  0  0
    7.5000   -5.1962    0.0000 C   0  0  0  0  0  0  0  0  0  0  0  0
    6.0000   -0.0000    0.0000 C   0  0  0  0  0  0  0  0  0  0  0  0
    7.5000   -0.0000    0.0000 Cl  0  0  0  0  0  0  0  0  0  0  0  0
    5.2500    1.2990    0.0000 C   0  0  0  0  0  0  0  0  0  0  0  0
    0.7500    3.8971    0.0000 C   0  0  0  0  0  0  0  0  0  0  0  0
    1.5000    5.1962    0.0000 C   0  0  0  0  0  0  0  0  0  0  0  0
    2.2500    6.4952    0.0000 N   0  0  0  0  0  0  0  0  0  0  0  0
   -0.7500    3.8971    0.0000 C   0  0  0  0  0  0  0  0  0  0  0  0
   -1.5000    2.5981    0.0000 N   0  0  0  0  0  0  0  0  0  0  0  0
   -0.7500    1.2990    0.0000 C   0  0  0  0  0  0  0  0  0  0  0  0
   -1.5000    0.0000    0.0000 C   0  0  0  0  0  0  0  0  0  0  0  0
   -0.7500   -1.2990    0.0000 C   0  0  0  0  0  0  0  0  0  0  0  0
   -1.5000   -2.5981    0.0000 O   0  0  0  0  0  0  0  0  0  0  0  0
   -3.0000   -2.5981    0.0000 C   0  0  0  0  0  0  0  0  0  0  0  0
   -3.7500   -3.8971    0.0000 C   0  0  0  0  0  0  0  0  0  0  0  0
  1  2  2  0
  2  3  1  0
  3  4  1  0
  4  5  1  0
  5  6  1  0
  6  7  1  0
  7  8  1  0
  8  9  1  0
  2 10  1  0
 10 11  2  0
 10 12  1  0
 12 13  1  0
 13 14  2  0
 14 15  1  0
 15 16  2  0
 16 17  1  0
 17 18  1  0
 18 19  2  0
 19 20  1  0
 20 21  2  0
 21 22  1  0
 22 23  1  0
 23 24  1  0
 24 25  2  0
 25 26  1  0
 26 27  2  0
 27 28  1  0
 28 29  2  0
 21 30  1  0
 30 31  1  0
 30 32  2  0
 16 33  1  0
 33 34  1  0
 34 35  3  0
 33 36  2  0
 36 37  1  0
 37 38  2  0
 38 39  1  0
 39 40  2  0
 40 41  1  0
 41 42  1  0
 42 43  1  0
  9  4  1  0
 40 13  1  0
 38 15  1  0
 32 18  1  0
 29 24  1  0
M  END
>  <Compound_ID>  (273) 
CHEMBL179607

>  <Active>  (273) 
1.0

>  <Smiles>  (273) 
C=C(CN1CCOCC1)C(=O)Nc1cc2c(Nc3ccc(OCc4ccccc4)c(Cl)c3)c(C#N)cnc2cc1OCC

>  <canonical_smi>  (273) 
C=C(CN1CCOCC1)C(=O)Nc1cc2c(Nc3ccc(OCc4ccccc4)c(Cl)c3)c(C#N)cnc2cc1OCC

>  <Set>  (273) 
G2 active

>  <Set_type>  (273) 
Train

>  <MW>  (273) 
598.1

>  <HBD>  (273) 
2

>  <HBA>  (273) 
8

>  <NRB>  (273) 
11

>  <NR>  (273) 
5

>  <NAR>  (273) 
4

>  <PSA>  (273) 
108.74

>  <Standard Type>  (273) 
nan

>  <Standard Relation>  (273) 
nan

>  <Standard Units>  (273) 
nan

>  <Standard Value>  (273) 
nan

>  <Assay ChEMBL ID>  (273) 
nan

>  <Assay Description>  (273) 
nan

>  <BAO Label>  (273) 
nan

$$$$

     RDKit          2D

 32 35  0  0  0  0  0  0  0  0999 V2000
    3.0000    0.0000    0.0000 N   0  0  0  0  0  0  0  0  0  0  0  0
    1.5000    0.0000    0.0000 C   0  0  0  0  0  0  0  0  0  0  0  0
    0.7500   -1.2990    0.0000 N   0  0  0  0  0  0  0  0  0  0  0  0
   -0.7500   -1.2990    0.0000 C   0  0  0  0  0  0  0  0  0  0  0  0
   -1.5000    0.0000    0.0000 N   0  0  0  0  0  0  0  0  0  0  0  0
   -0.7500    1.2990    0.0000 C   0  0  0  0  0  0  0  0  0  0  0  0
   -1.5000    2.5981    0.0000 N   0  0  0  0  0  0  0  0  0  0  0  0
   -3.0000    2.5981    0.0000 C   0  0  0  0  0  0  0  0  0  0  0  0
   -3.7500    3.8971    0.0000 C   0  0  0  0  0  0  0  0  0  0  0  0
   -5.2500    3.8971    0.0000 C   0  0  0  0  0  0  0  0  0  0  0  0
   -6.0000    2.5981    0.0000 C   0  0  0  0  0  0  0  0  0  0  0  0
   -7.5000    2.5981    0.0000 O   0  0  0  0  0  0  0  0  0  0  0  0
   -8.2500    3.8971    0.0000 C   0  0  0  0  0  0  0  0  0  0  0  0
   -9.7500    3.8971    0.0000 C   0  0  0  0  0  0  0  0  0  0  0  0
  -10.5000    5.1962    0.0000 C   0  0  0  0  0  0  0  0  0  0  0  0
  -12.0000    5.1962    0.0000 C   0  0  0  0  0  0  0  0  0  0  0  0
  -12.7500    3.8971    0.0000 C   0  0  0  0  0  0  0  0  0  0  0  0
  -12.0000    2.5981    0.0000 C   0  0  0  0  0  0  0  0  0  0  0  0
  -10.5000    2.5981    0.0000 C   0  0  0  0  0  0  0  0  0  0  0  0
   -5.2500    1.2990    0.0000 C   0  0  0  0  0  0  0  0  0  0  0  0
   -6.0000   -0.0000    0.0000 Cl  0  0  0  0  0  0  0  0  0  0  0  0
   -3.7500    1.2990    0.0000 C   0  0  0  0  0  0  0  0  0  0  0  0
    0.7500    1.2990    0.0000 C   0  0  0  0  0  0  0  0  0  0  0  0
    1.5000    2.5981    0.0000 C   0  0  0  0  0  0  0  0  0  0  0  0
    0.7500    3.8971    0.0000 O   0  0  0  0  0  0  0  0  0  0  0  0
    3.0000    2.5981    0.0000 N   0  0  0  0  0  0  0  0  0  0  0  0
    3.7500    3.8971    0.0000 C   0  0  0  0  0  0  0  0  0  0  0  0
    5.2500    3.8971    0.0000 C   0  0  0  0  0  0  0  0  0  0  0  0
    6.0000    5.1962    0.0000 C   0  0  0  0  0  0  0  0  0  0  0  0
    5.2500    6.4952    0.0000 C   0  0  0  0  0  0  0  0  0  0  0  0
    3.7500    6.4952    0.0000 C   0  0  0  0  0  0  0  0  0  0  0  0
    3.0000    5.1962    0.0000 C   0  0  0  0  0  0  0  0  0  0  0  0
  1  2  1  0
  2  3  2  0
  3  4  1  0
  4  5  2  0
  5  6  1  0
  6  7  1  0
  7  8  1  0
  8  9  2  0
  9 10  1  0
 10 11  2  0
 11 12  1  0
 12 13  1  0
 13 14  1  0
 14 15  2  0
 15 16  1  0
 16 17  2  0
 17 18  1  0
 18 19  2  0
 11 20  1  0
 20 21  1  0
 20 22  2  0
  6 23  2  0
 23 24  1  0
 24 25  2  0
 24 26  1  0
 26 27  1  0
 27 28  2  0
 28 29  1  0
 29 30  2  0
 30 31  1  0
 31 32  2  0
 23  2  1  0
 32 27  1  0
 22  8  1  0
 19 14  1  0
M  END
>  <Compound_ID>  (274) 
CHEMBL461114

>  <Active>  (274) 
1.0

>  <Smiles>  (274) 
Nc1ncnc(Nc2ccc(OCc3ccccc3)c(Cl)c2)c1C(=O)Nc1ccccc1

>  <canonical_smi>  (274) 
Nc1ncnc(Nc2ccc(OCc3ccccc3)c(Cl)c2)c1C(=O)Nc1ccccc1

>  <Set>  (274) 
G2 active

>  <Set_type>  (274) 
Train

>  <MW>  (274) 
445.91

>  <HBD>  (274) 
3

>  <HBA>  (274) 
6

>  <NRB>  (274) 
7

>  <NR>  (274) 
4

>  <NAR>  (274) 
4

>  <PSA>  (274) 
102.16

>  <Standard Type>  (274) 
nan

>  <Standard Relation>  (274) 
nan

>  <Standard Units>  (274) 
nan

>  <Standard Value>  (274) 
nan

>  <Assay ChEMBL ID>  (274) 
nan

>  <Assay Description>  (274) 
nan

>  <BAO Label>  (274) 
nan

$$$$

     RDKit          2D

 32 35  0  0  0  0  0  0  0  0999 V2000
    6.3308   -8.9221    0.0000 O   0  0  0  0  0  0  0  0  0  0  0  0
    6.1740   -7.4303    0.0000 C   0  0  0  0  0  0  0  0  0  0  0  0
    4.8037   -6.8202    0.0000 C   0  0  0  0  0  0  0  0  0  0  0  0
    4.4918   -5.3529    0.0000 N   0  0  0  0  0  0  0  0  0  0  0  0
    3.0000   -5.1962    0.0000 C   0  0  0  0  0  0  0  0  0  0  0  0
    2.2500   -3.8971    0.0000 C   0  0  0  0  0  0  0  0  0  0  0  0
    1.5000   -2.5981    0.0000 C   0  0  0  0  0  0  0  0  0  0  0  0
    0.7500   -1.2990    0.0000 C   0  0  0  0  0  0  0  0  0  0  0  0
    1.5000    0.0000    0.0000 C   0  0  0  0  0  0  0  0  0  0  0  0
    0.7500    1.2990    0.0000 N   0  0  0  0  0  0  0  0  0  0  0  0
   -0.7500    1.2990    0.0000 C   0  0  0  0  0  0  0  0  0  0  0  0
   -1.5000    0.0000    0.0000 N   0  0  0  0  0  0  0  0  0  0  0  0
   -0.7500   -1.2990    0.0000 C   0  0  0  0  0  0  0  0  0  0  0  0
   -1.5000   -2.5981    0.0000 N   0  0  0  0  0  0  0  0  0  0  0  0
   -3.0000   -2.5981    0.0000 C   0  0  0  0  0  0  0  0  0  0  0  0
   -3.7500   -1.2990    0.0000 C   0  0  0  0  0  0  0  0  0  0  0  0
   -5.2500   -1.2990    0.0000 C   0  0  0  0  0  0  0  0  0  0  0  0
   -6.0000   -2.5981    0.0000 C   0  0  0  0  0  0  0  0  0  0  0  0
   -7.5000   -2.5981    0.0000 O   0  0  0  0  0  0  0  0  0  0  0  0
   -8.2500   -1.2990    0.0000 C   0  0  0  0  0  0  0  0  0  0  0  0
   -9.7500   -1.2990    0.0000 C   0  0  0  0  0  0  0  0  0  0  0  0
  -10.5000    0.0000    0.0000 C   0  0  0  0  0  0  0  0  0  0  0  0
  -12.0000    0.0000    0.0000 C   0  0  0  0  0  0  0  0  0  0  0  0
  -12.7500   -1.2990    0.0000 C   0  0  0  0  0  0  0  0  0  0  0  0
  -12.0000   -2.5981    0.0000 C   0  0  0  0  0  0  0  0  0  0  0  0
  -12.7500   -3.8971    0.0000 F   0  0  0  0  0  0  0  0  0  0  0  0
  -10.5000   -2.5981    0.0000 C   0  0  0  0  0  0  0  0  0  0  0  0
   -5.2500   -3.8971    0.0000 C   0  0  0  0  0  0  0  0  0  0  0  0
   -6.0000   -5.1962    0.0000 Cl  0  0  0  0  0  0  0  0  0  0  0  0
   -3.7500   -3.8971    0.0000 C   0  0  0  0  0  0  0  0  0  0  0  0
    2.3899   -6.5665    0.0000 C   0  0  0  0  0  0  0  0  0  0  0  0
    3.5046   -7.5702    0.0000 S   0  0  0  0  0  0  0  0  0  0  0  0
  1  2  1  0
  2  3  1  0
  3  4  2  0
  4  5  1  0
  5  6  1  0
  6  7  3  0
  7  8  1  0
  8  9  2  0
  9 10  1  0
 10 11  2  0
 11 12  1  0
 12 13  2  0
 13 14  1  0
 14 15  1  0
 15 16  2  0
 16 17  1  0
 17 18  2  0
 18 19  1  0
 19 20  1  0
 20 21  1  0
 21 22  2  0
 22 23  1  0
 23 24  2  0
 24 25  1  0
 25 26  1  0
 25 27  2  0
 18 28  1  0
 28 29  1  0
 28 30  2  0
  5 31  2  0
 31 32  1  0
 32  3  1  0
 13  8  1  0
 30 15  1  0
 27 21  1  0
M  END
>  <Compound_ID>  (275) 
CHEMBL205047

>  <Active>  (275) 
1.0

>  <Smiles>  (275) 
OCc1nc(C#Cc2cncnc2Nc2ccc(OCc3cccc(F)c3)c(Cl)c2)cs1

>  <canonical_smi>  (275) 
OCc1nc(C#Cc2cncnc2Nc2ccc(OCc3cccc(F)c3)c(Cl)c2)cs1

>  <Set>  (275) 
G2 active

>  <Set_type>  (275) 
Train

>  <MW>  (275) 
466.93

>  <HBD>  (275) 
2

>  <HBA>  (275) 
6

>  <NRB>  (275) 
6

>  <NR>  (275) 
4

>  <NAR>  (275) 
4

>  <PSA>  (275) 
80.16

>  <Standard Type>  (275) 
nan

>  <Standard Relation>  (275) 
nan

>  <Standard Units>  (275) 
nan

>  <Standard Value>  (275) 
nan

>  <Assay ChEMBL ID>  (275) 
nan

>  <Assay Description>  (275) 
nan

>  <BAO Label>  (275) 
nan

$$$$

     RDKit          2D

 29 32  0  0  0  0  0  0  0  0999 V2000
   -0.7500   -3.8971    0.0000 O   0  0  0  0  0  0  0  0  0  0  0  0
    0.7500   -3.8971    0.0000 C   0  0  0  0  0  0  0  0  0  0  0  0
    1.5000   -5.1962    0.0000 C   0  0  0  0  0  0  0  0  0  0  0  0
    0.7500   -6.4952    0.0000 C   0  0  0  0  0  0  0  0  0  0  0  0
    1.5000   -7.7942    0.0000 C   0  0  0  0  0  0  0  0  0  0  0  0
    0.7500   -9.0933    0.0000 C   0  0  0  0  0  0  0  0  0  0  0  0
    1.5000  -10.3923    0.0000 C   0  0  0  0  0  0  0  0  0  0  0  0
    3.0000  -10.3923    0.0000 C   0  0  0  0  0  0  0  0  0  0  0  0
    3.7500   -9.0933    0.0000 C   0  0  0  0  0  0  0  0  0  0  0  0
    3.0000   -7.7942    0.0000 C   0  0  0  0  0  0  0  0  0  0  0  0
    1.5000   -2.5981    0.0000 N   0  0  0  0  0  0  0  0  0  0  0  0
    0.7500   -1.2990    0.0000 C   0  0  0  0  0  0  0  0  0  0  0  0
    1.5000    0.0000    0.0000 C   0  0  0  0  0  0  0  0  0  0  0  0
    0.7500    1.2990    0.0000 C   0  0  0  0  0  0  0  0  0  0  0  0
    1.5000    2.5981    0.0000 C   0  0  0  0  0  0  0  0  0  0  0  0
    3.0000    2.5981    0.0000 N   0  0  0  0  0  0  0  0  0  0  0  0
    3.7500    3.8971    0.0000 C   0  0  0  0  0  0  0  0  0  0  0  0
    5.2500    3.8971    0.0000 C   0  0  0  0  0  0  0  0  0  0  0  0
    6.0000    5.1962    0.0000 C   0  0  0  0  0  0  0  0  0  0  0  0
    5.2500    6.4952    0.0000 C   0  0  0  0  0  0  0  0  0  0  0  0
    3.7500    6.4952    0.0000 C   0  0  0  0  0  0  0  0  0  0  0  0
    3.0000    7.7942    0.0000 Br  0  0  0  0  0  0  0  0  0  0  0  0
    3.0000    5.1962    0.0000 C   0  0  0  0  0  0  0  0  0  0  0  0
    0.7500    3.8971    0.0000 N   0  0  0  0  0  0  0  0  0  0  0  0
   -0.7500    3.8971    0.0000 C   0  0  0  0  0  0  0  0  0  0  0  0
   -1.5000    2.5981    0.0000 N   0  0  0  0  0  0  0  0  0  0  0  0
   -0.7500    1.2990    0.0000 C   0  0  0  0  0  0  0  0  0  0  0  0
   -1.5000    0.0000    0.0000 C   0  0  0  0  0  0  0  0  0  0  0  0
   -0.7500   -1.2990    0.0000 N   0  0  0  0  0  0  0  0  0  0  0  0
  1  2  2  0
  2  3  1  0
  3  4  2  0
  4  5  1  0
  5  6  2  0
  6  7  1  0
  7  8  2  0
  8  9  1  0
  9 10  2  0
  2 11  1  0
 11 12  1  0
 12 13  2  0
 13 14  1  0
 14 15  2  0
 15 16  1  0
 16 17  1  0
 17 18  2  0
 18 19  1  0
 19 20  2  0
 20 21  1  0
 21 22  1  0
 21 23  2  0
 15 24  1  0
 24 25  2  0
 25 26  1  0
 26 27  2  0
 27 28  1  0
 28 29  2  0
 10  5  1  0
 29 12  1  0
 27 14  1  0
 23 17  1  0
M  END
>  <Compound_ID>  (276) 
CHEMBL434828

>  <Active>  (276) 
1.0

>  <Smiles>  (276) 
O=C(/C=C/c1ccccc1)Nc1cc2c(Nc3cccc(Br)c3)ncnc2cn1

>  <canonical_smi>  (276) 
O=C(/C=C/c1ccccc1)Nc1cc2c(Nc3cccc(Br)c3)ncnc2cn1

>  <Set>  (276) 
G2 active

>  <Set_type>  (276) 
Train

>  <MW>  (276) 
446.31

>  <HBD>  (276) 
2

>  <HBA>  (276) 
5

>  <NRB>  (276) 
5

>  <NR>  (276) 
4

>  <NAR>  (276) 
4

>  <PSA>  (276) 
79.8

>  <Standard Type>  (276) 
nan

>  <Standard Relation>  (276) 
nan

>  <Standard Units>  (276) 
nan

>  <Standard Value>  (276) 
nan

>  <Assay ChEMBL ID>  (276) 
nan

>  <Assay Description>  (276) 
nan

>  <BAO Label>  (276) 
nan

$$$$

     RDKit          2D

 42 46  0  0  0  0  0  0  0  0999 V2000
    5.2500   -1.2990    0.0000 C   0  0  0  0  0  0  0  0  0  0  0  0
    3.7500   -1.2990    0.0000 C   0  0  0  0  0  0  0  0  0  0  0  0
    3.0000    0.0000    0.0000 O   0  0  0  0  0  0  0  0  0  0  0  0
    1.5000    0.0000    0.0000 C   0  0  0  0  0  0  0  0  0  0  0  0
    0.7500   -1.2990    0.0000 C   0  0  0  0  0  0  0  0  0  0  0  0
   -0.7500   -1.2990    0.0000 C   0  0  0  0  0  0  0  0  0  0  0  0
   -1.5000   -2.5981    0.0000 N   0  0  0  0  0  0  0  0  0  0  0  0
   -3.0000   -2.5981    0.0000 C   0  0  0  0  0  0  0  0  0  0  0  0
   -3.7500   -1.2990    0.0000 C   0  0  0  0  0  0  0  0  0  0  0  0
   -5.2500   -1.2990    0.0000 C   0  0  0  0  0  0  0  0  0  0  0  0
   -6.7500   -1.2990    0.0000 N   0  0  0  0  0  0  0  0  0  0  0  0
   -3.0000    0.0000    0.0000 C   0  0  0  0  0  0  0  0  0  0  0  0
   -3.7500    1.2990    0.0000 N   0  0  0  0  0  0  0  0  0  0  0  0
   -3.0000    2.5981    0.0000 C   0  0  0  0  0  0  0  0  0  0  0  0
   -1.5000    2.5981    0.0000 C   0  0  0  0  0  0  0  0  0  0  0  0
   -0.7500    3.8971    0.0000 C   0  0  0  0  0  0  0  0  0  0  0  0
   -1.5000    5.1962    0.0000 C   0  0  0  0  0  0  0  0  0  0  0  0
   -0.7500    6.4952    0.0000 O   0  0  0  0  0  0  0  0  0  0  0  0
    0.7500    6.4952    0.0000 C   0  0  0  0  0  0  0  0  0  0  0  0
    1.5000    7.7942    0.0000 C   0  0  0  0  0  0  0  0  0  0  0  0
    3.0000    7.7942    0.0000 C   0  0  0  0  0  0  0  0  0  0  0  0
    3.7500    9.0933    0.0000 C   0  0  0  0  0  0  0  0  0  0  0  0
    3.0000   10.3923    0.0000 C   0  0  0  0  0  0  0  0  0  0  0  0
    1.5000   10.3923    0.0000 C   0  0  0  0  0  0  0  0  0  0  0  0
    0.7500    9.0933    0.0000 C   0  0  0  0  0  0  0  0  0  0  0  0
   -3.0000    5.1962    0.0000 C   0  0  0  0  0  0  0  0  0  0  0  0
   -3.7500    6.4952    0.0000 Cl  0  0  0  0  0  0  0  0  0  0  0  0
   -3.7500    3.8971    0.0000 C   0  0  0  0  0  0  0  0  0  0  0  0
   -1.5000    0.0000    0.0000 C   0  0  0  0  0  0  0  0  0  0  0  0
   -0.7500    1.2990    0.0000 C   0  0  0  0  0  0  0  0  0  0  0  0
    0.7500    1.2990    0.0000 C   0  0  0  0  0  0  0  0  0  0  0  0
    1.5000    2.5981    0.0000 N   0  0  0  0  0  0  0  0  0  0  0  0
    3.0000    2.5981    0.0000 C   0  0  0  0  0  0  0  0  0  0  0  0
    3.7500    1.2990    0.0000 O   0  0  0  0  0  0  0  0  0  0  0  0
    3.7500    3.8971    0.0000 C   0  0  0  0  0  0  0  0  0  0  0  0
    5.2500    3.8971    0.0000 C   0  0  0  0  0  0  0  0  0  0  0  0
    6.0000    5.1962    0.0000 C   0  0  0  0  0  0  0  0  0  0  0  0
    7.5000    5.1962    0.0000 N   0  0  0  0  0  0  0  0  0  0  0  0
    8.3817    6.4097    0.0000 C   0  0  0  0  0  0  0  0  0  0  0  0
    9.8083    5.9462    0.0000 C   0  0  0  0  0  0  0  0  0  0  0  0
    9.8083    4.4462    0.0000 C   0  0  0  0  0  0  0  0  0  0  0  0
    8.3817    3.9826    0.0000 C   0  0  0  0  0  0  0  0  0  0  0  0
  1  2  1  0
  2  3  1  0
  3  4  1  0
  4  5  2  0
  5  6  1  0
  6  7  2  0
  7  8  1  0
  8  9  2  0
  9 10  1  0
 10 11  3  0
  9 12  1  0
 12 13  1  0
 13 14  1  0
 14 15  2  0
 15 16  1  0
 16 17  2  0
 17 18  1  0
 18 19  1  0
 19 20  1  0
 20 21  2  0
 21 22  1  0
 22 23  2  0
 23 24  1  0
 24 25  2  0
 17 26  1  0
 26 27  1  0
 26 28  2  0
 12 29  2  0
 29 30  1  0
 30 31  2  0
 31 32  1  0
 32 33  1  0
 33 34  2  0
 33 35  1  0
 35 36  2  0
 36 37  1  0
 37 38  1  0
 38 39  1  0
 39 40  1  0
 40 41  1  0
 41 42  1  0
 31  4  1  0
 42 38  1  0
 29  6  1  0
 28 14  1  0
 25 20  1  0
M  END
>  <Compound_ID>  (277) 
CHEMBL178312

>  <Active>  (277) 
1.0

>  <Smiles>  (277) 
CCOc1cc2ncc(C#N)c(Nc3ccc(OCc4ccccc4)c(Cl)c3)c2cc1NC(=O)/C=C/CN1CCCC1

>  <canonical_smi>  (277) 
CCOc1cc2ncc(C#N)c(Nc3ccc(OCc4ccccc4)c(Cl)c3)c2cc1NC(=O)/C=C/CN1CCCC1

>  <Set>  (277) 
G2 active

>  <Set_type>  (277) 
Train

>  <MW>  (277) 
582.1

>  <HBD>  (277) 
2

>  <HBA>  (277) 
7

>  <NRB>  (277) 
11

>  <NR>  (277) 
5

>  <NAR>  (277) 
4

>  <PSA>  (277) 
99.51

>  <Standard Type>  (277) 
nan

>  <Standard Relation>  (277) 
nan

>  <Standard Units>  (277) 
nan

>  <Standard Value>  (277) 
nan

>  <Assay ChEMBL ID>  (277) 
nan

>  <Assay Description>  (277) 
nan

>  <BAO Label>  (277) 
nan

$$$$

     RDKit          2D

 31 34  0  0  0  0  0  0  0  0999 V2000
   -5.2500   -3.8971    0.0000 C   0  0  0  0  0  0  0  0  0  0  0  0
   -3.7500   -3.8971    0.0000 O   0  0  0  0  0  0  0  0  0  0  0  0
   -3.0000   -2.5981    0.0000 C   0  0  0  0  0  0  0  0  0  0  0  0
   -1.5000   -2.5981    0.0000 C   0  0  0  0  0  0  0  0  0  0  0  0
   -0.7500   -1.2990    0.0000 C   0  0  0  0  0  0  0  0  0  0  0  0
    0.7500   -1.2990    0.0000 C   0  0  0  0  0  0  0  0  0  0  0  0
    1.5000   -2.5981    0.0000 N   0  0  0  0  0  0  0  0  0  0  0  0
    3.0000   -2.5981    0.0000 C   0  0  0  0  0  0  0  0  0  0  0  0
    3.7500   -3.8971    0.0000 C   0  0  0  0  0  0  0  0  0  0  0  0
    5.2500   -3.8971    0.0000 C   0  0  0  0  0  0  0  0  0  0  0  0
    6.0000   -2.5981    0.0000 C   0  0  0  0  0  0  0  0  0  0  0  0
    7.5000   -2.5981    0.0000 Cl  0  0  0  0  0  0  0  0  0  0  0  0
    5.2500   -1.2990    0.0000 C   0  0  0  0  0  0  0  0  0  0  0  0
    3.7500   -1.2990    0.0000 C   0  0  0  0  0  0  0  0  0  0  0  0
    3.0000   -0.0000    0.0000 F   0  0  0  0  0  0  0  0  0  0  0  0
    1.5000    0.0000    0.0000 N   0  0  0  0  0  0  0  0  0  0  0  0
    0.7500    1.2990    0.0000 C   0  0  0  0  0  0  0  0  0  0  0  0
   -0.7500    1.2990    0.0000 N   0  0  0  0  0  0  0  0  0  0  0  0
   -1.5000    0.0000    0.0000 C   0  0  0  0  0  0  0  0  0  0  0  0
   -3.0000    0.0000    0.0000 C   0  0  0  0  0  0  0  0  0  0  0  0
   -3.7500   -1.2990    0.0000 C   0  0  0  0  0  0  0  0  0  0  0  0
   -5.2500   -1.2990    0.0000 O   0  0  0  0  0  0  0  0  0  0  0  0
   -6.0000    0.0000    0.0000 C   0  0  0  0  0  0  0  0  0  0  0  0
   -7.5000    0.0000    0.0000 C   0  0  0  0  0  0  0  0  0  0  0  0
   -8.2500    1.2990    0.0000 C   0  0  0  0  0  0  0  0  0  0  0  0
   -9.7500    1.2990    0.0000 C   0  0  0  0  0  0  0  0  0  0  0  0
  -10.5000    2.5981    0.0000 N   0  0  0  0  0  0  0  0  0  0  0  0
  -11.9918    2.7549    0.0000 C   0  0  0  0  0  0  0  0  0  0  0  0
  -12.3037    4.2221    0.0000 C   0  0  0  0  0  0  0  0  0  0  0  0
  -11.0046    4.9721    0.0000 C   0  0  0  0  0  0  0  0  0  0  0  0
   -9.8899    3.9684    0.0000 C   0  0  0  0  0  0  0  0  0  0  0  0
  1  2  1  0
  2  3  1  0
  3  4  2  0
  4  5  1  0
  5  6  2  0
  6  7  1  0
  7  8  1  0
  8  9  2  0
  9 10  1  0
 10 11  2  0
 11 12  1  0
 11 13  1  0
 13 14  2  0
 14 15  1  0
  6 16  1  0
 16 17  2  0
 17 18  1  0
 18 19  2  0
 19 20  1  0
 20 21  2  0
 21 22  1  0
 22 23  1  0
 23 24  1  0
 24 25  2  0
 25 26  1  0
 26 27  1  0
 27 28  1  0
 28 29  1  0
 29 30  1  0
 30 31  1  0
 21  3  1  0
 31 27  1  0
 19  5  1  0
 14  8  1  0
M  END
>  <Compound_ID>  (278) 
CHEMBL28148

>  <Active>  (278) 
1.0

>  <Smiles>  (278) 
COc1cc2c(Nc3ccc(Cl)cc3F)ncnc2cc1OC/C=C/CN1CCCC1

>  <canonical_smi>  (278) 
COc1cc2c(Nc3ccc(Cl)cc3F)ncnc2cc1OC/C=C/CN1CCCC1

>  <Set>  (278) 
G2 active

>  <Set_type>  (278) 
Train

>  <MW>  (278) 
442.92

>  <HBD>  (278) 
1

>  <HBA>  (278) 
6

>  <NRB>  (278) 
8

>  <NR>  (278) 
4

>  <NAR>  (278) 
3

>  <PSA>  (278) 
59.51

>  <Standard Type>  (278) 
nan

>  <Standard Relation>  (278) 
nan

>  <Standard Units>  (278) 
nan

>  <Standard Value>  (278) 
nan

>  <Assay ChEMBL ID>  (278) 
nan

>  <Assay Description>  (278) 
nan

>  <BAO Label>  (278) 
nan

$$$$

     RDKit          2D

 30 33  0  0  0  0  0  0  0  0999 V2000
   -5.2500   -3.8971    0.0000 C   0  0  0  0  0  0  0  0  0  0  0  0
   -3.7500   -3.8971    0.0000 O   0  0  0  0  0  0  0  0  0  0  0  0
   -3.0000   -2.5981    0.0000 C   0  0  0  0  0  0  0  0  0  0  0  0
   -1.5000   -2.5981    0.0000 C   0  0  0  0  0  0  0  0  0  0  0  0
   -0.7500   -1.2990    0.0000 C   0  0  0  0  0  0  0  0  0  0  0  0
    0.7500   -1.2990    0.0000 C   0  0  0  0  0  0  0  0  0  0  0  0
    1.5000   -2.5981    0.0000 N   0  0  0  0  0  0  0  0  0  0  0  0
    3.0000   -2.5981    0.0000 C   0  0  0  0  0  0  0  0  0  0  0  0
    3.7500   -3.8971    0.0000 C   0  0  0  0  0  0  0  0  0  0  0  0
    5.2500   -3.8971    0.0000 C   0  0  0  0  0  0  0  0  0  0  0  0
    6.0000   -2.5981    0.0000 C   0  0  0  0  0  0  0  0  0  0  0  0
    7.5000   -2.5981    0.0000 Br  0  0  0  0  0  0  0  0  0  0  0  0
    5.2500   -1.2990    0.0000 C   0  0  0  0  0  0  0  0  0  0  0  0
    3.7500   -1.2990    0.0000 C   0  0  0  0  0  0  0  0  0  0  0  0
    3.0000   -0.0000    0.0000 F   0  0  0  0  0  0  0  0  0  0  0  0
    1.5000    0.0000    0.0000 N   0  0  0  0  0  0  0  0  0  0  0  0
    0.7500    1.2990    0.0000 C   0  0  0  0  0  0  0  0  0  0  0  0
   -0.7500    1.2990    0.0000 N   0  0  0  0  0  0  0  0  0  0  0  0
   -1.5000    0.0000    0.0000 C   0  0  0  0  0  0  0  0  0  0  0  0
   -3.0000    0.0000    0.0000 C   0  0  0  0  0  0  0  0  0  0  0  0
   -3.7500   -1.2990    0.0000 C   0  0  0  0  0  0  0  0  0  0  0  0
   -5.2500   -1.2990    0.0000 O   0  0  0  0  0  0  0  0  0  0  0  0
   -6.0000    0.0000    0.0000 C   0  0  0  0  0  0  0  0  0  0  0  0
   -7.5000    0.0000    0.0000 C   0  0  0  0  0  0  0  0  0  0  0  0
   -8.2500    1.2990    0.0000 C   0  0  0  0  0  0  0  0  0  0  0  0
   -7.5000    2.5981    0.0000 C   0  0  0  0  0  0  0  0  0  0  0  0
   -8.2500    3.8971    0.0000 C   0  0  0  0  0  0  0  0  0  0  0  0
   -9.7500    3.8971    0.0000 N   0  0  0  0  0  0  0  0  0  0  0  0
  -10.5000    2.5981    0.0000 C   0  0  0  0  0  0  0  0  0  0  0  0
   -9.7500    1.2990    0.0000 C   0  0  0  0  0  0  0  0  0  0  0  0
  1  2  1  0
  2  3  1  0
  3  4  2  0
  4  5  1  0
  5  6  2  0
  6  7  1  0
  7  8  1  0
  8  9  2  0
  9 10  1  0
 10 11  2  0
 11 12  1  0
 11 13  1  0
 13 14  2  0
 14 15  1  0
  6 16  1  0
 16 17  2  0
 17 18  1  0
 18 19  2  0
 19 20  1  0
 20 21  2  0
 21 22  1  0
 22 23  1  0
 23 24  1  0
 24 25  1  0
 25 26  1  0
 26 27  1  0
 27 28  1  0
 28 29  1  0
 29 30  1  0
 21  3  1  0
 30 25  1  0
 19  5  1  0
 14  8  1  0
M  END
>  <Compound_ID>  (279) 
CHEMBL26641

>  <Active>  (279) 
1.0

>  <Smiles>  (279) 
COc1cc2c(Nc3ccc(Br)cc3F)ncnc2cc1OCCC1CCNCC1

>  <canonical_smi>  (279) 
COc1cc2c(Nc3ccc(Br)cc3F)ncnc2cc1OCCC1CCNCC1

>  <Set>  (279) 
G2 active

>  <Set_type>  (279) 
Train

>  <MW>  (279) 
475.36

>  <HBD>  (279) 
2

>  <HBA>  (279) 
6

>  <NRB>  (279) 
7

>  <NR>  (279) 
4

>  <NAR>  (279) 
3

>  <PSA>  (279) 
68.3

>  <Standard Type>  (279) 
nan

>  <Standard Relation>  (279) 
nan

>  <Standard Units>  (279) 
nan

>  <Standard Value>  (279) 
nan

>  <Assay ChEMBL ID>  (279) 
nan

>  <Assay Description>  (279) 
nan

>  <BAO Label>  (279) 
nan

$$$$

     RDKit          2D

 27 29  0  0  0  0  0  0  0  0999 V2000
    3.0000    0.0000    0.0000 O   0  0  0  0  0  0  0  0  0  0  0  0
    1.5000    0.0000    0.0000 C   0  0  0  0  0  0  0  0  0  0  0  0
    0.7500   -1.2990    0.0000 C   0  0  0  0  0  0  0  0  0  0  0  0
   -0.7500   -1.2990    0.0000 C   0  0  0  0  0  0  0  0  0  0  0  0
   -1.5000    0.0000    0.0000 C   0  0  0  0  0  0  0  0  0  0  0  0
   -3.0000    0.0000    0.0000 C   0  0  0  0  0  0  0  0  0  0  0  0
   -3.7500    1.2990    0.0000 N   0  0  0  0  0  0  0  0  0  0  0  0
   -5.2500    1.2990    0.0000 C   0  0  0  0  0  0  0  0  0  0  0  0
   -6.0000    2.5981    0.0000 C   0  0  0  0  0  0  0  0  0  0  0  0
   -5.2500    3.8971    0.0000 C   0  0  0  0  0  0  0  0  0  0  0  0
   -6.0000    5.1962    0.0000 C   0  0  0  0  0  0  0  0  0  0  0  0
   -7.5000    5.1962    0.0000 C   0  0  0  0  0  0  0  0  0  0  0  0
   -8.2500    3.8971    0.0000 C   0  0  0  0  0  0  0  0  0  0  0  0
   -9.7500    3.8971    0.0000 Cl  0  0  0  0  0  0  0  0  0  0  0  0
   -7.5000    2.5981    0.0000 C   0  0  0  0  0  0  0  0  0  0  0  0
   -8.2500    1.2990    0.0000 O   0  0  0  0  0  0  0  0  0  0  0  0
   -3.0000    2.5981    0.0000 C   0  0  0  0  0  0  0  0  0  0  0  0
   -1.5000    2.5981    0.0000 S   0  0  0  0  0  0  0  0  0  0  0  0
   -3.7500    3.8971    0.0000 N   0  0  0  0  0  0  0  0  0  0  0  0
   -3.0000    5.1962    0.0000 C   0  0  0  0  0  0  0  0  0  0  0  0
   -1.5000    5.1962    0.0000 C   0  0  0  0  0  0  0  0  0  0  0  0
   -0.7500    6.4952    0.0000 C   0  0  0  0  0  0  0  0  0  0  0  0
   -1.5000    7.7942    0.0000 C   0  0  0  0  0  0  0  0  0  0  0  0
   -3.0000    7.7942    0.0000 C   0  0  0  0  0  0  0  0  0  0  0  0
   -3.7500    6.4952    0.0000 C   0  0  0  0  0  0  0  0  0  0  0  0
   -0.7500    1.2990    0.0000 C   0  0  0  0  0  0  0  0  0  0  0  0
    0.7500    1.2990    0.0000 C   0  0  0  0  0  0  0  0  0  0  0  0
  1  2  1  0
  2  3  2  0
  3  4  1  0
  4  5  2  0
  5  6  1  0
  6  7  1  0
  7  8  1  0
  8  9  1  0
  9 10  2  0
 10 11  1  0
 11 12  2  0
 12 13  1  0
 13 14  1  0
 13 15  2  0
 15 16  1  0
  7 17  1  0
 17 18  2  0
 17 19  1  0
 19 20  1  0
 20 21  2  0
 21 22  1  0
 22 23  2  0
 23 24  1  0
 24 25  2  0
  5 26  1  0
 26 27  2  0
 27  2  1  0
 15  9  1  0
 25 20  1  0
M  END
>  <Compound_ID>  (280) 
CHEMBL592466

>  <Active>  (280) 
1.0

>  <Smiles>  (280) 
Oc1ccc(CN(Cc2cccc(Cl)c2O)C(=S)Nc2ccccc2)cc1

>  <canonical_smi>  (280) 
Oc1ccc(CN(Cc2cccc(Cl)c2O)C(=S)Nc2ccccc2)cc1

>  <Set>  (280) 
G2 active

>  <Set_type>  (280) 
Train

>  <MW>  (280) 
398.92

>  <HBD>  (280) 
3

>  <HBA>  (280) 
5

>  <NRB>  (280) 
5

>  <NR>  (280) 
3

>  <NAR>  (280) 
3

>  <PSA>  (280) 
55.73

>  <Standard Type>  (280) 
nan

>  <Standard Relation>  (280) 
nan

>  <Standard Units>  (280) 
nan

>  <Standard Value>  (280) 
nan

>  <Assay ChEMBL ID>  (280) 
nan

>  <Assay Description>  (280) 
nan

>  <BAO Label>  (280) 
nan

$$$$

     RDKit          2D

 24 25  0  0  0  0  0  0  0  0999 V2000
    3.7500   -1.2990    0.0000 C   0  0  0  0  0  0  0  0  0  0  0  0
    3.0000    0.0000    0.0000 O   0  0  0  0  0  0  0  0  0  0  0  0
    1.5000    0.0000    0.0000 C   0  0  0  0  0  0  0  0  0  0  0  0
    0.7500   -1.2990    0.0000 C   0  0  0  0  0  0  0  0  0  0  0  0
   -0.7500   -1.2990    0.0000 C   0  0  0  0  0  0  0  0  0  0  0  0
   -1.5000    0.0000    0.0000 C   0  0  0  0  0  0  0  0  0  0  0  0
   -3.0000    0.0000    0.0000 N   0  0  0  0  0  0  0  0  0  0  0  0
   -3.7500    1.2990    0.0000 C   0  0  0  0  0  0  0  0  0  0  0  0
   -3.0000    2.5981    0.0000 O   0  0  0  0  0  0  0  0  0  0  0  0
   -5.2500    1.2990    0.0000 C   0  0  0  0  0  0  0  0  0  0  0  0
   -6.0000    2.5981    0.0000 C   0  0  0  0  0  0  0  0  0  0  0  0
   -7.5000    2.5981    0.0000 C   0  0  0  0  0  0  0  0  0  0  0  0
   -8.2500    1.2990    0.0000 C   0  0  0  0  0  0  0  0  0  0  0  0
   -9.7500    1.2990    0.0000 N   0  0  0  0  0  0  0  0  0  0  0  0
  -10.5000    2.5981    0.0000 C   0  0  0  0  0  0  0  0  0  0  0  0
  -12.0000    2.5981    0.0000 C   0  0  0  0  0  0  0  0  0  0  0  0
  -12.7500    3.8971    0.0000 Cl  0  0  0  0  0  0  0  0  0  0  0  0
  -10.5000    0.0000    0.0000 C   0  0  0  0  0  0  0  0  0  0  0  0
  -12.0000    0.0000    0.0000 C   0  0  0  0  0  0  0  0  0  0  0  0
  -12.7500   -1.2990    0.0000 Cl  0  0  0  0  0  0  0  0  0  0  0  0
   -7.5000    0.0000    0.0000 C   0  0  0  0  0  0  0  0  0  0  0  0
   -6.0000    0.0000    0.0000 C   0  0  0  0  0  0  0  0  0  0  0  0
   -0.7500    1.2990    0.0000 C   0  0  0  0  0  0  0  0  0  0  0  0
    0.7500    1.2990    0.0000 C   0  0  0  0  0  0  0  0  0  0  0  0
  1  2  1  0
  2  3  1  0
  3  4  2  0
  4  5  1  0
  5  6  2  0
  6  7  1  0
  7  8  1  0
  8  9  2  0
  8 10  1  0
 10 11  2  0
 11 12  1  0
 12 13  2  0
 13 14  1  0
 14 15  1  0
 15 16  1  0
 16 17  1  0
 14 18  1  0
 18 19  1  0
 19 20  1  0
 13 21  1  0
 21 22  2  0
  6 23  1  0
 23 24  2  0
 24  3  1  0
 22 10  1  0
M  END
>  <Compound_ID>  (281) 
CHEMBL589588

>  <Active>  (281) 
1.0

>  <Smiles>  (281) 
COc1ccc(NC(=O)c2ccc(N(CCCl)CCCl)cc2)cc1

>  <canonical_smi>  (281) 
COc1ccc(NC(=O)c2ccc(N(CCCl)CCCl)cc2)cc1

>  <Set>  (281) 
G2 active

>  <Set_type>  (281) 
Train

>  <MW>  (281) 
367.28

>  <HBD>  (281) 
1

>  <HBA>  (281) 
3

>  <NRB>  (281) 
8

>  <NR>  (281) 
2

>  <NAR>  (281) 
2

>  <PSA>  (281) 
41.57

>  <Standard Type>  (281) 
nan

>  <Standard Relation>  (281) 
nan

>  <Standard Units>  (281) 
nan

>  <Standard Value>  (281) 
nan

>  <Assay ChEMBL ID>  (281) 
nan

>  <Assay Description>  (281) 
nan

>  <BAO Label>  (281) 
nan

$$$$

     RDKit          2D

 36 39  0  0  0  0  0  0  0  0999 V2000
    6.0000   -2.5981    0.0000 C   0  0  0  0  0  0  0  0  0  0  0  0
    5.2500   -1.2990    0.0000 C   0  0  0  0  0  0  0  0  0  0  0  0
    3.7500   -1.2990    0.0000 C   0  0  0  0  0  0  0  0  0  0  0  0
    3.0000   -2.5981    0.0000 O   0  0  0  0  0  0  0  0  0  0  0  0
    3.0000    0.0000    0.0000 N   0  0  0  0  0  0  0  0  0  0  0  0
    1.5000    0.0000    0.0000 C   0  0  0  0  0  0  0  0  0  0  0  0
    0.7500   -1.2990    0.0000 C   0  0  0  0  0  0  0  0  0  0  0  0
   -0.7500   -1.2990    0.0000 C   0  0  0  0  0  0  0  0  0  0  0  0
   -1.5000   -2.5981    0.0000 C   0  0  0  0  0  0  0  0  0  0  0  0
   -0.7500   -3.8971    0.0000 N   0  0  0  0  0  0  0  0  0  0  0  0
   -1.5000   -5.1962    0.0000 C   0  0  0  0  0  0  0  0  0  0  0  0
   -3.0000   -5.1962    0.0000 C   0  0  0  0  0  0  0  0  0  0  0  0
   -3.7500   -6.4952    0.0000 C   0  0  0  0  0  0  0  0  0  0  0  0
   -3.0000   -7.7942    0.0000 C   0  0  0  0  0  0  0  0  0  0  0  0
   -3.7500   -9.0933    0.0000 F   0  0  0  0  0  0  0  0  0  0  0  0
   -1.5000   -7.7942    0.0000 C   0  0  0  0  0  0  0  0  0  0  0  0
   -0.7500   -9.0933    0.0000 Cl  0  0  0  0  0  0  0  0  0  0  0  0
   -0.7500   -6.4952    0.0000 C   0  0  0  0  0  0  0  0  0  0  0  0
   -3.0000   -2.5981    0.0000 C   0  0  0  0  0  0  0  0  0  0  0  0
   -3.7500   -3.8971    0.0000 C   0  0  0  0  0  0  0  0  0  0  0  0
   -4.5000   -5.1962    0.0000 N   0  0  0  0  0  0  0  0  0  0  0  0
   -3.7500   -1.2990    0.0000 C   0  0  0  0  0  0  0  0  0  0  0  0
   -3.0000    0.0000    0.0000 N   0  0  0  0  0  0  0  0  0  0  0  0
   -1.5000    0.0000    0.0000 C   0  0  0  0  0  0  0  0  0  0  0  0
   -0.7500    1.2990    0.0000 C   0  0  0  0  0  0  0  0  0  0  0  0
    0.7500    1.2990    0.0000 C   0  0  0  0  0  0  0  0  0  0  0  0
    1.5000    2.5981    0.0000 O   0  0  0  0  0  0  0  0  0  0  0  0
    0.7500    3.8971    0.0000 C   0  0  0  0  0  0  0  0  0  0  0  0
    1.5000    5.1962    0.0000 C   0  0  0  0  0  0  0  0  0  0  0  0
    0.7500    6.4952    0.0000 C   0  0  0  0  0  0  0  0  0  0  0  0
    1.5000    7.7942    0.0000 N   0  0  0  0  0  0  0  0  0  0  0  0
    3.0000    7.7942    0.0000 C   0  0  0  0  0  0  0  0  0  0  0  0
    3.7500    9.0933    0.0000 C   0  0  0  0  0  0  0  0  0  0  0  0
    3.0000   10.3923    0.0000 O   0  0  0  0  0  0  0  0  0  0  0  0
    1.5000   10.3923    0.0000 C   0  0  0  0  0  0  0  0  0  0  0  0
    0.7500    9.0933    0.0000 C   0  0  0  0  0  0  0  0  0  0  0  0
  1  2  2  0
  2  3  1  0
  3  4  2  0
  3  5  1  0
  5  6  1  0
  6  7  2  0
  7  8  1  0
  8  9  2  0
  9 10  1  0
 10 11  1  0
 11 12  2  0
 12 13  1  0
 13 14  2  0
 14 15  1  0
 14 16  1  0
 16 17  1  0
 16 18  2  0
  9 19  1  0
 19 20  1  0
 20 21  3  0
 19 22  2  0
 22 23  1  0
 23 24  2  0
 24 25  1  0
 25 26  2  0
 26 27  1  0
 27 28  1  0
 28 29  1  0
 29 30  1  0
 30 31  1  0
 31 32  1  0
 32 33  1  0
 33 34  1  0
 34 35  1  0
 35 36  1  0
 26  6  1  0
 36 31  1  0
 24  8  1  0
 18 11  1  0
M  END
>  <Compound_ID>  (282) 
CHEMBL95774

>  <Active>  (282) 
1.0

>  <Smiles>  (282) 
C=CC(=O)Nc1cc2c(Nc3ccc(F)c(Cl)c3)c(C#N)cnc2cc1OCCCN1CCOCC1

>  <canonical_smi>  (282) 
C=CC(=O)Nc1cc2c(Nc3ccc(F)c(Cl)c3)c(C#N)cnc2cc1OCCCN1CCOCC1

>  <Set>  (282) 
G2 active

>  <Set_type>  (282) 
Train

>  <MW>  (282) 
509.97

>  <HBD>  (282) 
2

>  <HBA>  (282) 
7

>  <NRB>  (282) 
9

>  <NR>  (282) 
4

>  <NAR>  (282) 
3

>  <PSA>  (282) 
99.51

>  <Standard Type>  (282) 
nan

>  <Standard Relation>  (282) 
nan

>  <Standard Units>  (282) 
nan

>  <Standard Value>  (282) 
nan

>  <Assay ChEMBL ID>  (282) 
nan

>  <Assay Description>  (282) 
nan

>  <BAO Label>  (282) 
nan

$$$$

     RDKit          2D

 27 29  0  0  0  0  0  0  0  0999 V2000
    3.0000   -5.1962    0.0000 C   0  0  0  0  0  0  0  0  0  0  0  0
    1.5000   -5.1962    0.0000 O   0  0  0  0  0  0  0  0  0  0  0  0
    0.7500   -3.8971    0.0000 C   0  0  0  0  0  0  0  0  0  0  0  0
    1.5000   -2.5981    0.0000 C   0  0  0  0  0  0  0  0  0  0  0  0
    0.7500   -1.2990    0.0000 C   0  0  0  0  0  0  0  0  0  0  0  0
    1.5000    0.0000    0.0000 N   0  0  0  0  0  0  0  0  0  0  0  0
    0.7500    1.2990    0.0000 C   0  0  0  0  0  0  0  0  0  0  0  0
   -0.7500    1.2990    0.0000 N   0  0  0  0  0  0  0  0  0  0  0  0
   -1.5000    0.0000    0.0000 C   0  0  0  0  0  0  0  0  0  0  0  0
   -3.0000    0.0000    0.0000 C   0  0  0  0  0  0  0  0  0  0  0  0
   -4.5000    0.0000    0.0000 C   0  0  0  0  0  0  0  0  0  0  0  0
   -6.0000    0.0000    0.0000 C   0  0  0  0  0  0  0  0  0  0  0  0
   -6.0000   -1.5000    0.0000 C   0  0  0  0  0  0  0  0  0  0  0  0
   -6.0000    1.5000    0.0000 C   0  0  0  0  0  0  0  0  0  0  0  0
   -7.5000    0.0000    0.0000 N   0  0  0  0  0  0  0  0  0  0  0  0
   -8.2500   -1.2990    0.0000 C   0  0  0  0  0  0  0  0  0  0  0  0
   -8.2500    1.2990    0.0000 C   0  0  0  0  0  0  0  0  0  0  0  0
   -7.5000    2.5981    0.0000 C   0  0  0  0  0  0  0  0  0  0  0  0
   -8.2500    3.8971    0.0000 C   0  0  0  0  0  0  0  0  0  0  0  0
   -9.7500    3.8971    0.0000 C   0  0  0  0  0  0  0  0  0  0  0  0
  -10.5000    2.5981    0.0000 C   0  0  0  0  0  0  0  0  0  0  0  0
   -9.7500    1.2990    0.0000 C   0  0  0  0  0  0  0  0  0  0  0  0
   -0.7500   -1.2990    0.0000 C   0  0  0  0  0  0  0  0  0  0  0  0
   -1.5000   -2.5981    0.0000 C   0  0  0  0  0  0  0  0  0  0  0  0
   -0.7500   -3.8971    0.0000 C   0  0  0  0  0  0  0  0  0  0  0  0
   -1.5000   -5.1962    0.0000 O   0  0  0  0  0  0  0  0  0  0  0  0
   -3.0000   -5.1962    0.0000 C   0  0  0  0  0  0  0  0  0  0  0  0
  1  2  1  0
  2  3  1  0
  3  4  2  0
  4  5  1  0
  5  6  2  0
  6  7  1  0
  7  8  2  0
  8  9  1  0
  9 10  1  0
 10 11  3  0
 11 12  1  0
 12 13  1  0
 12 14  1  0
 12 15  1  0
 15 16  1  0
 15 17  1  0
 17 18  2  0
 18 19  1  0
 19 20  2  0
 20 21  1  0
 21 22  2  0
  9 23  2  0
 23 24  1  0
 24 25  2  0
 25 26  1  0
 26 27  1  0
 25  3  1  0
 23  5  1  0
 22 17  1  0
M  END
>  <Compound_ID>  (283) 
CHEMBL250524

>  <Active>  (283) 
1.0

>  <Smiles>  (283) 
COc1cc2ncnc(C#CC(C)(C)N(C)c3ccccc3)c2cc1OC

>  <canonical_smi>  (283) 
COc1cc2ncnc(C#CC(C)(C)N(C)c3ccccc3)c2cc1OC

>  <Set>  (283) 
G2 active

>  <Set_type>  (283) 
Train

>  <MW>  (283) 
361.45

>  <HBD>  (283) 
0

>  <HBA>  (283) 
5

>  <NRB>  (283) 
4

>  <NR>  (283) 
3

>  <NAR>  (283) 
3

>  <PSA>  (283) 
47.48

>  <Standard Type>  (283) 
nan

>  <Standard Relation>  (283) 
nan

>  <Standard Units>  (283) 
nan

>  <Standard Value>  (283) 
nan

>  <Assay ChEMBL ID>  (283) 
nan

>  <Assay Description>  (283) 
nan

>  <BAO Label>  (283) 
nan

$$$$

     RDKit          2D

 43 47  0  0  0  0  0  0  0  0999 V2000
    5.2500   -1.2990    0.0000 C   0  0  0  0  0  0  0  0  0  0  0  0
    3.7500   -1.2990    0.0000 C   0  0  0  0  0  0  0  0  0  0  0  0
    3.0000    0.0000    0.0000 O   0  0  0  0  0  0  0  0  0  0  0  0
    1.5000    0.0000    0.0000 C   0  0  0  0  0  0  0  0  0  0  0  0
    0.7500   -1.2990    0.0000 C   0  0  0  0  0  0  0  0  0  0  0  0
   -0.7500   -1.2990    0.0000 C   0  0  0  0  0  0  0  0  0  0  0  0
   -1.5000   -2.5981    0.0000 N   0  0  0  0  0  0  0  0  0  0  0  0
   -3.0000   -2.5981    0.0000 C   0  0  0  0  0  0  0  0  0  0  0  0
   -3.7500   -1.2990    0.0000 C   0  0  0  0  0  0  0  0  0  0  0  0
   -5.2500   -1.2990    0.0000 C   0  0  0  0  0  0  0  0  0  0  0  0
   -6.7500   -1.2990    0.0000 N   0  0  0  0  0  0  0  0  0  0  0  0
   -3.0000    0.0000    0.0000 C   0  0  0  0  0  0  0  0  0  0  0  0
   -3.7500    1.2990    0.0000 N   0  0  0  0  0  0  0  0  0  0  0  0
   -3.0000    2.5981    0.0000 C   0  0  0  0  0  0  0  0  0  0  0  0
   -1.5000    2.5981    0.0000 C   0  0  0  0  0  0  0  0  0  0  0  0
   -0.7500    3.8971    0.0000 C   0  0  0  0  0  0  0  0  0  0  0  0
   -1.5000    5.1962    0.0000 C   0  0  0  0  0  0  0  0  0  0  0  0
   -3.0000    5.1962    0.0000 C   0  0  0  0  0  0  0  0  0  0  0  0
   -3.4635    6.6227    0.0000 C   0  0  0  0  0  0  0  0  0  0  0  0
   -2.2500    7.5044    0.0000 C   0  0  0  0  0  0  0  0  0  0  0  0
   -1.0365    6.6227    0.0000 N   0  0  0  0  0  0  0  0  0  0  0  0
    0.3901    7.0863    0.0000 S   0  0  0  0  0  0  0  0  0  0  0  0
    0.8536    5.6597    0.0000 O   0  0  0  0  0  0  0  0  0  0  0  0
   -0.0734    8.5128    0.0000 O   0  0  0  0  0  0  0  0  0  0  0  0
    1.8167    7.5498    0.0000 C   0  0  0  0  0  0  0  0  0  0  0  0
    2.9314    6.5461    0.0000 C   0  0  0  0  0  0  0  0  0  0  0  0
    4.3580    7.0096    0.0000 C   0  0  0  0  0  0  0  0  0  0  0  0
    4.6699    8.4768    0.0000 C   0  0  0  0  0  0  0  0  0  0  0  0
    3.5551    9.4805    0.0000 C   0  0  0  0  0  0  0  0  0  0  0  0
    2.1286    9.0170    0.0000 C   0  0  0  0  0  0  0  0  0  0  0  0
   -3.7500    3.8971    0.0000 C   0  0  0  0  0  0  0  0  0  0  0  0
   -1.5000    0.0000    0.0000 C   0  0  0  0  0  0  0  0  0  0  0  0
   -0.7500    1.2990    0.0000 C   0  0  0  0  0  0  0  0  0  0  0  0
    0.7500    1.2990    0.0000 C   0  0  0  0  0  0  0  0  0  0  0  0
    1.5000    2.5981    0.0000 N   0  0  0  0  0  0  0  0  0  0  0  0
    3.0000    2.5981    0.0000 C   0  0  0  0  0  0  0  0  0  0  0  0
    3.7500    1.2990    0.0000 O   0  0  0  0  0  0  0  0  0  0  0  0
    3.7500    3.8971    0.0000 C   0  0  0  0  0  0  0  0  0  0  0  0
    5.2500    3.8971    0.0000 C   0  0  0  0  0  0  0  0  0  0  0  0
    6.0000    5.1962    0.0000 C   0  0  0  0  0  0  0  0  0  0  0  0
    7.5000    5.1962    0.0000 N   0  0  0  0  0  0  0  0  0  0  0  0
    8.2500    6.4952    0.0000 C   0  0  0  0  0  0  0  0  0  0  0  0
    8.2500    3.8971    0.0000 C   0  0  0  0  0  0  0  0  0  0  0  0
  1  2  1  0
  2  3  1  0
  3  4  1  0
  4  5  2  0
  5  6  1  0
  6  7  2  0
  7  8  1  0
  8  9  2  0
  9 10  1  0
 10 11  3  0
  9 12  1  0
 12 13  1  0
 13 14  1  0
 14 15  2  0
 15 16  1  0
 16 17  2  0
 17 18  1  0
 18 19  1  0
 19 20  2  0
 20 21  1  0
 21 22  1  0
 22 23  2  0
 22 24  2  0
 22 25  1  0
 25 26  2  0
 26 27  1  0
 27 28  2  0
 28 29  1  0
 29 30  2  0
 18 31  2  0
 12 32  2  0
 32 33  1  0
 33 34  2  0
 34 35  1  0
 35 36  1  0
 36 37  2  0
 36 38  1  0
 38 39  2  0
 39 40  1  0
 40 41  1  0
 41 42  1  0
 41 43  1  0
 34  4  1  0
 32  6  1  0
 31 14  1  0
 21 17  1  0
 30 25  1  0
M  END
>  <Compound_ID>  (284) 
CHEMBL179164

>  <Active>  (284) 
1.0

>  <Smiles>  (284) 
CCOc1cc2ncc(C#N)c(Nc3ccc4c(ccn4S(=O)(=O)c4ccccc4)c3)c2cc1NC(=O)/C=C/CN(C)C

>  <canonical_smi>  (284) 
CCOc1cc2ncc(C#N)c(Nc3ccc4c(ccn4S(=O)(=O)c4ccccc4)c3)c2cc1NC(=O)/C=C/CN(C)C

>  <Set>  (284) 
G2 active

>  <Set_type>  (284) 
Train

>  <MW>  (284) 
594.7

>  <HBD>  (284) 
2

>  <HBA>  (284) 
8

>  <NRB>  (284) 
10

>  <NR>  (284) 
5

>  <NAR>  (284) 
5

>  <PSA>  (284) 
129.35

>  <Standard Type>  (284) 
nan

>  <Standard Relation>  (284) 
nan

>  <Standard Units>  (284) 
nan

>  <Standard Value>  (284) 
nan

>  <Assay ChEMBL ID>  (284) 
nan

>  <Assay Description>  (284) 
nan

>  <BAO Label>  (284) 
nan

$$$$

     RDKit          2D

 27 30  0  0  0  0  0  0  0  0999 V2000
    3.7500   -1.2990    0.0000 C   0  0  0  0  0  0  0  0  0  0  0  0
    3.0000    0.0000    0.0000 O   0  0  0  0  0  0  0  0  0  0  0  0
    1.5000    0.0000    0.0000 C   0  0  0  0  0  0  0  0  0  0  0  0
    0.7500   -1.2990    0.0000 N   0  0  0  0  0  0  0  0  0  0  0  0
   -0.7500   -1.2990    0.0000 C   0  0  0  0  0  0  0  0  0  0  0  0
   -1.5000    0.0000    0.0000 C   0  0  0  0  0  0  0  0  0  0  0  0
   -0.7500    1.2990    0.0000 C   0  0  0  0  0  0  0  0  0  0  0  0
   -1.5000    2.5981    0.0000 C   0  0  0  0  0  0  0  0  0  0  0  0
   -2.9918    2.7549    0.0000 C   0  0  0  0  0  0  0  0  0  0  0  0
   -3.9955    1.6402    0.0000 C   0  0  0  0  0  0  0  0  0  0  0  0
   -5.4627    1.9520    0.0000 C   0  0  0  0  0  0  0  0  0  0  0  0
   -6.4664    0.8373    0.0000 C   0  0  0  0  0  0  0  0  0  0  0  0
   -6.0029   -0.5893    0.0000 C   0  0  0  0  0  0  0  0  0  0  0  0
   -7.0066   -1.7040    0.0000 F   0  0  0  0  0  0  0  0  0  0  0  0
   -4.5356   -0.9012    0.0000 C   0  0  0  0  0  0  0  0  0  0  0  0
   -3.5320    0.2136    0.0000 C   0  0  0  0  0  0  0  0  0  0  0  0
   -3.3037    4.2221    0.0000 N   0  0  0  0  0  0  0  0  0  0  0  0
   -2.0046    4.9721    0.0000 C   0  0  0  0  0  0  0  0  0  0  0  0
   -0.8899    3.9684    0.0000 N   0  0  0  0  0  0  0  0  0  0  0  0
    0.5773    4.2803    0.0000 C   0  0  0  0  0  0  0  0  0  0  0  0
    1.5810    3.1655    0.0000 C   0  0  0  0  0  0  0  0  0  0  0  0
    3.0482    3.4774    0.0000 C   0  0  0  0  0  0  0  0  0  0  0  0
    3.5118    4.9040    0.0000 C   0  0  0  0  0  0  0  0  0  0  0  0
    4.9790    5.2159    0.0000 O   0  0  0  0  0  0  0  0  0  0  0  0
    2.5081    6.0187    0.0000 C   0  0  0  0  0  0  0  0  0  0  0  0
    1.0409    5.7068    0.0000 C   0  0  0  0  0  0  0  0  0  0  0  0
    0.7500    1.2990    0.0000 N   0  0  0  0  0  0  0  0  0  0  0  0
  1  2  1  0
  2  3  1  0
  3  4  2  0
  4  5  1  0
  5  6  2  0
  6  7  1  0
  7  8  1  0
  8  9  2  0
  9 10  1  0
 10 11  2  0
 11 12  1  0
 12 13  2  0
 13 14  1  0
 13 15  1  0
 15 16  2  0
  9 17  1  0
 17 18  2  0
 18 19  1  0
 19 20  1  0
 20 21  1  0
 21 22  1  0
 22 23  1  0
 23 24  1  0
 23 25  1  0
 25 26  1  0
  7 27  2  0
 27  3  1  0
 19  8  1  0
 26 20  1  0
 16 10  1  0
M  END
>  <Compound_ID>  (285) 
CHEMBL97162

>  <Active>  (285) 
1.0

>  <Smiles>  (285) 
COc1nccc(-c2c(-c3ccc(F)cc3)ncn2C2CCC(O)CC2)n1

>  <canonical_smi>  (285) 
COc1nccc(-c2c(-c3ccc(F)cc3)ncn2C2CCC(O)CC2)n1

>  <Set>  (285) 
G2 active

>  <Set_type>  (285) 
Train

>  <MW>  (285) 
368.41

>  <HBD>  (285) 
1

>  <HBA>  (285) 
5

>  <NRB>  (285) 
4

>  <NR>  (285) 
4

>  <NAR>  (285) 
3

>  <PSA>  (285) 
73.06

>  <Standard Type>  (285) 
nan

>  <Standard Relation>  (285) 
nan

>  <Standard Units>  (285) 
nan

>  <Standard Value>  (285) 
nan

>  <Assay ChEMBL ID>  (285) 
nan

>  <Assay Description>  (285) 
nan

>  <BAO Label>  (285) 
nan

$$$$

     RDKit          2D

 34 38  0  0  0  0  0  0  0  0999 V2000
   12.7500   -1.2990    0.0000 C   0  0  0  0  0  0  0  0  0  0  0  0
   12.0000   -2.5981    0.0000 C   0  0  0  0  0  0  0  0  0  0  0  0
   12.7500   -3.8971    0.0000 C   0  0  0  0  0  0  0  0  0  0  0  0
   12.0000   -5.1962    0.0000 N   0  0  0  0  0  0  0  0  0  0  0  0
   10.5000   -5.1962    0.0000 C   0  0  0  0  0  0  0  0  0  0  0  0
    9.7500   -3.8971    0.0000 C   0  0  0  0  0  0  0  0  0  0  0  0
    8.2500   -3.8971    0.0000 C   0  0  0  0  0  0  0  0  0  0  0  0
    7.5000   -2.5981    0.0000 O   0  0  0  0  0  0  0  0  0  0  0  0
    6.0000   -2.5981    0.0000 C   0  0  0  0  0  0  0  0  0  0  0  0
    5.2500   -1.2990    0.0000 C   0  0  0  0  0  0  0  0  0  0  0  0
    3.7500   -1.2990    0.0000 C   0  0  0  0  0  0  0  0  0  0  0  0
    3.0000   -2.5981    0.0000 C   0  0  0  0  0  0  0  0  0  0  0  0
    1.5000   -2.5981    0.0000 N   0  0  0  0  0  0  0  0  0  0  0  0
    0.7500   -1.2990    0.0000 C   0  0  0  0  0  0  0  0  0  0  0  0
    1.5000    0.0000    0.0000 N   0  0  0  0  0  0  0  0  0  0  0  0
    0.7500    1.2990    0.0000 C   0  0  0  0  0  0  0  0  0  0  0  0
   -0.7500    1.2990    0.0000 N   0  0  0  0  0  0  0  0  0  0  0  0
   -1.5000    0.0000    0.0000 N   0  0  0  0  0  0  0  0  0  0  0  0
   -2.9672   -0.3119    0.0000 C   0  0  0  0  0  0  0  0  0  0  0  0
   -3.1240   -1.8037    0.0000 C   0  0  0  0  0  0  0  0  0  0  0  0
   -1.7537   -2.4138    0.0000 C   0  0  0  0  0  0  0  0  0  0  0  0
   -1.4418   -3.8810    0.0000 C   0  0  0  0  0  0  0  0  0  0  0  0
   -2.5565   -4.8847    0.0000 N   0  0  0  0  0  0  0  0  0  0  0  0
   -3.9831   -4.4211    0.0000 C   0  0  0  0  0  0  0  0  0  0  0  0
   -5.0978   -5.4248    0.0000 C   0  0  0  0  0  0  0  0  0  0  0  0
   -4.7860   -6.8921    0.0000 C   0  0  0  0  0  0  0  0  0  0  0  0
   -5.9007   -7.8958    0.0000 N   0  0  0  0  0  0  0  0  0  0  0  0
   -3.3594   -7.3556    0.0000 C   0  0  0  0  0  0  0  0  0  0  0  0
   -2.2447   -6.3519    0.0000 C   0  0  0  0  0  0  0  0  0  0  0  0
   -0.7500   -1.2990    0.0000 C   0  0  0  0  0  0  0  0  0  0  0  0
    3.7500   -3.8971    0.0000 C   0  0  0  0  0  0  0  0  0  0  0  0
    5.2500   -3.8971    0.0000 C   0  0  0  0  0  0  0  0  0  0  0  0
    6.0000   -5.1962    0.0000 Cl  0  0  0  0  0  0  0  0  0  0  0  0
   10.5000   -2.5981    0.0000 C   0  0  0  0  0  0  0  0  0  0  0  0
  1  2  1  0
  2  3  2  0
  3  4  1  0
  4  5  2  0
  5  6  1  0
  6  7  1  0
  7  8  1  0
  8  9  1  0
  9 10  2  0
 10 11  1  0
 11 12  2  0
 12 13  1  0
 13 14  1  0
 14 15  2  0
 15 16  1  0
 16 17  2  0
 17 18  1  0
 18 19  1  0
 19 20  2  0
 20 21  1  0
 21 22  1  0
 22 23  1  0
 23 24  1  0
 24 25  1  0
 25 26  1  0
 26 27  1  0
 26 28  1  0
 28 29  1  0
 21 30  2  0
 12 31  1  0
 31 32  2  0
 32 33  1  0
  6 34  2  0
 34  2  1  0
 32  9  1  0
 30 14  1  0
 30 18  1  0
 29 23  1  0
M  END
>  <Compound_ID>  (286) 
CHEMBL248115

>  <Active>  (286) 
1.0

>  <Smiles>  (286) 
Cc1cncc(COc2ccc(Nc3ncnn4ccc(CN5CCC(N)CC5)c34)cc2Cl)c1

>  <canonical_smi>  (286) 
Cc1cncc(COc2ccc(Nc3ncnn4ccc(CN5CCC(N)CC5)c34)cc2Cl)c1

>  <Set>  (286) 
G2 active

>  <Set_type>  (286) 
Train

>  <MW>  (286) 
478.0

>  <HBD>  (286) 
2

>  <HBA>  (286) 
7

>  <NRB>  (286) 
7

>  <NR>  (286) 
5

>  <NAR>  (286) 
4

>  <PSA>  (286) 
93.6

>  <Standard Type>  (286) 
nan

>  <Standard Relation>  (286) 
nan

>  <Standard Units>  (286) 
nan

>  <Standard Value>  (286) 
nan

>  <Assay ChEMBL ID>  (286) 
nan

>  <Assay Description>  (286) 
nan

>  <BAO Label>  (286) 
nan

$$$$

     RDKit          2D

 28 31  0  0  0  0  0  0  0  0999 V2000
    7.5000   -2.5981    0.0000 F   0  0  0  0  0  0  0  0  0  0  0  0
    6.0000   -2.5981    0.0000 C   0  0  0  0  0  0  0  0  0  0  0  0
    5.2500   -3.8971    0.0000 C   0  0  0  0  0  0  0  0  0  0  0  0
    3.7500   -3.8971    0.0000 C   0  0  0  0  0  0  0  0  0  0  0  0
    3.0000   -2.5981    0.0000 C   0  0  0  0  0  0  0  0  0  0  0  0
    1.5000   -2.5981    0.0000 N   0  0  0  0  0  0  0  0  0  0  0  0
    0.7500   -1.2990    0.0000 C   0  0  0  0  0  0  0  0  0  0  0  0
    1.5000    0.0000    0.0000 N   0  0  0  0  0  0  0  0  0  0  0  0
    0.7500    1.2990    0.0000 C   0  0  0  0  0  0  0  0  0  0  0  0
   -0.7500    1.2990    0.0000 N   0  0  0  0  0  0  0  0  0  0  0  0
   -1.5000    0.0000    0.0000 C   0  0  0  0  0  0  0  0  0  0  0  0
   -3.0000    0.0000    0.0000 C   0  0  0  0  0  0  0  0  0  0  0  0
   -3.7500   -1.2990    0.0000 C   0  0  0  0  0  0  0  0  0  0  0  0
   -3.0000   -2.5981    0.0000 C   0  0  0  0  0  0  0  0  0  0  0  0
   -3.7500   -3.8971    0.0000 C   0  0  0  0  0  0  0  0  0  0  0  0
   -4.5000   -5.1962    0.0000 C   0  0  0  0  0  0  0  0  0  0  0  0
   -5.2500   -6.4952    0.0000 C   0  0  0  0  0  0  0  0  0  0  0  0
   -6.7500   -6.4952    0.0000 N   0  0  0  0  0  0  0  0  0  0  0  0
   -7.5000   -5.1962    0.0000 C   0  0  0  0  0  0  0  0  0  0  0  0
   -9.0000   -5.1962    0.0000 C   0  0  0  0  0  0  0  0  0  0  0  0
   -9.7500   -6.4952    0.0000 C   0  0  0  0  0  0  0  0  0  0  0  0
   -9.0000   -7.7942    0.0000 C   0  0  0  0  0  0  0  0  0  0  0  0
   -7.5000   -7.7942    0.0000 C   0  0  0  0  0  0  0  0  0  0  0  0
   -1.5000   -2.5981    0.0000 C   0  0  0  0  0  0  0  0  0  0  0  0
   -0.7500   -1.2990    0.0000 C   0  0  0  0  0  0  0  0  0  0  0  0
    3.7500   -1.2990    0.0000 C   0  0  0  0  0  0  0  0  0  0  0  0
    5.2500   -1.2990    0.0000 C   0  0  0  0  0  0  0  0  0  0  0  0
    6.0000   -0.0000    0.0000 Cl  0  0  0  0  0  0  0  0  0  0  0  0
  1  2  1  0
  2  3  2  0
  3  4  1  0
  4  5  2  0
  5  6  1  0
  6  7  1  0
  7  8  2  0
  8  9  1  0
  9 10  2  0
 10 11  1  0
 11 12  2  0
 12 13  1  0
 13 14  2  0
 14 15  1  0
 15 16  3  0
 16 17  1  0
 17 18  1  0
 18 19  1  0
 19 20  1  0
 20 21  1  0
 21 22  1  0
 22 23  1  0
 14 24  1  0
 24 25  2  0
  5 26  1  0
 26 27  2  0
 27 28  1  0
 27  2  1  0
 25  7  1  0
 25 11  1  0
 23 18  1  0
M  END
>  <Compound_ID>  (287) 
CHEMBL251700

>  <Active>  (287) 
1.0

>  <Smiles>  (287) 
Fc1ccc(Nc2ncnc3ccc(C#CCN4CCCCC4)cc23)cc1Cl

>  <canonical_smi>  (287) 
Fc1ccc(Nc2ncnc3ccc(C#CCN4CCCCC4)cc23)cc1Cl

>  <Set>  (287) 
G2 active

>  <Set_type>  (287) 
Train

>  <MW>  (287) 
394.88

>  <HBD>  (287) 
1

>  <HBA>  (287) 
4

>  <NRB>  (287) 
3

>  <NR>  (287) 
4

>  <NAR>  (287) 
3

>  <PSA>  (287) 
41.05

>  <Standard Type>  (287) 
nan

>  <Standard Relation>  (287) 
nan

>  <Standard Units>  (287) 
nan

>  <Standard Value>  (287) 
nan

>  <Assay ChEMBL ID>  (287) 
nan

>  <Assay Description>  (287) 
nan

>  <BAO Label>  (287) 
nan

$$$$

     RDKit          2D

 30 33  0  0  0  0  0  0  0  0999 V2000
   -3.7500   -3.8971    0.0000 O   0  0  0  0  0  0  0  0  0  0  0  0
   -3.0000   -5.1962    0.0000 C   0  0  0  0  0  0  0  0  0  0  0  0
   -1.5000   -5.1962    0.0000 O   0  0  0  0  0  0  0  0  0  0  0  0
   -0.7500   -3.8971    0.0000 C   0  0  0  0  0  0  0  0  0  0  0  0
    0.7500   -3.8971    0.0000 C   0  0  0  0  0  0  0  0  0  0  0  0
    1.5000   -2.5981    0.0000 C   0  0  0  0  0  0  0  0  0  0  0  0
    0.7500   -1.2990    0.0000 C   0  0  0  0  0  0  0  0  0  0  0  0
    1.5000    0.0000    0.0000 C   0  0  0  0  0  0  0  0  0  0  0  0
    0.7500    1.2990    0.0000 C   0  0  0  0  0  0  0  0  0  0  0  0
   -0.7500    1.2990    0.0000 C   0  0  0  0  0  0  0  0  0  0  0  0
   -1.5000    0.0000    0.0000 C   0  0  0  0  0  0  0  0  0  0  0  0
   -0.7500   -1.2990    0.0000 C   0  0  0  0  0  0  0  0  0  0  0  0
   -1.5000   -2.5981    0.0000 C   0  0  0  0  0  0  0  0  0  0  0  0
   -3.7500   -6.4952    0.0000 C   0  0  0  0  0  0  0  0  0  0  0  0
   -5.2500   -6.4952    0.0000 C   0  0  0  0  0  0  0  0  0  0  0  0
   -6.0000   -7.7942    0.0000 C   0  0  0  0  0  0  0  0  0  0  0  0
   -7.5000   -7.7942    0.0000 N   0  0  0  0  0  0  0  0  0  0  0  0
   -8.2500   -6.4952    0.0000 C   0  0  0  0  0  0  0  0  0  0  0  0
   -9.7500   -6.4952    0.0000 C   0  0  0  0  0  0  0  0  0  0  0  0
  -10.5000   -5.1962    0.0000 C   0  0  0  0  0  0  0  0  0  0  0  0
  -12.0000   -5.1962    0.0000 C   0  0  0  0  0  0  0  0  0  0  0  0
  -12.7500   -3.8971    0.0000 O   0  0  0  0  0  0  0  0  0  0  0  0
  -12.7500   -6.4952    0.0000 C   0  0  0  0  0  0  0  0  0  0  0  0
  -12.0000   -7.7942    0.0000 C   0  0  0  0  0  0  0  0  0  0  0  0
  -10.5000   -7.7942    0.0000 C   0  0  0  0  0  0  0  0  0  0  0  0
   -9.7500   -9.0933    0.0000 O   0  0  0  0  0  0  0  0  0  0  0  0
   -5.2500   -9.0933    0.0000 C   0  0  0  0  0  0  0  0  0  0  0  0
   -3.7500   -9.0933    0.0000 C   0  0  0  0  0  0  0  0  0  0  0  0
   -3.0000   -7.7942    0.0000 C   0  0  0  0  0  0  0  0  0  0  0  0
   -1.5000   -7.7942    0.0000 O   0  0  0  0  0  0  0  0  0  0  0  0
  1  2  2  0
  2  3  1  0
  3  4  1  0
  4  5  2  0
  5  6  1  0
  6  7  2  0
  7  8  1  0
  8  9  2  0
  9 10  1  0
 10 11  2  0
 11 12  1  0
 12 13  2  0
  2 14  1  0
 14 15  2  0
 15 16  1  0
 16 17  1  0
 17 18  1  0
 18 19  1  0
 19 20  2  0
 20 21  1  0
 21 22  1  0
 21 23  2  0
 23 24  1  0
 24 25  2  0
 25 26  1  0
 16 27  2  0
 27 28  1  0
 28 29  2  0
 29 30  1  0
 13  4  1  0
 29 14  1  0
 12  7  1  0
 25 19  1  0
M  END
>  <Compound_ID>  (288) 
CHEMBL169514

>  <Active>  (288) 
1.0

>  <Smiles>  (288) 
O=C(Oc1ccc2ccccc2c1)c1cc(NCc2cc(O)ccc2O)ccc1O

>  <canonical_smi>  (288) 
O=C(Oc1ccc2ccccc2c1)c1cc(NCc2cc(O)ccc2O)ccc1O

>  <Set>  (288) 
G2 active

>  <Set_type>  (288) 
Train

>  <MW>  (288) 
401.42

>  <HBD>  (288) 
4

>  <HBA>  (288) 
6

>  <NRB>  (288) 
5

>  <NR>  (288) 
4

>  <NAR>  (288) 
4

>  <PSA>  (288) 
99.02

>  <Standard Type>  (288) 
nan

>  <Standard Relation>  (288) 
nan

>  <Standard Units>  (288) 
nan

>  <Standard Value>  (288) 
nan

>  <Assay ChEMBL ID>  (288) 
nan

>  <Assay Description>  (288) 
nan

>  <BAO Label>  (288) 
nan

$$$$

     RDKit          2D

 34 39  0  0  0  0  0  0  0  0999 V2000
   -1.0344   -8.1310    0.0000 F   0  0  0  0  0  0  0  0  0  0  0  0
   -2.1491   -7.1273    0.0000 C   0  0  0  0  0  0  0  0  0  0  0  0
   -3.5757   -7.5908    0.0000 C   0  0  0  0  0  0  0  0  0  0  0  0
   -4.6904   -6.5871    0.0000 C   0  0  0  0  0  0  0  0  0  0  0  0
   -4.3786   -5.1199    0.0000 C   0  0  0  0  0  0  0  0  0  0  0  0
   -2.9520   -4.6564    0.0000 C   0  0  0  0  0  0  0  0  0  0  0  0
   -2.6401   -3.1891    0.0000 C   0  0  0  0  0  0  0  0  0  0  0  0
   -1.2135   -2.7256    0.0000 N   0  0  0  0  0  0  0  0  0  0  0  0
   -0.0000   -3.6073    0.0000 N   0  0  0  0  0  0  0  0  0  0  0  0
    1.2135   -2.7256    0.0000 C   0  0  0  0  0  0  0  0  0  0  0  0
    0.7500   -1.2990    0.0000 C   0  0  0  0  0  0  0  0  0  0  0  0
    1.5000    0.0000    0.0000 C   0  0  0  0  0  0  0  0  0  0  0  0
    0.7500    1.2990    0.0000 C   0  0  0  0  0  0  0  0  0  0  0  0
    1.5000    2.5981    0.0000 N   0  0  0  0  0  0  0  0  0  0  0  0
    3.0000    2.5981    0.0000 C   0  0  0  0  0  0  0  0  0  0  0  0
    3.7500    1.2990    0.0000 N   0  0  0  0  0  0  0  0  0  0  0  0
    5.2500    1.2990    0.0000 C   0  0  0  0  0  0  0  0  0  0  0  0
    6.0000    2.5981    0.0000 N   0  0  0  0  0  0  0  0  0  0  0  0
    5.2500    3.8971    0.0000 N   0  0  0  0  0  0  0  0  0  0  0  0
    5.7135    5.3237    0.0000 C   0  0  0  0  0  0  0  0  0  0  0  0
    4.5000    6.2054    0.0000 C   0  0  0  0  0  0  0  0  0  0  0  0
    3.2865    5.3237    0.0000 C   0  0  0  0  0  0  0  0  0  0  0  0
    1.8599    5.7872    0.0000 C   0  0  0  0  0  0  0  0  0  0  0  0
    1.5480    7.2544    0.0000 N   0  0  0  0  0  0  0  0  0  0  0  0
    2.6627    8.2581    0.0000 C   0  0  0  0  0  0  0  0  0  0  0  0
    2.3509    9.7254    0.0000 C   0  0  0  0  0  0  0  0  0  0  0  0
    0.9243   10.1889    0.0000 N   0  0  0  0  0  0  0  0  0  0  0  0
   -0.1904    9.1852    0.0000 C   0  0  0  0  0  0  0  0  0  0  0  0
    0.1214    7.7180    0.0000 C   0  0  0  0  0  0  0  0  0  0  0  0
    3.7500    3.8971    0.0000 C   0  0  0  0  0  0  0  0  0  0  0  0
   -0.7500    1.2990    0.0000 C   0  0  0  0  0  0  0  0  0  0  0  0
   -1.5000    0.0000    0.0000 C   0  0  0  0  0  0  0  0  0  0  0  0
   -0.7500   -1.2990    0.0000 C   0  0  0  0  0  0  0  0  0  0  0  0
   -1.8373   -5.6601    0.0000 C   0  0  0  0  0  0  0  0  0  0  0  0
  1  2  1  0
  2  3  2  0
  3  4  1  0
  4  5  2  0
  5  6  1  0
  6  7  1  0
  7  8  1  0
  8  9  1  0
  9 10  2  0
 10 11  1  0
 11 12  2  0
 12 13  1  0
 13 14  1  0
 14 15  1  0
 15 16  2  0
 16 17  1  0
 17 18  2  0
 18 19  1  0
 19 20  1  0
 20 21  2  0
 21 22  1  0
 22 23  1  0
 23 24  1  0
 24 25  1  0
 25 26  1  0
 26 27  1  0
 27 28  1  0
 28 29  1  0
 22 30  2  0
 13 31  2  0
 31 32  1  0
 32 33  2  0
  6 34  2  0
 34  2  1  0
 33  8  1  0
 33 11  1  0
 30 15  1  0
 30 19  1  0
 29 24  1  0
M  END
>  <Compound_ID>  (289) 
CHEMBL231875

>  <Active>  (289) 
1.0

>  <Smiles>  (289) 
Fc1cccc(Cn2ncc3cc(Nc4ncnn5ccc(CN6CCNCC6)c45)ccc32)c1

>  <canonical_smi>  (289) 
Fc1cccc(Cn2ncc3cc(Nc4ncnn5ccc(CN6CCNCC6)c45)ccc32)c1

>  <Set>  (289) 
G2 active

>  <Set_type>  (289) 
Train

>  <MW>  (289) 
456.53

>  <HBD>  (289) 
2

>  <HBA>  (289) 
6

>  <NRB>  (289) 
6

>  <NR>  (289) 
6

>  <NAR>  (289) 
5

>  <PSA>  (289) 
75.31

>  <Standard Type>  (289) 
nan

>  <Standard Relation>  (289) 
nan

>  <Standard Units>  (289) 
nan

>  <Standard Value>  (289) 
nan

>  <Assay ChEMBL ID>  (289) 
nan

>  <Assay Description>  (289) 
nan

>  <BAO Label>  (289) 
nan

$$$$

     RDKit          2D

 39 42  0  0  0  0  0  0  0  0999 V2000
    3.7500   -6.4952    0.0000 C   0  0  0  0  0  0  0  0  0  0  0  0
    3.0000   -5.1962    0.0000 C   0  0  0  0  0  0  0  0  0  0  0  0
    1.5000   -5.1962    0.0000 O   0  0  0  0  0  0  0  0  0  0  0  0
    0.7500   -3.8971    0.0000 C   0  0  0  0  0  0  0  0  0  0  0  0
    1.5000   -2.5981    0.0000 C   0  0  0  0  0  0  0  0  0  0  0  0
    0.7500   -1.2990    0.0000 C   0  0  0  0  0  0  0  0  0  0  0  0
    1.5000    0.0000    0.0000 N   0  0  0  0  0  0  0  0  0  0  0  0
    0.7500    1.2990    0.0000 C   0  0  0  0  0  0  0  0  0  0  0  0
   -0.7500    1.2990    0.0000 N   0  0  0  0  0  0  0  0  0  0  0  0
   -1.5000    0.0000    0.0000 C   0  0  0  0  0  0  0  0  0  0  0  0
   -3.0000    0.0000    0.0000 N   0  0  0  0  0  0  0  0  0  0  0  0
   -3.7500    1.2990    0.0000 C   0  0  0  0  0  0  0  0  0  0  0  0
   -3.0000    2.5981    0.0000 C   0  0  0  0  0  0  0  0  0  0  0  0
   -3.7500    3.8971    0.0000 C   0  0  0  0  0  0  0  0  0  0  0  0
   -3.0000    5.1962    0.0000 O   0  0  0  0  0  0  0  0  0  0  0  0
   -5.2500    3.8971    0.0000 C   0  0  0  0  0  0  0  0  0  0  0  0
   -6.0000    5.1962    0.0000 O   0  0  0  0  0  0  0  0  0  0  0  0
   -7.5000    5.1962    0.0000 C   0  0  0  0  0  0  0  0  0  0  0  0
   -8.2500    6.4952    0.0000 C   0  0  0  0  0  0  0  0  0  0  0  0
   -7.5000    7.7942    0.0000 C   0  0  0  0  0  0  0  0  0  0  0  0
   -8.2500    9.0933    0.0000 C   0  0  0  0  0  0  0  0  0  0  0  0
   -9.7500    9.0933    0.0000 C   0  0  0  0  0  0  0  0  0  0  0  0
  -10.5000    7.7942    0.0000 C   0  0  0  0  0  0  0  0  0  0  0  0
   -9.7500    6.4952    0.0000 N   0  0  0  0  0  0  0  0  0  0  0  0
   -6.0000    2.5981    0.0000 C   0  0  0  0  0  0  0  0  0  0  0  0
   -5.2500    1.2990    0.0000 C   0  0  0  0  0  0  0  0  0  0  0  0
   -6.0000    0.0000    0.0000 O   0  0  0  0  0  0  0  0  0  0  0  0
   -0.7500   -1.2990    0.0000 C   0  0  0  0  0  0  0  0  0  0  0  0
   -1.5000   -2.5981    0.0000 C   0  0  0  0  0  0  0  0  0  0  0  0
   -0.7500   -3.8971    0.0000 C   0  0  0  0  0  0  0  0  0  0  0  0
   -1.5000   -5.1962    0.0000 N   0  0  0  0  0  0  0  0  0  0  0  0
   -3.0000   -5.1962    0.0000 C   0  0  0  0  0  0  0  0  0  0  0  0
   -3.7500   -3.8971    0.0000 O   0  0  0  0  0  0  0  0  0  0  0  0
   -3.7500   -6.4952    0.0000 C   0  0  0  0  0  0  0  0  0  0  0  0
   -5.2500   -6.4952    0.0000 C   0  0  0  0  0  0  0  0  0  0  0  0
   -6.0000   -7.7942    0.0000 C   0  0  0  0  0  0  0  0  0  0  0  0
   -7.5000   -7.7942    0.0000 N   0  0  0  0  0  0  0  0  0  0  0  0
   -8.2500   -9.0933    0.0000 C   0  0  0  0  0  0  0  0  0  0  0  0
   -8.2500   -6.4952    0.0000 C   0  0  0  0  0  0  0  0  0  0  0  0
  1  2  1  0
  2  3  1  0
  3  4  1  0
  4  5  2  0
  5  6  1  0
  6  7  2  0
  7  8  1  0
  8  9  2  0
  9 10  1  0
 10 11  1  0
 11 12  1  0
 12 13  2  0
 13 14  1  0
 14 15  2  0
 14 16  1  0
 16 17  1  0
 17 18  1  0
 18 19  1  0
 19 20  2  0
 20 21  1  0
 21 22  2  0
 22 23  1  0
 23 24  2  0
 16 25  2  0
 25 26  1  0
 26 27  2  0
 10 28  2  0
 28 29  1  0
 29 30  2  0
 30 31  1  0
 31 32  1  0
 32 33  2  0
 32 34  1  0
 34 35  2  0
 35 36  1  0
 36 37  1  0
 37 38  1  0
 37 39  1  0
 30  4  1  0
 28  6  1  0
 26 12  1  0
 24 19  1  0
M  END
>  <Compound_ID>  (290) 
CHEMBL398154

>  <Active>  (290) 
1.0

>  <Smiles>  (290) 
CCOc1cc2ncnc(NC3=CC(=O)C(OCc4ccccn4)=CC3=O)c2cc1NC(=O)/C=C/CN(C)C

>  <canonical_smi>  (290) 
CCOc1cc2ncnc(NC3=CC(=O)C(OCc4ccccn4)=CC3=O)c2cc1NC(=O)/C=C/CN(C)C

>  <Set>  (290) 
G2 active

>  <Set_type>  (290) 
Train

>  <MW>  (290) 
528.57

>  <HBD>  (290) 
2

>  <HBA>  (290) 
10

>  <NRB>  (290) 
11

>  <NR>  (290) 
4

>  <NAR>  (290) 
3

>  <PSA>  (290) 
135.64

>  <Standard Type>  (290) 
nan

>  <Standard Relation>  (290) 
nan

>  <Standard Units>  (290) 
nan

>  <Standard Value>  (290) 
nan

>  <Assay ChEMBL ID>  (290) 
nan

>  <Assay Description>  (290) 
nan

>  <BAO Label>  (290) 
nan

$$$$

     RDKit          2D

 44 51  0  0  0  0  0  0  0  0999 V2000
    0.0000   -9.6073    0.0000 C   0  0  0  0  0  0  0  0  0  0  0  0
    0.0000   -8.1073    0.0000 O   0  0  0  0  0  0  0  0  0  0  0  0
   -1.2990   -7.3573    0.0000 C   0  0  0  0  0  0  0  0  0  0  0  0
   -2.5981   -8.1073    0.0000 C   0  0  0  0  0  0  0  0  0  0  0  0
   -3.8971   -7.3573    0.0000 C   0  0  0  0  0  0  0  0  0  0  0  0
   -3.8971   -5.8573    0.0000 C   0  0  0  0  0  0  0  0  0  0  0  0
   -2.5981   -5.1073    0.0000 C   0  0  0  0  0  0  0  0  0  0  0  0
   -1.2990   -5.8573    0.0000 C   0  0  0  0  0  0  0  0  0  0  0  0
   -0.0000   -5.1073    0.0000 C   0  0  0  0  0  0  0  0  0  0  0  0
   -0.0000   -3.6073    0.0000 C   0  0  0  0  0  0  0  0  0  0  0  0
    1.2135   -2.7256    0.0000 N   0  0  0  0  0  0  0  0  0  0  0  0
    0.7500   -1.2990    0.0000 C   0  0  0  0  0  0  0  0  0  0  0  0
    1.5000    0.0000    0.0000 C   0  0  0  0  0  0  0  0  0  0  0  0
    0.7500    1.2990    0.0000 C   0  0  0  0  0  0  0  0  0  0  0  0
   -0.7500    1.2990    0.0000 C   0  0  0  0  0  0  0  0  0  0  0  0
   -1.5000    2.5981    0.0000 C   0  0  0  0  0  0  0  0  0  0  0  0
   -2.9918    2.7549    0.0000 N   0  0  0  0  0  0  0  0  0  0  0  0
   -3.3037    4.2221    0.0000 N   0  0  0  0  0  0  0  0  0  0  0  0
   -4.6740    4.8322    0.0000 C   0  0  0  0  0  0  0  0  0  0  0  0
   -4.8308    6.3240    0.0000 C   0  0  0  0  0  0  0  0  0  0  0  0
   -6.2011    6.9341    0.0000 C   0  0  0  0  0  0  0  0  0  0  0  0
   -7.4146    6.0524    0.0000 C   0  0  0  0  0  0  0  0  0  0  0  0
   -8.7849    6.6625    0.0000 N   0  0  0  0  0  0  0  0  0  0  0  0
   -8.9417    8.1543    0.0000 C   0  0  0  0  0  0  0  0  0  0  0  0
  -10.3120    8.7644    0.0000 C   0  0  0  0  0  0  0  0  0  0  0  0
  -11.5256    7.8827    0.0000 N   0  0  0  0  0  0  0  0  0  0  0  0
  -12.8959    8.4928    0.0000 C   0  0  0  0  0  0  0  0  0  0  0  0
  -13.0527    9.9846    0.0000 C   0  0  0  0  0  0  0  0  0  0  0  0
  -13.9343   11.1981    0.0000 C   0  0  0  0  0  0  0  0  0  0  0  0
  -12.4426   11.3549    0.0000 C   0  0  0  0  0  0  0  0  0  0  0  0
  -11.3688    6.3909    0.0000 C   0  0  0  0  0  0  0  0  0  0  0  0
   -9.9984    5.7808    0.0000 C   0  0  0  0  0  0  0  0  0  0  0  0
   -7.2578    4.5606    0.0000 C   0  0  0  0  0  0  0  0  0  0  0  0
   -5.8875    3.9505    0.0000 C   0  0  0  0  0  0  0  0  0  0  0  0
   -2.0046    4.9721    0.0000 C   0  0  0  0  0  0  0  0  0  0  0  0
   -1.6927    6.4393    0.0000 N   0  0  0  0  0  0  0  0  0  0  0  0
   -0.2662    6.9028    0.0000 C   0  0  0  0  0  0  0  0  0  0  0  0
    0.8486    5.8991    0.0000 N   0  0  0  0  0  0  0  0  0  0  0  0
    0.5367    4.4319    0.0000 C   0  0  0  0  0  0  0  0  0  0  0  0
    1.6514    3.4282    0.0000 N   0  0  0  0  0  0  0  0  0  0  0  0
   -0.8899    3.9684    0.0000 C   0  0  0  0  0  0  0  0  0  0  0  0
   -1.5000    0.0000    0.0000 C   0  0  0  0  0  0  0  0  0  0  0  0
   -0.7500   -1.2990    0.0000 C   0  0  0  0  0  0  0  0  0  0  0  0
   -1.2135   -2.7256    0.0000 N   0  0  0  0  0  0  0  0  0  0  0  0
  1  2  1  0
  2  3  1  0
  3  4  2  0
  4  5  1  0
  5  6  2  0
  6  7  1  0
  7  8  2  0
  8  9  1  0
  9 10  1  0
 10 11  2  0
 11 12  1  0
 12 13  2  0
 13 14  1  0
 14 15  2  0
 15 16  1  0
 16 17  2  0
 17 18  1  0
 18 19  1  0
 19 20  1  0
 20 21  1  0
 21 22  1  0
 22 23  1  0
 23 24  1  0
 24 25  1  0
 25 26  1  0
 26 27  1  0
 27 28  1  0
 28 29  1  0
 29 30  1  0
 26 31  1  0
 31 32  1  0
 22 33  1  0
 33 34  1  0
 18 35  1  0
 35 36  2  0
 36 37  1  0
 37 38  2  0
 38 39  1  0
 39 40  1  0
 39 41  2  0
 15 42  1  0
 42 43  2  0
 43 44  1  0
  8  3  1  0
 44 10  1  0
 43 12  1  0
 41 16  1  0
 34 19  1  0
 41 35  1  0
 32 23  1  0
 30 28  1  0
M  END
>  <Compound_ID>  (291) 
CHEMBL446250

>  <Active>  (291) 
1.0

>  <Smiles>  (291) 
COc1ccccc1Cc1nc2ccc(-c3nn(C4CCC(N5CCN(CC6CC6)CC5)CC4)c4ncnc(N)c34)cc2[nH]1

>  <canonical_smi>  (291) 
COc1ccccc1Cc1nc2ccc(-c3nn(C4CCC(N5CCN(CC6CC6)CC5)CC4)c4ncnc(N)c34)cc2[nH]1

>  <Set>  (291) 
G2 active

>  <Set_type>  (291) 
Train

>  <MW>  (291) 
591.76

>  <HBD>  (291) 
2

>  <HBA>  (291) 
8

>  <NRB>  (291) 
8

>  <NR>  (291) 
8

>  <NAR>  (291) 
5

>  <PSA>  (291) 
114.01

>  <Standard Type>  (291) 
nan

>  <Standard Relation>  (291) 
nan

>  <Standard Units>  (291) 
nan

>  <Standard Value>  (291) 
nan

>  <Assay ChEMBL ID>  (291) 
nan

>  <Assay Description>  (291) 
nan

>  <BAO Label>  (291) 
nan

$$$$

     RDKit          2D

 37 40  0  0  0  0  0  0  0  0999 V2000
   11.2500   -6.4952    0.0000 C   0  0  0  0  0  0  0  0  0  0  0  0
   10.5000   -5.1962    0.0000 S   0  0  0  0  0  0  0  0  0  0  0  0
    9.2010   -5.9462    0.0000 O   0  0  0  0  0  0  0  0  0  0  0  0
   11.7990   -4.4462    0.0000 O   0  0  0  0  0  0  0  0  0  0  0  0
    9.7500   -3.8971    0.0000 C   0  0  0  0  0  0  0  0  0  0  0  0
    8.2500   -3.8971    0.0000 N   0  0  0  0  0  0  0  0  0  0  0  0
    7.5000   -2.5981    0.0000 C   0  0  0  0  0  0  0  0  0  0  0  0
    6.0000   -2.5981    0.0000 C   0  0  0  0  0  0  0  0  0  0  0  0
    5.2500   -1.2990    0.0000 C   0  0  0  0  0  0  0  0  0  0  0  0
    3.7500   -1.2990    0.0000 C   0  0  0  0  0  0  0  0  0  0  0  0
    3.0000    0.0000    0.0000 O   0  0  0  0  0  0  0  0  0  0  0  0
    1.5000    0.0000    0.0000 C   0  0  0  0  0  0  0  0  0  0  0  0
    0.7500   -1.2990    0.0000 C   0  0  0  0  0  0  0  0  0  0  0  0
   -0.7500   -1.2990    0.0000 C   0  0  0  0  0  0  0  0  0  0  0  0
   -1.5000    0.0000    0.0000 C   0  0  0  0  0  0  0  0  0  0  0  0
   -3.0000    0.0000    0.0000 N   0  0  0  0  0  0  0  0  0  0  0  0
   -3.7500    1.2990    0.0000 C   0  0  0  0  0  0  0  0  0  0  0  0
   -3.0000    2.5981    0.0000 N   0  0  0  0  0  0  0  0  0  0  0  0
   -1.5000    2.5981    0.0000 C   0  0  0  0  0  0  0  0  0  0  0  0
   -0.7500    3.8971    0.0000 N   0  0  0  0  0  0  0  0  0  0  0  0
   -1.5000    5.1962    0.0000 C   0  0  0  0  0  0  0  0  0  0  0  0
   -0.7500    6.4952    0.0000 C   0  0  0  0  0  0  0  0  0  0  0  0
   -1.5000    7.7942    0.0000 C   0  0  0  0  0  0  0  0  0  0  0  0
   -3.0000    7.7942    0.0000 C   0  0  0  0  0  0  0  0  0  0  0  0
   -3.7500    9.0933    0.0000 S   0  0  0  0  0  0  0  0  0  0  0  0
   -5.0490    8.3433    0.0000 O   0  0  0  0  0  0  0  0  0  0  0  0
   -2.4510    9.8433    0.0000 O   0  0  0  0  0  0  0  0  0  0  0  0
   -4.5000   10.3923    0.0000 C   0  0  0  0  0  0  0  0  0  0  0  0
   -3.7500   11.6913    0.0000 C   0  0  0  0  0  0  0  0  0  0  0  0
   -4.5000   12.9904    0.0000 C   0  0  0  0  0  0  0  0  0  0  0  0
   -6.0000   12.9904    0.0000 C   0  0  0  0  0  0  0  0  0  0  0  0
   -6.7500   11.6913    0.0000 C   0  0  0  0  0  0  0  0  0  0  0  0
   -6.0000   10.3923    0.0000 C   0  0  0  0  0  0  0  0  0  0  0  0
   -3.7500    6.4952    0.0000 C   0  0  0  0  0  0  0  0  0  0  0  0
   -3.0000    5.1962    0.0000 C   0  0  0  0  0  0  0  0  0  0  0  0
   -0.7500    1.2990    0.0000 C   0  0  0  0  0  0  0  0  0  0  0  0
    0.7500    1.2990    0.0000 C   0  0  0  0  0  0  0  0  0  0  0  0
  1  2  1  0
  2  3  2  0
  2  4  2  0
  2  5  1  0
  5  6  1  0
  6  7  1  0
  7  8  1  0
  8  9  1  0
  9 10  1  0
 10 11  1  0
 11 12  1  0
 12 13  2  0
 13 14  1  0
 14 15  2  0
 15 16  1  0
 16 17  2  0
 17 18  1  0
 18 19  2  0
 19 20  1  0
 20 21  1  0
 21 22  2  0
 22 23  1  0
 23 24  2  0
 24 25  1  0
 25 26  2  0
 25 27  2  0
 25 28  1  0
 28 29  2  0
 29 30  1  0
 30 31  2  0
 31 32  1  0
 32 33  2  0
 24 34  1  0
 34 35  2  0
 19 36  1  0
 36 37  2  0
 37 12  1  0
 36 15  1  0
 35 21  1  0
 33 28  1  0
M  END
>  <Compound_ID>  (292) 
CHEMBL279334

>  <Active>  (292) 
1.0

>  <Smiles>  (292) 
CS(=O)(=O)CNCCCCOc1ccc2ncnc(Nc3ccc(S(=O)(=O)c4ccccc4)cc3)c2c1

>  <canonical_smi>  (292) 
CS(=O)(=O)CNCCCCOc1ccc2ncnc(Nc3ccc(S(=O)(=O)c4ccccc4)cc3)c2c1

>  <Set>  (292) 
G2 active

>  <Set_type>  (292) 
Train

>  <MW>  (292) 
540.67

>  <HBD>  (292) 
2

>  <HBA>  (292) 
9

>  <NRB>  (292) 
12

>  <NR>  (292) 
4

>  <NAR>  (292) 
4

>  <PSA>  (292) 
127.35

>  <Standard Type>  (292) 
nan

>  <Standard Relation>  (292) 
nan

>  <Standard Units>  (292) 
nan

>  <Standard Value>  (292) 
nan

>  <Assay ChEMBL ID>  (292) 
nan

>  <Assay Description>  (292) 
nan

>  <BAO Label>  (292) 
nan

$$$$

     RDKit          2D

 25 28  0  0  0  0  0  0  0  0999 V2000
    8.2500   -3.8971    0.0000 C   0  0  0  0  0  0  0  0  0  0  0  0
    7.5000   -2.5981    0.0000 N   0  0  0  0  0  0  0  0  0  0  0  0
    8.2500   -1.2990    0.0000 C   0  0  0  0  0  0  0  0  0  0  0  0
    6.0000   -2.5981    0.0000 C   0  0  0  0  0  0  0  0  0  0  0  0
    5.2500   -3.8971    0.0000 C   0  0  0  0  0  0  0  0  0  0  0  0
    3.7500   -3.8971    0.0000 C   0  0  0  0  0  0  0  0  0  0  0  0
    3.0000   -2.5981    0.0000 C   0  0  0  0  0  0  0  0  0  0  0  0
    1.5000   -2.5981    0.0000 N   0  0  0  0  0  0  0  0  0  0  0  0
    0.7500   -1.2990    0.0000 C   0  0  0  0  0  0  0  0  0  0  0  0
    1.5000    0.0000    0.0000 N   0  0  0  0  0  0  0  0  0  0  0  0
    0.7500    1.2990    0.0000 C   0  0  0  0  0  0  0  0  0  0  0  0
   -0.7500    1.2990    0.0000 N   0  0  0  0  0  0  0  0  0  0  0  0
   -1.5000    0.0000    0.0000 C   0  0  0  0  0  0  0  0  0  0  0  0
   -2.9672   -0.3119    0.0000 C   0  0  0  0  0  0  0  0  0  0  0  0
   -3.1240   -1.8037    0.0000 C   0  0  0  0  0  0  0  0  0  0  0  0
   -4.4231   -2.5537    0.0000 C   0  0  0  0  0  0  0  0  0  0  0  0
   -5.7221   -1.8037    0.0000 C   0  0  0  0  0  0  0  0  0  0  0  0
   -7.0211   -2.5537    0.0000 C   0  0  0  0  0  0  0  0  0  0  0  0
   -7.0211   -4.0537    0.0000 C   0  0  0  0  0  0  0  0  0  0  0  0
   -5.7221   -4.8037    0.0000 C   0  0  0  0  0  0  0  0  0  0  0  0
   -4.4231   -4.0537    0.0000 C   0  0  0  0  0  0  0  0  0  0  0  0
   -1.7537   -2.4138    0.0000 S   0  0  0  0  0  0  0  0  0  0  0  0
   -0.7500   -1.2990    0.0000 C   0  0  0  0  0  0  0  0  0  0  0  0
    3.7500   -1.2990    0.0000 C   0  0  0  0  0  0  0  0  0  0  0  0
    5.2500   -1.2990    0.0000 C   0  0  0  0  0  0  0  0  0  0  0  0
  1  2  1  0
  2  3  1  0
  2  4  1  0
  4  5  2  0
  5  6  1  0
  6  7  2  0
  7  8  1  0
  8  9  1  0
  9 10  2  0
 10 11  1  0
 11 12  2  0
 12 13  1  0
 13 14  1  0
 14 15  2  0
 15 16  1  0
 16 17  2  0
 17 18  1  0
 18 19  2  0
 19 20  1  0
 20 21  2  0
 15 22  1  0
 22 23  1  0
  7 24  1  0
 24 25  2  0
 25  4  1  0
 23  9  1  0
 23 13  2  0
 21 16  1  0
M  END
>  <Compound_ID>  (293) 
CHEMBL306732

>  <Active>  (293) 
1.0

>  <Smiles>  (293) 
CN(C)c1ccc(Nc2ncnc3cc(-c4ccccc4)sc23)cc1

>  <canonical_smi>  (293) 
CN(C)c1ccc(Nc2ncnc3cc(-c4ccccc4)sc23)cc1

>  <Set>  (293) 
G2 active

>  <Set_type>  (293) 
Train

>  <MW>  (293) 
346.46

>  <HBD>  (293) 
1

>  <HBA>  (293) 
4

>  <NRB>  (293) 
4

>  <NR>  (293) 
4

>  <NAR>  (293) 
4

>  <PSA>  (293) 
41.05

>  <Standard Type>  (293) 
nan

>  <Standard Relation>  (293) 
nan

>  <Standard Units>  (293) 
nan

>  <Standard Value>  (293) 
nan

>  <Assay ChEMBL ID>  (293) 
nan

>  <Assay Description>  (293) 
nan

>  <BAO Label>  (293) 
nan

$$$$

     RDKit          2D

 30 33  0  0  0  0  0  0  0  0999 V2000
   -0.7500   -3.8971    0.0000 O   0  0  0  0  0  0  0  0  0  0  0  0
    0.7500   -3.8971    0.0000 C   0  0  0  0  0  0  0  0  0  0  0  0
    1.5000   -5.1962    0.0000 C   0  0  0  0  0  0  0  0  0  0  0  0
    2.2500   -6.4952    0.0000 C   0  0  0  0  0  0  0  0  0  0  0  0
    3.0000   -7.7942    0.0000 C   0  0  0  0  0  0  0  0  0  0  0  0
    2.2500   -9.0933    0.0000 N   0  0  0  0  0  0  0  0  0  0  0  0
    0.7500   -9.0933    0.0000 C   0  0  0  0  0  0  0  0  0  0  0  0
   -0.0000  -10.3923    0.0000 C   0  0  0  0  0  0  0  0  0  0  0  0
    0.7500  -11.6913    0.0000 S   0  0  0  0  0  0  0  0  0  0  0  0
    2.2500  -11.6913    0.0000 C   0  0  0  0  0  0  0  0  0  0  0  0
    3.0000  -10.3923    0.0000 C   0  0  0  0  0  0  0  0  0  0  0  0
    1.5000   -2.5981    0.0000 N   0  0  0  0  0  0  0  0  0  0  0  0
    0.7500   -1.2990    0.0000 C   0  0  0  0  0  0  0  0  0  0  0  0
    1.5000    0.0000    0.0000 C   0  0  0  0  0  0  0  0  0  0  0  0
    0.7500    1.2990    0.0000 C   0  0  0  0  0  0  0  0  0  0  0  0
   -0.7500    1.2990    0.0000 C   0  0  0  0  0  0  0  0  0  0  0  0
   -1.5000    2.5981    0.0000 N   0  0  0  0  0  0  0  0  0  0  0  0
   -3.0000    2.5981    0.0000 C   0  0  0  0  0  0  0  0  0  0  0  0
   -3.7500    1.2990    0.0000 N   0  0  0  0  0  0  0  0  0  0  0  0
   -3.0000    0.0000    0.0000 C   0  0  0  0  0  0  0  0  0  0  0  0
   -3.7500   -1.2990    0.0000 N   0  0  0  0  0  0  0  0  0  0  0  0
   -5.2500   -1.2990    0.0000 C   0  0  0  0  0  0  0  0  0  0  0  0
   -6.0000    0.0000    0.0000 C   0  0  0  0  0  0  0  0  0  0  0  0
   -7.5000    0.0000    0.0000 C   0  0  0  0  0  0  0  0  0  0  0  0
   -8.2500   -1.2990    0.0000 C   0  0  0  0  0  0  0  0  0  0  0  0
   -7.5000   -2.5981    0.0000 C   0  0  0  0  0  0  0  0  0  0  0  0
   -8.2500   -3.8971    0.0000 Br  0  0  0  0  0  0  0  0  0  0  0  0
   -6.0000   -2.5981    0.0000 C   0  0  0  0  0  0  0  0  0  0  0  0
   -1.5000    0.0000    0.0000 C   0  0  0  0  0  0  0  0  0  0  0  0
   -0.7500   -1.2990    0.0000 C   0  0  0  0  0  0  0  0  0  0  0  0
  1  2  2  0
  2  3  1  0
  3  4  3  0
  4  5  1  0
  5  6  1  0
  6  7  1  0
  7  8  1  0
  8  9  1  0
  9 10  1  0
 10 11  1  0
  2 12  1  0
 12 13  1  0
 13 14  2  0
 14 15  1  0
 15 16  2  0
 16 17  1  0
 17 18  2  0
 18 19  1  0
 19 20  2  0
 20 21  1  0
 21 22  1  0
 22 23  2  0
 23 24  1  0
 24 25  2  0
 25 26  1  0
 26 27  1  0
 26 28  2  0
 20 29  1  0
 29 30  2  0
 11  6  1  0
 30 13  1  0
 29 16  1  0
 28 22  1  0
M  END
>  <Compound_ID>  (294) 
CHEMBL328977

>  <Active>  (294) 
1.0

>  <Smiles>  (294) 
O=C(C#CCN1CCSCC1)Nc1ccc2ncnc(Nc3cccc(Br)c3)c2c1

>  <canonical_smi>  (294) 
O=C(C#CCN1CCSCC1)Nc1ccc2ncnc(Nc3cccc(Br)c3)c2c1

>  <Set>  (294) 
G2 active

>  <Set_type>  (294) 
Train

>  <MW>  (294) 
482.41

>  <HBD>  (294) 
2

>  <HBA>  (294) 
6

>  <NRB>  (294) 
4

>  <NR>  (294) 
4

>  <NAR>  (294) 
3

>  <PSA>  (294) 
70.15

>  <Standard Type>  (294) 
nan

>  <Standard Relation>  (294) 
nan

>  <Standard Units>  (294) 
nan

>  <Standard Value>  (294) 
nan

>  <Assay ChEMBL ID>  (294) 
nan

>  <Assay Description>  (294) 
nan

>  <BAO Label>  (294) 
nan

$$$$

     RDKit          2D

 29 33  0  0  0  0  0  0  0  0999 V2000
    6.0000   -0.0000    0.0000 Cl  0  0  0  0  0  0  0  0  0  0  0  0
    5.2500   -1.2990    0.0000 C   0  0  0  0  0  0  0  0  0  0  0  0
    6.0000   -2.5981    0.0000 C   0  0  0  0  0  0  0  0  0  0  0  0
    5.2500   -3.8971    0.0000 C   0  0  0  0  0  0  0  0  0  0  0  0
    3.7500   -3.8971    0.0000 C   0  0  0  0  0  0  0  0  0  0  0  0
    3.0000   -2.5981    0.0000 C   0  0  0  0  0  0  0  0  0  0  0  0
    1.5000   -2.5981    0.0000 N   0  0  0  0  0  0  0  0  0  0  0  0
    0.7500   -1.2990    0.0000 C   0  0  0  0  0  0  0  0  0  0  0  0
    1.5000    0.0000    0.0000 N   0  0  0  0  0  0  0  0  0  0  0  0
    0.7500    1.2990    0.0000 C   0  0  0  0  0  0  0  0  0  0  0  0
   -0.7500    1.2990    0.0000 N   0  0  0  0  0  0  0  0  0  0  0  0
   -1.5000    0.0000    0.0000 C   0  0  0  0  0  0  0  0  0  0  0  0
   -2.9672   -0.3119    0.0000 N   0  0  0  0  0  0  0  0  0  0  0  0
   -3.1240   -1.8037    0.0000 C   0  0  0  0  0  0  0  0  0  0  0  0
   -4.4231   -2.5537    0.0000 C   0  0  0  0  0  0  0  0  0  0  0  0
   -5.7221   -1.8037    0.0000 C   0  0  0  0  0  0  0  0  0  0  0  0
   -7.0211   -2.5537    0.0000 C   0  0  0  0  0  0  0  0  0  0  0  0
   -7.0211   -4.0537    0.0000 C   0  0  0  0  0  0  0  0  0  0  0  0
   -5.7221   -4.8037    0.0000 C   0  0  0  0  0  0  0  0  0  0  0  0
   -4.4231   -4.0537    0.0000 C   0  0  0  0  0  0  0  0  0  0  0  0
   -1.7537   -2.4138    0.0000 C   0  0  0  0  0  0  0  0  0  0  0  0
   -1.4418   -3.8810    0.0000 C   0  0  0  0  0  0  0  0  0  0  0  0
   -2.5565   -4.8847    0.0000 C   0  0  0  0  0  0  0  0  0  0  0  0
   -2.2447   -6.3519    0.0000 C   0  0  0  0  0  0  0  0  0  0  0  0
   -0.8181   -6.8154    0.0000 C   0  0  0  0  0  0  0  0  0  0  0  0
    0.2966   -5.8117    0.0000 C   0  0  0  0  0  0  0  0  0  0  0  0
   -0.0152   -4.3445    0.0000 C   0  0  0  0  0  0  0  0  0  0  0  0
   -0.7500   -1.2990    0.0000 C   0  0  0  0  0  0  0  0  0  0  0  0
    3.7500   -1.2990    0.0000 C   0  0  0  0  0  0  0  0  0  0  0  0
  1  2  1  0
  2  3  2  0
  3  4  1  0
  4  5  2  0
  5  6  1  0
  6  7  1  0
  7  8  1  0
  8  9  1  0
  9 10  1  0
 10 11  2  0
 11 12  1  0
 12 13  2  0
 13 14  1  0
 14 15  1  0
 15 16  2  0
 16 17  1  0
 17 18  2  0
 18 19  1  0
 19 20  2  0
 14 21  2  0
 21 22  1  0
 22 23  2  0
 23 24  1  0
 24 25  2  0
 25 26  1  0
 26 27  2  0
 21 28  1  0
  6 29  2  0
 29  2  1  0
 28  8  2  0
 28 12  1  0
 20 15  1  0
 27 22  1  0
M  END
>  <Compound_ID>  (295) 
CHEMBL307209

>  <Active>  (295) 
1.0

>  <Smiles>  (295) 
Clc1cccc(Nc2[nH]cnc3nc(-c4ccccc4)c(-c4ccccc4)c2-3)c1

>  <canonical_smi>  (295) 
Clc1cccc(Nc2[nH]cnc3nc(-c4ccccc4)c(-c4ccccc4)c2-3)c1

>  <Set>  (295) 
G2 active

>  <Set_type>  (295) 
Train

>  <MW>  (295) 
396.88

>  <HBD>  (295) 
2

>  <HBA>  (295) 
3

>  <NRB>  (295) 
4

>  <NR>  (295) 
5

>  <NAR>  (295) 
5

>  <PSA>  (295) 
53.6

>  <Standard Type>  (295) 
nan

>  <Standard Relation>  (295) 
nan

>  <Standard Units>  (295) 
nan

>  <Standard Value>  (295) 
nan

>  <Assay ChEMBL ID>  (295) 
nan

>  <Assay Description>  (295) 
nan

>  <BAO Label>  (295) 
nan

$$$$

     RDKit          2D

 37 41  0  0  0  0  0  0  0  0999 V2000
    0.6690   -4.4646    0.0000 O   0  0  0  0  0  0  0  0  0  0  0  0
    1.6727   -5.5793    0.0000 C   0  0  0  0  0  0  0  0  0  0  0  0
    1.2091   -7.0059    0.0000 C   0  0  0  0  0  0  0  0  0  0  0  0
   -0.2581   -7.3178    0.0000 O   0  0  0  0  0  0  0  0  0  0  0  0
    3.1399   -5.2674    0.0000 N   0  0  0  0  0  0  0  0  0  0  0  0
    4.2546   -6.2711    0.0000 C   0  0  0  0  0  0  0  0  0  0  0  0
    5.5537   -5.5211    0.0000 C   0  0  0  0  0  0  0  0  0  0  0  0
    5.2418   -4.0539    0.0000 C   0  0  0  0  0  0  0  0  0  0  0  0
    3.7500   -3.8971    0.0000 C   0  0  0  0  0  0  0  0  0  0  0  0
    3.0000   -2.5981    0.0000 C   0  0  0  0  0  0  0  0  0  0  0  0
    1.5000   -2.5981    0.0000 O   0  0  0  0  0  0  0  0  0  0  0  0
    0.7500   -1.2990    0.0000 C   0  0  0  0  0  0  0  0  0  0  0  0
    1.5000    0.0000    0.0000 C   0  0  0  0  0  0  0  0  0  0  0  0
    0.7500    1.2990    0.0000 C   0  0  0  0  0  0  0  0  0  0  0  0
   -0.7500    1.2990    0.0000 C   0  0  0  0  0  0  0  0  0  0  0  0
   -1.5000    0.0000    0.0000 C   0  0  0  0  0  0  0  0  0  0  0  0
   -3.0000    0.0000    0.0000 N   0  0  0  0  0  0  0  0  0  0  0  0
   -3.7500   -1.2990    0.0000 C   0  0  0  0  0  0  0  0  0  0  0  0
   -3.0000   -2.5981    0.0000 N   0  0  0  0  0  0  0  0  0  0  0  0
   -1.5000   -2.5981    0.0000 C   0  0  0  0  0  0  0  0  0  0  0  0
   -0.7500   -3.8971    0.0000 N   0  0  0  0  0  0  0  0  0  0  0  0
   -1.5000   -5.1962    0.0000 C   0  0  0  0  0  0  0  0  0  0  0  0
   -3.0000   -5.1962    0.0000 C   0  0  0  0  0  0  0  0  0  0  0  0
   -3.7500   -6.4952    0.0000 C   0  0  0  0  0  0  0  0  0  0  0  0
   -3.0000   -7.7942    0.0000 C   0  0  0  0  0  0  0  0  0  0  0  0
   -3.7500   -9.0933    0.0000 O   0  0  0  0  0  0  0  0  0  0  0  0
   -5.2500   -9.0933    0.0000 C   0  0  0  0  0  0  0  0  0  0  0  0
   -6.0000  -10.3923    0.0000 C   0  0  0  0  0  0  0  0  0  0  0  0
   -7.5000  -10.3923    0.0000 C   0  0  0  0  0  0  0  0  0  0  0  0
   -8.2500  -11.6913    0.0000 C   0  0  0  0  0  0  0  0  0  0  0  0
   -7.5000  -12.9904    0.0000 C   0  0  0  0  0  0  0  0  0  0  0  0
   -6.0000  -12.9904    0.0000 C   0  0  0  0  0  0  0  0  0  0  0  0
   -5.2500  -11.6913    0.0000 N   0  0  0  0  0  0  0  0  0  0  0  0
   -1.5000   -7.7942    0.0000 C   0  0  0  0  0  0  0  0  0  0  0  0
   -0.7500   -9.0933    0.0000 Cl  0  0  0  0  0  0  0  0  0  0  0  0
   -0.7500   -6.4952    0.0000 C   0  0  0  0  0  0  0  0  0  0  0  0
   -0.7500   -1.2990    0.0000 C   0  0  0  0  0  0  0  0  0  0  0  0
  1  2  2  0
  2  3  1  0
  3  4  1  0
  2  5  1  0
  5  6  1  0
  6  7  1  0
  7  8  1  0
  8  9  1  0
  9 10  1  1
 10 11  1  0
 11 12  1  0
 12 13  2  0
 13 14  1  0
 14 15  2  0
 15 16  1  0
 16 17  2  0
 17 18  1  0
 18 19  2  0
 19 20  1  0
 20 21  1  0
 21 22  1  0
 22 23  2  0
 23 24  1  0
 24 25  2  0
 25 26  1  0
 26 27  1  0
 27 28  1  0
 28 29  2  0
 29 30  1  0
 30 31  2  0
 31 32  1  0
 32 33  2  0
 25 34  1  0
 34 35  1  0
 34 36  2  0
 20 37  2  0
  9  5  1  0
 37 12  1  0
 37 16  1  0
 36 22  1  0
 33 28  1  0
M  END
>  <Compound_ID>  (296) 
CHEMBL249927

>  <Active>  (296) 
1.0

>  <Smiles>  (296) 
O=C(CO)N1CCC[C@@H]1COc1cccc2ncnc(Nc3ccc(OCc4ccccn4)c(Cl)c3)c12

>  <canonical_smi>  (296) 
O=C(CO)N1CCC[C@@H]1COc1cccc2ncnc(Nc3ccc(OCc4ccccn4)c(Cl)c3)c12

>  <Set>  (296) 
G2 active

>  <Set_type>  (296) 
Train

>  <MW>  (296) 
519.99

>  <HBD>  (296) 
2

>  <HBA>  (296) 
8

>  <NRB>  (296) 
9

>  <NR>  (296) 
5

>  <NAR>  (296) 
4

>  <PSA>  (296) 
109.7

>  <Standard Type>  (296) 
nan

>  <Standard Relation>  (296) 
nan

>  <Standard Units>  (296) 
nan

>  <Standard Value>  (296) 
nan

>  <Assay ChEMBL ID>  (296) 
nan

>  <Assay Description>  (296) 
nan

>  <BAO Label>  (296) 
nan

$$$$

     RDKit          2D

 30 33  0  0  0  0  0  0  0  0999 V2000
    0.7500   -6.4952    0.0000 C   0  0  0  0  0  0  0  0  0  0  0  0
    1.5000   -5.1962    0.0000 O   0  0  0  0  0  0  0  0  0  0  0  0
    0.7500   -3.8971    0.0000 C   0  0  0  0  0  0  0  0  0  0  0  0
    1.5000   -2.5981    0.0000 C   0  0  0  0  0  0  0  0  0  0  0  0
    0.7500   -1.2990    0.0000 C   0  0  0  0  0  0  0  0  0  0  0  0
    1.5000    0.0000    0.0000 N   0  0  0  0  0  0  0  0  0  0  0  0
    0.7500    1.2990    0.0000 C   0  0  0  0  0  0  0  0  0  0  0  0
   -0.7500    1.2990    0.0000 N   0  0  0  0  0  0  0  0  0  0  0  0
   -1.5000    0.0000    0.0000 C   0  0  0  0  0  0  0  0  0  0  0  0
   -3.0000    0.0000    0.0000 N   0  0  0  0  0  0  0  0  0  0  0  0
   -3.7500    1.2990    0.0000 C   0  0  0  0  0  0  0  0  0  0  0  0
   -3.0000    2.5981    0.0000 C   0  0  0  0  0  0  0  0  0  0  0  0
   -3.7500    3.8971    0.0000 C   0  0  0  0  0  0  0  0  0  0  0  0
   -5.2500    3.8971    0.0000 C   0  0  0  0  0  0  0  0  0  0  0  0
   -6.0000    5.1962    0.0000 F   0  0  0  0  0  0  0  0  0  0  0  0
   -6.0000    2.5981    0.0000 C   0  0  0  0  0  0  0  0  0  0  0  0
   -7.5000    2.5981    0.0000 Cl  0  0  0  0  0  0  0  0  0  0  0  0
   -5.2500    1.2990    0.0000 C   0  0  0  0  0  0  0  0  0  0  0  0
   -0.7500   -1.2990    0.0000 C   0  0  0  0  0  0  0  0  0  0  0  0
   -1.5000   -2.5981    0.0000 C   0  0  0  0  0  0  0  0  0  0  0  0
   -0.7500   -3.8971    0.0000 C   0  0  0  0  0  0  0  0  0  0  0  0
   -1.5000   -5.1962    0.0000 O   0  0  0  0  0  0  0  0  0  0  0  0
   -3.0000   -5.1962    0.0000 C   0  0  0  0  0  0  0  0  0  0  0  0
   -3.7500   -6.4952    0.0000 C   0  0  0  0  0  0  0  0  0  0  0  0
   -5.2500   -6.4952    0.0000 N   0  0  0  0  0  0  0  0  0  0  0  0
   -6.0000   -5.1962    0.0000 C   0  0  0  0  0  0  0  0  0  0  0  0
   -7.5000   -5.1962    0.0000 C   0  0  0  0  0  0  0  0  0  0  0  0
   -8.2500   -6.4952    0.0000 C   0  0  0  0  0  0  0  0  0  0  0  0
   -7.5000   -7.7942    0.0000 C   0  0  0  0  0  0  0  0  0  0  0  0
   -6.0000   -7.7942    0.0000 C   0  0  0  0  0  0  0  0  0  0  0  0
  1  2  1  0
  2  3  1  0
  3  4  2  0
  4  5  1  0
  5  6  2  0
  6  7  1  0
  7  8  2  0
  8  9  1  0
  9 10  1  0
 10 11  1  0
 11 12  2  0
 12 13  1  0
 13 14  2  0
 14 15  1  0
 14 16  1  0
 16 17  1  0
 16 18  2  0
  9 19  2  0
 19 20  1  0
 20 21  2  0
 21 22  1  0
 22 23  1  0
 23 24  1  0
 24 25  1  0
 25 26  1  0
 26 27  1  0
 27 28  1  0
 28 29  1  0
 29 30  1  0
 21  3  1  0
 30 25  1  0
 19  5  1  0
 18 11  1  0
M  END
>  <Compound_ID>  (297) 
CHEMBL56142

>  <Active>  (297) 
1.0

>  <Smiles>  (297) 
COc1cc2ncnc(Nc3ccc(F)c(Cl)c3)c2cc1OCCN1CCCCC1

>  <canonical_smi>  (297) 
COc1cc2ncnc(Nc3ccc(F)c(Cl)c3)c2cc1OCCN1CCCCC1

>  <Set>  (297) 
G2 active

>  <Set_type>  (297) 
Train

>  <MW>  (297) 
430.91

>  <HBD>  (297) 
1

>  <HBA>  (297) 
6

>  <NRB>  (297) 
7

>  <NR>  (297) 
4

>  <NAR>  (297) 
3

>  <PSA>  (297) 
59.51

>  <Standard Type>  (297) 
nan

>  <Standard Relation>  (297) 
nan

>  <Standard Units>  (297) 
nan

>  <Standard Value>  (297) 
nan

>  <Assay ChEMBL ID>  (297) 
nan

>  <Assay Description>  (297) 
nan

>  <BAO Label>  (297) 
nan

$$$$

     RDKit          2D

 41 46  0  0  0  0  0  0  0  0999 V2000
   -0.4702  -13.1562    0.0000 O   0  0  0  0  0  0  0  0  0  0  0  0
    1.0216  -12.9994    0.0000 C   0  0  0  0  0  0  0  0  0  0  0  0
    1.6317  -11.6291    0.0000 O   0  0  0  0  0  0  0  0  0  0  0  0
    0.7500  -10.4156    0.0000 C   0  0  0  0  0  0  0  0  0  0  0  0
   -0.7500  -10.4156    0.0000 C   0  0  0  0  0  0  0  0  0  0  0  0
   -1.2135   -8.9890    0.0000 N   0  0  0  0  0  0  0  0  0  0  0  0
    0.0000   -8.1073    0.0000 C   0  0  0  0  0  0  0  0  0  0  0  0
   -0.0000   -6.6073    0.0000 C   0  0  0  0  0  0  0  0  0  0  0  0
   -0.0000   -5.1073    0.0000 C   0  0  0  0  0  0  0  0  0  0  0  0
   -0.0000   -3.6073    0.0000 C   0  0  0  0  0  0  0  0  0  0  0  0
    1.2135   -2.7256    0.0000 C   0  0  0  0  0  0  0  0  0  0  0  0
    0.7500   -1.2990    0.0000 C   0  0  0  0  0  0  0  0  0  0  0  0
    1.5000    0.0000    0.0000 N   0  0  0  0  0  0  0  0  0  0  0  0
    0.7500    1.2990    0.0000 C   0  0  0  0  0  0  0  0  0  0  0  0
   -0.7500    1.2990    0.0000 N   0  0  0  0  0  0  0  0  0  0  0  0
   -1.5000    0.0000    0.0000 C   0  0  0  0  0  0  0  0  0  0  0  0
   -3.0000    0.0000    0.0000 N   0  0  0  0  0  0  0  0  0  0  0  0
   -3.7500    1.2990    0.0000 C   0  0  0  0  0  0  0  0  0  0  0  0
   -3.0000    2.5981    0.0000 C   0  0  0  0  0  0  0  0  0  0  0  0
   -3.7500    3.8971    0.0000 C   0  0  0  0  0  0  0  0  0  0  0  0
   -5.2500    3.8971    0.0000 C   0  0  0  0  0  0  0  0  0  0  0  0
   -6.0000    5.1962    0.0000 O   0  0  0  0  0  0  0  0  0  0  0  0
   -5.2500    6.4952    0.0000 C   0  0  0  0  0  0  0  0  0  0  0  0
   -6.0000    7.7942    0.0000 C   0  0  0  0  0  0  0  0  0  0  0  0
   -5.2500    9.0933    0.0000 C   0  0  0  0  0  0  0  0  0  0  0  0
   -6.0000   10.3923    0.0000 C   0  0  0  0  0  0  0  0  0  0  0  0
   -7.5000   10.3923    0.0000 C   0  0  0  0  0  0  0  0  0  0  0  0
   -8.2500    9.0933    0.0000 C   0  0  0  0  0  0  0  0  0  0  0  0
   -9.7500    9.0933    0.0000 F   0  0  0  0  0  0  0  0  0  0  0  0
   -7.5000    7.7942    0.0000 C   0  0  0  0  0  0  0  0  0  0  0  0
   -6.0000    2.5981    0.0000 C   0  0  0  0  0  0  0  0  0  0  0  0
   -7.5000    2.5981    0.0000 Cl  0  0  0  0  0  0  0  0  0  0  0  0
   -5.2500    1.2990    0.0000 C   0  0  0  0  0  0  0  0  0  0  0  0
   -0.7500   -1.2990    0.0000 C   0  0  0  0  0  0  0  0  0  0  0  0
   -1.2135   -2.7256    0.0000 S   0  0  0  0  0  0  0  0  0  0  0  0
    1.2135   -8.9890    0.0000 C   0  0  0  0  0  0  0  0  0  0  0  0
    1.9033  -14.2129    0.0000 N   0  0  0  0  0  0  0  0  0  0  0  0
    3.4033  -14.2129    0.0000 C   0  0  0  0  0  0  0  0  0  0  0  0
    3.8668  -15.6395    0.0000 C   0  0  0  0  0  0  0  0  0  0  0  0
    2.6533  -16.5212    0.0000 C   0  0  0  0  0  0  0  0  0  0  0  0
    1.4397  -15.6395    0.0000 C   0  0  0  0  0  0  0  0  0  0  0  0
  1  2  2  0
  2  3  1  0
  4  3  1  1
  4  5  1  0
  5  6  1  0
  6  7  1  0
  7  8  1  6
  8  9  3  0
  9 10  1  0
 10 11  2  0
 11 12  1  0
 12 13  2  0
 13 14  1  0
 14 15  2  0
 15 16  1  0
 16 17  1  0
 17 18  1  0
 18 19  2  0
 19 20  1  0
 20 21  2  0
 21 22  1  0
 22 23  1  0
 23 24  1  0
 24 25  2  0
 25 26  1  0
 26 27  2  0
 27 28  1  0
 28 29  1  0
 28 30  2  0
 21 31  1  0
 31 32  1  0
 31 33  2  0
 16 34  2  0
 34 35  1  0
  7 36  1  0
  2 37  1  0
 37 38  1  0
 38 39  1  0
 39 40  1  0
 40 41  1  0
 36  4  1  0
 41 37  1  0
 35 10  1  0
 34 12  1  0
 33 18  1  0
 30 24  1  0
M  END
>  <Compound_ID>  (298) 
CHEMBL451513

>  <Active>  (298) 
1.0

>  <Smiles>  (298) 
O=C(O[C@H]1CN[C@H](C#Cc2cc3ncnc(Nc4ccc(OCc5cccc(F)c5)c(Cl)c4)c3s2)C1)N1CCCC1

>  <canonical_smi>  (298) 
O=C(O[C@H]1CN[C@H](C#Cc2cc3ncnc(Nc4ccc(OCc5cccc(F)c5)c(Cl)c4)c3s2)C1)N1CCCC1

>  <Set>  (298) 
G2 active

>  <Set_type>  (298) 
Train

>  <MW>  (298) 
592.1

>  <HBD>  (298) 
2

>  <HBA>  (298) 
7

>  <NRB>  (298) 
6

>  <NR>  (298) 
6

>  <NAR>  (298) 
4

>  <PSA>  (298) 
88.61

>  <Standard Type>  (298) 
nan

>  <Standard Relation>  (298) 
nan

>  <Standard Units>  (298) 
nan

>  <Standard Value>  (298) 
nan

>  <Assay ChEMBL ID>  (298) 
nan

>  <Assay Description>  (298) 
nan

>  <BAO Label>  (298) 
nan

$$$$

     RDKit          2D

 30 33  0  0  0  0  0  0  0  0999 V2000
   -5.2500   -3.8971    0.0000 C   0  0  0  0  0  0  0  0  0  0  0  0
   -3.7500   -3.8971    0.0000 O   0  0  0  0  0  0  0  0  0  0  0  0
   -3.0000   -2.5981    0.0000 C   0  0  0  0  0  0  0  0  0  0  0  0
   -1.5000   -2.5981    0.0000 C   0  0  0  0  0  0  0  0  0  0  0  0
   -0.7500   -1.2990    0.0000 C   0  0  0  0  0  0  0  0  0  0  0  0
    0.7500   -1.2990    0.0000 C   0  0  0  0  0  0  0  0  0  0  0  0
    1.5000   -2.5981    0.0000 N   0  0  0  0  0  0  0  0  0  0  0  0
    3.0000   -2.5981    0.0000 C   0  0  0  0  0  0  0  0  0  0  0  0
    3.7500   -3.8971    0.0000 C   0  0  0  0  0  0  0  0  0  0  0  0
    5.2500   -3.8971    0.0000 C   0  0  0  0  0  0  0  0  0  0  0  0
    6.0000   -2.5981    0.0000 C   0  0  0  0  0  0  0  0  0  0  0  0
    7.5000   -2.5981    0.0000 Cl  0  0  0  0  0  0  0  0  0  0  0  0
    5.2500   -1.2990    0.0000 C   0  0  0  0  0  0  0  0  0  0  0  0
    3.7500   -1.2990    0.0000 C   0  0  0  0  0  0  0  0  0  0  0  0
    3.0000   -0.0000    0.0000 F   0  0  0  0  0  0  0  0  0  0  0  0
    1.5000    0.0000    0.0000 N   0  0  0  0  0  0  0  0  0  0  0  0
    0.7500    1.2990    0.0000 C   0  0  0  0  0  0  0  0  0  0  0  0
   -0.7500    1.2990    0.0000 N   0  0  0  0  0  0  0  0  0  0  0  0
   -1.5000    0.0000    0.0000 C   0  0  0  0  0  0  0  0  0  0  0  0
   -3.0000    0.0000    0.0000 C   0  0  0  0  0  0  0  0  0  0  0  0
   -3.7500   -1.2990    0.0000 C   0  0  0  0  0  0  0  0  0  0  0  0
   -5.2500   -1.2990    0.0000 O   0  0  0  0  0  0  0  0  0  0  0  0
   -6.0000    0.0000    0.0000 C   0  0  0  0  0  0  0  0  0  0  0  0
   -7.5000    0.0000    0.0000 C   0  0  0  0  0  0  0  0  0  0  0  0
   -8.2500    1.2990    0.0000 C   0  0  0  0  0  0  0  0  0  0  0  0
   -9.7500    1.2990    0.0000 N   0  0  0  0  0  0  0  0  0  0  0  0
  -10.6317    0.0855    0.0000 C   0  0  0  0  0  0  0  0  0  0  0  0
  -12.0583    0.5490    0.0000 C   0  0  0  0  0  0  0  0  0  0  0  0
  -12.0583    2.0490    0.0000 C   0  0  0  0  0  0  0  0  0  0  0  0
  -10.6317    2.5126    0.0000 C   0  0  0  0  0  0  0  0  0  0  0  0
  1  2  1  0
  2  3  1  0
  3  4  2  0
  4  5  1  0
  5  6  2  0
  6  7  1  0
  7  8  1  0
  8  9  2  0
  9 10  1  0
 10 11  2  0
 11 12  1  0
 11 13  1  0
 13 14  2  0
 14 15  1  0
  6 16  1  0
 16 17  2  0
 17 18  1  0
 18 19  2  0
 19 20  1  0
 20 21  2  0
 21 22  1  0
 22 23  1  0
 23 24  1  0
 24 25  1  0
 25 26  1  0
 26 27  1  0
 27 28  1  0
 28 29  1  0
 29 30  1  0
 21  3  1  0
 30 26  1  0
 19  5  1  0
 14  8  1  0
M  END
>  <Compound_ID>  (299) 
CHEMBL24133

>  <Active>  (299) 
1.0

>  <Smiles>  (299) 
COc1cc2c(Nc3ccc(Cl)cc3F)ncnc2cc1OCCCN1CCCC1

>  <canonical_smi>  (299) 
COc1cc2c(Nc3ccc(Cl)cc3F)ncnc2cc1OCCCN1CCCC1

>  <Set>  (299) 
G2 active

>  <Set_type>  (299) 
Train

>  <MW>  (299) 
430.91

>  <HBD>  (299) 
1

>  <HBA>  (299) 
6

>  <NRB>  (299) 
8

>  <NR>  (299) 
4

>  <NAR>  (299) 
3

>  <PSA>  (299) 
59.51

>  <Standard Type>  (299) 
nan

>  <Standard Relation>  (299) 
nan

>  <Standard Units>  (299) 
nan

>  <Standard Value>  (299) 
nan

>  <Assay ChEMBL ID>  (299) 
nan

>  <Assay Description>  (299) 
nan

>  <BAO Label>  (299) 
nan

$$$$

     RDKit          2D

 41 45  0  0  0  0  0  0  0  0999 V2000
    5.2500   -1.2990    0.0000 C   0  0  0  0  0  0  0  0  0  0  0  0
    3.7500   -1.2990    0.0000 C   0  0  0  0  0  0  0  0  0  0  0  0
    3.0000    0.0000    0.0000 O   0  0  0  0  0  0  0  0  0  0  0  0
    1.5000    0.0000    0.0000 C   0  0  0  0  0  0  0  0  0  0  0  0
    0.7500   -1.2990    0.0000 C   0  0  0  0  0  0  0  0  0  0  0  0
   -0.7500   -1.2990    0.0000 C   0  0  0  0  0  0  0  0  0  0  0  0
   -1.5000   -2.5981    0.0000 N   0  0  0  0  0  0  0  0  0  0  0  0
   -3.0000   -2.5981    0.0000 C   0  0  0  0  0  0  0  0  0  0  0  0
   -3.7500   -1.2990    0.0000 C   0  0  0  0  0  0  0  0  0  0  0  0
   -5.2500   -1.2990    0.0000 C   0  0  0  0  0  0  0  0  0  0  0  0
   -6.7500   -1.2990    0.0000 N   0  0  0  0  0  0  0  0  0  0  0  0
   -3.0000    0.0000    0.0000 C   0  0  0  0  0  0  0  0  0  0  0  0
   -3.7500    1.2990    0.0000 N   0  0  0  0  0  0  0  0  0  0  0  0
   -3.0000    2.5981    0.0000 C   0  0  0  0  0  0  0  0  0  0  0  0
   -1.5000    2.5981    0.0000 C   0  0  0  0  0  0  0  0  0  0  0  0
   -0.7500    3.8971    0.0000 C   0  0  0  0  0  0  0  0  0  0  0  0
   -1.5000    5.1962    0.0000 C   0  0  0  0  0  0  0  0  0  0  0  0
   -3.0000    5.1962    0.0000 C   0  0  0  0  0  0  0  0  0  0  0  0
   -3.4635    6.6227    0.0000 C   0  0  0  0  0  0  0  0  0  0  0  0
   -2.2500    7.5044    0.0000 C   0  0  0  0  0  0  0  0  0  0  0  0
   -1.0365    6.6227    0.0000 N   0  0  0  0  0  0  0  0  0  0  0  0
    0.3901    7.0863    0.0000 C   0  0  0  0  0  0  0  0  0  0  0  0
    0.7020    8.5535    0.0000 C   0  0  0  0  0  0  0  0  0  0  0  0
    2.1286    9.0170    0.0000 C   0  0  0  0  0  0  0  0  0  0  0  0
    2.4404   10.4842    0.0000 C   0  0  0  0  0  0  0  0  0  0  0  0
    1.3257   11.4879    0.0000 C   0  0  0  0  0  0  0  0  0  0  0  0
   -0.1009   11.0244    0.0000 C   0  0  0  0  0  0  0  0  0  0  0  0
   -0.4127    9.5572    0.0000 C   0  0  0  0  0  0  0  0  0  0  0  0
   -3.7500    3.8971    0.0000 C   0  0  0  0  0  0  0  0  0  0  0  0
   -1.5000    0.0000    0.0000 C   0  0  0  0  0  0  0  0  0  0  0  0
   -0.7500    1.2990    0.0000 C   0  0  0  0  0  0  0  0  0  0  0  0
    0.7500    1.2990    0.0000 C   0  0  0  0  0  0  0  0  0  0  0  0
    1.5000    2.5981    0.0000 N   0  0  0  0  0  0  0  0  0  0  0  0
    3.0000    2.5981    0.0000 C   0  0  0  0  0  0  0  0  0  0  0  0
    3.7500    1.2990    0.0000 O   0  0  0  0  0  0  0  0  0  0  0  0
    3.7500    3.8971    0.0000 C   0  0  0  0  0  0  0  0  0  0  0  0
    5.2500    3.8971    0.0000 C   0  0  0  0  0  0  0  0  0  0  0  0
    6.0000    5.1962    0.0000 C   0  0  0  0  0  0  0  0  0  0  0  0
    7.5000    5.1962    0.0000 N   0  0  0  0  0  0  0  0  0  0  0  0
    8.2500    6.4952    0.0000 C   0  0  0  0  0  0  0  0  0  0  0  0
    8.2500    3.8971    0.0000 C   0  0  0  0  0  0  0  0  0  0  0  0
  1  2  1  0
  2  3  1  0
  3  4  1  0
  4  5  2  0
  5  6  1  0
  6  7  2  0
  7  8  1  0
  8  9  2  0
  9 10  1  0
 10 11  3  0
  9 12  1  0
 12 13  1  0
 13 14  1  0
 14 15  2  0
 15 16  1  0
 16 17  2  0
 17 18  1  0
 18 19  1  0
 19 20  2  0
 20 21  1  0
 21 22  1  0
 22 23  1  0
 23 24  2  0
 24 25  1  0
 25 26  2  0
 26 27  1  0
 27 28  2  0
 18 29  2  0
 12 30  2  0
 30 31  1  0
 31 32  2  0
 32 33  1  0
 33 34  1  0
 34 35  2  0
 34 36  1  0
 36 37  2  0
 37 38  1  0
 38 39  1  0
 39 40  1  0
 39 41  1  0
 32  4  1  0
 30  6  1  0
 29 14  1  0
 21 17  1  0
 28 23  1  0
M  END
>  <Compound_ID>  (300) 
CHEMBL179652

>  <Active>  (300) 
1.0

>  <Smiles>  (300) 
CCOc1cc2ncc(C#N)c(Nc3ccc4c(ccn4Cc4ccccc4)c3)c2cc1NC(=O)/C=C/CN(C)C

>  <canonical_smi>  (300) 
CCOc1cc2ncc(C#N)c(Nc3ccc4c(ccn4Cc4ccccc4)c3)c2cc1NC(=O)/C=C/CN(C)C

>  <Set>  (300) 
G2 active

>  <Set_type>  (300) 
Train

>  <MW>  (300) 
544.66

>  <HBD>  (300) 
2

>  <HBA>  (300) 
6

>  <NRB>  (300) 
10

>  <NR>  (300) 
5

>  <NAR>  (300) 
5

>  <PSA>  (300) 
95.21

>  <Standard Type>  (300) 
nan

>  <Standard Relation>  (300) 
nan

>  <Standard Units>  (300) 
nan

>  <Standard Value>  (300) 
nan

>  <Assay ChEMBL ID>  (300) 
nan

>  <Assay Description>  (300) 
nan

>  <BAO Label>  (300) 
nan

$$$$

     RDKit          2D

 22 23  0  0  0  0  0  0  0  0999 V2000
   -2.2500   -3.8971    0.0000 N   0  0  0  0  0  0  0  0  0  0  0  0
   -0.7500   -3.8971    0.0000 C   0  0  0  0  0  0  0  0  0  0  0  0
    0.7500   -3.8971    0.0000 C   0  0  0  0  0  0  0  0  0  0  0  0
    1.5000   -2.5981    0.0000 C   0  0  0  0  0  0  0  0  0  0  0  0
    0.7500   -1.2990    0.0000 C   0  0  0  0  0  0  0  0  0  0  0  0
    1.5000    0.0000    0.0000 C   0  0  0  0  0  0  0  0  0  0  0  0
    0.7500    1.2990    0.0000 C   0  0  0  0  0  0  0  0  0  0  0  0
   -0.7500    1.2990    0.0000 C   0  0  0  0  0  0  0  0  0  0  0  0
   -1.5000    2.5981    0.0000 O   0  0  0  0  0  0  0  0  0  0  0  0
   -1.5000    0.0000    0.0000 C   0  0  0  0  0  0  0  0  0  0  0  0
   -3.0000    0.0000    0.0000 O   0  0  0  0  0  0  0  0  0  0  0  0
   -0.7500   -1.2990    0.0000 C   0  0  0  0  0  0  0  0  0  0  0  0
    1.5000   -5.1962    0.0000 C   0  0  0  0  0  0  0  0  0  0  0  0
    3.0000   -5.1962    0.0000 O   0  0  0  0  0  0  0  0  0  0  0  0
    0.7500   -6.4952    0.0000 N   0  0  0  0  0  0  0  0  0  0  0  0
    1.5000   -7.7942    0.0000 C   0  0  0  0  0  0  0  0  0  0  0  0
    0.7500   -9.0933    0.0000 C   0  0  0  0  0  0  0  0  0  0  0  0
   -0.7500   -9.0933    0.0000 C   0  0  0  0  0  0  0  0  0  0  0  0
   -1.5000  -10.3923    0.0000 C   0  0  0  0  0  0  0  0  0  0  0  0
   -0.7500  -11.6913    0.0000 C   0  0  0  0  0  0  0  0  0  0  0  0
    0.7500  -11.6913    0.0000 C   0  0  0  0  0  0  0  0  0  0  0  0
    1.5000  -10.3923    0.0000 C   0  0  0  0  0  0  0  0  0  0  0  0
  1  2  3  0
  2  3  1  0
  3  4  2  0
  4  5  1  0
  5  6  2  0
  6  7  1  0
  7  8  2  0
  8  9  1  0
  8 10  1  0
 10 11  1  0
 10 12  2  0
  3 13  1  0
 13 14  2  0
 13 15  1  0
 15 16  1  0
 16 17  1  0
 17 18  2  0
 18 19  1  0
 19 20  2  0
 20 21  1  0
 21 22  2  0
 12  5  1  0
 22 17  1  0
M  END
>  <Compound_ID>  (301) 
CHEMBL56543

>  <Active>  (301) 
1.0

>  <Smiles>  (301) 
N#C/C(=C\c1ccc(O)c(O)c1)C(=O)NCc1ccccc1

>  <canonical_smi>  (301) 
N#C/C(=C\c1ccc(O)c(O)c1)C(=O)NCc1ccccc1

>  <Set>  (301) 
G2 active

>  <Set_type>  (301) 
Train

>  <MW>  (301) 
294.31

>  <HBD>  (301) 
3

>  <HBA>  (301) 
4

>  <NRB>  (301) 
4

>  <NR>  (301) 
2

>  <NAR>  (301) 
2

>  <PSA>  (301) 
93.35

>  <Standard Type>  (301) 
nan

>  <Standard Relation>  (301) 
nan

>  <Standard Units>  (301) 
nan

>  <Standard Value>  (301) 
nan

>  <Assay ChEMBL ID>  (301) 
nan

>  <Assay Description>  (301) 
nan

>  <BAO Label>  (301) 
nan

$$$$

     RDKit          2D

 30 33  0  0  0  0  0  0  0  0999 V2000
   -5.2500   -3.8971    0.0000 C   0  0  0  0  0  0  0  0  0  0  0  0
   -3.7500   -3.8971    0.0000 O   0  0  0  0  0  0  0  0  0  0  0  0
   -3.0000   -2.5981    0.0000 C   0  0  0  0  0  0  0  0  0  0  0  0
   -1.5000   -2.5981    0.0000 C   0  0  0  0  0  0  0  0  0  0  0  0
   -0.7500   -1.2990    0.0000 C   0  0  0  0  0  0  0  0  0  0  0  0
    0.7500   -1.2990    0.0000 C   0  0  0  0  0  0  0  0  0  0  0  0
    1.5000   -2.5981    0.0000 N   0  0  0  0  0  0  0  0  0  0  0  0
    3.0000   -2.5981    0.0000 C   0  0  0  0  0  0  0  0  0  0  0  0
    3.7500   -3.8971    0.0000 C   0  0  0  0  0  0  0  0  0  0  0  0
    5.2500   -3.8971    0.0000 C   0  0  0  0  0  0  0  0  0  0  0  0
    6.0000   -2.5981    0.0000 C   0  0  0  0  0  0  0  0  0  0  0  0
    7.5000   -2.5981    0.0000 Cl  0  0  0  0  0  0  0  0  0  0  0  0
    5.2500   -1.2990    0.0000 C   0  0  0  0  0  0  0  0  0  0  0  0
    3.7500   -1.2990    0.0000 C   0  0  0  0  0  0  0  0  0  0  0  0
    3.0000   -0.0000    0.0000 F   0  0  0  0  0  0  0  0  0  0  0  0
    1.5000    0.0000    0.0000 N   0  0  0  0  0  0  0  0  0  0  0  0
    0.7500    1.2990    0.0000 C   0  0  0  0  0  0  0  0  0  0  0  0
   -0.7500    1.2990    0.0000 N   0  0  0  0  0  0  0  0  0  0  0  0
   -1.5000    0.0000    0.0000 C   0  0  0  0  0  0  0  0  0  0  0  0
   -3.0000    0.0000    0.0000 C   0  0  0  0  0  0  0  0  0  0  0  0
   -3.7500   -1.2990    0.0000 C   0  0  0  0  0  0  0  0  0  0  0  0
   -5.2500   -1.2990    0.0000 O   0  0  0  0  0  0  0  0  0  0  0  0
   -6.0000    0.0000    0.0000 C   0  0  0  0  0  0  0  0  0  0  0  0
   -7.5000    0.0000    0.0000 C   0  0  0  0  0  0  0  0  0  0  0  0
   -8.2500    1.2990    0.0000 C   0  0  0  0  0  0  0  0  0  0  0  0
   -9.7500    1.2990    0.0000 C   0  0  0  0  0  0  0  0  0  0  0  0
  -10.5000    0.0000    0.0000 C   0  0  0  0  0  0  0  0  0  0  0  0
   -9.7500   -1.2990    0.0000 N   0  0  0  0  0  0  0  0  0  0  0  0
  -10.5000   -2.5981    0.0000 C   0  0  0  0  0  0  0  0  0  0  0  0
   -8.2500   -1.2990    0.0000 C   0  0  0  0  0  0  0  0  0  0  0  0
  1  2  1  0
  2  3  1  0
  3  4  2  0
  4  5  1  0
  5  6  2  0
  6  7  1  0
  7  8  1  0
  8  9  2  0
  9 10  1  0
 10 11  2  0
 11 12  1  0
 11 13  1  0
 13 14  2  0
 14 15  1  0
  6 16  1  0
 16 17  2  0
 17 18  1  0
 18 19  2  0
 19 20  1  0
 20 21  2  0
 21 22  1  0
 22 23  1  0
 23 24  1  0
 24 25  1  0
 25 26  1  0
 26 27  1  0
 27 28  1  0
 28 29  1  0
 28 30  1  0
 21  3  1  0
 30 24  1  0
 19  5  1  0
 14  8  1  0
M  END
>  <Compound_ID>  (302) 
CHEMBL24138

>  <Active>  (302) 
1.0

>  <Smiles>  (302) 
COc1cc2c(Nc3ccc(Cl)cc3F)ncnc2cc1OCC1CCCN(C)C1

>  <canonical_smi>  (302) 
COc1cc2c(Nc3ccc(Cl)cc3F)ncnc2cc1OCC1CCCN(C)C1

>  <Set>  (302) 
G2 active

>  <Set_type>  (302) 
Train

>  <MW>  (302) 
430.91

>  <HBD>  (302) 
1

>  <HBA>  (302) 
6

>  <NRB>  (302) 
6

>  <NR>  (302) 
4

>  <NAR>  (302) 
3

>  <PSA>  (302) 
59.51

>  <Standard Type>  (302) 
nan

>  <Standard Relation>  (302) 
nan

>  <Standard Units>  (302) 
nan

>  <Standard Value>  (302) 
nan

>  <Assay ChEMBL ID>  (302) 
nan

>  <Assay Description>  (302) 
nan

>  <BAO Label>  (302) 
nan

$$$$

     RDKit          2D

 30 33  0  0  0  0  0  0  0  0999 V2000
   -0.7500   -3.8971    0.0000 O   0  0  0  0  0  0  0  0  0  0  0  0
    0.7500   -3.8971    0.0000 C   0  0  0  0  0  0  0  0  0  0  0  0
    1.5000   -5.1962    0.0000 C   0  0  0  0  0  0  0  0  0  0  0  0
    0.7500   -6.4952    0.0000 C   0  0  0  0  0  0  0  0  0  0  0  0
    1.5000   -7.7942    0.0000 C   0  0  0  0  0  0  0  0  0  0  0  0
    0.7500   -9.0933    0.0000 N   0  0  0  0  0  0  0  0  0  0  0  0
   -0.7500   -9.0933    0.0000 C   0  0  0  0  0  0  0  0  0  0  0  0
   -1.5000  -10.3923    0.0000 C   0  0  0  0  0  0  0  0  0  0  0  0
   -0.7500  -11.6913    0.0000 C   0  0  0  0  0  0  0  0  0  0  0  0
    0.7500  -11.6913    0.0000 C   0  0  0  0  0  0  0  0  0  0  0  0
    1.5000  -10.3923    0.0000 C   0  0  0  0  0  0  0  0  0  0  0  0
    1.5000   -2.5981    0.0000 N   0  0  0  0  0  0  0  0  0  0  0  0
    0.7500   -1.2990    0.0000 C   0  0  0  0  0  0  0  0  0  0  0  0
    1.5000    0.0000    0.0000 C   0  0  0  0  0  0  0  0  0  0  0  0
    0.7500    1.2990    0.0000 C   0  0  0  0  0  0  0  0  0  0  0  0
   -0.7500    1.2990    0.0000 C   0  0  0  0  0  0  0  0  0  0  0  0
   -1.5000    2.5981    0.0000 N   0  0  0  0  0  0  0  0  0  0  0  0
   -3.0000    2.5981    0.0000 C   0  0  0  0  0  0  0  0  0  0  0  0
   -3.7500    1.2990    0.0000 N   0  0  0  0  0  0  0  0  0  0  0  0
   -3.0000    0.0000    0.0000 C   0  0  0  0  0  0  0  0  0  0  0  0
   -3.7500   -1.2990    0.0000 N   0  0  0  0  0  0  0  0  0  0  0  0
   -5.2500   -1.2990    0.0000 C   0  0  0  0  0  0  0  0  0  0  0  0
   -6.0000    0.0000    0.0000 C   0  0  0  0  0  0  0  0  0  0  0  0
   -7.5000    0.0000    0.0000 C   0  0  0  0  0  0  0  0  0  0  0  0
   -8.2500   -1.2990    0.0000 C   0  0  0  0  0  0  0  0  0  0  0  0
   -7.5000   -2.5981    0.0000 C   0  0  0  0  0  0  0  0  0  0  0  0
   -8.2500   -3.8971    0.0000 Br  0  0  0  0  0  0  0  0  0  0  0  0
   -6.0000   -2.5981    0.0000 C   0  0  0  0  0  0  0  0  0  0  0  0
   -1.5000    0.0000    0.0000 C   0  0  0  0  0  0  0  0  0  0  0  0
   -0.7500   -1.2990    0.0000 C   0  0  0  0  0  0  0  0  0  0  0  0
  1  2  2  0
  2  3  1  0
  3  4  2  0
  4  5  1  0
  5  6  1  0
  6  7  1  0
  7  8  1  0
  8  9  1  0
  9 10  1  0
 10 11  1  0
  2 12  1  0
 12 13  1  0
 13 14  2  0
 14 15  1  0
 15 16  2  0
 16 17  1  0
 17 18  2  0
 18 19  1  0
 19 20  2  0
 20 21  1  0
 21 22  1  0
 22 23  2  0
 23 24  1  0
 24 25  2  0
 25 26  1  0
 26 27  1  0
 26 28  2  0
 20 29  1  0
 29 30  2  0
 11  6  1  0
 30 13  1  0
 29 16  1  0
 28 22  1  0
M  END
>  <Compound_ID>  (303) 
CHEMBL94068

>  <Active>  (303) 
1.0

>  <Smiles>  (303) 
O=C(/C=C/CN1CCCCC1)Nc1ccc2ncnc(Nc3cccc(Br)c3)c2c1

>  <canonical_smi>  (303) 
O=C(/C=C/CN1CCCCC1)Nc1ccc2ncnc(Nc3cccc(Br)c3)c2c1

>  <Set>  (303) 
G2 active

>  <Set_type>  (303) 
Train

>  <MW>  (303) 
466.38

>  <HBD>  (303) 
2

>  <HBA>  (303) 
5

>  <NRB>  (303) 
6

>  <NR>  (303) 
4

>  <NAR>  (303) 
3

>  <PSA>  (303) 
70.15

>  <Standard Type>  (303) 
nan

>  <Standard Relation>  (303) 
nan

>  <Standard Units>  (303) 
nan

>  <Standard Value>  (303) 
nan

>  <Assay ChEMBL ID>  (303) 
nan

>  <Assay Description>  (303) 
nan

>  <BAO Label>  (303) 
nan

$$$$

     RDKit          2D

 30 33  0  0  0  0  0  0  0  0999 V2000
    0.7500   -6.4952    0.0000 C   0  0  0  0  0  0  0  0  0  0  0  0
    1.5000   -5.1962    0.0000 C   0  0  0  0  0  0  0  0  0  0  0  0
    3.0000   -5.1962    0.0000 C   0  0  0  0  0  0  0  0  0  0  0  0
    3.7500   -6.4952    0.0000 N   0  0  0  0  0  0  0  0  0  0  0  0
    3.0000   -7.7942    0.0000 C   0  0  0  0  0  0  0  0  0  0  0  0
    3.7500   -9.0933    0.0000 C   0  0  0  0  0  0  0  0  0  0  0  0
    5.2500   -9.0933    0.0000 O   0  0  0  0  0  0  0  0  0  0  0  0
    6.0000   -7.7942    0.0000 C   0  0  0  0  0  0  0  0  0  0  0  0
    5.2500   -6.4952    0.0000 C   0  0  0  0  0  0  0  0  0  0  0  0
    0.7500   -3.8971    0.0000 C   0  0  0  0  0  0  0  0  0  0  0  0
   -0.7500   -3.8971    0.0000 O   0  0  0  0  0  0  0  0  0  0  0  0
    1.5000   -2.5981    0.0000 N   0  0  0  0  0  0  0  0  0  0  0  0
    0.7500   -1.2990    0.0000 C   0  0  0  0  0  0  0  0  0  0  0  0
    1.5000    0.0000    0.0000 C   0  0  0  0  0  0  0  0  0  0  0  0
    0.7500    1.2990    0.0000 C   0  0  0  0  0  0  0  0  0  0  0  0
   -0.7500    1.2990    0.0000 C   0  0  0  0  0  0  0  0  0  0  0  0
   -1.5000    2.5981    0.0000 N   0  0  0  0  0  0  0  0  0  0  0  0
   -3.0000    2.5981    0.0000 C   0  0  0  0  0  0  0  0  0  0  0  0
   -3.7500    1.2990    0.0000 N   0  0  0  0  0  0  0  0  0  0  0  0
   -3.0000    0.0000    0.0000 C   0  0  0  0  0  0  0  0  0  0  0  0
   -3.7500   -1.2990    0.0000 N   0  0  0  0  0  0  0  0  0  0  0  0
   -5.2500   -1.2990    0.0000 C   0  0  0  0  0  0  0  0  0  0  0  0
   -6.0000    0.0000    0.0000 C   0  0  0  0  0  0  0  0  0  0  0  0
   -7.5000    0.0000    0.0000 C   0  0  0  0  0  0  0  0  0  0  0  0
   -8.2500   -1.2990    0.0000 C   0  0  0  0  0  0  0  0  0  0  0  0
   -7.5000   -2.5981    0.0000 C   0  0  0  0  0  0  0  0  0  0  0  0
   -8.2500   -3.8971    0.0000 Br  0  0  0  0  0  0  0  0  0  0  0  0
   -6.0000   -2.5981    0.0000 C   0  0  0  0  0  0  0  0  0  0  0  0
   -1.5000    0.0000    0.0000 C   0  0  0  0  0  0  0  0  0  0  0  0
   -0.7500   -1.2990    0.0000 C   0  0  0  0  0  0  0  0  0  0  0  0
  1  2  2  0
  2  3  1  0
  3  4  1  0
  4  5  1  0
  5  6  1  0
  6  7  1  0
  7  8  1  0
  8  9  1  0
  2 10  1  0
 10 11  2  0
 10 12  1  0
 12 13  1  0
 13 14  2  0
 14 15  1  0
 15 16  2  0
 16 17  1  0
 17 18  2  0
 18 19  1  0
 19 20  2  0
 20 21  1  0
 21 22  1  0
 22 23  2  0
 23 24  1  0
 24 25  2  0
 25 26  1  0
 26 27  1  0
 26 28  2  0
 20 29  1  0
 29 30  2  0
  9  4  1  0
 30 13  1  0
 29 16  1  0
 28 22  1  0
M  END
>  <Compound_ID>  (304) 
CHEMBL94066

>  <Active>  (304) 
1.0

>  <Smiles>  (304) 
C=C(CN1CCOCC1)C(=O)Nc1ccc2ncnc(Nc3cccc(Br)c3)c2c1

>  <canonical_smi>  (304) 
C=C(CN1CCOCC1)C(=O)Nc1ccc2ncnc(Nc3cccc(Br)c3)c2c1

>  <Set>  (304) 
G2 active

>  <Set_type>  (304) 
Train

>  <MW>  (304) 
468.36

>  <HBD>  (304) 
2

>  <HBA>  (304) 
6

>  <NRB>  (304) 
6

>  <NR>  (304) 
4

>  <NAR>  (304) 
3

>  <PSA>  (304) 
79.38

>  <Standard Type>  (304) 
nan

>  <Standard Relation>  (304) 
nan

>  <Standard Units>  (304) 
nan

>  <Standard Value>  (304) 
nan

>  <Assay ChEMBL ID>  (304) 
nan

>  <Assay Description>  (304) 
nan

>  <BAO Label>  (304) 
nan

$$$$

     RDKit          2D

 30 33  0  0  0  0  0  0  0  0999 V2000
   -3.0000   -5.1962    0.0000 O   0  0  0  0  0  0  0  0  0  0  0  0
   -3.7500   -3.8971    0.0000 C   0  0  0  0  0  0  0  0  0  0  0  0
   -3.0000   -2.5981    0.0000 O   0  0  0  0  0  0  0  0  0  0  0  0
   -1.5000   -2.5981    0.0000 C   0  0  0  0  0  0  0  0  0  0  0  0
   -0.7500   -3.8971    0.0000 C   0  0  0  0  0  0  0  0  0  0  0  0
    0.7500   -3.8971    0.0000 C   0  0  0  0  0  0  0  0  0  0  0  0
    1.5000   -2.5981    0.0000 C   0  0  0  0  0  0  0  0  0  0  0  0
    0.7500   -1.2990    0.0000 C   0  0  0  0  0  0  0  0  0  0  0  0
    1.5000    0.0000    0.0000 C   0  0  0  0  0  0  0  0  0  0  0  0
    0.7500    1.2990    0.0000 C   0  0  0  0  0  0  0  0  0  0  0  0
   -0.7500    1.2990    0.0000 C   0  0  0  0  0  0  0  0  0  0  0  0
   -1.5000    0.0000    0.0000 C   0  0  0  0  0  0  0  0  0  0  0  0
   -0.7500   -1.2990    0.0000 C   0  0  0  0  0  0  0  0  0  0  0  0
   -5.2500   -3.8971    0.0000 C   0  0  0  0  0  0  0  0  0  0  0  0
   -6.0000   -2.5981    0.0000 C   0  0  0  0  0  0  0  0  0  0  0  0
   -7.5000   -2.5981    0.0000 C   0  0  0  0  0  0  0  0  0  0  0  0
   -8.2500   -1.2990    0.0000 N   0  0  0  0  0  0  0  0  0  0  0  0
   -7.5000    0.0000    0.0000 C   0  0  0  0  0  0  0  0  0  0  0  0
   -8.2500    1.2990    0.0000 C   0  0  0  0  0  0  0  0  0  0  0  0
   -7.5000    2.5981    0.0000 C   0  0  0  0  0  0  0  0  0  0  0  0
   -8.2500    3.8971    0.0000 C   0  0  0  0  0  0  0  0  0  0  0  0
   -7.5000    5.1962    0.0000 O   0  0  0  0  0  0  0  0  0  0  0  0
   -9.7500    3.8971    0.0000 C   0  0  0  0  0  0  0  0  0  0  0  0
  -10.5000    2.5981    0.0000 C   0  0  0  0  0  0  0  0  0  0  0  0
   -9.7500    1.2990    0.0000 C   0  0  0  0  0  0  0  0  0  0  0  0
  -10.5000    0.0000    0.0000 O   0  0  0  0  0  0  0  0  0  0  0  0
   -8.2500   -3.8971    0.0000 C   0  0  0  0  0  0  0  0  0  0  0  0
   -7.5000   -5.1962    0.0000 C   0  0  0  0  0  0  0  0  0  0  0  0
   -6.0000   -5.1962    0.0000 C   0  0  0  0  0  0  0  0  0  0  0  0
   -5.2500   -6.4952    0.0000 O   0  0  0  0  0  0  0  0  0  0  0  0
  1  2  2  0
  2  3  1  0
  3  4  1  0
  4  5  2  0
  5  6  1  0
  6  7  2  0
  7  8  1  0
  8  9  2  0
  9 10  1  0
 10 11  2  0
 11 12  1  0
 12 13  2  0
  2 14  1  0
 14 15  2  0
 15 16  1  0
 16 17  1  0
 17 18  1  0
 18 19  1  0
 19 20  2  0
 20 21  1  0
 21 22  1  0
 21 23  2  0
 23 24  1  0
 24 25  2  0
 25 26  1  0
 16 27  2  0
 27 28  1  0
 28 29  2  0
 29 30  1  0
 13  4  1  0
 29 14  1  0
 13  8  1  0
 25 19  1  0
M  END
>  <Compound_ID>  (305) 
CHEMBL168915

>  <Active>  (305) 
1.0

>  <Smiles>  (305) 
O=C(Oc1cccc2ccccc12)c1cc(NCc2cc(O)ccc2O)ccc1O

>  <canonical_smi>  (305) 
O=C(Oc1cccc2ccccc12)c1cc(NCc2cc(O)ccc2O)ccc1O

>  <Set>  (305) 
G2 active

>  <Set_type>  (305) 
Train

>  <MW>  (305) 
401.42

>  <HBD>  (305) 
4

>  <HBA>  (305) 
6

>  <NRB>  (305) 
5

>  <NR>  (305) 
4

>  <NAR>  (305) 
4

>  <PSA>  (305) 
99.02

>  <Standard Type>  (305) 
nan

>  <Standard Relation>  (305) 
nan

>  <Standard Units>  (305) 
nan

>  <Standard Value>  (305) 
nan

>  <Assay ChEMBL ID>  (305) 
nan

>  <Assay Description>  (305) 
nan

>  <BAO Label>  (305) 
nan

$$$$

     RDKit          2D

 35 40  0  0  0  0  0  0  0  0999 V2000
   -1.0344   -8.1310    0.0000 F   0  0  0  0  0  0  0  0  0  0  0  0
   -2.1491   -7.1273    0.0000 C   0  0  0  0  0  0  0  0  0  0  0  0
   -3.5757   -7.5908    0.0000 C   0  0  0  0  0  0  0  0  0  0  0  0
   -4.6904   -6.5871    0.0000 C   0  0  0  0  0  0  0  0  0  0  0  0
   -4.3786   -5.1199    0.0000 C   0  0  0  0  0  0  0  0  0  0  0  0
   -2.9520   -4.6564    0.0000 C   0  0  0  0  0  0  0  0  0  0  0  0
   -2.6401   -3.1891    0.0000 C   0  0  0  0  0  0  0  0  0  0  0  0
   -1.2135   -2.7256    0.0000 N   0  0  0  0  0  0  0  0  0  0  0  0
   -0.0000   -3.6073    0.0000 N   0  0  0  0  0  0  0  0  0  0  0  0
    1.2135   -2.7256    0.0000 C   0  0  0  0  0  0  0  0  0  0  0  0
    0.7500   -1.2990    0.0000 C   0  0  0  0  0  0  0  0  0  0  0  0
    1.5000    0.0000    0.0000 C   0  0  0  0  0  0  0  0  0  0  0  0
    0.7500    1.2990    0.0000 C   0  0  0  0  0  0  0  0  0  0  0  0
    1.5000    2.5981    0.0000 N   0  0  0  0  0  0  0  0  0  0  0  0
    3.0000    2.5981    0.0000 C   0  0  0  0  0  0  0  0  0  0  0  0
    3.7500    1.2990    0.0000 N   0  0  0  0  0  0  0  0  0  0  0  0
    5.2500    1.2990    0.0000 C   0  0  0  0  0  0  0  0  0  0  0  0
    6.0000    2.5981    0.0000 N   0  0  0  0  0  0  0  0  0  0  0  0
    5.2500    3.8971    0.0000 N   0  0  0  0  0  0  0  0  0  0  0  0
    5.7135    5.3237    0.0000 C   0  0  0  0  0  0  0  0  0  0  0  0
    4.5000    6.2054    0.0000 C   0  0  0  0  0  0  0  0  0  0  0  0
    3.2865    5.3237    0.0000 C   0  0  0  0  0  0  0  0  0  0  0  0
    1.8599    5.7872    0.0000 C   0  0  0  0  0  0  0  0  0  0  0  0
    1.5480    7.2544    0.0000 N   0  0  0  0  0  0  0  0  0  0  0  0
    0.1214    7.7180    0.0000 C   0  0  0  0  0  0  0  0  0  0  0  0
   -0.1904    9.1852    0.0000 C   0  0  0  0  0  0  0  0  0  0  0  0
   -1.6170    9.6487    0.0000 C   0  0  0  0  0  0  0  0  0  0  0  0
   -2.7317    8.6450    0.0000 N   0  0  0  0  0  0  0  0  0  0  0  0
   -2.4199    7.1778    0.0000 C   0  0  0  0  0  0  0  0  0  0  0  0
   -0.9933    6.7143    0.0000 C   0  0  0  0  0  0  0  0  0  0  0  0
    3.7500    3.8971    0.0000 C   0  0  0  0  0  0  0  0  0  0  0  0
   -0.7500    1.2990    0.0000 C   0  0  0  0  0  0  0  0  0  0  0  0
   -1.5000    0.0000    0.0000 C   0  0  0  0  0  0  0  0  0  0  0  0
   -0.7500   -1.2990    0.0000 C   0  0  0  0  0  0  0  0  0  0  0  0
   -1.8373   -5.6601    0.0000 C   0  0  0  0  0  0  0  0  0  0  0  0
  1  2  1  0
  2  3  2  0
  3  4  1  0
  4  5  2  0
  5  6  1  0
  6  7  1  0
  7  8  1  0
  8  9  1  0
  9 10  2  0
 10 11  1  0
 11 12  2  0
 12 13  1  0
 13 14  1  0
 14 15  1  0
 15 16  2  0
 16 17  1  0
 17 18  2  0
 18 19  1  0
 19 20  1  0
 20 21  2  0
 21 22  1  0
 22 23  1  0
 23 24  1  0
 24 25  1  0
 25 26  1  0
 26 27  1  0
 27 28  1  0
 28 29  1  0
 29 30  1  0
 22 31  2  0
 13 32  2  0
 32 33  1  0
 33 34  2  0
  6 35  2  0
 35  2  1  0
 34  8  1  0
 34 11  1  0
 31 15  1  0
 31 19  1  0
 30 25  1  0
M  END
>  <Compound_ID>  (306) 
CHEMBL392664

>  <Active>  (306) 
1.0

>  <Smiles>  (306) 
Fc1cccc(Cn2ncc3cc(Nc4ncnn5ccc(CNC6CCNCC6)c45)ccc32)c1

>  <canonical_smi>  (306) 
Fc1cccc(Cn2ncc3cc(Nc4ncnn5ccc(CNC6CCNCC6)c45)ccc32)c1

>  <Set>  (306) 
G2 active

>  <Set_type>  (306) 
Train

>  <MW>  (306) 
470.56

>  <HBD>  (306) 
3

>  <HBA>  (306) 
6

>  <NRB>  (306) 
7

>  <NR>  (306) 
6

>  <NAR>  (306) 
5

>  <PSA>  (306) 
84.1

>  <Standard Type>  (306) 
nan

>  <Standard Relation>  (306) 
nan

>  <Standard Units>  (306) 
nan

>  <Standard Value>  (306) 
nan

>  <Assay ChEMBL ID>  (306) 
nan

>  <Assay Description>  (306) 
nan

>  <BAO Label>  (306) 
nan

$$$$

     RDKit          2D

 28 31  0  0  0  0  0  0  0  0999 V2000
    5.2500   -6.4952    0.0000 C   0  0  0  0  0  0  0  0  0  0  0  0
    3.7500   -6.4952    0.0000 N   0  0  0  0  0  0  0  0  0  0  0  0
    3.0000   -7.7942    0.0000 C   0  0  0  0  0  0  0  0  0  0  0  0
    1.5000   -7.7942    0.0000 C   0  0  0  0  0  0  0  0  0  0  0  0
    0.7500   -6.4952    0.0000 C   0  0  0  0  0  0  0  0  0  0  0  0
    1.5000   -5.1962    0.0000 C   0  0  0  0  0  0  0  0  0  0  0  0
    0.7500   -3.8971    0.0000 C   0  0  0  0  0  0  0  0  0  0  0  0
   -0.7500   -3.8971    0.0000 O   0  0  0  0  0  0  0  0  0  0  0  0
    1.5000   -2.5981    0.0000 N   0  0  0  0  0  0  0  0  0  0  0  0
    0.7500   -1.2990    0.0000 C   0  0  0  0  0  0  0  0  0  0  0  0
    1.5000    0.0000    0.0000 C   0  0  0  0  0  0  0  0  0  0  0  0
    0.7500    1.2990    0.0000 C   0  0  0  0  0  0  0  0  0  0  0  0
   -0.7500    1.2990    0.0000 C   0  0  0  0  0  0  0  0  0  0  0  0
   -1.5000    2.5981    0.0000 N   0  0  0  0  0  0  0  0  0  0  0  0
   -3.0000    2.5981    0.0000 C   0  0  0  0  0  0  0  0  0  0  0  0
   -3.7500    1.2990    0.0000 N   0  0  0  0  0  0  0  0  0  0  0  0
   -3.0000    0.0000    0.0000 C   0  0  0  0  0  0  0  0  0  0  0  0
   -3.7500   -1.2990    0.0000 N   0  0  0  0  0  0  0  0  0  0  0  0
   -5.2500   -1.2990    0.0000 C   0  0  0  0  0  0  0  0  0  0  0  0
   -6.0000    0.0000    0.0000 C   0  0  0  0  0  0  0  0  0  0  0  0
   -7.5000    0.0000    0.0000 C   0  0  0  0  0  0  0  0  0  0  0  0
   -8.2500   -1.2990    0.0000 C   0  0  0  0  0  0  0  0  0  0  0  0
   -7.5000   -2.5981    0.0000 C   0  0  0  0  0  0  0  0  0  0  0  0
   -8.2500   -3.8971    0.0000 Br  0  0  0  0  0  0  0  0  0  0  0  0
   -6.0000   -2.5981    0.0000 C   0  0  0  0  0  0  0  0  0  0  0  0
   -1.5000    0.0000    0.0000 C   0  0  0  0  0  0  0  0  0  0  0  0
   -0.7500   -1.2990    0.0000 C   0  0  0  0  0  0  0  0  0  0  0  0
    3.0000   -5.1962    0.0000 C   0  0  0  0  0  0  0  0  0  0  0  0
  1  2  1  0
  2  3  1  0
  3  4  1  0
  4  5  1  0
  5  6  2  0
  6  7  1  0
  7  8  2  0
  7  9  1  0
  9 10  1  0
 10 11  2  0
 11 12  1  0
 12 13  2  0
 13 14  1  0
 14 15  2  0
 15 16  1  0
 16 17  2  0
 17 18  1  0
 18 19  1  0
 19 20  2  0
 20 21  1  0
 21 22  2  0
 22 23  1  0
 23 24  1  0
 23 25  2  0
 17 26  1  0
 26 27  2  0
  6 28  1  0
 28  2  1  0
 27 10  1  0
 26 13  1  0
 25 19  1  0
M  END
>  <Compound_ID>  (307) 
CHEMBL92902

>  <Active>  (307) 
1.0

>  <Smiles>  (307) 
CN1CCC=C(C(=O)Nc2ccc3ncnc(Nc4cccc(Br)c4)c3c2)C1

>  <canonical_smi>  (307) 
CN1CCC=C(C(=O)Nc2ccc3ncnc(Nc4cccc(Br)c4)c3c2)C1

>  <Set>  (307) 
G2 active

>  <Set_type>  (307) 
Train

>  <MW>  (307) 
438.33

>  <HBD>  (307) 
2

>  <HBA>  (307) 
5

>  <NRB>  (307) 
4

>  <NR>  (307) 
4

>  <NAR>  (307) 
3

>  <PSA>  (307) 
70.15

>  <Standard Type>  (307) 
nan

>  <Standard Relation>  (307) 
nan

>  <Standard Units>  (307) 
nan

>  <Standard Value>  (307) 
nan

>  <Assay ChEMBL ID>  (307) 
nan

>  <Assay Description>  (307) 
nan

>  <BAO Label>  (307) 
nan

$$$$

     RDKit          2D

 40 45  0  0  0  0  0  0  0  0999 V2000
   -0.4702  -13.1562    0.0000 O   0  0  0  0  0  0  0  0  0  0  0  0
    1.0216  -12.9994    0.0000 C   0  0  0  0  0  0  0  0  0  0  0  0
    1.6317  -11.6291    0.0000 O   0  0  0  0  0  0  0  0  0  0  0  0
    0.7500  -10.4156    0.0000 C   0  0  0  0  0  0  0  0  0  0  0  0
   -0.7500  -10.4156    0.0000 C   0  0  0  0  0  0  0  0  0  0  0  0
   -1.2135   -8.9890    0.0000 N   0  0  0  0  0  0  0  0  0  0  0  0
    0.0000   -8.1073    0.0000 C   0  0  0  0  0  0  0  0  0  0  0  0
   -0.0000   -6.6073    0.0000 C   0  0  0  0  0  0  0  0  0  0  0  0
   -0.0000   -5.1073    0.0000 C   0  0  0  0  0  0  0  0  0  0  0  0
   -0.0000   -3.6073    0.0000 C   0  0  0  0  0  0  0  0  0  0  0  0
    1.2135   -2.7256    0.0000 C   0  0  0  0  0  0  0  0  0  0  0  0
    0.7500   -1.2990    0.0000 C   0  0  0  0  0  0  0  0  0  0  0  0
    1.5000    0.0000    0.0000 N   0  0  0  0  0  0  0  0  0  0  0  0
    0.7500    1.2990    0.0000 C   0  0  0  0  0  0  0  0  0  0  0  0
   -0.7500    1.2990    0.0000 N   0  0  0  0  0  0  0  0  0  0  0  0
   -1.5000    0.0000    0.0000 C   0  0  0  0  0  0  0  0  0  0  0  0
   -3.0000    0.0000    0.0000 N   0  0  0  0  0  0  0  0  0  0  0  0
   -3.7500    1.2990    0.0000 C   0  0  0  0  0  0  0  0  0  0  0  0
   -3.0000    2.5981    0.0000 C   0  0  0  0  0  0  0  0  0  0  0  0
   -3.7500    3.8971    0.0000 C   0  0  0  0  0  0  0  0  0  0  0  0
   -5.2500    3.8971    0.0000 C   0  0  0  0  0  0  0  0  0  0  0  0
   -6.0000    5.1962    0.0000 O   0  0  0  0  0  0  0  0  0  0  0  0
   -5.2500    6.4952    0.0000 C   0  0  0  0  0  0  0  0  0  0  0  0
   -6.0000    7.7942    0.0000 C   0  0  0  0  0  0  0  0  0  0  0  0
   -7.4918    7.9510    0.0000 C   0  0  0  0  0  0  0  0  0  0  0  0
   -7.8037    9.4182    0.0000 S   0  0  0  0  0  0  0  0  0  0  0  0
   -6.5046   10.1682    0.0000 C   0  0  0  0  0  0  0  0  0  0  0  0
   -5.3899    9.1645    0.0000 N   0  0  0  0  0  0  0  0  0  0  0  0
   -6.0000    2.5981    0.0000 C   0  0  0  0  0  0  0  0  0  0  0  0
   -7.5000    2.5981    0.0000 Cl  0  0  0  0  0  0  0  0  0  0  0  0
   -5.2500    1.2990    0.0000 C   0  0  0  0  0  0  0  0  0  0  0  0
   -0.7500   -1.2990    0.0000 C   0  0  0  0  0  0  0  0  0  0  0  0
   -1.2135   -2.7256    0.0000 S   0  0  0  0  0  0  0  0  0  0  0  0
    1.2135   -8.9890    0.0000 C   0  0  0  0  0  0  0  0  0  0  0  0
    1.9033  -14.2129    0.0000 N   0  0  0  0  0  0  0  0  0  0  0  0
    1.2931  -15.5833    0.0000 C   0  0  0  0  0  0  0  0  0  0  0  0
    2.1748  -16.7968    0.0000 C   0  0  0  0  0  0  0  0  0  0  0  0
    3.6666  -16.6400    0.0000 O   0  0  0  0  0  0  0  0  0  0  0  0
    4.2767  -15.2697    0.0000 C   0  0  0  0  0  0  0  0  0  0  0  0
    3.3950  -14.0561    0.0000 C   0  0  0  0  0  0  0  0  0  0  0  0
  1  2  2  0
  2  3  1  0
  4  3  1  1
  4  5  1  0
  5  6  1  0
  6  7  1  0
  7  8  1  6
  8  9  3  0
  9 10  1  0
 10 11  2  0
 11 12  1  0
 12 13  2  0
 13 14  1  0
 14 15  2  0
 15 16  1  0
 16 17  1  0
 17 18  1  0
 18 19  2  0
 19 20  1  0
 20 21  2  0
 21 22  1  0
 22 23  1  0
 23 24  1  0
 24 25  2  0
 25 26  1  0
 26 27  1  0
 27 28  2  0
 21 29  1  0
 29 30  1  0
 29 31  2  0
 16 32  2  0
 32 33  1  0
  7 34  1  0
  2 35  1  0
 35 36  1  0
 36 37  1  0
 37 38  1  0
 38 39  1  0
 39 40  1  0
 34  4  1  0
 40 35  1  0
 33 10  1  0
 32 12  1  0
 31 18  1  0
 28 24  1  0
M  END
>  <Compound_ID>  (308) 
CHEMBL508760

>  <Active>  (308) 
1.0

>  <Smiles>  (308) 
O=C(O[C@H]1CN[C@H](C#Cc2cc3ncnc(Nc4ccc(OCc5cscn5)c(Cl)c4)c3s2)C1)N1CCOCC1

>  <canonical_smi>  (308) 
O=C(O[C@H]1CN[C@H](C#Cc2cc3ncnc(Nc4ccc(OCc5cscn5)c(Cl)c4)c3s2)C1)N1CCOCC1

>  <Set>  (308) 
G2 active

>  <Set_type>  (308) 
Train

>  <MW>  (308) 
597.12

>  <HBD>  (308) 
2

>  <HBA>  (308) 
9

>  <NRB>  (308) 
6

>  <NR>  (308) 
6

>  <NAR>  (308) 
4

>  <PSA>  (308) 
110.73

>  <Standard Type>  (308) 
nan

>  <Standard Relation>  (308) 
nan

>  <Standard Units>  (308) 
nan

>  <Standard Value>  (308) 
nan

>  <Assay ChEMBL ID>  (308) 
nan

>  <Assay Description>  (308) 
nan

>  <BAO Label>  (308) 
nan

$$$$

     RDKit          2D

 37 40  0  0  0  0  0  0  0  0999 V2000
    9.7500   -3.8971    0.0000 C   0  0  0  0  0  0  0  0  0  0  0  0
    8.2500   -3.8971    0.0000 C   0  0  0  0  0  0  0  0  0  0  0  0
    7.5000   -2.5981    0.0000 N   0  0  0  0  0  0  0  0  0  0  0  0
    8.2500   -1.2990    0.0000 C   0  0  0  0  0  0  0  0  0  0  0  0
    9.7500   -1.2990    0.0000 C   0  0  0  0  0  0  0  0  0  0  0  0
   10.5000    0.0000    0.0000 O   0  0  0  0  0  0  0  0  0  0  0  0
    6.0000   -2.5981    0.0000 C   0  0  0  0  0  0  0  0  0  0  0  0
    5.2500   -1.2990    0.0000 C   0  0  0  0  0  0  0  0  0  0  0  0
    3.7500   -1.2990    0.0000 C   0  0  0  0  0  0  0  0  0  0  0  0
    3.0000    0.0000    0.0000 O   0  0  0  0  0  0  0  0  0  0  0  0
    1.5000    0.0000    0.0000 C   0  0  0  0  0  0  0  0  0  0  0  0
    0.7500   -1.2990    0.0000 C   0  0  0  0  0  0  0  0  0  0  0  0
   -0.7500   -1.2990    0.0000 C   0  0  0  0  0  0  0  0  0  0  0  0
   -1.5000    0.0000    0.0000 C   0  0  0  0  0  0  0  0  0  0  0  0
   -3.0000    0.0000    0.0000 C   0  0  0  0  0  0  0  0  0  0  0  0
   -3.7500   -1.2990    0.0000 N   0  0  0  0  0  0  0  0  0  0  0  0
   -5.2500   -1.2990    0.0000 C   0  0  0  0  0  0  0  0  0  0  0  0
   -6.1317   -2.5126    0.0000 C   0  0  0  0  0  0  0  0  0  0  0  0
   -7.5583   -2.0490    0.0000 C   0  0  0  0  0  0  0  0  0  0  0  0
   -8.7718   -2.9307    0.0000 C   0  0  0  0  0  0  0  0  0  0  0  0
  -10.1421   -2.3206    0.0000 C   0  0  0  0  0  0  0  0  0  0  0  0
  -10.2989   -0.8288    0.0000 O   0  0  0  0  0  0  0  0  0  0  0  0
  -11.3556   -3.2023    0.0000 N   0  0  0  0  0  0  0  0  0  0  0  0
  -12.7260   -2.5922    0.0000 C   0  0  0  0  0  0  0  0  0  0  0  0
  -12.8827   -1.1004    0.0000 C   0  0  0  0  0  0  0  0  0  0  0  0
  -14.2531   -0.4903    0.0000 C   0  0  0  0  0  0  0  0  0  0  0  0
  -15.4666   -1.3720    0.0000 C   0  0  0  0  0  0  0  0  0  0  0  0
  -15.3098   -2.8638    0.0000 C   0  0  0  0  0  0  0  0  0  0  0  0
  -16.5233   -3.7454    0.0000 F   0  0  0  0  0  0  0  0  0  0  0  0
  -13.9395   -3.4739    0.0000 C   0  0  0  0  0  0  0  0  0  0  0  0
   -7.5583   -0.5490    0.0000 N   0  0  0  0  0  0  0  0  0  0  0  0
   -6.1317   -0.0855    0.0000 N   0  0  0  0  0  0  0  0  0  0  0  0
   -3.7500    1.2990    0.0000 N   0  0  0  0  0  0  0  0  0  0  0  0
   -3.0000    2.5981    0.0000 C   0  0  0  0  0  0  0  0  0  0  0  0
   -1.5000    2.5981    0.0000 N   0  0  0  0  0  0  0  0  0  0  0  0
   -0.7500    1.2990    0.0000 C   0  0  0  0  0  0  0  0  0  0  0  0
    0.7500    1.2990    0.0000 C   0  0  0  0  0  0  0  0  0  0  0  0
  1  2  1  0
  2  3  1  0
  3  4  1  0
  4  5  1  0
  5  6  1  0
  3  7  1  0
  7  8  1  0
  8  9  1  0
  9 10  1  0
 10 11  1  0
 11 12  2  0
 12 13  1  0
 13 14  2  0
 14 15  1  0
 15 16  1  0
 16 17  1  0
 17 18  1  0
 18 19  2  0
 19 20  1  0
 20 21  1  0
 21 22  2  0
 21 23  1  0
 23 24  1  0
 24 25  2  0
 25 26  1  0
 26 27  2  0
 27 28  1  0
 28 29  1  0
 28 30  2  0
 19 31  1  0
 31 32  1  0
 15 33  2  0
 33 34  1  0
 34 35  2  0
 35 36  1  0
 36 37  2  0
 37 11  1  0
 36 14  1  0
 32 17  2  0
 30 24  1  0
M  END
>  <Compound_ID>  (309) 
CHEMBL215152

>  <Active>  (309) 
1.0

>  <Smiles>  (309) 
CCN(CCO)CCCOc1ccc2c(Nc3cc(CC(=O)Nc4cccc(F)c4)[nH]n3)ncnc2c1

>  <canonical_smi>  (309) 
CCN(CCO)CCCOc1ccc2c(Nc3cc(CC(=O)Nc4cccc(F)c4)[nH]n3)ncnc2c1

>  <Set>  (309) 
G2 active

>  <Set_type>  (309) 
Train

>  <MW>  (309) 
507.57

>  <HBD>  (309) 
4

>  <HBA>  (309) 
8

>  <NRB>  (309) 
13

>  <NR>  (309) 
4

>  <NAR>  (309) 
4

>  <PSA>  (309) 
128.29

>  <Standard Type>  (309) 
nan

>  <Standard Relation>  (309) 
nan

>  <Standard Units>  (309) 
nan

>  <Standard Value>  (309) 
nan

>  <Assay ChEMBL ID>  (309) 
nan

>  <Assay Description>  (309) 
nan

>  <BAO Label>  (309) 
nan

$$$$

     RDKit          2D

 29 32  0  0  0  0  0  0  0  0999 V2000
    0.4775   -9.6721    0.0000 C   0  0  0  0  0  0  0  0  0  0  0  0
    1.8478   -9.0619    0.0000 C   0  0  0  0  0  0  0  0  0  0  0  0
    3.0613   -9.9436    0.0000 C   0  0  0  0  0  0  0  0  0  0  0  0
    2.0046   -7.5702    0.0000 C   0  0  0  0  0  0  0  0  0  0  0  0
    3.3037   -6.8202    0.0000 N   0  0  0  0  0  0  0  0  0  0  0  0
    2.9918   -5.3529    0.0000 S   0  0  0  0  0  0  0  0  0  0  0  0
    1.5000   -5.1962    0.0000 C   0  0  0  0  0  0  0  0  0  0  0  0
    0.7500   -3.8971    0.0000 C   0  0  0  0  0  0  0  0  0  0  0  0
   -0.7500   -3.8971    0.0000 O   0  0  0  0  0  0  0  0  0  0  0  0
    1.5000   -2.5981    0.0000 N   0  0  0  0  0  0  0  0  0  0  0  0
    0.7500   -1.2990    0.0000 C   0  0  0  0  0  0  0  0  0  0  0  0
    1.5000    0.0000    0.0000 C   0  0  0  0  0  0  0  0  0  0  0  0
    0.7500    1.2990    0.0000 C   0  0  0  0  0  0  0  0  0  0  0  0
   -0.7500    1.2990    0.0000 C   0  0  0  0  0  0  0  0  0  0  0  0
   -1.5000    2.5981    0.0000 N   0  0  0  0  0  0  0  0  0  0  0  0
   -3.0000    2.5981    0.0000 C   0  0  0  0  0  0  0  0  0  0  0  0
   -3.7500    1.2990    0.0000 N   0  0  0  0  0  0  0  0  0  0  0  0
   -3.0000    0.0000    0.0000 C   0  0  0  0  0  0  0  0  0  0  0  0
   -3.7500   -1.2990    0.0000 N   0  0  0  0  0  0  0  0  0  0  0  0
   -5.2500   -1.2990    0.0000 C   0  0  0  0  0  0  0  0  0  0  0  0
   -6.0000    0.0000    0.0000 C   0  0  0  0  0  0  0  0  0  0  0  0
   -7.5000    0.0000    0.0000 C   0  0  0  0  0  0  0  0  0  0  0  0
   -8.2500   -1.2990    0.0000 C   0  0  0  0  0  0  0  0  0  0  0  0
   -7.5000   -2.5981    0.0000 C   0  0  0  0  0  0  0  0  0  0  0  0
   -8.2500   -3.8971    0.0000 Br  0  0  0  0  0  0  0  0  0  0  0  0
   -6.0000   -2.5981    0.0000 C   0  0  0  0  0  0  0  0  0  0  0  0
   -1.5000    0.0000    0.0000 C   0  0  0  0  0  0  0  0  0  0  0  0
   -0.7500   -1.2990    0.0000 C   0  0  0  0  0  0  0  0  0  0  0  0
    0.8899   -6.5665    0.0000 N   0  0  0  0  0  0  0  0  0  0  0  0
  1  2  1  0
  2  3  1  0
  2  4  1  0
  4  5  2  0
  5  6  1  0
  6  7  1  0
  7  8  1  0
  8  9  2  0
  8 10  1  0
 10 11  1  0
 11 12  2  0
 12 13  1  0
 13 14  2  0
 14 15  1  0
 15 16  2  0
 16 17  1  0
 17 18  2  0
 18 19  1  0
 19 20  1  0
 20 21  2  0
 21 22  1  0
 22 23  2  0
 23 24  1  0
 24 25  1  0
 24 26  2  0
 18 27  1  0
 27 28  2  0
  7 29  2  0
 29  4  1  0
 28 11  1  0
 27 14  1  0
 26 20  1  0
M  END
>  <Compound_ID>  (310) 
CHEMBL606403

>  <Active>  (310) 
1.0

>  <Smiles>  (310) 
CC(C)c1nsc(C(=O)Nc2ccc3ncnc(Nc4cccc(Br)c4)c3c2)n1

>  <canonical_smi>  (310) 
CC(C)c1nsc(C(=O)Nc2ccc3ncnc(Nc4cccc(Br)c4)c3c2)n1

>  <Set>  (310) 
G2 active

>  <Set_type>  (310) 
Train

>  <MW>  (310) 
469.37

>  <HBD>  (310) 
2

>  <HBA>  (310) 
6

>  <NRB>  (310) 
5

>  <NR>  (310) 
4

>  <NAR>  (310) 
4

>  <PSA>  (310) 
92.69

>  <Standard Type>  (310) 
nan

>  <Standard Relation>  (310) 
nan

>  <Standard Units>  (310) 
nan

>  <Standard Value>  (310) 
nan

>  <Assay ChEMBL ID>  (310) 
nan

>  <Assay Description>  (310) 
nan

>  <BAO Label>  (310) 
nan

$$$$

     RDKit          2D

 25 28  0  0  0  0  0  0  0  0999 V2000
    6.0000   -0.0000    0.0000 C   0  0  0  0  0  0  0  0  0  0  0  0
    5.2500   -1.2990    0.0000 C   0  0  0  0  0  0  0  0  0  0  0  0
    6.0000   -2.5981    0.0000 C   0  0  0  0  0  0  0  0  0  0  0  0
    5.2500   -3.8971    0.0000 C   0  0  0  0  0  0  0  0  0  0  0  0
    3.7500   -3.8971    0.0000 C   0  0  0  0  0  0  0  0  0  0  0  0
    3.0000   -2.5981    0.0000 C   0  0  0  0  0  0  0  0  0  0  0  0
    1.5000   -2.5981    0.0000 N   0  0  0  0  0  0  0  0  0  0  0  0
    0.7500   -1.2990    0.0000 C   0  0  0  0  0  0  0  0  0  0  0  0
    1.5000    0.0000    0.0000 N   0  0  0  0  0  0  0  0  0  0  0  0
    0.7500    1.2990    0.0000 C   0  0  0  0  0  0  0  0  0  0  0  0
   -0.7500    1.2990    0.0000 N   0  0  0  0  0  0  0  0  0  0  0  0
   -1.5000    0.0000    0.0000 C   0  0  0  0  0  0  0  0  0  0  0  0
   -2.9672   -0.3119    0.0000 N   0  0  0  0  0  0  0  0  0  0  0  0
   -3.1240   -1.8037    0.0000 N   0  0  0  0  0  0  0  0  0  0  0  0
   -1.7537   -2.4138    0.0000 C   0  0  0  0  0  0  0  0  0  0  0  0
   -1.4418   -3.8810    0.0000 N   0  0  0  0  0  0  0  0  0  0  0  0
   -2.5565   -4.8847    0.0000 C   0  0  0  0  0  0  0  0  0  0  0  0
   -3.9831   -4.4211    0.0000 C   0  0  0  0  0  0  0  0  0  0  0  0
   -5.0978   -5.4248    0.0000 C   0  0  0  0  0  0  0  0  0  0  0  0
   -4.7860   -6.8921    0.0000 C   0  0  0  0  0  0  0  0  0  0  0  0
   -3.3594   -7.3556    0.0000 C   0  0  0  0  0  0  0  0  0  0  0  0
   -3.0475   -8.8228    0.0000 Cl  0  0  0  0  0  0  0  0  0  0  0  0
   -2.2447   -6.3519    0.0000 C   0  0  0  0  0  0  0  0  0  0  0  0
   -0.7500   -1.2990    0.0000 C   0  0  0  0  0  0  0  0  0  0  0  0
    3.7500   -1.2990    0.0000 C   0  0  0  0  0  0  0  0  0  0  0  0
  1  2  1  0
  2  3  2  0
  3  4  1  0
  4  5  2  0
  5  6  1  0
  6  7  1  0
  7  8  1  0
  8  9  1  0
  9 10  1  0
 10 11  2  0
 11 12  1  0
 12 13  2  0
 13 14  1  0
 14 15  2  0
 15 16  1  0
 16 17  1  0
 17 18  2  0
 18 19  1  0
 19 20  2  0
 20 21  1  0
 21 22  1  0
 21 23  2  0
 15 24  1  0
  6 25  2  0
 25  2  1  0
 24  8  2  0
 24 12  1  0
 23 17  1  0
M  END
>  <Compound_ID>  (311) 
CHEMBL120069

>  <Active>  (311) 
1.0

>  <Smiles>  (311) 
Cc1cccc(Nc2[nH]cnc3nnc(Nc4cccc(Cl)c4)c2-3)c1

>  <canonical_smi>  (311) 
Cc1cccc(Nc2[nH]cnc3nnc(Nc4cccc(Cl)c4)c2-3)c1

>  <Set>  (311) 
G2 active

>  <Set_type>  (311) 
Train

>  <MW>  (311) 
350.81

>  <HBD>  (311) 
3

>  <HBA>  (311) 
5

>  <NRB>  (311) 
4

>  <NR>  (311) 
4

>  <NAR>  (311) 
4

>  <PSA>  (311) 
78.52

>  <Standard Type>  (311) 
nan

>  <Standard Relation>  (311) 
nan

>  <Standard Units>  (311) 
nan

>  <Standard Value>  (311) 
nan

>  <Assay ChEMBL ID>  (311) 
nan

>  <Assay Description>  (311) 
nan

>  <BAO Label>  (311) 
nan

$$$$

     RDKit          2D

 24 25  0  0  0  0  0  0  0  0999 V2000
    3.7500   -1.2990    0.0000 C   0  0  0  0  0  0  0  0  0  0  0  0
    3.0000    0.0000    0.0000 O   0  0  0  0  0  0  0  0  0  0  0  0
    1.5000    0.0000    0.0000 C   0  0  0  0  0  0  0  0  0  0  0  0
    0.7500   -1.2990    0.0000 C   0  0  0  0  0  0  0  0  0  0  0  0
   -0.7500   -1.2990    0.0000 C   0  0  0  0  0  0  0  0  0  0  0  0
   -1.5000   -2.5981    0.0000 C   0  0  0  0  0  0  0  0  0  0  0  0
   -3.0000   -2.5981    0.0000 C   0  0  0  0  0  0  0  0  0  0  0  0
   -3.7500   -1.2990    0.0000 C   0  0  0  0  0  0  0  0  0  0  0  0
   -4.5000    0.0000    0.0000 N   0  0  0  0  0  0  0  0  0  0  0  0
   -3.7500   -3.8971    0.0000 C   0  0  0  0  0  0  0  0  0  0  0  0
   -5.2500   -3.8971    0.0000 N   0  0  0  0  0  0  0  0  0  0  0  0
   -3.0000   -5.1962    0.0000 O   0  0  0  0  0  0  0  0  0  0  0  0
   -1.5000    0.0000    0.0000 C   0  0  0  0  0  0  0  0  0  0  0  0
   -0.7500    1.2990    0.0000 C   0  0  0  0  0  0  0  0  0  0  0  0
   -1.5000    2.5981    0.0000 C   0  0  0  0  0  0  0  0  0  0  0  0
   -0.7500    3.8971    0.0000 S   0  0  0  0  0  0  0  0  0  0  0  0
   -1.5000    5.1962    0.0000 C   0  0  0  0  0  0  0  0  0  0  0  0
   -0.7500    6.4952    0.0000 C   0  0  0  0  0  0  0  0  0  0  0  0
   -1.5000    7.7942    0.0000 C   0  0  0  0  0  0  0  0  0  0  0  0
   -3.0000    7.7942    0.0000 C   0  0  0  0  0  0  0  0  0  0  0  0
   -3.7500    6.4952    0.0000 C   0  0  0  0  0  0  0  0  0  0  0  0
   -3.0000    5.1962    0.0000 C   0  0  0  0  0  0  0  0  0  0  0  0
    0.7500    1.2990    0.0000 C   0  0  0  0  0  0  0  0  0  0  0  0
    1.5000    2.5981    0.0000 O   0  0  0  0  0  0  0  0  0  0  0  0
  1  2  1  0
  2  3  1  0
  3  4  2  0
  4  5  1  0
  5  6  1  0
  6  7  2  0
  7  8  1  0
  8  9  3  0
  7 10  1  0
 10 11  1  0
 10 12  2  0
  5 13  2  0
 13 14  1  0
 14 15  1  0
 15 16  1  0
 16 17  1  0
 17 18  2  0
 18 19  1  0
 19 20  2  0
 20 21  1  0
 21 22  2  0
 14 23  2  0
 23 24  1  0
 23  3  1  0
 22 17  1  0
M  END
>  <Compound_ID>  (312) 
CHEMBL116595

>  <Active>  (312) 
1.0

>  <Smiles>  (312) 
COc1cc(/C=C(\C#N)C(N)=O)cc(CSc2ccccc2)c1O

>  <canonical_smi>  (312) 
COc1cc(/C=C(\C#N)C(N)=O)cc(CSc2ccccc2)c1O

>  <Set>  (312) 
G2 active

>  <Set_type>  (312) 
Train

>  <MW>  (312) 
340.4

>  <HBD>  (312) 
2

>  <HBA>  (312) 
5

>  <NRB>  (312) 
6

>  <NR>  (312) 
2

>  <NAR>  (312) 
2

>  <PSA>  (312) 
96.34

>  <Standard Type>  (312) 
nan

>  <Standard Relation>  (312) 
nan

>  <Standard Units>  (312) 
nan

>  <Standard Value>  (312) 
nan

>  <Assay ChEMBL ID>  (312) 
nan

>  <Assay Description>  (312) 
nan

>  <BAO Label>  (312) 
nan

$$$$

     RDKit          2D

 30 32  0  0  0  0  0  0  0  0999 V2000
    7.6471   -3.1471    0.0000 C   0  0  0  0  0  0  0  0  0  0  0  0
    6.3481   -3.8971    0.0000 C   0  0  0  0  0  0  0  0  0  0  0  0
    5.0490   -3.1471    0.0000 N   0  0  0  0  0  0  0  0  0  0  0  0
    5.0490   -1.6471    0.0000 C   0  0  0  0  0  0  0  0  0  0  0  0
    6.3481   -0.8971    0.0000 C   0  0  0  0  0  0  0  0  0  0  0  0
    3.7500   -3.8971    0.0000 C   0  0  0  0  0  0  0  0  0  0  0  0
    4.5000   -5.1962    0.0000 C   0  0  0  0  0  0  0  0  0  0  0  0
    3.0000   -2.5981    0.0000 C   0  0  0  0  0  0  0  0  0  0  0  0
    1.5000   -2.5981    0.0000 C   0  0  0  0  0  0  0  0  0  0  0  0
    0.7500   -1.2990    0.0000 C   0  0  0  0  0  0  0  0  0  0  0  0
    1.5000    0.0000    0.0000 N   0  0  0  0  0  0  0  0  0  0  0  0
    0.7500    1.2990    0.0000 C   0  0  0  0  0  0  0  0  0  0  0  0
   -0.7500    1.2990    0.0000 N   0  0  0  0  0  0  0  0  0  0  0  0
   -1.5000    0.0000    0.0000 C   0  0  0  0  0  0  0  0  0  0  0  0
   -3.0000    0.0000    0.0000 C   0  0  0  0  0  0  0  0  0  0  0  0
   -3.7500   -1.2990    0.0000 C   0  0  0  0  0  0  0  0  0  0  0  0
   -5.2500   -1.2990    0.0000 O   0  0  0  0  0  0  0  0  0  0  0  0
   -6.0000    0.0000    0.0000 C   0  0  0  0  0  0  0  0  0  0  0  0
   -3.0000   -2.5981    0.0000 C   0  0  0  0  0  0  0  0  0  0  0  0
   -3.7500   -3.8971    0.0000 O   0  0  0  0  0  0  0  0  0  0  0  0
   -5.2500   -3.8971    0.0000 C   0  0  0  0  0  0  0  0  0  0  0  0
   -1.5000   -2.5981    0.0000 C   0  0  0  0  0  0  0  0  0  0  0  0
   -0.7500   -1.2990    0.0000 C   0  0  0  0  0  0  0  0  0  0  0  0
    2.4510   -4.6471    0.0000 C   0  0  0  0  0  0  0  0  0  0  0  0
    2.4510   -6.1471    0.0000 C   0  0  0  0  0  0  0  0  0  0  0  0
    1.1519   -6.8971    0.0000 C   0  0  0  0  0  0  0  0  0  0  0  0
    1.1519   -8.3971    0.0000 C   0  0  0  0  0  0  0  0  0  0  0  0
    2.4510   -9.1471    0.0000 C   0  0  0  0  0  0  0  0  0  0  0  0
    3.7500   -8.3971    0.0000 C   0  0  0  0  0  0  0  0  0  0  0  0
    3.7500   -6.8971    0.0000 C   0  0  0  0  0  0  0  0  0  0  0  0
  1  2  1  0
  2  3  1  0
  3  4  1  0
  4  5  1  0
  3  6  1  0
  6  7  1  0
  6  8  1  0
  8  9  1  0
  9 10  1  0
 10 11  2  0
 11 12  1  0
 12 13  2  0
 13 14  1  0
 14 15  2  0
 15 16  1  0
 16 17  1  0
 17 18  1  0
 16 19  2  0
 19 20  1  0
 20 21  1  0
 19 22  1  0
 22 23  2  0
  6 24  1  0
 24 25  1  0
 25 26  2  0
 26 27  1  0
 27 28  2  0
 28 29  1  0
 29 30  2  0
 23 10  1  0
 30 25  1  0
 23 14  1  0
M  END
>  <Compound_ID>  (313) 
CHEMBL398961

>  <Active>  (313) 
1.0

>  <Smiles>  (313) 
CCN(CC)C(C)(CCc1ncnc2cc(OC)c(OC)cc12)Cc1ccccc1

>  <canonical_smi>  (313) 
CCN(CC)C(C)(CCc1ncnc2cc(OC)c(OC)cc12)Cc1ccccc1

>  <Set>  (313) 
G2 active

>  <Set_type>  (313) 
Train

>  <MW>  (313) 
407.56

>  <HBD>  (313) 
0

>  <HBA>  (313) 
5

>  <NRB>  (313) 
10

>  <NR>  (313) 
3

>  <NAR>  (313) 
3

>  <PSA>  (313) 
47.48

>  <Standard Type>  (313) 
nan

>  <Standard Relation>  (313) 
nan

>  <Standard Units>  (313) 
nan

>  <Standard Value>  (313) 
nan

>  <Assay ChEMBL ID>  (313) 
nan

>  <Assay Description>  (313) 
nan

>  <BAO Label>  (313) 
nan

$$$$

     RDKit          2D

 24 27  0  0  0  0  0  0  0  0999 V2000
    3.0000   -5.1962    0.0000 C   0  0  0  0  0  0  0  0  0  0  0  0
    1.5000   -5.1962    0.0000 O   0  0  0  0  0  0  0  0  0  0  0  0
    0.7500   -3.8971    0.0000 C   0  0  0  0  0  0  0  0  0  0  0  0
    1.5000   -2.5981    0.0000 C   0  0  0  0  0  0  0  0  0  0  0  0
    0.7500   -1.2990    0.0000 C   0  0  0  0  0  0  0  0  0  0  0  0
    1.5000    0.0000    0.0000 N   0  0  0  0  0  0  0  0  0  0  0  0
    0.7500    1.2990    0.0000 C   0  0  0  0  0  0  0  0  0  0  0  0
   -0.7500    1.2990    0.0000 N   0  0  0  0  0  0  0  0  0  0  0  0
   -1.5000    0.0000    0.0000 C   0  0  0  0  0  0  0  0  0  0  0  0
   -3.0000    0.0000    0.0000 C   0  0  0  0  0  0  0  0  0  0  0  0
   -3.8817   -1.2135    0.0000 C   0  0  0  0  0  0  0  0  0  0  0  0
   -5.3083   -0.7500    0.0000 N   0  0  0  0  0  0  0  0  0  0  0  0
   -5.3083    0.7500    0.0000 C   0  0  0  0  0  0  0  0  0  0  0  0
   -6.4230    1.7537    0.0000 C   0  0  0  0  0  0  0  0  0  0  0  0
   -6.1111    3.2209    0.0000 C   0  0  0  0  0  0  0  0  0  0  0  0
   -4.6845    3.6844    0.0000 C   0  0  0  0  0  0  0  0  0  0  0  0
   -4.3727    5.1517    0.0000 Br  0  0  0  0  0  0  0  0  0  0  0  0
   -3.5698    2.6807    0.0000 C   0  0  0  0  0  0  0  0  0  0  0  0
   -3.8817    1.2135    0.0000 C   0  0  0  0  0  0  0  0  0  0  0  0
   -0.7500   -1.2990    0.0000 C   0  0  0  0  0  0  0  0  0  0  0  0
   -1.5000   -2.5981    0.0000 C   0  0  0  0  0  0  0  0  0  0  0  0
   -0.7500   -3.8971    0.0000 C   0  0  0  0  0  0  0  0  0  0  0  0
   -1.5000   -5.1962    0.0000 O   0  0  0  0  0  0  0  0  0  0  0  0
   -3.0000   -5.1962    0.0000 C   0  0  0  0  0  0  0  0  0  0  0  0
  1  2  1  0
  2  3  1  0
  3  4  2  0
  4  5  1  0
  5  6  2  0
  6  7  1  0
  7  8  2  0
  8  9  1  0
  9 10  1  0
 10 11  2  0
 11 12  1  0
 12 13  1  0
 13 14  2  0
 14 15  1  0
 15 16  2  0
 16 17  1  0
 16 18  1  0
 18 19  2  0
  9 20  2  0
 20 21  1  0
 21 22  2  0
 22 23  1  0
 23 24  1  0
 22  3  1  0
 20  5  1  0
 19 10  1  0
 19 13  1  0
M  END
>  <Compound_ID>  (314) 
CHEMBL473320

>  <Active>  (314) 
1.0

>  <Smiles>  (314) 
COc1cc2ncnc(-c3c[nH]c4ccc(Br)cc34)c2cc1OC

>  <canonical_smi>  (314) 
COc1cc2ncnc(-c3c[nH]c4ccc(Br)cc34)c2cc1OC

>  <Set>  (314) 
G2 active

>  <Set_type>  (314) 
Train

>  <MW>  (314) 
384.23

>  <HBD>  (314) 
1

>  <HBA>  (314) 
4

>  <NRB>  (314) 
3

>  <NR>  (314) 
4

>  <NAR>  (314) 
4

>  <PSA>  (314) 
60.03

>  <Standard Type>  (314) 
nan

>  <Standard Relation>  (314) 
nan

>  <Standard Units>  (314) 
nan

>  <Standard Value>  (314) 
nan

>  <Assay ChEMBL ID>  (314) 
nan

>  <Assay Description>  (314) 
nan

>  <BAO Label>  (314) 
nan

$$$$

     RDKit          2D

 22 25  0  0  0  0  0  0  0  0999 V2000
    2.6401   -3.1891    0.0000 C   0  0  0  0  0  0  0  0  0  0  0  0
    1.2135   -2.7256    0.0000 N   0  0  0  0  0  0  0  0  0  0  0  0
    0.7500   -1.2990    0.0000 C   0  0  0  0  0  0  0  0  0  0  0  0
    1.5000    0.0000    0.0000 C   0  0  0  0  0  0  0  0  0  0  0  0
    0.7500    1.2990    0.0000 C   0  0  0  0  0  0  0  0  0  0  0  0
   -0.7500    1.2990    0.0000 C   0  0  0  0  0  0  0  0  0  0  0  0
   -1.5000    0.0000    0.0000 C   0  0  0  0  0  0  0  0  0  0  0  0
   -0.7500   -1.2990    0.0000 C   0  0  0  0  0  0  0  0  0  0  0  0
   -1.2135   -2.7256    0.0000 C   0  0  0  0  0  0  0  0  0  0  0  0
   -2.5838   -3.3357    0.0000 N   0  0  0  0  0  0  0  0  0  0  0  0
   -2.7406   -4.8275    0.0000 C   0  0  0  0  0  0  0  0  0  0  0  0
   -1.5271   -5.7092    0.0000 N   0  0  0  0  0  0  0  0  0  0  0  0
   -0.1568   -5.0991    0.0000 C   0  0  0  0  0  0  0  0  0  0  0  0
    1.0567   -5.9808    0.0000 N   0  0  0  0  0  0  0  0  0  0  0  0
    0.8999   -7.4725    0.0000 C   0  0  0  0  0  0  0  0  0  0  0  0
   -0.4704   -8.0826    0.0000 C   0  0  0  0  0  0  0  0  0  0  0  0
   -0.6272   -9.5744    0.0000 C   0  0  0  0  0  0  0  0  0  0  0  0
    0.5864  -10.4561    0.0000 C   0  0  0  0  0  0  0  0  0  0  0  0
    1.9567   -9.8460    0.0000 C   0  0  0  0  0  0  0  0  0  0  0  0
    3.1702  -10.7277    0.0000 Br  0  0  0  0  0  0  0  0  0  0  0  0
    2.1135   -8.3542    0.0000 C   0  0  0  0  0  0  0  0  0  0  0  0
   -0.0000   -3.6073    0.0000 C   0  0  0  0  0  0  0  0  0  0  0  0
  1  2  1  0
  2  3  1  0
  3  4  2  0
  4  5  1  0
  5  6  2  0
  6  7  1  0
  7  8  2  0
  8  9  1  0
  9 10  2  0
 10 11  1  0
 11 12  2  0
 12 13  1  0
 13 14  1  0
 14 15  1  0
 15 16  2  0
 16 17  1  0
 17 18  2  0
 18 19  1  0
 19 20  1  0
 19 21  2  0
 13 22  2  0
 22  2  1  0
  8  3  1  0
 22  9  1  0
 21 15  1  0
M  END
>  <Compound_ID>  (315) 
CHEMBL553137

>  <Active>  (315) 
1.0

>  <Smiles>  (315) 
Cn1c2ccccc2c2ncnc(Nc3cccc(Br)c3)c21

>  <canonical_smi>  (315) 
Cn1c2ccccc2c2ncnc(Nc3cccc(Br)c3)c21

>  <Set>  (315) 
G2 active

>  <Set_type>  (315) 
Train

>  <MW>  (315) 
353.22

>  <HBD>  (315) 
1

>  <HBA>  (315) 
3

>  <NRB>  (315) 
2

>  <NR>  (315) 
4

>  <NAR>  (315) 
4

>  <PSA>  (315) 
42.74

>  <Standard Type>  (315) 
nan

>  <Standard Relation>  (315) 
nan

>  <Standard Units>  (315) 
nan

>  <Standard Value>  (315) 
nan

>  <Assay ChEMBL ID>  (315) 
nan

>  <Assay Description>  (315) 
nan

>  <BAO Label>  (315) 
nan

$$$$

     RDKit          2D

 34 38  0  0  0  0  0  0  0  0999 V2000
    7.5000   -2.5981    0.0000 C   0  0  0  0  0  0  0  0  0  0  0  0
    6.0000   -2.5981    0.0000 N   0  0  0  0  0  0  0  0  0  0  0  0
    5.2500   -3.8971    0.0000 C   0  0  0  0  0  0  0  0  0  0  0  0
    3.7500   -3.8971    0.0000 C   0  0  0  0  0  0  0  0  0  0  0  0
    3.0000   -2.5981    0.0000 C   0  0  0  0  0  0  0  0  0  0  0  0
    1.5000   -2.5981    0.0000 O   0  0  0  0  0  0  0  0  0  0  0  0
    0.7500   -1.2990    0.0000 C   0  0  0  0  0  0  0  0  0  0  0  0
    1.5000    0.0000    0.0000 C   0  0  0  0  0  0  0  0  0  0  0  0
    0.7500    1.2990    0.0000 C   0  0  0  0  0  0  0  0  0  0  0  0
   -0.7500    1.2990    0.0000 C   0  0  0  0  0  0  0  0  0  0  0  0
   -1.5000    0.0000    0.0000 C   0  0  0  0  0  0  0  0  0  0  0  0
   -3.0000    0.0000    0.0000 N   0  0  0  0  0  0  0  0  0  0  0  0
   -3.7500   -1.2990    0.0000 C   0  0  0  0  0  0  0  0  0  0  0  0
   -3.0000   -2.5981    0.0000 N   0  0  0  0  0  0  0  0  0  0  0  0
   -1.5000   -2.5981    0.0000 C   0  0  0  0  0  0  0  0  0  0  0  0
   -0.7500   -3.8971    0.0000 N   0  0  0  0  0  0  0  0  0  0  0  0
   -1.5000   -5.1962    0.0000 C   0  0  0  0  0  0  0  0  0  0  0  0
   -3.0000   -5.1962    0.0000 C   0  0  0  0  0  0  0  0  0  0  0  0
   -3.7500   -6.4952    0.0000 C   0  0  0  0  0  0  0  0  0  0  0  0
   -3.0000   -7.7942    0.0000 C   0  0  0  0  0  0  0  0  0  0  0  0
   -3.7500   -9.0933    0.0000 O   0  0  0  0  0  0  0  0  0  0  0  0
   -5.2500   -9.0933    0.0000 C   0  0  0  0  0  0  0  0  0  0  0  0
   -6.0000  -10.3923    0.0000 C   0  0  0  0  0  0  0  0  0  0  0  0
   -7.5000  -10.3923    0.0000 C   0  0  0  0  0  0  0  0  0  0  0  0
   -8.2500  -11.6913    0.0000 C   0  0  0  0  0  0  0  0  0  0  0  0
   -7.5000  -12.9904    0.0000 C   0  0  0  0  0  0  0  0  0  0  0  0
   -6.0000  -12.9904    0.0000 C   0  0  0  0  0  0  0  0  0  0  0  0
   -5.2500  -11.6913    0.0000 N   0  0  0  0  0  0  0  0  0  0  0  0
   -1.5000   -7.7942    0.0000 C   0  0  0  0  0  0  0  0  0  0  0  0
   -0.7500   -9.0933    0.0000 Cl  0  0  0  0  0  0  0  0  0  0  0  0
   -0.7500   -6.4952    0.0000 C   0  0  0  0  0  0  0  0  0  0  0  0
   -0.7500   -1.2990    0.0000 C   0  0  0  0  0  0  0  0  0  0  0  0
    3.7500   -1.2990    0.0000 C   0  0  0  0  0  0  0  0  0  0  0  0
    5.2500   -1.2990    0.0000 C   0  0  0  0  0  0  0  0  0  0  0  0
  1  2  1  0
  2  3  1  0
  3  4  1  0
  4  5  1  0
  5  6  1  0
  6  7  1  0
  7  8  2  0
  8  9  1  0
  9 10  2  0
 10 11  1  0
 11 12  2  0
 12 13  1  0
 13 14  2  0
 14 15  1  0
 15 16  1  0
 16 17  1  0
 17 18  2  0
 18 19  1  0
 19 20  2  0
 20 21  1  0
 21 22  1  0
 22 23  1  0
 23 24  2  0
 24 25  1  0
 25 26  2  0
 26 27  1  0
 27 28  2  0
 20 29  1  0
 29 30  1  0
 29 31  2  0
 15 32  2  0
  5 33  1  0
 33 34  1  0
 34  2  1  0
 32  7  1  0
 32 11  1  0
 31 17  1  0
 28 23  1  0
M  END
>  <Compound_ID>  (316) 
CHEMBL193544

>  <Active>  (316) 
1.0

>  <Smiles>  (316) 
CN1CCC(Oc2cccc3ncnc(Nc4ccc(OCc5ccccn5)c(Cl)c4)c23)CC1

>  <canonical_smi>  (316) 
CN1CCC(Oc2cccc3ncnc(Nc4ccc(OCc5ccccn5)c(Cl)c4)c23)CC1

>  <Set>  (316) 
G2 active

>  <Set_type>  (316) 
Train

>  <MW>  (316) 
475.98

>  <HBD>  (316) 
1

>  <HBA>  (316) 
7

>  <NRB>  (316) 
7

>  <NR>  (316) 
5

>  <NAR>  (316) 
4

>  <PSA>  (316) 
72.4

>  <Standard Type>  (316) 
nan

>  <Standard Relation>  (316) 
nan

>  <Standard Units>  (316) 
nan

>  <Standard Value>  (316) 
nan

>  <Assay ChEMBL ID>  (316) 
nan

>  <Assay Description>  (316) 
nan

>  <BAO Label>  (316) 
nan

$$$$

     RDKit          2D

 27 29  0  0  0  0  0  0  0  0999 V2000
    3.7500   -6.4952    0.0000 C   0  0  0  0  0  0  0  0  0  0  0  0
    3.0000   -5.1962    0.0000 C   0  0  0  0  0  0  0  0  0  0  0  0
    1.5000   -5.1962    0.0000 O   0  0  0  0  0  0  0  0  0  0  0  0
    0.7500   -3.8971    0.0000 C   0  0  0  0  0  0  0  0  0  0  0  0
    1.5000   -2.5981    0.0000 C   0  0  0  0  0  0  0  0  0  0  0  0
    0.7500   -1.2990    0.0000 C   0  0  0  0  0  0  0  0  0  0  0  0
    1.5000    0.0000    0.0000 N   0  0  0  0  0  0  0  0  0  0  0  0
    0.7500    1.2990    0.0000 C   0  0  0  0  0  0  0  0  0  0  0  0
   -0.7500    1.2990    0.0000 N   0  0  0  0  0  0  0  0  0  0  0  0
   -1.5000    0.0000    0.0000 C   0  0  0  0  0  0  0  0  0  0  0  0
   -3.0000    0.0000    0.0000 C   0  0  0  0  0  0  0  0  0  0  0  0
   -3.7500    1.2990    0.0000 C   0  0  0  0  0  0  0  0  0  0  0  0
   -5.2500    1.2990    0.0000 C   0  0  0  0  0  0  0  0  0  0  0  0
   -6.0000    2.5981    0.0000 C   0  0  0  0  0  0  0  0  0  0  0  0
   -7.5000    2.5981    0.0000 C   0  0  0  0  0  0  0  0  0  0  0  0
   -8.2500    3.8971    0.0000 C   0  0  0  0  0  0  0  0  0  0  0  0
   -7.5000    5.1962    0.0000 C   0  0  0  0  0  0  0  0  0  0  0  0
   -8.2500    6.4952    0.0000 C   0  0  0  0  0  0  0  0  0  0  0  0
   -9.7500    6.4952    0.0000 C   0  0  0  0  0  0  0  0  0  0  0  0
  -10.5000    5.1962    0.0000 C   0  0  0  0  0  0  0  0  0  0  0  0
   -9.7500    3.8971    0.0000 C   0  0  0  0  0  0  0  0  0  0  0  0
   -0.7500   -1.2990    0.0000 C   0  0  0  0  0  0  0  0  0  0  0  0
   -1.5000   -2.5981    0.0000 C   0  0  0  0  0  0  0  0  0  0  0  0
   -0.7500   -3.8971    0.0000 C   0  0  0  0  0  0  0  0  0  0  0  0
   -1.5000   -5.1962    0.0000 O   0  0  0  0  0  0  0  0  0  0  0  0
   -3.0000   -5.1962    0.0000 C   0  0  0  0  0  0  0  0  0  0  0  0
   -3.7500   -6.4952    0.0000 C   0  0  0  0  0  0  0  0  0  0  0  0
  1  2  1  0
  2  3  1  0
  3  4  1  0
  4  5  2  0
  5  6  1  0
  6  7  2  0
  7  8  1  0
  8  9  2  0
  9 10  1  0
 10 11  1  0
 11 12  2  0
 12 13  1  0
 13 14  1  0
 14 15  1  0
 15 16  1  0
 16 17  2  0
 17 18  1  0
 18 19  2  0
 19 20  1  0
 20 21  2  0
 10 22  2  0
 22 23  1  0
 23 24  2  0
 24 25  1  0
 25 26  1  0
 26 27  1  0
 24  4  1  0
 22  6  1  0
 21 16  1  0
M  END
>  <Compound_ID>  (317) 
CHEMBL251123

>  <Active>  (317) 
1.0

>  <Smiles>  (317) 
CCOc1cc2ncnc(/C=C/CCCc3ccccc3)c2cc1OCC

>  <canonical_smi>  (317) 
CCOc1cc2ncnc(/C=C/CCCc3ccccc3)c2cc1OCC

>  <Set>  (317) 
G2 active

>  <Set_type>  (317) 
Train

>  <MW>  (317) 
362.47

>  <HBD>  (317) 
0

>  <HBA>  (317) 
4

>  <NRB>  (317) 
9

>  <NR>  (317) 
3

>  <NAR>  (317) 
3

>  <PSA>  (317) 
44.24

>  <Standard Type>  (317) 
nan

>  <Standard Relation>  (317) 
nan

>  <Standard Units>  (317) 
nan

>  <Standard Value>  (317) 
nan

>  <Assay ChEMBL ID>  (317) 
nan

>  <Assay Description>  (317) 
nan

>  <BAO Label>  (317) 
nan

$$$$

     RDKit          2D

 37 40  0  0  0  0  0  0  0  0999 V2000
    3.7500  -11.6913    0.0000 C   0  0  0  0  0  0  0  0  0  0  0  0
    3.0000  -10.3923    0.0000 N   0  0  0  0  0  0  0  0  0  0  0  0
    1.5000  -10.3923    0.0000 C   0  0  0  0  0  0  0  0  0  0  0  0
    0.7500   -9.0933    0.0000 C   0  0  0  0  0  0  0  0  0  0  0  0
    1.5000   -7.7942    0.0000 N   0  0  0  0  0  0  0  0  0  0  0  0
    0.7500   -6.4952    0.0000 C   0  0  0  0  0  0  0  0  0  0  0  0
    1.5000   -5.1962    0.0000 C   0  0  0  0  0  0  0  0  0  0  0  0
    0.7500   -3.8971    0.0000 C   0  0  0  0  0  0  0  0  0  0  0  0
    1.5000   -2.5981    0.0000 N   0  0  0  0  0  0  0  0  0  0  0  0
    0.7500   -1.2990    0.0000 C   0  0  0  0  0  0  0  0  0  0  0  0
    1.5000    0.0000    0.0000 N   0  0  0  0  0  0  0  0  0  0  0  0
    0.7500    1.2990    0.0000 C   0  0  0  0  0  0  0  0  0  0  0  0
   -0.7500    1.2990    0.0000 C   0  0  0  0  0  0  0  0  0  0  0  0
   -1.5000    2.5981    0.0000 C   0  0  0  0  0  0  0  0  0  0  0  0
   -3.0000    2.5981    0.0000 C   0  0  0  0  0  0  0  0  0  0  0  0
   -3.7500    3.8971    0.0000 C   0  0  0  0  0  0  0  0  0  0  0  0
   -3.0000    5.1962    0.0000 C   0  0  0  0  0  0  0  0  0  0  0  0
   -1.5000    5.1962    0.0000 Cl  0  0  0  0  0  0  0  0  0  0  0  0
   -3.7500    6.4952    0.0000 C   0  0  0  0  0  0  0  0  0  0  0  0
   -5.2500    6.4952    0.0000 C   0  0  0  0  0  0  0  0  0  0  0  0
   -6.0000    5.1962    0.0000 C   0  0  0  0  0  0  0  0  0  0  0  0
   -5.2500    3.8971    0.0000 C   0  0  0  0  0  0  0  0  0  0  0  0
   -6.0000    2.5981    0.0000 Cl  0  0  0  0  0  0  0  0  0  0  0  0
   -3.7500    1.2990    0.0000 C   0  0  0  0  0  0  0  0  0  0  0  0
   -5.2500    1.2990    0.0000 N   0  0  0  0  0  0  0  0  0  0  0  0
   -6.0000    0.0000    0.0000 C   0  0  0  0  0  0  0  0  0  0  0  0
   -5.2500   -1.2990    0.0000 O   0  0  0  0  0  0  0  0  0  0  0  0
   -7.5000    0.0000    0.0000 N   0  0  0  0  0  0  0  0  0  0  0  0
   -8.2500   -1.2990    0.0000 C   0  0  0  0  0  0  0  0  0  0  0  0
   -9.5490   -0.5490    0.0000 C   0  0  0  0  0  0  0  0  0  0  0  0
   -6.9510   -2.0490    0.0000 C   0  0  0  0  0  0  0  0  0  0  0  0
   -9.0000   -2.5981    0.0000 C   0  0  0  0  0  0  0  0  0  0  0  0
   -3.0000    0.0000    0.0000 N   0  0  0  0  0  0  0  0  0  0  0  0
   -1.5000    0.0000    0.0000 C   0  0  0  0  0  0  0  0  0  0  0  0
   -0.7500   -1.2990    0.0000 N   0  0  0  0  0  0  0  0  0  0  0  0
    3.0000   -7.7942    0.0000 C   0  0  0  0  0  0  0  0  0  0  0  0
    3.7500   -9.0933    0.0000 C   0  0  0  0  0  0  0  0  0  0  0  0
  1  2  1  0
  2  3  1  0
  3  4  1  0
  4  5  1  0
  5  6  1  0
  6  7  1  0
  7  8  1  0
  8  9  1  0
  9 10  1  0
 10 11  2  0
 11 12  1  0
 12 13  2  0
 13 14  1  0
 14 15  2  0
 15 16  1  0
 16 17  2  0
 17 18  1  0
 17 19  1  0
 19 20  2  0
 20 21  1  0
 21 22  2  0
 22 23  1  0
 15 24  1  0
 24 25  1  0
 25 26  1  0
 26 27  2  0
 26 28  1  0
 28 29  1  0
 29 30  1  0
 29 31  1  0
 29 32  1  0
 24 33  2  0
 33 34  1  0
 34 35  2  0
  5 36  1  0
 36 37  1  0
 37  2  1  0
 35 10  1  0
 34 13  1  0
 22 16  1  0
M  END
>  <Compound_ID>  (318) 
CHEMBL57347

>  <Active>  (318) 
1.0

>  <Smiles>  (318) 
CN1CCN(CCCNc2ncc3cc(-c4c(Cl)cccc4Cl)c(NC(=O)NC(C)(C)C)nc3n2)CC1

>  <canonical_smi>  (318) 
CN1CCN(CCCNc2ncc3cc(-c4c(Cl)cccc4Cl)c(NC(=O)NC(C)(C)C)nc3n2)CC1

>  <Set>  (318) 
G2 active

>  <Set_type>  (318) 
Train

>  <MW>  (318) 
545.52

>  <HBD>  (318) 
3

>  <HBA>  (318) 
7

>  <NRB>  (318) 
7

>  <NR>  (318) 
4

>  <NAR>  (318) 
3

>  <PSA>  (318) 
98.31

>  <Standard Type>  (318) 
nan

>  <Standard Relation>  (318) 
nan

>  <Standard Units>  (318) 
nan

>  <Standard Value>  (318) 
nan

>  <Assay ChEMBL ID>  (318) 
nan

>  <Assay Description>  (318) 
nan

>  <BAO Label>  (318) 
nan

$$$$

     RDKit          2D

 28 32  0  0  0  0  0  0  0  0999 V2000
   -1.6317   -8.6291    0.0000 C   0  0  0  0  0  0  0  0  0  0  0  0
   -0.7500   -7.4156    0.0000 C   0  0  0  0  0  0  0  0  0  0  0  0
    0.7500   -7.4156    0.0000 N   0  0  0  0  0  0  0  0  0  0  0  0
    1.2135   -5.9890    0.0000 N   0  0  0  0  0  0  0  0  0  0  0  0
   -0.0000   -5.1073    0.0000 C   0  0  0  0  0  0  0  0  0  0  0  0
   -0.0000   -3.6073    0.0000 C   0  0  0  0  0  0  0  0  0  0  0  0
    1.2135   -2.7256    0.0000 C   0  0  0  0  0  0  0  0  0  0  0  0
    0.7500   -1.2990    0.0000 N   0  0  0  0  0  0  0  0  0  0  0  0
    1.5000    0.0000    0.0000 N   0  0  0  0  0  0  0  0  0  0  0  0
    0.7500    1.2990    0.0000 C   0  0  0  0  0  0  0  0  0  0  0  0
   -0.7500    1.2990    0.0000 N   0  0  0  0  0  0  0  0  0  0  0  0
   -1.5000    0.0000    0.0000 C   0  0  0  0  0  0  0  0  0  0  0  0
   -3.0000    0.0000    0.0000 N   0  0  0  0  0  0  0  0  0  0  0  0
   -3.7500    1.2990    0.0000 C   0  0  0  0  0  0  0  0  0  0  0  0
   -3.0000    2.5981    0.0000 C   0  0  0  0  0  0  0  0  0  0  0  0
   -3.7500    3.8971    0.0000 N   0  0  0  0  0  0  0  0  0  0  0  0
   -5.2500    3.8971    0.0000 C   0  0  0  0  0  0  0  0  0  0  0  0
   -6.2537    5.0118    0.0000 N   0  0  0  0  0  0  0  0  0  0  0  0
   -7.6240    4.4017    0.0000 C   0  0  0  0  0  0  0  0  0  0  0  0
   -7.4672    2.9099    0.0000 C   0  0  0  0  0  0  0  0  0  0  0  0
   -6.0000    2.5981    0.0000 C   0  0  0  0  0  0  0  0  0  0  0  0
   -5.2500    1.2990    0.0000 C   0  0  0  0  0  0  0  0  0  0  0  0
   -0.7500   -1.2990    0.0000 C   0  0  0  0  0  0  0  0  0  0  0  0
   -1.2135   -2.7256    0.0000 C   0  0  0  0  0  0  0  0  0  0  0  0
   -2.6401   -3.1891    0.0000 C   0  0  0  0  0  0  0  0  0  0  0  0
   -2.9520   -4.6564    0.0000 C   0  0  0  0  0  0  0  0  0  0  0  0
   -3.7548   -2.1855    0.0000 C   0  0  0  0  0  0  0  0  0  0  0  0
   -1.2135   -5.9890    0.0000 O   0  0  0  0  0  0  0  0  0  0  0  0
  1  2  1  0
  2  3  2  0
  3  4  1  0
  4  5  2  0
  5  6  1  0
  6  7  2  0
  7  8  1  0
  8  9  1  0
  9 10  2  0
 10 11  1  0
 11 12  2  0
 12 13  1  0
 13 14  1  0
 14 15  2  0
 15 16  1  0
 16 17  2  0
 17 18  1  0
 18 19  1  0
 19 20  2  0
 20 21  1  0
 21 22  2  0
 12 23  1  0
 23 24  2  0
 24 25  1  0
 25 26  1  0
 25 27  1  0
  5 28  1  0
 28  2  1  0
 24  6  1  0
 23  8  1  0
 22 14  1  0
 21 17  1  0
M  END
>  <Compound_ID>  (319) 
CHEMBL258694

>  <Active>  (319) 
1.0

>  <Smiles>  (319) 
Cc1nnc(-c2cn3ncnc(Nc4cnc5[nH]ccc5c4)c3c2C(C)C)o1

>  <canonical_smi>  (319) 
Cc1nnc(-c2cn3ncnc(Nc4cnc5[nH]ccc5c4)c3c2C(C)C)o1

>  <Set>  (319) 
G2 active

>  <Set_type>  (319) 
Train

>  <MW>  (319) 
374.41

>  <HBD>  (319) 
2

>  <HBA>  (319) 
7

>  <NRB>  (319) 
4

>  <NR>  (319) 
5

>  <NAR>  (319) 
5

>  <PSA>  (319) 
109.82

>  <Standard Type>  (319) 
nan

>  <Standard Relation>  (319) 
nan

>  <Standard Units>  (319) 
nan

>  <Standard Value>  (319) 
nan

>  <Assay ChEMBL ID>  (319) 
nan

>  <Assay Description>  (319) 
nan

>  <BAO Label>  (319) 
nan

$$$$

     RDKit          2D

 34 37  0  0  0  0  0  0  0  0999 V2000
    3.0000    0.0000    0.0000 N   0  0  0  0  0  0  0  0  0  0  0  0
    1.5000    0.0000    0.0000 C   0  0  0  0  0  0  0  0  0  0  0  0
    0.7500   -1.2990    0.0000 N   0  0  0  0  0  0  0  0  0  0  0  0
   -0.7500   -1.2990    0.0000 C   0  0  0  0  0  0  0  0  0  0  0  0
   -1.5000    0.0000    0.0000 N   0  0  0  0  0  0  0  0  0  0  0  0
   -0.7500    1.2990    0.0000 C   0  0  0  0  0  0  0  0  0  0  0  0
   -1.5000    2.5981    0.0000 N   0  0  0  0  0  0  0  0  0  0  0  0
   -3.0000    2.5981    0.0000 C   0  0  0  0  0  0  0  0  0  0  0  0
   -3.7500    3.8971    0.0000 C   0  0  0  0  0  0  0  0  0  0  0  0
   -5.2500    3.8971    0.0000 C   0  0  0  0  0  0  0  0  0  0  0  0
   -6.0000    2.5981    0.0000 C   0  0  0  0  0  0  0  0  0  0  0  0
   -7.5000    2.5981    0.0000 O   0  0  0  0  0  0  0  0  0  0  0  0
   -8.2500    3.8971    0.0000 C   0  0  0  0  0  0  0  0  0  0  0  0
   -9.7500    3.8971    0.0000 C   0  0  0  0  0  0  0  0  0  0  0  0
  -10.5000    5.1962    0.0000 C   0  0  0  0  0  0  0  0  0  0  0  0
  -12.0000    5.1962    0.0000 C   0  0  0  0  0  0  0  0  0  0  0  0
  -12.7500    3.8971    0.0000 C   0  0  0  0  0  0  0  0  0  0  0  0
  -12.0000    2.5981    0.0000 C   0  0  0  0  0  0  0  0  0  0  0  0
  -10.5000    2.5981    0.0000 C   0  0  0  0  0  0  0  0  0  0  0  0
   -5.2500    1.2990    0.0000 C   0  0  0  0  0  0  0  0  0  0  0  0
   -6.0000   -0.0000    0.0000 Cl  0  0  0  0  0  0  0  0  0  0  0  0
   -3.7500    1.2990    0.0000 C   0  0  0  0  0  0  0  0  0  0  0  0
    0.7500    1.2990    0.0000 C   0  0  0  0  0  0  0  0  0  0  0  0
    1.5000    2.5981    0.0000 C   0  0  0  0  0  0  0  0  0  0  0  0
    0.7500    3.8971    0.0000 O   0  0  0  0  0  0  0  0  0  0  0  0
    3.0000    2.5981    0.0000 O   0  0  0  0  0  0  0  0  0  0  0  0
    3.7500    3.8971    0.0000 C   0  0  0  0  0  0  0  0  0  0  0  0
    5.2500    3.8971    0.0000 C   0  0  0  0  0  0  0  0  0  0  0  0
    6.0000    5.1962    0.0000 N   0  0  0  0  0  0  0  0  0  0  0  0
    7.5000    5.1962    0.0000 C   0  0  0  0  0  0  0  0  0  0  0  0
    8.2500    6.4952    0.0000 C   0  0  0  0  0  0  0  0  0  0  0  0
    7.5000    7.7942    0.0000 O   0  0  0  0  0  0  0  0  0  0  0  0
    6.0000    7.7942    0.0000 C   0  0  0  0  0  0  0  0  0  0  0  0
    5.2500    6.4952    0.0000 C   0  0  0  0  0  0  0  0  0  0  0  0
  1  2  1  0
  2  3  2  0
  3  4  1  0
  4  5  2  0
  5  6  1  0
  6  7  1  0
  7  8  1  0
  8  9  2  0
  9 10  1  0
 10 11  2  0
 11 12  1  0
 12 13  1  0
 13 14  1  0
 14 15  2  0
 15 16  1  0
 16 17  2  0
 17 18  1  0
 18 19  2  0
 11 20  1  0
 20 21  1  0
 20 22  2  0
  6 23  2  0
 23 24  1  0
 24 25  2  0
 24 26  1  0
 26 27  1  0
 27 28  1  0
 28 29  1  0
 29 30  1  0
 30 31  1  0
 31 32  1  0
 32 33  1  0
 33 34  1  0
 23  2  1  0
 34 29  1  0
 22  8  1  0
 19 14  1  0
M  END
>  <Compound_ID>  (320) 
CHEMBL461113

>  <Active>  (320) 
1.0

>  <Smiles>  (320) 
Nc1ncnc(Nc2ccc(OCc3ccccc3)c(Cl)c2)c1C(=O)OCCN1CCOCC1

>  <canonical_smi>  (320) 
Nc1ncnc(Nc2ccc(OCc3ccccc3)c(Cl)c2)c1C(=O)OCCN1CCOCC1

>  <Set>  (320) 
G2 active

>  <Set_type>  (320) 
Train

>  <MW>  (320) 
483.96

>  <HBD>  (320) 
2

>  <HBA>  (320) 
9

>  <NRB>  (320) 
9

>  <NR>  (320) 
4

>  <NAR>  (320) 
3

>  <PSA>  (320) 
111.83

>  <Standard Type>  (320) 
nan

>  <Standard Relation>  (320) 
nan

>  <Standard Units>  (320) 
nan

>  <Standard Value>  (320) 
nan

>  <Assay ChEMBL ID>  (320) 
nan

>  <Assay Description>  (320) 
nan

>  <BAO Label>  (320) 
nan

$$$$

     RDKit          2D

 28 31  0  0  0  0  0  0  0  0999 V2000
   -0.3363   -9.0724    0.0000 C   0  0  0  0  0  0  0  0  0  0  0  0
    1.0152   -8.4216    0.0000 O   0  0  0  0  0  0  0  0  0  0  0  0
    1.1273   -6.9258    0.0000 C   0  0  0  0  0  0  0  0  0  0  0  0
   -0.1121   -6.0808    0.0000 C   0  0  0  0  0  0  0  0  0  0  0  0
    0.0000   -4.5850    0.0000 C   0  0  0  0  0  0  0  0  0  0  0  0
    1.3515   -3.9342    0.0000 C   0  0  0  0  0  0  0  0  0  0  0  0
    2.5908   -4.7792    0.0000 C   0  0  0  0  0  0  0  0  0  0  0  0
    2.4787   -6.2750    0.0000 C   0  0  0  0  0  0  0  0  0  0  0  0
    3.7181   -7.1199    0.0000 O   0  0  0  0  0  0  0  0  0  0  0  0
    5.0695   -6.4691    0.0000 C   0  0  0  0  0  0  0  0  0  0  0  0
    1.6852   -2.4718    0.0000 N   0  0  0  0  0  0  0  0  0  0  0  0
    0.7500   -1.2990    0.0000 C   0  0  0  0  0  0  0  0  0  0  0  0
    1.5000    0.0000    0.0000 N   0  0  0  0  0  0  0  0  0  0  0  0
    0.7500    1.2990    0.0000 C   0  0  0  0  0  0  0  0  0  0  0  0
   -0.7500    1.2990    0.0000 N   0  0  0  0  0  0  0  0  0  0  0  0
   -1.5000    0.0000    0.0000 C   0  0  0  0  0  0  0  0  0  0  0  0
   -3.0000    0.0000    0.0000 N   0  0  0  0  0  0  0  0  0  0  0  0
   -3.7500    1.2990    0.0000 C   0  0  0  0  0  0  0  0  0  0  0  0
   -5.2500    1.2990    0.0000 C   0  0  0  0  0  0  0  0  0  0  0  0
   -3.0000    2.5981    0.0000 C   0  0  0  0  0  0  0  0  0  0  0  0
   -1.5000    2.5981    0.0000 C   0  0  0  0  0  0  0  0  0  0  0  0
   -0.7500    3.8971    0.0000 C   0  0  0  0  0  0  0  0  0  0  0  0
   -1.5000    5.1962    0.0000 C   0  0  0  0  0  0  0  0  0  0  0  0
   -3.0000    5.1962    0.0000 C   0  0  0  0  0  0  0  0  0  0  0  0
   -3.7500    3.8971    0.0000 C   0  0  0  0  0  0  0  0  0  0  0  0
   -0.7500   -1.2990    0.0000 C   0  0  0  0  0  0  0  0  0  0  0  0
   -1.6852   -2.4718    0.0000 N   0  0  0  0  0  0  0  0  0  0  0  0
   -1.3515   -3.9342    0.0000 C   0  0  0  0  0  0  0  0  0  0  0  0
  1  2  1  0
  2  3  1  0
  3  4  2  0
  4  5  1  0
  5  6  2  0
  6  7  1  0
  7  8  2  0
  8  9  1  0
  9 10  1  0
  6 11  1  0
 11 12  1  0
 12 13  2  0
 13 14  1  0
 14 15  2  0
 15 16  1  0
 16 17  1  0
 17 18  1  0
 18 19  1  6
 18 20  1  0
 20 21  2  0
 21 22  1  0
 22 23  2  0
 23 24  1  0
 24 25  2  0
 16 26  2  0
 26 27  1  0
 27 28  1  0
  8  3  1  0
 26 12  1  0
 28  5  1  0
 25 20  1  0
M  END
>  <Compound_ID>  (321) 
CHEMBL379001

>  <Active>  (321) 
1.0

>  <Smiles>  (321) 
COc1cc2c(cc1OC)Nc1ncnc(N[C@H](C)c3ccccc3)c1NC2

>  <canonical_smi>  (321) 
COc1cc2c(cc1OC)Nc1ncnc(N[C@H](C)c3ccccc3)c1NC2

>  <Set>  (321) 
G2 active

>  <Set_type>  (321) 
Train

>  <MW>  (321) 
377.45

>  <HBD>  (321) 
3

>  <HBA>  (321) 
7

>  <NRB>  (321) 
5

>  <NR>  (321) 
4

>  <NAR>  (321) 
3

>  <PSA>  (321) 
80.33

>  <Standard Type>  (321) 
nan

>  <Standard Relation>  (321) 
nan

>  <Standard Units>  (321) 
nan

>  <Standard Value>  (321) 
nan

>  <Assay ChEMBL ID>  (321) 
nan

>  <Assay Description>  (321) 
nan

>  <BAO Label>  (321) 
nan

$$$$

     RDKit          2D

 25 28  0  0  0  0  0  0  0  0999 V2000
   -2.6401   -3.1891    0.0000 O   0  0  0  0  0  0  0  0  0  0  0  0
   -1.2135   -2.7256    0.0000 C   0  0  0  0  0  0  0  0  0  0  0  0
   -0.0000   -3.6073    0.0000 N   0  0  0  0  0  0  0  0  0  0  0  0
    1.2135   -2.7256    0.0000 C   0  0  0  0  0  0  0  0  0  0  0  0
    2.6401   -3.1891    0.0000 O   0  0  0  0  0  0  0  0  0  0  0  0
    0.7500   -1.2990    0.0000 C   0  0  0  0  0  0  0  0  0  0  0  0
    1.5000    0.0000    0.0000 C   0  0  0  0  0  0  0  0  0  0  0  0
    0.7500    1.2990    0.0000 C   0  0  0  0  0  0  0  0  0  0  0  0
    1.5000    2.5981    0.0000 N   0  0  0  0  0  0  0  0  0  0  0  0
    3.0000    2.5981    0.0000 C   0  0  0  0  0  0  0  0  0  0  0  0
    3.7500    1.2990    0.0000 C   0  0  0  0  0  0  0  0  0  0  0  0
    5.2500    1.2990    0.0000 C   0  0  0  0  0  0  0  0  0  0  0  0
    6.0000    2.5981    0.0000 C   0  0  0  0  0  0  0  0  0  0  0  0
    5.2500    3.8971    0.0000 C   0  0  0  0  0  0  0  0  0  0  0  0
    3.7500    3.8971    0.0000 C   0  0  0  0  0  0  0  0  0  0  0  0
   -0.7500    1.2990    0.0000 C   0  0  0  0  0  0  0  0  0  0  0  0
   -1.5000    2.5981    0.0000 N   0  0  0  0  0  0  0  0  0  0  0  0
   -3.0000    2.5981    0.0000 C   0  0  0  0  0  0  0  0  0  0  0  0
   -3.7500    3.8971    0.0000 C   0  0  0  0  0  0  0  0  0  0  0  0
   -5.2500    3.8971    0.0000 C   0  0  0  0  0  0  0  0  0  0  0  0
   -6.0000    2.5981    0.0000 C   0  0  0  0  0  0  0  0  0  0  0  0
   -5.2500    1.2990    0.0000 C   0  0  0  0  0  0  0  0  0  0  0  0
   -3.7500    1.2990    0.0000 C   0  0  0  0  0  0  0  0  0  0  0  0
   -1.5000    0.0000    0.0000 C   0  0  0  0  0  0  0  0  0  0  0  0
   -0.7500   -1.2990    0.0000 C   0  0  0  0  0  0  0  0  0  0  0  0
  1  2  2  0
  2  3  1  0
  3  4  1  0
  4  5  2  0
  4  6  1  0
  6  7  2  0
  7  8  1  0
  8  9  1  0
  9 10  1  0
 10 11  2  0
 11 12  1  0
 12 13  2  0
 13 14  1  0
 14 15  2  0
  8 16  2  0
 16 17  1  0
 17 18  1  0
 18 19  2  0
 19 20  1  0
 20 21  2  0
 21 22  1  0
 22 23  2  0
 16 24  1  0
 24 25  2  0
 25  2  1  0
 25  6  1  0
 15 10  1  0
 23 18  1  0
M  END
>  <Compound_ID>  (322) 
CHEMBL268868

>  <Active>  (322) 
1.0

>  <Smiles>  (322) 
O=C1NC(=O)c2cc(Nc3ccccc3)c(Nc3ccccc3)cc21

>  <canonical_smi>  (322) 
O=C1NC(=O)c2cc(Nc3ccccc3)c(Nc3ccccc3)cc21

>  <Set>  (322) 
G2 active

>  <Set_type>  (322) 
Train

>  <MW>  (322) 
329.36

>  <HBD>  (322) 
3

>  <HBA>  (322) 
4

>  <NRB>  (322) 
4

>  <NR>  (322) 
4

>  <NAR>  (322) 
3

>  <PSA>  (322) 
70.23

>  <Standard Type>  (322) 
nan

>  <Standard Relation>  (322) 
nan

>  <Standard Units>  (322) 
nan

>  <Standard Value>  (322) 
nan

>  <Assay ChEMBL ID>  (322) 
nan

>  <Assay Description>  (322) 
nan

>  <BAO Label>  (322) 
nan

$$$$

     RDKit          2D

 18 20  0  0  0  0  0  0  0  0999 V2000
    3.0000    0.0000    0.0000 N   0  0  0  0  0  0  0  0  0  0  0  0
    1.5000    0.0000    0.0000 C   0  0  0  0  0  0  0  0  0  0  0  0
    0.7500   -1.2990    0.0000 N   0  0  0  0  0  0  0  0  0  0  0  0
   -0.7500   -1.2990    0.0000 C   0  0  0  0  0  0  0  0  0  0  0  0
   -1.5000    0.0000    0.0000 N   0  0  0  0  0  0  0  0  0  0  0  0
   -0.7500    1.2990    0.0000 C   0  0  0  0  0  0  0  0  0  0  0  0
   -1.2135    2.7256    0.0000 N   0  0  0  0  0  0  0  0  0  0  0  0
   -0.0000    3.6073    0.0000 N   0  0  0  0  0  0  0  0  0  0  0  0
    1.2135    2.7256    0.0000 C   0  0  0  0  0  0  0  0  0  0  0  0
    2.6401    3.1891    0.0000 N   0  0  0  0  0  0  0  0  0  0  0  0
    2.9520    4.6564    0.0000 C   0  0  0  0  0  0  0  0  0  0  0  0
    4.3786    5.1199    0.0000 C   0  0  0  0  0  0  0  0  0  0  0  0
    4.6904    6.5871    0.0000 C   0  0  0  0  0  0  0  0  0  0  0  0
    3.5757    7.5908    0.0000 C   0  0  0  0  0  0  0  0  0  0  0  0
    2.1491    7.1273    0.0000 C   0  0  0  0  0  0  0  0  0  0  0  0
    1.0344    8.1310    0.0000 Cl  0  0  0  0  0  0  0  0  0  0  0  0
    1.8373    5.6601    0.0000 C   0  0  0  0  0  0  0  0  0  0  0  0
    0.7500    1.2990    0.0000 C   0  0  0  0  0  0  0  0  0  0  0  0
  1  2  1  0
  2  3  1  0
  3  4  1  0
  4  5  2  0
  5  6  1  0
  6  7  2  0
  7  8  1  0
  8  9  2  0
  9 10  1  0
 10 11  1  0
 11 12  2  0
 12 13  1  0
 13 14  2  0
 14 15  1  0
 15 16  1  0
 15 17  2  0
  9 18  1  0
 18  2  2  0
 18  6  1  0
 17 11  1  0
M  END
>  <Compound_ID>  (323) 
CHEMBL121190

>  <Active>  (323) 
1.0

>  <Smiles>  (323) 
Nc1[nH]cnc2nnc(Nc3cccc(Cl)c3)c1-2

>  <canonical_smi>  (323) 
Nc1[nH]cnc2nnc(Nc3cccc(Cl)c3)c1-2

>  <Set>  (323) 
G2 active

>  <Set_type>  (323) 
Train

>  <MW>  (323) 
260.69

>  <HBD>  (323) 
3

>  <HBA>  (323) 
5

>  <NRB>  (323) 
2

>  <NR>  (323) 
3

>  <NAR>  (323) 
3

>  <PSA>  (323) 
92.51

>  <Standard Type>  (323) 
nan

>  <Standard Relation>  (323) 
nan

>  <Standard Units>  (323) 
nan

>  <Standard Value>  (323) 
nan

>  <Assay ChEMBL ID>  (323) 
nan

>  <Assay Description>  (323) 
nan

>  <BAO Label>  (323) 
nan

$$$$

     RDKit          2D

 39 44  0  0  0  0  0  0  0  0999 V2000
   -2.9520   -4.6564    0.0000 C   0  0  0  0  0  0  0  0  0  0  0  0
   -2.6401   -3.1891    0.0000 C   0  0  0  0  0  0  0  0  0  0  0  0
   -1.2135   -2.7256    0.0000 C   0  0  0  0  0  0  0  0  0  0  0  0
   -0.0000   -3.6073    0.0000 C   0  0  0  0  0  0  0  0  0  0  0  0
   -0.0000   -5.1073    0.0000 C   0  0  0  0  0  0  0  0  0  0  0  0
   -1.2990   -5.8573    0.0000 O   0  0  0  0  0  0  0  0  0  0  0  0
    1.2990   -5.8573    0.0000 O   0  0  0  0  0  0  0  0  0  0  0  0
    1.2990   -7.3573    0.0000 C   0  0  0  0  0  0  0  0  0  0  0  0
    2.5981   -8.1073    0.0000 C   0  0  0  0  0  0  0  0  0  0  0  0
    2.5981   -9.6073    0.0000 C   0  0  0  0  0  0  0  0  0  0  0  0
    3.8971  -10.3573    0.0000 N   0  0  0  0  0  0  0  0  0  0  0  0
    5.2674   -9.7472    0.0000 C   0  0  0  0  0  0  0  0  0  0  0  0
    6.2711  -10.8619    0.0000 C   0  0  0  0  0  0  0  0  0  0  0  0
    5.5211  -12.1610    0.0000 N   0  0  0  0  0  0  0  0  0  0  0  0
    4.0539  -11.8491    0.0000 C   0  0  0  0  0  0  0  0  0  0  0  0
    1.2135   -2.7256    0.0000 C   0  0  0  0  0  0  0  0  0  0  0  0
    0.7500   -1.2990    0.0000 N   0  0  0  0  0  0  0  0  0  0  0  0
    1.5000    0.0000    0.0000 N   0  0  0  0  0  0  0  0  0  0  0  0
    0.7500    1.2990    0.0000 C   0  0  0  0  0  0  0  0  0  0  0  0
   -0.7500    1.2990    0.0000 N   0  0  0  0  0  0  0  0  0  0  0  0
   -1.5000    0.0000    0.0000 C   0  0  0  0  0  0  0  0  0  0  0  0
   -3.0000    0.0000    0.0000 N   0  0  0  0  0  0  0  0  0  0  0  0
   -3.7500    1.2990    0.0000 C   0  0  0  0  0  0  0  0  0  0  0  0
   -3.0000    2.5981    0.0000 C   0  0  0  0  0  0  0  0  0  0  0  0
   -3.7500    3.8971    0.0000 C   0  0  0  0  0  0  0  0  0  0  0  0
   -5.2500    3.8971    0.0000 C   0  0  0  0  0  0  0  0  0  0  0  0
   -6.0000    2.5981    0.0000 C   0  0  0  0  0  0  0  0  0  0  0  0
   -7.4672    2.9099    0.0000 C   0  0  0  0  0  0  0  0  0  0  0  0
   -7.6240    4.4017    0.0000 N   0  0  0  0  0  0  0  0  0  0  0  0
   -6.2537    5.0118    0.0000 N   0  0  0  0  0  0  0  0  0  0  0  0
   -5.9418    6.4791    0.0000 C   0  0  0  0  0  0  0  0  0  0  0  0
   -7.0565    7.4827    0.0000 C   0  0  0  0  0  0  0  0  0  0  0  0
   -6.7447    8.9500    0.0000 C   0  0  0  0  0  0  0  0  0  0  0  0
   -7.8594    9.9537    0.0000 C   0  0  0  0  0  0  0  0  0  0  0  0
   -9.2860    9.4901    0.0000 C   0  0  0  0  0  0  0  0  0  0  0  0
   -9.5978    8.0229    0.0000 C   0  0  0  0  0  0  0  0  0  0  0  0
   -8.4831    7.0192    0.0000 C   0  0  0  0  0  0  0  0  0  0  0  0
   -5.2500    1.2990    0.0000 C   0  0  0  0  0  0  0  0  0  0  0  0
   -0.7500   -1.2990    0.0000 C   0  0  0  0  0  0  0  0  0  0  0  0
  1  2  1  0
  2  3  1  0
  3  4  1  0
  4  5  1  0
  5  6  2  0
  5  7  1  0
  7  8  1  0
  8  9  1  0
  9 10  1  0
 10 11  1  0
 11 12  1  0
 12 13  2  0
 13 14  1  0
 14 15  2  0
  4 16  2  0
 16 17  1  0
 17 18  1  0
 18 19  2  0
 19 20  1  0
 20 21  2  0
 21 22  1  0
 22 23  1  0
 23 24  2  0
 24 25  1  0
 25 26  2  0
 26 27  1  0
 27 28  1  0
 28 29  2  0
 29 30  1  0
 30 31  1  0
 31 32  1  0
 32 33  2  0
 33 34  1  0
 34 35  2  0
 35 36  1  0
 36 37  2  0
 27 38  2  0
 21 39  1  0
 39  3  2  0
 15 11  1  0
 39 17  1  0
 38 23  1  0
 30 26  1  0
 37 32  1  0
M  END
>  <Compound_ID>  (324) 
CHEMBL193368

>  <Active>  (324) 
1.0

>  <Smiles>  (324) 
CCc1c(C(=O)OCCCn2ccnc2)cn2ncnc(Nc3ccc4c(cnn4Cc4ccccc4)c3)c12

>  <canonical_smi>  (324) 
CCc1c(C(=O)OCCCn2ccnc2)cn2ncnc(Nc3ccc4c(cnn4Cc4ccccc4)c3)c12

>  <Set>  (324) 
G2 active

>  <Set_type>  (324) 
Train

>  <MW>  (324) 
520.6

>  <HBD>  (324) 
1

>  <HBA>  (324) 
7

>  <NRB>  (324) 
10

>  <NR>  (324) 
6

>  <NAR>  (324) 
6

>  <PSA>  (324) 
104.16

>  <Standard Type>  (324) 
nan

>  <Standard Relation>  (324) 
nan

>  <Standard Units>  (324) 
nan

>  <Standard Value>  (324) 
nan

>  <Assay ChEMBL ID>  (324) 
nan

>  <Assay Description>  (324) 
nan

>  <BAO Label>  (324) 
nan

$$$$

     RDKit          2D

 34 38  0  0  0  0  0  0  0  0999 V2000
    3.7500   -1.2990    0.0000 C   0  0  0  0  0  0  0  0  0  0  0  0
    3.0000    0.0000    0.0000 O   0  0  0  0  0  0  0  0  0  0  0  0
    1.5000    0.0000    0.0000 C   0  0  0  0  0  0  0  0  0  0  0  0
    0.7500   -1.2990    0.0000 C   0  0  0  0  0  0  0  0  0  0  0  0
   -0.7500   -1.2990    0.0000 C   0  0  0  0  0  0  0  0  0  0  0  0
   -1.5000   -2.5981    0.0000 C   0  0  0  0  0  0  0  0  0  0  0  0
   -0.7500   -3.8971    0.0000 N   0  0  0  0  0  0  0  0  0  0  0  0
   -1.5000   -5.1962    0.0000 C   0  0  0  0  0  0  0  0  0  0  0  0
   -2.7990   -5.9462    0.0000 C   0  0  0  0  0  0  0  0  0  0  0  0
   -1.5000   -6.6962    0.0000 C   0  0  0  0  0  0  0  0  0  0  0  0
   -0.7500   -7.9952    0.0000 C   0  0  0  0  0  0  0  0  0  0  0  0
    0.7500   -7.9952    0.0000 C   0  0  0  0  0  0  0  0  0  0  0  0
    1.5000   -9.2942    0.0000 C   0  0  0  0  0  0  0  0  0  0  0  0
    0.7500  -10.5933    0.0000 C   0  0  0  0  0  0  0  0  0  0  0  0
   -0.7500  -10.5933    0.0000 C   0  0  0  0  0  0  0  0  0  0  0  0
   -1.5000   -9.2942    0.0000 C   0  0  0  0  0  0  0  0  0  0  0  0
   -3.0000   -2.5981    0.0000 C   0  0  0  0  0  0  0  0  0  0  0  0
   -3.7500   -3.8971    0.0000 C   0  0  0  0  0  0  0  0  0  0  0  0
   -4.5000   -5.1962    0.0000 N   0  0  0  0  0  0  0  0  0  0  0  0
   -3.7500   -1.2990    0.0000 C   0  0  0  0  0  0  0  0  0  0  0  0
   -3.0000    0.0000    0.0000 N   0  0  0  0  0  0  0  0  0  0  0  0
   -1.5000    0.0000    0.0000 C   0  0  0  0  0  0  0  0  0  0  0  0
   -0.7500    1.2990    0.0000 C   0  0  0  0  0  0  0  0  0  0  0  0
    0.7500    1.2990    0.0000 C   0  0  0  0  0  0  0  0  0  0  0  0
    1.5000    2.5981    0.0000 O   0  0  0  0  0  0  0  0  0  0  0  0
    0.7500    3.8971    0.0000 C   0  0  0  0  0  0  0  0  0  0  0  0
    1.5000    5.1962    0.0000 C   0  0  0  0  0  0  0  0  0  0  0  0
    0.7500    6.4952    0.0000 C   0  0  0  0  0  0  0  0  0  0  0  0
    1.5000    7.7942    0.0000 C   0  0  0  0  0  0  0  0  0  0  0  0
    3.0000    7.7942    0.0000 C   0  0  0  0  0  0  0  0  0  0  0  0
    3.7500    9.0933    0.0000 C   0  0  0  0  0  0  0  0  0  0  0  0
    3.0000   10.3923    0.0000 C   0  0  0  0  0  0  0  0  0  0  0  0
    1.5000   10.3923    0.0000 N   0  0  0  0  0  0  0  0  0  0  0  0
    0.7500    9.0933    0.0000 C   0  0  0  0  0  0  0  0  0  0  0  0
  1  2  1  0
  2  3  1  0
  3  4  2  0
  4  5  1  0
  5  6  2  0
  6  7  1  0
  8  7  1  1
  8  9  1  0
  9 10  1  0
 10 11  1  6
 11 12  2  0
 12 13  1  0
 13 14  2  0
 14 15  1  0
 15 16  2  0
  6 17  1  0
 17 18  1  0
 18 19  3  0
 17 20  2  0
 20 21  1  0
 21 22  2  0
 22 23  1  0
 23 24  2  0
 24 25  1  0
 25 26  1  0
 26 27  1  0
 27 28  1  0
 28 29  1  0
 29 30  2  0
 30 31  1  0
 31 32  2  0
 32 33  1  0
 33 34  2  0
 24  3  1  0
 34 29  1  0
 22  5  1  0
 10  8  1  0
 16 11  1  0
M  END
>  <Compound_ID>  (325) 
CHEMBL248391

>  <Active>  (325) 
1.0

>  <Smiles>  (325) 
COc1cc2c(N[C@@H]3C[C@H]3c3ccccc3)c(C#N)cnc2cc1OCCCc1cccnc1

>  <canonical_smi>  (325) 
COc1cc2c(N[C@@H]3C[C@H]3c3ccccc3)c(C#N)cnc2cc1OCCCc1cccnc1

>  <Set>  (325) 
G2 active

>  <Set_type>  (325) 
Train

>  <MW>  (325) 
450.54

>  <HBD>  (325) 
1

>  <HBA>  (325) 
6

>  <NRB>  (325) 
9

>  <NR>  (325) 
5

>  <NAR>  (325) 
4

>  <PSA>  (325) 
80.06

>  <Standard Type>  (325) 
nan

>  <Standard Relation>  (325) 
nan

>  <Standard Units>  (325) 
nan

>  <Standard Value>  (325) 
nan

>  <Assay ChEMBL ID>  (325) 
nan

>  <Assay Description>  (325) 
nan

>  <BAO Label>  (325) 
nan

$$$$

     RDKit          2D

 22 23  0  0  0  0  0  0  0  0999 V2000
    5.2500   -1.2990    0.0000 C   0  0  0  0  0  0  0  0  0  0  0  0
    3.7500   -1.2990    0.0000 C   0  0  0  0  0  0  0  0  0  0  0  0
    3.0000   -2.5981    0.0000 C   0  0  0  0  0  0  0  0  0  0  0  0
    3.7500   -3.8971    0.0000 N   0  0  0  0  0  0  0  0  0  0  0  0
    3.0000   -5.1962    0.0000 C   0  0  0  0  0  0  0  0  0  0  0  0
    5.2500   -3.8971    0.0000 C   0  0  0  0  0  0  0  0  0  0  0  0
    3.0000    0.0000    0.0000 C   0  0  0  0  0  0  0  0  0  0  0  0
    3.7500    1.2990    0.0000 O   0  0  0  0  0  0  0  0  0  0  0  0
    1.5000    0.0000    0.0000 C   0  0  0  0  0  0  0  0  0  0  0  0
    0.7500   -1.2990    0.0000 C   0  0  0  0  0  0  0  0  0  0  0  0
   -0.7500   -1.2990    0.0000 C   0  0  0  0  0  0  0  0  0  0  0  0
   -1.5000    0.0000    0.0000 C   0  0  0  0  0  0  0  0  0  0  0  0
   -3.0000    0.0000    0.0000 O   0  0  0  0  0  0  0  0  0  0  0  0
   -3.7500    1.2990    0.0000 C   0  0  0  0  0  0  0  0  0  0  0  0
   -5.2500    1.2990    0.0000 C   0  0  0  0  0  0  0  0  0  0  0  0
   -6.0000    2.5981    0.0000 C   0  0  0  0  0  0  0  0  0  0  0  0
   -7.5000    2.5981    0.0000 C   0  0  0  0  0  0  0  0  0  0  0  0
   -8.2500    1.2990    0.0000 C   0  0  0  0  0  0  0  0  0  0  0  0
   -7.5000    0.0000    0.0000 C   0  0  0  0  0  0  0  0  0  0  0  0
   -6.0000    0.0000    0.0000 C   0  0  0  0  0  0  0  0  0  0  0  0
   -0.7500    1.2990    0.0000 C   0  0  0  0  0  0  0  0  0  0  0  0
    0.7500    1.2990    0.0000 C   0  0  0  0  0  0  0  0  0  0  0  0
  1  2  2  0
  2  3  1  0
  3  4  1  0
  4  5  1  0
  4  6  1  0
  2  7  1  0
  7  8  2  0
  7  9  1  0
  9 10  2  0
 10 11  1  0
 11 12  2  0
 12 13  1  0
 13 14  1  0
 14 15  1  0
 15 16  2  0
 16 17  1  0
 17 18  2  0
 18 19  1  0
 19 20  2  0
 12 21  1  0
 21 22  2  0
 22  9  1  0
 20 15  1  0
M  END
>  <Compound_ID>  (326) 
CHEMBL552859

>  <Active>  (326) 
1.0

>  <Smiles>  (326) 
C=C(CN(C)C)C(=O)c1ccc(OCc2ccccc2)cc1

>  <canonical_smi>  (326) 
C=C(CN(C)C)C(=O)c1ccc(OCc2ccccc2)cc1

>  <Set>  (326) 
G2 active

>  <Set_type>  (326) 
Train

>  <MW>  (326) 
295.38

>  <HBD>  (326) 
0

>  <HBA>  (326) 
3

>  <NRB>  (326) 
7

>  <NR>  (326) 
2

>  <NAR>  (326) 
2

>  <PSA>  (326) 
29.54

>  <Standard Type>  (326) 
nan

>  <Standard Relation>  (326) 
nan

>  <Standard Units>  (326) 
nan

>  <Standard Value>  (326) 
nan

>  <Assay ChEMBL ID>  (326) 
nan

>  <Assay Description>  (326) 
nan

>  <BAO Label>  (326) 
nan

$$$$

     RDKit          2D

 35 39  0  0  0  0  0  0  0  0999 V2000
    5.2500   -1.2990    0.0000 C   0  0  0  0  0  0  0  0  0  0  0  0
    3.7500   -1.2990    0.0000 C   0  0  0  0  0  0  0  0  0  0  0  0
    3.0000    0.0000    0.0000 O   0  0  0  0  0  0  0  0  0  0  0  0
    1.5000    0.0000    0.0000 C   0  0  0  0  0  0  0  0  0  0  0  0
    0.7500   -1.2990    0.0000 C   0  0  0  0  0  0  0  0  0  0  0  0
   -0.7500   -1.2990    0.0000 C   0  0  0  0  0  0  0  0  0  0  0  0
   -1.5000    0.0000    0.0000 C   0  0  0  0  0  0  0  0  0  0  0  0
   -0.7500    1.2990    0.0000 C   0  0  0  0  0  0  0  0  0  0  0  0
   -1.5000    2.5981    0.0000 N   0  0  0  0  0  0  0  0  0  0  0  0
   -0.7500    3.8971    0.0000 C   0  0  0  0  0  0  0  0  0  0  0  0
    0.7500    3.8971    0.0000 N   0  0  0  0  0  0  0  0  0  0  0  0
    1.5000    2.5981    0.0000 C   0  0  0  0  0  0  0  0  0  0  0  0
    3.0000    2.5981    0.0000 N   0  0  0  0  0  0  0  0  0  0  0  0
    3.7500    3.8971    0.0000 C   0  0  0  0  0  0  0  0  0  0  0  0
    3.0000    5.1962    0.0000 C   0  0  0  0  0  0  0  0  0  0  0  0
    3.7500    6.4952    0.0000 C   0  0  0  0  0  0  0  0  0  0  0  0
    5.2500    6.4952    0.0000 C   0  0  0  0  0  0  0  0  0  0  0  0
    6.0000    5.1962    0.0000 C   0  0  0  0  0  0  0  0  0  0  0  0
    7.4672    5.5080    0.0000 C   0  0  0  0  0  0  0  0  0  0  0  0
    7.6240    6.9998    0.0000 N   0  0  0  0  0  0  0  0  0  0  0  0
    6.2537    7.6099    0.0000 N   0  0  0  0  0  0  0  0  0  0  0  0
    5.9418    9.0771    0.0000 C   0  0  0  0  0  0  0  0  0  0  0  0
    7.0565   10.0808    0.0000 C   0  0  0  0  0  0  0  0  0  0  0  0
    8.4831    9.6173    0.0000 C   0  0  0  0  0  0  0  0  0  0  0  0
    9.5978   10.6210    0.0000 C   0  0  0  0  0  0  0  0  0  0  0  0
    9.2860   12.0882    0.0000 C   0  0  0  0  0  0  0  0  0  0  0  0
    7.8594   12.5517    0.0000 C   0  0  0  0  0  0  0  0  0  0  0  0
    6.7447   11.5480    0.0000 N   0  0  0  0  0  0  0  0  0  0  0  0
    5.2500    3.8971    0.0000 C   0  0  0  0  0  0  0  0  0  0  0  0
    0.7500    1.2990    0.0000 C   0  0  0  0  0  0  0  0  0  0  0  0
    3.0000   -2.5981    0.0000 C   0  0  0  0  0  0  0  0  0  0  0  0
    1.5000   -2.5981    0.0000 O   0  0  0  0  0  0  0  0  0  0  0  0
    3.7500   -3.8971    0.0000 N   0  0  0  0  0  0  0  0  0  0  0  0
    3.0000   -5.1962    0.0000 C   0  0  0  0  0  0  0  0  0  0  0  0
    5.2500   -3.8971    0.0000 C   0  0  0  0  0  0  0  0  0  0  0  0
  2  1  1  6
  2  3  1  0
  3  4  1  0
  4  5  2  0
  5  6  1  0
  6  7  2  0
  7  8  1  0
  8  9  2  0
  9 10  1  0
 10 11  2  0
 11 12  1  0
 12 13  1  0
 13 14  1  0
 14 15  2  0
 15 16  1  0
 16 17  2  0
 17 18  1  0
 18 19  1  0
 19 20  2  0
 20 21  1  0
 21 22  1  0
 22 23  1  0
 23 24  2  0
 24 25  1  0
 25 26  2  0
 26 27  1  0
 27 28  2  0
 18 29  2  0
 12 30  2  0
  2 31  1  0
 31 32  2  0
 31 33  1  0
 33 34  1  0
 33 35  1  0
 30  4  1  0
 30  8  1  0
 29 14  1  0
 21 17  1  0
 28 23  1  0
M  END
>  <Compound_ID>  (327) 
CHEMBL402011

>  <Active>  (327) 
1.0

>  <Smiles>  (327) 
C[C@@H](Oc1cccc2ncnc(Nc3ccc4c(cnn4Cc4ccccn4)c3)c12)C(=O)N(C)C

>  <canonical_smi>  (327) 
C[C@@H](Oc1cccc2ncnc(Nc3ccc4c(cnn4Cc4ccccn4)c3)c12)C(=O)N(C)C

>  <Set>  (327) 
G2 active

>  <Set_type>  (327) 
Train

>  <MW>  (327) 
467.53

>  <HBD>  (327) 
1

>  <HBA>  (327) 
7

>  <NRB>  (327) 
7

>  <NR>  (327) 
5

>  <NAR>  (327) 
5

>  <PSA>  (327) 
98.06

>  <Standard Type>  (327) 
nan

>  <Standard Relation>  (327) 
nan

>  <Standard Units>  (327) 
nan

>  <Standard Value>  (327) 
nan

>  <Assay ChEMBL ID>  (327) 
nan

>  <Assay Description>  (327) 
nan

>  <BAO Label>  (327) 
nan

$$$$

     RDKit          2D

 40 45  0  0  0  0  0  0  0  0999 V2000
   -0.4702  -13.1562    0.0000 O   0  0  0  0  0  0  0  0  0  0  0  0
    1.0216  -12.9994    0.0000 C   0  0  0  0  0  0  0  0  0  0  0  0
    1.6317  -11.6291    0.0000 O   0  0  0  0  0  0  0  0  0  0  0  0
    0.7500  -10.4156    0.0000 C   0  0  0  0  0  0  0  0  0  0  0  0
   -0.7500  -10.4156    0.0000 C   0  0  0  0  0  0  0  0  0  0  0  0
   -1.2135   -8.9890    0.0000 N   0  0  0  0  0  0  0  0  0  0  0  0
    0.0000   -8.1073    0.0000 C   0  0  0  0  0  0  0  0  0  0  0  0
   -0.0000   -6.6073    0.0000 C   0  0  0  0  0  0  0  0  0  0  0  0
   -0.0000   -5.1073    0.0000 C   0  0  0  0  0  0  0  0  0  0  0  0
   -0.0000   -3.6073    0.0000 C   0  0  0  0  0  0  0  0  0  0  0  0
    1.2135   -2.7256    0.0000 C   0  0  0  0  0  0  0  0  0  0  0  0
    0.7500   -1.2990    0.0000 C   0  0  0  0  0  0  0  0  0  0  0  0
    1.5000    0.0000    0.0000 N   0  0  0  0  0  0  0  0  0  0  0  0
    0.7500    1.2990    0.0000 C   0  0  0  0  0  0  0  0  0  0  0  0
   -0.7500    1.2990    0.0000 N   0  0  0  0  0  0  0  0  0  0  0  0
   -1.5000    0.0000    0.0000 C   0  0  0  0  0  0  0  0  0  0  0  0
   -3.0000    0.0000    0.0000 N   0  0  0  0  0  0  0  0  0  0  0  0
   -3.7500    1.2990    0.0000 C   0  0  0  0  0  0  0  0  0  0  0  0
   -5.2500    1.2990    0.0000 C   0  0  0  0  0  0  0  0  0  0  0  0
   -6.0000    2.5981    0.0000 C   0  0  0  0  0  0  0  0  0  0  0  0
   -7.5000    2.5981    0.0000 C   0  0  0  0  0  0  0  0  0  0  0  0
   -8.2500    1.2990    0.0000 C   0  0  0  0  0  0  0  0  0  0  0  0
   -7.5000    0.0000    0.0000 C   0  0  0  0  0  0  0  0  0  0  0  0
   -8.2500   -1.2990    0.0000 O   0  0  0  0  0  0  0  0  0  0  0  0
   -9.7500   -1.2990    0.0000 C   0  0  0  0  0  0  0  0  0  0  0  0
  -10.5000    0.0000    0.0000 C   0  0  0  0  0  0  0  0  0  0  0  0
  -12.0000    0.0000    0.0000 C   0  0  0  0  0  0  0  0  0  0  0  0
  -12.7500   -1.2990    0.0000 C   0  0  0  0  0  0  0  0  0  0  0  0
  -12.0000   -2.5981    0.0000 C   0  0  0  0  0  0  0  0  0  0  0  0
  -10.5000   -2.5981    0.0000 C   0  0  0  0  0  0  0  0  0  0  0  0
   -6.0000    0.0000    0.0000 C   0  0  0  0  0  0  0  0  0  0  0  0
   -0.7500   -1.2990    0.0000 C   0  0  0  0  0  0  0  0  0  0  0  0
   -1.2135   -2.7256    0.0000 S   0  0  0  0  0  0  0  0  0  0  0  0
    1.2135   -8.9890    0.0000 C   0  0  0  0  0  0  0  0  0  0  0  0
    1.9033  -14.2129    0.0000 N   0  0  0  0  0  0  0  0  0  0  0  0
    1.2931  -15.5833    0.0000 C   0  0  0  0  0  0  0  0  0  0  0  0
    2.1748  -16.7968    0.0000 C   0  0  0  0  0  0  0  0  0  0  0  0
    3.6666  -16.6400    0.0000 O   0  0  0  0  0  0  0  0  0  0  0  0
    4.2767  -15.2697    0.0000 C   0  0  0  0  0  0  0  0  0  0  0  0
    3.3950  -14.0561    0.0000 C   0  0  0  0  0  0  0  0  0  0  0  0
  1  2  2  0
  2  3  1  0
  4  3  1  1
  4  5  1  0
  5  6  1  0
  6  7  1  0
  7  8  1  6
  8  9  3  0
  9 10  1  0
 10 11  2  0
 11 12  1  0
 12 13  2  0
 13 14  1  0
 14 15  2  0
 15 16  1  0
 16 17  1  0
 17 18  1  0
 18 19  1  0
 19 20  2  0
 20 21  1  0
 21 22  2  0
 22 23  1  0
 23 24  1  0
 24 25  1  0
 25 26  2  0
 26 27  1  0
 27 28  2  0
 28 29  1  0
 29 30  2  0
 23 31  2  0
 16 32  2  0
 32 33  1  0
  7 34  1  0
  2 35  1  0
 35 36  1  0
 36 37  1  0
 37 38  1  0
 38 39  1  0
 39 40  1  0
 34  4  1  0
 40 35  1  0
 33 10  1  0
 32 12  1  0
 31 19  1  0
 30 25  1  0
M  END
>  <Compound_ID>  (328) 
CHEMBL455433

>  <Active>  (328) 
1.0

>  <Smiles>  (328) 
O=C(O[C@H]1CN[C@H](C#Cc2cc3ncnc(NCc4cccc(Oc5ccccc5)c4)c3s2)C1)N1CCOCC1

>  <canonical_smi>  (328) 
O=C(O[C@H]1CN[C@H](C#Cc2cc3ncnc(NCc4cccc(Oc5ccccc5)c4)c3s2)C1)N1CCOCC1

>  <Set>  (328) 
G2 active

>  <Set_type>  (328) 
Train

>  <MW>  (328) 
555.66

>  <HBD>  (328) 
2

>  <HBA>  (328) 
8

>  <NRB>  (328) 
6

>  <NR>  (328) 
6

>  <NAR>  (328) 
4

>  <PSA>  (328) 
97.84

>  <Standard Type>  (328) 
nan

>  <Standard Relation>  (328) 
nan

>  <Standard Units>  (328) 
nan

>  <Standard Value>  (328) 
nan

>  <Assay ChEMBL ID>  (328) 
nan

>  <Assay Description>  (328) 
nan

>  <BAO Label>  (328) 
nan

$$$$

     RDKit          2D

 27 30  0  0  0  0  0  0  0  0999 V2000
   -6.0000    0.0000    0.0000 C   0  0  0  0  0  0  0  0  0  0  0  0
   -5.2500   -1.2990    0.0000 O   0  0  0  0  0  0  0  0  0  0  0  0
   -3.7500   -1.2990    0.0000 C   0  0  0  0  0  0  0  0  0  0  0  0
   -3.0000   -2.5981    0.0000 C   0  0  0  0  0  0  0  0  0  0  0  0
   -1.5000   -2.5981    0.0000 C   0  0  0  0  0  0  0  0  0  0  0  0
   -0.7500   -3.8971    0.0000 O   0  0  0  0  0  0  0  0  0  0  0  0
   -1.5000   -5.1962    0.0000 C   0  0  0  0  0  0  0  0  0  0  0  0
   -0.8899   -6.5665    0.0000 C   0  0  0  0  0  0  0  0  0  0  0  0
   -2.0046   -7.5702    0.0000 C   0  0  0  0  0  0  0  0  0  0  0  0
   -3.3037   -6.8202    0.0000 O   0  0  0  0  0  0  0  0  0  0  0  0
   -2.9918   -5.3529    0.0000 C   0  0  0  0  0  0  0  0  0  0  0  0
   -0.7500   -1.2990    0.0000 C   0  0  0  0  0  0  0  0  0  0  0  0
    0.7500   -1.2990    0.0000 C   0  0  0  0  0  0  0  0  0  0  0  0
    1.5000   -2.5981    0.0000 N   0  0  0  0  0  0  0  0  0  0  0  0
    3.0000   -2.5981    0.0000 C   0  0  0  0  0  0  0  0  0  0  0  0
    3.7500   -3.8971    0.0000 C   0  0  0  0  0  0  0  0  0  0  0  0
    5.2500   -3.8971    0.0000 C   0  0  0  0  0  0  0  0  0  0  0  0
    6.0000   -2.5981    0.0000 C   0  0  0  0  0  0  0  0  0  0  0  0
    7.5000   -2.5981    0.0000 F   0  0  0  0  0  0  0  0  0  0  0  0
    5.2500   -1.2990    0.0000 C   0  0  0  0  0  0  0  0  0  0  0  0
    6.0000   -0.0000    0.0000 Cl  0  0  0  0  0  0  0  0  0  0  0  0
    3.7500   -1.2990    0.0000 C   0  0  0  0  0  0  0  0  0  0  0  0
    1.5000    0.0000    0.0000 N   0  0  0  0  0  0  0  0  0  0  0  0
    0.7500    1.2990    0.0000 C   0  0  0  0  0  0  0  0  0  0  0  0
   -0.7500    1.2990    0.0000 N   0  0  0  0  0  0  0  0  0  0  0  0
   -1.5000    0.0000    0.0000 C   0  0  0  0  0  0  0  0  0  0  0  0
   -3.0000    0.0000    0.0000 C   0  0  0  0  0  0  0  0  0  0  0  0
  1  2  1  0
  2  3  1  0
  3  4  2  0
  4  5  1  0
  5  6  1  0
  6  7  1  0
  7  8  1  0
  8  9  1  0
  9 10  1  0
 10 11  1  0
  5 12  2  0
 12 13  1  0
 13 14  1  0
 14 15  1  0
 15 16  2  0
 16 17  1  0
 17 18  2  0
 18 19  1  0
 18 20  1  0
 20 21  1  0
 20 22  2  0
 13 23  2  0
 23 24  1  0
 24 25  2  0
 25 26  1  0
 26 27  2  0
 27  3  1  0
 11  7  1  0
 26 12  1  0
 22 15  1  0
M  END
>  <Compound_ID>  (329) 
CHEMBL204268

>  <Active>  (329) 
1.0

>  <Smiles>  (329) 
COc1cc(OC2CCOC2)c2c(Nc3ccc(F)c(Cl)c3)ncnc2c1

>  <canonical_smi>  (329) 
COc1cc(OC2CCOC2)c2c(Nc3ccc(F)c(Cl)c3)ncnc2c1

>  <Set>  (329) 
G2 active

>  <Set_type>  (329) 
Train

>  <MW>  (329) 
389.81

>  <HBD>  (329) 
1

>  <HBA>  (329) 
6

>  <NRB>  (329) 
5

>  <NR>  (329) 
4

>  <NAR>  (329) 
3

>  <PSA>  (329) 
65.5

>  <Standard Type>  (329) 
nan

>  <Standard Relation>  (329) 
nan

>  <Standard Units>  (329) 
nan

>  <Standard Value>  (329) 
nan

>  <Assay ChEMBL ID>  (329) 
nan

>  <Assay Description>  (329) 
nan

>  <BAO Label>  (329) 
nan

$$$$

     RDKit          2D

 40 45  0  0  0  0  0  0  0  0999 V2000
   -0.4702  -13.1562    0.0000 O   0  0  0  0  0  0  0  0  0  0  0  0
    1.0216  -12.9994    0.0000 C   0  0  0  0  0  0  0  0  0  0  0  0
    1.6317  -11.6291    0.0000 O   0  0  0  0  0  0  0  0  0  0  0  0
    0.7500  -10.4156    0.0000 C   0  0  0  0  0  0  0  0  0  0  0  0
   -0.7500  -10.4156    0.0000 C   0  0  0  0  0  0  0  0  0  0  0  0
   -1.2135   -8.9890    0.0000 N   0  0  0  0  0  0  0  0  0  0  0  0
    0.0000   -8.1073    0.0000 C   0  0  0  0  0  0  0  0  0  0  0  0
   -0.0000   -6.6073    0.0000 C   0  0  0  0  0  0  0  0  0  0  0  0
   -0.0000   -5.1073    0.0000 C   0  0  0  0  0  0  0  0  0  0  0  0
   -0.0000   -3.6073    0.0000 C   0  0  0  0  0  0  0  0  0  0  0  0
    1.2135   -2.7256    0.0000 C   0  0  0  0  0  0  0  0  0  0  0  0
    0.7500   -1.2990    0.0000 C   0  0  0  0  0  0  0  0  0  0  0  0
    1.5000    0.0000    0.0000 N   0  0  0  0  0  0  0  0  0  0  0  0
    0.7500    1.2990    0.0000 C   0  0  0  0  0  0  0  0  0  0  0  0
   -0.7500    1.2990    0.0000 N   0  0  0  0  0  0  0  0  0  0  0  0
   -1.5000    0.0000    0.0000 C   0  0  0  0  0  0  0  0  0  0  0  0
   -3.0000    0.0000    0.0000 N   0  0  0  0  0  0  0  0  0  0  0  0
   -3.7500    1.2990    0.0000 C   0  0  0  0  0  0  0  0  0  0  0  0
   -3.0000    2.5981    0.0000 C   0  0  0  0  0  0  0  0  0  0  0  0
   -3.7500    3.8971    0.0000 C   0  0  0  0  0  0  0  0  0  0  0  0
   -5.2500    3.8971    0.0000 C   0  0  0  0  0  0  0  0  0  0  0  0
   -6.0000    5.1962    0.0000 O   0  0  0  0  0  0  0  0  0  0  0  0
   -5.2500    6.4952    0.0000 C   0  0  0  0  0  0  0  0  0  0  0  0
   -3.7500    6.4952    0.0000 C   0  0  0  0  0  0  0  0  0  0  0  0
   -3.0000    7.7942    0.0000 C   0  0  0  0  0  0  0  0  0  0  0  0
   -3.7500    9.0933    0.0000 C   0  0  0  0  0  0  0  0  0  0  0  0
   -5.2500    9.0933    0.0000 C   0  0  0  0  0  0  0  0  0  0  0  0
   -6.0000    7.7942    0.0000 N   0  0  0  0  0  0  0  0  0  0  0  0
   -6.0000    2.5981    0.0000 C   0  0  0  0  0  0  0  0  0  0  0  0
   -7.5000    2.5981    0.0000 Cl  0  0  0  0  0  0  0  0  0  0  0  0
   -5.2500    1.2990    0.0000 C   0  0  0  0  0  0  0  0  0  0  0  0
   -0.7500   -1.2990    0.0000 C   0  0  0  0  0  0  0  0  0  0  0  0
   -1.2135   -2.7256    0.0000 S   0  0  0  0  0  0  0  0  0  0  0  0
    1.2135   -8.9890    0.0000 C   0  0  0  0  0  0  0  0  0  0  0  0
    1.9033  -14.2129    0.0000 N   0  0  0  0  0  0  0  0  0  0  0  0
    1.2931  -15.5833    0.0000 C   0  0  0  0  0  0  0  0  0  0  0  0
    2.1748  -16.7968    0.0000 C   0  0  0  0  0  0  0  0  0  0  0  0
    3.6666  -16.6400    0.0000 O   0  0  0  0  0  0  0  0  0  0  0  0
    4.2767  -15.2697    0.0000 C   0  0  0  0  0  0  0  0  0  0  0  0
    3.3950  -14.0561    0.0000 C   0  0  0  0  0  0  0  0  0  0  0  0
  1  2  2  0
  2  3  1  0
  4  3  1  1
  4  5  1  0
  5  6  1  0
  6  7  1  0
  7  8  1  6
  8  9  3  0
  9 10  1  0
 10 11  2  0
 11 12  1  0
 12 13  2  0
 13 14  1  0
 14 15  2  0
 15 16  1  0
 16 17  1  0
 17 18  1  0
 18 19  2  0
 19 20  1  0
 20 21  2  0
 21 22  1  0
 22 23  1  0
 23 24  2  0
 24 25  1  0
 25 26  2  0
 26 27  1  0
 27 28  2  0
 21 29  1  0
 29 30  1  0
 29 31  2  0
 16 32  2  0
 32 33  1  0
  7 34  1  0
  2 35  1  0
 35 36  1  0
 36 37  1  0
 37 38  1  0
 38 39  1  0
 39 40  1  0
 34  4  1  0
 40 35  1  0
 33 10  1  0
 32 12  1  0
 31 18  1  0
 28 23  1  0
M  END
>  <Compound_ID>  (330) 
CHEMBL453398

>  <Active>  (330) 
1.0

>  <Smiles>  (330) 
O=C(O[C@H]1CN[C@H](C#Cc2cc3ncnc(Nc4ccc(Oc5ccccn5)c(Cl)c4)c3s2)C1)N1CCOCC1

>  <canonical_smi>  (330) 
O=C(O[C@H]1CN[C@H](C#Cc2cc3ncnc(Nc4ccc(Oc5ccccn5)c(Cl)c4)c3s2)C1)N1CCOCC1

>  <Set>  (330) 
G2 active

>  <Set_type>  (330) 
Train

>  <MW>  (330) 
577.07

>  <HBD>  (330) 
2

>  <HBA>  (330) 
9

>  <NRB>  (330) 
5

>  <NR>  (330) 
6

>  <NAR>  (330) 
4

>  <PSA>  (330) 
110.73

>  <Standard Type>  (330) 
nan

>  <Standard Relation>  (330) 
nan

>  <Standard Units>  (330) 
nan

>  <Standard Value>  (330) 
nan

>  <Assay ChEMBL ID>  (330) 
nan

>  <Assay Description>  (330) 
nan

>  <BAO Label>  (330) 
nan

$$$$

     RDKit          2D

 21 24  0  0  0  0  0  0  0  0999 V2000
    4.5405  -10.1176    0.0000 C   0  0  0  0  0  0  0  0  0  0  0  0
    3.1702  -10.7277    0.0000 C   0  0  0  0  0  0  0  0  0  0  0  0
    1.9567   -9.8460    0.0000 C   0  0  0  0  0  0  0  0  0  0  0  0
    2.1135   -8.3542    0.0000 C   0  0  0  0  0  0  0  0  0  0  0  0
    0.8999   -7.4725    0.0000 C   0  0  0  0  0  0  0  0  0  0  0  0
    1.0567   -5.9808    0.0000 N   0  0  0  0  0  0  0  0  0  0  0  0
   -0.1568   -5.0991    0.0000 C   0  0  0  0  0  0  0  0  0  0  0  0
   -1.5271   -5.7092    0.0000 N   0  0  0  0  0  0  0  0  0  0  0  0
   -2.7406   -4.8275    0.0000 C   0  0  0  0  0  0  0  0  0  0  0  0
   -2.5838   -3.3357    0.0000 N   0  0  0  0  0  0  0  0  0  0  0  0
   -1.2135   -2.7256    0.0000 C   0  0  0  0  0  0  0  0  0  0  0  0
   -0.0000   -3.6073    0.0000 C   0  0  0  0  0  0  0  0  0  0  0  0
    1.2135   -2.7256    0.0000 S   0  0  0  0  0  0  0  0  0  0  0  0
    0.7500   -1.2990    0.0000 C   0  0  0  0  0  0  0  0  0  0  0  0
    1.5000    0.0000    0.0000 C   0  0  0  0  0  0  0  0  0  0  0  0
    0.7500    1.2990    0.0000 C   0  0  0  0  0  0  0  0  0  0  0  0
   -0.7500    1.2990    0.0000 C   0  0  0  0  0  0  0  0  0  0  0  0
   -1.5000    0.0000    0.0000 C   0  0  0  0  0  0  0  0  0  0  0  0
   -0.7500   -1.2990    0.0000 C   0  0  0  0  0  0  0  0  0  0  0  0
    3.4838   -7.7441    0.0000 C   0  0  0  0  0  0  0  0  0  0  0  0
    4.6973   -8.6258    0.0000 C   0  0  0  0  0  0  0  0  0  0  0  0
  1  2  2  0
  2  3  1  0
  3  4  2  0
  4  5  1  0
  5  6  1  0
  6  7  1  0
  7  8  2  0
  8  9  1  0
  9 10  2  0
 10 11  1  0
 11 12  2  0
 12 13  1  0
 13 14  1  0
 14 15  2  0
 15 16  1  0
 16 17  2  0
 17 18  1  0
 18 19  2  0
  4 20  1  0
 20 21  2  0
 21  1  1  0
 12  7  1  0
 19 14  1  0
 19 11  1  0
M  END
>  <Compound_ID>  (331) 
CHEMBL153419

>  <Active>  (331) 
1.0

>  <Smiles>  (331) 
c1ccc(CNc2ncnc3c2sc2ccccc23)cc1

>  <canonical_smi>  (331) 
c1ccc(CNc2ncnc3c2sc2ccccc23)cc1

>  <Set>  (331) 
G2 active

>  <Set_type>  (331) 
Train

>  <MW>  (331) 
291.38

>  <HBD>  (331) 
1

>  <HBA>  (331) 
3

>  <NRB>  (331) 
3

>  <NR>  (331) 
4

>  <NAR>  (331) 
4

>  <PSA>  (331) 
37.81

>  <Standard Type>  (331) 
nan

>  <Standard Relation>  (331) 
nan

>  <Standard Units>  (331) 
nan

>  <Standard Value>  (331) 
nan

>  <Assay ChEMBL ID>  (331) 
nan

>  <Assay Description>  (331) 
nan

>  <BAO Label>  (331) 
nan

$$$$

     RDKit          2D

 32 35  0  0  0  0  0  0  0  0999 V2000
    5.2500   -3.8971    0.0000 C   0  0  0  0  0  0  0  0  0  0  0  0
    3.7500   -3.8971    0.0000 C   0  0  0  0  0  0  0  0  0  0  0  0
    3.0000   -2.5981    0.0000 C   0  0  0  0  0  0  0  0  0  0  0  0
    3.7500   -1.2990    0.0000 O   0  0  0  0  0  0  0  0  0  0  0  0
    1.5000   -2.5981    0.0000 N   0  0  0  0  0  0  0  0  0  0  0  0
    0.7500   -3.8971    0.0000 C   0  0  0  0  0  0  0  0  0  0  0  0
    1.5000   -5.1962    0.0000 C   0  0  0  0  0  0  0  0  0  0  0  0
    0.7500   -6.4952    0.0000 C   0  0  0  0  0  0  0  0  0  0  0  0
    1.5000   -7.7942    0.0000 N   0  0  0  0  0  0  0  0  0  0  0  0
    0.7500   -9.0933    0.0000 C   0  0  0  0  0  0  0  0  0  0  0  0
    1.5000  -10.3923    0.0000 C   0  0  0  0  0  0  0  0  0  0  0  0
    3.0000  -10.3923    0.0000 O   0  0  0  0  0  0  0  0  0  0  0  0
    3.7500   -9.0933    0.0000 C   0  0  0  0  0  0  0  0  0  0  0  0
    3.0000   -7.7942    0.0000 C   0  0  0  0  0  0  0  0  0  0  0  0
    0.7500   -1.2990    0.0000 C   0  0  0  0  0  0  0  0  0  0  0  0
    1.5000    0.0000    0.0000 C   0  0  0  0  0  0  0  0  0  0  0  0
    0.7500    1.2990    0.0000 C   0  0  0  0  0  0  0  0  0  0  0  0
   -0.7500    1.2990    0.0000 C   0  0  0  0  0  0  0  0  0  0  0  0
   -1.5000    2.5981    0.0000 N   0  0  0  0  0  0  0  0  0  0  0  0
   -3.0000    2.5981    0.0000 C   0  0  0  0  0  0  0  0  0  0  0  0
   -3.7500    1.2990    0.0000 N   0  0  0  0  0  0  0  0  0  0  0  0
   -3.0000    0.0000    0.0000 C   0  0  0  0  0  0  0  0  0  0  0  0
   -3.7500   -1.2990    0.0000 N   0  0  0  0  0  0  0  0  0  0  0  0
   -5.2500   -1.2990    0.0000 C   0  0  0  0  0  0  0  0  0  0  0  0
   -6.0000    0.0000    0.0000 C   0  0  0  0  0  0  0  0  0  0  0  0
   -7.5000    0.0000    0.0000 C   0  0  0  0  0  0  0  0  0  0  0  0
   -8.2500   -1.2990    0.0000 C   0  0  0  0  0  0  0  0  0  0  0  0
   -7.5000   -2.5981    0.0000 C   0  0  0  0  0  0  0  0  0  0  0  0
   -8.2500   -3.8971    0.0000 Br  0  0  0  0  0  0  0  0  0  0  0  0
   -6.0000   -2.5981    0.0000 C   0  0  0  0  0  0  0  0  0  0  0  0
   -1.5000    0.0000    0.0000 C   0  0  0  0  0  0  0  0  0  0  0  0
   -0.7500   -1.2990    0.0000 C   0  0  0  0  0  0  0  0  0  0  0  0
  1  2  2  0
  2  3  1  0
  3  4  2  0
  3  5  1  0
  5  6  1  0
  6  7  1  0
  7  8  1  0
  8  9  1  0
  9 10  1  0
 10 11  1  0
 11 12  1  0
 12 13  1  0
 13 14  1  0
  5 15  1  0
 15 16  2  0
 16 17  1  0
 17 18  2  0
 18 19  1  0
 19 20  2  0
 20 21  1  0
 21 22  2  0
 22 23  1  0
 23 24  1  0
 24 25  2  0
 25 26  1  0
 26 27  2  0
 27 28  1  0
 28 29  1  0
 28 30  2  0
 22 31  1  0
 31 32  2  0
 14  9  1  0
 32 15  1  0
 31 18  1  0
 30 24  1  0
M  END
>  <Compound_ID>  (332) 
CHEMBL139307

>  <Active>  (332) 
1.0

>  <Smiles>  (332) 
C=CC(=O)N(CCCN1CCOCC1)c1ccc2ncnc(Nc3cccc(Br)c3)c2c1

>  <canonical_smi>  (332) 
C=CC(=O)N(CCCN1CCOCC1)c1ccc2ncnc(Nc3cccc(Br)c3)c2c1

>  <Set>  (332) 
G2 active

>  <Set_type>  (332) 
Train

>  <MW>  (332) 
496.41

>  <HBD>  (332) 
1

>  <HBA>  (332) 
6

>  <NRB>  (332) 
8

>  <NR>  (332) 
4

>  <NAR>  (332) 
3

>  <PSA>  (332) 
70.59

>  <Standard Type>  (332) 
nan

>  <Standard Relation>  (332) 
nan

>  <Standard Units>  (332) 
nan

>  <Standard Value>  (332) 
nan

>  <Assay ChEMBL ID>  (332) 
nan

>  <Assay Description>  (332) 
nan

>  <BAO Label>  (332) 
nan

$$$$

     RDKit          2D

 32 35  0  0  0  0  0  0  0  0999 V2000
   -5.2500   -3.8971    0.0000 C   0  0  0  0  0  0  0  0  0  0  0  0
   -3.7500   -3.8971    0.0000 O   0  0  0  0  0  0  0  0  0  0  0  0
   -3.0000   -2.5981    0.0000 C   0  0  0  0  0  0  0  0  0  0  0  0
   -1.5000   -2.5981    0.0000 C   0  0  0  0  0  0  0  0  0  0  0  0
   -0.7500   -1.2990    0.0000 C   0  0  0  0  0  0  0  0  0  0  0  0
    0.7500   -1.2990    0.0000 C   0  0  0  0  0  0  0  0  0  0  0  0
    1.5000   -2.5981    0.0000 N   0  0  0  0  0  0  0  0  0  0  0  0
    3.0000   -2.5981    0.0000 C   0  0  0  0  0  0  0  0  0  0  0  0
    3.7500   -3.8971    0.0000 C   0  0  0  0  0  0  0  0  0  0  0  0
    5.2500   -3.8971    0.0000 C   0  0  0  0  0  0  0  0  0  0  0  0
    6.0000   -2.5981    0.0000 C   0  0  0  0  0  0  0  0  0  0  0  0
    7.5000   -2.5981    0.0000 Cl  0  0  0  0  0  0  0  0  0  0  0  0
    5.2500   -1.2990    0.0000 C   0  0  0  0  0  0  0  0  0  0  0  0
    3.7500   -1.2990    0.0000 C   0  0  0  0  0  0  0  0  0  0  0  0
    3.0000   -0.0000    0.0000 F   0  0  0  0  0  0  0  0  0  0  0  0
    1.5000    0.0000    0.0000 N   0  0  0  0  0  0  0  0  0  0  0  0
    0.7500    1.2990    0.0000 C   0  0  0  0  0  0  0  0  0  0  0  0
   -0.7500    1.2990    0.0000 N   0  0  0  0  0  0  0  0  0  0  0  0
   -1.5000    0.0000    0.0000 C   0  0  0  0  0  0  0  0  0  0  0  0
   -3.0000    0.0000    0.0000 C   0  0  0  0  0  0  0  0  0  0  0  0
   -3.7500   -1.2990    0.0000 C   0  0  0  0  0  0  0  0  0  0  0  0
   -5.2500   -1.2990    0.0000 O   0  0  0  0  0  0  0  0  0  0  0  0
   -6.0000    0.0000    0.0000 C   0  0  0  0  0  0  0  0  0  0  0  0
   -7.5000    0.0000    0.0000 C   0  0  0  0  0  0  0  0  0  0  0  0
   -8.2500    1.2990    0.0000 N   0  0  0  0  0  0  0  0  0  0  0  0
   -9.7500    1.2990    0.0000 C   0  0  0  0  0  0  0  0  0  0  0  0
   -7.5000    2.5981    0.0000 C   0  0  0  0  0  0  0  0  0  0  0  0
   -6.0000    2.5981    0.0000 C   0  0  0  0  0  0  0  0  0  0  0  0
   -5.2500    3.8971    0.0000 C   0  0  0  0  0  0  0  0  0  0  0  0
   -6.0000    5.1962    0.0000 N   0  0  0  0  0  0  0  0  0  0  0  0
   -7.5000    5.1962    0.0000 C   0  0  0  0  0  0  0  0  0  0  0  0
   -8.2500    3.8971    0.0000 C   0  0  0  0  0  0  0  0  0  0  0  0
  1  2  1  0
  2  3  1  0
  3  4  2  0
  4  5  1  0
  5  6  2  0
  6  7  1  0
  7  8  1  0
  8  9  2  0
  9 10  1  0
 10 11  2  0
 11 12  1  0
 11 13  1  0
 13 14  2  0
 14 15  1  0
  6 16  1  0
 16 17  2  0
 17 18  1  0
 18 19  2  0
 19 20  1  0
 20 21  2  0
 21 22  1  0
 22 23  1  0
 23 24  1  0
 24 25  1  0
 25 26  1  0
 25 27  1  0
 27 28  2  0
 28 29  1  0
 29 30  2  0
 30 31  1  0
 31 32  2  0
 21  3  1  0
 32 27  1  0
 19  5  1  0
 14  8  1  0
M  END
>  <Compound_ID>  (333) 
CHEMBL25579

>  <Active>  (333) 
1.0

>  <Smiles>  (333) 
COc1cc2c(Nc3ccc(Cl)cc3F)ncnc2cc1OCCN(C)c1ccncc1

>  <canonical_smi>  (333) 
COc1cc2c(Nc3ccc(Cl)cc3F)ncnc2cc1OCCN(C)c1ccncc1

>  <Set>  (333) 
G2 active

>  <Set_type>  (333) 
Train

>  <MW>  (333) 
453.91

>  <HBD>  (333) 
1

>  <HBA>  (333) 
7

>  <NRB>  (333) 
8

>  <NR>  (333) 
4

>  <NAR>  (333) 
4

>  <PSA>  (333) 
72.4

>  <Standard Type>  (333) 
nan

>  <Standard Relation>  (333) 
nan

>  <Standard Units>  (333) 
nan

>  <Standard Value>  (333) 
nan

>  <Assay ChEMBL ID>  (333) 
nan

>  <Assay Description>  (333) 
nan

>  <BAO Label>  (333) 
nan

$$$$

     RDKit          2D

 24 26  0  0  0  0  0  0  0  0999 V2000
    2.5981   -8.1073    0.0000 C   0  0  0  0  0  0  0  0  0  0  0  0
    1.2990   -7.3573    0.0000 C   0  0  0  0  0  0  0  0  0  0  0  0
    1.2990   -5.8573    0.0000 O   0  0  0  0  0  0  0  0  0  0  0  0
   -0.0000   -5.1073    0.0000 C   0  0  0  0  0  0  0  0  0  0  0  0
   -1.2990   -5.8573    0.0000 O   0  0  0  0  0  0  0  0  0  0  0  0
   -0.0000   -3.6073    0.0000 C   0  0  0  0  0  0  0  0  0  0  0  0
    1.2135   -2.7256    0.0000 C   0  0  0  0  0  0  0  0  0  0  0  0
    0.7500   -1.2990    0.0000 N   0  0  0  0  0  0  0  0  0  0  0  0
    1.5000    0.0000    0.0000 N   0  0  0  0  0  0  0  0  0  0  0  0
    0.7500    1.2990    0.0000 C   0  0  0  0  0  0  0  0  0  0  0  0
   -0.7500    1.2990    0.0000 N   0  0  0  0  0  0  0  0  0  0  0  0
   -1.5000    0.0000    0.0000 C   0  0  0  0  0  0  0  0  0  0  0  0
   -3.0000    0.0000    0.0000 N   0  0  0  0  0  0  0  0  0  0  0  0
   -3.7500    1.2990    0.0000 C   0  0  0  0  0  0  0  0  0  0  0  0
   -5.2500    1.2990    0.0000 C   0  0  0  0  0  0  0  0  0  0  0  0
   -6.0000    2.5981    0.0000 C   0  0  0  0  0  0  0  0  0  0  0  0
   -7.5000    2.5981    0.0000 C   0  0  0  0  0  0  0  0  0  0  0  0
   -8.2500    1.2990    0.0000 C   0  0  0  0  0  0  0  0  0  0  0  0
   -7.5000    0.0000    0.0000 C   0  0  0  0  0  0  0  0  0  0  0  0
   -6.0000    0.0000    0.0000 C   0  0  0  0  0  0  0  0  0  0  0  0
   -0.7500   -1.2990    0.0000 C   0  0  0  0  0  0  0  0  0  0  0  0
   -1.2135   -2.7256    0.0000 C   0  0  0  0  0  0  0  0  0  0  0  0
   -2.6401   -3.1891    0.0000 C   0  0  0  0  0  0  0  0  0  0  0  0
   -2.9520   -4.6564    0.0000 C   0  0  0  0  0  0  0  0  0  0  0  0
  1  2  1  0
  2  3  1  0
  3  4  1  0
  4  5  2  0
  4  6  1  0
  6  7  2  0
  7  8  1  0
  8  9  1  0
  9 10  2  0
 10 11  1  0
 11 12  2  0
 12 13  1  0
 13 14  1  0
 14 15  1  0
 15 16  2  0
 16 17  1  0
 17 18  2  0
 18 19  1  0
 19 20  2  0
 12 21  1  0
 21 22  2  0
 22 23  1  0
 23 24  1  0
 22  6  1  0
 21  8  1  0
 20 15  1  0
M  END
>  <Compound_ID>  (334) 
CHEMBL371863

>  <Active>  (334) 
1.0

>  <Smiles>  (334) 
CCOC(=O)c1cn2ncnc(NCc3ccccc3)c2c1CC

>  <canonical_smi>  (334) 
CCOC(=O)c1cn2ncnc(NCc3ccccc3)c2c1CC

>  <Set>  (334) 
G2 active

>  <Set_type>  (334) 
Train

>  <MW>  (334) 
324.38

>  <HBD>  (334) 
1

>  <HBA>  (334) 
5

>  <NRB>  (334) 
6

>  <NR>  (334) 
3

>  <NAR>  (334) 
3

>  <PSA>  (334) 
68.52

>  <Standard Type>  (334) 
nan

>  <Standard Relation>  (334) 
nan

>  <Standard Units>  (334) 
nan

>  <Standard Value>  (334) 
nan

>  <Assay ChEMBL ID>  (334) 
nan

>  <Assay Description>  (334) 
nan

>  <BAO Label>  (334) 
nan

$$$$

     RDKit          2D

 25 28  0  0  0  0  0  0  0  0999 V2000
    3.0000   -5.1962    0.0000 C   0  0  0  0  0  0  0  0  0  0  0  0
    1.5000   -5.1962    0.0000 O   0  0  0  0  0  0  0  0  0  0  0  0
    0.7500   -3.8971    0.0000 C   0  0  0  0  0  0  0  0  0  0  0  0
    1.5000   -2.5981    0.0000 C   0  0  0  0  0  0  0  0  0  0  0  0
    0.7500   -1.2990    0.0000 C   0  0  0  0  0  0  0  0  0  0  0  0
    1.5000    0.0000    0.0000 N   0  0  0  0  0  0  0  0  0  0  0  0
    0.7500    1.2990    0.0000 C   0  0  0  0  0  0  0  0  0  0  0  0
   -0.7500    1.2990    0.0000 N   0  0  0  0  0  0  0  0  0  0  0  0
   -1.5000    0.0000    0.0000 C   0  0  0  0  0  0  0  0  0  0  0  0
   -3.0000    0.0000    0.0000 N   0  0  0  0  0  0  0  0  0  0  0  0
   -3.7500    1.2990    0.0000 C   0  0  0  0  0  0  0  0  0  0  0  0
   -3.0000    2.5981    0.0000 N   0  0  0  0  0  0  0  0  0  0  0  0
   -3.7500    3.8971    0.0000 C   0  0  0  0  0  0  0  0  0  0  0  0
   -5.2500    3.8971    0.0000 C   0  0  0  0  0  0  0  0  0  0  0  0
   -6.0000    2.5981    0.0000 C   0  0  0  0  0  0  0  0  0  0  0  0
   -7.5000    2.5981    0.0000 C   0  0  0  0  0  0  0  0  0  0  0  0
   -8.2500    1.2990    0.0000 C   0  0  0  0  0  0  0  0  0  0  0  0
   -7.5000    0.0000    0.0000 C   0  0  0  0  0  0  0  0  0  0  0  0
   -6.0000    0.0000    0.0000 C   0  0  0  0  0  0  0  0  0  0  0  0
   -5.2500    1.2990    0.0000 C   0  0  0  0  0  0  0  0  0  0  0  0
   -0.7500   -1.2990    0.0000 C   0  0  0  0  0  0  0  0  0  0  0  0
   -1.5000   -2.5981    0.0000 C   0  0  0  0  0  0  0  0  0  0  0  0
   -0.7500   -3.8971    0.0000 C   0  0  0  0  0  0  0  0  0  0  0  0
   -1.5000   -5.1962    0.0000 O   0  0  0  0  0  0  0  0  0  0  0  0
   -3.0000   -5.1962    0.0000 C   0  0  0  0  0  0  0  0  0  0  0  0
  1  2  1  0
  2  3  1  0
  3  4  2  0
  4  5  1  0
  5  6  2  0
  6  7  1  0
  7  8  2  0
  8  9  1  0
  9 10  1  0
 10 11  1  0
 11 12  2  0
 12 13  1  0
 13 14  2  0
 14 15  1  0
 15 16  2  0
 16 17  1  0
 17 18  2  0
 18 19  1  0
 19 20  2  0
  9 21  2  0
 21 22  1  0
 22 23  2  0
 23 24  1  0
 24 25  1  0
 23  3  1  0
 21  5  1  0
 20 11  1  0
 20 15  1  0
M  END
>  <Compound_ID>  (335) 
CHEMBL330323

>  <Active>  (335) 
1.0

>  <Smiles>  (335) 
COc1cc2ncnc(Nc3nccc4ccccc34)c2cc1OC

>  <canonical_smi>  (335) 
COc1cc2ncnc(Nc3nccc4ccccc34)c2cc1OC

>  <Set>  (335) 
G2 active

>  <Set_type>  (335) 
Train

>  <MW>  (335) 
332.36

>  <HBD>  (335) 
1

>  <HBA>  (335) 
6

>  <NRB>  (335) 
4

>  <NR>  (335) 
4

>  <NAR>  (335) 
4

>  <PSA>  (335) 
69.16

>  <Standard Type>  (335) 
nan

>  <Standard Relation>  (335) 
nan

>  <Standard Units>  (335) 
nan

>  <Standard Value>  (335) 
nan

>  <Assay ChEMBL ID>  (335) 
nan

>  <Assay Description>  (335) 
nan

>  <BAO Label>  (335) 
nan

$$$$

     RDKit          2D

 36 43  0  0  0  0  0  0  0  0999 V2000
    7.0384   -5.9220    0.0000 C   0  0  0  0  0  0  0  0  0  0  0  0
    6.3474   -4.5907    0.0000 N   0  0  0  0  0  0  0  0  0  0  0  0
    4.8489   -4.5234    0.0000 C   0  0  0  0  0  0  0  0  0  0  0  0
    4.0414   -5.7874    0.0000 C   0  0  0  0  0  0  0  0  0  0  0  0
    2.5382   -5.8249    0.0000 C   0  0  0  0  0  0  0  0  0  0  0  0
    3.2490   -4.5040    0.0000 O   0  0  0  0  0  0  0  0  0  0  0  0
    2.6595   -3.1247    0.0000 C   0  0  0  0  0  0  0  0  0  0  0  0
    3.6464   -1.9951    0.0000 C   0  0  0  0  0  0  0  0  0  0  0  0
    4.1580   -3.1920    0.0000 C   0  0  0  0  0  0  0  0  0  0  0  0
    4.9655   -1.9279    0.0000 O   0  0  0  0  0  0  0  0  0  0  0  0
    6.4640   -1.9952    0.0000 C   0  0  0  0  0  0  0  0  0  0  0  0
    1.2135   -2.7256    0.0000 N   0  0  0  0  0  0  0  0  0  0  0  0
    0.7500   -1.2990    0.0000 C   0  0  0  0  0  0  0  0  0  0  0  0
    1.5000    0.0000    0.0000 C   0  0  0  0  0  0  0  0  0  0  0  0
    0.7500    1.2990    0.0000 C   0  0  0  0  0  0  0  0  0  0  0  0
   -0.7500    1.2990    0.0000 C   0  0  0  0  0  0  0  0  0  0  0  0
   -1.5000    0.0000    0.0000 C   0  0  0  0  0  0  0  0  0  0  0  0
   -0.7500   -1.2990    0.0000 C   0  0  0  0  0  0  0  0  0  0  0  0
   -1.2135   -2.7256    0.0000 C   0  0  0  0  0  0  0  0  0  0  0  0
   -2.5518   -3.5691    0.0000 C   0  0  0  0  0  0  0  0  0  0  0  0
   -2.6191   -5.0676    0.0000 C   0  0  0  0  0  0  0  0  0  0  0  0
   -1.3550   -5.8751    0.0000 C   0  0  0  0  0  0  0  0  0  0  0  0
   -1.0212   -7.3375    0.0000 C   0  0  0  0  0  0  0  0  0  0  0  0
   -1.8846   -8.5641    0.0000 C   0  0  0  0  0  0  0  0  0  0  0  0
   -1.2541   -9.9251    0.0000 C   0  0  0  0  0  0  0  0  0  0  0  0
    0.2399  -10.0596    0.0000 C   0  0  0  0  0  0  0  0  0  0  0  0
    1.1033   -8.8330    0.0000 C   0  0  0  0  0  0  0  0  0  0  0  0
    0.4728   -7.4720    0.0000 C   0  0  0  0  0  0  0  0  0  0  0  0
    1.0623   -6.0927    0.0000 N   0  0  0  0  0  0  0  0  0  0  0  0
   -0.0673   -5.1058    0.0000 C   0  0  0  0  0  0  0  0  0  0  0  0
   -0.0000   -3.6073    0.0000 C   0  0  0  0  0  0  0  0  0  0  0  0
   -4.0650   -5.4667    0.0000 C   0  0  0  0  0  0  0  0  0  0  0  0
   -4.5921   -6.8710    0.0000 O   0  0  0  0  0  0  0  0  0  0  0  0
   -4.8913   -4.2148    0.0000 N   0  0  0  0  0  0  0  0  0  0  0  0
   -3.9561   -3.0421    0.0000 C   0  0  0  0  0  0  0  0  0  0  0  0
   -4.3552   -1.5961    0.0000 O   0  0  0  0  0  0  0  0  0  0  0  0
  1  2  1  0
  3  2  1  1
  3  4  1  0
  5  4  1  1
  5  6  1  0
  6  7  1  0
  7  8  1  6
  7  9  1  0
  9 10  1  1
 10 11  1  0
  7 12  1  0
 12 13  1  0
 13 14  2  0
 14 15  1  0
 15 16  2  0
 16 17  1  0
 17 18  2  0
 18 19  1  0
 19 20  2  0
 20 21  1  0
 21 22  2  0
 22 23  1  0
 23 24  2  0
 24 25  1  0
 25 26  2  0
 26 27  1  0
 27 28  2  0
 28 29  1  0
 29 30  1  0
 30 31  2  0
 21 32  1  0
 32 33  2  0
 32 34  1  0
 34 35  1  0
 35 36  2  0
  9  3  1  0
 31 12  1  0
 29  5  1  0
 18 13  1  0
 31 19  1  0
 35 20  1  0
 30 22  1  0
 28 23  1  0
M  END
>  <Compound_ID>  (336) 
CHEMBL337026

>  <Active>  (336) 
1.0

>  <Smiles>  (336) 
CN[C@H]1C[C@@H]2O[C@](C)([C@H]1OC)n1c3ccccc3c3c4c(c5c6ccccc6n2c5c31)C(=O)NC4=O

>  <canonical_smi>  (336) 
CN[C@H]1C[C@@H]2O[C@](C)([C@H]1OC)n1c3ccccc3c3c4c(c5c6ccccc6n2c5c31)C(=O)NC4=O

>  <Set>  (336) 
G2 active

>  <Set_type>  (336) 
Train

>  <MW>  (336) 
480.52

>  <HBD>  (336) 
2

>  <HBA>  (336) 
5

>  <NRB>  (336) 
2

>  <NR>  (336) 
8

>  <NAR>  (336) 
5

>  <PSA>  (336) 
86.52

>  <Standard Type>  (336) 
nan

>  <Standard Relation>  (336) 
nan

>  <Standard Units>  (336) 
nan

>  <Standard Value>  (336) 
nan

>  <Assay ChEMBL ID>  (336) 
nan

>  <Assay Description>  (336) 
nan

>  <BAO Label>  (336) 
nan

$$$$

     RDKit          2D

 25 26  0  0  0  0  0  0  0  0999 V2000
    3.7500   -1.2990    0.0000 C   0  0  0  0  0  0  0  0  0  0  0  0
    3.0000    0.0000    0.0000 O   0  0  0  0  0  0  0  0  0  0  0  0
    1.5000    0.0000    0.0000 C   0  0  0  0  0  0  0  0  0  0  0  0
    0.7500   -1.2990    0.0000 C   0  0  0  0  0  0  0  0  0  0  0  0
   -0.7500   -1.2990    0.0000 C   0  0  0  0  0  0  0  0  0  0  0  0
   -1.5000   -2.5981    0.0000 C   0  0  0  0  0  0  0  0  0  0  0  0
   -3.0000   -2.5981    0.0000 C   0  0  0  0  0  0  0  0  0  0  0  0
   -3.7500   -1.2990    0.0000 C   0  0  0  0  0  0  0  0  0  0  0  0
   -4.5000    0.0000    0.0000 N   0  0  0  0  0  0  0  0  0  0  0  0
   -3.7500   -3.8971    0.0000 C   0  0  0  0  0  0  0  0  0  0  0  0
   -5.2500   -3.8971    0.0000 N   0  0  0  0  0  0  0  0  0  0  0  0
   -3.0000   -5.1962    0.0000 O   0  0  0  0  0  0  0  0  0  0  0  0
   -1.5000    0.0000    0.0000 C   0  0  0  0  0  0  0  0  0  0  0  0
   -0.7500    1.2990    0.0000 C   0  0  0  0  0  0  0  0  0  0  0  0
   -1.5000    2.5981    0.0000 C   0  0  0  0  0  0  0  0  0  0  0  0
   -0.7500    3.8971    0.0000 S   0  0  0  0  0  0  0  0  0  0  0  0
   -1.5000    5.1962    0.0000 C   0  0  0  0  0  0  0  0  0  0  0  0
   -0.7500    6.4952    0.0000 C   0  0  0  0  0  0  0  0  0  0  0  0
    0.7500    6.4952    0.0000 C   0  0  0  0  0  0  0  0  0  0  0  0
    1.5000    7.7942    0.0000 C   0  0  0  0  0  0  0  0  0  0  0  0
    0.7500    9.0933    0.0000 C   0  0  0  0  0  0  0  0  0  0  0  0
   -0.7500    9.0933    0.0000 C   0  0  0  0  0  0  0  0  0  0  0  0
   -1.5000    7.7942    0.0000 C   0  0  0  0  0  0  0  0  0  0  0  0
    0.7500    1.2990    0.0000 C   0  0  0  0  0  0  0  0  0  0  0  0
    1.5000    2.5981    0.0000 O   0  0  0  0  0  0  0  0  0  0  0  0
  1  2  1  0
  2  3  1  0
  3  4  2  0
  4  5  1  0
  5  6  1  0
  6  7  2  0
  7  8  1  0
  8  9  3  0
  7 10  1  0
 10 11  1  0
 10 12  2  0
  5 13  2  0
 13 14  1  0
 14 15  1  0
 15 16  1  0
 16 17  1  0
 17 18  1  0
 18 19  2  0
 19 20  1  0
 20 21  2  0
 21 22  1  0
 22 23  2  0
 14 24  2  0
 24 25  1  0
 24  3  1  0
 23 18  1  0
M  END
>  <Compound_ID>  (337) 
CHEMBL326318

>  <Active>  (337) 
1.0

>  <Smiles>  (337) 
COc1cc(/C=C(\C#N)C(N)=O)cc(CSCc2ccccc2)c1O

>  <canonical_smi>  (337) 
COc1cc(/C=C(\C#N)C(N)=O)cc(CSCc2ccccc2)c1O

>  <Set>  (337) 
G2 active

>  <Set_type>  (337) 
Train

>  <MW>  (337) 
354.43

>  <HBD>  (337) 
2

>  <HBA>  (337) 
5

>  <NRB>  (337) 
7

>  <NR>  (337) 
2

>  <NAR>  (337) 
2

>  <PSA>  (337) 
96.34

>  <Standard Type>  (337) 
nan

>  <Standard Relation>  (337) 
nan

>  <Standard Units>  (337) 
nan

>  <Standard Value>  (337) 
nan

>  <Assay ChEMBL ID>  (337) 
nan

>  <Assay Description>  (337) 
nan

>  <BAO Label>  (337) 
nan

$$$$

     RDKit          2D

 27 31  0  0  0  0  0  0  0  0999 V2000
   -2.6401   -3.1891    0.0000 C   0  0  0  0  0  0  0  0  0  0  0  0
   -1.2135   -2.7256    0.0000 C   0  0  0  0  0  0  0  0  0  0  0  0
   -0.0000   -3.6073    0.0000 C   0  0  0  0  0  0  0  0  0  0  0  0
    1.2135   -2.7256    0.0000 C   0  0  0  0  0  0  0  0  0  0  0  0
    0.7500   -1.2990    0.0000 N   0  0  0  0  0  0  0  0  0  0  0  0
    1.5000    0.0000    0.0000 N   0  0  0  0  0  0  0  0  0  0  0  0
    0.7500    1.2990    0.0000 C   0  0  0  0  0  0  0  0  0  0  0  0
   -0.7500    1.2990    0.0000 N   0  0  0  0  0  0  0  0  0  0  0  0
   -1.5000    0.0000    0.0000 C   0  0  0  0  0  0  0  0  0  0  0  0
   -3.0000    0.0000    0.0000 N   0  0  0  0  0  0  0  0  0  0  0  0
   -3.7500    1.2990    0.0000 C   0  0  0  0  0  0  0  0  0  0  0  0
   -3.0000    2.5981    0.0000 C   0  0  0  0  0  0  0  0  0  0  0  0
   -3.7500    3.8971    0.0000 C   0  0  0  0  0  0  0  0  0  0  0  0
   -5.2500    3.8971    0.0000 C   0  0  0  0  0  0  0  0  0  0  0  0
   -6.0000    2.5981    0.0000 C   0  0  0  0  0  0  0  0  0  0  0  0
   -7.4672    2.9099    0.0000 C   0  0  0  0  0  0  0  0  0  0  0  0
   -7.6240    4.4017    0.0000 N   0  0  0  0  0  0  0  0  0  0  0  0
   -6.2537    5.0118    0.0000 N   0  0  0  0  0  0  0  0  0  0  0  0
   -5.9418    6.4791    0.0000 C   0  0  0  0  0  0  0  0  0  0  0  0
   -7.0565    7.4827    0.0000 C   0  0  0  0  0  0  0  0  0  0  0  0
   -6.7447    8.9500    0.0000 C   0  0  0  0  0  0  0  0  0  0  0  0
   -7.8594    9.9537    0.0000 C   0  0  0  0  0  0  0  0  0  0  0  0
   -9.2860    9.4901    0.0000 C   0  0  0  0  0  0  0  0  0  0  0  0
   -9.5978    8.0229    0.0000 C   0  0  0  0  0  0  0  0  0  0  0  0
   -8.4831    7.0192    0.0000 N   0  0  0  0  0  0  0  0  0  0  0  0
   -5.2500    1.2990    0.0000 C   0  0  0  0  0  0  0  0  0  0  0  0
   -0.7500   -1.2990    0.0000 C   0  0  0  0  0  0  0  0  0  0  0  0
  1  2  1  0
  2  3  1  0
  3  4  2  0
  4  5  1  0
  5  6  1  0
  6  7  2  0
  7  8  1  0
  8  9  2  0
  9 10  1  0
 10 11  1  0
 11 12  2  0
 12 13  1  0
 13 14  2  0
 14 15  1  0
 15 16  1  0
 16 17  2  0
 17 18  1  0
 18 19  1  0
 19 20  1  0
 20 21  2  0
 21 22  1  0
 22 23  2  0
 23 24  1  0
 24 25  2  0
 15 26  2  0
  9 27  1  0
 27  2  2  0
 27  5  1  0
 26 11  1  0
 18 14  1  0
 25 20  1  0
M  END
>  <Compound_ID>  (338) 
CHEMBL394462

>  <Active>  (338) 
1.0

>  <Smiles>  (338) 
Cc1ccn2ncnc(Nc3ccc4c(cnn4Cc4ccccn4)c3)c12

>  <canonical_smi>  (338) 
Cc1ccn2ncnc(Nc3ccc4c(cnn4Cc4ccccn4)c3)c12

>  <Set>  (338) 
G2 active

>  <Set_type>  (338) 
Train

>  <MW>  (338) 
355.41

>  <HBD>  (338) 
1

>  <HBA>  (338) 
5

>  <NRB>  (338) 
4

>  <NR>  (338) 
5

>  <NAR>  (338) 
5

>  <PSA>  (338) 
72.93

>  <Standard Type>  (338) 
nan

>  <Standard Relation>  (338) 
nan

>  <Standard Units>  (338) 
nan

>  <Standard Value>  (338) 
nan

>  <Assay ChEMBL ID>  (338) 
nan

>  <Assay Description>  (338) 
nan

>  <BAO Label>  (338) 
nan

$$$$

     RDKit          2D

 22 25  0  0  0  0  0  0  0  0999 V2000
   -9.2786   -4.8945    0.0000 F   0  0  0  0  0  0  0  0  0  0  0  0
   -7.9083   -4.2844    0.0000 C   0  0  0  0  0  0  0  0  0  0  0  0
   -7.7515   -2.7926    0.0000 C   0  0  0  0  0  0  0  0  0  0  0  0
   -6.3812   -2.1825    0.0000 C   0  0  0  0  0  0  0  0  0  0  0  0
   -5.1677   -3.0642    0.0000 C   0  0  0  0  0  0  0  0  0  0  0  0
   -3.7974   -2.4540    0.0000 N   0  0  0  0  0  0  0  0  0  0  0  0
   -2.5838   -3.3357    0.0000 C   0  0  0  0  0  0  0  0  0  0  0  0
   -2.7406   -4.8275    0.0000 N   0  0  0  0  0  0  0  0  0  0  0  0
   -1.5271   -5.7092    0.0000 C   0  0  0  0  0  0  0  0  0  0  0  0
   -0.1568   -5.0991    0.0000 N   0  0  0  0  0  0  0  0  0  0  0  0
   -0.0000   -3.6073    0.0000 C   0  0  0  0  0  0  0  0  0  0  0  0
    1.2135   -2.7256    0.0000 N   0  0  0  0  0  0  0  0  0  0  0  0
    0.7500   -1.2990    0.0000 N   0  0  0  0  0  0  0  0  0  0  0  0
    1.5000    0.0000    0.0000 C   0  0  0  0  0  0  0  0  0  0  0  0
    0.7500    1.2990    0.0000 C   0  0  0  0  0  0  0  0  0  0  0  0
   -0.7500    1.2990    0.0000 C   0  0  0  0  0  0  0  0  0  0  0  0
   -1.5000    0.0000    0.0000 C   0  0  0  0  0  0  0  0  0  0  0  0
   -0.7500   -1.2990    0.0000 C   0  0  0  0  0  0  0  0  0  0  0  0
   -1.2135   -2.7256    0.0000 C   0  0  0  0  0  0  0  0  0  0  0  0
   -5.3245   -4.5559    0.0000 C   0  0  0  0  0  0  0  0  0  0  0  0
   -6.6948   -5.1660    0.0000 C   0  0  0  0  0  0  0  0  0  0  0  0
   -6.8516   -6.6578    0.0000 Cl  0  0  0  0  0  0  0  0  0  0  0  0
  1  2  1  0
  2  3  2  0
  3  4  1  0
  4  5  2  0
  5  6  1  0
  6  7  1  0
  7  8  2  0
  8  9  1  0
  9 10  2  0
 10 11  1  0
 11 12  2  0
 12 13  1  0
 13 14  1  0
 14 15  2  0
 15 16  1  0
 16 17  2  0
 17 18  1  0
 18 19  2  0
  5 20  1  0
 20 21  2  0
 21 22  1  0
 21  2  1  0
 19  7  1  0
 19 11  1  0
 18 13  1  0
M  END
>  <Compound_ID>  (339) 
CHEMBL181275

>  <Active>  (339) 
1.0

>  <Smiles>  (339) 
Fc1ccc(Nc2ncnc3nn4ccccc4c23)cc1Cl

>  <canonical_smi>  (339) 
Fc1ccc(Nc2ncnc3nn4ccccc4c23)cc1Cl

>  <Set>  (339) 
G2 active

>  <Set_type>  (339) 
Train

>  <MW>  (339) 
313.72

>  <HBD>  (339) 
1

>  <HBA>  (339) 
4

>  <NRB>  (339) 
2

>  <NR>  (339) 
4

>  <NAR>  (339) 
4

>  <PSA>  (339) 
55.11

>  <Standard Type>  (339) 
nan

>  <Standard Relation>  (339) 
nan

>  <Standard Units>  (339) 
nan

>  <Standard Value>  (339) 
nan

>  <Assay ChEMBL ID>  (339) 
nan

>  <Assay Description>  (339) 
nan

>  <BAO Label>  (339) 
nan

$$$$

     RDKit          2D

 30 32  0  0  0  0  0  0  0  0999 V2000
    3.7500   -9.0933    0.0000 C   0  0  0  0  0  0  0  0  0  0  0  0
    3.0000   -7.7942    0.0000 C   0  0  0  0  0  0  0  0  0  0  0  0
    3.7500   -6.4952    0.0000 N   0  0  0  0  0  0  0  0  0  0  0  0
    5.2500   -6.4952    0.0000 C   0  0  0  0  0  0  0  0  0  0  0  0
    6.0000   -7.7942    0.0000 C   0  0  0  0  0  0  0  0  0  0  0  0
    3.0000   -5.1962    0.0000 C   0  0  0  0  0  0  0  0  0  0  0  0
    1.7010   -5.9462    0.0000 C   0  0  0  0  0  0  0  0  0  0  0  0
    2.2500   -3.8971    0.0000 C   0  0  0  0  0  0  0  0  0  0  0  0
    1.5000   -2.5981    0.0000 C   0  0  0  0  0  0  0  0  0  0  0  0
    0.7500   -1.2990    0.0000 C   0  0  0  0  0  0  0  0  0  0  0  0
    1.5000    0.0000    0.0000 N   0  0  0  0  0  0  0  0  0  0  0  0
    0.7500    1.2990    0.0000 C   0  0  0  0  0  0  0  0  0  0  0  0
   -0.7500    1.2990    0.0000 N   0  0  0  0  0  0  0  0  0  0  0  0
   -1.5000    0.0000    0.0000 C   0  0  0  0  0  0  0  0  0  0  0  0
   -3.0000    0.0000    0.0000 C   0  0  0  0  0  0  0  0  0  0  0  0
   -3.7500   -1.2990    0.0000 C   0  0  0  0  0  0  0  0  0  0  0  0
   -5.2500   -1.2990    0.0000 O   0  0  0  0  0  0  0  0  0  0  0  0
   -6.0000    0.0000    0.0000 C   0  0  0  0  0  0  0  0  0  0  0  0
   -3.0000   -2.5981    0.0000 C   0  0  0  0  0  0  0  0  0  0  0  0
   -3.7500   -3.8971    0.0000 O   0  0  0  0  0  0  0  0  0  0  0  0
   -5.2500   -3.8971    0.0000 C   0  0  0  0  0  0  0  0  0  0  0  0
   -1.5000   -2.5981    0.0000 C   0  0  0  0  0  0  0  0  0  0  0  0
   -0.7500   -1.2990    0.0000 C   0  0  0  0  0  0  0  0  0  0  0  0
    4.2990   -4.4462    0.0000 C   0  0  0  0  0  0  0  0  0  0  0  0
    4.2990   -2.9462    0.0000 C   0  0  0  0  0  0  0  0  0  0  0  0
    5.5981   -2.1962    0.0000 C   0  0  0  0  0  0  0  0  0  0  0  0
    5.5981   -0.6962    0.0000 C   0  0  0  0  0  0  0  0  0  0  0  0
    4.2990    0.0538    0.0000 N   0  0  0  0  0  0  0  0  0  0  0  0
    3.0000   -0.6962    0.0000 C   0  0  0  0  0  0  0  0  0  0  0  0
    3.0000   -2.1962    0.0000 C   0  0  0  0  0  0  0  0  0  0  0  0
  1  2  1  0
  2  3  1  0
  3  4  1  0
  4  5  1  0
  3  6  1  0
  6  7  1  0
  6  8  1  0
  8  9  3  0
  9 10  1  0
 10 11  2  0
 11 12  1  0
 12 13  2  0
 13 14  1  0
 14 15  2  0
 15 16  1  0
 16 17  1  0
 17 18  1  0
 16 19  2  0
 19 20  1  0
 20 21  1  0
 19 22  1  0
 22 23  2  0
  6 24  1  0
 24 25  1  0
 25 26  2  0
 26 27  1  0
 27 28  2  0
 28 29  1  0
 29 30  2  0
 23 10  1  0
 30 25  1  0
 23 14  1  0
M  END
>  <Compound_ID>  (340) 
CHEMBL398960

>  <Active>  (340) 
1.0

>  <Smiles>  (340) 
CCN(CC)C(C)(C#Cc1ncnc2cc(OC)c(OC)cc12)Cc1ccncc1

>  <canonical_smi>  (340) 
CCN(CC)C(C)(C#Cc1ncnc2cc(OC)c(OC)cc12)Cc1ccncc1

>  <Set>  (340) 
G2 active

>  <Set_type>  (340) 
Train

>  <MW>  (340) 
404.51

>  <HBD>  (340) 
0

>  <HBA>  (340) 
6

>  <NRB>  (340) 
7

>  <NR>  (340) 
3

>  <NAR>  (340) 
3

>  <PSA>  (340) 
60.37

>  <Standard Type>  (340) 
nan

>  <Standard Relation>  (340) 
nan

>  <Standard Units>  (340) 
nan

>  <Standard Value>  (340) 
nan

>  <Assay ChEMBL ID>  (340) 
nan

>  <Assay Description>  (340) 
nan

>  <BAO Label>  (340) 
nan

$$$$

     RDKit          2D

 27 30  0  0  0  0  0  0  0  0999 V2000
   -2.9499    4.2246    0.0000 N   0  0  0  0  0  0  0  0  0  0  0  0
   -1.8351    3.2209    0.0000 C   0  0  0  0  0  0  0  0  0  0  0  0
   -0.4086    3.6844    0.0000 N   0  0  0  0  0  0  0  0  0  0  0  0
    0.7062    2.6807    0.0000 C   0  0  0  0  0  0  0  0  0  0  0  0
    2.1328    3.1443    0.0000 N   0  0  0  0  0  0  0  0  0  0  0  0
    2.4446    4.6115    0.0000 C   0  0  0  0  0  0  0  0  0  0  0  0
    3.8712    5.0750    0.0000 C   0  0  0  0  0  0  0  0  0  0  0  0
    4.1831    6.5422    0.0000 C   0  0  0  0  0  0  0  0  0  0  0  0
    3.0684    7.5459    0.0000 C   0  0  0  0  0  0  0  0  0  0  0  0
    1.6418    7.0824    0.0000 C   0  0  0  0  0  0  0  0  0  0  0  0
    0.5271    8.0861    0.0000 Br  0  0  0  0  0  0  0  0  0  0  0  0
    1.3299    5.6152    0.0000 C   0  0  0  0  0  0  0  0  0  0  0  0
    0.3943    1.2135    0.0000 C   0  0  0  0  0  0  0  0  0  0  0  0
    1.2760    0.0000    0.0000 C   0  0  0  0  0  0  0  0  0  0  0  0
    0.3943   -1.2135    0.0000 C   0  0  0  0  0  0  0  0  0  0  0  0
    0.8578   -2.6401    0.0000 C   0  0  0  0  0  0  0  0  0  0  0  0
   -0.1459   -3.7548    0.0000 C   0  0  0  0  0  0  0  0  0  0  0  0
   -1.6131   -3.4430    0.0000 C   0  0  0  0  0  0  0  0  0  0  0  0
   -2.6168   -4.5577    0.0000 C   0  0  0  0  0  0  0  0  0  0  0  0
   -2.1533   -5.9843    0.0000 C   0  0  0  0  0  0  0  0  0  0  0  0
   -3.1570   -7.0990    0.0000 Cl  0  0  0  0  0  0  0  0  0  0  0  0
   -0.6860   -6.2961    0.0000 C   0  0  0  0  0  0  0  0  0  0  0  0
    0.3177   -5.1814    0.0000 C   0  0  0  0  0  0  0  0  0  0  0  0
    1.7849   -5.4933    0.0000 Cl  0  0  0  0  0  0  0  0  0  0  0  0
   -1.0323   -0.7500    0.0000 N   0  0  0  0  0  0  0  0  0  0  0  0
   -1.0323    0.7500    0.0000 C   0  0  0  0  0  0  0  0  0  0  0  0
   -2.1470    1.7537    0.0000 N   0  0  0  0  0  0  0  0  0  0  0  0
  1  2  1  0
  2  3  2  0
  3  4  1  0
  4  5  1  0
  5  6  1  0
  6  7  2  0
  7  8  1  0
  8  9  2  0
  9 10  1  0
 10 11  1  0
 10 12  2  0
  4 13  2  0
 13 14  1  0
 14 15  2  0
 15 16  1  0
 16 17  1  0
 17 18  2  0
 18 19  1  0
 19 20  2  0
 20 21  1  0
 20 22  1  0
 22 23  2  0
 23 24  1  0
 15 25  1  0
 25 26  1  0
 26 27  2  0
 27  2  1  0
 12  6  1  0
 26 13  1  0
 23 17  1  0
M  END
>  <Compound_ID>  (341) 
CHEMBL1095761

>  <Active>  (341) 
1.0

>  <Smiles>  (341) 
Nc1nc(Nc2cccc(Br)c2)c2cc(Cc3ccc(Cl)cc3Cl)[nH]c2n1

>  <canonical_smi>  (341) 
Nc1nc(Nc2cccc(Br)c2)c2cc(Cc3ccc(Cl)cc3Cl)[nH]c2n1

>  <Set>  (341) 
G2 active

>  <Set_type>  (341) 
Train

>  <MW>  (341) 
463.17

>  <HBD>  (341) 
3

>  <HBA>  (341) 
4

>  <NRB>  (341) 
4

>  <NR>  (341) 
4

>  <NAR>  (341) 
4

>  <PSA>  (341) 
79.62

>  <Standard Type>  (341) 
nan

>  <Standard Relation>  (341) 
nan

>  <Standard Units>  (341) 
nan

>  <Standard Value>  (341) 
nan

>  <Assay ChEMBL ID>  (341) 
nan

>  <Assay Description>  (341) 
nan

>  <BAO Label>  (341) 
nan

$$$$

     RDKit          2D

 40 43  0  0  0  0  0  0  0  0999 V2000
    3.7500   -1.2990    0.0000 C   0  0  0  0  0  0  0  0  0  0  0  0
    3.0000    0.0000    0.0000 O   0  0  0  0  0  0  0  0  0  0  0  0
    1.5000    0.0000    0.0000 C   0  0  0  0  0  0  0  0  0  0  0  0
    0.7500   -1.2990    0.0000 C   0  0  0  0  0  0  0  0  0  0  0  0
   -0.7500   -1.2990    0.0000 C   0  0  0  0  0  0  0  0  0  0  0  0
   -1.5000   -2.5981    0.0000 N   0  0  0  0  0  0  0  0  0  0  0  0
   -3.0000   -2.5981    0.0000 C   0  0  0  0  0  0  0  0  0  0  0  0
   -3.7500   -1.2990    0.0000 C   0  0  0  0  0  0  0  0  0  0  0  0
   -5.2500   -1.2990    0.0000 C   0  0  0  0  0  0  0  0  0  0  0  0
   -6.7500   -1.2990    0.0000 N   0  0  0  0  0  0  0  0  0  0  0  0
   -3.0000    0.0000    0.0000 C   0  0  0  0  0  0  0  0  0  0  0  0
   -3.7500    1.2990    0.0000 N   0  0  0  0  0  0  0  0  0  0  0  0
   -3.0000    2.5981    0.0000 C   0  0  0  0  0  0  0  0  0  0  0  0
   -1.5000    2.5981    0.0000 C   0  0  0  0  0  0  0  0  0  0  0  0
   -0.7500    3.8971    0.0000 C   0  0  0  0  0  0  0  0  0  0  0  0
   -1.5000    5.1962    0.0000 C   0  0  0  0  0  0  0  0  0  0  0  0
   -0.7500    6.4952    0.0000 N   0  0  0  0  0  0  0  0  0  0  0  0
    0.7500    6.4952    0.0000 C   0  0  0  0  0  0  0  0  0  0  0  0
    1.5000    7.7942    0.0000 N   0  0  0  0  0  0  0  0  0  0  0  0
    3.0000    7.7942    0.0000 C   0  0  0  0  0  0  0  0  0  0  0  0
    3.7500    6.4952    0.0000 C   0  0  0  0  0  0  0  0  0  0  0  0
    5.2500    6.4952    0.0000 C   0  0  0  0  0  0  0  0  0  0  0  0
    6.0000    7.7942    0.0000 C   0  0  0  0  0  0  0  0  0  0  0  0
    5.2500    9.0933    0.0000 C   0  0  0  0  0  0  0  0  0  0  0  0
    3.7500    9.0933    0.0000 C   0  0  0  0  0  0  0  0  0  0  0  0
   -3.0000    5.1962    0.0000 C   0  0  0  0  0  0  0  0  0  0  0  0
   -3.7500    6.4952    0.0000 Cl  0  0  0  0  0  0  0  0  0  0  0  0
   -3.7500    3.8971    0.0000 C   0  0  0  0  0  0  0  0  0  0  0  0
   -1.5000    0.0000    0.0000 C   0  0  0  0  0  0  0  0  0  0  0  0
   -0.7500    1.2990    0.0000 C   0  0  0  0  0  0  0  0  0  0  0  0
    0.7500    1.2990    0.0000 C   0  0  0  0  0  0  0  0  0  0  0  0
    1.5000    2.5981    0.0000 N   0  0  0  0  0  0  0  0  0  0  0  0
    3.0000    2.5981    0.0000 C   0  0  0  0  0  0  0  0  0  0  0  0
    3.7500    1.2990    0.0000 O   0  0  0  0  0  0  0  0  0  0  0  0
    3.7500    3.8971    0.0000 C   0  0  0  0  0  0  0  0  0  0  0  0
    5.2500    3.8971    0.0000 C   0  0  0  0  0  0  0  0  0  0  0  0
    6.0000    5.1962    0.0000 C   0  0  0  0  0  0  0  0  0  0  0  0
    7.5000    5.1962    0.0000 N   0  0  0  0  0  0  0  0  0  0  0  0
    8.2500    6.4952    0.0000 C   0  0  0  0  0  0  0  0  0  0  0  0
    8.2500    3.8971    0.0000 C   0  0  0  0  0  0  0  0  0  0  0  0
  1  2  1  0
  2  3  1  0
  3  4  2  0
  4  5  1  0
  5  6  2  0
  6  7  1  0
  7  8  2  0
  8  9  1  0
  9 10  3  0
  8 11  1  0
 11 12  1  0
 12 13  1  0
 13 14  2  0
 14 15  1  0
 15 16  2  0
 16 17  1  0
 17 18  1  0
 18 19  1  0
 19 20  1  0
 20 21  2  0
 21 22  1  0
 22 23  2  0
 23 24  1  0
 24 25  2  0
 16 26  1  0
 26 27  1  0
 26 28  2  0
 11 29  2  0
 29 30  1  0
 30 31  2  0
 31 32  1  0
 32 33  1  0
 33 34  2  0
 33 35  1  0
 35 36  2  0
 36 37  1  0
 37 38  1  0
 38 39  1  0
 38 40  1  0
 31  3  1  0
 29  5  1  0
 28 13  1  0
 25 20  1  0
M  END
>  <Compound_ID>  (342) 
CHEMBL178096

>  <Active>  (342) 
1.0

>  <Smiles>  (342) 
COc1cc2ncc(C#N)c(Nc3ccc(NCNc4ccccc4)c(Cl)c3)c2cc1NC(=O)/C=C/CN(C)C

>  <canonical_smi>  (342) 
COc1cc2ncc(C#N)c(Nc3ccc(NCNc4ccccc4)c(Cl)c3)c2cc1NC(=O)/C=C/CN(C)C

>  <Set>  (342) 
G2 active

>  <Set_type>  (342) 
Train

>  <MW>  (342) 
556.07

>  <HBD>  (342) 
4

>  <HBA>  (342) 
8

>  <NRB>  (342) 
11

>  <NR>  (342) 
4

>  <NAR>  (342) 
4

>  <PSA>  (342) 
114.34

>  <Standard Type>  (342) 
nan

>  <Standard Relation>  (342) 
nan

>  <Standard Units>  (342) 
nan

>  <Standard Value>  (342) 
nan

>  <Assay ChEMBL ID>  (342) 
nan

>  <Assay Description>  (342) 
nan

>  <BAO Label>  (342) 
nan

$$$$

     RDKit          2D

 39 44  0  0  0  0  0  0  0  0999 V2000
   -2.9520   -4.6564    0.0000 C   0  0  0  0  0  0  0  0  0  0  0  0
   -2.6401   -3.1891    0.0000 C   0  0  0  0  0  0  0  0  0  0  0  0
   -1.2135   -2.7256    0.0000 C   0  0  0  0  0  0  0  0  0  0  0  0
   -0.0000   -3.6073    0.0000 C   0  0  0  0  0  0  0  0  0  0  0  0
   -0.0000   -5.1073    0.0000 N   0  0  0  0  0  0  0  0  0  0  0  0
    1.2990   -5.8573    0.0000 C   0  0  0  0  0  0  0  0  0  0  0  0
    2.5981   -5.1073    0.0000 O   0  0  0  0  0  0  0  0  0  0  0  0
    1.2990   -7.3573    0.0000 O   0  0  0  0  0  0  0  0  0  0  0  0
    2.5981   -8.1073    0.0000 C   0  0  0  0  0  0  0  0  0  0  0  0
    2.5981   -9.6073    0.0000 C   0  0  0  0  0  0  0  0  0  0  0  0
    1.2990  -10.3573    0.0000 C   0  0  0  0  0  0  0  0  0  0  0  0
    1.2990  -11.8573    0.0000 C   0  0  0  0  0  0  0  0  0  0  0  0
    2.5981  -12.6073    0.0000 C   0  0  0  0  0  0  0  0  0  0  0  0
    3.8971  -11.8573    0.0000 C   0  0  0  0  0  0  0  0  0  0  0  0
    3.8971  -10.3573    0.0000 C   0  0  0  0  0  0  0  0  0  0  0  0
    1.2135   -2.7256    0.0000 C   0  0  0  0  0  0  0  0  0  0  0  0
    0.7500   -1.2990    0.0000 N   0  0  0  0  0  0  0  0  0  0  0  0
    1.5000    0.0000    0.0000 N   0  0  0  0  0  0  0  0  0  0  0  0
    0.7500    1.2990    0.0000 C   0  0  0  0  0  0  0  0  0  0  0  0
   -0.7500    1.2990    0.0000 N   0  0  0  0  0  0  0  0  0  0  0  0
   -1.5000    0.0000    0.0000 C   0  0  0  0  0  0  0  0  0  0  0  0
   -3.0000    0.0000    0.0000 N   0  0  0  0  0  0  0  0  0  0  0  0
   -3.7500    1.2990    0.0000 C   0  0  0  0  0  0  0  0  0  0  0  0
   -3.0000    2.5981    0.0000 C   0  0  0  0  0  0  0  0  0  0  0  0
   -3.7500    3.8971    0.0000 C   0  0  0  0  0  0  0  0  0  0  0  0
   -5.2500    3.8971    0.0000 C   0  0  0  0  0  0  0  0  0  0  0  0
   -6.0000    2.5981    0.0000 C   0  0  0  0  0  0  0  0  0  0  0  0
   -7.4672    2.9099    0.0000 C   0  0  0  0  0  0  0  0  0  0  0  0
   -7.6240    4.4017    0.0000 N   0  0  0  0  0  0  0  0  0  0  0  0
   -6.2537    5.0118    0.0000 N   0  0  0  0  0  0  0  0  0  0  0  0
   -5.9418    6.4791    0.0000 C   0  0  0  0  0  0  0  0  0  0  0  0
   -7.0565    7.4827    0.0000 C   0  0  0  0  0  0  0  0  0  0  0  0
   -6.7447    8.9500    0.0000 C   0  0  0  0  0  0  0  0  0  0  0  0
   -7.8594    9.9537    0.0000 C   0  0  0  0  0  0  0  0  0  0  0  0
   -9.2860    9.4901    0.0000 C   0  0  0  0  0  0  0  0  0  0  0  0
   -9.5978    8.0229    0.0000 C   0  0  0  0  0  0  0  0  0  0  0  0
   -8.4831    7.0192    0.0000 C   0  0  0  0  0  0  0  0  0  0  0  0
   -5.2500    1.2990    0.0000 C   0  0  0  0  0  0  0  0  0  0  0  0
   -0.7500   -1.2990    0.0000 C   0  0  0  0  0  0  0  0  0  0  0  0
  1  2  1  0
  2  3  1  0
  3  4  1  0
  4  5  1  0
  5  6  1  0
  6  7  2  0
  6  8  1  0
  8  9  1  0
  9 10  1  0
 10 11  2  0
 11 12  1  0
 12 13  2  0
 13 14  1  0
 14 15  2  0
  4 16  2  0
 16 17  1  0
 17 18  1  0
 18 19  2  0
 19 20  1  0
 20 21  2  0
 21 22  1  0
 22 23  1  0
 23 24  2  0
 24 25  1  0
 25 26  2  0
 26 27  1  0
 27 28  1  0
 28 29  2  0
 29 30  1  0
 30 31  1  0
 31 32  1  0
 32 33  2  0
 33 34  1  0
 34 35  2  0
 35 36  1  0
 36 37  2  0
 27 38  2  0
 21 39  1  0
 39  3  2  0
 15 10  1  0
 39 17  1  0
 38 23  1  0
 30 26  1  0
 37 32  1  0
M  END
>  <Compound_ID>  (343) 
CHEMBL372523

>  <Active>  (343) 
1.0

>  <Smiles>  (343) 
CCc1c(NC(=O)OCc2ccccc2)cn2ncnc(Nc3ccc4c(cnn4Cc4ccccc4)c3)c12

>  <canonical_smi>  (343) 
CCc1c(NC(=O)OCc2ccccc2)cn2ncnc(Nc3ccc4c(cnn4Cc4ccccc4)c3)c12

>  <Set>  (343) 
G2 active

>  <Set_type>  (343) 
Train

>  <MW>  (343) 
517.59

>  <HBD>  (343) 
2

>  <HBA>  (343) 
6

>  <NRB>  (343) 
8

>  <NR>  (343) 
6

>  <NAR>  (343) 
6

>  <PSA>  (343) 
98.37

>  <Standard Type>  (343) 
nan

>  <Standard Relation>  (343) 
nan

>  <Standard Units>  (343) 
nan

>  <Standard Value>  (343) 
nan

>  <Assay ChEMBL ID>  (343) 
nan

>  <Assay Description>  (343) 
nan

>  <BAO Label>  (343) 
nan

$$$$

     RDKit          2D

 32 35  0  0  0  0  0  0  0  0999 V2000
   -1.5000  -12.9904    0.0000 C   0  0  0  0  0  0  0  0  0  0  0  0
   -0.7500  -11.6913    0.0000 N   0  0  0  0  0  0  0  0  0  0  0  0
   -1.5000  -10.3923    0.0000 C   0  0  0  0  0  0  0  0  0  0  0  0
   -0.7500   -9.0933    0.0000 C   0  0  0  0  0  0  0  0  0  0  0  0
    0.7500   -9.0933    0.0000 N   0  0  0  0  0  0  0  0  0  0  0  0
    1.5000   -7.7942    0.0000 C   0  0  0  0  0  0  0  0  0  0  0  0
    0.7500   -6.4952    0.0000 C   0  0  0  0  0  0  0  0  0  0  0  0
    1.5000   -5.1962    0.0000 C   0  0  0  0  0  0  0  0  0  0  0  0
    0.7500   -3.8971    0.0000 C   0  0  0  0  0  0  0  0  0  0  0  0
    1.5000   -2.5981    0.0000 N   0  0  0  0  0  0  0  0  0  0  0  0
    0.7500   -1.2990    0.0000 C   0  0  0  0  0  0  0  0  0  0  0  0
    1.5000    0.0000    0.0000 N   0  0  0  0  0  0  0  0  0  0  0  0
    0.7500    1.2990    0.0000 C   0  0  0  0  0  0  0  0  0  0  0  0
   -0.7500    1.2990    0.0000 C   0  0  0  0  0  0  0  0  0  0  0  0
   -1.5000    2.5981    0.0000 C   0  0  0  0  0  0  0  0  0  0  0  0
   -3.0000    2.5981    0.0000 C   0  0  0  0  0  0  0  0  0  0  0  0
   -3.7500    3.8971    0.0000 C   0  0  0  0  0  0  0  0  0  0  0  0
   -3.0000    5.1962    0.0000 C   0  0  0  0  0  0  0  0  0  0  0  0
   -1.5000    5.1962    0.0000 Cl  0  0  0  0  0  0  0  0  0  0  0  0
   -3.7500    6.4952    0.0000 C   0  0  0  0  0  0  0  0  0  0  0  0
   -5.2500    6.4952    0.0000 C   0  0  0  0  0  0  0  0  0  0  0  0
   -6.0000    5.1962    0.0000 C   0  0  0  0  0  0  0  0  0  0  0  0
   -5.2500    3.8971    0.0000 C   0  0  0  0  0  0  0  0  0  0  0  0
   -6.0000    2.5981    0.0000 Cl  0  0  0  0  0  0  0  0  0  0  0  0
   -3.7500    1.2990    0.0000 C   0  0  0  0  0  0  0  0  0  0  0  0
   -5.2500    1.2990    0.0000 O   0  0  0  0  0  0  0  0  0  0  0  0
   -3.0000    0.0000    0.0000 N   0  0  0  0  0  0  0  0  0  0  0  0
   -3.7500   -1.2990    0.0000 C   0  0  0  0  0  0  0  0  0  0  0  0
   -1.5000    0.0000    0.0000 C   0  0  0  0  0  0  0  0  0  0  0  0
   -0.7500   -1.2990    0.0000 N   0  0  0  0  0  0  0  0  0  0  0  0
    1.5000  -10.3923    0.0000 C   0  0  0  0  0  0  0  0  0  0  0  0
    0.7500  -11.6913    0.0000 C   0  0  0  0  0  0  0  0  0  0  0  0
  1  2  1  0
  2  3  1  0
  3  4  1  0
  4  5  1  0
  5  6  1  0
  6  7  1  0
  7  8  1  0
  8  9  1  0
  9 10  1  0
 10 11  1  0
 11 12  2  0
 12 13  1  0
 13 14  2  0
 14 15  1  0
 15 16  2  0
 16 17  1  0
 17 18  2  0
 18 19  1  0
 18 20  1  0
 20 21  2  0
 21 22  1  0
 22 23  2  0
 23 24  1  0
 16 25  1  0
 25 26  2  0
 25 27  1  0
 27 28  1  0
 27 29  1  0
 29 30  2  0
  5 31  1  0
 31 32  1  0
 32  2  1  0
 30 11  1  0
 29 14  1  0
 23 17  1  0
M  END
>  <Compound_ID>  (344) 
CHEMBL104244

>  <Active>  (344) 
1.0

>  <Smiles>  (344) 
CN1CCN(CCCCNc2ncc3cc(-c4c(Cl)cccc4Cl)c(=O)n(C)c3n2)CC1

>  <canonical_smi>  (344) 
CN1CCN(CCCCNc2ncc3cc(-c4c(Cl)cccc4Cl)c(=O)n(C)c3n2)CC1

>  <Set>  (344) 
G2 active

>  <Set_type>  (344) 
Train

>  <MW>  (344) 
475.42

>  <HBD>  (344) 
1

>  <HBA>  (344) 
6

>  <NRB>  (344) 
7

>  <NR>  (344) 
4

>  <NAR>  (344) 
3

>  <PSA>  (344) 
66.29

>  <Standard Type>  (344) 
nan

>  <Standard Relation>  (344) 
nan

>  <Standard Units>  (344) 
nan

>  <Standard Value>  (344) 
nan

>  <Assay ChEMBL ID>  (344) 
nan

>  <Assay Description>  (344) 
nan

>  <BAO Label>  (344) 
nan

$$$$

     RDKit          2D

 41 45  0  0  0  0  0  0  0  0999 V2000
   -5.2500   -3.8971    0.0000 C   0  0  0  0  0  0  0  0  0  0  0  0
   -3.7500   -3.8971    0.0000 O   0  0  0  0  0  0  0  0  0  0  0  0
   -3.0000   -2.5981    0.0000 C   0  0  0  0  0  0  0  0  0  0  0  0
   -1.5000   -2.5981    0.0000 C   0  0  0  0  0  0  0  0  0  0  0  0
   -0.7500   -1.2990    0.0000 C   0  0  0  0  0  0  0  0  0  0  0  0
    0.7500   -1.2990    0.0000 C   0  0  0  0  0  0  0  0  0  0  0  0
    1.5000   -2.5981    0.0000 N   0  0  0  0  0  0  0  0  0  0  0  0
    0.7500   -3.8971    0.0000 C   0  0  0  0  0  0  0  0  0  0  0  0
    1.5000   -5.1962    0.0000 C   0  0  0  0  0  0  0  0  0  0  0  0
    3.0000   -5.1962    0.0000 N   0  0  0  0  0  0  0  0  0  0  0  0
    3.7500   -6.4952    0.0000 C   0  0  0  0  0  0  0  0  0  0  0  0
    5.2500   -6.4952    0.0000 O   0  0  0  0  0  0  0  0  0  0  0  0
    3.0000   -7.7942    0.0000 N   0  0  0  0  0  0  0  0  0  0  0  0
    3.7500   -9.0933    0.0000 C   0  0  0  0  0  0  0  0  0  0  0  0
    3.0000  -10.3923    0.0000 C   0  0  0  0  0  0  0  0  0  0  0  0
    3.7500  -11.6913    0.0000 C   0  0  0  0  0  0  0  0  0  0  0  0
    5.2500  -11.6913    0.0000 C   0  0  0  0  0  0  0  0  0  0  0  0
    6.0000  -12.9904    0.0000 O   0  0  0  0  0  0  0  0  0  0  0  0
    5.2500  -14.2894    0.0000 C   0  0  0  0  0  0  0  0  0  0  0  0
    6.0000  -15.5885    0.0000 C   0  0  0  0  0  0  0  0  0  0  0  0
    3.7500  -14.2894    0.0000 C   0  0  0  0  0  0  0  0  0  0  0  0
    6.0000  -10.3923    0.0000 C   0  0  0  0  0  0  0  0  0  0  0  0
    5.2500   -9.0933    0.0000 C   0  0  0  0  0  0  0  0  0  0  0  0
    3.7500   -3.8971    0.0000 C   0  0  0  0  0  0  0  0  0  0  0  0
    3.0000   -2.5981    0.0000 C   0  0  0  0  0  0  0  0  0  0  0  0
    1.5000    0.0000    0.0000 N   0  0  0  0  0  0  0  0  0  0  0  0
    0.7500    1.2990    0.0000 C   0  0  0  0  0  0  0  0  0  0  0  0
   -0.7500    1.2990    0.0000 N   0  0  0  0  0  0  0  0  0  0  0  0
   -1.5000    0.0000    0.0000 C   0  0  0  0  0  0  0  0  0  0  0  0
   -3.0000    0.0000    0.0000 C   0  0  0  0  0  0  0  0  0  0  0  0
   -3.7500   -1.2990    0.0000 C   0  0  0  0  0  0  0  0  0  0  0  0
   -5.2500   -1.2990    0.0000 O   0  0  0  0  0  0  0  0  0  0  0  0
   -6.0000    0.0000    0.0000 C   0  0  0  0  0  0  0  0  0  0  0  0
   -7.5000    0.0000    0.0000 C   0  0  0  0  0  0  0  0  0  0  0  0
   -8.2500    1.2990    0.0000 C   0  0  0  0  0  0  0  0  0  0  0  0
   -9.7500    1.2990    0.0000 N   0  0  0  0  0  0  0  0  0  0  0  0
  -10.5000    2.5981    0.0000 C   0  0  0  0  0  0  0  0  0  0  0  0
  -12.0000    2.5981    0.0000 C   0  0  0  0  0  0  0  0  0  0  0  0
  -12.7500    1.2990    0.0000 C   0  0  0  0  0  0  0  0  0  0  0  0
  -12.0000    0.0000    0.0000 C   0  0  0  0  0  0  0  0  0  0  0  0
  -10.5000    0.0000    0.0000 C   0  0  0  0  0  0  0  0  0  0  0  0
  1  2  1  0
  2  3  1  0
  3  4  2  0
  4  5  1  0
  5  6  2  0
  6  7  1  0
  7  8  1  0
  8  9  1  0
  9 10  1  0
 10 11  1  0
 11 12  2  0
 11 13  1  0
 13 14  1  0
 14 15  2  0
 15 16  1  0
 16 17  2  0
 17 18  1  0
 18 19  1  0
 19 20  1  0
 19 21  1  0
 17 22  1  0
 22 23  2  0
 10 24  1  0
 24 25  1  0
  6 26  1  0
 26 27  2  0
 27 28  1  0
 28 29  2  0
 29 30  1  0
 30 31  2  0
 31 32  1  0
 32 33  1  0
 33 34  1  0
 34 35  1  0
 35 36  1  0
 36 37  1  0
 37 38  1  0
 38 39  1  0
 39 40  1  0
 40 41  1  0
 31  3  1  0
 41 36  1  0
 29  5  1  0
 25  7  1  0
 23 14  1  0
M  END
>  <Compound_ID>  (345) 
CHEMBL124660

>  <Active>  (345) 
1.0

>  <Smiles>  (345) 
COc1cc2c(N3CCN(C(=O)Nc4ccc(OC(C)C)cc4)CC3)ncnc2cc1OCCCN1CCCCC1

>  <canonical_smi>  (345) 
COc1cc2c(N3CCN(C(=O)Nc4ccc(OC(C)C)cc4)CC3)ncnc2cc1OCCCN1CCCCC1

>  <Set>  (345) 
G2 active

>  <Set_type>  (345) 
Train

>  <MW>  (345) 
562.72

>  <HBD>  (345) 
1

>  <HBA>  (345) 
8

>  <NRB>  (345) 
10

>  <NR>  (345) 
5

>  <NAR>  (345) 
3

>  <PSA>  (345) 
92.29

>  <Standard Type>  (345) 
nan

>  <Standard Relation>  (345) 
nan

>  <Standard Units>  (345) 
nan

>  <Standard Value>  (345) 
nan

>  <Assay ChEMBL ID>  (345) 
nan

>  <Assay Description>  (345) 
nan

>  <BAO Label>  (345) 
nan

$$$$

     RDKit          2D

 25 28  0  0  0  0  0  0  0  0999 V2000
    3.0000    0.0000    0.0000 O   0  0  0  0  0  0  0  0  0  0  0  0
    1.5000    0.0000    0.0000 C   0  0  0  0  0  0  0  0  0  0  0  0
    0.7500   -1.2990    0.0000 C   0  0  0  0  0  0  0  0  0  0  0  0
   -0.7500   -1.2990    0.0000 C   0  0  0  0  0  0  0  0  0  0  0  0
   -1.5000    0.0000    0.0000 C   0  0  0  0  0  0  0  0  0  0  0  0
   -3.0000    0.0000    0.0000 C   0  0  0  0  0  0  0  0  0  0  0  0
   -3.8817   -1.2135    0.0000 N   0  0  0  0  0  0  0  0  0  0  0  0
   -5.3083   -0.7500    0.0000 C   0  0  0  0  0  0  0  0  0  0  0  0
   -6.5218   -1.6317    0.0000 C   0  0  0  0  0  0  0  0  0  0  0  0
   -7.8921   -1.0216    0.0000 C   0  0  0  0  0  0  0  0  0  0  0  0
   -9.1056   -1.9033    0.0000 C   0  0  0  0  0  0  0  0  0  0  0  0
   -8.9488   -3.3950    0.0000 C   0  0  0  0  0  0  0  0  0  0  0  0
  -10.1624   -4.2767    0.0000 F   0  0  0  0  0  0  0  0  0  0  0  0
   -7.5785   -4.0051    0.0000 C   0  0  0  0  0  0  0  0  0  0  0  0
   -6.3650   -3.1235    0.0000 C   0  0  0  0  0  0  0  0  0  0  0  0
   -5.3083    0.7500    0.0000 C   0  0  0  0  0  0  0  0  0  0  0  0
   -6.5218    1.6317    0.0000 C   0  0  0  0  0  0  0  0  0  0  0  0
   -6.3650    3.1235    0.0000 C   0  0  0  0  0  0  0  0  0  0  0  0
   -7.5785    4.0051    0.0000 C   0  0  0  0  0  0  0  0  0  0  0  0
   -8.9488    3.3950    0.0000 N   0  0  0  0  0  0  0  0  0  0  0  0
   -9.1056    1.9033    0.0000 C   0  0  0  0  0  0  0  0  0  0  0  0
   -7.8921    1.0216    0.0000 C   0  0  0  0  0  0  0  0  0  0  0  0
   -3.8817    1.2135    0.0000 N   0  0  0  0  0  0  0  0  0  0  0  0
   -0.7500    1.2990    0.0000 C   0  0  0  0  0  0  0  0  0  0  0  0
    0.7500    1.2990    0.0000 C   0  0  0  0  0  0  0  0  0  0  0  0
  1  2  1  0
  2  3  2  0
  3  4  1  0
  4  5  2  0
  5  6  1  0
  6  7  2  0
  7  8  1  0
  8  9  1  0
  9 10  2  0
 10 11  1  0
 11 12  2  0
 12 13  1  0
 12 14  1  0
 14 15  2  0
  8 16  2  0
 16 17  1  0
 17 18  2  0
 18 19  1  0
 19 20  2  0
 20 21  1  0
 21 22  2  0
 16 23  1  0
  5 24  1  0
 24 25  2  0
 25  2  1  0
 23  6  1  0
 15  9  1  0
 22 17  1  0
M  END
>  <Compound_ID>  (346) 
CHEMBL278041

>  <Active>  (346) 
1.0

>  <Smiles>  (346) 
Oc1ccc(-c2nc(-c3ccc(F)cc3)c(-c3ccncc3)[nH]2)cc1

>  <canonical_smi>  (346) 
Oc1ccc(-c2nc(-c3ccc(F)cc3)c(-c3ccncc3)[nH]2)cc1

>  <Set>  (346) 
G2 active

>  <Set_type>  (346) 
Train

>  <MW>  (346) 
331.35

>  <HBD>  (346) 
2

>  <HBA>  (346) 
3

>  <NRB>  (346) 
3

>  <NR>  (346) 
4

>  <NAR>  (346) 
4

>  <PSA>  (346) 
61.8

>  <Standard Type>  (346) 
nan

>  <Standard Relation>  (346) 
nan

>  <Standard Units>  (346) 
nan

>  <Standard Value>  (346) 
nan

>  <Assay ChEMBL ID>  (346) 
nan

>  <Assay Description>  (346) 
nan

>  <BAO Label>  (346) 
nan

$$$$

     RDKit          2D

 29 32  0  0  0  0  0  0  0  0999 V2000
   -0.7500   -3.8971    0.0000 O   0  0  0  0  0  0  0  0  0  0  0  0
    0.7500   -3.8971    0.0000 C   0  0  0  0  0  0  0  0  0  0  0  0
    1.5000   -5.1962    0.0000 C   0  0  0  0  0  0  0  0  0  0  0  0
    0.7500   -6.4952    0.0000 C   0  0  0  0  0  0  0  0  0  0  0  0
    1.5000   -7.7942    0.0000 N   0  0  0  0  0  0  0  0  0  0  0  0
    0.7500   -9.0933    0.0000 C   0  0  0  0  0  0  0  0  0  0  0  0
    1.5000  -10.3923    0.0000 C   0  0  0  0  0  0  0  0  0  0  0  0
    3.0000  -10.3923    0.0000 O   0  0  0  0  0  0  0  0  0  0  0  0
    3.7500   -9.0933    0.0000 C   0  0  0  0  0  0  0  0  0  0  0  0
    3.0000   -7.7942    0.0000 C   0  0  0  0  0  0  0  0  0  0  0  0
    1.5000   -2.5981    0.0000 N   0  0  0  0  0  0  0  0  0  0  0  0
    0.7500   -1.2990    0.0000 C   0  0  0  0  0  0  0  0  0  0  0  0
    1.5000    0.0000    0.0000 C   0  0  0  0  0  0  0  0  0  0  0  0
    0.7500    1.2990    0.0000 C   0  0  0  0  0  0  0  0  0  0  0  0
   -0.7500    1.2990    0.0000 C   0  0  0  0  0  0  0  0  0  0  0  0
   -1.5000    2.5981    0.0000 N   0  0  0  0  0  0  0  0  0  0  0  0
   -3.0000    2.5981    0.0000 C   0  0  0  0  0  0  0  0  0  0  0  0
   -3.7500    1.2990    0.0000 N   0  0  0  0  0  0  0  0  0  0  0  0
   -3.0000    0.0000    0.0000 C   0  0  0  0  0  0  0  0  0  0  0  0
   -3.7500   -1.2990    0.0000 N   0  0  0  0  0  0  0  0  0  0  0  0
   -5.2500   -1.2990    0.0000 C   0  0  0  0  0  0  0  0  0  0  0  0
   -6.0000    0.0000    0.0000 C   0  0  0  0  0  0  0  0  0  0  0  0
   -7.5000    0.0000    0.0000 C   0  0  0  0  0  0  0  0  0  0  0  0
   -8.2500   -1.2990    0.0000 C   0  0  0  0  0  0  0  0  0  0  0  0
   -7.5000   -2.5981    0.0000 C   0  0  0  0  0  0  0  0  0  0  0  0
   -8.2500   -3.8971    0.0000 Br  0  0  0  0  0  0  0  0  0  0  0  0
   -6.0000   -2.5981    0.0000 C   0  0  0  0  0  0  0  0  0  0  0  0
   -1.5000    0.0000    0.0000 C   0  0  0  0  0  0  0  0  0  0  0  0
   -0.7500   -1.2990    0.0000 C   0  0  0  0  0  0  0  0  0  0  0  0
  1  2  2  0
  2  3  1  0
  3  4  2  0
  4  5  1  0
  5  6  1  0
  6  7  1  0
  7  8  1  0
  8  9  1  0
  9 10  1  0
  2 11  1  0
 11 12  1  0
 12 13  2  0
 13 14  1  0
 14 15  2  0
 15 16  1  0
 16 17  2  0
 17 18  1  0
 18 19  2  0
 19 20  1  0
 20 21  1  0
 21 22  2  0
 22 23  1  0
 23 24  2  0
 24 25  1  0
 25 26  1  0
 25 27  2  0
 19 28  1  0
 28 29  2  0
 10  5  1  0
 29 12  1  0
 28 15  1  0
 27 21  1  0
M  END
>  <Compound_ID>  (347) 
CHEMBL94123

>  <Active>  (347) 
1.0

>  <Smiles>  (347) 
O=C(/C=C/N1CCOCC1)Nc1ccc2ncnc(Nc3cccc(Br)c3)c2c1

>  <canonical_smi>  (347) 
O=C(/C=C/N1CCOCC1)Nc1ccc2ncnc(Nc3cccc(Br)c3)c2c1

>  <Set>  (347) 
G2 active

>  <Set_type>  (347) 
Train

>  <MW>  (347) 
454.33

>  <HBD>  (347) 
2

>  <HBA>  (347) 
6

>  <NRB>  (347) 
5

>  <NR>  (347) 
4

>  <NAR>  (347) 
3

>  <PSA>  (347) 
79.38

>  <Standard Type>  (347) 
nan

>  <Standard Relation>  (347) 
nan

>  <Standard Units>  (347) 
nan

>  <Standard Value>  (347) 
nan

>  <Assay ChEMBL ID>  (347) 
nan

>  <Assay Description>  (347) 
nan

>  <BAO Label>  (347) 
nan

$$$$

     RDKit          2D

 19 21  0  0  0  0  0  0  0  0999 V2000
   -4.9294   -1.5000    0.0000 N   0  0  0  0  0  0  0  0  0  0  0  0
   -3.6304   -0.7500    0.0000 C   0  0  0  0  0  0  0  0  0  0  0  0
   -3.6304    0.7500    0.0000 N   0  0  0  0  0  0  0  0  0  0  0  0
   -2.3313    1.5000    0.0000 C   0  0  0  0  0  0  0  0  0  0  0  0
   -2.3313    3.0000    0.0000 N   0  0  0  0  0  0  0  0  0  0  0  0
   -1.0323    0.7500    0.0000 C   0  0  0  0  0  0  0  0  0  0  0  0
    0.3943    1.2135    0.0000 C   0  0  0  0  0  0  0  0  0  0  0  0
    0.8578    2.6401    0.0000 N   0  0  0  0  0  0  0  0  0  0  0  0
    2.3250    2.9520    0.0000 C   0  0  0  0  0  0  0  0  0  0  0  0
    3.3287    1.8373    0.0000 C   0  0  0  0  0  0  0  0  0  0  0  0
    4.7960    2.1491    0.0000 C   0  0  0  0  0  0  0  0  0  0  0  0
    5.2595    3.5757    0.0000 C   0  0  0  0  0  0  0  0  0  0  0  0
    4.2558    4.6904    0.0000 C   0  0  0  0  0  0  0  0  0  0  0  0
    4.7193    6.1170    0.0000 Cl  0  0  0  0  0  0  0  0  0  0  0  0
    2.7886    4.3786    0.0000 C   0  0  0  0  0  0  0  0  0  0  0  0
    1.2760    0.0000    0.0000 N   0  0  0  0  0  0  0  0  0  0  0  0
    0.3943   -1.2135    0.0000 N   0  0  0  0  0  0  0  0  0  0  0  0
   -1.0323   -0.7500    0.0000 C   0  0  0  0  0  0  0  0  0  0  0  0
   -2.3313   -1.5000    0.0000 N   0  0  0  0  0  0  0  0  0  0  0  0
  1  2  1  0
  2  3  1  0
  3  4  2  0
  4  5  1  0
  4  6  1  0
  6  7  2  0
  7  8  1  0
  8  9  1  0
  9 10  2  0
 10 11  1  0
 11 12  2  0
 12 13  1  0
 13 14  1  0
 13 15  2  0
  7 16  1  0
 16 17  1  0
 17 18  2  0
 18 19  1  0
 19  2  2  0
 18  6  1  0
 15  9  1  0
M  END
>  <Compound_ID>  (348) 
CHEMBL122068

>  <Active>  (348) 
1.0

>  <Smiles>  (348) 
Nc1nc(N)c2c(Nc3cccc(Cl)c3)[nH]nc2n1

>  <canonical_smi>  (348) 
Nc1nc(N)c2c(Nc3cccc(Cl)c3)[nH]nc2n1

>  <Set>  (348) 
G2 active

>  <Set_type>  (348) 
Train

>  <MW>  (348) 
275.7

>  <HBD>  (348) 
4

>  <HBA>  (348) 
6

>  <NRB>  (348) 
2

>  <NR>  (348) 
3

>  <NAR>  (348) 
3

>  <PSA>  (348) 
118.53

>  <Standard Type>  (348) 
nan

>  <Standard Relation>  (348) 
nan

>  <Standard Units>  (348) 
nan

>  <Standard Value>  (348) 
nan

>  <Assay ChEMBL ID>  (348) 
nan

>  <Assay Description>  (348) 
nan

>  <BAO Label>  (348) 
nan

$$$$

     RDKit          2D

 43 48  0  0  0  0  0  0  0  0999 V2000
  -15.4140    7.1597    0.0000 C   0  0  0  0  0  0  0  0  0  0  0  0
  -14.6640    5.8606    0.0000 N   0  0  0  0  0  0  0  0  0  0  0  0
  -15.4140    4.5616    0.0000 C   0  0  0  0  0  0  0  0  0  0  0  0
  -13.1640    5.8606    0.0000 C   0  0  0  0  0  0  0  0  0  0  0  0
  -12.4140    4.5616    0.0000 C   0  0  0  0  0  0  0  0  0  0  0  0
  -10.9140    4.5616    0.0000 C   0  0  0  0  0  0  0  0  0  0  0  0
  -10.1640    5.8606    0.0000 C   0  0  0  0  0  0  0  0  0  0  0  0
   -8.6640    5.8606    0.0000 C   0  0  0  0  0  0  0  0  0  0  0  0
   -7.9140    4.5616    0.0000 C   0  0  0  0  0  0  0  0  0  0  0  0
   -6.4140    4.5616    0.0000 N   0  0  0  0  0  0  0  0  0  0  0  0
   -5.6640    3.2626    0.0000 C   0  0  0  0  0  0  0  0  0  0  0  0
   -6.4140    1.9635    0.0000 N   0  0  0  0  0  0  0  0  0  0  0  0
   -5.6640    0.6645    0.0000 C   0  0  0  0  0  0  0  0  0  0  0  0
   -4.1640    0.6645    0.0000 C   0  0  0  0  0  0  0  0  0  0  0  0
   -3.4140    1.9635    0.0000 C   0  0  0  0  0  0  0  0  0  0  0  0
   -1.9140    1.9635    0.0000 C   0  0  0  0  0  0  0  0  0  0  0  0
   -1.0323    3.1771    0.0000 C   0  0  0  0  0  0  0  0  0  0  0  0
   -1.4958    4.6036    0.0000 C   0  0  0  0  0  0  0  0  0  0  0  0
   -0.4921    5.7184    0.0000 C   0  0  0  0  0  0  0  0  0  0  0  0
   -0.9556    7.1449    0.0000 C   0  0  0  0  0  0  0  0  0  0  0  0
   -2.4229    7.4568    0.0000 C   0  0  0  0  0  0  0  0  0  0  0  0
   -3.4266    6.3421    0.0000 C   0  0  0  0  0  0  0  0  0  0  0  0
   -4.8938    6.6540    0.0000 N   0  0  0  0  0  0  0  0  0  0  0  0
   -5.3573    8.0805    0.0000 C   0  0  0  0  0  0  0  0  0  0  0  0
   -4.3536    9.1953    0.0000 O   0  0  0  0  0  0  0  0  0  0  0  0
   -6.8245    8.3924    0.0000 C   0  0  0  0  0  0  0  0  0  0  0  0
   -7.2881    9.8190    0.0000 C   0  0  0  0  0  0  0  0  0  0  0  0
   -6.2844   10.9337    0.0000 F   0  0  0  0  0  0  0  0  0  0  0  0
   -8.7553   10.1309    0.0000 C   0  0  0  0  0  0  0  0  0  0  0  0
   -9.7590    9.0161    0.0000 C   0  0  0  0  0  0  0  0  0  0  0  0
   -9.2954    7.5896    0.0000 C   0  0  0  0  0  0  0  0  0  0  0  0
   -7.8282    7.2777    0.0000 C   0  0  0  0  0  0  0  0  0  0  0  0
   -7.3647    5.8511    0.0000 F   0  0  0  0  0  0  0  0  0  0  0  0
   -2.9630    4.9155    0.0000 C   0  0  0  0  0  0  0  0  0  0  0  0
    0.3943    2.7135    0.0000 N   0  0  0  0  0  0  0  0  0  0  0  0
    0.3943    1.2135    0.0000 C   0  0  0  0  0  0  0  0  0  0  0  0
    1.2760    0.0000    0.0000 S   0  0  0  0  0  0  0  0  0  0  0  0
    0.3943   -1.2135    0.0000 C   0  0  0  0  0  0  0  0  0  0  0  0
   -1.0323   -0.7500    0.0000 C   0  0  0  0  0  0  0  0  0  0  0  0
   -1.0323    0.7500    0.0000 N   0  0  0  0  0  0  0  0  0  0  0  0
   -4.1640    3.2626    0.0000 N   0  0  0  0  0  0  0  0  0  0  0  0
   -8.6640    3.2626    0.0000 C   0  0  0  0  0  0  0  0  0  0  0  0
  -10.1640    3.2626    0.0000 C   0  0  0  0  0  0  0  0  0  0  0  0
  1  2  1  0
  2  3  1  0
  2  4  1  0
  4  5  1  0
  5  6  1  0
  6  7  2  0
  7  8  1  0
  8  9  2  0
  9 10  1  0
 10 11  1  0
 11 12  2  0
 12 13  1  0
 13 14  2  0
 14 15  1  0
 15 16  1  0
 16 17  2  0
 17 18  1  0
 18 19  2  0
 19 20  1  0
 20 21  2  0
 21 22  1  0
 22 23  1  0
 23 24  1  0
 24 25  2  0
 24 26  1  0
 26 27  2  0
 27 28  1  0
 27 29  1  0
 29 30  2  0
 30 31  1  0
 31 32  2  0
 32 33  1  0
 22 34  2  0
 17 35  1  0
 35 36  2  0
 36 37  1  0
 37 38  1  0
 38 39  2  0
 39 40  1  0
 15 41  2  0
  9 42  1  0
 42 43  2  0
 43  6  1  0
 41 11  1  0
 40 16  1  0
 34 18  1  0
 40 36  1  0
 32 26  1  0
M  END
>  <Compound_ID>  (349) 
CHEMBL1090357

>  <Active>  (349) 
1.0

>  <Smiles>  (349) 
CN(C)CCc1ccc(Nc2nccc(-c3c(-c4cccc(NC(=O)c5c(F)cccc5F)c4)nc4sccn34)n2)cc1

>  <canonical_smi>  (349) 
CN(C)CCc1ccc(Nc2nccc(-c3c(-c4cccc(NC(=O)c5c(F)cccc5F)c4)nc4sccn34)n2)cc1

>  <Set>  (349) 
G2 active

>  <Set_type>  (349) 
Train

>  <MW>  (349) 
595.68

>  <HBD>  (349) 
2

>  <HBA>  (349) 
6

>  <NRB>  (349) 
9

>  <NR>  (349) 
6

>  <NAR>  (349) 
6

>  <PSA>  (349) 
87.45

>  <Standard Type>  (349) 
nan

>  <Standard Relation>  (349) 
nan

>  <Standard Units>  (349) 
nan

>  <Standard Value>  (349) 
nan

>  <Assay ChEMBL ID>  (349) 
nan

>  <Assay Description>  (349) 
nan

>  <BAO Label>  (349) 
nan

$$$$

     RDKit          2D

 24 27  0  0  0  0  0  0  0  0999 V2000
   -0.0000   -5.1073    0.0000 C   0  0  0  0  0  0  0  0  0  0  0  0
   -0.0000   -3.6073    0.0000 C   0  0  0  0  0  0  0  0  0  0  0  0
    1.2135   -2.7256    0.0000 N   0  0  0  0  0  0  0  0  0  0  0  0
    0.7500   -1.2990    0.0000 C   0  0  0  0  0  0  0  0  0  0  0  0
    1.5000    0.0000    0.0000 N   0  0  0  0  0  0  0  0  0  0  0  0
    0.7500    1.2990    0.0000 C   0  0  0  0  0  0  0  0  0  0  0  0
   -0.7500    1.2990    0.0000 N   0  0  0  0  0  0  0  0  0  0  0  0
   -1.5000    0.0000    0.0000 C   0  0  0  0  0  0  0  0  0  0  0  0
   -3.0000    0.0000    0.0000 N   0  0  0  0  0  0  0  0  0  0  0  0
   -3.7500    1.2990    0.0000 C   0  0  0  0  0  0  0  0  0  0  0  0
   -3.0000    2.5981    0.0000 C   0  0  0  0  0  0  0  0  0  0  0  0
   -3.7500    3.8971    0.0000 C   0  0  0  0  0  0  0  0  0  0  0  0
   -5.2500    3.8971    0.0000 C   0  0  0  0  0  0  0  0  0  0  0  0
   -6.0000    2.5981    0.0000 C   0  0  0  0  0  0  0  0  0  0  0  0
   -7.5000    2.5981    0.0000 Cl  0  0  0  0  0  0  0  0  0  0  0  0
   -5.2500    1.2990    0.0000 C   0  0  0  0  0  0  0  0  0  0  0  0
   -0.7500   -1.2990    0.0000 C   0  0  0  0  0  0  0  0  0  0  0  0
   -1.2135   -2.7256    0.0000 C   0  0  0  0  0  0  0  0  0  0  0  0
   -2.6401   -3.1891    0.0000 C   0  0  0  0  0  0  0  0  0  0  0  0
   -3.7548   -2.1855    0.0000 C   0  0  0  0  0  0  0  0  0  0  0  0
   -5.1814   -2.6490    0.0000 C   0  0  0  0  0  0  0  0  0  0  0  0
   -5.4933   -4.1162    0.0000 C   0  0  0  0  0  0  0  0  0  0  0  0
   -4.3786   -5.1199    0.0000 C   0  0  0  0  0  0  0  0  0  0  0  0
   -2.9520   -4.6564    0.0000 C   0  0  0  0  0  0  0  0  0  0  0  0
  1  2  1  0
  2  3  1  0
  3  4  1  0
  4  5  2  0
  5  6  1  0
  6  7  2  0
  7  8  1  0
  8  9  1  0
  9 10  1  0
 10 11  2  0
 11 12  1  0
 12 13  2  0
 13 14  1  0
 14 15  1  0
 14 16  2  0
  8 17  2  0
 17 18  1  0
 18 19  1  0
 19 20  2  0
 20 21  1  0
 21 22  2  0
 22 23  1  0
 23 24  2  0
 18  2  2  0
 24 19  1  0
 17  4  1  0
 16 10  1  0
M  END
>  <Compound_ID>  (350) 
CHEMBL308593

>  <Active>  (350) 
1.0

>  <Smiles>  (350) 
Cc1[nH]c2ncnc(Nc3cccc(Cl)c3)c2c1-c1ccccc1

>  <canonical_smi>  (350) 
Cc1[nH]c2ncnc(Nc3cccc(Cl)c3)c2c1-c1ccccc1

>  <Set>  (350) 
G2 active

>  <Set_type>  (350) 
Train

>  <MW>  (350) 
334.81

>  <HBD>  (350) 
2

>  <HBA>  (350) 
3

>  <NRB>  (350) 
3

>  <NR>  (350) 
4

>  <NAR>  (350) 
4

>  <PSA>  (350) 
53.6

>  <Standard Type>  (350) 
nan

>  <Standard Relation>  (350) 
nan

>  <Standard Units>  (350) 
nan

>  <Standard Value>  (350) 
nan

>  <Assay ChEMBL ID>  (350) 
nan

>  <Assay Description>  (350) 
nan

>  <BAO Label>  (350) 
nan

$$$$

     RDKit          2D

 26 30  0  0  0  0  0  0  0  0999 V2000
    4.2546   -6.2711    0.0000 C   0  0  0  0  0  0  0  0  0  0  0  0
    5.5537   -5.5211    0.0000 C   0  0  0  0  0  0  0  0  0  0  0  0
    5.2418   -4.0539    0.0000 S   0  0  0  0  0  0  0  0  0  0  0  0
    3.7500   -3.8971    0.0000 C   0  0  0  0  0  0  0  0  0  0  0  0
    3.0000   -2.5981    0.0000 C   0  0  0  0  0  0  0  0  0  0  0  0
    1.5000   -2.5981    0.0000 N   0  0  0  0  0  0  0  0  0  0  0  0
    0.7500   -1.2990    0.0000 C   0  0  0  0  0  0  0  0  0  0  0  0
    1.5000    0.0000    0.0000 N   0  0  0  0  0  0  0  0  0  0  0  0
    0.7500    1.2990    0.0000 C   0  0  0  0  0  0  0  0  0  0  0  0
   -0.7500    1.2990    0.0000 N   0  0  0  0  0  0  0  0  0  0  0  0
   -1.5000    0.0000    0.0000 C   0  0  0  0  0  0  0  0  0  0  0  0
   -3.0000    0.0000    0.0000 C   0  0  0  0  0  0  0  0  0  0  0  0
   -3.7500   -1.2990    0.0000 C   0  0  0  0  0  0  0  0  0  0  0  0
   -3.0000   -2.5981    0.0000 C   0  0  0  0  0  0  0  0  0  0  0  0
   -3.7500   -3.8971    0.0000 C   0  0  0  0  0  0  0  0  0  0  0  0
   -3.0000   -5.1962    0.0000 C   0  0  0  0  0  0  0  0  0  0  0  0
   -3.7500   -6.4952    0.0000 C   0  0  0  0  0  0  0  0  0  0  0  0
   -5.2500   -6.4952    0.0000 C   0  0  0  0  0  0  0  0  0  0  0  0
   -6.0000   -5.1962    0.0000 C   0  0  0  0  0  0  0  0  0  0  0  0
   -5.2500   -3.8971    0.0000 C   0  0  0  0  0  0  0  0  0  0  0  0
   -7.4672   -5.5080    0.0000 O   0  0  0  0  0  0  0  0  0  0  0  0
   -7.6240   -6.9998    0.0000 C   0  0  0  0  0  0  0  0  0  0  0  0
   -6.2537   -7.6099    0.0000 O   0  0  0  0  0  0  0  0  0  0  0  0
   -1.5000   -2.5981    0.0000 C   0  0  0  0  0  0  0  0  0  0  0  0
   -0.7500   -1.2990    0.0000 C   0  0  0  0  0  0  0  0  0  0  0  0
    3.1399   -5.2674    0.0000 C   0  0  0  0  0  0  0  0  0  0  0  0
  1  2  2  0
  2  3  1  0
  3  4  1  0
  4  5  1  0
  5  6  1  0
  6  7  1  0
  7  8  2  0
  8  9  1  0
  9 10  2  0
 10 11  1  0
 11 12  2  0
 12 13  1  0
 13 14  2  0
 14 15  1  0
 15 16  2  0
 16 17  1  0
 17 18  2  0
 18 19  1  0
 19 20  2  0
 19 21  1  0
 21 22  1  0
 22 23  1  0
 14 24  1  0
 24 25  2  0
  4 26  2  0
 26  1  1  0
 25  7  1  0
 25 11  1  0
 20 15  1  0
 23 18  1  0
M  END
>  <Compound_ID>  (351) 
CHEMBL567331

>  <Active>  (351) 
1.0

>  <Smiles>  (351) 
c1csc(CNc2ncnc3ccc(-c4ccc5c(c4)OCO5)cc23)c1

>  <canonical_smi>  (351) 
c1csc(CNc2ncnc3ccc(-c4ccc5c(c4)OCO5)cc23)c1

>  <Set>  (351) 
G2 active

>  <Set_type>  (351) 
Train

>  <MW>  (351) 
361.43

>  <HBD>  (351) 
1

>  <HBA>  (351) 
5

>  <NRB>  (351) 
4

>  <NR>  (351) 
5

>  <NAR>  (351) 
4

>  <PSA>  (351) 
56.27

>  <Standard Type>  (351) 
nan

>  <Standard Relation>  (351) 
nan

>  <Standard Units>  (351) 
nan

>  <Standard Value>  (351) 
nan

>  <Assay ChEMBL ID>  (351) 
nan

>  <Assay Description>  (351) 
nan

>  <BAO Label>  (351) 
nan

$$$$

     RDKit          2D

 38 42  0  0  0  0  0  0  0  0999 V2000
   -3.7500   -6.4952    0.0000 C   0  0  0  0  0  0  0  0  0  0  0  0
   -3.0000   -5.1962    0.0000 O   0  0  0  0  0  0  0  0  0  0  0  0
   -1.5000   -5.1962    0.0000 C   0  0  0  0  0  0  0  0  0  0  0  0
   -0.7500   -3.8971    0.0000 C   0  0  0  0  0  0  0  0  0  0  0  0
    0.7500   -3.8971    0.0000 C   0  0  0  0  0  0  0  0  0  0  0  0
    1.5000   -2.5981    0.0000 N   0  0  0  0  0  0  0  0  0  0  0  0
    0.7500   -1.2990    0.0000 C   0  0  0  0  0  0  0  0  0  0  0  0
    1.5000    0.0000    0.0000 C   0  0  0  0  0  0  0  0  0  0  0  0
    3.0000    0.0000    0.0000 C   0  0  0  0  0  0  0  0  0  0  0  0
    4.5000    0.0000    0.0000 N   0  0  0  0  0  0  0  0  0  0  0  0
    0.7500    1.2990    0.0000 C   0  0  0  0  0  0  0  0  0  0  0  0
   -0.7500    1.2990    0.0000 N   0  0  0  0  0  0  0  0  0  0  0  0
   -1.5000    0.0000    0.0000 C   0  0  0  0  0  0  0  0  0  0  0  0
   -3.0000    0.0000    0.0000 C   0  0  0  0  0  0  0  0  0  0  0  0
   -3.7500   -1.2990    0.0000 C   0  0  0  0  0  0  0  0  0  0  0  0
   -5.2500   -1.2990    0.0000 C   0  0  0  0  0  0  0  0  0  0  0  0
   -6.1317   -2.5126    0.0000 C   0  0  0  0  0  0  0  0  0  0  0  0
   -7.5583   -2.0490    0.0000 O   0  0  0  0  0  0  0  0  0  0  0  0
   -7.5583   -0.5490    0.0000 C   0  0  0  0  0  0  0  0  0  0  0  0
   -8.7718    0.3326    0.0000 C   0  0  0  0  0  0  0  0  0  0  0  0
   -8.6150    1.8244    0.0000 N   0  0  0  0  0  0  0  0  0  0  0  0
   -7.2447    2.4345    0.0000 C   0  0  0  0  0  0  0  0  0  0  0  0
   -7.0879    3.9263    0.0000 C   0  0  0  0  0  0  0  0  0  0  0  0
   -8.3014    4.8080    0.0000 N   0  0  0  0  0  0  0  0  0  0  0  0
   -8.1446    6.2998    0.0000 C   0  0  0  0  0  0  0  0  0  0  0  0
   -9.6717    4.1979    0.0000 C   0  0  0  0  0  0  0  0  0  0  0  0
   -9.8285    2.7061    0.0000 C   0  0  0  0  0  0  0  0  0  0  0  0
   -6.1317   -0.0855    0.0000 C   0  0  0  0  0  0  0  0  0  0  0  0
   -3.0000   -2.5981    0.0000 C   0  0  0  0  0  0  0  0  0  0  0  0
   -3.7500   -3.8971    0.0000 O   0  0  0  0  0  0  0  0  0  0  0  0
   -5.2500   -3.8971    0.0000 C   0  0  0  0  0  0  0  0  0  0  0  0
   -1.5000   -2.5981    0.0000 C   0  0  0  0  0  0  0  0  0  0  0  0
   -0.7500   -1.2990    0.0000 C   0  0  0  0  0  0  0  0  0  0  0  0
    1.5000   -5.1962    0.0000 C   0  0  0  0  0  0  0  0  0  0  0  0
    3.0000   -5.1962    0.0000 Cl  0  0  0  0  0  0  0  0  0  0  0  0
    0.7500   -6.4952    0.0000 C   0  0  0  0  0  0  0  0  0  0  0  0
   -0.7500   -6.4952    0.0000 C   0  0  0  0  0  0  0  0  0  0  0  0
   -1.5000   -7.7942    0.0000 Cl  0  0  0  0  0  0  0  0  0  0  0  0
  1  2  1  0
  2  3  1  0
  3  4  2  0
  4  5  1  0
  5  6  1  0
  6  7  1  0
  7  8  2  0
  8  9  1  0
  9 10  3  0
  8 11  1  0
 11 12  2  0
 12 13  1  0
 13 14  2  0
 14 15  1  0
 15 16  1  0
 16 17  2  0
 17 18  1  0
 18 19  1  0
 19 20  1  0
 20 21  1  0
 21 22  1  0
 22 23  1  0
 23 24  1  0
 24 25  1  0
 24 26  1  0
 26 27  1  0
 19 28  2  0
 15 29  2  0
 29 30  1  0
 30 31  1  0
 29 32  1  0
 32 33  2  0
  5 34  2  0
 34 35  1  0
 34 36  1  0
 36 37  2  0
 37 38  1  0
 37  3  1  0
 33  7  1  0
 33 13  1  0
 28 16  1  0
 27 21  1  0
M  END
>  <Compound_ID>  (352) 
CHEMBL219557

>  <Active>  (352) 
1.0

>  <Smiles>  (352) 
COc1cc(Nc2c(C#N)cnc3cc(-c4coc(CN5CCN(C)CC5)c4)c(OC)cc23)c(Cl)cc1Cl

>  <canonical_smi>  (352) 
COc1cc(Nc2c(C#N)cnc3cc(-c4coc(CN5CCN(C)CC5)c4)c(OC)cc23)c(Cl)cc1Cl

>  <Set>  (352) 
G2 active

>  <Set_type>  (352) 
Train

>  <MW>  (352) 
552.46

>  <HBD>  (352) 
1

>  <HBA>  (352) 
8

>  <NRB>  (352) 
7

>  <NR>  (352) 
5

>  <NAR>  (352) 
4

>  <PSA>  (352) 
86.79

>  <Standard Type>  (352) 
nan

>  <Standard Relation>  (352) 
nan

>  <Standard Units>  (352) 
nan

>  <Standard Value>  (352) 
nan

>  <Assay ChEMBL ID>  (352) 
nan

>  <Assay Description>  (352) 
nan

>  <BAO Label>  (352) 
nan

$$$$

     RDKit          2D

 28 31  0  0  0  0  0  0  0  0999 V2000
    6.0000   -0.0000    0.0000 Br  0  0  0  0  0  0  0  0  0  0  0  0
    5.2500   -1.2990    0.0000 C   0  0  0  0  0  0  0  0  0  0  0  0
    6.0000   -2.5981    0.0000 C   0  0  0  0  0  0  0  0  0  0  0  0
    5.2500   -3.8971    0.0000 C   0  0  0  0  0  0  0  0  0  0  0  0
    3.7500   -3.8971    0.0000 C   0  0  0  0  0  0  0  0  0  0  0  0
    3.0000   -2.5981    0.0000 C   0  0  0  0  0  0  0  0  0  0  0  0
    1.5000   -2.5981    0.0000 N   0  0  0  0  0  0  0  0  0  0  0  0
    0.7500   -1.2990    0.0000 C   0  0  0  0  0  0  0  0  0  0  0  0
    1.5000    0.0000    0.0000 N   0  0  0  0  0  0  0  0  0  0  0  0
    0.7500    1.2990    0.0000 C   0  0  0  0  0  0  0  0  0  0  0  0
   -0.7500    1.2990    0.0000 N   0  0  0  0  0  0  0  0  0  0  0  0
   -1.5000    0.0000    0.0000 C   0  0  0  0  0  0  0  0  0  0  0  0
   -3.0000    0.0000    0.0000 C   0  0  0  0  0  0  0  0  0  0  0  0
   -3.7500   -1.2990    0.0000 C   0  0  0  0  0  0  0  0  0  0  0  0
   -3.0000   -2.5981    0.0000 C   0  0  0  0  0  0  0  0  0  0  0  0
   -3.7500   -3.8971    0.0000 N   0  0  0  0  0  0  0  0  0  0  0  0
   -5.2500   -3.8971    0.0000 N   0  0  0  0  0  0  0  0  0  0  0  0
   -6.0000   -5.1962    0.0000 N   0  0  0  0  0  0  0  0  0  0  0  0
   -7.5000   -5.1962    0.0000 C   0  0  0  0  0  0  0  0  0  0  0  0
   -8.2500   -6.4952    0.0000 C   0  0  0  0  0  0  0  0  0  0  0  0
   -9.7500   -6.4952    0.0000 C   0  0  0  0  0  0  0  0  0  0  0  0
  -10.5000   -7.7942    0.0000 C   0  0  0  0  0  0  0  0  0  0  0  0
   -9.7500   -9.0933    0.0000 C   0  0  0  0  0  0  0  0  0  0  0  0
   -8.2500   -9.0933    0.0000 C   0  0  0  0  0  0  0  0  0  0  0  0
   -7.5000   -7.7942    0.0000 N   0  0  0  0  0  0  0  0  0  0  0  0
   -1.5000   -2.5981    0.0000 C   0  0  0  0  0  0  0  0  0  0  0  0
   -0.7500   -1.2990    0.0000 C   0  0  0  0  0  0  0  0  0  0  0  0
    3.7500   -1.2990    0.0000 C   0  0  0  0  0  0  0  0  0  0  0  0
  1  2  1  0
  2  3  2  0
  3  4  1  0
  4  5  2  0
  5  6  1  0
  6  7  1  0
  7  8  1  0
  8  9  2  0
  9 10  1  0
 10 11  2  0
 11 12  1  0
 12 13  2  0
 13 14  1  0
 14 15  2  0
 15 16  1  0
 16 17  1  0
 17 18  2  3
 18 19  1  0
 19 20  1  0
 20 21  2  0
 21 22  1  0
 22 23  2  0
 23 24  1  0
 24 25  2  0
 15 26  1  0
 26 27  2  0
  6 28  2  0
 28  2  1  0
 27  8  1  0
 27 12  1  0
 25 20  1  0
M  END
>  <Compound_ID>  (353) 
CHEMBL138125

>  <Active>  (353) 
1.0

>  <Smiles>  (353) 
Brc1cccc(Nc2ncnc3ccc(NN=NCc4ccccn4)cc23)c1

>  <canonical_smi>  (353) 
Brc1cccc(Nc2ncnc3ccc(NN=NCc4ccccn4)cc23)c1

>  <Set>  (353) 
G2 active

>  <Set_type>  (353) 
Train

>  <MW>  (353) 
434.3

>  <HBD>  (353) 
2

>  <HBA>  (353) 
5

>  <NRB>  (353) 
6

>  <NR>  (353) 
4

>  <NAR>  (353) 
4

>  <PSA>  (353) 
87.45

>  <Standard Type>  (353) 
nan

>  <Standard Relation>  (353) 
nan

>  <Standard Units>  (353) 
nan

>  <Standard Value>  (353) 
nan

>  <Assay ChEMBL ID>  (353) 
nan

>  <Assay Description>  (353) 
nan

>  <BAO Label>  (353) 
nan

$$$$

     RDKit          2D

 36 38  0  0  0  0  0  0  0  0999 V2000
   10.5000   -5.1962    0.0000 C   0  0  0  0  0  0  0  0  0  0  0  0
    9.7500   -3.8971    0.0000 C   0  0  0  0  0  0  0  0  0  0  0  0
    8.2500   -3.8971    0.0000 N   0  0  0  0  0  0  0  0  0  0  0  0
    7.5000   -5.1962    0.0000 C   0  0  0  0  0  0  0  0  0  0  0  0
    8.2500   -6.4952    0.0000 C   0  0  0  0  0  0  0  0  0  0  0  0
    7.5000   -2.5981    0.0000 C   0  0  0  0  0  0  0  0  0  0  0  0
    6.0000   -2.5981    0.0000 C   0  0  0  0  0  0  0  0  0  0  0  0
    5.2500   -1.2990    0.0000 C   0  0  0  0  0  0  0  0  0  0  0  0
    3.7500   -1.2990    0.0000 C   0  0  0  0  0  0  0  0  0  0  0  0
    3.0000    0.0000    0.0000 N   0  0  0  0  0  0  0  0  0  0  0  0
    1.5000    0.0000    0.0000 C   0  0  0  0  0  0  0  0  0  0  0  0
    0.7500   -1.2990    0.0000 N   0  0  0  0  0  0  0  0  0  0  0  0
   -0.7500   -1.2990    0.0000 C   0  0  0  0  0  0  0  0  0  0  0  0
   -1.5000    0.0000    0.0000 C   0  0  0  0  0  0  0  0  0  0  0  0
   -3.0000    0.0000    0.0000 C   0  0  0  0  0  0  0  0  0  0  0  0
   -3.7500    1.2990    0.0000 C   0  0  0  0  0  0  0  0  0  0  0  0
   -5.2500    1.2990    0.0000 C   0  0  0  0  0  0  0  0  0  0  0  0
   -6.0000    2.5981    0.0000 C   0  0  0  0  0  0  0  0  0  0  0  0
   -5.2500    3.8971    0.0000 Cl  0  0  0  0  0  0  0  0  0  0  0  0
   -7.5000    2.5981    0.0000 C   0  0  0  0  0  0  0  0  0  0  0  0
   -8.2500    1.2990    0.0000 C   0  0  0  0  0  0  0  0  0  0  0  0
   -7.5000    0.0000    0.0000 C   0  0  0  0  0  0  0  0  0  0  0  0
   -6.0000    0.0000    0.0000 C   0  0  0  0  0  0  0  0  0  0  0  0
   -5.2500   -1.2990    0.0000 Cl  0  0  0  0  0  0  0  0  0  0  0  0
   -3.0000    2.5981    0.0000 C   0  0  0  0  0  0  0  0  0  0  0  0
   -3.7500    3.8971    0.0000 N   0  0  0  0  0  0  0  0  0  0  0  0
   -3.0000    5.1962    0.0000 C   0  0  0  0  0  0  0  0  0  0  0  0
   -1.5000    5.1962    0.0000 O   0  0  0  0  0  0  0  0  0  0  0  0
   -3.7500    6.4952    0.0000 N   0  0  0  0  0  0  0  0  0  0  0  0
   -3.0000    7.7942    0.0000 C   0  0  0  0  0  0  0  0  0  0  0  0
   -4.2990    8.5442    0.0000 C   0  0  0  0  0  0  0  0  0  0  0  0
   -1.7010    7.0442    0.0000 C   0  0  0  0  0  0  0  0  0  0  0  0
   -2.2500    9.0933    0.0000 C   0  0  0  0  0  0  0  0  0  0  0  0
   -1.5000    2.5981    0.0000 N   0  0  0  0  0  0  0  0  0  0  0  0
   -0.7500    1.2990    0.0000 C   0  0  0  0  0  0  0  0  0  0  0  0
    0.7500    1.2990    0.0000 N   0  0  0  0  0  0  0  0  0  0  0  0
  1  2  1  0
  2  3  1  0
  3  4  1  0
  4  5  1  0
  3  6  1  0
  6  7  1  0
  7  8  1  0
  8  9  1  0
  9 10  1  0
 10 11  1  0
 11 12  2  0
 12 13  1  0
 13 14  2  0
 14 15  1  0
 15 16  2  0
 16 17  1  0
 17 18  2  0
 18 19  1  0
 18 20  1  0
 20 21  2  0
 21 22  1  0
 22 23  2  0
 23 24  1  0
 16 25  1  0
 25 26  1  0
 26 27  1  0
 27 28  2  0
 27 29  1  0
 29 30  1  0
 30 31  1  0
 30 32  1  0
 30 33  1  0
 25 34  2  0
 34 35  1  0
 35 36  2  0
 36 11  1  0
 35 14  1  0
 23 17  1  0
M  END
>  <Compound_ID>  (354) 
CHEMBL45827

>  <Active>  (354) 
1.0

>  <Smiles>  (354) 
CCN(CC)CCCCNc1ncc2cc(-c3c(Cl)cccc3Cl)c(NC(=O)NC(C)(C)C)nc2n1

>  <canonical_smi>  (354) 
CCN(CC)CCCCNc1ncc2cc(-c3c(Cl)cccc3Cl)c(NC(=O)NC(C)(C)C)nc2n1

>  <Set>  (354) 
G2 active

>  <Set_type>  (354) 
Train

>  <MW>  (354) 
532.52

>  <HBD>  (354) 
3

>  <HBA>  (354) 
6

>  <NRB>  (354) 
10

>  <NR>  (354) 
3

>  <NAR>  (354) 
3

>  <PSA>  (354) 
95.07

>  <Standard Type>  (354) 
nan

>  <Standard Relation>  (354) 
nan

>  <Standard Units>  (354) 
nan

>  <Standard Value>  (354) 
nan

>  <Assay ChEMBL ID>  (354) 
nan

>  <Assay Description>  (354) 
nan

>  <BAO Label>  (354) 
nan

$$$$

     RDKit          2D

 39 44  0  0  0  0  0  0  0  0999 V2000
   -0.4702  -13.1562    0.0000 O   0  0  0  0  0  0  0  0  0  0  0  0
    1.0216  -12.9994    0.0000 C   0  0  0  0  0  0  0  0  0  0  0  0
    1.6317  -11.6291    0.0000 O   0  0  0  0  0  0  0  0  0  0  0  0
    0.7500  -10.4156    0.0000 C   0  0  0  0  0  0  0  0  0  0  0  0
   -0.7500  -10.4156    0.0000 C   0  0  0  0  0  0  0  0  0  0  0  0
   -1.2135   -8.9890    0.0000 N   0  0  0  0  0  0  0  0  0  0  0  0
    0.0000   -8.1073    0.0000 C   0  0  0  0  0  0  0  0  0  0  0  0
   -0.0000   -6.6073    0.0000 C   0  0  0  0  0  0  0  0  0  0  0  0
   -0.0000   -5.1073    0.0000 C   0  0  0  0  0  0  0  0  0  0  0  0
   -0.0000   -3.6073    0.0000 C   0  0  0  0  0  0  0  0  0  0  0  0
    1.2135   -2.7256    0.0000 C   0  0  0  0  0  0  0  0  0  0  0  0
    0.7500   -1.2990    0.0000 C   0  0  0  0  0  0  0  0  0  0  0  0
    1.5000    0.0000    0.0000 N   0  0  0  0  0  0  0  0  0  0  0  0
    0.7500    1.2990    0.0000 C   0  0  0  0  0  0  0  0  0  0  0  0
   -0.7500    1.2990    0.0000 N   0  0  0  0  0  0  0  0  0  0  0  0
   -1.5000    0.0000    0.0000 C   0  0  0  0  0  0  0  0  0  0  0  0
   -3.0000    0.0000    0.0000 N   0  0  0  0  0  0  0  0  0  0  0  0
   -3.7500    1.2990    0.0000 C   0  0  0  0  0  0  0  0  0  0  0  0
   -3.0000    2.5981    0.0000 C   0  0  0  0  0  0  0  0  0  0  0  0
   -3.7500    3.8971    0.0000 C   0  0  0  0  0  0  0  0  0  0  0  0
   -5.2500    3.8971    0.0000 C   0  0  0  0  0  0  0  0  0  0  0  0
   -6.0000    5.1962    0.0000 C   0  0  0  0  0  0  0  0  0  0  0  0
   -5.2500    6.4952    0.0000 C   0  0  0  0  0  0  0  0  0  0  0  0
   -3.7500    6.4952    0.0000 C   0  0  0  0  0  0  0  0  0  0  0  0
   -3.0000    7.7942    0.0000 C   0  0  0  0  0  0  0  0  0  0  0  0
   -3.7500    9.0933    0.0000 C   0  0  0  0  0  0  0  0  0  0  0  0
   -5.2500    9.0933    0.0000 C   0  0  0  0  0  0  0  0  0  0  0  0
   -6.0000    7.7942    0.0000 C   0  0  0  0  0  0  0  0  0  0  0  0
   -6.0000    2.5981    0.0000 C   0  0  0  0  0  0  0  0  0  0  0  0
   -5.2500    1.2990    0.0000 C   0  0  0  0  0  0  0  0  0  0  0  0
   -0.7500   -1.2990    0.0000 C   0  0  0  0  0  0  0  0  0  0  0  0
   -1.2135   -2.7256    0.0000 S   0  0  0  0  0  0  0  0  0  0  0  0
    1.2135   -8.9890    0.0000 C   0  0  0  0  0  0  0  0  0  0  0  0
    1.9033  -14.2129    0.0000 N   0  0  0  0  0  0  0  0  0  0  0  0
    1.2931  -15.5833    0.0000 C   0  0  0  0  0  0  0  0  0  0  0  0
    2.1748  -16.7968    0.0000 C   0  0  0  0  0  0  0  0  0  0  0  0
    3.6666  -16.6400    0.0000 O   0  0  0  0  0  0  0  0  0  0  0  0
    4.2767  -15.2697    0.0000 C   0  0  0  0  0  0  0  0  0  0  0  0
    3.3950  -14.0561    0.0000 C   0  0  0  0  0  0  0  0  0  0  0  0
  1  2  2  0
  2  3  1  0
  4  3  1  1
  4  5  1  0
  5  6  1  0
  6  7  1  0
  7  8  1  6
  8  9  3  0
  9 10  1  0
 10 11  2  0
 11 12  1  0
 12 13  2  0
 13 14  1  0
 14 15  2  0
 15 16  1  0
 16 17  1  0
 17 18  1  0
 18 19  2  0
 19 20  1  0
 20 21  2  0
 21 22  1  0
 22 23  1  0
 23 24  2  0
 24 25  1  0
 25 26  2  0
 26 27  1  0
 27 28  2  0
 21 29  1  0
 29 30  2  0
 16 31  2  0
 31 32  1  0
  7 33  1  0
  2 34  1  0
 34 35  1  0
 35 36  1  0
 36 37  1  0
 37 38  1  0
 38 39  1  0
 33  4  1  0
 39 34  1  0
 32 10  1  0
 31 12  1  0
 30 18  1  0
 28 23  1  0
M  END
>  <Compound_ID>  (355) 
CHEMBL455434

>  <Active>  (355) 
1.0

>  <Smiles>  (355) 
O=C(O[C@H]1CN[C@H](C#Cc2cc3ncnc(Nc4ccc(Cc5ccccc5)cc4)c3s2)C1)N1CCOCC1

>  <canonical_smi>  (355) 
O=C(O[C@H]1CN[C@H](C#Cc2cc3ncnc(Nc4ccc(Cc5ccccc5)cc4)c3s2)C1)N1CCOCC1

>  <Set>  (355) 
G2 active

>  <Set_type>  (355) 
Train

>  <MW>  (355) 
539.66

>  <HBD>  (355) 
2

>  <HBA>  (355) 
7

>  <NRB>  (355) 
5

>  <NR>  (355) 
6

>  <NAR>  (355) 
4

>  <PSA>  (355) 
88.61

>  <Standard Type>  (355) 
nan

>  <Standard Relation>  (355) 
nan

>  <Standard Units>  (355) 
nan

>  <Standard Value>  (355) 
nan

>  <Assay ChEMBL ID>  (355) 
nan

>  <Assay Description>  (355) 
nan

>  <BAO Label>  (355) 
nan

$$$$

     RDKit          2D

 32 35  0  0  0  0  0  0  0  0999 V2000
   -3.0000   -7.7942    0.0000 C   0  0  0  0  0  0  0  0  0  0  0  0
   -3.7500   -6.4952    0.0000 C   0  0  0  0  0  0  0  0  0  0  0  0
   -3.0000   -5.1962    0.0000 C   0  0  0  0  0  0  0  0  0  0  0  0
   -1.5000   -5.1962    0.0000 O   0  0  0  0  0  0  0  0  0  0  0  0
   -3.7500   -3.8971    0.0000 N   0  0  0  0  0  0  0  0  0  0  0  0
   -3.0000   -2.5981    0.0000 C   0  0  0  0  0  0  0  0  0  0  0  0
   -1.5000   -2.5981    0.0000 C   0  0  0  0  0  0  0  0  0  0  0  0
   -0.7500   -1.2990    0.0000 C   0  0  0  0  0  0  0  0  0  0  0  0
    0.7500   -1.2990    0.0000 C   0  0  0  0  0  0  0  0  0  0  0  0
    1.5000   -2.5981    0.0000 N   0  0  0  0  0  0  0  0  0  0  0  0
    3.0000   -2.5981    0.0000 C   0  0  0  0  0  0  0  0  0  0  0  0
    3.7500   -3.8971    0.0000 C   0  0  0  0  0  0  0  0  0  0  0  0
    5.2500   -3.8971    0.0000 C   0  0  0  0  0  0  0  0  0  0  0  0
    6.0000   -5.1962    0.0000 Cl  0  0  0  0  0  0  0  0  0  0  0  0
    6.0000   -2.5981    0.0000 C   0  0  0  0  0  0  0  0  0  0  0  0
    7.5000   -2.5981    0.0000 Cl  0  0  0  0  0  0  0  0  0  0  0  0
    5.2500   -1.2990    0.0000 C   0  0  0  0  0  0  0  0  0  0  0  0
    3.7500   -1.2990    0.0000 C   0  0  0  0  0  0  0  0  0  0  0  0
    3.0000   -0.0000    0.0000 F   0  0  0  0  0  0  0  0  0  0  0  0
    1.5000    0.0000    0.0000 N   0  0  0  0  0  0  0  0  0  0  0  0
    0.7500    1.2990    0.0000 C   0  0  0  0  0  0  0  0  0  0  0  0
   -0.7500    1.2990    0.0000 N   0  0  0  0  0  0  0  0  0  0  0  0
   -1.5000    0.0000    0.0000 C   0  0  0  0  0  0  0  0  0  0  0  0
   -3.0000    0.0000    0.0000 C   0  0  0  0  0  0  0  0  0  0  0  0
   -3.7500   -1.2990    0.0000 C   0  0  0  0  0  0  0  0  0  0  0  0
   -5.2500   -1.2990    0.0000 N   0  0  0  0  0  0  0  0  0  0  0  0
   -6.0000    0.0000    0.0000 C   0  0  0  0  0  0  0  0  0  0  0  0
   -7.5000    0.0000    0.0000 C   0  0  0  0  0  0  0  0  0  0  0  0
   -8.2500   -1.2990    0.0000 N   0  0  0  0  0  0  0  0  0  0  0  0
   -9.7500   -1.2990    0.0000 C   0  0  0  0  0  0  0  0  0  0  0  0
   -7.5000   -2.5981    0.0000 C   0  0  0  0  0  0  0  0  0  0  0  0
   -6.0000   -2.5981    0.0000 C   0  0  0  0  0  0  0  0  0  0  0  0
  1  2  2  0
  2  3  1  0
  3  4  2  0
  3  5  1  0
  5  6  1  0
  6  7  2  0
  7  8  1  0
  8  9  2  0
  9 10  1  0
 10 11  1  0
 11 12  2  0
 12 13  1  0
 13 14  1  0
 13 15  2  0
 15 16  1  0
 15 17  1  0
 17 18  2  0
 18 19  1  0
  9 20  1  0
 20 21  2  0
 21 22  1  0
 22 23  2  0
 23 24  1  0
 24 25  2  0
 25 26  1  0
 26 27  1  0
 27 28  1  0
 28 29  1  0
 29 30  1  0
 29 31  1  0
 31 32  1  0
 25  6  1  0
 32 26  1  0
 23  8  1  0
 18 11  1  0
M  END
>  <Compound_ID>  (356) 
CHEMBL372246

>  <Active>  (356) 
1.0

>  <Smiles>  (356) 
C=CC(=O)Nc1cc2c(Nc3cc(Cl)c(Cl)cc3F)ncnc2cc1N1CCN(C)CC1

>  <canonical_smi>  (356) 
C=CC(=O)Nc1cc2c(Nc3cc(Cl)c(Cl)cc3F)ncnc2cc1N1CCN(C)CC1

>  <Set>  (356) 
G2 active

>  <Set_type>  (356) 
Train

>  <MW>  (356) 
475.36

>  <HBD>  (356) 
2

>  <HBA>  (356) 
6

>  <NRB>  (356) 
5

>  <NR>  (356) 
4

>  <NAR>  (356) 
3

>  <PSA>  (356) 
73.39

>  <Standard Type>  (356) 
nan

>  <Standard Relation>  (356) 
nan

>  <Standard Units>  (356) 
nan

>  <Standard Value>  (356) 
nan

>  <Assay ChEMBL ID>  (356) 
nan

>  <Assay Description>  (356) 
nan

>  <BAO Label>  (356) 
nan

$$$$

     RDKit          2D

 27 30  0  0  0  0  0  0  0  0999 V2000
   -2.6401   -3.1891    0.0000 C   0  0  0  0  0  0  0  0  0  0  0  0
   -1.2135   -2.7256    0.0000 C   0  0  0  0  0  0  0  0  0  0  0  0
   -0.0000   -3.6073    0.0000 C   0  0  0  0  0  0  0  0  0  0  0  0
    1.2135   -2.7256    0.0000 C   0  0  0  0  0  0  0  0  0  0  0  0
    0.7500   -1.2990    0.0000 N   0  0  0  0  0  0  0  0  0  0  0  0
    1.5000    0.0000    0.0000 N   0  0  0  0  0  0  0  0  0  0  0  0
    0.7500    1.2990    0.0000 C   0  0  0  0  0  0  0  0  0  0  0  0
   -0.7500    1.2990    0.0000 N   0  0  0  0  0  0  0  0  0  0  0  0
   -1.5000    0.0000    0.0000 C   0  0  0  0  0  0  0  0  0  0  0  0
   -3.0000    0.0000    0.0000 N   0  0  0  0  0  0  0  0  0  0  0  0
   -3.7500    1.2990    0.0000 C   0  0  0  0  0  0  0  0  0  0  0  0
   -3.0000    2.5981    0.0000 C   0  0  0  0  0  0  0  0  0  0  0  0
   -3.7500    3.8971    0.0000 C   0  0  0  0  0  0  0  0  0  0  0  0
   -5.2500    3.8971    0.0000 C   0  0  0  0  0  0  0  0  0  0  0  0
   -6.0000    5.1962    0.0000 O   0  0  0  0  0  0  0  0  0  0  0  0
   -5.2500    6.4952    0.0000 C   0  0  0  0  0  0  0  0  0  0  0  0
   -6.0000    7.7942    0.0000 C   0  0  0  0  0  0  0  0  0  0  0  0
   -5.2500    9.0933    0.0000 C   0  0  0  0  0  0  0  0  0  0  0  0
   -6.0000   10.3923    0.0000 C   0  0  0  0  0  0  0  0  0  0  0  0
   -7.5000   10.3923    0.0000 C   0  0  0  0  0  0  0  0  0  0  0  0
   -8.2500    9.0933    0.0000 C   0  0  0  0  0  0  0  0  0  0  0  0
   -9.7500    9.0933    0.0000 F   0  0  0  0  0  0  0  0  0  0  0  0
   -7.5000    7.7942    0.0000 C   0  0  0  0  0  0  0  0  0  0  0  0
   -6.0000    2.5981    0.0000 C   0  0  0  0  0  0  0  0  0  0  0  0
   -7.5000    2.5981    0.0000 Cl  0  0  0  0  0  0  0  0  0  0  0  0
   -5.2500    1.2990    0.0000 C   0  0  0  0  0  0  0  0  0  0  0  0
   -0.7500   -1.2990    0.0000 C   0  0  0  0  0  0  0  0  0  0  0  0
  1  2  1  0
  2  3  1  0
  3  4  2  0
  4  5  1  0
  5  6  1  0
  6  7  2  0
  7  8  1  0
  8  9  2  0
  9 10  1  0
 10 11  1  0
 11 12  2  0
 12 13  1  0
 13 14  2  0
 14 15  1  0
 15 16  1  0
 16 17  1  0
 17 18  2  0
 18 19  1  0
 19 20  2  0
 20 21  1  0
 21 22  1  0
 21 23  2  0
 14 24  1  0
 24 25  1  0
 24 26  2  0
  9 27  1  0
 27  2  2  0
 27  5  1  0
 26 11  1  0
 23 17  1  0
M  END
>  <Compound_ID>  (357) 
CHEMBL247101

>  <Active>  (357) 
1.0

>  <Smiles>  (357) 
Cc1ccn2ncnc(Nc3ccc(OCc4cccc(F)c4)c(Cl)c3)c12

>  <canonical_smi>  (357) 
Cc1ccn2ncnc(Nc3ccc(OCc4cccc(F)c4)c(Cl)c3)c12

>  <Set>  (357) 
G2 active

>  <Set_type>  (357) 
Train

>  <MW>  (357) 
382.83

>  <HBD>  (357) 
1

>  <HBA>  (357) 
4

>  <NRB>  (357) 
5

>  <NR>  (357) 
4

>  <NAR>  (357) 
4

>  <PSA>  (357) 
51.45

>  <Standard Type>  (357) 
nan

>  <Standard Relation>  (357) 
nan

>  <Standard Units>  (357) 
nan

>  <Standard Value>  (357) 
nan

>  <Assay ChEMBL ID>  (357) 
nan

>  <Assay Description>  (357) 
nan

>  <BAO Label>  (357) 
nan

$$$$

     RDKit          2D

 42 46  0  0  0  0  0  0  0  0999 V2000
    5.2500   -1.2990    0.0000 C   0  0  0  0  0  0  0  0  0  0  0  0
    3.7500   -1.2990    0.0000 C   0  0  0  0  0  0  0  0  0  0  0  0
    3.0000    0.0000    0.0000 O   0  0  0  0  0  0  0  0  0  0  0  0
    1.5000    0.0000    0.0000 C   0  0  0  0  0  0  0  0  0  0  0  0
    0.7500   -1.2990    0.0000 C   0  0  0  0  0  0  0  0  0  0  0  0
   -0.7500   -1.2990    0.0000 C   0  0  0  0  0  0  0  0  0  0  0  0
   -1.5000   -2.5981    0.0000 N   0  0  0  0  0  0  0  0  0  0  0  0
   -3.0000   -2.5981    0.0000 C   0  0  0  0  0  0  0  0  0  0  0  0
   -3.7500   -1.2990    0.0000 C   0  0  0  0  0  0  0  0  0  0  0  0
   -5.2500   -1.2990    0.0000 C   0  0  0  0  0  0  0  0  0  0  0  0
   -6.7500   -1.2990    0.0000 N   0  0  0  0  0  0  0  0  0  0  0  0
   -3.0000    0.0000    0.0000 C   0  0  0  0  0  0  0  0  0  0  0  0
   -3.7500    1.2990    0.0000 N   0  0  0  0  0  0  0  0  0  0  0  0
   -3.0000    2.5981    0.0000 C   0  0  0  0  0  0  0  0  0  0  0  0
   -1.5000    2.5981    0.0000 C   0  0  0  0  0  0  0  0  0  0  0  0
   -0.7500    3.8971    0.0000 C   0  0  0  0  0  0  0  0  0  0  0  0
   -1.5000    5.1962    0.0000 C   0  0  0  0  0  0  0  0  0  0  0  0
   -0.7500    6.4952    0.0000 O   0  0  0  0  0  0  0  0  0  0  0  0
    0.7500    6.4952    0.0000 C   0  0  0  0  0  0  0  0  0  0  0  0
    1.5000    7.7942    0.0000 C   0  0  0  0  0  0  0  0  0  0  0  0
    3.0000    7.7942    0.0000 C   0  0  0  0  0  0  0  0  0  0  0  0
    3.7500    9.0933    0.0000 C   0  0  0  0  0  0  0  0  0  0  0  0
    3.0000   10.3923    0.0000 C   0  0  0  0  0  0  0  0  0  0  0  0
    1.5000   10.3923    0.0000 C   0  0  0  0  0  0  0  0  0  0  0  0
    0.7500    9.0933    0.0000 C   0  0  0  0  0  0  0  0  0  0  0  0
   -3.0000    5.1962    0.0000 C   0  0  0  0  0  0  0  0  0  0  0  0
   -3.7500    6.4952    0.0000 Cl  0  0  0  0  0  0  0  0  0  0  0  0
   -3.7500    3.8971    0.0000 C   0  0  0  0  0  0  0  0  0  0  0  0
   -1.5000    0.0000    0.0000 C   0  0  0  0  0  0  0  0  0  0  0  0
   -0.7500    1.2990    0.0000 C   0  0  0  0  0  0  0  0  0  0  0  0
    0.7500    1.2990    0.0000 C   0  0  0  0  0  0  0  0  0  0  0  0
    1.5000    2.5981    0.0000 N   0  0  0  0  0  0  0  0  0  0  0  0
    3.0000    2.5981    0.0000 C   0  0  0  0  0  0  0  0  0  0  0  0
    3.7500    1.2990    0.0000 O   0  0  0  0  0  0  0  0  0  0  0  0
    3.7500    3.8971    0.0000 C   0  0  0  0  0  0  0  0  0  0  0  0
    5.2500    3.8971    0.0000 C   0  0  0  0  0  0  0  0  0  0  0  0
    6.0000    5.1962    0.0000 C   0  0  0  0  0  0  0  0  0  0  0  0
    5.3899    6.5665    0.0000 C   0  0  0  0  0  0  0  0  0  0  0  0
    6.5046    7.5702    0.0000 N   0  0  0  0  0  0  0  0  0  0  0  0
    6.3478    9.0619    0.0000 C   0  0  0  0  0  0  0  0  0  0  0  0
    7.8037    6.8202    0.0000 C   0  0  0  0  0  0  0  0  0  0  0  0
    7.4918    5.3529    0.0000 N   0  0  0  0  0  0  0  0  0  0  0  0
  1  2  1  0
  2  3  1  0
  3  4  1  0
  4  5  2  0
  5  6  1  0
  6  7  2  0
  7  8  1  0
  8  9  2  0
  9 10  1  0
 10 11  3  0
  9 12  1  0
 12 13  1  0
 13 14  1  0
 14 15  2  0
 15 16  1  0
 16 17  2  0
 17 18  1  0
 18 19  1  0
 19 20  1  0
 20 21  2  0
 21 22  1  0
 22 23  2  0
 23 24  1  0
 24 25  2  0
 17 26  1  0
 26 27  1  0
 26 28  2  0
 12 29  2  0
 29 30  1  0
 30 31  2  0
 31 32  1  0
 32 33  1  0
 33 34  2  0
 33 35  1  0
 35 36  2  0
 36 37  1  0
 37 38  2  0
 38 39  1  0
 39 40  1  0
 39 41  1  0
 41 42  2  0
 31  4  1  0
 42 37  1  0
 29  6  1  0
 28 14  1  0
 25 20  1  0
M  END
>  <Compound_ID>  (358) 
CHEMBL368234

>  <Active>  (358) 
1.0

>  <Smiles>  (358) 
CCOc1cc2ncc(C#N)c(Nc3ccc(OCc4ccccc4)c(Cl)c3)c2cc1NC(=O)/C=C/c1cn(C)cn1

>  <canonical_smi>  (358) 
CCOc1cc2ncc(C#N)c(Nc3ccc(OCc4ccccc4)c(Cl)c3)c2cc1NC(=O)/C=C/c1cn(C)cn1

>  <Set>  (358) 
G2 active

>  <Set_type>  (358) 
Train

>  <MW>  (358) 
579.06

>  <HBD>  (358) 
2

>  <HBA>  (358) 
7

>  <NRB>  (358) 
10

>  <NR>  (358) 
5

>  <NAR>  (358) 
5

>  <PSA>  (358) 
114.09

>  <Standard Type>  (358) 
nan

>  <Standard Relation>  (358) 
nan

>  <Standard Units>  (358) 
nan

>  <Standard Value>  (358) 
nan

>  <Assay ChEMBL ID>  (358) 
nan

>  <Assay Description>  (358) 
nan

>  <BAO Label>  (358) 
nan

$$$$

     RDKit          2D

 21 24  0  0  0  0  0  0  0  0999 V2000
   -7.7206    6.7722    0.0000 Br  0  0  0  0  0  0  0  0  0  0  0  0
   -6.2940    7.2357    0.0000 C   0  0  0  0  0  0  0  0  0  0  0  0
   -5.9821    8.7029    0.0000 C   0  0  0  0  0  0  0  0  0  0  0  0
   -4.5556    9.1664    0.0000 C   0  0  0  0  0  0  0  0  0  0  0  0
   -3.4408    8.1628    0.0000 C   0  0  0  0  0  0  0  0  0  0  0  0
   -3.7527    6.6955    0.0000 C   0  0  0  0  0  0  0  0  0  0  0  0
   -2.6380    5.6918    0.0000 N   0  0  0  0  0  0  0  0  0  0  0  0
   -2.9499    4.2246    0.0000 C   0  0  0  0  0  0  0  0  0  0  0  0
   -4.3764    3.7611    0.0000 N   0  0  0  0  0  0  0  0  0  0  0  0
   -4.6883    2.2939    0.0000 C   0  0  0  0  0  0  0  0  0  0  0  0
   -3.5736    1.2902    0.0000 N   0  0  0  0  0  0  0  0  0  0  0  0
   -2.1470    1.7537    0.0000 C   0  0  0  0  0  0  0  0  0  0  0  0
   -1.8351    3.2209    0.0000 C   0  0  0  0  0  0  0  0  0  0  0  0
   -0.4086    3.6844    0.0000 C   0  0  0  0  0  0  0  0  0  0  0  0
    0.7062    2.6807    0.0000 C   0  0  0  0  0  0  0  0  0  0  0  0
    0.3943    1.2135    0.0000 C   0  0  0  0  0  0  0  0  0  0  0  0
    1.2760    0.0000    0.0000 N   0  0  0  0  0  0  0  0  0  0  0  0
    0.3943   -1.2135    0.0000 C   0  0  0  0  0  0  0  0  0  0  0  0
   -1.0323   -0.7500    0.0000 N   0  0  0  0  0  0  0  0  0  0  0  0
   -1.0323    0.7500    0.0000 C   0  0  0  0  0  0  0  0  0  0  0  0
   -5.1793    6.2320    0.0000 C   0  0  0  0  0  0  0  0  0  0  0  0
  1  2  1  0
  2  3  2  0
  3  4  1  0
  4  5  2  0
  5  6  1  0
  6  7  1  0
  7  8  1  0
  8  9  2  0
  9 10  1  0
 10 11  2  0
 11 12  1  0
 12 13  2  0
 13 14  1  0
 14 15  2  0
 15 16  1  0
 16 17  1  0
 17 18  1  0
 18 19  2  0
 19 20  1  0
  6 21  2  0
 21  2  1  0
 13  8  1  0
 20 16  2  0
 20 12  1  0
M  END
>  <Compound_ID>  (359) 
CHEMBL155100

>  <Active>  (359) 
1.0

>  <Smiles>  (359) 
Brc1cccc(Nc2ncnc3c2ccc2[nH]cnc23)c1

>  <canonical_smi>  (359) 
Brc1cccc(Nc2ncnc3c2ccc2[nH]cnc23)c1

>  <Set>  (359) 
G2 active

>  <Set_type>  (359) 
Train

>  <MW>  (359) 
340.18

>  <HBD>  (359) 
2

>  <HBA>  (359) 
4

>  <NRB>  (359) 
2

>  <NR>  (359) 
4

>  <NAR>  (359) 
4

>  <PSA>  (359) 
66.49

>  <Standard Type>  (359) 
nan

>  <Standard Relation>  (359) 
nan

>  <Standard Units>  (359) 
nan

>  <Standard Value>  (359) 
nan

>  <Assay ChEMBL ID>  (359) 
nan

>  <Assay Description>  (359) 
nan

>  <BAO Label>  (359) 
nan

$$$$

     RDKit          2D

 31 34  0  0  0  0  0  0  0  0999 V2000
   -6.4952   -5.8573    0.0000 O   0  0  0  0  0  0  0  0  0  0  0  0
   -6.4952   -7.3573    0.0000 C   0  0  0  0  0  0  0  0  0  0  0  0
   -5.1962   -8.1073    0.0000 N   0  0  0  0  0  0  0  0  0  0  0  0
   -3.8971   -7.3573    0.0000 C   0  0  0  0  0  0  0  0  0  0  0  0
   -3.8971   -5.8573    0.0000 S   0  0  0  0  0  0  0  0  0  0  0  0
   -2.5981   -8.1073    0.0000 N   0  0  0  0  0  0  0  0  0  0  0  0
   -1.2990   -7.3573    0.0000 C   0  0  0  0  0  0  0  0  0  0  0  0
    0.0000   -8.1073    0.0000 C   0  0  0  0  0  0  0  0  0  0  0  0
    1.2990   -7.3573    0.0000 C   0  0  0  0  0  0  0  0  0  0  0  0
    1.2990   -5.8573    0.0000 C   0  0  0  0  0  0  0  0  0  0  0  0
    2.5981   -5.1073    0.0000 O   0  0  0  0  0  0  0  0  0  0  0  0
   -0.0000   -5.1073    0.0000 C   0  0  0  0  0  0  0  0  0  0  0  0
   -0.0000   -3.6073    0.0000 C   0  0  0  0  0  0  0  0  0  0  0  0
    1.2135   -2.7256    0.0000 N   0  0  0  0  0  0  0  0  0  0  0  0
    0.7500   -1.2990    0.0000 C   0  0  0  0  0  0  0  0  0  0  0  0
    1.5000    0.0000    0.0000 C   0  0  0  0  0  0  0  0  0  0  0  0
    0.7500    1.2990    0.0000 C   0  0  0  0  0  0  0  0  0  0  0  0
   -0.7500    1.2990    0.0000 C   0  0  0  0  0  0  0  0  0  0  0  0
   -1.5000    0.0000    0.0000 C   0  0  0  0  0  0  0  0  0  0  0  0
   -0.7500   -1.2990    0.0000 C   0  0  0  0  0  0  0  0  0  0  0  0
   -1.2135   -2.7256    0.0000 S   0  0  0  0  0  0  0  0  0  0  0  0
   -1.2990   -5.8573    0.0000 C   0  0  0  0  0  0  0  0  0  0  0  0
   -7.7942   -8.1073    0.0000 C   0  0  0  0  0  0  0  0  0  0  0  0
   -9.0933   -7.3573    0.0000 C   0  0  0  0  0  0  0  0  0  0  0  0
  -10.3923   -8.1073    0.0000 C   0  0  0  0  0  0  0  0  0  0  0  0
  -10.3923   -9.6073    0.0000 C   0  0  0  0  0  0  0  0  0  0  0  0
  -11.6913  -10.3573    0.0000 N   0  0  0  0  0  4  0  0  0  0  0  0
  -11.6913  -11.8573    0.0000 O   0  0  0  0  0  0  0  0  0  0  0  0
  -12.9904   -9.6073    0.0000 O   0  0  0  0  0  1  0  0  0  0  0  0
   -9.0933  -10.3573    0.0000 C   0  0  0  0  0  0  0  0  0  0  0  0
   -7.7942   -9.6073    0.0000 C   0  0  0  0  0  0  0  0  0  0  0  0
  1  2  2  0
  2  3  1  0
  3  4  1  0
  4  5  2  0
  4  6  1  0
  6  7  1  0
  7  8  2  0
  8  9  1  0
  9 10  2  0
 10 11  1  0
 10 12  1  0
 12 13  1  0
 13 14  2  0
 14 15  1  0
 15 16  2  0
 16 17  1  0
 17 18  2  0
 18 19  1  0
 19 20  2  0
 20 21  1  0
 12 22  2  0
  2 23  1  0
 23 24  2  0
 24 25  1  0
 25 26  2  0
 26 27  1  0
 27 28  2  0
 27 29  1  0
 26 30  1  0
 30 31  2  0
 22  7  1  0
 31 23  1  0
 21 13  1  0
 20 15  1  0
M  CHG  2  27   1  29  -1
M  END
>  <Compound_ID>  (360) 
CHEMBL460746

>  <Active>  (360) 
1.0

>  <Smiles>  (360) 
O=C(NC(=S)Nc1ccc(O)c(-c2nc3ccccc3s2)c1)c1ccc([N+](=O)[O-])cc1

>  <canonical_smi>  (360) 
O=C(NC(=S)Nc1ccc(O)c(-c2nc3ccccc3s2)c1)c1ccc([N+](=O)[O-])cc1

>  <Set>  (360) 
G2 active

>  <Set_type>  (360) 
Train

>  <MW>  (360) 
450.5

>  <HBD>  (360) 
3

>  <HBA>  (360) 
7

>  <NRB>  (360) 
4

>  <NR>  (360) 
4

>  <NAR>  (360) 
4

>  <PSA>  (360) 
117.39

>  <Standard Type>  (360) 
nan

>  <Standard Relation>  (360) 
nan

>  <Standard Units>  (360) 
nan

>  <Standard Value>  (360) 
nan

>  <Assay ChEMBL ID>  (360) 
nan

>  <Assay Description>  (360) 
nan

>  <BAO Label>  (360) 
nan

$$$$

     RDKit          2D

 35 39  0  0  0  0  0  0  0  0999 V2000
    1.5000   -5.1962    0.0000 C   0  0  0  0  0  0  0  0  0  0  0  0
    0.7500   -3.8971    0.0000 C   0  0  0  0  0  0  0  0  0  0  0  0
    1.5000   -2.5981    0.0000 N   0  0  0  0  0  0  0  0  0  0  0  0
    0.7500   -1.2990    0.0000 C   0  0  0  0  0  0  0  0  0  0  0  0
    1.5000    0.0000    0.0000 C   0  0  0  0  0  0  0  0  0  0  0  0
    0.7500    1.2990    0.0000 C   0  0  0  0  0  0  0  0  0  0  0  0
    1.5000    2.5981    0.0000 C   0  0  0  0  0  0  0  0  0  0  0  0
    0.8899    3.9684    0.0000 S   0  0  0  0  0  0  0  0  0  0  0  0
    2.0046    4.9721    0.0000 C   0  0  0  0  0  0  0  0  0  0  0  0
    1.8478    6.4639    0.0000 C   0  0  0  0  0  0  0  0  0  0  0  0
    0.4059    6.0504    0.0000 O   0  0  0  0  0  0  0  0  0  0  0  0
    3.3442    6.3592    0.0000 C   0  0  0  0  0  0  0  0  0  0  0  0
    4.1830    7.6028    0.0000 C   0  0  0  0  0  0  0  0  0  0  0  0
    3.5254    8.9510    0.0000 N   0  0  0  0  0  0  0  0  0  0  0  0
    4.3642   10.1945    0.0000 C   0  0  0  0  0  0  0  0  0  0  0  0
    2.0291    9.0556    0.0000 C   0  0  0  0  0  0  0  0  0  0  0  0
    1.1903    7.8121    0.0000 C   0  0  0  0  0  0  0  0  0  0  0  0
    3.3037    4.2221    0.0000 N   0  0  0  0  0  0  0  0  0  0  0  0
    2.9918    2.7549    0.0000 C   0  0  0  0  0  0  0  0  0  0  0  0
    3.9955    1.6402    0.0000 C   0  0  0  0  0  0  0  0  0  0  0  0
    3.5320    0.2136    0.0000 C   0  0  0  0  0  0  0  0  0  0  0  0
    4.5356   -0.9012    0.0000 C   0  0  0  0  0  0  0  0  0  0  0  0
    6.0029   -0.5893    0.0000 C   0  0  0  0  0  0  0  0  0  0  0  0
    7.0066   -1.7040    0.0000 F   0  0  0  0  0  0  0  0  0  0  0  0
    6.4664    0.8373    0.0000 C   0  0  0  0  0  0  0  0  0  0  0  0
    5.4627    1.9520    0.0000 C   0  0  0  0  0  0  0  0  0  0  0  0
   -0.7500    1.2990    0.0000 C   0  0  0  0  0  0  0  0  0  0  0  0
   -1.5000    0.0000    0.0000 C   0  0  0  0  0  0  0  0  0  0  0  0
   -0.7500   -1.2990    0.0000 N   0  0  0  0  0  0  0  0  0  0  0  0
   -0.7500   -3.8971    0.0000 C   0  0  0  0  0  0  0  0  0  0  0  0
   -1.5000   -2.5981    0.0000 C   0  0  0  0  0  0  0  0  0  0  0  0
   -3.0000   -2.5981    0.0000 C   0  0  0  0  0  0  0  0  0  0  0  0
   -3.7500   -3.8971    0.0000 C   0  0  0  0  0  0  0  0  0  0  0  0
   -3.0000   -5.1962    0.0000 C   0  0  0  0  0  0  0  0  0  0  0  0
   -1.5000   -5.1962    0.0000 C   0  0  0  0  0  0  0  0  0  0  0  0
  2  1  1  1
  2  3  1  0
  3  4  1  0
  4  5  2  0
  5  6  1  0
  6  7  1  0
  7  8  1  0
  8  9  1  0
  9 10  1  0
 10 11  1  0
 10 12  1  0
 12 13  1  0
 13 14  1  0
 14 15  1  0
 14 16  1  0
 16 17  1  0
  9 18  2  0
 18 19  1  0
 19 20  1  0
 20 21  2  0
 21 22  1  0
 22 23  2  0
 23 24  1  0
 23 25  1  0
 25 26  2  0
  6 27  2  0
 27 28  1  0
 28 29  2  0
  2 30  1  0
 30 31  2  0
 31 32  1  0
 32 33  2  0
 33 34  1  0
 34 35  2  0
 29  4  1  0
 35 30  1  0
 19  7  2  0
 26 20  1  0
 17 10  1  0
M  END
>  <Compound_ID>  (361) 
CHEMBL118419

>  <Active>  (361) 
1.0

>  <Smiles>  (361) 
C[C@H](Nc1cc(-c2sc(C3(O)CCN(C)CC3)nc2-c2ccc(F)cc2)ccn1)c1ccccc1

>  <canonical_smi>  (361) 
C[C@H](Nc1cc(-c2sc(C3(O)CCN(C)CC3)nc2-c2ccc(F)cc2)ccn1)c1ccccc1

>  <Set>  (361) 
G2 active

>  <Set_type>  (361) 
Train

>  <MW>  (361) 
488.63

>  <HBD>  (361) 
2

>  <HBA>  (361) 
5

>  <NRB>  (361) 
6

>  <NR>  (361) 
5

>  <NAR>  (361) 
4

>  <PSA>  (361) 
61.28

>  <Standard Type>  (361) 
nan

>  <Standard Relation>  (361) 
nan

>  <Standard Units>  (361) 
nan

>  <Standard Value>  (361) 
nan

>  <Assay ChEMBL ID>  (361) 
nan

>  <Assay Description>  (361) 
nan

>  <BAO Label>  (361) 
nan

$$$$

     RDKit          2D

 37 39  0  0  0  0  0  0  0  0999 V2000
    3.7500   -6.4952    0.0000 C   0  0  0  0  0  0  0  0  0  0  0  0
    3.0000   -5.1962    0.0000 C   0  0  0  0  0  0  0  0  0  0  0  0
    1.5000   -5.1962    0.0000 O   0  0  0  0  0  0  0  0  0  0  0  0
    0.7500   -3.8971    0.0000 C   0  0  0  0  0  0  0  0  0  0  0  0
    1.5000   -2.5981    0.0000 C   0  0  0  0  0  0  0  0  0  0  0  0
    0.7500   -1.2990    0.0000 C   0  0  0  0  0  0  0  0  0  0  0  0
    1.5000    0.0000    0.0000 N   0  0  0  0  0  0  0  0  0  0  0  0
    0.7500    1.2990    0.0000 C   0  0  0  0  0  0  0  0  0  0  0  0
   -0.7500    1.2990    0.0000 N   0  0  0  0  0  0  0  0  0  0  0  0
   -1.5000    0.0000    0.0000 C   0  0  0  0  0  0  0  0  0  0  0  0
   -3.0000    0.0000    0.0000 N   0  0  0  0  0  0  0  0  0  0  0  0
   -3.7500    1.2990    0.0000 C   0  0  0  0  0  0  0  0  0  0  0  0
   -3.0000    2.5981    0.0000 C   0  0  0  0  0  0  0  0  0  0  0  0
   -3.7500    3.8971    0.0000 C   0  0  0  0  0  0  0  0  0  0  0  0
   -3.0000    5.1962    0.0000 O   0  0  0  0  0  0  0  0  0  0  0  0
   -5.2500    3.8971    0.0000 C   0  0  0  0  0  0  0  0  0  0  0  0
   -6.0000    5.1962    0.0000 O   0  0  0  0  0  0  0  0  0  0  0  0
   -7.5000    5.1962    0.0000 C   0  0  0  0  0  0  0  0  0  0  0  0
   -8.2500    6.4952    0.0000 C   0  0  0  0  0  0  0  0  0  0  0  0
   -9.7500    6.4952    0.0000 F   0  0  0  0  0  0  0  0  0  0  0  0
   -8.2500    3.8971    0.0000 C   0  0  0  0  0  0  0  0  0  0  0  0
   -9.7500    3.8971    0.0000 F   0  0  0  0  0  0  0  0  0  0  0  0
   -6.0000    2.5981    0.0000 C   0  0  0  0  0  0  0  0  0  0  0  0
   -5.2500    1.2990    0.0000 C   0  0  0  0  0  0  0  0  0  0  0  0
   -6.0000    0.0000    0.0000 O   0  0  0  0  0  0  0  0  0  0  0  0
   -0.7500   -1.2990    0.0000 C   0  0  0  0  0  0  0  0  0  0  0  0
   -1.5000   -2.5981    0.0000 C   0  0  0  0  0  0  0  0  0  0  0  0
   -0.7500   -3.8971    0.0000 C   0  0  0  0  0  0  0  0  0  0  0  0
   -1.5000   -5.1962    0.0000 N   0  0  0  0  0  0  0  0  0  0  0  0
   -3.0000   -5.1962    0.0000 C   0  0  0  0  0  0  0  0  0  0  0  0
   -3.7500   -3.8971    0.0000 O   0  0  0  0  0  0  0  0  0  0  0  0
   -3.7500   -6.4952    0.0000 C   0  0  0  0  0  0  0  0  0  0  0  0
   -5.2500   -6.4952    0.0000 C   0  0  0  0  0  0  0  0  0  0  0  0
   -6.0000   -7.7942    0.0000 C   0  0  0  0  0  0  0  0  0  0  0  0
   -7.5000   -7.7942    0.0000 N   0  0  0  0  0  0  0  0  0  0  0  0
   -8.2500   -9.0933    0.0000 C   0  0  0  0  0  0  0  0  0  0  0  0
   -8.2500   -6.4952    0.0000 C   0  0  0  0  0  0  0  0  0  0  0  0
  1  2  1  0
  2  3  1  0
  3  4  1  0
  4  5  2  0
  5  6  1  0
  6  7  2  0
  7  8  1  0
  8  9  2  0
  9 10  1  0
 10 11  1  0
 11 12  1  0
 12 13  2  0
 13 14  1  0
 14 15  2  0
 14 16  1  0
 16 17  1  0
 17 18  1  0
 18 19  1  0
 19 20  1  0
 18 21  1  0
 21 22  1  0
 16 23  2  0
 23 24  1  0
 24 25  2  0
 10 26  2  0
 26 27  1  0
 27 28  2  0
 28 29  1  0
 29 30  1  0
 30 31  2  0
 30 32  1  0
 32 33  2  0
 33 34  1  0
 34 35  1  0
 35 36  1  0
 35 37  1  0
 28  4  1  0
 26  6  1  0
 24 12  1  0
M  END
>  <Compound_ID>  (362) 
CHEMBL243410

>  <Active>  (362) 
1.0

>  <Smiles>  (362) 
CCOc1cc2ncnc(NC3=CC(=O)C(OC(CF)CF)=CC3=O)c2cc1NC(=O)/C=C/CN(C)C

>  <canonical_smi>  (362) 
CCOc1cc2ncnc(NC3=CC(=O)C(OC(CF)CF)=CC3=O)c2cc1NC(=O)/C=C/CN(C)C

>  <Set>  (362) 
G2 active

>  <Set_type>  (362) 
Train

>  <MW>  (362) 
515.52

>  <HBD>  (362) 
2

>  <HBA>  (362) 
9

>  <NRB>  (362) 
12

>  <NR>  (362) 
3

>  <NAR>  (362) 
2

>  <PSA>  (362) 
122.75

>  <Standard Type>  (362) 
nan

>  <Standard Relation>  (362) 
nan

>  <Standard Units>  (362) 
nan

>  <Standard Value>  (362) 
nan

>  <Assay ChEMBL ID>  (362) 
nan

>  <Assay Description>  (362) 
nan

>  <BAO Label>  (362) 
nan

$$$$

     RDKit          2D

 40 43  0  0  0  0  0  0  0  0999 V2000
    5.2500   -1.2990    0.0000 C   0  0  0  0  0  0  0  0  0  0  0  0
    3.7500   -1.2990    0.0000 C   0  0  0  0  0  0  0  0  0  0  0  0
    3.0000    0.0000    0.0000 O   0  0  0  0  0  0  0  0  0  0  0  0
    1.5000    0.0000    0.0000 C   0  0  0  0  0  0  0  0  0  0  0  0
    0.7500   -1.2990    0.0000 C   0  0  0  0  0  0  0  0  0  0  0  0
   -0.7500   -1.2990    0.0000 C   0  0  0  0  0  0  0  0  0  0  0  0
   -1.5000   -2.5981    0.0000 N   0  0  0  0  0  0  0  0  0  0  0  0
   -3.0000   -2.5981    0.0000 C   0  0  0  0  0  0  0  0  0  0  0  0
   -3.7500   -1.2990    0.0000 C   0  0  0  0  0  0  0  0  0  0  0  0
   -5.2500   -1.2990    0.0000 C   0  0  0  0  0  0  0  0  0  0  0  0
   -6.7500   -1.2990    0.0000 N   0  0  0  0  0  0  0  0  0  0  0  0
   -3.0000    0.0000    0.0000 C   0  0  0  0  0  0  0  0  0  0  0  0
   -3.7500    1.2990    0.0000 N   0  0  0  0  0  0  0  0  0  0  0  0
   -3.0000    2.5981    0.0000 C   0  0  0  0  0  0  0  0  0  0  0  0
   -1.5000    2.5981    0.0000 C   0  0  0  0  0  0  0  0  0  0  0  0
   -0.7500    3.8971    0.0000 C   0  0  0  0  0  0  0  0  0  0  0  0
   -1.5000    5.1962    0.0000 C   0  0  0  0  0  0  0  0  0  0  0  0
   -0.7500    6.4952    0.0000 O   0  0  0  0  0  0  0  0  0  0  0  0
    0.7500    6.4952    0.0000 C   0  0  0  0  0  0  0  0  0  0  0  0
    1.5000    7.7942    0.0000 C   0  0  0  0  0  0  0  0  0  0  0  0
    3.0000    7.7942    0.0000 C   0  0  0  0  0  0  0  0  0  0  0  0
    3.7500    9.0933    0.0000 C   0  0  0  0  0  0  0  0  0  0  0  0
    3.0000   10.3923    0.0000 C   0  0  0  0  0  0  0  0  0  0  0  0
    1.5000   10.3923    0.0000 C   0  0  0  0  0  0  0  0  0  0  0  0
    0.7500    9.0933    0.0000 C   0  0  0  0  0  0  0  0  0  0  0  0
   -3.0000    5.1962    0.0000 C   0  0  0  0  0  0  0  0  0  0  0  0
   -3.7500    6.4952    0.0000 Cl  0  0  0  0  0  0  0  0  0  0  0  0
   -3.7500    3.8971    0.0000 C   0  0  0  0  0  0  0  0  0  0  0  0
   -1.5000    0.0000    0.0000 C   0  0  0  0  0  0  0  0  0  0  0  0
   -0.7500    1.2990    0.0000 C   0  0  0  0  0  0  0  0  0  0  0  0
    0.7500    1.2990    0.0000 C   0  0  0  0  0  0  0  0  0  0  0  0
    1.5000    2.5981    0.0000 N   0  0  0  0  0  0  0  0  0  0  0  0
    3.0000    2.5981    0.0000 C   0  0  0  0  0  0  0  0  0  0  0  0
    3.7500    1.2990    0.0000 O   0  0  0  0  0  0  0  0  0  0  0  0
    3.7500    3.8971    0.0000 C   0  0  0  0  0  0  0  0  0  0  0  0
    5.2500    3.8971    0.0000 C   0  0  0  0  0  0  0  0  0  0  0  0
    6.0000    5.1962    0.0000 C   0  0  0  0  0  0  0  0  0  0  0  0
    7.5000    5.1962    0.0000 N   0  0  0  0  0  0  0  0  0  0  0  0
    8.2500    6.4952    0.0000 C   0  0  0  0  0  0  0  0  0  0  0  0
    8.2500    3.8971    0.0000 C   0  0  0  0  0  0  0  0  0  0  0  0
  1  2  1  0
  2  3  1  0
  3  4  1  0
  4  5  2  0
  5  6  1  0
  6  7  2  0
  7  8  1  0
  8  9  2  0
  9 10  1  0
 10 11  3  0
  9 12  1  0
 12 13  1  0
 13 14  1  0
 14 15  2  0
 15 16  1  0
 16 17  2  0
 17 18  1  0
 18 19  1  0
 19 20  1  0
 20 21  1  0
 21 22  1  0
 22 23  1  0
 23 24  1  0
 24 25  1  0
 17 26  1  0
 26 27  1  0
 26 28  2  0
 12 29  2  0
 29 30  1  0
 30 31  2  0
 31 32  1  0
 32 33  1  0
 33 34  2  0
 33 35  1  0
 35 36  2  0
 36 37  1  0
 37 38  1  0
 38 39  1  0
 38 40  1  0
 31  4  1  0
 29  6  1  0
 28 14  1  0
 25 20  1  0
M  END
>  <Compound_ID>  (363) 
CHEMBL179123

>  <Active>  (363) 
1.0

>  <Smiles>  (363) 
CCOc1cc2ncc(C#N)c(Nc3ccc(OCC4CCCCC4)c(Cl)c3)c2cc1NC(=O)/C=C/CN(C)C

>  <canonical_smi>  (363) 
CCOc1cc2ncc(C#N)c(Nc3ccc(OCC4CCCCC4)c(Cl)c3)c2cc1NC(=O)/C=C/CN(C)C

>  <Set>  (363) 
G2 active

>  <Set_type>  (363) 
Train

>  <MW>  (363) 
562.11

>  <HBD>  (363) 
2

>  <HBA>  (363) 
7

>  <NRB>  (363) 
11

>  <NR>  (363) 
4

>  <NAR>  (363) 
3

>  <PSA>  (363) 
99.51

>  <Standard Type>  (363) 
nan

>  <Standard Relation>  (363) 
nan

>  <Standard Units>  (363) 
nan

>  <Standard Value>  (363) 
nan

>  <Assay ChEMBL ID>  (363) 
nan

>  <Assay Description>  (363) 
nan

>  <BAO Label>  (363) 
nan

$$$$

     RDKit          2D

 26 27  0  0  0  0  0  0  0  0999 V2000
   -0.7500   -9.0933    0.0000 O   0  0  0  0  0  0  0  0  0  0  0  0
    0.7500   -9.0933    0.0000 C   0  0  0  0  0  0  0  0  0  0  0  0
    1.5000   -7.7942    0.0000 C   0  0  0  0  0  0  0  0  0  0  0  0
    0.7500   -6.4952    0.0000 C   0  0  0  0  0  0  0  0  0  0  0  0
    1.5000   -5.1962    0.0000 C   0  0  0  0  0  0  0  0  0  0  0  0
    0.7500   -3.8971    0.0000 C   0  0  0  0  0  0  0  0  0  0  0  0
   -0.7500   -3.8971    0.0000 O   0  0  0  0  0  0  0  0  0  0  0  0
    1.5000   -2.5981    0.0000 O   0  0  0  0  0  0  0  0  0  0  0  0
    0.7500   -1.2990    0.0000 C   0  0  0  0  0  0  0  0  0  0  0  0
    1.5000    0.0000    0.0000 C   0  0  0  0  0  0  0  0  0  0  0  0
    0.7500    1.2990    0.0000 C   0  0  0  0  0  0  0  0  0  0  0  0
   -0.7500    1.2990    0.0000 C   0  0  0  0  0  0  0  0  0  0  0  0
   -1.5000    2.5981    0.0000 C   0  0  0  0  0  0  0  0  0  0  0  0
   -0.7500    3.8971    0.0000 C   0  0  0  0  0  0  0  0  0  0  0  0
   -1.5000    5.1962    0.0000 N   0  0  0  0  0  4  0  0  0  0  0  0
   -3.0000    5.1962    0.0000 O   0  0  0  0  0  0  0  0  0  0  0  0
   -0.7500    6.4952    0.0000 O   0  0  0  0  0  1  0  0  0  0  0  0
   -1.5000    0.0000    0.0000 C   0  0  0  0  0  0  0  0  0  0  0  0
   -0.7500   -1.2990    0.0000 C   0  0  0  0  0  0  0  0  0  0  0  0
    1.5000  -10.3923    0.0000 O   0  0  0  0  0  0  0  0  0  0  0  0
    0.7500  -11.6913    0.0000 C   0  0  0  0  0  0  0  0  0  0  0  0
    1.5000  -12.9904    0.0000 C   0  0  0  0  0  0  0  0  0  0  0  0
    2.9918  -13.1472    0.0000 C   0  0  0  0  0  0  0  0  0  0  0  0
    3.3037  -14.6144    0.0000 C   0  0  0  0  0  0  0  0  0  0  0  0
    2.0046  -15.3644    0.0000 C   0  0  0  0  0  0  0  0  0  0  0  0
    0.8899  -14.3607    0.0000 O   0  0  0  0  0  0  0  0  0  0  0  0
  1  2  2  0
  2  3  1  0
  3  4  1  0
  4  5  1  0
  5  6  1  0
  6  7  2  0
  6  8  1  0
  8  9  1  0
  9 10  2  0
 10 11  1  0
 11 12  2  0
 12 13  1  0
 13 14  2  0
 14 15  1  0
 15 16  2  0
 15 17  1  0
 12 18  1  0
 18 19  2  0
  2 20  1  0
 20 21  1  0
 21 22  1  0
 22 23  2  0
 23 24  1  0
 24 25  2  0
 25 26  1  0
 19  9  1  0
 26 22  1  0
M  CHG  2  15   1  17  -1
M  END
>  <Compound_ID>  (364) 
CHEMBL65376

>  <Active>  (364) 
1.0

>  <Smiles>  (364) 
O=C(CCCC(=O)Oc1ccc(/C=C/[N+](=O)[O-])cc1)OCc1ccco1

>  <canonical_smi>  (364) 
O=C(CCCC(=O)Oc1ccc(/C=C/[N+](=O)[O-])cc1)OCc1ccco1

>  <Set>  (364) 
G2 active

>  <Set_type>  (364) 
Train

>  <MW>  (364) 
359.33

>  <HBD>  (364) 
0

>  <HBA>  (364) 
7

>  <NRB>  (364) 
9

>  <NR>  (364) 
2

>  <NAR>  (364) 
2

>  <PSA>  (364) 
108.88

>  <Standard Type>  (364) 
nan

>  <Standard Relation>  (364) 
nan

>  <Standard Units>  (364) 
nan

>  <Standard Value>  (364) 
nan

>  <Assay ChEMBL ID>  (364) 
nan

>  <Assay Description>  (364) 
nan

>  <BAO Label>  (364) 
nan

$$$$

     RDKit          2D

 30 33  0  0  0  0  0  0  0  0999 V2000
   -5.2500   -3.8971    0.0000 C   0  0  0  0  0  0  0  0  0  0  0  0
   -3.7500   -3.8971    0.0000 O   0  0  0  0  0  0  0  0  0  0  0  0
   -3.0000   -2.5981    0.0000 C   0  0  0  0  0  0  0  0  0  0  0  0
   -1.5000   -2.5981    0.0000 C   0  0  0  0  0  0  0  0  0  0  0  0
   -0.7500   -1.2990    0.0000 C   0  0  0  0  0  0  0  0  0  0  0  0
    0.7500   -1.2990    0.0000 C   0  0  0  0  0  0  0  0  0  0  0  0
    1.5000   -2.5981    0.0000 N   0  0  0  0  0  0  0  0  0  0  0  0
    3.0000   -2.5981    0.0000 C   0  0  0  0  0  0  0  0  0  0  0  0
    3.7500   -3.8971    0.0000 C   0  0  0  0  0  0  0  0  0  0  0  0
    5.2500   -3.8971    0.0000 C   0  0  0  0  0  0  0  0  0  0  0  0
    6.0000   -2.5981    0.0000 C   0  0  0  0  0  0  0  0  0  0  0  0
    7.5000   -2.5981    0.0000 Cl  0  0  0  0  0  0  0  0  0  0  0  0
    5.2500   -1.2990    0.0000 C   0  0  0  0  0  0  0  0  0  0  0  0
    3.7500   -1.2990    0.0000 C   0  0  0  0  0  0  0  0  0  0  0  0
    3.0000   -0.0000    0.0000 F   0  0  0  0  0  0  0  0  0  0  0  0
    1.5000    0.0000    0.0000 N   0  0  0  0  0  0  0  0  0  0  0  0
    0.7500    1.2990    0.0000 C   0  0  0  0  0  0  0  0  0  0  0  0
   -0.7500    1.2990    0.0000 N   0  0  0  0  0  0  0  0  0  0  0  0
   -1.5000    0.0000    0.0000 C   0  0  0  0  0  0  0  0  0  0  0  0
   -3.0000    0.0000    0.0000 C   0  0  0  0  0  0  0  0  0  0  0  0
   -3.7500   -1.2990    0.0000 C   0  0  0  0  0  0  0  0  0  0  0  0
   -5.2500   -1.2990    0.0000 O   0  0  0  0  0  0  0  0  0  0  0  0
   -6.0000    0.0000    0.0000 C   0  0  0  0  0  0  0  0  0  0  0  0
   -7.5000    0.0000    0.0000 C   0  0  0  0  0  0  0  0  0  0  0  0
   -8.2500    1.2990    0.0000 N   0  0  0  0  0  0  0  0  0  0  0  0
   -7.5000    2.5981    0.0000 C   0  0  0  0  0  0  0  0  0  0  0  0
   -8.2500    3.8971    0.0000 C   0  0  0  0  0  0  0  0  0  0  0  0
   -9.7500    3.8971    0.0000 O   0  0  0  0  0  0  0  0  0  0  0  0
  -10.5000    2.5981    0.0000 C   0  0  0  0  0  0  0  0  0  0  0  0
   -9.7500    1.2990    0.0000 C   0  0  0  0  0  0  0  0  0  0  0  0
  1  2  1  0
  2  3  1  0
  3  4  2  0
  4  5  1  0
  5  6  2  0
  6  7  1  0
  7  8  1  0
  8  9  2  0
  9 10  1  0
 10 11  2  0
 11 12  1  0
 11 13  1  0
 13 14  2  0
 14 15  1  0
  6 16  1  0
 16 17  2  0
 17 18  1  0
 18 19  2  0
 19 20  1  0
 20 21  2  0
 21 22  1  0
 22 23  1  0
 23 24  1  0
 24 25  1  0
 25 26  1  0
 26 27  1  0
 27 28  1  0
 28 29  1  0
 29 30  1  0
 21  3  1  0
 30 25  1  0
 19  5  1  0
 14  8  1  0
M  END
>  <Compound_ID>  (365) 
CHEMBL25610

>  <Active>  (365) 
1.0

>  <Smiles>  (365) 
COc1cc2c(Nc3ccc(Cl)cc3F)ncnc2cc1OCCN1CCOCC1

>  <canonical_smi>  (365) 
COc1cc2c(Nc3ccc(Cl)cc3F)ncnc2cc1OCCN1CCOCC1

>  <Set>  (365) 
G2 active

>  <Set_type>  (365) 
Train

>  <MW>  (365) 
432.88

>  <HBD>  (365) 
1

>  <HBA>  (365) 
7

>  <NRB>  (365) 
7

>  <NR>  (365) 
4

>  <NAR>  (365) 
3

>  <PSA>  (365) 
68.74

>  <Standard Type>  (365) 
nan

>  <Standard Relation>  (365) 
nan

>  <Standard Units>  (365) 
nan

>  <Standard Value>  (365) 
nan

>  <Assay ChEMBL ID>  (365) 
nan

>  <Assay Description>  (365) 
nan

>  <BAO Label>  (365) 
nan

$$$$

     RDKit          2D

 29 31  0  0  0  0  0  0  0  0999 V2000
    6.0000   -2.5981    0.0000 C   0  0  0  0  0  0  0  0  0  0  0  0
    5.2500   -1.2990    0.0000 C   0  0  0  0  0  0  0  0  0  0  0  0
    3.7500   -1.2990    0.0000 O   0  0  0  0  0  0  0  0  0  0  0  0
    3.0000    0.0000    0.0000 C   0  0  0  0  0  0  0  0  0  0  0  0
    3.7500    1.2990    0.0000 O   0  0  0  0  0  0  0  0  0  0  0  0
    1.5000    0.0000    0.0000 C   0  0  0  0  0  0  0  0  0  0  0  0
    0.7500   -1.2990    0.0000 C   0  0  0  0  0  0  0  0  0  0  0  0
   -0.7500   -1.2990    0.0000 C   0  0  0  0  0  0  0  0  0  0  0  0
   -1.5000    0.0000    0.0000 N   0  0  0  0  0  0  0  0  0  0  0  0
   -3.0000    0.0000    0.0000 C   0  0  0  0  0  0  0  0  0  0  0  0
   -3.7500    1.2990    0.0000 C   0  0  0  0  0  0  0  0  0  0  0  0
   -5.2500    1.2990    0.0000 C   0  0  0  0  0  0  0  0  0  0  0  0
   -6.0000    0.0000    0.0000 O   0  0  0  0  0  0  0  0  0  0  0  0
   -6.0000    2.5981    0.0000 C   0  0  0  0  0  0  0  0  0  0  0  0
   -5.2500    3.8971    0.0000 C   0  0  0  0  0  0  0  0  0  0  0  0
   -6.0000    5.1962    0.0000 C   0  0  0  0  0  0  0  0  0  0  0  0
   -7.5000    5.1962    0.0000 C   0  0  0  0  0  0  0  0  0  0  0  0
   -8.2500    6.4952    0.0000 O   0  0  0  0  0  0  0  0  0  0  0  0
   -7.5000    7.7942    0.0000 C   0  0  0  0  0  0  0  0  0  0  0  0
   -8.2500    9.0933    0.0000 C   0  0  0  0  0  0  0  0  0  0  0  0
   -7.5000   10.3923    0.0000 C   0  0  0  0  0  0  0  0  0  0  0  0
   -8.2500   11.6913    0.0000 C   0  0  0  0  0  0  0  0  0  0  0  0
   -9.7500   11.6913    0.0000 C   0  0  0  0  0  0  0  0  0  0  0  0
  -10.5000   10.3923    0.0000 C   0  0  0  0  0  0  0  0  0  0  0  0
   -9.7500    9.0933    0.0000 C   0  0  0  0  0  0  0  0  0  0  0  0
   -8.2500    3.8971    0.0000 C   0  0  0  0  0  0  0  0  0  0  0  0
   -7.5000    2.5981    0.0000 C   0  0  0  0  0  0  0  0  0  0  0  0
   -0.7500    1.2990    0.0000 C   0  0  0  0  0  0  0  0  0  0  0  0
    0.7500    1.2990    0.0000 C   0  0  0  0  0  0  0  0  0  0  0  0
  1  2  1  0
  2  3  1  0
  3  4  1  0
  4  5  2  0
  4  6  1  0
  6  7  1  0
  7  8  1  0
  8  9  1  0
  9 10  1  0
 10 11  1  0
 11 12  1  0
 12 13  2  0
 12 14  1  0
 14 15  2  0
 15 16  1  0
 16 17  2  0
 17 18  1  0
 18 19  1  0
 19 20  1  0
 20 21  2  0
 21 22  1  0
 22 23  2  0
 23 24  1  0
 24 25  2  0
 17 26  1  0
 26 27  2  0
  9 28  1  0
 28 29  1  0
 29  6  1  0
 27 14  1  0
 25 20  1  0
M  END
>  <Compound_ID>  (366) 
CHEMBL542891

>  <Active>  (366) 
1.0

>  <Smiles>  (366) 
CCOC(=O)C1CCN(CCC(=O)c2ccc(OCc3ccccc3)cc2)CC1

>  <canonical_smi>  (366) 
CCOC(=O)C1CCN(CCC(=O)c2ccc(OCc3ccccc3)cc2)CC1

>  <Set>  (366) 
G2 active

>  <Set_type>  (366) 
Train

>  <MW>  (366) 
395.5

>  <HBD>  (366) 
0

>  <HBA>  (366) 
5

>  <NRB>  (366) 
9

>  <NR>  (366) 
3

>  <NAR>  (366) 
2

>  <PSA>  (366) 
55.84

>  <Standard Type>  (366) 
nan

>  <Standard Relation>  (366) 
nan

>  <Standard Units>  (366) 
nan

>  <Standard Value>  (366) 
nan

>  <Assay ChEMBL ID>  (366) 
nan

>  <Assay Description>  (366) 
nan

>  <BAO Label>  (366) 
nan

$$$$

     RDKit          2D

 31 34  0  0  0  0  0  0  0  0999 V2000
   -6.1170   -7.0506    0.0000 C   0  0  0  0  0  0  0  0  0  0  0  0
   -4.6904   -6.5871    0.0000 O   0  0  0  0  0  0  0  0  0  0  0  0
   -4.3786   -5.1199    0.0000 C   0  0  0  0  0  0  0  0  0  0  0  0
   -5.4933   -4.1162    0.0000 C   0  0  0  0  0  0  0  0  0  0  0  0
   -5.1814   -2.6490    0.0000 C   0  0  0  0  0  0  0  0  0  0  0  0
   -3.7548   -2.1855    0.0000 C   0  0  0  0  0  0  0  0  0  0  0  0
   -2.6401   -3.1891    0.0000 C   0  0  0  0  0  0  0  0  0  0  0  0
   -1.2135   -2.7256    0.0000 C   0  0  0  0  0  0  0  0  0  0  0  0
   -0.0000   -3.6073    0.0000 C   0  0  0  0  0  0  0  0  0  0  0  0
    1.2135   -2.7256    0.0000 N   0  0  0  0  0  0  0  0  0  0  0  0
    2.6401   -3.1891    0.0000 C   0  0  0  0  0  0  0  0  0  0  0  0
    2.9520   -4.6564    0.0000 C   0  0  0  0  0  0  0  0  0  0  0  0
    4.3786   -5.1199    0.0000 C   0  0  0  0  0  0  0  0  0  0  0  0
    5.4933   -4.1162    0.0000 C   0  0  0  0  0  0  0  0  0  0  0  0
    6.9199   -4.5797    0.0000 C   0  0  0  0  0  0  0  0  0  0  0  0
    7.2317   -6.0469    0.0000 C   0  0  0  0  0  0  0  0  0  0  0  0
    8.6583   -6.5105    0.0000 N   0  0  0  0  0  0  0  0  0  0  0  0
    8.9702   -7.9777    0.0000 C   0  0  0  0  0  0  0  0  0  0  0  0
    9.7730   -5.5068    0.0000 C   0  0  0  0  0  0  0  0  0  0  0  0
   11.1996   -5.9703    0.0000 C   0  0  0  0  0  0  0  0  0  0  0  0
   12.3143   -4.9666    0.0000 O   0  0  0  0  0  0  0  0  0  0  0  0
    5.1814   -2.6490    0.0000 C   0  0  0  0  0  0  0  0  0  0  0  0
    3.7548   -2.1855    0.0000 C   0  0  0  0  0  0  0  0  0  0  0  0
    0.7500   -1.2990    0.0000 C   0  0  0  0  0  0  0  0  0  0  0  0
    1.5000    0.0000    0.0000 N   0  0  0  0  0  0  0  0  0  0  0  0
    0.7500    1.2990    0.0000 C   0  0  0  0  0  0  0  0  0  0  0  0
   -0.7500    1.2990    0.0000 N   0  0  0  0  0  0  0  0  0  0  0  0
   -1.5000    0.0000    0.0000 C   0  0  0  0  0  0  0  0  0  0  0  0
   -3.0000    0.0000    0.0000 N   0  0  0  0  0  0  0  0  0  0  0  0
   -0.7500   -1.2990    0.0000 C   0  0  0  0  0  0  0  0  0  0  0  0
   -2.9520   -4.6564    0.0000 C   0  0  0  0  0  0  0  0  0  0  0  0
  1  2  1  0
  2  3  1  0
  3  4  2  0
  4  5  1  0
  5  6  2  0
  6  7  1  0
  7  8  1  0
  8  9  2  0
  9 10  1  0
 10 11  1  0
 11 12  2  0
 12 13  1  0
 13 14  2  0
 14 15  1  0
 15 16  1  0
 16 17  1  0
 17 18  1  0
 17 19  1  0
 19 20  1  0
 20 21  1  0
 14 22  1  0
 22 23  2  0
 10 24  1  0
 24 25  2  0
 25 26  1  0
 26 27  2  0
 27 28  1  0
 28 29  1  0
 28 30  2  0
  7 31  2  0
 31  3  1  0
 30  8  1  0
 23 11  1  0
 30 24  1  0
M  END
>  <Compound_ID>  (367) 
CHEMBL105436

>  <Active>  (367) 
1.0

>  <Smiles>  (367) 
COc1cccc(-c2cn(-c3ccc(CCN(C)CCO)cc3)c3ncnc(N)c23)c1

>  <canonical_smi>  (367) 
COc1cccc(-c2cn(-c3ccc(CCN(C)CCO)cc3)c3ncnc(N)c23)c1

>  <Set>  (367) 
G2 active

>  <Set_type>  (367) 
Train

>  <MW>  (367) 
417.51

>  <HBD>  (367) 
2

>  <HBA>  (367) 
6

>  <NRB>  (367) 
8

>  <NR>  (367) 
4

>  <NAR>  (367) 
4

>  <PSA>  (367) 
89.43

>  <Standard Type>  (367) 
nan

>  <Standard Relation>  (367) 
nan

>  <Standard Units>  (367) 
nan

>  <Standard Value>  (367) 
nan

>  <Assay ChEMBL ID>  (367) 
nan

>  <Assay Description>  (367) 
nan

>  <BAO Label>  (367) 
nan

$$$$

     RDKit          2D

 31 35  0  0  0  0  0  0  0  0999 V2000
    0.7500   -6.4952    0.0000 C   0  0  0  0  0  0  0  0  0  0  0  0
    1.5000   -5.1962    0.0000 O   0  0  0  0  0  0  0  0  0  0  0  0
    0.7500   -3.8971    0.0000 C   0  0  0  0  0  0  0  0  0  0  0  0
    1.5000   -2.5981    0.0000 C   0  0  0  0  0  0  0  0  0  0  0  0
    0.7500   -1.2990    0.0000 C   0  0  0  0  0  0  0  0  0  0  0  0
    1.5000    0.0000    0.0000 N   0  0  0  0  0  0  0  0  0  0  0  0
    0.7500    1.2990    0.0000 C   0  0  0  0  0  0  0  0  0  0  0  0
   -0.7500    1.2990    0.0000 N   0  0  0  0  0  0  0  0  0  0  0  0
   -1.5000    0.0000    0.0000 C   0  0  0  0  0  0  0  0  0  0  0  0
   -3.0000    0.0000    0.0000 N   0  0  0  0  0  0  0  0  0  0  0  0
   -3.7500    1.2990    0.0000 C   0  0  0  0  0  0  0  0  0  0  0  0
   -5.0490    2.0490    0.0000 C   0  0  0  0  0  0  0  0  0  0  0  0
   -3.7500    2.7990    0.0000 C   0  0  0  0  0  0  0  0  0  0  0  0
   -3.0000    4.0981    0.0000 C   0  0  0  0  0  0  0  0  0  0  0  0
   -1.5000    4.0981    0.0000 C   0  0  0  0  0  0  0  0  0  0  0  0
   -0.7500    5.3971    0.0000 C   0  0  0  0  0  0  0  0  0  0  0  0
   -1.5000    6.6962    0.0000 C   0  0  0  0  0  0  0  0  0  0  0  0
   -3.0000    6.6962    0.0000 C   0  0  0  0  0  0  0  0  0  0  0  0
   -3.7500    5.3971    0.0000 C   0  0  0  0  0  0  0  0  0  0  0  0
   -0.7500   -1.2990    0.0000 C   0  0  0  0  0  0  0  0  0  0  0  0
   -1.5000   -2.5981    0.0000 C   0  0  0  0  0  0  0  0  0  0  0  0
   -0.7500   -3.8971    0.0000 C   0  0  0  0  0  0  0  0  0  0  0  0
   -1.5000   -5.1962    0.0000 O   0  0  0  0  0  0  0  0  0  0  0  0
   -3.0000   -5.1962    0.0000 C   0  0  0  0  0  0  0  0  0  0  0  0
   -3.7500   -6.4952    0.0000 C   0  0  0  0  0  0  0  0  0  0  0  0
   -5.2500   -6.4952    0.0000 N   0  0  0  0  0  0  0  0  0  0  0  0
   -6.0000   -5.1962    0.0000 C   0  0  0  0  0  0  0  0  0  0  0  0
   -7.5000   -5.1962    0.0000 C   0  0  0  0  0  0  0  0  0  0  0  0
   -8.2500   -6.4952    0.0000 O   0  0  0  0  0  0  0  0  0  0  0  0
   -7.5000   -7.7942    0.0000 C   0  0  0  0  0  0  0  0  0  0  0  0
   -6.0000   -7.7942    0.0000 C   0  0  0  0  0  0  0  0  0  0  0  0
  1  2  1  0
  2  3  1  0
  3  4  2  0
  4  5  1  0
  5  6  2  0
  6  7  1  0
  7  8  2  0
  8  9  1  0
  9 10  1  0
 10 11  1  0
 11 12  1  0
 12 13  1  0
 13 14  1  0
 14 15  2  0
 15 16  1  0
 16 17  2  0
 17 18  1  0
 18 19  2  0
  9 20  2  0
 20 21  1  0
 21 22  2  0
 22 23  1  0
 23 24  1  0
 24 25  1  0
 25 26  1  0
 26 27  1  0
 27 28  1  0
 28 29  1  0
 29 30  1  0
 30 31  1  0
 22  3  1  0
 31 26  1  0
 20  5  1  0
 13 11  1  0
 19 14  1  0
M  END
>  <Compound_ID>  (368) 
CHEMBL420059

>  <Active>  (368) 
1.0

>  <Smiles>  (368) 
COc1cc2ncnc(NC3CC3c3ccccc3)c2cc1OCCN1CCOCC1

>  <canonical_smi>  (368) 
COc1cc2ncnc(NC3CC3c3ccccc3)c2cc1OCCN1CCOCC1

>  <Set>  (368) 
G2 active

>  <Set_type>  (368) 
Train

>  <MW>  (368) 
420.51

>  <HBD>  (368) 
1

>  <HBA>  (368) 
7

>  <NRB>  (368) 
8

>  <NR>  (368) 
5

>  <NAR>  (368) 
3

>  <PSA>  (368) 
68.74

>  <Standard Type>  (368) 
nan

>  <Standard Relation>  (368) 
nan

>  <Standard Units>  (368) 
nan

>  <Standard Value>  (368) 
nan

>  <Assay ChEMBL ID>  (368) 
nan

>  <Assay Description>  (368) 
nan

>  <BAO Label>  (368) 
nan

$$$$

     RDKit          2D

 21 24  0  0  0  0  0  0  0  0999 V2000
    3.0000    0.0000    0.0000 N   0  0  0  0  0  0  0  0  0  0  0  0
    1.5000    0.0000    0.0000 C   0  0  0  0  0  0  0  0  0  0  0  0
    0.7500   -1.2990    0.0000 N   0  0  0  0  0  0  0  0  0  0  0  0
   -0.7500   -1.2990    0.0000 C   0  0  0  0  0  0  0  0  0  0  0  0
   -1.5000    0.0000    0.0000 N   0  0  0  0  0  0  0  0  0  0  0  0
   -0.7500    1.2990    0.0000 C   0  0  0  0  0  0  0  0  0  0  0  0
    0.7500    1.2990    0.0000 C   0  0  0  0  0  0  0  0  0  0  0  0
    1.2135    2.7256    0.0000 C   0  0  0  0  0  0  0  0  0  0  0  0
    2.6401    3.1891    0.0000 C   0  0  0  0  0  0  0  0  0  0  0  0
    3.7548    2.1855    0.0000 C   0  0  0  0  0  0  0  0  0  0  0  0
    5.1814    2.6490    0.0000 C   0  0  0  0  0  0  0  0  0  0  0  0
    5.4933    4.1162    0.0000 C   0  0  0  0  0  0  0  0  0  0  0  0
    4.3786    5.1199    0.0000 C   0  0  0  0  0  0  0  0  0  0  0  0
    4.6904    6.5871    0.0000 O   0  0  0  0  0  0  0  0  0  0  0  0
    2.9520    4.6564    0.0000 C   0  0  0  0  0  0  0  0  0  0  0  0
   -0.0000    3.6073    0.0000 C   0  0  0  0  0  0  0  0  0  0  0  0
   -1.2135    2.7256    0.0000 N   0  0  0  0  0  0  0  0  0  0  0  0
   -2.6401    3.1891    0.0000 C   0  0  0  0  0  0  0  0  0  0  0  0
   -3.3211    4.5257    0.0000 C   0  0  0  0  0  0  0  0  0  0  0  0
   -4.6576    3.8447    0.0000 C   0  0  0  0  0  0  0  0  0  0  0  0
   -3.9766    2.5082    0.0000 C   0  0  0  0  0  0  0  0  0  0  0  0
  1  2  1  0
  2  3  2  0
  3  4  1  0
  4  5  2  0
  5  6  1  0
  6  7  2  0
  7  8  1  0
  8  9  1  0
  9 10  2  0
 10 11  1  0
 11 12  2  0
 12 13  1  0
 13 14  1  0
 13 15  2  0
  8 16  2  0
 16 17  1  0
 17 18  1  0
 18 19  1  0
 19 20  1  0
 20 21  1  0
  7  2  1  0
 15  9  1  0
 21 18  1  0
 17  6  1  0
M  END
>  <Compound_ID>  (369) 
CHEMBL355330

>  <Active>  (369) 
1.0

>  <Smiles>  (369) 
Nc1ncnc2c1c(-c1cccc(O)c1)cn2C1CCC1

>  <canonical_smi>  (369) 
Nc1ncnc2c1c(-c1cccc(O)c1)cn2C1CCC1

>  <Set>  (369) 
G2 active

>  <Set_type>  (369) 
Train

>  <MW>  (369) 
280.33

>  <HBD>  (369) 
2

>  <HBA>  (369) 
4

>  <NRB>  (369) 
2

>  <NR>  (369) 
4

>  <NAR>  (369) 
3

>  <PSA>  (369) 
76.96

>  <Standard Type>  (369) 
nan

>  <Standard Relation>  (369) 
nan

>  <Standard Units>  (369) 
nan

>  <Standard Value>  (369) 
nan

>  <Assay ChEMBL ID>  (369) 
nan

>  <Assay Description>  (369) 
nan

>  <BAO Label>  (369) 
nan

$$$$

     RDKit          2D

 26 29  0  0  0  0  0  0  0  0999 V2000
   -2.9499    4.2246    0.0000 N   0  0  0  0  0  0  0  0  0  0  0  0
   -1.8351    3.2209    0.0000 C   0  0  0  0  0  0  0  0  0  0  0  0
   -0.4086    3.6844    0.0000 N   0  0  0  0  0  0  0  0  0  0  0  0
    0.7062    2.6807    0.0000 C   0  0  0  0  0  0  0  0  0  0  0  0
    2.1328    3.1443    0.0000 N   0  0  0  0  0  0  0  0  0  0  0  0
    2.4446    4.6115    0.0000 C   0  0  0  0  0  0  0  0  0  0  0  0
    3.8712    5.0750    0.0000 C   0  0  0  0  0  0  0  0  0  0  0  0
    4.1831    6.5422    0.0000 C   0  0  0  0  0  0  0  0  0  0  0  0
    3.0684    7.5459    0.0000 C   0  0  0  0  0  0  0  0  0  0  0  0
    1.6418    7.0824    0.0000 C   0  0  0  0  0  0  0  0  0  0  0  0
    0.5271    8.0861    0.0000 Br  0  0  0  0  0  0  0  0  0  0  0  0
    1.3299    5.6152    0.0000 C   0  0  0  0  0  0  0  0  0  0  0  0
    0.3943    1.2135    0.0000 C   0  0  0  0  0  0  0  0  0  0  0  0
    1.2760    0.0000    0.0000 C   0  0  0  0  0  0  0  0  0  0  0  0
    0.3943   -1.2135    0.0000 C   0  0  0  0  0  0  0  0  0  0  0  0
    0.8578   -2.6401    0.0000 C   0  0  0  0  0  0  0  0  0  0  0  0
   -0.1459   -3.7548    0.0000 C   0  0  0  0  0  0  0  0  0  0  0  0
    0.3177   -5.1814    0.0000 C   0  0  0  0  0  0  0  0  0  0  0  0
   -0.6860   -6.2961    0.0000 C   0  0  0  0  0  0  0  0  0  0  0  0
   -0.2225   -7.7227    0.0000 C   0  0  0  0  0  0  0  0  0  0  0  0
    1.2447   -8.0346    0.0000 C   0  0  0  0  0  0  0  0  0  0  0  0
    2.2484   -6.9199    0.0000 C   0  0  0  0  0  0  0  0  0  0  0  0
    1.7849   -5.4933    0.0000 C   0  0  0  0  0  0  0  0  0  0  0  0
   -1.0323   -0.7500    0.0000 N   0  0  0  0  0  0  0  0  0  0  0  0
   -1.0323    0.7500    0.0000 C   0  0  0  0  0  0  0  0  0  0  0  0
   -2.1470    1.7537    0.0000 N   0  0  0  0  0  0  0  0  0  0  0  0
  1  2  1  0
  2  3  2  0
  3  4  1  0
  4  5  1  0
  5  6  1  0
  6  7  2  0
  7  8  1  0
  8  9  2  0
  9 10  1  0
 10 11  1  0
 10 12  2  0
  4 13  2  0
 13 14  1  0
 14 15  2  0
 15 16  1  0
 16 17  1  0
 17 18  1  0
 18 19  2  0
 19 20  1  0
 20 21  2  0
 21 22  1  0
 22 23  2  0
 15 24  1  0
 24 25  1  0
 25 26  2  0
 26  2  1  0
 12  6  1  0
 25 13  1  0
 23 18  1  0
M  END
>  <Compound_ID>  (370) 
CHEMBL485320

>  <Active>  (370) 
1.0

>  <Smiles>  (370) 
Nc1nc(Nc2cccc(Br)c2)c2cc(CCc3ccccc3)[nH]c2n1

>  <canonical_smi>  (370) 
Nc1nc(Nc2cccc(Br)c2)c2cc(CCc3ccccc3)[nH]c2n1

>  <Set>  (370) 
G2 active

>  <Set_type>  (370) 
Train

>  <MW>  (370) 
408.3

>  <HBD>  (370) 
3

>  <HBA>  (370) 
4

>  <NRB>  (370) 
5

>  <NR>  (370) 
4

>  <NAR>  (370) 
4

>  <PSA>  (370) 
79.62

>  <Standard Type>  (370) 
nan

>  <Standard Relation>  (370) 
nan

>  <Standard Units>  (370) 
nan

>  <Standard Value>  (370) 
nan

>  <Assay ChEMBL ID>  (370) 
nan

>  <Assay Description>  (370) 
nan

>  <BAO Label>  (370) 
nan

$$$$

     RDKit          2D

 27 30  0  0  0  0  0  0  0  0999 V2000
   -0.3363   -9.0724    0.0000 C   0  0  0  0  0  0  0  0  0  0  0  0
    1.0152   -8.4216    0.0000 O   0  0  0  0  0  0  0  0  0  0  0  0
    1.1273   -6.9258    0.0000 C   0  0  0  0  0  0  0  0  0  0  0  0
   -0.1121   -6.0808    0.0000 C   0  0  0  0  0  0  0  0  0  0  0  0
    0.0000   -4.5850    0.0000 C   0  0  0  0  0  0  0  0  0  0  0  0
    1.3515   -3.9342    0.0000 C   0  0  0  0  0  0  0  0  0  0  0  0
    2.5908   -4.7792    0.0000 C   0  0  0  0  0  0  0  0  0  0  0  0
    2.4787   -6.2750    0.0000 C   0  0  0  0  0  0  0  0  0  0  0  0
    3.7181   -7.1199    0.0000 O   0  0  0  0  0  0  0  0  0  0  0  0
    5.0695   -6.4691    0.0000 C   0  0  0  0  0  0  0  0  0  0  0  0
    1.6852   -2.4718    0.0000 O   0  0  0  0  0  0  0  0  0  0  0  0
    0.7500   -1.2990    0.0000 C   0  0  0  0  0  0  0  0  0  0  0  0
    1.5000    0.0000    0.0000 N   0  0  0  0  0  0  0  0  0  0  0  0
    0.7500    1.2990    0.0000 C   0  0  0  0  0  0  0  0  0  0  0  0
   -0.7500    1.2990    0.0000 N   0  0  0  0  0  0  0  0  0  0  0  0
   -1.5000    0.0000    0.0000 C   0  0  0  0  0  0  0  0  0  0  0  0
   -3.0000    0.0000    0.0000 N   0  0  0  0  0  0  0  0  0  0  0  0
   -3.7500    1.2990    0.0000 C   0  0  0  0  0  0  0  0  0  0  0  0
   -3.0000    2.5981    0.0000 C   0  0  0  0  0  0  0  0  0  0  0  0
   -3.7500    3.8971    0.0000 C   0  0  0  0  0  0  0  0  0  0  0  0
   -5.2500    3.8971    0.0000 C   0  0  0  0  0  0  0  0  0  0  0  0
   -6.0000    2.5981    0.0000 C   0  0  0  0  0  0  0  0  0  0  0  0
   -7.5000    2.5981    0.0000 Br  0  0  0  0  0  0  0  0  0  0  0  0
   -5.2500    1.2990    0.0000 C   0  0  0  0  0  0  0  0  0  0  0  0
   -0.7500   -1.2990    0.0000 C   0  0  0  0  0  0  0  0  0  0  0  0
   -1.6852   -2.4718    0.0000 N   0  0  0  0  0  0  0  0  0  0  0  0
   -1.3515   -3.9342    0.0000 C   0  0  0  0  0  0  0  0  0  0  0  0
  1  2  1  0
  2  3  1  0
  3  4  2  0
  4  5  1  0
  5  6  2  0
  6  7  1  0
  7  8  2  0
  8  9  1  0
  9 10  1  0
  6 11  1  0
 11 12  1  0
 12 13  2  0
 13 14  1  0
 14 15  2  0
 15 16  1  0
 16 17  1  0
 17 18  1  0
 18 19  2  0
 19 20  1  0
 20 21  2  0
 21 22  1  0
 22 23  1  0
 22 24  2  0
 16 25  2  0
 25 26  1  0
 26 27  1  0
  8  3  1  0
 25 12  1  0
 27  5  1  0
 24 18  1  0
M  END
>  <Compound_ID>  (371) 
CHEMBL380972

>  <Active>  (371) 
1.0

>  <Smiles>  (371) 
COc1cc2c(cc1OC)Oc1ncnc(Nc3cccc(Br)c3)c1NC2

>  <canonical_smi>  (371) 
COc1cc2c(cc1OC)Oc1ncnc(Nc3cccc(Br)c3)c1NC2

>  <Set>  (371) 
G2 active

>  <Set_type>  (371) 
Train

>  <MW>  (371) 
429.27

>  <HBD>  (371) 
2

>  <HBA>  (371) 
7

>  <NRB>  (371) 
4

>  <NR>  (371) 
4

>  <NAR>  (371) 
3

>  <PSA>  (371) 
77.53

>  <Standard Type>  (371) 
nan

>  <Standard Relation>  (371) 
nan

>  <Standard Units>  (371) 
nan

>  <Standard Value>  (371) 
nan

>  <Assay ChEMBL ID>  (371) 
nan

>  <Assay Description>  (371) 
nan

>  <BAO Label>  (371) 
nan

$$$$

     RDKit          2D

 21 23  0  0  0  0  0  0  0  0999 V2000
   -8.8353    7.7759    0.0000 C   0  0  0  0  0  0  0  0  0  0  0  0
   -7.7206    6.7722    0.0000 O   0  0  0  0  0  0  0  0  0  0  0  0
   -6.2940    7.2357    0.0000 N   0  0  0  0  0  0  0  0  0  0  0  0
   -5.1793    6.2320    0.0000 C   0  0  0  0  0  0  0  0  0  0  0  0
   -3.7527    6.6955    0.0000 C   0  0  0  0  0  0  0  0  0  0  0  0
   -3.4408    8.1628    0.0000 C   0  0  0  0  0  0  0  0  0  0  0  0
   -4.5556    9.1664    0.0000 N   0  0  0  0  0  0  0  0  0  0  0  0
   -2.0143    8.6263    0.0000 N   0  0  0  0  0  0  0  0  0  0  0  0
   -0.8995    7.6226    0.0000 C   0  0  0  0  0  0  0  0  0  0  0  0
   -1.2114    6.1554    0.0000 N   0  0  0  0  0  0  0  0  0  0  0  0
   -2.6380    5.6918    0.0000 C   0  0  0  0  0  0  0  0  0  0  0  0
   -2.9499    4.2246    0.0000 N   0  0  0  0  0  0  0  0  0  0  0  0
   -1.8351    3.2209    0.0000 C   0  0  0  0  0  0  0  0  0  0  0  0
   -0.4086    3.6844    0.0000 C   0  0  0  0  0  0  0  0  0  0  0  0
    0.7062    2.6807    0.0000 C   0  0  0  0  0  0  0  0  0  0  0  0
    0.3943    1.2135    0.0000 C   0  0  0  0  0  0  0  0  0  0  0  0
    1.2760    0.0000    0.0000 N   0  0  0  0  0  0  0  0  0  0  0  0
    0.3943   -1.2135    0.0000 N   0  0  0  0  0  0  0  0  0  0  0  0
   -1.0323   -0.7500    0.0000 C   0  0  0  0  0  0  0  0  0  0  0  0
   -1.0323    0.7500    0.0000 C   0  0  0  0  0  0  0  0  0  0  0  0
   -2.1470    1.7537    0.0000 C   0  0  0  0  0  0  0  0  0  0  0  0
  1  2  1  0
  2  3  1  0
  3  4  2  0
  4  5  1  0
  5  6  2  0
  6  7  1  0
  6  8  1  0
  8  9  2  0
  9 10  1  0
 10 11  2  0
 11 12  1  0
 12 13  1  0
 13 14  2  0
 14 15  1  0
 15 16  2  0
 16 17  1  0
 17 18  1  0
 18 19  2  0
 19 20  1  0
 20 21  2  0
 11  5  1  0
 21 13  1  0
 20 16  1  0
M  END
>  <Compound_ID>  (372) 
CHEMBL255866

>  <Active>  (372) 
1.0

>  <Smiles>  (372) 
CO/N=C/c1c(N)ncnc1Nc1ccc2[nH]ncc2c1

>  <canonical_smi>  (372) 
CO/N=C/c1c(N)ncnc1Nc1ccc2[nH]ncc2c1

>  <Set>  (372) 
G2 active

>  <Set_type>  (372) 
Train

>  <MW>  (372) 
283.3

>  <HBD>  (372) 
3

>  <HBA>  (372) 
6

>  <NRB>  (372) 
4

>  <NR>  (372) 
3

>  <NAR>  (372) 
3

>  <PSA>  (372) 
114.1

>  <Standard Type>  (372) 
nan

>  <Standard Relation>  (372) 
nan

>  <Standard Units>  (372) 
nan

>  <Standard Value>  (372) 
nan

>  <Assay ChEMBL ID>  (372) 
nan

>  <Assay Description>  (372) 
nan

>  <BAO Label>  (372) 
nan

$$$$

     RDKit          2D

 20 23  0  0  0  0  0  0  0  0999 V2000
    7.9083   -4.2844    0.0000 C   0  0  0  0  0  0  0  0  0  0  0  0
    6.6948   -5.1660    0.0000 C   0  0  0  0  0  0  0  0  0  0  0  0
    5.3245   -4.5559    0.0000 C   0  0  0  0  0  0  0  0  0  0  0  0
    5.1677   -3.0642    0.0000 C   0  0  0  0  0  0  0  0  0  0  0  0
    3.7974   -2.4540    0.0000 N   0  0  0  0  0  0  0  0  0  0  0  0
    2.5838   -3.3357    0.0000 C   0  0  0  0  0  0  0  0  0  0  0  0
    2.7406   -4.8275    0.0000 N   0  0  0  0  0  0  0  0  0  0  0  0
    1.5271   -5.7092    0.0000 C   0  0  0  0  0  0  0  0  0  0  0  0
    0.1568   -5.0991    0.0000 N   0  0  0  0  0  0  0  0  0  0  0  0
   -0.0000   -3.6073    0.0000 C   0  0  0  0  0  0  0  0  0  0  0  0
   -1.2135   -2.7256    0.0000 N   0  0  0  0  0  0  0  0  0  0  0  0
   -0.7500   -1.2990    0.0000 C   0  0  0  0  0  0  0  0  0  0  0  0
    0.7500   -1.2990    0.0000 C   0  0  0  0  0  0  0  0  0  0  0  0
    1.2135   -2.7256    0.0000 C   0  0  0  0  0  0  0  0  0  0  0  0
    1.5000    0.0000    0.0000 C   0  0  0  0  0  0  0  0  0  0  0  0
    0.7500    1.2990    0.0000 C   0  0  0  0  0  0  0  0  0  0  0  0
   -0.7500    1.2990    0.0000 C   0  0  0  0  0  0  0  0  0  0  0  0
   -1.5000    0.0000    0.0000 C   0  0  0  0  0  0  0  0  0  0  0  0
    6.3812   -2.1825    0.0000 C   0  0  0  0  0  0  0  0  0  0  0  0
    7.7515   -2.7926    0.0000 C   0  0  0  0  0  0  0  0  0  0  0  0
  1  2  2  0
  2  3  1  0
  3  4  2  0
  4  5  1  0
  5  6  1  0
  6  7  2  0
  7  8  1  0
  8  9  2  0
  9 10  1  0
 10 11  1  0
 11 12  1  0
 12 13  2  0
 13 14  1  0
 13 15  1  0
 15 16  1  0
 16 17  1  0
 17 18  1  0
  4 19  1  0
 19 20  2  0
 20  1  1  0
 14  6  1  0
 14 10  2  0
 18 12  1  0
M  END
>  <Compound_ID>  (373) 
CHEMBL433305

>  <Active>  (373) 
1.0

>  <Smiles>  (373) 
c1ccc(Nc2ncnc3[nH]c4c(c23)CCCC4)cc1

>  <canonical_smi>  (373) 
c1ccc(Nc2ncnc3[nH]c4c(c23)CCCC4)cc1

>  <Set>  (373) 
G2 active

>  <Set_type>  (373) 
Train

>  <MW>  (373) 
264.33

>  <HBD>  (373) 
2

>  <HBA>  (373) 
3

>  <NRB>  (373) 
2

>  <NR>  (373) 
4

>  <NAR>  (373) 
3

>  <PSA>  (373) 
53.6

>  <Standard Type>  (373) 
nan

>  <Standard Relation>  (373) 
nan

>  <Standard Units>  (373) 
nan

>  <Standard Value>  (373) 
nan

>  <Assay ChEMBL ID>  (373) 
nan

>  <Assay Description>  (373) 
nan

>  <BAO Label>  (373) 
nan

$$$$

     RDKit          2D

 27 30  0  0  0  0  0  0  0  0999 V2000
    7.5000   -2.5981    0.0000 F   0  0  0  0  0  0  0  0  0  0  0  0
    6.0000   -2.5981    0.0000 C   0  0  0  0  0  0  0  0  0  0  0  0
    5.2500   -3.8971    0.0000 C   0  0  0  0  0  0  0  0  0  0  0  0
    3.7500   -3.8971    0.0000 C   0  0  0  0  0  0  0  0  0  0  0  0
    3.0000   -2.5981    0.0000 C   0  0  0  0  0  0  0  0  0  0  0  0
    1.5000   -2.5981    0.0000 N   0  0  0  0  0  0  0  0  0  0  0  0
    0.7500   -1.2990    0.0000 C   0  0  0  0  0  0  0  0  0  0  0  0
    1.5000    0.0000    0.0000 N   0  0  0  0  0  0  0  0  0  0  0  0
    0.7500    1.2990    0.0000 C   0  0  0  0  0  0  0  0  0  0  0  0
   -0.7500    1.2990    0.0000 N   0  0  0  0  0  0  0  0  0  0  0  0
   -1.5000    0.0000    0.0000 C   0  0  0  0  0  0  0  0  0  0  0  0
   -3.0000    0.0000    0.0000 C   0  0  0  0  0  0  0  0  0  0  0  0
   -3.7500   -1.2990    0.0000 C   0  0  0  0  0  0  0  0  0  0  0  0
   -3.0000   -2.5981    0.0000 C   0  0  0  0  0  0  0  0  0  0  0  0
   -3.7500   -3.8971    0.0000 C   0  0  0  0  0  0  0  0  0  0  0  0
   -4.5000   -5.1962    0.0000 C   0  0  0  0  0  0  0  0  0  0  0  0
   -5.2500   -6.4952    0.0000 C   0  0  0  0  0  0  0  0  0  0  0  0
   -6.7500   -6.4952    0.0000 C   0  0  0  0  0  0  0  0  0  0  0  0
   -7.5000   -7.7942    0.0000 C   0  0  0  0  0  0  0  0  0  0  0  0
   -6.7500   -9.0933    0.0000 C   0  0  0  0  0  0  0  0  0  0  0  0
   -5.2500   -9.0933    0.0000 C   0  0  0  0  0  0  0  0  0  0  0  0
   -4.5000   -7.7942    0.0000 C   0  0  0  0  0  0  0  0  0  0  0  0
   -1.5000   -2.5981    0.0000 C   0  0  0  0  0  0  0  0  0  0  0  0
   -0.7500   -1.2990    0.0000 C   0  0  0  0  0  0  0  0  0  0  0  0
    3.7500   -1.2990    0.0000 C   0  0  0  0  0  0  0  0  0  0  0  0
    5.2500   -1.2990    0.0000 C   0  0  0  0  0  0  0  0  0  0  0  0
    6.0000   -0.0000    0.0000 Cl  0  0  0  0  0  0  0  0  0  0  0  0
  1  2  1  0
  2  3  2  0
  3  4  1  0
  4  5  2  0
  5  6  1  0
  6  7  1  0
  7  8  2  0
  8  9  1  0
  9 10  2  0
 10 11  1  0
 11 12  2  0
 12 13  1  0
 13 14  2  0
 14 15  1  0
 15 16  3  0
 16 17  1  0
 17 18  2  0
 18 19  1  0
 19 20  2  0
 20 21  1  0
 21 22  2  0
 14 23  1  0
 23 24  2  0
  5 25  1  0
 25 26  2  0
 26 27  1  0
 26  2  1  0
 24  7  1  0
 24 11  1  0
 22 17  1  0
M  END
>  <Compound_ID>  (374) 
CHEMBL249511

>  <Active>  (374) 
1.0

>  <Smiles>  (374) 
Fc1ccc(Nc2ncnc3ccc(C#Cc4ccccc4)cc23)cc1Cl

>  <canonical_smi>  (374) 
Fc1ccc(Nc2ncnc3ccc(C#Cc4ccccc4)cc23)cc1Cl

>  <Set>  (374) 
G2 active

>  <Set_type>  (374) 
Train

>  <MW>  (374) 
373.82

>  <HBD>  (374) 
1

>  <HBA>  (374) 
3

>  <NRB>  (374) 
2

>  <NR>  (374) 
4

>  <NAR>  (374) 
4

>  <PSA>  (374) 
37.81

>  <Standard Type>  (374) 
nan

>  <Standard Relation>  (374) 
nan

>  <Standard Units>  (374) 
nan

>  <Standard Value>  (374) 
nan

>  <Assay ChEMBL ID>  (374) 
nan

>  <Assay Description>  (374) 
nan

>  <BAO Label>  (374) 
nan

$$$$

     RDKit          2D

 33 37  0  0  0  0  0  0  0  0999 V2000
    0.7500   -6.4952    0.0000 C   0  0  0  0  0  0  0  0  0  0  0  0
    1.5000   -5.1962    0.0000 O   0  0  0  0  0  0  0  0  0  0  0  0
    0.7500   -3.8971    0.0000 C   0  0  0  0  0  0  0  0  0  0  0  0
    1.5000   -2.5981    0.0000 C   0  0  0  0  0  0  0  0  0  0  0  0
    0.7500   -1.2990    0.0000 C   0  0  0  0  0  0  0  0  0  0  0  0
    1.5000    0.0000    0.0000 N   0  0  0  0  0  0  0  0  0  0  0  0
    0.7500    1.2990    0.0000 C   0  0  0  0  0  0  0  0  0  0  0  0
   -0.7500    1.2990    0.0000 N   0  0  0  0  0  0  0  0  0  0  0  0
   -1.5000    0.0000    0.0000 C   0  0  0  0  0  0  0  0  0  0  0  0
   -3.0000    0.0000    0.0000 C   0  0  0  0  0  0  0  0  0  0  0  0
   -3.8817   -1.2135    0.0000 C   0  0  0  0  0  0  0  0  0  0  0  0
   -5.3083   -0.7500    0.0000 N   0  0  0  0  0  0  0  0  0  0  0  0
   -5.3083    0.7500    0.0000 C   0  0  0  0  0  0  0  0  0  0  0  0
   -6.4230    1.7537    0.0000 C   0  0  0  0  0  0  0  0  0  0  0  0
   -6.1111    3.2209    0.0000 C   0  0  0  0  0  0  0  0  0  0  0  0
   -7.2258    4.2246    0.0000 F   0  0  0  0  0  0  0  0  0  0  0  0
   -4.6845    3.6844    0.0000 C   0  0  0  0  0  0  0  0  0  0  0  0
   -4.3727    5.1517    0.0000 Cl  0  0  0  0  0  0  0  0  0  0  0  0
   -3.5698    2.6807    0.0000 C   0  0  0  0  0  0  0  0  0  0  0  0
   -3.8817    1.2135    0.0000 C   0  0  0  0  0  0  0  0  0  0  0  0
   -0.7500   -1.2990    0.0000 C   0  0  0  0  0  0  0  0  0  0  0  0
   -1.5000   -2.5981    0.0000 C   0  0  0  0  0  0  0  0  0  0  0  0
   -0.7500   -3.8971    0.0000 C   0  0  0  0  0  0  0  0  0  0  0  0
   -1.5000   -5.1962    0.0000 O   0  0  0  0  0  0  0  0  0  0  0  0
   -3.0000   -5.1962    0.0000 C   0  0  0  0  0  0  0  0  0  0  0  0
   -3.7500   -6.4952    0.0000 C   0  0  0  0  0  0  0  0  0  0  0  0
   -5.2500   -6.4952    0.0000 C   0  0  0  0  0  0  0  0  0  0  0  0
   -6.0000   -7.7942    0.0000 N   0  0  0  0  0  0  0  0  0  0  0  0
   -7.5000   -7.7942    0.0000 C   0  0  0  0  0  0  0  0  0  0  0  0
   -8.2500   -9.0933    0.0000 C   0  0  0  0  0  0  0  0  0  0  0  0
   -7.5000  -10.3923    0.0000 O   0  0  0  0  0  0  0  0  0  0  0  0
   -6.0000  -10.3923    0.0000 C   0  0  0  0  0  0  0  0  0  0  0  0
   -5.2500   -9.0933    0.0000 C   0  0  0  0  0  0  0  0  0  0  0  0
  1  2  1  0
  2  3  1  0
  3  4  2  0
  4  5  1  0
  5  6  2  0
  6  7  1  0
  7  8  2  0
  8  9  1  0
  9 10  1  0
 10 11  2  0
 11 12  1  0
 12 13  1  0
 13 14  2  0
 14 15  1  0
 15 16  1  0
 15 17  2  0
 17 18  1  0
 17 19  1  0
 19 20  2  0
  9 21  2  0
 21 22  1  0
 22 23  2  0
 23 24  1  0
 24 25  1  0
 25 26  1  0
 26 27  1  0
 27 28  1  0
 28 29  1  0
 29 30  1  0
 30 31  1  0
 31 32  1  0
 32 33  1  0
 23  3  1  0
 33 28  1  0
 21  5  1  0
 20 10  1  0
 20 13  1  0
M  END
>  <Compound_ID>  (375) 
CHEMBL474524

>  <Active>  (375) 
1.0

>  <Smiles>  (375) 
COc1cc2ncnc(-c3c[nH]c4cc(F)c(Cl)cc34)c2cc1OCCCN1CCOCC1

>  <canonical_smi>  (375) 
COc1cc2ncnc(-c3c[nH]c4cc(F)c(Cl)cc34)c2cc1OCCCN1CCOCC1

>  <Set>  (375) 
G2 active

>  <Set_type>  (375) 
Train

>  <MW>  (375) 
470.93

>  <HBD>  (375) 
1

>  <HBA>  (375) 
6

>  <NRB>  (375) 
7

>  <NR>  (375) 
5

>  <NAR>  (375) 
4

>  <PSA>  (375) 
72.5

>  <Standard Type>  (375) 
nan

>  <Standard Relation>  (375) 
nan

>  <Standard Units>  (375) 
nan

>  <Standard Value>  (375) 
nan

>  <Assay ChEMBL ID>  (375) 
nan

>  <Assay Description>  (375) 
nan

>  <BAO Label>  (375) 
nan

$$$$

     RDKit          2D

 40 44  0  0  0  0  0  0  0  0999 V2000
    3.7500   -1.2990    0.0000 C   0  0  0  0  0  0  0  0  0  0  0  0
    3.0000    0.0000    0.0000 O   0  0  0  0  0  0  0  0  0  0  0  0
    1.5000    0.0000    0.0000 C   0  0  0  0  0  0  0  0  0  0  0  0
    0.7500   -1.2990    0.0000 C   0  0  0  0  0  0  0  0  0  0  0  0
   -0.7500   -1.2990    0.0000 C   0  0  0  0  0  0  0  0  0  0  0  0
   -1.5000   -2.5981    0.0000 N   0  0  0  0  0  0  0  0  0  0  0  0
   -3.0000   -2.5981    0.0000 C   0  0  0  0  0  0  0  0  0  0  0  0
   -3.7500   -1.2990    0.0000 C   0  0  0  0  0  0  0  0  0  0  0  0
   -5.2500   -1.2990    0.0000 C   0  0  0  0  0  0  0  0  0  0  0  0
   -6.7500   -1.2990    0.0000 N   0  0  0  0  0  0  0  0  0  0  0  0
   -3.0000    0.0000    0.0000 C   0  0  0  0  0  0  0  0  0  0  0  0
   -3.7500    1.2990    0.0000 N   0  0  0  0  0  0  0  0  0  0  0  0
   -3.0000    2.5981    0.0000 C   0  0  0  0  0  0  0  0  0  0  0  0
   -1.5000    2.5981    0.0000 C   0  0  0  0  0  0  0  0  0  0  0  0
   -0.7500    3.8971    0.0000 C   0  0  0  0  0  0  0  0  0  0  0  0
   -1.5000    5.1962    0.0000 C   0  0  0  0  0  0  0  0  0  0  0  0
   -3.0000    5.1962    0.0000 C   0  0  0  0  0  0  0  0  0  0  0  0
   -3.4635    6.6227    0.0000 C   0  0  0  0  0  0  0  0  0  0  0  0
   -2.2500    7.5044    0.0000 N   0  0  0  0  0  0  0  0  0  0  0  0
   -1.0365    6.6227    0.0000 N   0  0  0  0  0  0  0  0  0  0  0  0
    0.3901    7.0863    0.0000 C   0  0  0  0  0  0  0  0  0  0  0  0
    0.7020    8.5535    0.0000 C   0  0  0  0  0  0  0  0  0  0  0  0
    2.1286    9.0170    0.0000 C   0  0  0  0  0  0  0  0  0  0  0  0
    2.4404   10.4842    0.0000 C   0  0  0  0  0  0  0  0  0  0  0  0
    1.3257   11.4879    0.0000 C   0  0  0  0  0  0  0  0  0  0  0  0
   -0.1009   11.0244    0.0000 C   0  0  0  0  0  0  0  0  0  0  0  0
   -0.4127    9.5572    0.0000 C   0  0  0  0  0  0  0  0  0  0  0  0
   -3.7500    3.8971    0.0000 C   0  0  0  0  0  0  0  0  0  0  0  0
   -1.5000    0.0000    0.0000 C   0  0  0  0  0  0  0  0  0  0  0  0
   -0.7500    1.2990    0.0000 C   0  0  0  0  0  0  0  0  0  0  0  0
    0.7500    1.2990    0.0000 C   0  0  0  0  0  0  0  0  0  0  0  0
    1.5000    2.5981    0.0000 N   0  0  0  0  0  0  0  0  0  0  0  0
    3.0000    2.5981    0.0000 C   0  0  0  0  0  0  0  0  0  0  0  0
    3.7500    1.2990    0.0000 O   0  0  0  0  0  0  0  0  0  0  0  0
    3.7500    3.8971    0.0000 C   0  0  0  0  0  0  0  0  0  0  0  0
    5.2500    3.8971    0.0000 C   0  0  0  0  0  0  0  0  0  0  0  0
    6.0000    5.1962    0.0000 C   0  0  0  0  0  0  0  0  0  0  0  0
    7.5000    5.1962    0.0000 N   0  0  0  0  0  0  0  0  0  0  0  0
    8.2500    6.4952    0.0000 C   0  0  0  0  0  0  0  0  0  0  0  0
    8.2500    3.8971    0.0000 C   0  0  0  0  0  0  0  0  0  0  0  0
  1  2  1  0
  2  3  1  0
  3  4  2  0
  4  5  1  0
  5  6  2  0
  6  7  1  0
  7  8  2  0
  8  9  1  0
  9 10  3  0
  8 11  1  0
 11 12  1  0
 12 13  1  0
 13 14  2  0
 14 15  1  0
 15 16  2  0
 16 17  1  0
 17 18  1  0
 18 19  2  0
 19 20  1  0
 20 21  1  0
 21 22  1  0
 22 23  2  0
 23 24  1  0
 24 25  2  0
 25 26  1  0
 26 27  2  0
 17 28  2  0
 11 29  2  0
 29 30  1  0
 30 31  2  0
 31 32  1  0
 32 33  1  0
 33 34  2  0
 33 35  1  0
 35 36  2  0
 36 37  1  0
 37 38  1  0
 38 39  1  0
 38 40  1  0
 31  3  1  0
 29  5  1  0
 28 13  1  0
 20 16  1  0
 27 22  1  0
M  END
>  <Compound_ID>  (376) 
CHEMBL180227

>  <Active>  (376) 
1.0

>  <Smiles>  (376) 
COc1cc2ncc(C#N)c(Nc3ccc4c(cnn4Cc4ccccc4)c3)c2cc1NC(=O)/C=C/CN(C)C

>  <canonical_smi>  (376) 
COc1cc2ncc(C#N)c(Nc3ccc4c(cnn4Cc4ccccc4)c3)c2cc1NC(=O)/C=C/CN(C)C

>  <Set>  (376) 
G2 active

>  <Set_type>  (376) 
Train

>  <MW>  (376) 
531.62

>  <HBD>  (376) 
2

>  <HBA>  (376) 
7

>  <NRB>  (376) 
9

>  <NR>  (376) 
5

>  <NAR>  (376) 
5

>  <PSA>  (376) 
108.1

>  <Standard Type>  (376) 
nan

>  <Standard Relation>  (376) 
nan

>  <Standard Units>  (376) 
nan

>  <Standard Value>  (376) 
nan

>  <Assay ChEMBL ID>  (376) 
nan

>  <Assay Description>  (376) 
nan

>  <BAO Label>  (376) 
nan

$$$$

     RDKit          2D

 41 45  0  0  0  0  0  0  0  0999 V2000
    5.2500   -1.2990    0.0000 C   0  0  0  0  0  0  0  0  0  0  0  0
    3.7500   -1.2990    0.0000 C   0  0  0  0  0  0  0  0  0  0  0  0
    3.0000    0.0000    0.0000 O   0  0  0  0  0  0  0  0  0  0  0  0
    1.5000    0.0000    0.0000 C   0  0  0  0  0  0  0  0  0  0  0  0
    0.7500   -1.2990    0.0000 C   0  0  0  0  0  0  0  0  0  0  0  0
   -0.7500   -1.2990    0.0000 C   0  0  0  0  0  0  0  0  0  0  0  0
   -1.5000   -2.5981    0.0000 N   0  0  0  0  0  0  0  0  0  0  0  0
   -3.0000   -2.5981    0.0000 C   0  0  0  0  0  0  0  0  0  0  0  0
   -3.7500   -1.2990    0.0000 C   0  0  0  0  0  0  0  0  0  0  0  0
   -5.2500   -1.2990    0.0000 C   0  0  0  0  0  0  0  0  0  0  0  0
   -6.7500   -1.2990    0.0000 N   0  0  0  0  0  0  0  0  0  0  0  0
   -3.0000    0.0000    0.0000 C   0  0  0  0  0  0  0  0  0  0  0  0
   -3.7500    1.2990    0.0000 N   0  0  0  0  0  0  0  0  0  0  0  0
   -3.0000    2.5981    0.0000 C   0  0  0  0  0  0  0  0  0  0  0  0
   -1.5000    2.5981    0.0000 C   0  0  0  0  0  0  0  0  0  0  0  0
   -0.7500    3.8971    0.0000 C   0  0  0  0  0  0  0  0  0  0  0  0
   -1.5000    5.1962    0.0000 C   0  0  0  0  0  0  0  0  0  0  0  0
   -3.0000    5.1962    0.0000 C   0  0  0  0  0  0  0  0  0  0  0  0
   -3.7500    3.8971    0.0000 C   0  0  0  0  0  0  0  0  0  0  0  0
   -3.4635    6.6227    0.0000 C   0  0  0  0  0  0  0  0  0  0  0  0
   -2.2500    7.5044    0.0000 C   0  0  0  0  0  0  0  0  0  0  0  0
   -1.0365    6.6227    0.0000 N   0  0  0  0  0  0  0  0  0  0  0  0
    0.3901    7.0863    0.0000 C   0  0  0  0  0  0  0  0  0  0  0  0
    0.7020    8.5535    0.0000 C   0  0  0  0  0  0  0  0  0  0  0  0
    2.1286    9.0170    0.0000 C   0  0  0  0  0  0  0  0  0  0  0  0
    2.4404   10.4842    0.0000 C   0  0  0  0  0  0  0  0  0  0  0  0
    1.3257   11.4879    0.0000 C   0  0  0  0  0  0  0  0  0  0  0  0
   -0.1009   11.0244    0.0000 C   0  0  0  0  0  0  0  0  0  0  0  0
   -0.4127    9.5572    0.0000 C   0  0  0  0  0  0  0  0  0  0  0  0
   -1.5000    0.0000    0.0000 C   0  0  0  0  0  0  0  0  0  0  0  0
   -0.7500    1.2990    0.0000 C   0  0  0  0  0  0  0  0  0  0  0  0
    0.7500    1.2990    0.0000 C   0  0  0  0  0  0  0  0  0  0  0  0
    1.5000    2.5981    0.0000 N   0  0  0  0  0  0  0  0  0  0  0  0
    3.0000    2.5981    0.0000 C   0  0  0  0  0  0  0  0  0  0  0  0
    3.7500    1.2990    0.0000 O   0  0  0  0  0  0  0  0  0  0  0  0
    3.7500    3.8971    0.0000 C   0  0  0  0  0  0  0  0  0  0  0  0
    5.2500    3.8971    0.0000 C   0  0  0  0  0  0  0  0  0  0  0  0
    6.0000    5.1962    0.0000 C   0  0  0  0  0  0  0  0  0  0  0  0
    7.5000    5.1962    0.0000 N   0  0  0  0  0  0  0  0  0  0  0  0
    8.2500    6.4952    0.0000 C   0  0  0  0  0  0  0  0  0  0  0  0
    8.2500    3.8971    0.0000 C   0  0  0  0  0  0  0  0  0  0  0  0
  1  2  1  0
  2  3  1  0
  3  4  1  0
  4  5  2  0
  5  6  1  0
  6  7  2  0
  7  8  1  0
  8  9  2  0
  9 10  1  0
 10 11  3  0
  9 12  1  0
 12 13  1  0
 13 14  1  0
 14 15  2  0
 15 16  1  0
 16 17  2  0
 17 18  1  0
 18 19  2  0
 18 20  1  0
 20 21  1  0
 21 22  1  0
 22 23  1  0
 23 24  1  0
 24 25  2  0
 25 26  1  0
 26 27  2  0
 27 28  1  0
 28 29  2  0
 12 30  2  0
 30 31  1  0
 31 32  2  0
 32 33  1  0
 33 34  1  0
 34 35  2  0
 34 36  1  0
 36 37  2  0
 37 38  1  0
 38 39  1  0
 39 40  1  0
 39 41  1  0
 32  4  1  0
 30  6  1  0
 19 14  1  0
 29 24  1  0
 22 17  1  0
M  END
>  <Compound_ID>  (377) 
CHEMBL179310

>  <Active>  (377) 
1.0

>  <Smiles>  (377) 
CCOc1cc2ncc(C#N)c(Nc3ccc4c(c3)CCN4Cc3ccccc3)c2cc1NC(=O)/C=C/CN(C)C

>  <canonical_smi>  (377) 
CCOc1cc2ncc(C#N)c(Nc3ccc4c(c3)CCN4Cc3ccccc3)c2cc1NC(=O)/C=C/CN(C)C

>  <Set>  (377) 
G2 active

>  <Set_type>  (377) 
Train

>  <MW>  (377) 
546.68

>  <HBD>  (377) 
2

>  <HBA>  (377) 
7

>  <NRB>  (377) 
10

>  <NR>  (377) 
5

>  <NAR>  (377) 
4

>  <PSA>  (377) 
93.52

>  <Standard Type>  (377) 
nan

>  <Standard Relation>  (377) 
nan

>  <Standard Units>  (377) 
nan

>  <Standard Value>  (377) 
nan

>  <Assay ChEMBL ID>  (377) 
nan

>  <Assay Description>  (377) 
nan

>  <BAO Label>  (377) 
nan

$$$$

     RDKit          2D

 40 43  0  0  0  0  0  0  0  0999 V2000
    5.2500   -1.2990    0.0000 C   0  0  0  0  0  0  0  0  0  0  0  0
    3.7500   -1.2990    0.0000 C   0  0  0  0  0  0  0  0  0  0  0  0
    3.0000    0.0000    0.0000 O   0  0  0  0  0  0  0  0  0  0  0  0
    1.5000    0.0000    0.0000 C   0  0  0  0  0  0  0  0  0  0  0  0
    0.7500   -1.2990    0.0000 C   0  0  0  0  0  0  0  0  0  0  0  0
   -0.7500   -1.2990    0.0000 C   0  0  0  0  0  0  0  0  0  0  0  0
   -1.5000   -2.5981    0.0000 N   0  0  0  0  0  0  0  0  0  0  0  0
   -3.0000   -2.5981    0.0000 C   0  0  0  0  0  0  0  0  0  0  0  0
   -3.7500   -1.2990    0.0000 C   0  0  0  0  0  0  0  0  0  0  0  0
   -5.2500   -1.2990    0.0000 C   0  0  0  0  0  0  0  0  0  0  0  0
   -6.7500   -1.2990    0.0000 N   0  0  0  0  0  0  0  0  0  0  0  0
   -3.0000    0.0000    0.0000 C   0  0  0  0  0  0  0  0  0  0  0  0
   -3.7500    1.2990    0.0000 N   0  0  0  0  0  0  0  0  0  0  0  0
   -3.0000    2.5981    0.0000 C   0  0  0  0  0  0  0  0  0  0  0  0
   -1.5000    2.5981    0.0000 C   0  0  0  0  0  0  0  0  0  0  0  0
   -0.7500    3.8971    0.0000 C   0  0  0  0  0  0  0  0  0  0  0  0
   -1.5000    5.1962    0.0000 C   0  0  0  0  0  0  0  0  0  0  0  0
   -0.7500    6.4952    0.0000 O   0  0  0  0  0  0  0  0  0  0  0  0
    0.7500    6.4952    0.0000 C   0  0  0  0  0  0  0  0  0  0  0  0
    1.5000    7.7942    0.0000 C   0  0  0  0  0  0  0  0  0  0  0  0
    3.0000    7.7942    0.0000 C   0  0  0  0  0  0  0  0  0  0  0  0
    3.7500    9.0933    0.0000 C   0  0  0  0  0  0  0  0  0  0  0  0
    3.0000   10.3923    0.0000 C   0  0  0  0  0  0  0  0  0  0  0  0
    1.5000   10.3923    0.0000 N   0  0  0  0  0  0  0  0  0  0  0  0
    0.7500    9.0933    0.0000 C   0  0  0  0  0  0  0  0  0  0  0  0
   -3.0000    5.1962    0.0000 C   0  0  0  0  0  0  0  0  0  0  0  0
   -3.7500    6.4952    0.0000 Cl  0  0  0  0  0  0  0  0  0  0  0  0
   -3.7500    3.8971    0.0000 C   0  0  0  0  0  0  0  0  0  0  0  0
   -1.5000    0.0000    0.0000 C   0  0  0  0  0  0  0  0  0  0  0  0
   -0.7500    1.2990    0.0000 C   0  0  0  0  0  0  0  0  0  0  0  0
    0.7500    1.2990    0.0000 C   0  0  0  0  0  0  0  0  0  0  0  0
    1.5000    2.5981    0.0000 N   0  0  0  0  0  0  0  0  0  0  0  0
    3.0000    2.5981    0.0000 C   0  0  0  0  0  0  0  0  0  0  0  0
    3.7500    1.2990    0.0000 O   0  0  0  0  0  0  0  0  0  0  0  0
    3.7500    3.8971    0.0000 C   0  0  0  0  0  0  0  0  0  0  0  0
    5.2500    3.8971    0.0000 C   0  0  0  0  0  0  0  0  0  0  0  0
    6.0000    5.1962    0.0000 C   0  0  0  0  0  0  0  0  0  0  0  0
    7.5000    5.1962    0.0000 N   0  0  0  0  0  0  0  0  0  0  0  0
    8.2500    6.4952    0.0000 C   0  0  0  0  0  0  0  0  0  0  0  0
    8.2500    3.8971    0.0000 C   0  0  0  0  0  0  0  0  0  0  0  0
  1  2  1  0
  2  3  1  0
  3  4  1  0
  4  5  2  0
  5  6  1  0
  6  7  2  0
  7  8  1  0
  8  9  2  0
  9 10  1  0
 10 11  3  0
  9 12  1  0
 12 13  1  0
 13 14  1  0
 14 15  2  0
 15 16  1  0
 16 17  2  0
 17 18  1  0
 18 19  1  0
 19 20  1  0
 20 21  2  0
 21 22  1  0
 22 23  2  0
 23 24  1  0
 24 25  2  0
 17 26  1  0
 26 27  1  0
 26 28  2  0
 12 29  2  0
 29 30  1  0
 30 31  2  0
 31 32  1  0
 32 33  1  0
 33 34  2  0
 33 35  1  0
 35 36  2  0
 36 37  1  0
 37 38  1  0
 38 39  1  0
 38 40  1  0
 31  4  1  0
 29  6  1  0
 28 14  1  0
 25 20  1  0
M  END
>  <Compound_ID>  (378) 
CHEMBL179313

>  <Active>  (378) 
1.0

>  <Smiles>  (378) 
CCOc1cc2ncc(C#N)c(Nc3ccc(OCc4cccnc4)c(Cl)c3)c2cc1NC(=O)/C=C/CN(C)C

>  <canonical_smi>  (378) 
CCOc1cc2ncc(C#N)c(Nc3ccc(OCc4cccnc4)c(Cl)c3)c2cc1NC(=O)/C=C/CN(C)C

>  <Set>  (378) 
G2 active

>  <Set_type>  (378) 
Train

>  <MW>  (378) 
557.05

>  <HBD>  (378) 
2

>  <HBA>  (378) 
8

>  <NRB>  (378) 
11

>  <NR>  (378) 
4

>  <NAR>  (378) 
4

>  <PSA>  (378) 
112.4

>  <Standard Type>  (378) 
nan

>  <Standard Relation>  (378) 
nan

>  <Standard Units>  (378) 
nan

>  <Standard Value>  (378) 
nan

>  <Assay ChEMBL ID>  (378) 
nan

>  <Assay Description>  (378) 
nan

>  <BAO Label>  (378) 
nan

$$$$

     RDKit          2D

 27 29  0  0  0  0  0  0  0  0999 V2000
    1.2990  -11.8573    0.0000 C   0  0  0  0  0  0  0  0  0  0  0  0
    1.2990  -10.3573    0.0000 O   0  0  0  0  0  0  0  0  0  0  0  0
   -0.0000   -9.6073    0.0000 C   0  0  0  0  0  0  0  0  0  0  0  0
   -1.2990  -10.3573    0.0000 C   0  0  0  0  0  0  0  0  0  0  0  0
   -2.5981   -9.6073    0.0000 C   0  0  0  0  0  0  0  0  0  0  0  0
   -3.8971  -10.3573    0.0000 C   0  0  0  0  0  0  0  0  0  0  0  0
   -3.8971  -11.8573    0.0000 C   0  0  0  0  0  0  0  0  0  0  0  0
   -2.5981  -12.6073    0.0000 C   0  0  0  0  0  0  0  0  0  0  0  0
   -1.2990  -13.3573    0.0000 N   0  0  0  0  0  0  0  0  0  0  0  0
   -5.1962  -12.6073    0.0000 C   0  0  0  0  0  0  0  0  0  0  0  0
   -6.4952  -11.8573    0.0000 N   0  0  0  0  0  0  0  0  0  0  0  0
   -5.1962  -14.1073    0.0000 O   0  0  0  0  0  0  0  0  0  0  0  0
   -2.5981   -8.1073    0.0000 C   0  0  0  0  0  0  0  0  0  0  0  0
   -1.2990   -7.3573    0.0000 C   0  0  0  0  0  0  0  0  0  0  0  0
   -1.2990   -5.8573    0.0000 C   0  0  0  0  0  0  0  0  0  0  0  0
   -0.0000   -5.1073    0.0000 S   0  0  0  0  0  0  0  0  0  0  0  0
   -0.0000   -3.6073    0.0000 C   0  0  0  0  0  0  0  0  0  0  0  0
    1.2135   -2.7256    0.0000 N   0  0  0  0  0  0  0  0  0  0  0  0
    0.7500   -1.2990    0.0000 C   0  0  0  0  0  0  0  0  0  0  0  0
    1.5000    0.0000    0.0000 C   0  0  0  0  0  0  0  0  0  0  0  0
    0.7500    1.2990    0.0000 C   0  0  0  0  0  0  0  0  0  0  0  0
   -0.7500    1.2990    0.0000 C   0  0  0  0  0  0  0  0  0  0  0  0
   -1.5000    0.0000    0.0000 C   0  0  0  0  0  0  0  0  0  0  0  0
   -0.7500   -1.2990    0.0000 C   0  0  0  0  0  0  0  0  0  0  0  0
   -1.2135   -2.7256    0.0000 S   0  0  0  0  0  0  0  0  0  0  0  0
   -0.0000   -8.1073    0.0000 C   0  0  0  0  0  0  0  0  0  0  0  0
    1.2990   -7.3573    0.0000 O   0  0  0  0  0  0  0  0  0  0  0  0
  1  2  1  0
  2  3  1  0
  3  4  2  0
  4  5  1  0
  5  6  1  0
  6  7  2  0
  7  8  1  0
  8  9  3  0
  7 10  1  0
 10 11  1  0
 10 12  2  0
  5 13  2  0
 13 14  1  0
 14 15  1  0
 15 16  1  0
 16 17  1  0
 17 18  2  0
 18 19  1  0
 19 20  2  0
 20 21  1  0
 21 22  2  0
 22 23  1  0
 23 24  2  0
 24 25  1  0
 14 26  2  0
 26 27  1  0
 26  3  1  0
 25 17  1  0
 24 19  1  0
M  END
>  <Compound_ID>  (379) 
CHEMBL118109

>  <Active>  (379) 
1.0

>  <Smiles>  (379) 
COc1cc(/C=C(\C#N)C(N)=O)cc(CSc2nc3ccccc3s2)c1O

>  <canonical_smi>  (379) 
COc1cc(/C=C(\C#N)C(N)=O)cc(CSc2nc3ccccc3s2)c1O

>  <Set>  (379) 
G2 active

>  <Set_type>  (379) 
Train

>  <MW>  (379) 
397.48

>  <HBD>  (379) 
2

>  <HBA>  (379) 
6

>  <NRB>  (379) 
6

>  <NR>  (379) 
3

>  <NAR>  (379) 
3

>  <PSA>  (379) 
109.23

>  <Standard Type>  (379) 
nan

>  <Standard Relation>  (379) 
nan

>  <Standard Units>  (379) 
nan

>  <Standard Value>  (379) 
nan

>  <Assay ChEMBL ID>  (379) 
nan

>  <Assay Description>  (379) 
nan

>  <BAO Label>  (379) 
nan

$$$$

     RDKit          2D

 32 36  0  0  0  0  0  0  0  0999 V2000
    3.7500   -1.2990    0.0000 C   0  0  0  0  0  0  0  0  0  0  0  0
    3.0000    0.0000    0.0000 O   0  0  0  0  0  0  0  0  0  0  0  0
    1.5000    0.0000    0.0000 C   0  0  0  0  0  0  0  0  0  0  0  0
    0.7500   -1.2990    0.0000 C   0  0  0  0  0  0  0  0  0  0  0  0
   -0.7500   -1.2990    0.0000 C   0  0  0  0  0  0  0  0  0  0  0  0
   -1.5000   -2.5981    0.0000 C   0  0  0  0  0  0  0  0  0  0  0  0
   -0.7500   -3.8971    0.0000 N   0  0  0  0  0  0  0  0  0  0  0  0
   -1.5000   -5.1962    0.0000 C   0  0  0  0  0  0  0  0  0  0  0  0
   -2.7990   -5.9462    0.0000 C   0  0  0  0  0  0  0  0  0  0  0  0
   -1.5000   -6.6962    0.0000 C   0  0  0  0  0  0  0  0  0  0  0  0
   -0.7500   -7.9952    0.0000 C   0  0  0  0  0  0  0  0  0  0  0  0
    0.7500   -7.9952    0.0000 C   0  0  0  0  0  0  0  0  0  0  0  0
    1.5000   -9.2942    0.0000 C   0  0  0  0  0  0  0  0  0  0  0  0
    0.7500  -10.5933    0.0000 C   0  0  0  0  0  0  0  0  0  0  0  0
   -0.7500  -10.5933    0.0000 C   0  0  0  0  0  0  0  0  0  0  0  0
   -1.5000   -9.2942    0.0000 C   0  0  0  0  0  0  0  0  0  0  0  0
   -3.0000   -2.5981    0.0000 C   0  0  0  0  0  0  0  0  0  0  0  0
   -3.7500   -3.8971    0.0000 C   0  0  0  0  0  0  0  0  0  0  0  0
   -4.5000   -5.1962    0.0000 N   0  0  0  0  0  0  0  0  0  0  0  0
   -3.7500   -1.2990    0.0000 C   0  0  0  0  0  0  0  0  0  0  0  0
   -3.0000    0.0000    0.0000 N   0  0  0  0  0  0  0  0  0  0  0  0
   -1.5000    0.0000    0.0000 C   0  0  0  0  0  0  0  0  0  0  0  0
   -0.7500    1.2990    0.0000 C   0  0  0  0  0  0  0  0  0  0  0  0
    0.7500    1.2990    0.0000 C   0  0  0  0  0  0  0  0  0  0  0  0
    1.5000    2.5981    0.0000 O   0  0  0  0  0  0  0  0  0  0  0  0
    0.7500    3.8971    0.0000 C   0  0  0  0  0  0  0  0  0  0  0  0
    1.5000    5.1962    0.0000 C   0  0  0  0  0  0  0  0  0  0  0  0
    0.7500    6.4952    0.0000 C   0  0  0  0  0  0  0  0  0  0  0  0
   -0.7500    6.4952    0.0000 N   0  0  0  0  0  0  0  0  0  0  0  0
   -1.5000    7.7942    0.0000 C   0  0  0  0  0  0  0  0  0  0  0  0
   -1.5000    5.1962    0.0000 C   0  0  0  0  0  0  0  0  0  0  0  0
   -0.7500    3.8971    0.0000 C   0  0  0  0  0  0  0  0  0  0  0  0
  1  2  1  0
  2  3  1  0
  3  4  2  0
  4  5  1  0
  5  6  2  0
  6  7  1  0
  8  7  1  1
  8  9  1  0
  9 10  1  0
 10 11  1  6
 11 12  2  0
 12 13  1  0
 13 14  2  0
 14 15  1  0
 15 16  2  0
  6 17  1  0
 17 18  1  0
 18 19  3  0
 17 20  2  0
 20 21  1  0
 21 22  2  0
 22 23  1  0
 23 24  2  0
 24 25  1  0
 25 26  1  0
 26 27  1  0
 27 28  1  0
 28 29  1  0
 29 30  1  0
 29 31  1  0
 31 32  1  0
 24  3  1  0
 32 26  1  0
 22  5  1  0
 10  8  1  0
 16 11  1  0
M  END
>  <Compound_ID>  (380) 
CHEMBL245798

>  <Active>  (380) 
1.0

>  <Smiles>  (380) 
COc1cc2c(N[C@@H]3C[C@H]3c3ccccc3)c(C#N)cnc2cc1OC1CCN(C)CC1

>  <canonical_smi>  (380) 
COc1cc2c(N[C@@H]3C[C@H]3c3ccccc3)c(C#N)cnc2cc1OC1CCN(C)CC1

>  <Set>  (380) 
G2 active

>  <Set_type>  (380) 
Train

>  <MW>  (380) 
428.54

>  <HBD>  (380) 
1

>  <HBA>  (380) 
6

>  <NRB>  (380) 
6

>  <NR>  (380) 
5

>  <NAR>  (380) 
3

>  <PSA>  (380) 
70.41

>  <Standard Type>  (380) 
nan

>  <Standard Relation>  (380) 
nan

>  <Standard Units>  (380) 
nan

>  <Standard Value>  (380) 
nan

>  <Assay ChEMBL ID>  (380) 
nan

>  <Assay Description>  (380) 
nan

>  <BAO Label>  (380) 
nan

$$$$

     RDKit          2D

 22 23  0  0  0  0  0  0  0  0999 V2000
   -2.2500   -3.8971    0.0000 N   0  0  0  0  0  0  0  0  0  0  0  0
   -0.7500   -3.8971    0.0000 C   0  0  0  0  0  0  0  0  0  0  0  0
    0.7500   -3.8971    0.0000 C   0  0  0  0  0  0  0  0  0  0  0  0
    1.5000   -2.5981    0.0000 C   0  0  0  0  0  0  0  0  0  0  0  0
    0.7500   -1.2990    0.0000 C   0  0  0  0  0  0  0  0  0  0  0  0
    1.5000    0.0000    0.0000 C   0  0  0  0  0  0  0  0  0  0  0  0
    0.7500    1.2990    0.0000 C   0  0  0  0  0  0  0  0  0  0  0  0
   -0.7500    1.2990    0.0000 C   0  0  0  0  0  0  0  0  0  0  0  0
   -1.5000    2.5981    0.0000 O   0  0  0  0  0  0  0  0  0  0  0  0
   -1.5000    0.0000    0.0000 C   0  0  0  0  0  0  0  0  0  0  0  0
   -3.0000    0.0000    0.0000 O   0  0  0  0  0  0  0  0  0  0  0  0
   -0.7500   -1.2990    0.0000 C   0  0  0  0  0  0  0  0  0  0  0  0
    1.5000   -5.1962    0.0000 C   0  0  0  0  0  0  0  0  0  0  0  0
    3.0000   -5.1962    0.0000 O   0  0  0  0  0  0  0  0  0  0  0  0
    0.7500   -6.4952    0.0000 C   0  0  0  0  0  0  0  0  0  0  0  0
   -0.7500   -6.4952    0.0000 C   0  0  0  0  0  0  0  0  0  0  0  0
   -1.5000   -7.7942    0.0000 C   0  0  0  0  0  0  0  0  0  0  0  0
   -0.7500   -9.0933    0.0000 C   0  0  0  0  0  0  0  0  0  0  0  0
   -1.5000  -10.3923    0.0000 O   0  0  0  0  0  0  0  0  0  0  0  0
    0.7500   -9.0933    0.0000 C   0  0  0  0  0  0  0  0  0  0  0  0
    1.5000  -10.3923    0.0000 O   0  0  0  0  0  0  0  0  0  0  0  0
    1.5000   -7.7942    0.0000 C   0  0  0  0  0  0  0  0  0  0  0  0
  1  2  3  0
  2  3  1  0
  3  4  2  0
  4  5  1  0
  5  6  2  0
  6  7  1  0
  7  8  2  0
  8  9  1  0
  8 10  1  0
 10 11  1  0
 10 12  2  0
  3 13  1  0
 13 14  2  0
 13 15  1  0
 15 16  2  0
 16 17  1  0
 17 18  2  0
 18 19  1  0
 18 20  1  0
 20 21  1  0
 20 22  2  0
 12  5  1  0
 22 15  1  0
M  END
>  <Compound_ID>  (381) 
CHEMBL56393

>  <Active>  (381) 
1.0

>  <Smiles>  (381) 
N#C/C(=C\c1ccc(O)c(O)c1)C(=O)c1ccc(O)c(O)c1

>  <canonical_smi>  (381) 
N#C/C(=C\c1ccc(O)c(O)c1)C(=O)c1ccc(O)c(O)c1

>  <Set>  (381) 
G2 active

>  <Set_type>  (381) 
Train

>  <MW>  (381) 
297.27

>  <HBD>  (381) 
4

>  <HBA>  (381) 
6

>  <NRB>  (381) 
3

>  <NR>  (381) 
2

>  <NAR>  (381) 
2

>  <PSA>  (381) 
121.78

>  <Standard Type>  (381) 
nan

>  <Standard Relation>  (381) 
nan

>  <Standard Units>  (381) 
nan

>  <Standard Value>  (381) 
nan

>  <Assay ChEMBL ID>  (381) 
nan

>  <Assay Description>  (381) 
nan

>  <BAO Label>  (381) 
nan

$$$$

     RDKit          2D

 25 27  0  0  0  0  0  0  0  0999 V2000
    6.0000   -2.5981    0.0000 C   0  0  0  0  0  0  0  0  0  0  0  0
    5.2500   -1.2990    0.0000 C   0  0  0  0  0  0  0  0  0  0  0  0
    3.7500   -1.2990    0.0000 C   0  0  0  0  0  0  0  0  0  0  0  0
    3.0000   -2.5981    0.0000 O   0  0  0  0  0  0  0  0  0  0  0  0
    3.0000    0.0000    0.0000 N   0  0  0  0  0  0  0  0  0  0  0  0
    1.5000    0.0000    0.0000 C   0  0  0  0  0  0  0  0  0  0  0  0
    0.7500   -1.2990    0.0000 C   0  0  0  0  0  0  0  0  0  0  0  0
   -0.7500   -1.2990    0.0000 N   0  0  0  0  0  0  0  0  0  0  0  0
   -1.5000    0.0000    0.0000 C   0  0  0  0  0  0  0  0  0  0  0  0
   -3.0000    0.0000    0.0000 N   0  0  0  0  0  0  0  0  0  0  0  0
   -3.7500    1.2990    0.0000 C   0  0  0  0  0  0  0  0  0  0  0  0
   -3.0000    2.5981    0.0000 C   0  0  0  0  0  0  0  0  0  0  0  0
   -3.7500    3.8971    0.0000 C   0  0  0  0  0  0  0  0  0  0  0  0
   -4.5000    5.1962    0.0000 N   0  0  0  0  0  0  0  0  0  0  0  0
   -1.5000    2.5981    0.0000 C   0  0  0  0  0  0  0  0  0  0  0  0
   -0.7500    3.8971    0.0000 N   0  0  0  0  0  0  0  0  0  0  0  0
    0.7500    3.8971    0.0000 C   0  0  0  0  0  0  0  0  0  0  0  0
    1.5000    2.5981    0.0000 C   0  0  0  0  0  0  0  0  0  0  0  0
    3.0000    2.5981    0.0000 C   0  0  0  0  0  0  0  0  0  0  0  0
    3.7500    3.8971    0.0000 C   0  0  0  0  0  0  0  0  0  0  0  0
    3.0000    5.1962    0.0000 C   0  0  0  0  0  0  0  0  0  0  0  0
    3.7500    6.4952    0.0000 Br  0  0  0  0  0  0  0  0  0  0  0  0
    1.5000    5.1962    0.0000 C   0  0  0  0  0  0  0  0  0  0  0  0
   -0.7500    1.2990    0.0000 C   0  0  0  0  0  0  0  0  0  0  0  0
    0.7500    1.2990    0.0000 C   0  0  0  0  0  0  0  0  0  0  0  0
  1  2  2  0
  2  3  1  0
  3  4  2  0
  3  5  1  0
  5  6  1  0
  6  7  2  0
  7  8  1  0
  8  9  2  0
  9 10  1  0
 10 11  2  0
 11 12  1  0
 12 13  1  0
 13 14  3  0
 12 15  2  0
 15 16  1  0
 16 17  1  0
 17 18  2  0
 18 19  1  0
 19 20  2  0
 20 21  1  0
 21 22  1  0
 21 23  2  0
 15 24  1  0
 24 25  2  0
 25  6  1  0
 24  9  1  0
 23 17  1  0
M  END
>  <Compound_ID>  (382) 
CHEMBL281467

>  <Active>  (382) 
1.0

>  <Smiles>  (382) 
C=CC(=O)Nc1cnc2ncc(C#N)c(Nc3cccc(Br)c3)c2c1

>  <canonical_smi>  (382) 
C=CC(=O)Nc1cnc2ncc(C#N)c(Nc3cccc(Br)c3)c2c1

>  <Set>  (382) 
G2 active

>  <Set_type>  (382) 
Train

>  <MW>  (382) 
394.23

>  <HBD>  (382) 
2

>  <HBA>  (382) 
5

>  <NRB>  (382) 
4

>  <NR>  (382) 
3

>  <NAR>  (382) 
3

>  <PSA>  (382) 
90.7

>  <Standard Type>  (382) 
nan

>  <Standard Relation>  (382) 
nan

>  <Standard Units>  (382) 
nan

>  <Standard Value>  (382) 
nan

>  <Assay ChEMBL ID>  (382) 
nan

>  <Assay Description>  (382) 
nan

>  <BAO Label>  (382) 
nan

$$$$

     RDKit          2D

 42 46  0  0  0  0  0  0  0  0999 V2000
    5.2500   -1.2990    0.0000 C   0  0  0  0  0  0  0  0  0  0  0  0
    3.7500   -1.2990    0.0000 C   0  0  0  0  0  0  0  0  0  0  0  0
    3.0000    0.0000    0.0000 O   0  0  0  0  0  0  0  0  0  0  0  0
    1.5000    0.0000    0.0000 C   0  0  0  0  0  0  0  0  0  0  0  0
    0.7500   -1.2990    0.0000 C   0  0  0  0  0  0  0  0  0  0  0  0
   -0.7500   -1.2990    0.0000 C   0  0  0  0  0  0  0  0  0  0  0  0
   -1.5000   -2.5981    0.0000 N   0  0  0  0  0  0  0  0  0  0  0  0
   -3.0000   -2.5981    0.0000 C   0  0  0  0  0  0  0  0  0  0  0  0
   -3.7500   -1.2990    0.0000 C   0  0  0  0  0  0  0  0  0  0  0  0
   -5.2500   -1.2990    0.0000 C   0  0  0  0  0  0  0  0  0  0  0  0
   -6.7500   -1.2990    0.0000 N   0  0  0  0  0  0  0  0  0  0  0  0
   -3.0000    0.0000    0.0000 C   0  0  0  0  0  0  0  0  0  0  0  0
   -3.7500    1.2990    0.0000 N   0  0  0  0  0  0  0  0  0  0  0  0
   -3.0000    2.5981    0.0000 C   0  0  0  0  0  0  0  0  0  0  0  0
   -1.5000    2.5981    0.0000 C   0  0  0  0  0  0  0  0  0  0  0  0
   -0.7500    3.8971    0.0000 C   0  0  0  0  0  0  0  0  0  0  0  0
   -1.5000    5.1962    0.0000 C   0  0  0  0  0  0  0  0  0  0  0  0
   -0.7500    6.4952    0.0000 O   0  0  0  0  0  0  0  0  0  0  0  0
    0.7500    6.4952    0.0000 C   0  0  0  0  0  0  0  0  0  0  0  0
    1.6317    5.2817    0.0000 C   0  0  0  0  0  0  0  0  0  0  0  0
    3.0583    5.7452    0.0000 C   0  0  0  0  0  0  0  0  0  0  0  0
    3.0583    7.2452    0.0000 C   0  0  0  0  0  0  0  0  0  0  0  0
    4.1730    8.2489    0.0000 C   0  0  0  0  0  0  0  0  0  0  0  0
    3.8611    9.7161    0.0000 C   0  0  0  0  0  0  0  0  0  0  0  0
    2.4345   10.1796    0.0000 C   0  0  0  0  0  0  0  0  0  0  0  0
    1.3198    9.1759    0.0000 C   0  0  0  0  0  0  0  0  0  0  0  0
    1.6317    7.7087    0.0000 C   0  0  0  0  0  0  0  0  0  0  0  0
   -3.0000    5.1962    0.0000 C   0  0  0  0  0  0  0  0  0  0  0  0
   -3.7500    6.4952    0.0000 Cl  0  0  0  0  0  0  0  0  0  0  0  0
   -3.7500    3.8971    0.0000 C   0  0  0  0  0  0  0  0  0  0  0  0
   -1.5000    0.0000    0.0000 C   0  0  0  0  0  0  0  0  0  0  0  0
   -0.7500    1.2990    0.0000 C   0  0  0  0  0  0  0  0  0  0  0  0
    0.7500    1.2990    0.0000 C   0  0  0  0  0  0  0  0  0  0  0  0
    1.5000    2.5981    0.0000 N   0  0  0  0  0  0  0  0  0  0  0  0
    3.0000    2.5981    0.0000 C   0  0  0  0  0  0  0  0  0  0  0  0
    3.7500    1.2990    0.0000 O   0  0  0  0  0  0  0  0  0  0  0  0
    3.7500    3.8971    0.0000 C   0  0  0  0  0  0  0  0  0  0  0  0
    5.2500    3.8971    0.0000 C   0  0  0  0  0  0  0  0  0  0  0  0
    6.0000    5.1962    0.0000 C   0  0  0  0  0  0  0  0  0  0  0  0
    7.5000    5.1962    0.0000 N   0  0  0  0  0  0  0  0  0  0  0  0
    8.2500    6.4952    0.0000 C   0  0  0  0  0  0  0  0  0  0  0  0
    8.2500    3.8971    0.0000 C   0  0  0  0  0  0  0  0  0  0  0  0
  1  2  1  0
  2  3  1  0
  3  4  1  0
  4  5  2  0
  5  6  1  0
  6  7  2  0
  7  8  1  0
  8  9  2  0
  9 10  1  0
 10 11  3  0
  9 12  1  0
 12 13  1  0
 13 14  1  0
 14 15  2  0
 15 16  1  0
 16 17  2  0
 17 18  1  0
 19 18  1  1
 19 20  1  0
 20 21  1  0
 21 22  1  0
 22 23  2  0
 23 24  1  0
 24 25  2  0
 25 26  1  0
 26 27  2  0
 17 28  1  0
 28 29  1  0
 28 30  2  0
 12 31  2  0
 31 32  1  0
 32 33  2  0
 33 34  1  0
 34 35  1  0
 35 36  2  0
 35 37  1  0
 37 38  2  0
 38 39  1  0
 39 40  1  0
 40 41  1  0
 40 42  1  0
 33  4  1  0
 31  6  1  0
 30 14  1  0
 27 19  1  0
 27 22  1  0
M  END
>  <Compound_ID>  (383) 
CHEMBL179274

>  <Active>  (383) 
1.0

>  <Smiles>  (383) 
CCOc1cc2ncc(C#N)c(Nc3ccc(O[C@@H]4CCc5ccccc54)c(Cl)c3)c2cc1NC(=O)/C=C/CN(C)C

>  <canonical_smi>  (383) 
CCOc1cc2ncc(C#N)c(Nc3ccc(O[C@@H]4CCc5ccccc54)c(Cl)c3)c2cc1NC(=O)/C=C/CN(C)C

>  <Set>  (383) 
G2 active

>  <Set_type>  (383) 
Train

>  <MW>  (383) 
582.1

>  <HBD>  (383) 
2

>  <HBA>  (383) 
7

>  <NRB>  (383) 
10

>  <NR>  (383) 
5

>  <NAR>  (383) 
4

>  <PSA>  (383) 
99.51

>  <Standard Type>  (383) 
nan

>  <Standard Relation>  (383) 
nan

>  <Standard Units>  (383) 
nan

>  <Standard Value>  (383) 
nan

>  <Assay ChEMBL ID>  (383) 
nan

>  <Assay Description>  (383) 
nan

>  <BAO Label>  (383) 
nan

$$$$

     RDKit          2D

 27 28  0  0  0  0  0  0  0  0999 V2000
   -2.2500   -3.8971    0.0000 N   0  0  0  0  0  0  0  0  0  0  0  0
   -0.7500   -3.8971    0.0000 C   0  0  0  0  0  0  0  0  0  0  0  0
    0.7500   -3.8971    0.0000 C   0  0  0  0  0  0  0  0  0  0  0  0
    1.5000   -2.5981    0.0000 C   0  0  0  0  0  0  0  0  0  0  0  0
    0.7500   -1.2990    0.0000 C   0  0  0  0  0  0  0  0  0  0  0  0
    1.5000    0.0000    0.0000 C   0  0  0  0  0  0  0  0  0  0  0  0
    0.7500    1.2990    0.0000 C   0  0  0  0  0  0  0  0  0  0  0  0
   -0.7500    1.2990    0.0000 C   0  0  0  0  0  0  0  0  0  0  0  0
   -1.5000    2.5981    0.0000 O   0  0  0  0  0  0  0  0  0  0  0  0
   -1.5000    0.0000    0.0000 C   0  0  0  0  0  0  0  0  0  0  0  0
   -3.0000    0.0000    0.0000 O   0  0  0  0  0  0  0  0  0  0  0  0
   -0.7500   -1.2990    0.0000 C   0  0  0  0  0  0  0  0  0  0  0  0
    1.5000   -5.1962    0.0000 S   0  0  0  0  0  0  0  0  0  0  0  0
    0.2010   -5.9462    0.0000 O   0  0  0  0  0  0  0  0  0  0  0  0
    2.7990   -4.4462    0.0000 O   0  0  0  0  0  0  0  0  0  0  0  0
    2.2500   -6.4952    0.0000 C   0  0  0  0  0  0  0  0  0  0  0  0
    1.5000   -7.7942    0.0000 C   0  0  0  0  0  0  0  0  0  0  0  0
    0.7500   -9.0933    0.0000 N   0  0  0  0  0  0  0  0  0  0  0  0
    3.7500   -6.4952    0.0000 C   0  0  0  0  0  0  0  0  0  0  0  0
    4.5000   -7.7942    0.0000 C   0  0  0  0  0  0  0  0  0  0  0  0
    3.7500   -9.0933    0.0000 C   0  0  0  0  0  0  0  0  0  0  0  0
    4.5000  -10.3923    0.0000 C   0  0  0  0  0  0  0  0  0  0  0  0
    6.0000  -10.3923    0.0000 C   0  0  0  0  0  0  0  0  0  0  0  0
    6.7500  -11.6913    0.0000 O   0  0  0  0  0  0  0  0  0  0  0  0
    6.7500   -9.0933    0.0000 C   0  0  0  0  0  0  0  0  0  0  0  0
    8.2500   -9.0933    0.0000 O   0  0  0  0  0  0  0  0  0  0  0  0
    6.0000   -7.7942    0.0000 C   0  0  0  0  0  0  0  0  0  0  0  0
  1  2  3  0
  2  3  1  0
  3  4  2  0
  4  5  1  0
  5  6  2  0
  6  7  1  0
  7  8  2  0
  8  9  1  0
  8 10  1  0
 10 11  1  0
 10 12  2  0
  3 13  1  0
 13 14  2  0
 13 15  2  0
 13 16  1  0
 16 17  1  0
 17 18  3  0
 16 19  2  0
 19 20  1  0
 20 21  2  0
 21 22  1  0
 22 23  2  0
 23 24  1  0
 23 25  1  0
 25 26  1  0
 25 27  2  0
 12  5  1  0
 27 20  1  0
M  END
>  <Compound_ID>  (384) 
CHEMBL356324

>  <Active>  (384) 
1.0

>  <Smiles>  (384) 
N#C/C(=C\c1ccc(O)c(O)c1)S(=O)(=O)/C(C#N)=C/c1ccc(O)c(O)c1

>  <canonical_smi>  (384) 
N#C/C(=C\c1ccc(O)c(O)c1)S(=O)(=O)/C(C#N)=C/c1ccc(O)c(O)c1

>  <Set>  (384) 
G2 active

>  <Set_type>  (384) 
Train

>  <MW>  (384) 
384.37

>  <HBD>  (384) 
4

>  <HBA>  (384) 
8

>  <NRB>  (384) 
4

>  <NR>  (384) 
2

>  <NAR>  (384) 
2

>  <PSA>  (384) 
162.64

>  <Standard Type>  (384) 
nan

>  <Standard Relation>  (384) 
nan

>  <Standard Units>  (384) 
nan

>  <Standard Value>  (384) 
nan

>  <Assay ChEMBL ID>  (384) 
nan

>  <Assay Description>  (384) 
nan

>  <BAO Label>  (384) 
nan

$$$$

     RDKit          2D

 33 35  0  0  0  0  0  0  0  0999 V2000
    8.2500   -3.8971    0.0000 C   0  0  0  0  0  0  0  0  0  0  0  0
    7.5000   -2.5981    0.0000 C   0  0  0  0  0  0  0  0  0  0  0  0
    6.0000   -2.5981    0.0000 N   0  0  0  0  0  0  0  0  0  0  0  0
    5.2500   -3.8971    0.0000 C   0  0  0  0  0  0  0  0  0  0  0  0
    6.0000   -5.1962    0.0000 C   0  0  0  0  0  0  0  0  0  0  0  0
    5.2500   -1.2990    0.0000 C   0  0  0  0  0  0  0  0  0  0  0  0
    3.7500   -1.2990    0.0000 C   0  0  0  0  0  0  0  0  0  0  0  0
    3.0000    0.0000    0.0000 O   0  0  0  0  0  0  0  0  0  0  0  0
    1.5000    0.0000    0.0000 C   0  0  0  0  0  0  0  0  0  0  0  0
    0.7500   -1.2990    0.0000 C   0  0  0  0  0  0  0  0  0  0  0  0
   -0.7500   -1.2990    0.0000 C   0  0  0  0  0  0  0  0  0  0  0  0
   -1.5000    0.0000    0.0000 C   0  0  0  0  0  0  0  0  0  0  0  0
   -3.0000    0.0000    0.0000 N   0  0  0  0  0  0  0  0  0  0  0  0
   -3.7500    1.2990    0.0000 C   0  0  0  0  0  0  0  0  0  0  0  0
   -3.0000    2.5981    0.0000 C   0  0  0  0  0  0  0  0  0  0  0  0
   -3.7500    3.8971    0.0000 C   0  0  0  0  0  0  0  0  0  0  0  0
   -3.0000    5.1962    0.0000 N   0  0  0  0  0  0  0  0  0  0  0  0
   -1.5000    5.1962    0.0000 C   0  0  0  0  0  0  0  0  0  0  0  0
   -0.7500    3.8971    0.0000 O   0  0  0  0  0  0  0  0  0  0  0  0
   -0.7500    6.4952    0.0000 N   0  0  0  0  0  0  0  0  0  0  0  0
    0.7500    6.4952    0.0000 C   0  0  0  0  0  0  0  0  0  0  0  0
    1.5000    5.1962    0.0000 C   0  0  0  0  0  0  0  0  0  0  0  0
    0.7500    3.8971    0.0000 Cl  0  0  0  0  0  0  0  0  0  0  0  0
    3.0000    5.1962    0.0000 C   0  0  0  0  0  0  0  0  0  0  0  0
    3.7500    6.4952    0.0000 C   0  0  0  0  0  0  0  0  0  0  0  0
    3.0000    7.7942    0.0000 C   0  0  0  0  0  0  0  0  0  0  0  0
    1.5000    7.7942    0.0000 C   0  0  0  0  0  0  0  0  0  0  0  0
    0.7500    9.0933    0.0000 Cl  0  0  0  0  0  0  0  0  0  0  0  0
   -5.2500    3.8971    0.0000 N   0  0  0  0  0  0  0  0  0  0  0  0
   -6.0000    2.5981    0.0000 C   0  0  0  0  0  0  0  0  0  0  0  0
   -5.2500    1.2990    0.0000 N   0  0  0  0  0  0  0  0  0  0  0  0
   -0.7500    1.2990    0.0000 C   0  0  0  0  0  0  0  0  0  0  0  0
    0.7500    1.2990    0.0000 C   0  0  0  0  0  0  0  0  0  0  0  0
  1  2  1  0
  2  3  1  0
  3  4  1  0
  4  5  1  0
  3  6  1  0
  6  7  1  0
  7  8  1  0
  8  9  1  0
  9 10  2  0
 10 11  1  0
 11 12  2  0
 12 13  1  0
 13 14  1  0
 14 15  2  0
 15 16  1  0
 16 17  1  0
 17 18  1  0
 18 19  2  0
 18 20  1  0
 20 21  1  0
 21 22  2  0
 22 23  1  0
 22 24  1  0
 24 25  2  0
 25 26  1  0
 26 27  2  0
 27 28  1  0
 16 29  2  0
 29 30  1  0
 30 31  2  0
 12 32  1  0
 32 33  2  0
 33  9  1  0
 31 14  1  0
 27 21  1  0
M  END
>  <Compound_ID>  (385) 
CHEMBL253292

>  <Active>  (385) 
1.0

>  <Smiles>  (385) 
CCN(CC)CCOc1ccc(Nc2cc(NC(=O)Nc3c(Cl)cccc3Cl)ncn2)cc1

>  <canonical_smi>  (385) 
CCN(CC)CCOc1ccc(Nc2cc(NC(=O)Nc3c(Cl)cccc3Cl)ncn2)cc1

>  <Set>  (385) 
G2 active

>  <Set_type>  (385) 
Train

>  <MW>  (385) 
489.41

>  <HBD>  (385) 
3

>  <HBA>  (385) 
6

>  <NRB>  (385) 
10

>  <NR>  (385) 
3

>  <NAR>  (385) 
3

>  <PSA>  (385) 
91.41

>  <Standard Type>  (385) 
nan

>  <Standard Relation>  (385) 
nan

>  <Standard Units>  (385) 
nan

>  <Standard Value>  (385) 
nan

>  <Assay ChEMBL ID>  (385) 
nan

>  <Assay Description>  (385) 
nan

>  <BAO Label>  (385) 
nan

$$$$

     RDKit          2D

 28 31  0  0  0  0  0  0  0  0999 V2000
    3.7500   -6.4952    0.0000 C   0  0  0  0  0  0  0  0  0  0  0  0
    3.0000   -5.1962    0.0000 C   0  0  0  0  0  0  0  0  0  0  0  0
    1.5000   -5.1962    0.0000 O   0  0  0  0  0  0  0  0  0  0  0  0
    0.7500   -3.8971    0.0000 C   0  0  0  0  0  0  0  0  0  0  0  0
    1.5000   -2.5981    0.0000 C   0  0  0  0  0  0  0  0  0  0  0  0
    0.7500   -1.2990    0.0000 C   0  0  0  0  0  0  0  0  0  0  0  0
    1.5000    0.0000    0.0000 N   0  0  0  0  0  0  0  0  0  0  0  0
    0.7500    1.2990    0.0000 C   0  0  0  0  0  0  0  0  0  0  0  0
   -0.7500    1.2990    0.0000 N   0  0  0  0  0  0  0  0  0  0  0  0
   -1.5000    0.0000    0.0000 C   0  0  0  0  0  0  0  0  0  0  0  0
   -3.0000    0.0000    0.0000 N   0  0  0  0  0  0  0  0  0  0  0  0
   -3.7500    1.2990    0.0000 C   0  0  0  0  0  0  0  0  0  0  0  0
   -3.0000    2.5981    0.0000 C   0  0  0  0  0  0  0  0  0  0  0  0
   -3.7500    3.8971    0.0000 C   0  0  0  0  0  0  0  0  0  0  0  0
   -5.2500    3.8971    0.0000 C   0  0  0  0  0  0  0  0  0  0  0  0
   -6.0000    2.5981    0.0000 C   0  0  0  0  0  0  0  0  0  0  0  0
   -7.5000    2.5981    0.0000 C   0  0  0  0  0  0  0  0  0  0  0  0
   -8.3817    1.3846    0.0000 N   0  0  0  0  0  0  0  0  0  0  0  0
   -9.8083    1.8481    0.0000 C   0  0  0  0  0  0  0  0  0  0  0  0
   -9.8083    3.3481    0.0000 N   0  0  0  0  0  0  0  0  0  0  0  0
   -8.3817    3.8116    0.0000 N   0  0  0  0  0  0  0  0  0  0  0  0
   -5.2500    1.2990    0.0000 C   0  0  0  0  0  0  0  0  0  0  0  0
   -0.7500   -1.2990    0.0000 C   0  0  0  0  0  0  0  0  0  0  0  0
   -1.5000   -2.5981    0.0000 C   0  0  0  0  0  0  0  0  0  0  0  0
   -0.7500   -3.8971    0.0000 C   0  0  0  0  0  0  0  0  0  0  0  0
   -1.5000   -5.1962    0.0000 O   0  0  0  0  0  0  0  0  0  0  0  0
   -3.0000   -5.1962    0.0000 C   0  0  0  0  0  0  0  0  0  0  0  0
   -3.7500   -6.4952    0.0000 C   0  0  0  0  0  0  0  0  0  0  0  0
  1  2  1  0
  2  3  1  0
  3  4  1  0
  4  5  2  0
  5  6  1  0
  6  7  2  0
  7  8  1  0
  8  9  2  0
  9 10  1  0
 10 11  1  0
 11 12  1  0
 12 13  2  0
 13 14  1  0
 14 15  2  0
 15 16  1  0
 16 17  1  0
 17 18  1  0
 18 19  2  0
 19 20  1  0
 20 21  1  0
 16 22  2  0
 10 23  2  0
 23 24  1  0
 24 25  2  0
 25 26  1  0
 26 27  1  0
 27 28  1  0
 25  4  1  0
 23  6  1  0
 22 12  1  0
 21 17  2  0
M  END
>  <Compound_ID>  (386) 
CHEMBL127367

>  <Active>  (386) 
1.0

>  <Smiles>  (386) 
CCOc1cc2ncnc(Nc3cccc(-c4nc[nH]n4)c3)c2cc1OCC

>  <canonical_smi>  (386) 
CCOc1cc2ncnc(Nc3cccc(-c4nc[nH]n4)c3)c2cc1OCC

>  <Set>  (386) 
G2 active

>  <Set_type>  (386) 
Train

>  <MW>  (386) 
376.42

>  <HBD>  (386) 
2

>  <HBA>  (386) 
7

>  <NRB>  (386) 
7

>  <NR>  (386) 
4

>  <NAR>  (386) 
4

>  <PSA>  (386) 
97.84

>  <Standard Type>  (386) 
nan

>  <Standard Relation>  (386) 
nan

>  <Standard Units>  (386) 
nan

>  <Standard Value>  (386) 
nan

>  <Assay ChEMBL ID>  (386) 
nan

>  <Assay Description>  (386) 
nan

>  <BAO Label>  (386) 
nan

$$$$

     RDKit          2D

 38 43  0  0  0  0  0  0  0  0999 V2000
   -5.4933   -4.1162    0.0000 C   0  0  0  0  0  0  0  0  0  0  0  0
   -5.1814   -2.6490    0.0000 C   0  0  0  0  0  0  0  0  0  0  0  0
   -3.7548   -2.1855    0.0000 C   0  0  0  0  0  0  0  0  0  0  0  0
   -2.6401   -3.1891    0.0000 C   0  0  0  0  0  0  0  0  0  0  0  0
   -1.2135   -2.7256    0.0000 C   0  0  0  0  0  0  0  0  0  0  0  0
   -0.0000   -3.6073    0.0000 C   0  0  0  0  0  0  0  0  0  0  0  0
   -0.0000   -5.1073    0.0000 C   0  0  0  0  0  0  0  0  0  0  0  0
   -1.2990   -5.8573    0.0000 C   0  0  0  0  0  0  0  0  0  0  0  0
   -1.2990   -7.3573    0.0000 C   0  0  0  0  0  0  0  0  0  0  0  0
   -0.0000   -8.1073    0.0000 C   0  0  0  0  0  0  0  0  0  0  0  0
    0.0000   -9.6073    0.0000 O   0  0  0  0  0  0  0  0  0  0  0  0
   -1.2990  -10.3573    0.0000 C   0  0  0  0  0  0  0  0  0  0  0  0
   -1.2990  -11.8573    0.0000 C   0  0  0  0  0  0  0  0  0  0  0  0
   -2.5981  -12.6073    0.0000 N   0  0  0  0  0  0  0  0  0  0  0  0
   -2.7549  -14.0991    0.0000 C   0  0  0  0  0  0  0  0  0  0  0  0
   -4.2221  -14.4110    0.0000 C   0  0  0  0  0  0  0  0  0  0  0  0
   -4.9721  -13.1119    0.0000 C   0  0  0  0  0  0  0  0  0  0  0  0
   -3.9684  -11.9972    0.0000 C   0  0  0  0  0  0  0  0  0  0  0  0
    1.2990   -7.3573    0.0000 C   0  0  0  0  0  0  0  0  0  0  0  0
    1.2990   -5.8573    0.0000 C   0  0  0  0  0  0  0  0  0  0  0  0
    1.2135   -2.7256    0.0000 O   0  0  0  0  0  0  0  0  0  0  0  0
    0.7500   -1.2990    0.0000 C   0  0  0  0  0  0  0  0  0  0  0  0
    1.5000    0.0000    0.0000 N   0  0  0  0  0  0  0  0  0  0  0  0
    0.7500    1.2990    0.0000 C   0  0  0  0  0  0  0  0  0  0  0  0
   -0.7500    1.2990    0.0000 N   0  0  0  0  0  0  0  0  0  0  0  0
   -1.5000    0.0000    0.0000 C   0  0  0  0  0  0  0  0  0  0  0  0
   -3.0000    0.0000    0.0000 N   0  0  0  0  0  0  0  0  0  0  0  0
   -3.7500    1.2990    0.0000 C   0  0  0  0  0  0  0  0  0  0  0  0
   -5.2500    1.2990    0.0000 C   0  0  0  0  0  0  0  0  0  0  0  0
   -6.0000    2.5981    0.0000 N   0  0  0  0  0  0  0  0  0  0  0  0
   -5.2500    3.8971    0.0000 C   0  0  0  0  0  0  0  0  0  0  0  0
   -6.0000    5.1962    0.0000 C   0  0  0  0  0  0  0  0  0  0  0  0
   -7.5000    5.1962    0.0000 N   0  0  0  0  0  0  0  0  0  0  0  0
   -8.2500    3.8971    0.0000 C   0  0  0  0  0  0  0  0  0  0  0  0
   -7.5000    2.5981    0.0000 C   0  0  0  0  0  0  0  0  0  0  0  0
   -0.7500   -1.2990    0.0000 C   0  0  0  0  0  0  0  0  0  0  0  0
   -2.9520   -4.6564    0.0000 C   0  0  0  0  0  0  0  0  0  0  0  0
   -4.3786   -5.1199    0.0000 C   0  0  0  0  0  0  0  0  0  0  0  0
  1  2  2  0
  2  3  1  0
  3  4  2  0
  4  5  1  0
  5  6  2  0
  6  7  1  0
  7  8  2  0
  8  9  1  0
  9 10  2  0
 10 11  1  0
 11 12  1  0
 12 13  1  0
 13 14  1  0
 14 15  1  0
 15 16  1  0
 16 17  1  0
 17 18  1  0
 10 19  1  0
 19 20  2  0
  6 21  1  0
 21 22  1  0
 22 23  2  0
 23 24  1  0
 24 25  2  0
 25 26  1  0
 26 27  1  0
 27 28  1  0
 28 29  1  0
 29 30  1  0
 30 31  1  0
 31 32  1  0
 32 33  1  0
 33 34  1  0
 34 35  1  0
 26 36  2  0
  4 37  1  0
 37 38  2  0
 38  1  1  0
 36  5  1  0
 20  7  1  0
 36 22  1  0
 18 14  1  0
 35 30  1  0
M  END
>  <Compound_ID>  (387) 
CHEMBL247468

>  <Active>  (387) 
1.0

>  <Smiles>  (387) 
c1ccc(-c2c(-c3ccc(OCCN4CCCC4)cc3)oc3ncnc(NCCN4CCNCC4)c23)cc1

>  <canonical_smi>  (387) 
c1ccc(-c2c(-c3ccc(OCCN4CCCC4)cc3)oc3ncnc(NCCN4CCNCC4)c23)cc1

>  <Set>  (387) 
G2 active

>  <Set_type>  (387) 
Train

>  <MW>  (387) 
512.66

>  <HBD>  (387) 
2

>  <HBA>  (387) 
8

>  <NRB>  (387) 
10

>  <NR>  (387) 
6

>  <NAR>  (387) 
4

>  <PSA>  (387) 
78.69

>  <Standard Type>  (387) 
nan

>  <Standard Relation>  (387) 
nan

>  <Standard Units>  (387) 
nan

>  <Standard Value>  (387) 
nan

>  <Assay ChEMBL ID>  (387) 
nan

>  <Assay Description>  (387) 
nan

>  <BAO Label>  (387) 
nan

$$$$

     RDKit          2D

 30 32  0  0  0  0  0  0  0  0999 V2000
   -0.7500   -9.0933    0.0000 O   0  0  0  0  0  0  0  0  0  0  0  0
    0.7500   -9.0933    0.0000 C   0  0  0  0  0  0  0  0  0  0  0  0
    1.5000   -7.7942    0.0000 O   0  0  0  0  0  0  0  0  0  0  0  0
    0.7500   -6.4952    0.0000 C   0  0  0  0  0  0  0  0  0  0  0  0
    1.5000   -5.1962    0.0000 C   0  0  0  0  0  0  0  0  0  0  0  0
    0.7500   -3.8971    0.0000 C   0  0  0  0  0  0  0  0  0  0  0  0
    1.5000   -2.5981    0.0000 C   0  0  0  0  0  0  0  0  0  0  0  0
    0.7500   -1.2990    0.0000 C   0  0  0  0  0  0  0  0  0  0  0  0
    1.5000    0.0000    0.0000 C   0  0  0  0  0  0  0  0  0  0  0  0
    0.7500    1.2990    0.0000 C   0  0  0  0  0  0  0  0  0  0  0  0
   -0.7500    1.2990    0.0000 C   0  0  0  0  0  0  0  0  0  0  0  0
   -1.5000    0.0000    0.0000 C   0  0  0  0  0  0  0  0  0  0  0  0
   -0.7500   -1.2990    0.0000 C   0  0  0  0  0  0  0  0  0  0  0  0
    1.5000  -10.3923    0.0000 C   0  0  0  0  0  0  0  0  0  0  0  0
    0.7500  -11.6913    0.0000 C   0  0  0  0  0  0  0  0  0  0  0  0
    1.5000  -12.9904    0.0000 C   0  0  0  0  0  0  0  0  0  0  0  0
    0.7500  -14.2894    0.0000 N   0  0  0  0  0  0  0  0  0  0  0  0
   -0.7500  -14.2894    0.0000 C   0  0  0  0  0  0  0  0  0  0  0  0
   -1.5000  -15.5885    0.0000 C   0  0  0  0  0  0  0  0  0  0  0  0
   -3.0000  -15.5885    0.0000 C   0  0  0  0  0  0  0  0  0  0  0  0
   -3.7500  -16.8875    0.0000 C   0  0  0  0  0  0  0  0  0  0  0  0
   -5.2500  -16.8875    0.0000 O   0  0  0  0  0  0  0  0  0  0  0  0
   -3.0000  -18.1865    0.0000 C   0  0  0  0  0  0  0  0  0  0  0  0
   -1.5000  -18.1865    0.0000 C   0  0  0  0  0  0  0  0  0  0  0  0
   -0.7500  -16.8875    0.0000 C   0  0  0  0  0  0  0  0  0  0  0  0
    0.7500  -16.8875    0.0000 O   0  0  0  0  0  0  0  0  0  0  0  0
    3.0000  -12.9904    0.0000 C   0  0  0  0  0  0  0  0  0  0  0  0
    3.7500  -11.6913    0.0000 C   0  0  0  0  0  0  0  0  0  0  0  0
    3.0000  -10.3923    0.0000 C   0  0  0  0  0  0  0  0  0  0  0  0
    3.7500   -9.0933    0.0000 O   0  0  0  0  0  0  0  0  0  0  0  0
  1  2  2  0
  2  3  1  0
  3  4  1  0
  4  5  1  0
  5  6  1  0
  6  7  1  0
  7  8  1  0
  8  9  2  0
  9 10  1  0
 10 11  2  0
 11 12  1  0
 12 13  2  0
  2 14  1  0
 14 15  2  0
 15 16  1  0
 16 17  1  0
 17 18  1  0
 18 19  1  0
 19 20  2  0
 20 21  1  0
 21 22  1  0
 21 23  2  0
 23 24  1  0
 24 25  2  0
 25 26  1  0
 16 27  2  0
 27 28  1  0
 28 29  2  0
 29 30  1  0
 13  8  1  0
 29 14  1  0
 25 19  1  0
M  END
>  <Compound_ID>  (388) 
CHEMBL435902

>  <Active>  (388) 
1.0

>  <Smiles>  (388) 
O=C(OCCCCc1ccccc1)c1cc(NCc2cc(O)ccc2O)ccc1O

>  <canonical_smi>  (388) 
O=C(OCCCCc1ccccc1)c1cc(NCc2cc(O)ccc2O)ccc1O

>  <Set>  (388) 
G2 active

>  <Set_type>  (388) 
Train

>  <MW>  (388) 
407.47

>  <HBD>  (388) 
4

>  <HBA>  (388) 
6

>  <NRB>  (388) 
9

>  <NR>  (388) 
3

>  <NAR>  (388) 
3

>  <PSA>  (388) 
99.02

>  <Standard Type>  (388) 
nan

>  <Standard Relation>  (388) 
nan

>  <Standard Units>  (388) 
nan

>  <Standard Value>  (388) 
nan

>  <Assay ChEMBL ID>  (388) 
nan

>  <Assay Description>  (388) 
nan

>  <BAO Label>  (388) 
nan

$$$$

     RDKit          2D

 26 29  0  0  0  0  0  0  0  0999 V2000
   -8.2322   -0.7949    0.0000 N   0  0  0  0  0  0  0  0  0  0  0  0
   -6.8056   -1.2584    0.0000 C   0  0  0  0  0  0  0  0  0  0  0  0
   -5.6909   -0.2547    0.0000 O   0  0  0  0  0  0  0  0  0  0  0  0
   -6.4937   -2.7256    0.0000 C   0  0  0  0  0  0  0  0  0  0  0  0
   -5.0672   -3.1891    0.0000 N   0  0  0  0  0  0  0  0  0  0  0  0
   -4.6036   -4.6157    0.0000 C   0  0  0  0  0  0  0  0  0  0  0  0
   -3.1036   -4.6157    0.0000 C   0  0  0  0  0  0  0  0  0  0  0  0
   -2.6401   -3.1891    0.0000 C   0  0  0  0  0  0  0  0  0  0  0  0
   -1.2135   -2.7256    0.0000 N   0  0  0  0  0  0  0  0  0  0  0  0
   -0.0000   -3.6073    0.0000 C   0  0  0  0  0  0  0  0  0  0  0  0
    1.2135   -2.7256    0.0000 C   0  0  0  0  0  0  0  0  0  0  0  0
    2.6401   -3.1891    0.0000 C   0  0  0  0  0  0  0  0  0  0  0  0
    2.9520   -4.6564    0.0000 C   0  0  0  0  0  0  0  0  0  0  0  0
    4.3786   -5.1199    0.0000 C   0  0  0  0  0  0  0  0  0  0  0  0
    5.4933   -4.1162    0.0000 C   0  0  0  0  0  0  0  0  0  0  0  0
    5.1814   -2.6490    0.0000 C   0  0  0  0  0  0  0  0  0  0  0  0
    6.2961   -1.6453    0.0000 O   0  0  0  0  0  0  0  0  0  0  0  0
    3.7548   -2.1855    0.0000 C   0  0  0  0  0  0  0  0  0  0  0  0
    0.7500   -1.2990    0.0000 C   0  0  0  0  0  0  0  0  0  0  0  0
    1.5000    0.0000    0.0000 C   0  0  0  0  0  0  0  0  0  0  0  0
    3.0000    0.0000    0.0000 N   0  0  0  0  0  0  0  0  0  0  0  0
    0.7500    1.2990    0.0000 N   0  0  0  0  0  0  0  0  0  0  0  0
   -0.7500    1.2990    0.0000 C   0  0  0  0  0  0  0  0  0  0  0  0
   -1.5000    0.0000    0.0000 N   0  0  0  0  0  0  0  0  0  0  0  0
   -0.7500   -1.2990    0.0000 C   0  0  0  0  0  0  0  0  0  0  0  0
   -3.8536   -2.3075    0.0000 C   0  0  0  0  0  0  0  0  0  0  0  0
  1  2  1  0
  2  3  2  0
  2  4  1  0
  4  5  1  0
  5  6  1  0
  6  7  1  0
  7  8  1  0
  8  9  1  0
  9 10  1  0
 10 11  2  0
 11 12  1  0
 12 13  2  0
 13 14  1  0
 14 15  2  0
 15 16  1  0
 16 17  1  0
 16 18  2  0
 11 19  1  0
 19 20  2  0
 20 21  1  0
 20 22  1  0
 22 23  2  0
 23 24  1  0
 24 25  2  0
  8 26  1  0
 26  5  1  0
 25  9  1  0
 18 12  1  0
 25 19  1  0
M  END
>  <Compound_ID>  (389) 
CHEMBL408683

>  <Active>  (389) 
1.0

>  <Smiles>  (389) 
NC(=O)CN1CCC(n2cc(-c3cccc(O)c3)c3c(N)ncnc32)C1

>  <canonical_smi>  (389) 
NC(=O)CN1CCC(n2cc(-c3cccc(O)c3)c3c(N)ncnc32)C1

>  <Set>  (389) 
G2 active

>  <Set_type>  (389) 
Train

>  <MW>  (389) 
352.4

>  <HBD>  (389) 
3

>  <HBA>  (389) 
6

>  <NRB>  (389) 
4

>  <NR>  (389) 
4

>  <NAR>  (389) 
3

>  <PSA>  (389) 
123.29

>  <Standard Type>  (389) 
nan

>  <Standard Relation>  (389) 
nan

>  <Standard Units>  (389) 
nan

>  <Standard Value>  (389) 
nan

>  <Assay ChEMBL ID>  (389) 
nan

>  <Assay Description>  (389) 
nan

>  <BAO Label>  (389) 
nan

$$$$

     RDKit          2D

 35 40  0  0  0  0  0  0  0  0999 V2000
   -2.2500   -6.4952    0.0000 N   0  0  0  0  0  0  0  0  0  0  0  0
   -1.5000   -5.1962    0.0000 C   0  0  0  0  0  0  0  0  0  0  0  0
   -0.7500   -3.8971    0.0000 C   0  0  0  0  0  0  0  0  0  0  0  0
    0.7500   -3.8971    0.0000 C   0  0  0  0  0  0  0  0  0  0  0  0
    1.5000   -2.5981    0.0000 N   0  0  0  0  0  0  0  0  0  0  0  0
    0.7500   -1.2990    0.0000 C   0  0  0  0  0  0  0  0  0  0  0  0
    1.5000    0.0000    0.0000 C   0  0  0  0  0  0  0  0  0  0  0  0
    0.7500    1.2990    0.0000 C   0  0  0  0  0  0  0  0  0  0  0  0
   -0.7500    1.2990    0.0000 C   0  0  0  0  0  0  0  0  0  0  0  0
   -1.5000    2.5981    0.0000 C   0  0  0  0  0  0  0  0  0  0  0  0
   -0.7500    3.8971    0.0000 C   0  0  0  0  0  0  0  0  0  0  0  0
   -1.5000    5.1962    0.0000 C   0  0  0  0  0  0  0  0  0  0  0  0
   -3.0000    5.1962    0.0000 C   0  0  0  0  0  0  0  0  0  0  0  0
   -3.7500    6.4952    0.0000 C   0  0  0  0  0  0  0  0  0  0  0  0
   -3.0000    7.7942    0.0000 N   0  0  0  0  0  0  0  0  0  0  0  0
   -1.5000    7.7942    0.0000 C   0  0  0  0  0  0  0  0  0  0  0  0
   -0.7500    9.0933    0.0000 C   0  0  0  0  0  0  0  0  0  0  0  0
   -1.5000   10.3923    0.0000 O   0  0  0  0  0  0  0  0  0  0  0  0
   -3.0000   10.3923    0.0000 C   0  0  0  0  0  0  0  0  0  0  0  0
   -3.7500    9.0933    0.0000 C   0  0  0  0  0  0  0  0  0  0  0  0
   -3.7500    3.8971    0.0000 C   0  0  0  0  0  0  0  0  0  0  0  0
   -3.0000    2.5981    0.0000 C   0  0  0  0  0  0  0  0  0  0  0  0
   -1.5000    0.0000    0.0000 C   0  0  0  0  0  0  0  0  0  0  0  0
   -0.7500   -1.2990    0.0000 C   0  0  0  0  0  0  0  0  0  0  0  0
   -1.5000   -2.5981    0.0000 C   0  0  0  0  0  0  0  0  0  0  0  0
   -3.0000   -2.5981    0.0000 N   0  0  0  0  0  0  0  0  0  0  0  0
   -3.7500   -3.8971    0.0000 C   0  0  0  0  0  0  0  0  0  0  0  0
   -3.7500   -5.3971    0.0000 C   0  0  0  0  0  0  0  0  0  0  0  0
   -5.0490   -4.6471    0.0000 C   0  0  0  0  0  0  0  0  0  0  0  0
   -6.5490   -4.6471    0.0000 C   0  0  0  0  0  0  0  0  0  0  0  0
   -7.2990   -3.3481    0.0000 C   0  0  0  0  0  0  0  0  0  0  0  0
   -8.7990   -3.3481    0.0000 C   0  0  0  0  0  0  0  0  0  0  0  0
   -9.5490   -4.6471    0.0000 C   0  0  0  0  0  0  0  0  0  0  0  0
   -8.7990   -5.9462    0.0000 C   0  0  0  0  0  0  0  0  0  0  0  0
   -7.2990   -5.9462    0.0000 C   0  0  0  0  0  0  0  0  0  0  0  0
  1  2  3  0
  2  3  1  0
  3  4  2  0
  4  5  1  0
  5  6  2  0
  6  7  1  0
  7  8  2  0
  8  9  1  0
  9 10  1  0
 10 11  2  0
 11 12  1  0
 12 13  2  0
 13 14  1  0
 14 15  1  0
 15 16  1  0
 16 17  1  0
 17 18  1  0
 18 19  1  0
 19 20  1  0
 13 21  1  0
 21 22  2  0
  9 23  2  0
 23 24  1  0
 24 25  2  0
 25 26  1  0
 27 26  1  6
 27 28  1  0
 28 29  1  0
 29 30  1  1
 30 31  2  0
 31 32  1  0
 32 33  2  0
 33 34  1  0
 34 35  2  0
 25  3  1  0
 29 27  1  0
 35 30  1  0
 24  6  1  0
 22 10  1  0
 20 15  1  0
M  END
>  <Compound_ID>  (390) 
CHEMBL247024

>  <Active>  (390) 
1.0

>  <Smiles>  (390) 
N#Cc1cnc2ccc(-c3ccc(CN4CCOCC4)cc3)cc2c1N[C@@H]1C[C@H]1c1ccccc1

>  <canonical_smi>  (390) 
N#Cc1cnc2ccc(-c3ccc(CN4CCOCC4)cc3)cc2c1N[C@@H]1C[C@H]1c1ccccc1

>  <Set>  (390) 
G2 active

>  <Set_type>  (390) 
Train

>  <MW>  (390) 
460.58

>  <HBD>  (390) 
1

>  <HBA>  (390) 
5

>  <NRB>  (390) 
6

>  <NR>  (390) 
6

>  <NAR>  (390) 
4

>  <PSA>  (390) 
61.18

>  <Standard Type>  (390) 
nan

>  <Standard Relation>  (390) 
nan

>  <Standard Units>  (390) 
nan

>  <Standard Value>  (390) 
nan

>  <Assay ChEMBL ID>  (390) 
nan

>  <Assay Description>  (390) 
nan

>  <BAO Label>  (390) 
nan

$$$$

     RDKit          2D

 38 41  0  0  0  0  0  0  0  0999 V2000
    3.7500   -1.2990    0.0000 C   0  0  0  0  0  0  0  0  0  0  0  0
    3.0000    0.0000    0.0000 O   0  0  0  0  0  0  0  0  0  0  0  0
    1.5000    0.0000    0.0000 C   0  0  0  0  0  0  0  0  0  0  0  0
    0.7500   -1.2990    0.0000 C   0  0  0  0  0  0  0  0  0  0  0  0
   -0.7500   -1.2990    0.0000 C   0  0  0  0  0  0  0  0  0  0  0  0
   -1.5000   -2.5981    0.0000 N   0  0  0  0  0  0  0  0  0  0  0  0
   -3.0000   -2.5981    0.0000 C   0  0  0  0  0  0  0  0  0  0  0  0
   -3.7500   -1.2990    0.0000 C   0  0  0  0  0  0  0  0  0  0  0  0
   -5.2500   -1.2990    0.0000 C   0  0  0  0  0  0  0  0  0  0  0  0
   -6.7500   -1.2990    0.0000 N   0  0  0  0  0  0  0  0  0  0  0  0
   -3.0000    0.0000    0.0000 C   0  0  0  0  0  0  0  0  0  0  0  0
   -3.7500    1.2990    0.0000 N   0  0  0  0  0  0  0  0  0  0  0  0
   -3.0000    2.5981    0.0000 C   0  0  0  0  0  0  0  0  0  0  0  0
   -1.5000    2.5981    0.0000 C   0  0  0  0  0  0  0  0  0  0  0  0
   -0.7500    3.8971    0.0000 C   0  0  0  0  0  0  0  0  0  0  0  0
   -1.5000    5.1962    0.0000 C   0  0  0  0  0  0  0  0  0  0  0  0
   -0.7500    6.4952    0.0000 S   0  0  0  0  0  0  0  0  0  0  0  0
    0.7500    6.4952    0.0000 C   0  0  0  0  0  0  0  0  0  0  0  0
    1.5000    5.1962    0.0000 N   0  0  0  0  0  0  0  0  0  0  0  0
    3.0000    5.1962    0.0000 C   0  0  0  0  0  0  0  0  0  0  0  0
    3.7500    6.4952    0.0000 C   0  0  0  0  0  0  0  0  0  0  0  0
    3.0000    7.7942    0.0000 C   0  0  0  0  0  0  0  0  0  0  0  0
    1.5000    7.7942    0.0000 N   0  0  0  0  0  0  0  0  0  0  0  0
   -3.0000    5.1962    0.0000 C   0  0  0  0  0  0  0  0  0  0  0  0
   -3.7500    6.4952    0.0000 Cl  0  0  0  0  0  0  0  0  0  0  0  0
   -3.7500    3.8971    0.0000 C   0  0  0  0  0  0  0  0  0  0  0  0
   -1.5000    0.0000    0.0000 C   0  0  0  0  0  0  0  0  0  0  0  0
   -0.7500    1.2990    0.0000 C   0  0  0  0  0  0  0  0  0  0  0  0
    0.7500    1.2990    0.0000 C   0  0  0  0  0  0  0  0  0  0  0  0
    1.5000    2.5981    0.0000 N   0  0  0  0  0  0  0  0  0  0  0  0
    3.0000    2.5981    0.0000 C   0  0  0  0  0  0  0  0  0  0  0  0
    3.7500    1.2990    0.0000 O   0  0  0  0  0  0  0  0  0  0  0  0
    3.7500    3.8971    0.0000 C   0  0  0  0  0  0  0  0  0  0  0  0
    5.2500    3.8971    0.0000 C   0  0  0  0  0  0  0  0  0  0  0  0
    6.0000    5.1962    0.0000 C   0  0  0  0  0  0  0  0  0  0  0  0
    7.5000    5.1962    0.0000 N   0  0  0  0  0  0  0  0  0  0  0  0
    8.2500    6.4952    0.0000 C   0  0  0  0  0  0  0  0  0  0  0  0
    8.2500    3.8971    0.0000 C   0  0  0  0  0  0  0  0  0  0  0  0
  1  2  1  0
  2  3  1  0
  3  4  2  0
  4  5  1  0
  5  6  2  0
  6  7  1  0
  7  8  2  0
  8  9  1  0
  9 10  3  0
  8 11  1  0
 11 12  1  0
 12 13  1  0
 13 14  2  0
 14 15  1  0
 15 16  2  0
 16 17  1  0
 17 18  1  0
 18 19  2  0
 19 20  1  0
 20 21  2  0
 21 22  1  0
 22 23  2  0
 16 24  1  0
 24 25  1  0
 24 26  2  0
 11 27  2  0
 27 28  1  0
 28 29  2  0
 29 30  1  0
 30 31  1  0
 31 32  2  0
 31 33  1  0
 33 34  2  0
 34 35  1  0
 35 36  1  0
 36 37  1  0
 36 38  1  0
 29  3  1  0
 27  5  1  0
 26 13  1  0
 23 18  1  0
M  END
>  <Compound_ID>  (391) 
CHEMBL175933

>  <Active>  (391) 
1.0

>  <Smiles>  (391) 
COc1cc2ncc(C#N)c(Nc3ccc(Sc4ncccn4)c(Cl)c3)c2cc1NC(=O)/C=C/CN(C)C

>  <canonical_smi>  (391) 
COc1cc2ncc(C#N)c(Nc3ccc(Sc4ncccn4)c(Cl)c3)c2cc1NC(=O)/C=C/CN(C)C

>  <Set>  (391) 
G2 active

>  <Set_type>  (391) 
Train

>  <MW>  (391) 
546.06

>  <HBD>  (391) 
2

>  <HBA>  (391) 
9

>  <NRB>  (391) 
9

>  <NR>  (391) 
4

>  <NAR>  (391) 
4

>  <PSA>  (391) 
116.06

>  <Standard Type>  (391) 
nan

>  <Standard Relation>  (391) 
nan

>  <Standard Units>  (391) 
nan

>  <Standard Value>  (391) 
nan

>  <Assay ChEMBL ID>  (391) 
nan

>  <Assay Description>  (391) 
nan

>  <BAO Label>  (391) 
nan

$$$$

     RDKit          2D

 35 39  0  0  0  0  0  0  0  0999 V2000
   -5.6213   -4.5165    0.0000 C   0  0  0  0  0  0  0  0  0  0  0  0
   -4.3223   -5.2665    0.0000 C   0  0  0  0  0  0  0  0  0  0  0  0
   -4.1655   -6.7583    0.0000 C   0  0  0  0  0  0  0  0  0  0  0  0
   -5.2802   -7.7620    0.0000 C   0  0  0  0  0  0  0  0  0  0  0  0
   -6.7068   -7.2984    0.0000 O   0  0  0  0  0  0  0  0  0  0  0  0
   -4.9684   -9.2292    0.0000 N   0  0  0  0  0  0  0  0  0  0  0  0
   -6.0831  -10.2329    0.0000 C   0  0  0  0  0  0  0  0  0  0  0  0
   -5.7712  -11.7001    0.0000 C   0  0  0  0  0  0  0  0  0  0  0  0
   -4.3446  -12.1636    0.0000 N   0  0  0  0  0  0  0  0  0  0  0  0
   -4.0328  -13.6308    0.0000 C   0  0  0  0  0  0  0  0  0  0  0  0
   -3.2299  -11.1599    0.0000 C   0  0  0  0  0  0  0  0  0  0  0  0
   -3.5418   -9.6927    0.0000 C   0  0  0  0  0  0  0  0  0  0  0  0
   -2.6983   -7.0701    0.0000 C   0  0  0  0  0  0  0  0  0  0  0  0
   -1.9483   -5.7711    0.0000 N   0  0  0  0  0  0  0  0  0  0  0  0
   -2.9520   -4.6564    0.0000 C   0  0  0  0  0  0  0  0  0  0  0  0
   -2.6401   -3.1891    0.0000 C   0  0  0  0  0  0  0  0  0  0  0  0
   -1.2135   -2.7256    0.0000 C   0  0  0  0  0  0  0  0  0  0  0  0
   -0.0000   -3.6073    0.0000 C   0  0  0  0  0  0  0  0  0  0  0  0
    0.0000   -5.1073    0.0000 O   0  0  0  0  0  0  0  0  0  0  0  0
    1.2135   -2.7256    0.0000 N   0  0  0  0  0  0  0  0  0  0  0  0
    0.7500   -1.2990    0.0000 C   0  0  0  0  0  0  0  0  0  0  0  0
    1.5000    0.0000    0.0000 N   0  0  0  0  0  0  0  0  0  0  0  0
    0.7500    1.2990    0.0000 C   0  0  0  0  0  0  0  0  0  0  0  0
   -0.7500    1.2990    0.0000 N   0  0  0  0  0  0  0  0  0  0  0  0
   -1.5000    0.0000    0.0000 C   0  0  0  0  0  0  0  0  0  0  0  0
   -3.0000    0.0000    0.0000 N   0  0  0  0  0  0  0  0  0  0  0  0
   -3.7500    1.2990    0.0000 C   0  0  0  0  0  0  0  0  0  0  0  0
   -3.0000    2.5981    0.0000 C   0  0  0  0  0  0  0  0  0  0  0  0
   -3.7500    3.8971    0.0000 C   0  0  0  0  0  0  0  0  0  0  0  0
   -5.2500    3.8971    0.0000 C   0  0  0  0  0  0  0  0  0  0  0  0
   -6.0000    5.1962    0.0000 F   0  0  0  0  0  0  0  0  0  0  0  0
   -6.0000    2.5981    0.0000 C   0  0  0  0  0  0  0  0  0  0  0  0
   -7.5000    2.5981    0.0000 Cl  0  0  0  0  0  0  0  0  0  0  0  0
   -5.2500    1.2990    0.0000 C   0  0  0  0  0  0  0  0  0  0  0  0
   -0.7500   -1.2990    0.0000 C   0  0  0  0  0  0  0  0  0  0  0  0
  1  2  1  0
  2  3  1  0
  3  4  1  0
  4  5  2  0
  4  6  1  0
  6  7  1  0
  7  8  1  0
  8  9  1  0
  9 10  1  0
  9 11  1  0
 11 12  1  0
  3 13  2  0
 13 14  1  0
 14 15  1  0
 15 16  1  0
 16 17  2  0
 17 18  1  0
 18 19  2  0
 18 20  1  0
 20 21  1  0
 21 22  2  0
 22 23  1  0
 23 24  2  0
 24 25  1  0
 25 26  1  0
 26 27  1  0
 27 28  2  0
 28 29  1  0
 29 30  2  0
 30 31  1  0
 30 32  1  0
 32 33  1  0
 32 34  2  0
 25 35  2  0
 15  2  2  0
 35 17  1  0
 12  6  1  0
 35 21  1  0
 34 27  1  0
M  END
>  <Compound_ID>  (392) 
CHEMBL304971

>  <Active>  (392) 
1.0

>  <Smiles>  (392) 
Cc1c(C(=O)N2CCN(C)CC2)c[nH]c1/C=C1\C(=O)Nc2ncnc(Nc3ccc(F)c(Cl)c3)c21

>  <canonical_smi>  (392) 
Cc1c(C(=O)N2CCN(C)CC2)c[nH]c1/C=C1\C(=O)Nc2ncnc(Nc3ccc(F)c(Cl)c3)c21

>  <Set>  (392) 
G2 active

>  <Set_type>  (392) 
Train

>  <MW>  (392) 
495.95

>  <HBD>  (392) 
3

>  <HBA>  (392) 
6

>  <NRB>  (392) 
4

>  <NR>  (392) 
5

>  <NAR>  (392) 
3

>  <PSA>  (392) 
106.25

>  <Standard Type>  (392) 
nan

>  <Standard Relation>  (392) 
nan

>  <Standard Units>  (392) 
nan

>  <Standard Value>  (392) 
nan

>  <Assay ChEMBL ID>  (392) 
nan

>  <Assay Description>  (392) 
nan

>  <BAO Label>  (392) 
nan

$$$$

     RDKit          2D

 24 26  0  0  0  0  0  0  0  0999 V2000
    3.0000   -5.1962    0.0000 C   0  0  0  0  0  0  0  0  0  0  0  0
    1.5000   -5.1962    0.0000 O   0  0  0  0  0  0  0  0  0  0  0  0
    0.7500   -3.8971    0.0000 C   0  0  0  0  0  0  0  0  0  0  0  0
    1.5000   -2.5981    0.0000 C   0  0  0  0  0  0  0  0  0  0  0  0
    0.7500   -1.2990    0.0000 C   0  0  0  0  0  0  0  0  0  0  0  0
    1.5000    0.0000    0.0000 N   0  0  0  0  0  0  0  0  0  0  0  0
    0.7500    1.2990    0.0000 C   0  0  0  0  0  0  0  0  0  0  0  0
   -0.7500    1.2990    0.0000 N   0  0  0  0  0  0  0  0  0  0  0  0
   -1.5000    0.0000    0.0000 C   0  0  0  0  0  0  0  0  0  0  0  0
   -3.0000    0.0000    0.0000 N   0  0  0  0  0  0  0  0  0  0  0  0
   -3.7500    1.2990    0.0000 N   0  0  0  0  0  0  0  0  0  0  0  0
   -5.2500    1.2990    0.0000 C   0  0  0  0  0  0  0  0  0  0  0  0
   -6.0000    2.5981    0.0000 C   0  0  0  0  0  0  0  0  0  0  0  0
   -7.5000    2.5981    0.0000 C   0  0  0  0  0  0  0  0  0  0  0  0
   -8.2500    1.2990    0.0000 C   0  0  0  0  0  0  0  0  0  0  0  0
   -9.7500    1.2990    0.0000 F   0  0  0  0  0  0  0  0  0  0  0  0
   -7.5000    0.0000    0.0000 C   0  0  0  0  0  0  0  0  0  0  0  0
   -8.2500   -1.2990    0.0000 Cl  0  0  0  0  0  0  0  0  0  0  0  0
   -6.0000    0.0000    0.0000 C   0  0  0  0  0  0  0  0  0  0  0  0
   -0.7500   -1.2990    0.0000 C   0  0  0  0  0  0  0  0  0  0  0  0
   -1.5000   -2.5981    0.0000 C   0  0  0  0  0  0  0  0  0  0  0  0
   -0.7500   -3.8971    0.0000 C   0  0  0  0  0  0  0  0  0  0  0  0
   -1.5000   -5.1962    0.0000 O   0  0  0  0  0  0  0  0  0  0  0  0
   -3.0000   -5.1962    0.0000 C   0  0  0  0  0  0  0  0  0  0  0  0
  1  2  1  0
  2  3  1  0
  3  4  2  0
  4  5  1  0
  5  6  2  0
  6  7  1  0
  7  8  2  0
  8  9  1  0
  9 10  1  0
 10 11  1  0
 11 12  1  0
 12 13  2  0
 13 14  1  0
 14 15  2  0
 15 16  1  0
 15 17  1  0
 17 18  1  0
 17 19  2  0
  9 20  2  0
 20 21  1  0
 21 22  2  0
 22 23  1  0
 23 24  1  0
 22  3  1  0
 20  5  1  0
 19 12  1  0
M  END
>  <Compound_ID>  (393) 
CHEMBL422066

>  <Active>  (393) 
1.0

>  <Smiles>  (393) 
COc1cc2ncnc(NNc3ccc(F)c(Cl)c3)c2cc1OC

>  <canonical_smi>  (393) 
COc1cc2ncnc(NNc3ccc(F)c(Cl)c3)c2cc1OC

>  <Set>  (393) 
G2 active

>  <Set_type>  (393) 
Train

>  <MW>  (393) 
348.77

>  <HBD>  (393) 
2

>  <HBA>  (393) 
6

>  <NRB>  (393) 
5

>  <NR>  (393) 
3

>  <NAR>  (393) 
3

>  <PSA>  (393) 
68.3

>  <Standard Type>  (393) 
nan

>  <Standard Relation>  (393) 
nan

>  <Standard Units>  (393) 
nan

>  <Standard Value>  (393) 
nan

>  <Assay ChEMBL ID>  (393) 
nan

>  <Assay Description>  (393) 
nan

>  <BAO Label>  (393) 
nan

$$$$

     RDKit          2D

 26 29  0  0  0  0  0  0  0  0999 V2000
    3.0000    0.0000    0.0000 N   0  0  0  0  0  0  0  0  0  0  0  0
    1.5000    0.0000    0.0000 C   0  0  0  0  0  0  0  0  0  0  0  0
    0.7500   -1.2990    0.0000 N   0  0  0  0  0  0  0  0  0  0  0  0
   -0.7500   -1.2990    0.0000 C   0  0  0  0  0  0  0  0  0  0  0  0
   -1.5000    0.0000    0.0000 N   0  0  0  0  0  0  0  0  0  0  0  0
   -0.7500    1.2990    0.0000 C   0  0  0  0  0  0  0  0  0  0  0  0
    0.7500    1.2990    0.0000 C   0  0  0  0  0  0  0  0  0  0  0  0
    1.2135    2.7256    0.0000 C   0  0  0  0  0  0  0  0  0  0  0  0
    2.6401    3.1891    0.0000 C   0  0  0  0  0  0  0  0  0  0  0  0
    3.7548    2.1855    0.0000 C   0  0  0  0  0  0  0  0  0  0  0  0
    5.1814    2.6490    0.0000 C   0  0  0  0  0  0  0  0  0  0  0  0
    5.4933    4.1162    0.0000 C   0  0  0  0  0  0  0  0  0  0  0  0
    4.3786    5.1199    0.0000 C   0  0  0  0  0  0  0  0  0  0  0  0
    2.9520    4.6564    0.0000 C   0  0  0  0  0  0  0  0  0  0  0  0
   -0.0000    3.6073    0.0000 C   0  0  0  0  0  0  0  0  0  0  0  0
   -1.2135    2.7256    0.0000 N   0  0  0  0  0  0  0  0  0  0  0  0
   -2.6401    3.1891    0.0000 C   0  0  0  0  0  0  0  0  0  0  0  0
   -3.7548    2.1855    0.0000 C   0  0  0  0  0  0  0  0  0  0  0  0
   -5.1814    2.6490    0.0000 O   0  0  0  0  0  0  0  0  0  0  0  0
   -2.9520    4.6564    0.0000 C   0  0  0  0  0  0  0  0  0  0  0  0
   -4.3786    5.1199    0.0000 C   0  0  0  0  0  0  0  0  0  0  0  0
   -4.6904    6.5871    0.0000 C   0  0  0  0  0  0  0  0  0  0  0  0
   -6.1170    7.0506    0.0000 C   0  0  0  0  0  0  0  0  0  0  0  0
   -7.2317    6.0469    0.0000 C   0  0  0  0  0  0  0  0  0  0  0  0
   -6.9199    4.5797    0.0000 C   0  0  0  0  0  0  0  0  0  0  0  0
   -5.4933    4.1162    0.0000 C   0  0  0  0  0  0  0  0  0  0  0  0
  1  2  1  0
  2  3  2  0
  3  4  1  0
  4  5  2  0
  5  6  1  0
  6  7  2  0
  7  8  1  0
  8  9  1  0
  9 10  2  0
 10 11  1  0
 11 12  2  0
 12 13  1  0
 13 14  2  0
  8 15  2  0
 15 16  1  0
 16 17  1  0
 17 18  1  0
 18 19  1  0
 17 20  1  0
 20 21  1  0
 21 22  2  0
 22 23  1  0
 23 24  2  0
 24 25  1  0
 25 26  2  0
  7  2  1  0
 14  9  1  0
 26 21  1  0
 16  6  1  0
M  END
>  <Compound_ID>  (394) 
CHEMBL171311

>  <Active>  (394) 
1.0

>  <Smiles>  (394) 
Nc1ncnc2c1c(-c1ccccc1)cn2C(CO)Cc1ccccc1

>  <canonical_smi>  (394) 
Nc1ncnc2c1c(-c1ccccc1)cn2C(CO)Cc1ccccc1

>  <Set>  (394) 
G2 active

>  <Set_type>  (394) 
Train

>  <MW>  (394) 
344.42

>  <HBD>  (394) 
2

>  <HBA>  (394) 
4

>  <NRB>  (394) 
5

>  <NR>  (394) 
4

>  <NAR>  (394) 
4

>  <PSA>  (394) 
76.96

>  <Standard Type>  (394) 
nan

>  <Standard Relation>  (394) 
nan

>  <Standard Units>  (394) 
nan

>  <Standard Value>  (394) 
nan

>  <Assay ChEMBL ID>  (394) 
nan

>  <Assay Description>  (394) 
nan

>  <BAO Label>  (394) 
nan

$$$$

     RDKit          2D

 39 42  0  0  0  0  0  0  0  0999 V2000
    5.2500   -1.2990    0.0000 C   0  0  0  0  0  0  0  0  0  0  0  0
    3.7500   -1.2990    0.0000 C   0  0  0  0  0  0  0  0  0  0  0  0
    3.0000    0.0000    0.0000 O   0  0  0  0  0  0  0  0  0  0  0  0
    1.5000    0.0000    0.0000 C   0  0  0  0  0  0  0  0  0  0  0  0
    0.7500   -1.2990    0.0000 C   0  0  0  0  0  0  0  0  0  0  0  0
   -0.7500   -1.2990    0.0000 C   0  0  0  0  0  0  0  0  0  0  0  0
   -1.5000   -2.5981    0.0000 N   0  0  0  0  0  0  0  0  0  0  0  0
   -3.0000   -2.5981    0.0000 C   0  0  0  0  0  0  0  0  0  0  0  0
   -3.7500   -1.2990    0.0000 C   0  0  0  0  0  0  0  0  0  0  0  0
   -5.2500   -1.2990    0.0000 C   0  0  0  0  0  0  0  0  0  0  0  0
   -6.7500   -1.2990    0.0000 N   0  0  0  0  0  0  0  0  0  0  0  0
   -3.0000    0.0000    0.0000 C   0  0  0  0  0  0  0  0  0  0  0  0
   -3.7500    1.2990    0.0000 N   0  0  0  0  0  0  0  0  0  0  0  0
   -3.0000    2.5981    0.0000 C   0  0  0  0  0  0  0  0  0  0  0  0
   -1.5000    2.5981    0.0000 C   0  0  0  0  0  0  0  0  0  0  0  0
   -0.7500    3.8971    0.0000 C   0  0  0  0  0  0  0  0  0  0  0  0
   -1.5000    5.1962    0.0000 C   0  0  0  0  0  0  0  0  0  0  0  0
   -0.7500    6.4952    0.0000 O   0  0  0  0  0  0  0  0  0  0  0  0
    0.7500    6.4952    0.0000 C   0  0  0  0  0  0  0  0  0  0  0  0
    1.5000    5.1962    0.0000 C   0  0  0  0  0  0  0  0  0  0  0  0
    3.0000    5.1962    0.0000 C   0  0  0  0  0  0  0  0  0  0  0  0
    3.7500    6.4952    0.0000 C   0  0  0  0  0  0  0  0  0  0  0  0
    3.0000    7.7942    0.0000 C   0  0  0  0  0  0  0  0  0  0  0  0
    1.5000    7.7942    0.0000 C   0  0  0  0  0  0  0  0  0  0  0  0
   -3.0000    5.1962    0.0000 C   0  0  0  0  0  0  0  0  0  0  0  0
   -3.7500    6.4952    0.0000 Cl  0  0  0  0  0  0  0  0  0  0  0  0
   -3.7500    3.8971    0.0000 C   0  0  0  0  0  0  0  0  0  0  0  0
   -1.5000    0.0000    0.0000 C   0  0  0  0  0  0  0  0  0  0  0  0
   -0.7500    1.2990    0.0000 C   0  0  0  0  0  0  0  0  0  0  0  0
    0.7500    1.2990    0.0000 C   0  0  0  0  0  0  0  0  0  0  0  0
    1.5000    2.5981    0.0000 N   0  0  0  0  0  0  0  0  0  0  0  0
    3.0000    2.5981    0.0000 C   0  0  0  0  0  0  0  0  0  0  0  0
    3.7500    1.2990    0.0000 O   0  0  0  0  0  0  0  0  0  0  0  0
    3.7500    3.8971    0.0000 C   0  0  0  0  0  0  0  0  0  0  0  0
    5.2500    3.8971    0.0000 C   0  0  0  0  0  0  0  0  0  0  0  0
    6.0000    5.1962    0.0000 C   0  0  0  0  0  0  0  0  0  0  0  0
    7.5000    5.1962    0.0000 N   0  0  0  0  0  0  0  0  0  0  0  0
    8.2500    6.4952    0.0000 C   0  0  0  0  0  0  0  0  0  0  0  0
    8.2500    3.8971    0.0000 C   0  0  0  0  0  0  0  0  0  0  0  0
  1  2  1  0
  2  3  1  0
  3  4  1  0
  4  5  2  0
  5  6  1  0
  6  7  2  0
  7  8  1  0
  8  9  2  0
  9 10  1  0
 10 11  3  0
  9 12  1  0
 12 13  1  0
 13 14  1  0
 14 15  2  0
 15 16  1  0
 16 17  2  0
 17 18  1  0
 18 19  1  0
 19 20  2  0
 20 21  1  0
 21 22  2  0
 22 23  1  0
 23 24  2  0
 17 25  1  0
 25 26  1  0
 25 27  2  0
 12 28  2  0
 28 29  1  0
 29 30  2  0
 30 31  1  0
 31 32  1  0
 32 33  2  0
 32 34  1  0
 34 35  2  0
 35 36  1  0
 36 37  1  0
 37 38  1  0
 37 39  1  0
 30  4  1  0
 28  6  1  0
 27 14  1  0
 24 19  1  0
M  END
>  <Compound_ID>  (395) 
CHEMBL180018

>  <Active>  (395) 
1.0

>  <Smiles>  (395) 
CCOc1cc2ncc(C#N)c(Nc3ccc(Oc4ccccc4)c(Cl)c3)c2cc1NC(=O)/C=C/CN(C)C

>  <canonical_smi>  (395) 
CCOc1cc2ncc(C#N)c(Nc3ccc(Oc4ccccc4)c(Cl)c3)c2cc1NC(=O)/C=C/CN(C)C

>  <Set>  (395) 
G2 active

>  <Set_type>  (395) 
Train

>  <MW>  (395) 
542.04

>  <HBD>  (395) 
2

>  <HBA>  (395) 
7

>  <NRB>  (395) 
10

>  <NR>  (395) 
4

>  <NAR>  (395) 
4

>  <PSA>  (395) 
99.51

>  <Standard Type>  (395) 
nan

>  <Standard Relation>  (395) 
nan

>  <Standard Units>  (395) 
nan

>  <Standard Value>  (395) 
nan

>  <Assay ChEMBL ID>  (395) 
nan

>  <Assay Description>  (395) 
nan

>  <BAO Label>  (395) 
nan

$$$$

     RDKit          2D

 21 23  0  0  0  0  0  0  0  0999 V2000
   -2.1766   -4.6157    0.0000 C   0  0  0  0  0  0  0  0  0  0  0  0
   -2.6401   -3.1891    0.0000 C   0  0  0  0  0  0  0  0  0  0  0  0
   -3.1036   -1.7626    0.0000 C   0  0  0  0  0  0  0  0  0  0  0  0
   -4.0667   -3.6527    0.0000 C   0  0  0  0  0  0  0  0  0  0  0  0
   -1.2135   -2.7256    0.0000 N   0  0  0  0  0  0  0  0  0  0  0  0
   -0.0000   -3.6073    0.0000 N   0  0  0  0  0  0  0  0  0  0  0  0
    1.2135   -2.7256    0.0000 C   0  0  0  0  0  0  0  0  0  0  0  0
    2.6401   -3.1891    0.0000 C   0  0  0  0  0  0  0  0  0  0  0  0
    2.9520   -4.6564    0.0000 C   0  0  0  0  0  0  0  0  0  0  0  0
    4.3786   -5.1199    0.0000 C   0  0  0  0  0  0  0  0  0  0  0  0
    5.4933   -4.1162    0.0000 C   0  0  0  0  0  0  0  0  0  0  0  0
    6.9199   -4.5797    0.0000 Cl  0  0  0  0  0  0  0  0  0  0  0  0
    5.1814   -2.6490    0.0000 C   0  0  0  0  0  0  0  0  0  0  0  0
    3.7548   -2.1855    0.0000 C   0  0  0  0  0  0  0  0  0  0  0  0
    0.7500   -1.2990    0.0000 C   0  0  0  0  0  0  0  0  0  0  0  0
    1.5000    0.0000    0.0000 C   0  0  0  0  0  0  0  0  0  0  0  0
    3.0000    0.0000    0.0000 N   0  0  0  0  0  0  0  0  0  0  0  0
    0.7500    1.2990    0.0000 N   0  0  0  0  0  0  0  0  0  0  0  0
   -0.7500    1.2990    0.0000 C   0  0  0  0  0  0  0  0  0  0  0  0
   -1.5000    0.0000    0.0000 N   0  0  0  0  0  0  0  0  0  0  0  0
   -0.7500   -1.2990    0.0000 C   0  0  0  0  0  0  0  0  0  0  0  0
  1  2  1  0
  2  3  1  0
  2  4  1  0
  2  5  1  0
  5  6  1  0
  6  7  2  0
  7  8  1  0
  8  9  2  0
  9 10  1  0
 10 11  2  0
 11 12  1  0
 11 13  1  0
 13 14  2  0
  7 15  1  0
 15 16  2  0
 16 17  1  0
 16 18  1  0
 18 19  2  0
 19 20  1  0
 20 21  2  0
 21  5  1  0
 14  8  1  0
 21 15  1  0
M  END
>  <Compound_ID>  (396) 
CHEMBL406845

>  <Active>  (396) 
1.0

>  <Smiles>  (396) 
CC(C)(C)n1nc(-c2ccc(Cl)cc2)c2c(N)ncnc21

>  <canonical_smi>  (396) 
CC(C)(C)n1nc(-c2ccc(Cl)cc2)c2c(N)ncnc21

>  <Set>  (396) 
G2 active

>  <Set_type>  (396) 
Train

>  <MW>  (396) 
301.78

>  <HBD>  (396) 
1

>  <HBA>  (396) 
4

>  <NRB>  (396) 
1

>  <NR>  (396) 
3

>  <NAR>  (396) 
3

>  <PSA>  (396) 
69.62

>  <Standard Type>  (396) 
nan

>  <Standard Relation>  (396) 
nan

>  <Standard Units>  (396) 
nan

>  <Standard Value>  (396) 
nan

>  <Assay ChEMBL ID>  (396) 
nan

>  <Assay Description>  (396) 
nan

>  <BAO Label>  (396) 
nan

$$$$

     RDKit          2D

 28 31  0  0  0  0  0  0  0  0999 V2000
   -3.7500   -1.2990    0.0000 C   0  0  0  0  0  0  0  0  0  0  0  0
   -3.0000   -2.5981    0.0000 C   0  0  0  0  0  0  0  0  0  0  0  0
   -1.5000   -2.5981    0.0000 N   0  0  0  0  0  0  0  0  0  0  0  0
   -0.7500   -3.8971    0.0000 C   0  0  0  0  0  0  0  0  0  0  0  0
   -1.5000   -5.1962    0.0000 O   0  0  0  0  0  0  0  0  0  0  0  0
    0.7500   -3.8971    0.0000 C   0  0  0  0  0  0  0  0  0  0  0  0
    1.5000   -5.1962    0.0000 C   0  0  0  0  0  0  0  0  0  0  0  0
    0.7500   -6.4952    0.0000 C   0  0  0  0  0  0  0  0  0  0  0  0
   -0.7500   -6.4952    0.0000 Cl  0  0  0  0  0  0  0  0  0  0  0  0
    1.5000   -7.7942    0.0000 C   0  0  0  0  0  0  0  0  0  0  0  0
    3.0000   -7.7942    0.0000 C   0  0  0  0  0  0  0  0  0  0  0  0
    3.7500   -6.4952    0.0000 C   0  0  0  0  0  0  0  0  0  0  0  0
    3.0000   -5.1962    0.0000 C   0  0  0  0  0  0  0  0  0  0  0  0
    3.7500   -3.8971    0.0000 Cl  0  0  0  0  0  0  0  0  0  0  0  0
    1.5000   -2.5981    0.0000 C   0  0  0  0  0  0  0  0  0  0  0  0
    0.7500   -1.2990    0.0000 C   0  0  0  0  0  0  0  0  0  0  0  0
    1.5000    0.0000    0.0000 C   0  0  0  0  0  0  0  0  0  0  0  0
    0.7500    1.2990    0.0000 N   0  0  0  0  0  0  0  0  0  0  0  0
   -0.7500    1.2990    0.0000 C   0  0  0  0  0  0  0  0  0  0  0  0
   -1.5000    2.5981    0.0000 N   0  0  0  0  0  0  0  0  0  0  0  0
   -0.7500    3.8971    0.0000 C   0  0  0  0  0  0  0  0  0  0  0  0
    0.7500    3.8971    0.0000 C   0  0  0  0  0  0  0  0  0  0  0  0
    1.5000    5.1962    0.0000 C   0  0  0  0  0  0  0  0  0  0  0  0
    0.7500    6.4952    0.0000 N   0  0  0  0  0  0  0  0  0  0  0  0
   -0.7500    6.4952    0.0000 C   0  0  0  0  0  0  0  0  0  0  0  0
   -1.5000    5.1962    0.0000 C   0  0  0  0  0  0  0  0  0  0  0  0
   -1.5000    0.0000    0.0000 N   0  0  0  0  0  0  0  0  0  0  0  0
   -0.7500   -1.2990    0.0000 C   0  0  0  0  0  0  0  0  0  0  0  0
  1  2  1  0
  2  3  1  0
  3  4  1  0
  4  5  2  0
  4  6  1  0
  6  7  1  0
  7  8  2  0
  8  9  1  0
  8 10  1  0
 10 11  2  0
 11 12  1  0
 12 13  2  0
 13 14  1  0
  6 15  2  0
 15 16  1  0
 16 17  2  0
 17 18  1  0
 18 19  2  0
 19 20  1  0
 20 21  1  0
 21 22  2  0
 22 23  1  0
 23 24  2  0
 24 25  1  0
 25 26  2  0
 19 27  1  0
 27 28  2  0
 28  3  1  0
 13  7  1  0
 28 16  1  0
 26 21  1  0
M  END
>  <Compound_ID>  (397) 
CHEMBL448154

>  <Active>  (397) 
1.0

>  <Smiles>  (397) 
CCn1c(=O)c(-c2c(Cl)cccc2Cl)cc2cnc(Nc3ccncc3)nc21

>  <canonical_smi>  (397) 
CCn1c(=O)c(-c2c(Cl)cccc2Cl)cc2cnc(Nc3ccncc3)nc21

>  <Set>  (397) 
G2 active

>  <Set_type>  (397) 
Train

>  <MW>  (397) 
412.28

>  <HBD>  (397) 
1

>  <HBA>  (397) 
5

>  <NRB>  (397) 
4

>  <NR>  (397) 
4

>  <NAR>  (397) 
4

>  <PSA>  (397) 
72.7

>  <Standard Type>  (397) 
nan

>  <Standard Relation>  (397) 
nan

>  <Standard Units>  (397) 
nan

>  <Standard Value>  (397) 
nan

>  <Assay ChEMBL ID>  (397) 
nan

>  <Assay Description>  (397) 
nan

>  <BAO Label>  (397) 
nan

$$$$

     RDKit          2D

 32 35  0  0  0  0  0  0  0  0999 V2000
    3.0000   -5.1962    0.0000 C   0  0  0  0  0  0  0  0  0  0  0  0
    1.5000   -5.1962    0.0000 O   0  0  0  0  0  0  0  0  0  0  0  0
    0.7500   -3.8971    0.0000 C   0  0  0  0  0  0  0  0  0  0  0  0
    1.5000   -2.5981    0.0000 C   0  0  0  0  0  0  0  0  0  0  0  0
    0.7500   -1.2990    0.0000 C   0  0  0  0  0  0  0  0  0  0  0  0
    1.5000    0.0000    0.0000 N   0  0  0  0  0  0  0  0  0  0  0  0
    0.7500    1.2990    0.0000 C   0  0  0  0  0  0  0  0  0  0  0  0
   -0.7500    1.2990    0.0000 N   0  0  0  0  0  0  0  0  0  0  0  0
   -1.5000    0.0000    0.0000 C   0  0  0  0  0  0  0  0  0  0  0  0
   -3.0000    0.0000    0.0000 N   0  0  0  0  0  0  0  0  0  0  0  0
   -3.7500    1.2990    0.0000 C   0  0  0  0  0  0  0  0  0  0  0  0
   -3.0000    2.5981    0.0000 C   0  0  0  0  0  0  0  0  0  0  0  0
   -3.7500    3.8971    0.0000 C   0  0  0  0  0  0  0  0  0  0  0  0
   -3.0000    5.1962    0.0000 N   0  0  0  0  0  0  0  0  0  0  0  0
   -1.5000    5.1962    0.0000 C   0  0  0  0  0  0  0  0  0  0  0  0
   -0.7500    3.8971    0.0000 O   0  0  0  0  0  0  0  0  0  0  0  0
   -0.7500    6.4952    0.0000 C   0  0  0  0  0  0  0  0  0  0  0  0
    0.7500    6.4952    0.0000 C   0  0  0  0  0  0  0  0  0  0  0  0
    1.5000    7.7942    0.0000 C   0  0  0  0  0  0  0  0  0  0  0  0
    0.7500    9.0933    0.0000 C   0  0  0  0  0  0  0  0  0  0  0  0
   -0.7500    9.0933    0.0000 C   0  0  0  0  0  0  0  0  0  0  0  0
   -1.5000    7.7942    0.0000 C   0  0  0  0  0  0  0  0  0  0  0  0
   -5.2500    3.8971    0.0000 C   0  0  0  0  0  0  0  0  0  0  0  0
   -6.0000    5.1962    0.0000 F   0  0  0  0  0  0  0  0  0  0  0  0
   -6.0000    2.5981    0.0000 C   0  0  0  0  0  0  0  0  0  0  0  0
   -5.2500    1.2990    0.0000 C   0  0  0  0  0  0  0  0  0  0  0  0
   -6.0000    0.0000    0.0000 F   0  0  0  0  0  0  0  0  0  0  0  0
   -0.7500   -1.2990    0.0000 C   0  0  0  0  0  0  0  0  0  0  0  0
   -1.5000   -2.5981    0.0000 C   0  0  0  0  0  0  0  0  0  0  0  0
   -0.7500   -3.8971    0.0000 C   0  0  0  0  0  0  0  0  0  0  0  0
   -1.5000   -5.1962    0.0000 O   0  0  0  0  0  0  0  0  0  0  0  0
   -3.0000   -5.1962    0.0000 C   0  0  0  0  0  0  0  0  0  0  0  0
  1  2  1  0
  2  3  1  0
  3  4  2  0
  4  5  1  0
  5  6  2  0
  6  7  1  0
  7  8  2  0
  8  9  1  0
  9 10  1  0
 10 11  1  0
 11 12  2  0
 12 13  1  0
 13 14  1  0
 14 15  1  0
 15 16  2  0
 15 17  1  0
 17 18  2  0
 18 19  1  0
 19 20  2  0
 20 21  1  0
 21 22  2  0
 13 23  2  0
 23 24  1  0
 23 25  1  0
 25 26  2  0
 26 27  1  0
  9 28  2  0
 28 29  1  0
 29 30  2  0
 30 31  1  0
 31 32  1  0
 30  3  1  0
 28  5  1  0
 26 11  1  0
 22 17  1  0
M  END
>  <Compound_ID>  (398) 
CHEMBL186580

>  <Active>  (398) 
1.0

>  <Smiles>  (398) 
COc1cc2ncnc(Nc3cc(NC(=O)c4ccccc4)c(F)cc3F)c2cc1OC

>  <canonical_smi>  (398) 
COc1cc2ncnc(Nc3cc(NC(=O)c4ccccc4)c(F)cc3F)c2cc1OC

>  <Set>  (398) 
G2 active

>  <Set_type>  (398) 
Train

>  <MW>  (398) 
436.42

>  <HBD>  (398) 
2

>  <HBA>  (398) 
6

>  <NRB>  (398) 
6

>  <NR>  (398) 
4

>  <NAR>  (398) 
4

>  <PSA>  (398) 
85.37

>  <Standard Type>  (398) 
nan

>  <Standard Relation>  (398) 
nan

>  <Standard Units>  (398) 
nan

>  <Standard Value>  (398) 
nan

>  <Assay ChEMBL ID>  (398) 
nan

>  <Assay Description>  (398) 
nan

>  <BAO Label>  (398) 
nan

$$$$

     RDKit          2D

 27 30  0  0  0  0  0  0  0  0999 V2000
   -3.0000   -2.5981    0.0000 C   0  0  0  0  0  0  0  0  0  0  0  0
   -1.5000   -2.5981    0.0000 N   0  0  0  0  0  0  0  0  0  0  0  0
   -0.7500   -3.8971    0.0000 C   0  0  0  0  0  0  0  0  0  0  0  0
   -1.5000   -5.1962    0.0000 O   0  0  0  0  0  0  0  0  0  0  0  0
    0.7500   -3.8971    0.0000 C   0  0  0  0  0  0  0  0  0  0  0  0
    1.5000   -5.1962    0.0000 C   0  0  0  0  0  0  0  0  0  0  0  0
    0.7500   -6.4952    0.0000 C   0  0  0  0  0  0  0  0  0  0  0  0
   -0.7500   -6.4952    0.0000 Cl  0  0  0  0  0  0  0  0  0  0  0  0
    1.5000   -7.7942    0.0000 C   0  0  0  0  0  0  0  0  0  0  0  0
    3.0000   -7.7942    0.0000 C   0  0  0  0  0  0  0  0  0  0  0  0
    3.7500   -6.4952    0.0000 C   0  0  0  0  0  0  0  0  0  0  0  0
    3.0000   -5.1962    0.0000 C   0  0  0  0  0  0  0  0  0  0  0  0
    3.7500   -3.8971    0.0000 Cl  0  0  0  0  0  0  0  0  0  0  0  0
    1.5000   -2.5981    0.0000 C   0  0  0  0  0  0  0  0  0  0  0  0
    0.7500   -1.2990    0.0000 C   0  0  0  0  0  0  0  0  0  0  0  0
    1.5000    0.0000    0.0000 C   0  0  0  0  0  0  0  0  0  0  0  0
    0.7500    1.2990    0.0000 N   0  0  0  0  0  0  0  0  0  0  0  0
   -0.7500    1.2990    0.0000 C   0  0  0  0  0  0  0  0  0  0  0  0
   -1.5000    2.5981    0.0000 N   0  0  0  0  0  0  0  0  0  0  0  0
   -0.7500    3.8971    0.0000 C   0  0  0  0  0  0  0  0  0  0  0  0
    0.7500    3.8971    0.0000 C   0  0  0  0  0  0  0  0  0  0  0  0
    1.5000    5.1962    0.0000 C   0  0  0  0  0  0  0  0  0  0  0  0
    0.7500    6.4952    0.0000 C   0  0  0  0  0  0  0  0  0  0  0  0
   -0.7500    6.4952    0.0000 N   0  0  0  0  0  0  0  0  0  0  0  0
   -1.5000    5.1962    0.0000 C   0  0  0  0  0  0  0  0  0  0  0  0
   -1.5000    0.0000    0.0000 N   0  0  0  0  0  0  0  0  0  0  0  0
   -0.7500   -1.2990    0.0000 C   0  0  0  0  0  0  0  0  0  0  0  0
  1  2  1  0
  2  3  1  0
  3  4  2  0
  3  5  1  0
  5  6  1  0
  6  7  2  0
  7  8  1  0
  7  9  1  0
  9 10  2  0
 10 11  1  0
 11 12  2  0
 12 13  1  0
  5 14  2  0
 14 15  1  0
 15 16  2  0
 16 17  1  0
 17 18  2  0
 18 19  1  0
 19 20  1  0
 20 21  2  0
 21 22  1  0
 22 23  2  0
 23 24  1  0
 24 25  2  0
 18 26  1  0
 26 27  2  0
 27  2  1  0
 12  6  1  0
 27 15  1  0
 25 20  1  0
M  END
>  <Compound_ID>  (399) 
CHEMBL325589

>  <Active>  (399) 
1.0

>  <Smiles>  (399) 
Cn1c(=O)c(-c2c(Cl)cccc2Cl)cc2cnc(Nc3cccnc3)nc21

>  <canonical_smi>  (399) 
Cn1c(=O)c(-c2c(Cl)cccc2Cl)cc2cnc(Nc3cccnc3)nc21

>  <Set>  (399) 
G2 active

>  <Set_type>  (399) 
Train

>  <MW>  (399) 
398.25

>  <HBD>  (399) 
1

>  <HBA>  (399) 
5

>  <NRB>  (399) 
3

>  <NR>  (399) 
4

>  <NAR>  (399) 
4

>  <PSA>  (399) 
72.7

>  <Standard Type>  (399) 
nan

>  <Standard Relation>  (399) 
nan

>  <Standard Units>  (399) 
nan

>  <Standard Value>  (399) 
nan

>  <Assay ChEMBL ID>  (399) 
nan

>  <Assay Description>  (399) 
nan

>  <BAO Label>  (399) 
nan

$$$$

     RDKit          2D

 38 41  0  0  0  0  0  0  0  0999 V2000
    5.2500   -1.2990    0.0000 C   0  0  0  0  0  0  0  0  0  0  0  0
    3.7500   -1.2990    0.0000 C   0  0  0  0  0  0  0  0  0  0  0  0
    3.0000    0.0000    0.0000 O   0  0  0  0  0  0  0  0  0  0  0  0
    1.5000    0.0000    0.0000 C   0  0  0  0  0  0  0  0  0  0  0  0
    0.7500   -1.2990    0.0000 C   0  0  0  0  0  0  0  0  0  0  0  0
   -0.7500   -1.2990    0.0000 C   0  0  0  0  0  0  0  0  0  0  0  0
   -1.5000   -2.5981    0.0000 N   0  0  0  0  0  0  0  0  0  0  0  0
   -3.0000   -2.5981    0.0000 C   0  0  0  0  0  0  0  0  0  0  0  0
   -3.7500   -1.2990    0.0000 C   0  0  0  0  0  0  0  0  0  0  0  0
   -5.2500   -1.2990    0.0000 C   0  0  0  0  0  0  0  0  0  0  0  0
   -6.7500   -1.2990    0.0000 N   0  0  0  0  0  0  0  0  0  0  0  0
   -3.0000    0.0000    0.0000 C   0  0  0  0  0  0  0  0  0  0  0  0
   -3.7500    1.2990    0.0000 N   0  0  0  0  0  0  0  0  0  0  0  0
   -3.0000    2.5981    0.0000 C   0  0  0  0  0  0  0  0  0  0  0  0
   -1.5000    2.5981    0.0000 C   0  0  0  0  0  0  0  0  0  0  0  0
   -0.7500    3.8971    0.0000 C   0  0  0  0  0  0  0  0  0  0  0  0
   -1.5000    5.1962    0.0000 C   0  0  0  0  0  0  0  0  0  0  0  0
   -0.7500    6.4952    0.0000 C   0  0  0  0  0  0  0  0  0  0  0  0
    0.7500    6.4952    0.0000 N   0  0  0  0  0  0  0  0  0  0  0  0
    1.6317    7.7087    0.0000 C   0  0  0  0  0  0  0  0  0  0  0  0
    3.0583    7.2452    0.0000 C   0  0  0  0  0  0  0  0  0  0  0  0
    3.0583    5.7452    0.0000 N   0  0  0  0  0  0  0  0  0  0  0  0
    1.6317    5.2817    0.0000 C   0  0  0  0  0  0  0  0  0  0  0  0
   -3.0000    5.1962    0.0000 C   0  0  0  0  0  0  0  0  0  0  0  0
   -3.7500    6.4952    0.0000 Cl  0  0  0  0  0  0  0  0  0  0  0  0
   -3.7500    3.8971    0.0000 C   0  0  0  0  0  0  0  0  0  0  0  0
   -1.5000    0.0000    0.0000 C   0  0  0  0  0  0  0  0  0  0  0  0
   -0.7500    1.2990    0.0000 C   0  0  0  0  0  0  0  0  0  0  0  0
    0.7500    1.2990    0.0000 C   0  0  0  0  0  0  0  0  0  0  0  0
    1.5000    2.5981    0.0000 N   0  0  0  0  0  0  0  0  0  0  0  0
    3.0000    2.5981    0.0000 C   0  0  0  0  0  0  0  0  0  0  0  0
    3.7500    1.2990    0.0000 O   0  0  0  0  0  0  0  0  0  0  0  0
    3.7500    3.8971    0.0000 C   0  0  0  0  0  0  0  0  0  0  0  0
    5.2500    3.8971    0.0000 C   0  0  0  0  0  0  0  0  0  0  0  0
    6.0000    5.1962    0.0000 C   0  0  0  0  0  0  0  0  0  0  0  0
    7.5000    5.1962    0.0000 N   0  0  0  0  0  0  0  0  0  0  0  0
    8.2500    6.4952    0.0000 C   0  0  0  0  0  0  0  0  0  0  0  0
    8.2500    3.8971    0.0000 C   0  0  0  0  0  0  0  0  0  0  0  0
  1  2  1  0
  2  3  1  0
  3  4  1  0
  4  5  2  0
  5  6  1  0
  6  7  2  0
  7  8  1  0
  8  9  2  0
  9 10  1  0
 10 11  3  0
  9 12  1  0
 12 13  1  0
 13 14  1  0
 14 15  2  0
 15 16  1  0
 16 17  2  0
 17 18  1  0
 18 19  1  0
 19 20  1  0
 20 21  2  0
 21 22  1  0
 22 23  2  0
 17 24  1  0
 24 25  1  0
 24 26  2  0
 12 27  2  0
 27 28  1  0
 28 29  2  0
 29 30  1  0
 30 31  1  0
 31 32  2  0
 31 33  1  0
 33 34  2  0
 34 35  1  0
 35 36  1  0
 36 37  1  0
 36 38  1  0
 29  4  1  0
 27  6  1  0
 26 14  1  0
 23 19  1  0
M  END
>  <Compound_ID>  (400) 
CHEMBL179074

>  <Active>  (400) 
1.0

>  <Smiles>  (400) 
CCOc1cc2ncc(C#N)c(Nc3ccc(Cn4ccnc4)c(Cl)c3)c2cc1NC(=O)/C=C/CN(C)C

>  <canonical_smi>  (400) 
CCOc1cc2ncc(C#N)c(Nc3ccc(Cn4ccnc4)c(Cl)c3)c2cc1NC(=O)/C=C/CN(C)C

>  <Set>  (400) 
G2 active

>  <Set_type>  (400) 
Train

>  <MW>  (400) 
530.03

>  <HBD>  (400) 
2

>  <HBA>  (400) 
7

>  <NRB>  (400) 
10

>  <NR>  (400) 
4

>  <NAR>  (400) 
4

>  <PSA>  (400) 
108.1

>  <Standard Type>  (400) 
nan

>  <Standard Relation>  (400) 
nan

>  <Standard Units>  (400) 
nan

>  <Standard Value>  (400) 
nan

>  <Assay ChEMBL ID>  (400) 
nan

>  <Assay Description>  (400) 
nan

>  <BAO Label>  (400) 
nan

$$$$

     RDKit          2D

 34 39  0  0  0  0  0  0  0  0999 V2000
   -3.8876   -9.0580    0.0000 N   0  0  0  0  0  0  0  0  0  0  0  0
   -3.5757   -7.5908    0.0000 C   0  0  0  0  0  0  0  0  0  0  0  0
   -4.6904   -6.5871    0.0000 C   0  0  0  0  0  0  0  0  0  0  0  0
   -4.3786   -5.1199    0.0000 C   0  0  0  0  0  0  0  0  0  0  0  0
   -2.9520   -4.6564    0.0000 N   0  0  0  0  0  0  0  0  0  0  0  0
   -2.6401   -3.1891    0.0000 C   0  0  0  0  0  0  0  0  0  0  0  0
   -1.2135   -2.7256    0.0000 C   0  0  0  0  0  0  0  0  0  0  0  0
   -0.0000   -3.6073    0.0000 C   0  0  0  0  0  0  0  0  0  0  0  0
    1.2135   -2.7256    0.0000 C   0  0  0  0  0  0  0  0  0  0  0  0
    0.7500   -1.2990    0.0000 N   0  0  0  0  0  0  0  0  0  0  0  0
    1.5000    0.0000    0.0000 N   0  0  0  0  0  0  0  0  0  0  0  0
    0.7500    1.2990    0.0000 C   0  0  0  0  0  0  0  0  0  0  0  0
   -0.7500    1.2990    0.0000 N   0  0  0  0  0  0  0  0  0  0  0  0
   -1.5000    0.0000    0.0000 C   0  0  0  0  0  0  0  0  0  0  0  0
   -3.0000    0.0000    0.0000 N   0  0  0  0  0  0  0  0  0  0  0  0
   -3.7500    1.2990    0.0000 C   0  0  0  0  0  0  0  0  0  0  0  0
   -3.0000    2.5981    0.0000 C   0  0  0  0  0  0  0  0  0  0  0  0
   -3.7500    3.8971    0.0000 C   0  0  0  0  0  0  0  0  0  0  0  0
   -5.2500    3.8971    0.0000 C   0  0  0  0  0  0  0  0  0  0  0  0
   -6.0000    2.5981    0.0000 C   0  0  0  0  0  0  0  0  0  0  0  0
   -7.4672    2.9099    0.0000 C   0  0  0  0  0  0  0  0  0  0  0  0
   -7.6240    4.4017    0.0000 N   0  0  0  0  0  0  0  0  0  0  0  0
   -6.2537    5.0118    0.0000 N   0  0  0  0  0  0  0  0  0  0  0  0
   -5.9418    6.4791    0.0000 C   0  0  0  0  0  0  0  0  0  0  0  0
   -7.0565    7.4827    0.0000 C   0  0  0  0  0  0  0  0  0  0  0  0
   -6.7447    8.9500    0.0000 C   0  0  0  0  0  0  0  0  0  0  0  0
   -7.8594    9.9537    0.0000 C   0  0  0  0  0  0  0  0  0  0  0  0
   -9.2860    9.4901    0.0000 N   0  0  0  0  0  0  0  0  0  0  0  0
   -9.5978    8.0229    0.0000 C   0  0  0  0  0  0  0  0  0  0  0  0
   -8.4831    7.0192    0.0000 C   0  0  0  0  0  0  0  0  0  0  0  0
   -5.2500    1.2990    0.0000 C   0  0  0  0  0  0  0  0  0  0  0  0
   -0.7500   -1.2990    0.0000 C   0  0  0  0  0  0  0  0  0  0  0  0
   -1.8373   -5.6601    0.0000 C   0  0  0  0  0  0  0  0  0  0  0  0
   -2.1491   -7.1273    0.0000 C   0  0  0  0  0  0  0  0  0  0  0  0
  1  2  1  0
  2  3  1  0
  3  4  1  0
  4  5  1  0
  5  6  1  0
  6  7  1  0
  7  8  1  0
  8  9  2  0
  9 10  1  0
 10 11  1  0
 11 12  2  0
 12 13  1  0
 13 14  2  0
 14 15  1  0
 15 16  1  0
 16 17  2  0
 17 18  1  0
 18 19  2  0
 19 20  1  0
 20 21  1  0
 21 22  2  0
 22 23  1  0
 23 24  1  0
 24 25  1  0
 25 26  2  0
 26 27  1  0
 27 28  2  0
 28 29  1  0
 29 30  2  0
 20 31  2  0
 14 32  1  0
  5 33  1  0
 33 34  1  0
 34  2  1  0
 32  7  2  0
 32 10  1  0
 31 16  1  0
 23 19  1  0
 30 25  1  0
M  END
>  <Compound_ID>  (401) 
CHEMBL247916

>  <Active>  (401) 
1.0

>  <Smiles>  (401) 
NC1CCN(Cc2ccn3ncnc(Nc4ccc5c(cnn5Cc5ccncc5)c4)c23)CC1

>  <canonical_smi>  (401) 
NC1CCN(Cc2ccn3ncnc(Nc4ccc5c(cnn5Cc5ccncc5)c4)c23)CC1

>  <Set>  (401) 
G2 active

>  <Set_type>  (401) 
Train

>  <MW>  (401) 
453.55

>  <HBD>  (401) 
2

>  <HBA>  (401) 
7

>  <NRB>  (401) 
6

>  <NR>  (401) 
6

>  <NAR>  (401) 
5

>  <PSA>  (401) 
102.19

>  <Standard Type>  (401) 
nan

>  <Standard Relation>  (401) 
nan

>  <Standard Units>  (401) 
nan

>  <Standard Value>  (401) 
nan

>  <Assay ChEMBL ID>  (401) 
nan

>  <Assay Description>  (401) 
nan

>  <BAO Label>  (401) 
nan

$$$$

     RDKit          2D

 32 35  0  0  0  0  0  0  0  0999 V2000
   -2.2500   -6.4952    0.0000 N   0  0  0  0  0  0  0  0  0  0  0  0
   -1.5000   -5.1962    0.0000 C   0  0  0  0  0  0  0  0  0  0  0  0
   -0.7500   -3.8971    0.0000 C   0  0  0  0  0  0  0  0  0  0  0  0
    0.7500   -3.8971    0.0000 C   0  0  0  0  0  0  0  0  0  0  0  0
    1.5000   -2.5981    0.0000 N   0  0  0  0  0  0  0  0  0  0  0  0
    0.7500   -1.2990    0.0000 C   0  0  0  0  0  0  0  0  0  0  0  0
    1.5000    0.0000    0.0000 C   0  0  0  0  0  0  0  0  0  0  0  0
    0.7500    1.2990    0.0000 C   0  0  0  0  0  0  0  0  0  0  0  0
   -0.7500    1.2990    0.0000 C   0  0  0  0  0  0  0  0  0  0  0  0
   -1.5000    2.5981    0.0000 N   0  0  0  0  0  0  0  0  0  0  0  0
   -0.7500    3.8971    0.0000 C   0  0  0  0  0  0  0  0  0  0  0  0
    0.7500    3.8971    0.0000 O   0  0  0  0  0  0  0  0  0  0  0  0
   -1.5000    5.1962    0.0000 C   0  0  0  0  0  0  0  0  0  0  0  0
   -2.2500    6.4952    0.0000 C   0  0  0  0  0  0  0  0  0  0  0  0
   -3.0000    7.7942    0.0000 C   0  0  0  0  0  0  0  0  0  0  0  0
   -2.2500    9.0933    0.0000 N   0  0  0  0  0  0  0  0  0  0  0  0
   -0.7500    9.0933    0.0000 C   0  0  0  0  0  0  0  0  0  0  0  0
    0.0000   10.3923    0.0000 C   0  0  0  0  0  0  0  0  0  0  0  0
   -0.7500   11.6913    0.0000 S   0  0  0  0  0  0  0  0  0  0  0  0
   -2.2500   11.6913    0.0000 C   0  0  0  0  0  0  0  0  0  0  0  0
   -3.0000   10.3923    0.0000 C   0  0  0  0  0  0  0  0  0  0  0  0
   -1.5000    0.0000    0.0000 C   0  0  0  0  0  0  0  0  0  0  0  0
   -0.7500   -1.2990    0.0000 C   0  0  0  0  0  0  0  0  0  0  0  0
   -1.5000   -2.5981    0.0000 C   0  0  0  0  0  0  0  0  0  0  0  0
   -3.0000   -2.5981    0.0000 N   0  0  0  0  0  0  0  0  0  0  0  0
   -3.7500   -1.2990    0.0000 C   0  0  0  0  0  0  0  0  0  0  0  0
   -3.0000    0.0000    0.0000 C   0  0  0  0  0  0  0  0  0  0  0  0
   -3.7500    1.2990    0.0000 C   0  0  0  0  0  0  0  0  0  0  0  0
   -5.2500    1.2990    0.0000 C   0  0  0  0  0  0  0  0  0  0  0  0
   -6.0000    0.0000    0.0000 C   0  0  0  0  0  0  0  0  0  0  0  0
   -7.5000    0.0000    0.0000 Br  0  0  0  0  0  0  0  0  0  0  0  0
   -5.2500   -1.2990    0.0000 C   0  0  0  0  0  0  0  0  0  0  0  0
  1  2  3  0
  2  3  1  0
  3  4  2  0
  4  5  1  0
  5  6  2  0
  6  7  1  0
  7  8  2  0
  8  9  1  0
  9 10  1  0
 10 11  1  0
 11 12  2  0
 11 13  1  0
 13 14  3  0
 14 15  1  0
 15 16  1  0
 16 17  1  0
 17 18  1  0
 18 19  1  0
 19 20  1  0
 20 21  1  0
  9 22  2  0
 22 23  1  0
 23 24  2  0
 24 25  1  0
 25 26  1  0
 26 27  2  0
 27 28  1  0
 28 29  2  0
 29 30  1  0
 30 31  1  0
 30 32  2  0
 24  3  1  0
 32 26  1  0
 23  6  1  0
 21 16  1  0
M  END
>  <Compound_ID>  (402) 
CHEMBL327023

>  <Active>  (402) 
1.0

>  <Smiles>  (402) 
N#Cc1cnc2ccc(NC(=O)C#CCN3CCSCC3)cc2c1Nc1cccc(Br)c1

>  <canonical_smi>  (402) 
N#Cc1cnc2ccc(NC(=O)C#CCN3CCSCC3)cc2c1Nc1cccc(Br)c1

>  <Set>  (402) 
G2 active

>  <Set_type>  (402) 
Train

>  <MW>  (402) 
506.43

>  <HBD>  (402) 
2

>  <HBA>  (402) 
6

>  <NRB>  (402) 
4

>  <NR>  (402) 
4

>  <NAR>  (402) 
3

>  <PSA>  (402) 
81.05

>  <Standard Type>  (402) 
nan

>  <Standard Relation>  (402) 
nan

>  <Standard Units>  (402) 
nan

>  <Standard Value>  (402) 
nan

>  <Assay ChEMBL ID>  (402) 
nan

>  <Assay Description>  (402) 
nan

>  <BAO Label>  (402) 
nan

$$$$

     RDKit          2D

 35 39  0  0  0  0  0  0  0  0999 V2000
   12.7500   -1.2990    0.0000 F   0  0  0  0  0  0  0  0  0  0  0  0
   12.0000   -2.5981    0.0000 C   0  0  0  0  0  0  0  0  0  0  0  0
   12.7500   -3.8971    0.0000 C   0  0  0  0  0  0  0  0  0  0  0  0
   12.0000   -5.1962    0.0000 C   0  0  0  0  0  0  0  0  0  0  0  0
   10.5000   -5.1962    0.0000 C   0  0  0  0  0  0  0  0  0  0  0  0
    9.7500   -3.8971    0.0000 C   0  0  0  0  0  0  0  0  0  0  0  0
    8.2500   -3.8971    0.0000 C   0  0  0  0  0  0  0  0  0  0  0  0
    7.5000   -2.5981    0.0000 O   0  0  0  0  0  0  0  0  0  0  0  0
    6.0000   -2.5981    0.0000 C   0  0  0  0  0  0  0  0  0  0  0  0
    5.2500   -1.2990    0.0000 C   0  0  0  0  0  0  0  0  0  0  0  0
    3.7500   -1.2990    0.0000 C   0  0  0  0  0  0  0  0  0  0  0  0
    3.0000   -2.5981    0.0000 C   0  0  0  0  0  0  0  0  0  0  0  0
    1.5000   -2.5981    0.0000 N   0  0  0  0  0  0  0  0  0  0  0  0
    0.7500   -1.2990    0.0000 C   0  0  0  0  0  0  0  0  0  0  0  0
    1.5000    0.0000    0.0000 N   0  0  0  0  0  0  0  0  0  0  0  0
    0.7500    1.2990    0.0000 C   0  0  0  0  0  0  0  0  0  0  0  0
   -0.7500    1.2990    0.0000 N   0  0  0  0  0  0  0  0  0  0  0  0
   -1.5000    0.0000    0.0000 N   0  0  0  0  0  0  0  0  0  0  0  0
   -2.9672   -0.3119    0.0000 C   0  0  0  0  0  0  0  0  0  0  0  0
   -3.1240   -1.8037    0.0000 C   0  0  0  0  0  0  0  0  0  0  0  0
   -1.7537   -2.4138    0.0000 C   0  0  0  0  0  0  0  0  0  0  0  0
   -1.4418   -3.8810    0.0000 C   0  0  0  0  0  0  0  0  0  0  0  0
   -2.5565   -4.8847    0.0000 O   0  0  0  0  0  0  0  0  0  0  0  0
   -2.2447   -6.3519    0.0000 C   0  0  0  0  0  0  0  0  0  0  0  0
   -3.3594   -7.3556    0.0000 C   0  0  0  0  0  0  0  0  0  0  0  0
   -4.7860   -6.8921    0.0000 C   0  0  0  0  0  0  0  0  0  0  0  0
   -5.9007   -7.8958    0.0000 N   0  0  0  0  0  0  0  0  0  0  0  0
   -5.5888   -9.3630    0.0000 C   0  0  0  0  0  0  0  0  0  0  0  0
   -4.1622   -9.8265    0.0000 C   0  0  0  0  0  0  0  0  0  0  0  0
   -3.0475   -8.8228    0.0000 O   0  0  0  0  0  0  0  0  0  0  0  0
   -0.7500   -1.2990    0.0000 C   0  0  0  0  0  0  0  0  0  0  0  0
    3.7500   -3.8971    0.0000 C   0  0  0  0  0  0  0  0  0  0  0  0
    5.2500   -3.8971    0.0000 C   0  0  0  0  0  0  0  0  0  0  0  0
    6.0000   -5.1962    0.0000 Cl  0  0  0  0  0  0  0  0  0  0  0  0
   10.5000   -2.5981    0.0000 C   0  0  0  0  0  0  0  0  0  0  0  0
  1  2  1  0
  2  3  2  0
  3  4  1  0
  4  5  2  0
  5  6  1  0
  6  7  1  0
  7  8  1  0
  8  9  1  0
  9 10  2  0
 10 11  1  0
 11 12  2  0
 12 13  1  0
 13 14  1  0
 14 15  2  0
 15 16  1  0
 16 17  2  0
 17 18  1  0
 18 19  1  0
 19 20  2  0
 20 21  1  0
 21 22  1  0
 22 23  1  0
 23 24  1  0
 25 24  1  1
 25 26  1  0
 26 27  1  0
 27 28  1  0
 28 29  1  0
 29 30  1  0
 21 31  2  0
 12 32  1  0
 32 33  2  0
 33 34  1  0
  6 35  2  0
 35  2  1  0
 33  9  1  0
 31 14  1  0
 31 18  1  0
 30 25  1  0
M  END
>  <Compound_ID>  (403) 
CHEMBL246493

>  <Active>  (403) 
1.0

>  <Smiles>  (403) 
Fc1cccc(COc2ccc(Nc3ncnn4ccc(COC[C@@H]5CNCCO5)c34)cc2Cl)c1

>  <canonical_smi>  (403) 
Fc1cccc(COc2ccc(Nc3ncnn4ccc(COC[C@@H]5CNCCO5)c34)cc2Cl)c1

>  <Set>  (403) 
G2 active

>  <Set_type>  (403) 
Train

>  <MW>  (403) 
497.96

>  <HBD>  (403) 
2

>  <HBA>  (403) 
7

>  <NRB>  (403) 
9

>  <NR>  (403) 
5

>  <NAR>  (403) 
4

>  <PSA>  (403) 
81.94

>  <Standard Type>  (403) 
nan

>  <Standard Relation>  (403) 
nan

>  <Standard Units>  (403) 
nan

>  <Standard Value>  (403) 
nan

>  <Assay ChEMBL ID>  (403) 
nan

>  <Assay Description>  (403) 
nan

>  <BAO Label>  (403) 
nan

$$$$

     RDKit          2D

 24 27  0  0  0  0  0  0  0  0999 V2000
    3.0000   -5.1962    0.0000 C   0  0  0  0  0  0  0  0  0  0  0  0
    1.5000   -5.1962    0.0000 O   0  0  0  0  0  0  0  0  0  0  0  0
    0.7500   -3.8971    0.0000 C   0  0  0  0  0  0  0  0  0  0  0  0
    1.5000   -2.5981    0.0000 C   0  0  0  0  0  0  0  0  0  0  0  0
    0.7500   -1.2990    0.0000 C   0  0  0  0  0  0  0  0  0  0  0  0
    1.5000    0.0000    0.0000 N   0  0  0  0  0  0  0  0  0  0  0  0
    0.7500    1.2990    0.0000 C   0  0  0  0  0  0  0  0  0  0  0  0
   -0.7500    1.2990    0.0000 N   0  0  0  0  0  0  0  0  0  0  0  0
   -1.5000    0.0000    0.0000 C   0  0  0  0  0  0  0  0  0  0  0  0
   -3.0000    0.0000    0.0000 N   0  0  0  0  0  0  0  0  0  0  0  0
   -3.7500    1.2990    0.0000 C   0  0  0  0  0  0  0  0  0  0  0  0
   -3.0000    2.5981    0.0000 C   0  0  0  0  0  0  0  0  0  0  0  0
   -3.7500    3.8971    0.0000 C   0  0  0  0  0  0  0  0  0  0  0  0
   -5.2500    3.8971    0.0000 C   0  0  0  0  0  0  0  0  0  0  0  0
   -6.0000    2.5981    0.0000 C   0  0  0  0  0  0  0  0  0  0  0  0
   -5.2500    1.2990    0.0000 C   0  0  0  0  0  0  0  0  0  0  0  0
   -7.4672    2.9099    0.0000 C   0  0  0  0  0  0  0  0  0  0  0  0
   -7.6240    4.4017    0.0000 C   0  0  0  0  0  0  0  0  0  0  0  0
   -6.2537    5.0118    0.0000 C   0  0  0  0  0  0  0  0  0  0  0  0
   -0.7500   -1.2990    0.0000 C   0  0  0  0  0  0  0  0  0  0  0  0
   -1.5000   -2.5981    0.0000 C   0  0  0  0  0  0  0  0  0  0  0  0
   -0.7500   -3.8971    0.0000 C   0  0  0  0  0  0  0  0  0  0  0  0
   -1.5000   -5.1962    0.0000 O   0  0  0  0  0  0  0  0  0  0  0  0
   -3.0000   -5.1962    0.0000 C   0  0  0  0  0  0  0  0  0  0  0  0
  1  2  1  0
  2  3  1  0
  3  4  2  0
  4  5  1  0
  5  6  2  0
  6  7  1  0
  7  8  2  0
  8  9  1  0
  9 10  1  0
 10 11  1  0
 11 12  2  0
 12 13  1  0
 13 14  2  0
 14 15  1  0
 15 16  2  0
 15 17  1  0
 17 18  1  0
 18 19  1  0
  9 20  2  0
 20 21  1  0
 21 22  2  0
 22 23  1  0
 23 24  1  0
 22  3  1  0
 20  5  1  0
 16 11  1  0
 19 14  1  0
M  END
>  <Compound_ID>  (404) 
CHEMBL555797

>  <Active>  (404) 
1.0

>  <Smiles>  (404) 
COc1cc2ncnc(Nc3ccc4c(c3)CCC4)c2cc1OC

>  <canonical_smi>  (404) 
COc1cc2ncnc(Nc3ccc4c(c3)CCC4)c2cc1OC

>  <Set>  (404) 
G2 active

>  <Set_type>  (404) 
Train

>  <MW>  (404) 
321.38

>  <HBD>  (404) 
1

>  <HBA>  (404) 
5

>  <NRB>  (404) 
4

>  <NR>  (404) 
4

>  <NAR>  (404) 
3

>  <PSA>  (404) 
56.27

>  <Standard Type>  (404) 
nan

>  <Standard Relation>  (404) 
nan

>  <Standard Units>  (404) 
nan

>  <Standard Value>  (404) 
nan

>  <Assay ChEMBL ID>  (404) 
nan

>  <Assay Description>  (404) 
nan

>  <BAO Label>  (404) 
nan

$$$$

     RDKit          2D

 42 46  0  0  0  0  0  0  0  0999 V2000
    3.0000    0.0000    0.0000 N   0  0  0  0  0  0  0  0  0  0  0  0
    1.5000    0.0000    0.0000 C   0  0  0  0  0  0  0  0  0  0  0  0
    0.7500   -1.2990    0.0000 N   0  0  0  0  0  0  0  0  0  0  0  0
   -0.7500   -1.2990    0.0000 C   0  0  0  0  0  0  0  0  0  0  0  0
   -1.5000    0.0000    0.0000 N   0  0  0  0  0  0  0  0  0  0  0  0
   -0.7500    1.2990    0.0000 C   0  0  0  0  0  0  0  0  0  0  0  0
    0.7500    1.2990    0.0000 C   0  0  0  0  0  0  0  0  0  0  0  0
    1.2135    2.7256    0.0000 N   0  0  0  0  0  0  0  0  0  0  0  0
    0.0000    3.6073    0.0000 C   0  0  0  0  0  0  0  0  0  0  0  0
   -1.2135    2.7256    0.0000 N   0  0  0  0  0  0  0  0  0  0  0  0
   -2.6401    3.1891    0.0000 C   0  0  0  0  0  0  0  0  0  0  0  0
   -3.8536    2.3075    0.0000 O   0  0  0  0  0  0  0  0  0  0  0  0
   -5.0672    3.1891    0.0000 C   0  0  0  0  0  0  0  0  0  0  0  0
   -6.4937    2.7256    0.0000 C   0  0  0  0  0  0  0  0  0  0  0  0
   -7.6085    3.7293    0.0000 O   0  0  0  0  0  0  0  0  0  0  0  0
   -9.0350    3.2658    0.0000 C   0  0  0  0  0  0  0  0  0  0  0  0
   -9.3469    1.7986    0.0000 O   0  0  0  0  0  0  0  0  0  0  0  0
  -10.1498    4.2695    0.0000 C   0  0  0  0  0  0  0  0  0  0  0  0
   -9.8379    5.7367    0.0000 C   0  0  0  0  0  0  0  0  0  0  0  0
  -10.9526    6.7404    0.0000 C   0  0  0  0  0  0  0  0  0  0  0  0
  -12.3792    6.2769    0.0000 C   0  0  0  0  0  0  0  0  0  0  0  0
  -13.4939    7.2806    0.0000 S   0  0  0  0  0  0  0  0  0  0  0  0
  -12.4902    8.3953    0.0000 O   0  0  0  0  0  0  0  0  0  0  0  0
  -14.4976    6.1659    0.0000 O   0  0  0  0  0  0  0  0  0  0  0  0
  -14.6086    8.2843    0.0000 O   0  0  0  0  0  0  0  0  0  0  0  0
  -16.0352    7.8207    0.0000 C   0  0  0  0  0  0  0  0  0  0  0  0
  -17.1499    8.8244    0.0000 C   0  0  0  0  0  0  0  0  0  0  0  0
  -18.5765    8.3609    0.0000 C   0  0  0  0  0  0  0  0  0  0  0  0
  -18.8884    6.8937    0.0000 C   0  0  0  0  0  0  0  0  0  0  0  0
  -20.3150    6.4302    0.0000 C   0  0  0  0  0  0  0  0  0  0  0  0
  -21.4297    7.4339    0.0000 C   0  0  0  0  0  0  0  0  0  0  0  0
  -22.8563    6.9703    0.0000 N   0  0  0  0  0  4  0  0  0  0  0  0
  -23.1681    5.5031    0.0000 O   0  0  0  0  0  0  0  0  0  0  0  0
  -23.9710    7.9740    0.0000 O   0  0  0  0  0  1  0  0  0  0  0  0
  -17.7737    5.8900    0.0000 C   0  0  0  0  0  0  0  0  0  0  0  0
  -16.3471    6.3535    0.0000 C   0  0  0  0  0  0  0  0  0  0  0  0
  -12.6911    4.8097    0.0000 C   0  0  0  0  0  0  0  0  0  0  0  0
  -11.5764    3.8060    0.0000 C   0  0  0  0  0  0  0  0  0  0  0  0
   -4.6036    4.6157    0.0000 C   0  0  0  0  0  0  0  0  0  0  0  0
   -5.4853    5.8293    0.0000 O   0  0  0  0  0  0  0  0  0  0  0  0
   -3.1036    4.6157    0.0000 C   0  0  0  0  0  0  0  0  0  0  0  0
   -2.2220    5.8293    0.0000 O   0  0  0  0  0  0  0  0  0  0  0  0
  1  2  1  0
  2  3  2  0
  3  4  1  0
  4  5  2  0
  5  6  1  0
  6  7  2  0
  7  8  1  0
  8  9  2  0
  9 10  1  0
 10 11  1  0
 11 12  1  0
 12 13  1  0
 13 14  1  6
 14 15  1  0
 15 16  1  0
 16 17  2  0
 16 18  1  0
 18 19  2  0
 19 20  1  0
 20 21  2  0
 21 22  1  0
 22 23  2  0
 22 24  2  0
 22 25  1  0
 25 26  1  0
 26 27  2  0
 27 28  1  0
 28 29  2  0
 29 30  1  0
 30 31  2  0
 31 32  1  0
 32 33  2  0
 32 34  1  0
 29 35  1  0
 35 36  2  0
 21 37  1  0
 37 38  2  0
 13 39  1  0
 39 40  1  1
 39 41  1  0
 41 42  1  1
  7  2  1  0
 41 11  1  0
 10  6  1  0
 38 18  1  0
 36 26  1  0
M  CHG  2  32   1  34  -1
M  END
>  <Compound_ID>  (405) 
CHEMBL610365

>  <Active>  (405) 
1.0

>  <Smiles>  (405) 
Nc1ncnc2c1ncn2C1O[C@H](COC(=O)c2ccc(S(=O)(=O)Oc3ccc(/C=C/[N+](=O)[O-])cc3)cc2)[C@@H](O)[C@H]1O

>  <canonical_smi>  (405) 
Nc1ncnc2c1ncn2C1O[C@H](COC(=O)c2ccc(S(=O)(=O)Oc3ccc(/C=C/[N+](=O)[O-])cc3)cc2)[C@@H](O)[C@H]1O

>  <Set>  (405) 
G2 active

>  <Set_type>  (405) 
Train

>  <MW>  (405) 
598.55

>  <HBD>  (405) 
3

>  <HBA>  (405) 
14

>  <NRB>  (405) 
9

>  <NR>  (405) 
5

>  <NAR>  (405) 
4

>  <PSA>  (405) 
232.12

>  <Standard Type>  (405) 
nan

>  <Standard Relation>  (405) 
nan

>  <Standard Units>  (405) 
nan

>  <Standard Value>  (405) 
nan

>  <Assay ChEMBL ID>  (405) 
nan

>  <Assay Description>  (405) 
nan

>  <BAO Label>  (405) 
nan

$$$$

     RDKit          2D

 18 20  0  0  0  0  0  0  0  0999 V2000
   -8.2500   -3.8971    0.0000 C   0  0  0  0  0  0  0  0  0  0  0  0
   -7.5000   -2.5981    0.0000 C   0  0  0  0  0  0  0  0  0  0  0  0
   -6.0000   -2.5981    0.0000 C   0  0  0  0  0  0  0  0  0  0  0  0
   -5.2500   -3.8971    0.0000 C   0  0  0  0  0  0  0  0  0  0  0  0
   -3.7500   -3.8971    0.0000 C   0  0  0  0  0  0  0  0  0  0  0  0
   -3.0000   -2.5981    0.0000 N   0  0  0  0  0  0  0  0  0  0  0  0
   -1.5000   -2.5981    0.0000 C   0  0  0  0  0  0  0  0  0  0  0  0
   -0.7500   -3.8971    0.0000 N   0  0  0  0  0  0  0  0  0  0  0  0
    0.7500   -3.8971    0.0000 C   0  0  0  0  0  0  0  0  0  0  0  0
    1.5000   -2.5981    0.0000 N   0  0  0  0  0  0  0  0  0  0  0  0
    0.7500   -1.2990    0.0000 C   0  0  0  0  0  0  0  0  0  0  0  0
    1.5000    0.0000    0.0000 C   0  0  0  0  0  0  0  0  0  0  0  0
    0.7500    1.2990    0.0000 C   0  0  0  0  0  0  0  0  0  0  0  0
   -0.7500    1.2990    0.0000 C   0  0  0  0  0  0  0  0  0  0  0  0
   -1.5000    0.0000    0.0000 N   0  0  0  0  0  0  0  0  0  0  0  0
   -0.7500   -1.2990    0.0000 C   0  0  0  0  0  0  0  0  0  0  0  0
   -6.0000   -5.1962    0.0000 C   0  0  0  0  0  0  0  0  0  0  0  0
   -7.5000   -5.1962    0.0000 C   0  0  0  0  0  0  0  0  0  0  0  0
  1  2  2  0
  2  3  1  0
  3  4  2  0
  4  5  1  0
  5  6  1  0
  6  7  1  0
  7  8  2  0
  8  9  1  0
  9 10  2  0
 10 11  1  0
 11 12  2  0
 12 13  1  0
 13 14  2  0
 14 15  1  0
 15 16  2  0
  4 17  1  0
 17 18  2  0
 18  1  1  0
 16  7  1  0
 16 11  1  0
M  END
>  <Compound_ID>  (406) 
CHEMBL53552

>  <Active>  (406) 
1.0

>  <Smiles>  (406) 
c1ccc(CNc2ncnc3cccnc23)cc1

>  <canonical_smi>  (406) 
c1ccc(CNc2ncnc3cccnc23)cc1

>  <Set>  (406) 
G2 active

>  <Set_type>  (406) 
Train

>  <MW>  (406) 
236.28

>  <HBD>  (406) 
1

>  <HBA>  (406) 
4

>  <NRB>  (406) 
3

>  <NR>  (406) 
3

>  <NAR>  (406) 
3

>  <PSA>  (406) 
50.7

>  <Standard Type>  (406) 
nan

>  <Standard Relation>  (406) 
nan

>  <Standard Units>  (406) 
nan

>  <Standard Value>  (406) 
nan

>  <Assay ChEMBL ID>  (406) 
nan

>  <Assay Description>  (406) 
nan

>  <BAO Label>  (406) 
nan

$$$$

     RDKit          2D

 30 33  0  0  0  0  0  0  0  0999 V2000
    2.5981   -8.1073    0.0000 C   0  0  0  0  0  0  0  0  0  0  0  0
    1.2990   -7.3573    0.0000 C   0  0  0  0  0  0  0  0  0  0  0  0
    1.2990   -5.8573    0.0000 O   0  0  0  0  0  0  0  0  0  0  0  0
   -0.0000   -5.1073    0.0000 C   0  0  0  0  0  0  0  0  0  0  0  0
   -1.2990   -5.8573    0.0000 O   0  0  0  0  0  0  0  0  0  0  0  0
   -0.0000   -3.6073    0.0000 C   0  0  0  0  0  0  0  0  0  0  0  0
    1.2135   -2.7256    0.0000 C   0  0  0  0  0  0  0  0  0  0  0  0
    0.7500   -1.2990    0.0000 N   0  0  0  0  0  0  0  0  0  0  0  0
    1.5000    0.0000    0.0000 N   0  0  0  0  0  0  0  0  0  0  0  0
    0.7500    1.2990    0.0000 C   0  0  0  0  0  0  0  0  0  0  0  0
   -0.7500    1.2990    0.0000 N   0  0  0  0  0  0  0  0  0  0  0  0
   -1.5000    0.0000    0.0000 C   0  0  0  0  0  0  0  0  0  0  0  0
   -3.0000    0.0000    0.0000 N   0  0  0  0  0  0  0  0  0  0  0  0
   -3.7500    1.2990    0.0000 C   0  0  0  0  0  0  0  0  0  0  0  0
   -3.0000    2.5981    0.0000 C   0  0  0  0  0  0  0  0  0  0  0  0
   -3.7500    3.8971    0.0000 C   0  0  0  0  0  0  0  0  0  0  0  0
   -5.2500    3.8971    0.0000 C   0  0  0  0  0  0  0  0  0  0  0  0
   -6.0000    5.1962    0.0000 O   0  0  0  0  0  0  0  0  0  0  0  0
   -5.2500    6.4952    0.0000 C   0  0  0  0  0  0  0  0  0  0  0  0
   -3.7500    6.4952    0.0000 C   0  0  0  0  0  0  0  0  0  0  0  0
   -3.0000    7.7942    0.0000 C   0  0  0  0  0  0  0  0  0  0  0  0
   -3.7500    9.0933    0.0000 C   0  0  0  0  0  0  0  0  0  0  0  0
   -5.2500    9.0933    0.0000 C   0  0  0  0  0  0  0  0  0  0  0  0
   -6.0000    7.7942    0.0000 C   0  0  0  0  0  0  0  0  0  0  0  0
   -6.0000    2.5981    0.0000 C   0  0  0  0  0  0  0  0  0  0  0  0
   -5.2500    1.2990    0.0000 C   0  0  0  0  0  0  0  0  0  0  0  0
   -0.7500   -1.2990    0.0000 C   0  0  0  0  0  0  0  0  0  0  0  0
   -1.2135   -2.7256    0.0000 C   0  0  0  0  0  0  0  0  0  0  0  0
   -2.6401   -3.1891    0.0000 C   0  0  0  0  0  0  0  0  0  0  0  0
   -2.9520   -4.6564    0.0000 C   0  0  0  0  0  0  0  0  0  0  0  0
  1  2  1  0
  2  3  1  0
  3  4  1  0
  4  5  2  0
  4  6  1  0
  6  7  2  0
  7  8  1  0
  8  9  1  0
  9 10  2  0
 10 11  1  0
 11 12  2  0
 12 13  1  0
 13 14  1  0
 14 15  2  0
 15 16  1  0
 16 17  2  0
 17 18  1  0
 18 19  1  0
 19 20  2  0
 20 21  1  0
 21 22  2  0
 22 23  1  0
 23 24  2  0
 17 25  1  0
 25 26  2  0
 12 27  1  0
 27 28  2  0
 28 29  1  0
 29 30  1  0
 28  6  1  0
 27  8  1  0
 26 14  1  0
 24 19  1  0
M  END
>  <Compound_ID>  (407) 
CHEMBL194349

>  <Active>  (407) 
1.0

>  <Smiles>  (407) 
CCOC(=O)c1cn2ncnc(Nc3ccc(Oc4ccccc4)cc3)c2c1CC

>  <canonical_smi>  (407) 
CCOC(=O)c1cn2ncnc(Nc3ccc(Oc4ccccc4)cc3)c2c1CC

>  <Set>  (407) 
G2 active

>  <Set_type>  (407) 
Train

>  <MW>  (407) 
402.45

>  <HBD>  (407) 
1

>  <HBA>  (407) 
6

>  <NRB>  (407) 
7

>  <NR>  (407) 
4

>  <NAR>  (407) 
4

>  <PSA>  (407) 
77.75

>  <Standard Type>  (407) 
nan

>  <Standard Relation>  (407) 
nan

>  <Standard Units>  (407) 
nan

>  <Standard Value>  (407) 
nan

>  <Assay ChEMBL ID>  (407) 
nan

>  <Assay Description>  (407) 
nan

>  <BAO Label>  (407) 
nan

$$$$

     RDKit          2D

 37 40  0  0  0  0  0  0  0  0999 V2000
    3.0000    0.0000    0.0000 N   0  0  0  0  0  0  0  0  0  0  0  0
    1.5000    0.0000    0.0000 C   0  0  0  0  0  0  0  0  0  0  0  0
    0.7500   -1.2990    0.0000 N   0  0  0  0  0  0  0  0  0  0  0  0
   -0.7500   -1.2990    0.0000 C   0  0  0  0  0  0  0  0  0  0  0  0
   -1.5000    0.0000    0.0000 N   0  0  0  0  0  0  0  0  0  0  0  0
   -0.7500    1.2990    0.0000 C   0  0  0  0  0  0  0  0  0  0  0  0
   -1.5000    2.5981    0.0000 N   0  0  0  0  0  0  0  0  0  0  0  0
   -3.0000    2.5981    0.0000 C   0  0  0  0  0  0  0  0  0  0  0  0
   -3.7500    3.8971    0.0000 C   0  0  0  0  0  0  0  0  0  0  0  0
   -5.2500    3.8971    0.0000 C   0  0  0  0  0  0  0  0  0  0  0  0
   -6.0000    2.5981    0.0000 C   0  0  0  0  0  0  0  0  0  0  0  0
   -7.5000    2.5981    0.0000 O   0  0  0  0  0  0  0  0  0  0  0  0
   -8.2500    3.8971    0.0000 C   0  0  0  0  0  0  0  0  0  0  0  0
   -9.7500    3.8971    0.0000 C   0  0  0  0  0  0  0  0  0  0  0  0
  -10.5000    5.1962    0.0000 C   0  0  0  0  0  0  0  0  0  0  0  0
  -12.0000    5.1962    0.0000 C   0  0  0  0  0  0  0  0  0  0  0  0
  -12.7500    3.8971    0.0000 C   0  0  0  0  0  0  0  0  0  0  0  0
  -12.0000    2.5981    0.0000 C   0  0  0  0  0  0  0  0  0  0  0  0
  -10.5000    2.5981    0.0000 C   0  0  0  0  0  0  0  0  0  0  0  0
   -5.2500    1.2990    0.0000 C   0  0  0  0  0  0  0  0  0  0  0  0
   -6.0000   -0.0000    0.0000 Cl  0  0  0  0  0  0  0  0  0  0  0  0
   -3.7500    1.2990    0.0000 C   0  0  0  0  0  0  0  0  0  0  0  0
    0.7500    1.2990    0.0000 C   0  0  0  0  0  0  0  0  0  0  0  0
    1.5000    2.5981    0.0000 C   0  0  0  0  0  0  0  0  0  0  0  0
    0.7500    3.8971    0.0000 O   0  0  0  0  0  0  0  0  0  0  0  0
    3.0000    2.5981    0.0000 N   0  0  0  0  0  0  0  0  0  0  0  0
    3.7500    3.8971    0.0000 N   0  0  0  0  0  0  0  0  0  0  0  0
    5.2500    3.8971    0.0000 C   0  0  0  0  0  0  0  0  0  0  0  0
    6.0000    2.5981    0.0000 O   0  0  0  0  0  0  0  0  0  0  0  0
    6.0000    5.1962    0.0000 C   0  0  0  0  0  0  0  0  0  0  0  0
    7.5000    5.1962    0.0000 C   0  0  0  0  0  0  0  0  0  0  0  0
    8.2500    6.4952    0.0000 N   0  0  0  0  0  0  0  0  0  0  0  0
    9.7500    6.4952    0.0000 C   0  0  0  0  0  0  0  0  0  0  0  0
   10.5000    7.7942    0.0000 C   0  0  0  0  0  0  0  0  0  0  0  0
    9.7500    9.0933    0.0000 O   0  0  0  0  0  0  0  0  0  0  0  0
    8.2500    9.0933    0.0000 C   0  0  0  0  0  0  0  0  0  0  0  0
    7.5000    7.7942    0.0000 C   0  0  0  0  0  0  0  0  0  0  0  0
  1  2  1  0
  2  3  2  0
  3  4  1  0
  4  5  2  0
  5  6  1  0
  6  7  1  0
  7  8  1  0
  8  9  2  0
  9 10  1  0
 10 11  2  0
 11 12  1  0
 12 13  1  0
 13 14  1  0
 14 15  2  0
 15 16  1  0
 16 17  2  0
 17 18  1  0
 18 19  2  0
 11 20  1  0
 20 21  1  0
 20 22  2  0
  6 23  2  0
 23 24  1  0
 24 25  2  0
 24 26  1  0
 26 27  1  0
 27 28  1  0
 28 29  2  0
 28 30  1  0
 30 31  1  0
 31 32  1  0
 32 33  1  0
 33 34  1  0
 34 35  1  0
 35 36  1  0
 36 37  1  0
 23  2  1  0
 37 32  1  0
 22  8  1  0
 19 14  1  0
M  END
>  <Compound_ID>  (408) 
CHEMBL472544

>  <Active>  (408) 
1.0

>  <Smiles>  (408) 
Nc1ncnc(Nc2ccc(OCc3ccccc3)c(Cl)c2)c1C(=O)NNC(=O)CCN1CCOCC1

>  <canonical_smi>  (408) 
Nc1ncnc(Nc2ccc(OCc3ccccc3)c(Cl)c2)c1C(=O)NNC(=O)CCN1CCOCC1

>  <Set>  (408) 
G2 active

>  <Set_type>  (408) 
Train

>  <MW>  (408) 
526.0

>  <HBD>  (408) 
4

>  <HBA>  (408) 
9

>  <NRB>  (408) 
9

>  <NR>  (408) 
4

>  <NAR>  (408) 
3

>  <PSA>  (408) 
143.73

>  <Standard Type>  (408) 
nan

>  <Standard Relation>  (408) 
nan

>  <Standard Units>  (408) 
nan

>  <Standard Value>  (408) 
nan

>  <Assay ChEMBL ID>  (408) 
nan

>  <Assay Description>  (408) 
nan

>  <BAO Label>  (408) 
nan

$$$$

     RDKit          2D

 28 30  0  0  0  0  0  0  0  0999 V2000
   -0.5773  -12.0745    0.0000 C   0  0  0  0  0  0  0  0  0  0  0  0
    0.8899  -11.7626    0.0000 C   0  0  0  0  0  0  0  0  0  0  0  0
    2.0046  -12.7663    0.0000 N   0  0  0  0  0  0  0  0  0  0  0  0
    3.3037  -12.0163    0.0000 C   0  0  0  0  0  0  0  0  0  0  0  0
    2.9918  -10.5491    0.0000 C   0  0  0  0  0  0  0  0  0  0  0  0
    3.9955   -9.4344    0.0000 N   0  0  0  0  0  4  0  0  0  0  0  0
    3.5320   -8.0078    0.0000 O   0  0  0  0  0  0  0  0  0  0  0  0
    5.4627   -9.7462    0.0000 O   0  0  0  0  0  1  0  0  0  0  0  0
    1.5000  -10.3923    0.0000 N   0  0  0  0  0  0  0  0  0  0  0  0
    0.7500   -9.0933    0.0000 C   0  0  0  0  0  0  0  0  0  0  0  0
    1.5000   -7.7942    0.0000 C   0  0  0  0  0  0  0  0  0  0  0  0
    0.7500   -6.4952    0.0000 O   0  0  0  0  0  0  0  0  0  0  0  0
    1.5000   -5.1962    0.0000 C   0  0  0  0  0  0  0  0  0  0  0  0
    3.0000   -5.1962    0.0000 O   0  0  0  0  0  0  0  0  0  0  0  0
    0.7500   -3.8971    0.0000 C   0  0  0  0  0  0  0  0  0  0  0  0
    1.5000   -2.5981    0.0000 C   0  0  0  0  0  0  0  0  0  0  0  0
    0.7500   -1.2990    0.0000 C   0  0  0  0  0  0  0  0  0  0  0  0
    1.5000    0.0000    0.0000 C   0  0  0  0  0  0  0  0  0  0  0  0
    0.7500    1.2990    0.0000 C   0  0  0  0  0  0  0  0  0  0  0  0
   -0.7500    1.2990    0.0000 C   0  0  0  0  0  0  0  0  0  0  0  0
   -1.5000    2.5981    0.0000 C   0  0  0  0  0  0  0  0  0  0  0  0
   -0.7500    3.8971    0.0000 C   0  0  0  0  0  0  0  0  0  0  0  0
   -1.5000    5.1962    0.0000 C   0  0  0  0  0  0  0  0  0  0  0  0
   -3.0000    5.1962    0.0000 C   0  0  0  0  0  0  0  0  0  0  0  0
   -3.7500    3.8971    0.0000 C   0  0  0  0  0  0  0  0  0  0  0  0
   -3.0000    2.5981    0.0000 C   0  0  0  0  0  0  0  0  0  0  0  0
   -1.5000    0.0000    0.0000 C   0  0  0  0  0  0  0  0  0  0  0  0
   -0.7500   -1.2990    0.0000 C   0  0  0  0  0  0  0  0  0  0  0  0
  1  2  1  0
  2  3  2  0
  3  4  1  0
  4  5  2  0
  5  6  1  0
  6  7  2  0
  6  8  1  0
  5  9  1  0
  9 10  1  0
 10 11  1  0
 11 12  1  0
 12 13  1  0
 13 14  2  0
 13 15  1  0
 15 16  2  0
 16 17  1  0
 17 18  2  0
 18 19  1  0
 19 20  2  0
 20 21  1  0
 21 22  2  0
 22 23  1  0
 23 24  2  0
 24 25  1  0
 25 26  2  0
 20 27  1  0
 27 28  2  0
  9  2  1  0
 28 17  1  0
 26 21  1  0
M  CHG  2   6   1   8  -1
M  END
>  <Compound_ID>  (409) 
CHEMBL1173718

>  <Active>  (409) 
1.0

>  <Smiles>  (409) 
Cc1ncc([N+](=O)[O-])n1CCOC(=O)/C=C/c1ccc(-c2ccccc2)cc1

>  <canonical_smi>  (409) 
Cc1ncc([N+](=O)[O-])n1CCOC(=O)/C=C/c1ccc(-c2ccccc2)cc1

>  <Set>  (409) 
G2 active

>  <Set_type>  (409) 
Train

>  <MW>  (409) 
377.4

>  <HBD>  (409) 
0

>  <HBA>  (409) 
5

>  <NRB>  (409) 
7

>  <NR>  (409) 
3

>  <NAR>  (409) 
3

>  <PSA>  (409) 
87.26

>  <Standard Type>  (409) 
nan

>  <Standard Relation>  (409) 
nan

>  <Standard Units>  (409) 
nan

>  <Standard Value>  (409) 
nan

>  <Assay ChEMBL ID>  (409) 
nan

>  <Assay Description>  (409) 
nan

>  <BAO Label>  (409) 
nan

$$$$

     RDKit          2D

 36 41  0  0  0  0  0  0  0  0999 V2000
   -1.0344   -8.1310    0.0000 F   0  0  0  0  0  0  0  0  0  0  0  0
   -2.1491   -7.1273    0.0000 C   0  0  0  0  0  0  0  0  0  0  0  0
   -3.5757   -7.5908    0.0000 C   0  0  0  0  0  0  0  0  0  0  0  0
   -4.6904   -6.5871    0.0000 C   0  0  0  0  0  0  0  0  0  0  0  0
   -4.3786   -5.1199    0.0000 C   0  0  0  0  0  0  0  0  0  0  0  0
   -2.9520   -4.6564    0.0000 C   0  0  0  0  0  0  0  0  0  0  0  0
   -2.6401   -3.1891    0.0000 C   0  0  0  0  0  0  0  0  0  0  0  0
   -1.2135   -2.7256    0.0000 N   0  0  0  0  0  0  0  0  0  0  0  0
   -0.0000   -3.6073    0.0000 N   0  0  0  0  0  0  0  0  0  0  0  0
    1.2135   -2.7256    0.0000 C   0  0  0  0  0  0  0  0  0  0  0  0
    0.7500   -1.2990    0.0000 C   0  0  0  0  0  0  0  0  0  0  0  0
    1.5000    0.0000    0.0000 C   0  0  0  0  0  0  0  0  0  0  0  0
    0.7500    1.2990    0.0000 C   0  0  0  0  0  0  0  0  0  0  0  0
    1.5000    2.5981    0.0000 N   0  0  0  0  0  0  0  0  0  0  0  0
    3.0000    2.5981    0.0000 C   0  0  0  0  0  0  0  0  0  0  0  0
    3.7500    1.2990    0.0000 N   0  0  0  0  0  0  0  0  0  0  0  0
    5.2500    1.2990    0.0000 C   0  0  0  0  0  0  0  0  0  0  0  0
    6.0000    2.5981    0.0000 N   0  0  0  0  0  0  0  0  0  0  0  0
    5.2500    3.8971    0.0000 N   0  0  0  0  0  0  0  0  0  0  0  0
    5.7135    5.3237    0.0000 C   0  0  0  0  0  0  0  0  0  0  0  0
    4.5000    6.2054    0.0000 C   0  0  0  0  0  0  0  0  0  0  0  0
    3.2865    5.3237    0.0000 C   0  0  0  0  0  0  0  0  0  0  0  0
    1.8599    5.7872    0.0000 C   0  0  0  0  0  0  0  0  0  0  0  0
    1.5480    7.2544    0.0000 O   0  0  0  0  0  0  0  0  0  0  0  0
    0.1214    7.7180    0.0000 C   0  0  0  0  0  0  0  0  0  0  0  0
   -0.1904    9.1852    0.0000 C   0  0  0  0  0  0  0  0  0  0  0  0
    0.9243   10.1889    0.0000 C   0  0  0  0  0  0  0  0  0  0  0  0
    0.6124   11.6561    0.0000 O   0  0  0  0  0  0  0  0  0  0  0  0
   -0.8142   12.1196    0.0000 C   0  0  0  0  0  0  0  0  0  0  0  0
   -1.9289   11.1159    0.0000 C   0  0  0  0  0  0  0  0  0  0  0  0
   -1.6170    9.6487    0.0000 N   0  0  0  0  0  0  0  0  0  0  0  0
    3.7500    3.8971    0.0000 C   0  0  0  0  0  0  0  0  0  0  0  0
   -0.7500    1.2990    0.0000 C   0  0  0  0  0  0  0  0  0  0  0  0
   -1.5000    0.0000    0.0000 C   0  0  0  0  0  0  0  0  0  0  0  0
   -0.7500   -1.2990    0.0000 C   0  0  0  0  0  0  0  0  0  0  0  0
   -1.8373   -5.6601    0.0000 C   0  0  0  0  0  0  0  0  0  0  0  0
  1  2  1  0
  2  3  2  0
  3  4  1  0
  4  5  2  0
  5  6  1  0
  6  7  1  0
  7  8  1  0
  8  9  1  0
  9 10  2  0
 10 11  1  0
 11 12  2  0
 12 13  1  0
 13 14  1  0
 14 15  1  0
 15 16  2  0
 16 17  1  0
 17 18  2  0
 18 19  1  0
 19 20  1  0
 20 21  2  0
 21 22  1  0
 22 23  1  0
 23 24  1  0
 24 25  1  0
 26 25  1  1
 26 27  1  0
 27 28  1  0
 28 29  1  0
 29 30  1  0
 30 31  1  0
 22 32  2  0
 13 33  2  0
 33 34  1  0
 34 35  2  0
  6 36  2  0
 36  2  1  0
 35  8  1  0
 35 11  1  0
 32 15  1  0
 32 19  1  0
 31 26  1  0
M  END
>  <Compound_ID>  (410) 
CHEMBL246492

>  <Active>  (410) 
1.0

>  <Smiles>  (410) 
Fc1cccc(Cn2ncc3cc(Nc4ncnn5ccc(COC[C@@H]6COCCN6)c45)ccc32)c1

>  <canonical_smi>  (410) 
Fc1cccc(Cn2ncc3cc(Nc4ncnn5ccc(COC[C@@H]6COCCN6)c45)ccc32)c1

>  <Set>  (410) 
G2 active

>  <Set_type>  (410) 
Train

>  <MW>  (410) 
487.54

>  <HBD>  (410) 
2

>  <HBA>  (410) 
7

>  <NRB>  (410) 
8

>  <NR>  (410) 
6

>  <NAR>  (410) 
5

>  <PSA>  (410) 
90.53

>  <Standard Type>  (410) 
nan

>  <Standard Relation>  (410) 
nan

>  <Standard Units>  (410) 
nan

>  <Standard Value>  (410) 
nan

>  <Assay ChEMBL ID>  (410) 
nan

>  <Assay Description>  (410) 
nan

>  <BAO Label>  (410) 
nan

$$$$

     RDKit          2D

 25 28  0  0  0  0  0  0  0  0999 V2000
    3.0000   -5.1962    0.0000 C   0  0  0  0  0  0  0  0  0  0  0  0
    1.5000   -5.1962    0.0000 O   0  0  0  0  0  0  0  0  0  0  0  0
    0.7500   -3.8971    0.0000 C   0  0  0  0  0  0  0  0  0  0  0  0
    1.5000   -2.5981    0.0000 C   0  0  0  0  0  0  0  0  0  0  0  0
    0.7500   -1.2990    0.0000 C   0  0  0  0  0  0  0  0  0  0  0  0
    1.5000    0.0000    0.0000 N   0  0  0  0  0  0  0  0  0  0  0  0
    0.7500    1.2990    0.0000 C   0  0  0  0  0  0  0  0  0  0  0  0
   -0.7500    1.2990    0.0000 N   0  0  0  0  0  0  0  0  0  0  0  0
   -1.5000    0.0000    0.0000 C   0  0  0  0  0  0  0  0  0  0  0  0
   -3.0000    0.0000    0.0000 N   0  0  0  0  0  0  0  0  0  0  0  0
   -3.7500    1.2990    0.0000 C   0  0  0  0  0  0  0  0  0  0  0  0
   -5.2500    1.2990    0.0000 C   0  0  0  0  0  0  0  0  0  0  0  0
   -6.0000    2.5981    0.0000 C   0  0  0  0  0  0  0  0  0  0  0  0
   -7.5000    2.5981    0.0000 C   0  0  0  0  0  0  0  0  0  0  0  0
   -8.2500    3.8971    0.0000 C   0  0  0  0  0  0  0  0  0  0  0  0
   -7.5000    5.1962    0.0000 C   0  0  0  0  0  0  0  0  0  0  0  0
   -6.0000    5.1962    0.0000 C   0  0  0  0  0  0  0  0  0  0  0  0
   -5.2500    3.8971    0.0000 C   0  0  0  0  0  0  0  0  0  0  0  0
   -3.7500    3.8971    0.0000 C   0  0  0  0  0  0  0  0  0  0  0  0
   -3.0000    2.5981    0.0000 N   0  0  0  0  0  0  0  0  0  0  0  0
   -0.7500   -1.2990    0.0000 C   0  0  0  0  0  0  0  0  0  0  0  0
   -1.5000   -2.5981    0.0000 C   0  0  0  0  0  0  0  0  0  0  0  0
   -0.7500   -3.8971    0.0000 C   0  0  0  0  0  0  0  0  0  0  0  0
   -1.5000   -5.1962    0.0000 O   0  0  0  0  0  0  0  0  0  0  0  0
   -3.0000   -5.1962    0.0000 C   0  0  0  0  0  0  0  0  0  0  0  0
  1  2  1  0
  2  3  1  0
  3  4  2  0
  4  5  1  0
  5  6  2  0
  6  7  1  0
  7  8  2  0
  8  9  1  0
  9 10  1  0
 10 11  1  0
 11 12  2  0
 12 13  1  0
 13 14  2  0
 14 15  1  0
 15 16  2  0
 16 17  1  0
 17 18  2  0
 18 19  1  0
 19 20  2  0
  9 21  2  0
 21 22  1  0
 22 23  2  0
 23 24  1  0
 24 25  1  0
 23  3  1  0
 21  5  1  0
 20 11  1  0
 18 13  1  0
M  END
>  <Compound_ID>  (411) 
CHEMBL91428

>  <Active>  (411) 
1.0

>  <Smiles>  (411) 
COc1cc2ncnc(Nc3cc4ccccc4cn3)c2cc1OC

>  <canonical_smi>  (411) 
COc1cc2ncnc(Nc3cc4ccccc4cn3)c2cc1OC

>  <Set>  (411) 
G2 active

>  <Set_type>  (411) 
Train

>  <MW>  (411) 
332.36

>  <HBD>  (411) 
1

>  <HBA>  (411) 
6

>  <NRB>  (411) 
4

>  <NR>  (411) 
4

>  <NAR>  (411) 
4

>  <PSA>  (411) 
69.16

>  <Standard Type>  (411) 
nan

>  <Standard Relation>  (411) 
nan

>  <Standard Units>  (411) 
nan

>  <Standard Value>  (411) 
nan

>  <Assay ChEMBL ID>  (411) 
nan

>  <Assay Description>  (411) 
nan

>  <BAO Label>  (411) 
nan

$$$$

     RDKit          2D

 31 34  0  0  0  0  0  0  0  0999 V2000
   -9.7500    1.2990    0.0000 C   0  0  0  0  0  0  0  0  0  0  0  0
   -8.2500    1.2990    0.0000 O   0  0  0  0  0  0  0  0  0  0  0  0
   -7.5000    0.0000    0.0000 C   0  0  0  0  0  0  0  0  0  0  0  0
   -6.0000    0.0000    0.0000 C   0  0  0  0  0  0  0  0  0  0  0  0
   -5.2500   -1.2990    0.0000 O   0  0  0  0  0  0  0  0  0  0  0  0
   -3.7500   -1.2990    0.0000 C   0  0  0  0  0  0  0  0  0  0  0  0
   -3.0000   -2.5981    0.0000 C   0  0  0  0  0  0  0  0  0  0  0  0
   -1.5000   -2.5981    0.0000 C   0  0  0  0  0  0  0  0  0  0  0  0
   -0.7500   -3.8971    0.0000 O   0  0  0  0  0  0  0  0  0  0  0  0
   -1.5000   -5.1962    0.0000 C   0  0  0  0  0  0  0  0  0  0  0  0
   -3.0000   -5.1962    0.0000 C   0  0  0  0  0  0  0  0  0  0  0  0
   -3.7500   -6.4952    0.0000 C   0  0  0  0  0  0  0  0  0  0  0  0
   -3.0000   -7.7942    0.0000 O   0  0  0  0  0  0  0  0  0  0  0  0
   -1.5000   -7.7942    0.0000 C   0  0  0  0  0  0  0  0  0  0  0  0
   -0.7500   -6.4952    0.0000 C   0  0  0  0  0  0  0  0  0  0  0  0
   -0.7500   -1.2990    0.0000 C   0  0  0  0  0  0  0  0  0  0  0  0
    0.7500   -1.2990    0.0000 C   0  0  0  0  0  0  0  0  0  0  0  0
    1.5000   -2.5981    0.0000 N   0  0  0  0  0  0  0  0  0  0  0  0
    3.0000   -2.5981    0.0000 C   0  0  0  0  0  0  0  0  0  0  0  0
    3.7500   -3.8971    0.0000 C   0  0  0  0  0  0  0  0  0  0  0  0
    5.2500   -3.8971    0.0000 C   0  0  0  0  0  0  0  0  0  0  0  0
    6.0000   -2.5981    0.0000 C   0  0  0  0  0  0  0  0  0  0  0  0
    7.5000   -2.5981    0.0000 F   0  0  0  0  0  0  0  0  0  0  0  0
    5.2500   -1.2990    0.0000 C   0  0  0  0  0  0  0  0  0  0  0  0
    6.0000   -0.0000    0.0000 Cl  0  0  0  0  0  0  0  0  0  0  0  0
    3.7500   -1.2990    0.0000 C   0  0  0  0  0  0  0  0  0  0  0  0
    1.5000    0.0000    0.0000 N   0  0  0  0  0  0  0  0  0  0  0  0
    0.7500    1.2990    0.0000 C   0  0  0  0  0  0  0  0  0  0  0  0
   -0.7500    1.2990    0.0000 N   0  0  0  0  0  0  0  0  0  0  0  0
   -1.5000    0.0000    0.0000 C   0  0  0  0  0  0  0  0  0  0  0  0
   -3.0000    0.0000    0.0000 C   0  0  0  0  0  0  0  0  0  0  0  0
  1  2  1  0
  2  3  1  0
  3  4  1  0
  4  5  1  0
  5  6  1  0
  6  7  2  0
  7  8  1  0
  8  9  1  0
  9 10  1  0
 10 11  1  0
 11 12  1  0
 12 13  1  0
 13 14  1  0
 14 15  1  0
  8 16  2  0
 16 17  1  0
 17 18  1  0
 18 19  1  0
 19 20  2  0
 20 21  1  0
 21 22  2  0
 22 23  1  0
 22 24  1  0
 24 25  1  0
 24 26  2  0
 17 27  2  0
 27 28  1  0
 28 29  2  0
 29 30  1  0
 30 31  2  0
 31  6  1  0
 15 10  1  0
 30 16  1  0
 26 19  1  0
M  END
>  <Compound_ID>  (412) 
CHEMBL382041

>  <Active>  (412) 
1.0

>  <Smiles>  (412) 
COCCOc1cc(OC2CCOCC2)c2c(Nc3ccc(F)c(Cl)c3)ncnc2c1

>  <canonical_smi>  (412) 
COCCOc1cc(OC2CCOCC2)c2c(Nc3ccc(F)c(Cl)c3)ncnc2c1

>  <Set>  (412) 
G2 active

>  <Set_type>  (412) 
Train

>  <MW>  (412) 
447.89

>  <HBD>  (412) 
1

>  <HBA>  (412) 
7

>  <NRB>  (412) 
8

>  <NR>  (412) 
4

>  <NAR>  (412) 
3

>  <PSA>  (412) 
74.73

>  <Standard Type>  (412) 
nan

>  <Standard Relation>  (412) 
nan

>  <Standard Units>  (412) 
nan

>  <Standard Value>  (412) 
nan

>  <Assay ChEMBL ID>  (412) 
nan

>  <Assay Description>  (412) 
nan

>  <BAO Label>  (412) 
nan

$$$$

     RDKit          2D

 29 32  0  0  0  0  0  0  0  0999 V2000
    3.7500   -1.2990    0.0000 C   0  0  0  0  0  0  0  0  0  0  0  0
    3.0000    0.0000    0.0000 O   0  0  0  0  0  0  0  0  0  0  0  0
    1.5000    0.0000    0.0000 C   0  0  0  0  0  0  0  0  0  0  0  0
    0.7500   -1.2990    0.0000 C   0  0  0  0  0  0  0  0  0  0  0  0
   -0.7500   -1.2990    0.0000 C   0  0  0  0  0  0  0  0  0  0  0  0
   -1.5000   -2.5981    0.0000 C   0  0  0  0  0  0  0  0  0  0  0  0
   -3.0000   -2.5981    0.0000 C   0  0  0  0  0  0  0  0  0  0  0  0
   -3.7500   -3.8971    0.0000 N   0  0  0  0  0  0  0  0  0  0  0  0
   -5.2500   -3.8971    0.0000 C   0  0  0  0  0  0  0  0  0  0  0  0
   -6.0000   -2.5981    0.0000 C   0  0  0  0  0  0  0  0  0  0  0  0
   -7.5000   -2.5981    0.0000 C   0  0  0  0  0  0  0  0  0  0  0  0
   -9.0000   -2.5981    0.0000 N   0  0  0  0  0  0  0  0  0  0  0  0
   -5.2500   -1.2990    0.0000 C   0  0  0  0  0  0  0  0  0  0  0  0
   -6.0000   -0.0000    0.0000 N   0  0  0  0  0  0  0  0  0  0  0  0
   -5.2500    1.2990    0.0000 C   0  0  0  0  0  0  0  0  0  0  0  0
   -3.7500    1.2990    0.0000 C   0  0  0  0  0  0  0  0  0  0  0  0
   -3.0000    2.5981    0.0000 C   0  0  0  0  0  0  0  0  0  0  0  0
   -3.7500    3.8971    0.0000 C   0  0  0  0  0  0  0  0  0  0  0  0
   -3.0000    5.1962    0.0000 F   0  0  0  0  0  0  0  0  0  0  0  0
   -5.2500    3.8971    0.0000 C   0  0  0  0  0  0  0  0  0  0  0  0
   -6.0000    5.1962    0.0000 Cl  0  0  0  0  0  0  0  0  0  0  0  0
   -6.0000    2.5981    0.0000 C   0  0  0  0  0  0  0  0  0  0  0  0
   -3.7500   -1.2990    0.0000 C   0  0  0  0  0  0  0  0  0  0  0  0
   -3.0000    0.0000    0.0000 C   0  0  0  0  0  0  0  0  0  0  0  0
   -1.5000    0.0000    0.0000 C   0  0  0  0  0  0  0  0  0  0  0  0
   -0.7500    1.2990    0.0000 C   0  0  0  0  0  0  0  0  0  0  0  0
    0.7500    1.2990    0.0000 C   0  0  0  0  0  0  0  0  0  0  0  0
    1.5000    2.5981    0.0000 O   0  0  0  0  0  0  0  0  0  0  0  0
    3.0000    2.5981    0.0000 C   0  0  0  0  0  0  0  0  0  0  0  0
  1  2  1  0
  2  3  1  0
  3  4  2  0
  4  5  1  0
  5  6  2  0
  6  7  1  0
  7  8  2  0
  8  9  1  0
  9 10  2  0
 10 11  1  0
 11 12  3  0
 10 13  1  0
 13 14  1  0
 14 15  1  0
 15 16  2  0
 16 17  1  0
 17 18  2  0
 18 19  1  0
 18 20  1  0
 20 21  1  0
 20 22  2  0
 13 23  2  0
 23 24  1  0
 24 25  2  0
 25 26  1  0
 26 27  2  0
 27 28  1  0
 28 29  1  0
 27  3  1  0
 25  5  1  0
 23  7  1  0
 22 15  1  0
M  END
>  <Compound_ID>  (413) 
CHEMBL132466

>  <Active>  (413) 
1.0

>  <Smiles>  (413) 
COc1cc2cc3ncc(C#N)c(Nc4ccc(F)c(Cl)c4)c3cc2cc1OC

>  <canonical_smi>  (413) 
COc1cc2cc3ncc(C#N)c(Nc4ccc(F)c(Cl)c4)c3cc2cc1OC

>  <Set>  (413) 
G2 active

>  <Set_type>  (413) 
Train

>  <MW>  (413) 
407.83

>  <HBD>  (413) 
1

>  <HBA>  (413) 
5

>  <NRB>  (413) 
4

>  <NR>  (413) 
4

>  <NAR>  (413) 
4

>  <PSA>  (413) 
67.17

>  <Standard Type>  (413) 
nan

>  <Standard Relation>  (413) 
nan

>  <Standard Units>  (413) 
nan

>  <Standard Value>  (413) 
nan

>  <Assay ChEMBL ID>  (413) 
nan

>  <Assay Description>  (413) 
nan

>  <BAO Label>  (413) 
nan

$$$$

     RDKit          2D

 41 47  0  0  0  0  0  0  0  0999 V2000
   -0.4702  -13.1562    0.0000 O   0  0  0  0  0  0  0  0  0  0  0  0
    1.0216  -12.9994    0.0000 C   0  0  0  0  0  0  0  0  0  0  0  0
    1.6317  -11.6291    0.0000 O   0  0  0  0  0  0  0  0  0  0  0  0
    0.7500  -10.4156    0.0000 C   0  0  0  0  0  0  0  0  0  0  0  0
   -0.7500  -10.4156    0.0000 C   0  0  0  0  0  0  0  0  0  0  0  0
   -1.2135   -8.9890    0.0000 N   0  0  0  0  0  0  0  0  0  0  0  0
    0.0000   -8.1073    0.0000 C   0  0  0  0  0  0  0  0  0  0  0  0
   -0.0000   -6.6073    0.0000 C   0  0  0  0  0  0  0  0  0  0  0  0
   -0.0000   -5.1073    0.0000 C   0  0  0  0  0  0  0  0  0  0  0  0
   -0.0000   -3.6073    0.0000 C   0  0  0  0  0  0  0  0  0  0  0  0
    1.2135   -2.7256    0.0000 C   0  0  0  0  0  0  0  0  0  0  0  0
    0.7500   -1.2990    0.0000 C   0  0  0  0  0  0  0  0  0  0  0  0
    1.5000    0.0000    0.0000 N   0  0  0  0  0  0  0  0  0  0  0  0
    0.7500    1.2990    0.0000 C   0  0  0  0  0  0  0  0  0  0  0  0
   -0.7500    1.2990    0.0000 N   0  0  0  0  0  0  0  0  0  0  0  0
   -1.5000    0.0000    0.0000 C   0  0  0  0  0  0  0  0  0  0  0  0
   -3.0000    0.0000    0.0000 N   0  0  0  0  0  0  0  0  0  0  0  0
   -3.7500    1.2990    0.0000 C   0  0  0  0  0  0  0  0  0  0  0  0
   -3.0000    2.5981    0.0000 C   0  0  0  0  0  0  0  0  0  0  0  0
   -3.7500    3.8971    0.0000 C   0  0  0  0  0  0  0  0  0  0  0  0
   -5.2500    3.8971    0.0000 C   0  0  0  0  0  0  0  0  0  0  0  0
   -6.0000    2.5981    0.0000 C   0  0  0  0  0  0  0  0  0  0  0  0
   -7.4672    2.9099    0.0000 C   0  0  0  0  0  0  0  0  0  0  0  0
   -7.6240    4.4017    0.0000 C   0  0  0  0  0  0  0  0  0  0  0  0
   -6.2537    5.0118    0.0000 N   0  0  0  0  0  0  0  0  0  0  0  0
   -5.9418    6.4791    0.0000 C   0  0  0  0  0  0  0  0  0  0  0  0
   -7.0565    7.4827    0.0000 C   0  0  0  0  0  0  0  0  0  0  0  0
   -8.5238    7.1709    0.0000 C   0  0  0  0  0  0  0  0  0  0  0  0
   -9.2738    8.4699    0.0000 S   0  0  0  0  0  0  0  0  0  0  0  0
   -8.2701    9.5846    0.0000 C   0  0  0  0  0  0  0  0  0  0  0  0
   -6.8998    8.9745    0.0000 N   0  0  0  0  0  0  0  0  0  0  0  0
   -5.2500    1.2990    0.0000 C   0  0  0  0  0  0  0  0  0  0  0  0
   -0.7500   -1.2990    0.0000 C   0  0  0  0  0  0  0  0  0  0  0  0
   -1.2135   -2.7256    0.0000 S   0  0  0  0  0  0  0  0  0  0  0  0
    1.2135   -8.9890    0.0000 C   0  0  0  0  0  0  0  0  0  0  0  0
    1.9033  -14.2129    0.0000 N   0  0  0  0  0  0  0  0  0  0  0  0
    1.2931  -15.5833    0.0000 C   0  0  0  0  0  0  0  0  0  0  0  0
    2.1748  -16.7968    0.0000 C   0  0  0  0  0  0  0  0  0  0  0  0
    3.6666  -16.6400    0.0000 O   0  0  0  0  0  0  0  0  0  0  0  0
    4.2767  -15.2697    0.0000 C   0  0  0  0  0  0  0  0  0  0  0  0
    3.3950  -14.0561    0.0000 C   0  0  0  0  0  0  0  0  0  0  0  0
  1  2  2  0
  2  3  1  0
  4  3  1  1
  4  5  1  0
  5  6  1  0
  6  7  1  0
  7  8  1  6
  8  9  3  0
  9 10  1  0
 10 11  2  0
 11 12  1  0
 12 13  2  0
 13 14  1  0
 14 15  2  0
 15 16  1  0
 16 17  1  0
 17 18  1  0
 18 19  2  0
 19 20  1  0
 20 21  2  0
 21 22  1  0
 22 23  1  0
 23 24  2  0
 24 25  1  0
 25 26  1  0
 26 27  1  0
 27 28  2  0
 28 29  1  0
 29 30  1  0
 30 31  2  0
 22 32  2  0
 16 33  2  0
 33 34  1  0
  7 35  1  0
  2 36  1  0
 36 37  1  0
 37 38  1  0
 38 39  1  0
 39 40  1  0
 40 41  1  0
 35  4  1  0
 41 36  1  0
 34 10  1  0
 33 12  1  0
 32 18  1  0
 25 21  1  0
 31 27  1  0
M  END
>  <Compound_ID>  (414) 
CHEMBL451347

>  <Active>  (414) 
1.0

>  <Smiles>  (414) 
O=C(O[C@H]1CN[C@H](C#Cc2cc3ncnc(Nc4ccc5c(ccn5Cc5cscn5)c4)c3s2)C1)N1CCOCC1

>  <canonical_smi>  (414) 
O=C(O[C@H]1CN[C@H](C#Cc2cc3ncnc(Nc4ccc5c(ccn5Cc5cscn5)c4)c3s2)C1)N1CCOCC1

>  <Set>  (414) 
G2 active

>  <Set_type>  (414) 
Train

>  <MW>  (414) 
585.71

>  <HBD>  (414) 
2

>  <HBA>  (414) 
8

>  <NRB>  (414) 
5

>  <NR>  (414) 
7

>  <NAR>  (414) 
5

>  <PSA>  (414) 
106.43

>  <Standard Type>  (414) 
nan

>  <Standard Relation>  (414) 
nan

>  <Standard Units>  (414) 
nan

>  <Standard Value>  (414) 
nan

>  <Assay ChEMBL ID>  (414) 
nan

>  <Assay Description>  (414) 
nan

>  <BAO Label>  (414) 
nan

$$$$

     RDKit          2D

 21 22  0  0  0  0  0  0  0  0999 V2000
   -2.2500   -3.8971    0.0000 N   0  0  0  0  0  0  0  0  0  0  0  0
   -0.7500   -3.8971    0.0000 C   0  0  0  0  0  0  0  0  0  0  0  0
    0.7500   -3.8971    0.0000 C   0  0  0  0  0  0  0  0  0  0  0  0
    1.5000   -2.5981    0.0000 C   0  0  0  0  0  0  0  0  0  0  0  0
    0.7500   -1.2990    0.0000 C   0  0  0  0  0  0  0  0  0  0  0  0
    1.5000    0.0000    0.0000 C   0  0  0  0  0  0  0  0  0  0  0  0
    0.7500    1.2990    0.0000 C   0  0  0  0  0  0  0  0  0  0  0  0
   -0.7500    1.2990    0.0000 C   0  0  0  0  0  0  0  0  0  0  0  0
   -1.5000    2.5981    0.0000 O   0  0  0  0  0  0  0  0  0  0  0  0
   -1.5000    0.0000    0.0000 C   0  0  0  0  0  0  0  0  0  0  0  0
   -3.0000    0.0000    0.0000 O   0  0  0  0  0  0  0  0  0  0  0  0
   -0.7500   -1.2990    0.0000 C   0  0  0  0  0  0  0  0  0  0  0  0
    1.5000   -5.1962    0.0000 C   0  0  0  0  0  0  0  0  0  0  0  0
    3.0000   -5.1962    0.0000 O   0  0  0  0  0  0  0  0  0  0  0  0
    0.7500   -6.4952    0.0000 N   0  0  0  0  0  0  0  0  0  0  0  0
    1.5000   -7.7942    0.0000 C   0  0  0  0  0  0  0  0  0  0  0  0
    0.7500   -9.0933    0.0000 C   0  0  0  0  0  0  0  0  0  0  0  0
    1.5000  -10.3923    0.0000 C   0  0  0  0  0  0  0  0  0  0  0  0
    3.0000  -10.3923    0.0000 C   0  0  0  0  0  0  0  0  0  0  0  0
    3.7500   -9.0933    0.0000 C   0  0  0  0  0  0  0  0  0  0  0  0
    3.0000   -7.7942    0.0000 C   0  0  0  0  0  0  0  0  0  0  0  0
  1  2  3  0
  2  3  1  0
  3  4  2  0
  4  5  1  0
  5  6  2  0
  6  7  1  0
  7  8  2  0
  8  9  1  0
  8 10  1  0
 10 11  1  0
 10 12  2  0
  3 13  1  0
 13 14  2  0
 13 15  1  0
 15 16  1  0
 16 17  2  0
 17 18  1  0
 18 19  2  0
 19 20  1  0
 20 21  2  0
 12  5  1  0
 21 16  1  0
M  END
>  <Compound_ID>  (415) 
CHEMBL56731

>  <Active>  (415) 
1.0

>  <Smiles>  (415) 
N#C/C(=C\c1ccc(O)c(O)c1)C(=O)Nc1ccccc1

>  <canonical_smi>  (415) 
N#C/C(=C\c1ccc(O)c(O)c1)C(=O)Nc1ccccc1

>  <Set>  (415) 
G2 active

>  <Set_type>  (415) 
Train

>  <MW>  (415) 
280.28

>  <HBD>  (415) 
3

>  <HBA>  (415) 
4

>  <NRB>  (415) 
3

>  <NR>  (415) 
2

>  <NAR>  (415) 
2

>  <PSA>  (415) 
93.35

>  <Standard Type>  (415) 
nan

>  <Standard Relation>  (415) 
nan

>  <Standard Units>  (415) 
nan

>  <Standard Value>  (415) 
nan

>  <Assay ChEMBL ID>  (415) 
nan

>  <Assay Description>  (415) 
nan

>  <BAO Label>  (415) 
nan

$$$$

     RDKit          2D

 24 25  0  0  0  0  0  0  0  0999 V2000
   -2.2500   -3.8971    0.0000 N   0  0  0  0  0  0  0  0  0  0  0  0
   -0.7500   -3.8971    0.0000 C   0  0  0  0  0  0  0  0  0  0  0  0
    0.7500   -3.8971    0.0000 C   0  0  0  0  0  0  0  0  0  0  0  0
    1.5000   -2.5981    0.0000 C   0  0  0  0  0  0  0  0  0  0  0  0
    0.7500   -1.2990    0.0000 C   0  0  0  0  0  0  0  0  0  0  0  0
    1.5000    0.0000    0.0000 C   0  0  0  0  0  0  0  0  0  0  0  0
    0.7500    1.2990    0.0000 C   0  0  0  0  0  0  0  0  0  0  0  0
   -0.7500    1.2990    0.0000 C   0  0  0  0  0  0  0  0  0  0  0  0
   -1.5000    2.5981    0.0000 O   0  0  0  0  0  0  0  0  0  0  0  0
   -1.5000    0.0000    0.0000 C   0  0  0  0  0  0  0  0  0  0  0  0
   -3.0000    0.0000    0.0000 O   0  0  0  0  0  0  0  0  0  0  0  0
   -0.7500   -1.2990    0.0000 C   0  0  0  0  0  0  0  0  0  0  0  0
    1.5000   -5.1962    0.0000 C   0  0  0  0  0  0  0  0  0  0  0  0
    3.0000   -5.1962    0.0000 O   0  0  0  0  0  0  0  0  0  0  0  0
    0.7500   -6.4952    0.0000 N   0  0  0  0  0  0  0  0  0  0  0  0
    1.5000   -7.7942    0.0000 C   0  0  0  0  0  0  0  0  0  0  0  0
    0.7500   -9.0933    0.0000 C   0  0  0  0  0  0  0  0  0  0  0  0
    1.5000  -10.3923    0.0000 C   0  0  0  0  0  0  0  0  0  0  0  0
    0.7500  -11.6913    0.0000 C   0  0  0  0  0  0  0  0  0  0  0  0
   -0.7500  -11.6913    0.0000 C   0  0  0  0  0  0  0  0  0  0  0  0
   -1.5000  -12.9904    0.0000 C   0  0  0  0  0  0  0  0  0  0  0  0
   -0.7500  -14.2894    0.0000 C   0  0  0  0  0  0  0  0  0  0  0  0
    0.7500  -14.2894    0.0000 C   0  0  0  0  0  0  0  0  0  0  0  0
    1.5000  -12.9904    0.0000 C   0  0  0  0  0  0  0  0  0  0  0  0
  1  2  3  0
  2  3  1  0
  3  4  2  0
  4  5  1  0
  5  6  2  0
  6  7  1  0
  7  8  2  0
  8  9  1  0
  8 10  1  0
 10 11  1  0
 10 12  2  0
  3 13  1  0
 13 14  2  0
 13 15  1  0
 15 16  1  0
 16 17  1  0
 17 18  1  0
 18 19  1  0
 19 20  2  0
 20 21  1  0
 21 22  2  0
 22 23  1  0
 23 24  2  0
 12  5  1  0
 24 19  1  0
M  END
>  <Compound_ID>  (416) 
CHEMBL53898

>  <Active>  (416) 
1.0

>  <Smiles>  (416) 
N#C/C(=C\c1ccc(O)c(O)c1)C(=O)NCCCc1ccccc1

>  <canonical_smi>  (416) 
N#C/C(=C\c1ccc(O)c(O)c1)C(=O)NCCCc1ccccc1

>  <Set>  (416) 
G2 active

>  <Set_type>  (416) 
Train

>  <MW>  (416) 
322.36

>  <HBD>  (416) 
3

>  <HBA>  (416) 
4

>  <NRB>  (416) 
6

>  <NR>  (416) 
2

>  <NAR>  (416) 
2

>  <PSA>  (416) 
93.35

>  <Standard Type>  (416) 
nan

>  <Standard Relation>  (416) 
nan

>  <Standard Units>  (416) 
nan

>  <Standard Value>  (416) 
nan

>  <Assay ChEMBL ID>  (416) 
nan

>  <Assay Description>  (416) 
nan

>  <BAO Label>  (416) 
nan

$$$$

     RDKit          2D

 35 36  0  0  0  0  0  0  0  0999 V2000
   -2.2500   -3.8971    0.0000 N   0  0  0  0  0  0  0  0  0  0  0  0
   -0.7500   -3.8971    0.0000 C   0  0  0  0  0  0  0  0  0  0  0  0
    0.7500   -3.8971    0.0000 C   0  0  0  0  0  0  0  0  0  0  0  0
    1.5000   -2.5981    0.0000 C   0  0  0  0  0  0  0  0  0  0  0  0
    0.7500   -1.2990    0.0000 C   0  0  0  0  0  0  0  0  0  0  0  0
    1.5000    0.0000    0.0000 C   0  0  0  0  0  0  0  0  0  0  0  0
    0.7500    1.2990    0.0000 C   0  0  0  0  0  0  0  0  0  0  0  0
   -0.7500    1.2990    0.0000 C   0  0  0  0  0  0  0  0  0  0  0  0
   -1.5000    2.5981    0.0000 O   0  0  0  0  0  0  0  0  0  0  0  0
   -1.5000    0.0000    0.0000 C   0  0  0  0  0  0  0  0  0  0  0  0
   -3.0000    0.0000    0.0000 O   0  0  0  0  0  0  0  0  0  0  0  0
   -0.7500   -1.2990    0.0000 C   0  0  0  0  0  0  0  0  0  0  0  0
    1.5000   -5.1962    0.0000 C   0  0  0  0  0  0  0  0  0  0  0  0
    3.0000   -5.1962    0.0000 O   0  0  0  0  0  0  0  0  0  0  0  0
    0.7500   -6.4952    0.0000 N   0  0  0  0  0  0  0  0  0  0  0  0
    1.5000   -7.7942    0.0000 C   0  0  0  0  0  0  0  0  0  0  0  0
    0.7500   -9.0933    0.0000 C   0  0  0  0  0  0  0  0  0  0  0  0
    1.5000  -10.3923    0.0000 C   0  0  0  0  0  0  0  0  0  0  0  0
    0.7500  -11.6913    0.0000 C   0  0  0  0  0  0  0  0  0  0  0  0
    1.5000  -12.9904    0.0000 C   0  0  0  0  0  0  0  0  0  0  0  0
    0.7500  -14.2894    0.0000 N   0  0  0  0  0  0  0  0  0  0  0  0
    1.5000  -15.5885    0.0000 C   0  0  0  0  0  0  0  0  0  0  0  0
    3.0000  -15.5885    0.0000 O   0  0  0  0  0  0  0  0  0  0  0  0
    0.7500  -16.8875    0.0000 C   0  0  0  0  0  0  0  0  0  0  0  0
   -0.7500  -16.8875    0.0000 C   0  0  0  0  0  0  0  0  0  0  0  0
   -2.2500  -16.8875    0.0000 N   0  0  0  0  0  0  0  0  0  0  0  0
    1.5000  -18.1865    0.0000 C   0  0  0  0  0  0  0  0  0  0  0  0
    0.7500  -19.4856    0.0000 C   0  0  0  0  0  0  0  0  0  0  0  0
   -0.7500  -19.4856    0.0000 C   0  0  0  0  0  0  0  0  0  0  0  0
   -1.5000  -20.7846    0.0000 C   0  0  0  0  0  0  0  0  0  0  0  0
   -0.7500  -22.0836    0.0000 C   0  0  0  0  0  0  0  0  0  0  0  0
   -1.5000  -23.3827    0.0000 O   0  0  0  0  0  0  0  0  0  0  0  0
    0.7500  -22.0836    0.0000 C   0  0  0  0  0  0  0  0  0  0  0  0
    1.5000  -23.3827    0.0000 O   0  0  0  0  0  0  0  0  0  0  0  0
    1.5000  -20.7846    0.0000 C   0  0  0  0  0  0  0  0  0  0  0  0
  1  2  3  0
  2  3  1  0
  3  4  2  0
  4  5  1  0
  5  6  2  0
  6  7  1  0
  7  8  2  0
  8  9  1  0
  8 10  1  0
 10 11  1  0
 10 12  2  0
  3 13  1  0
 13 14  2  0
 13 15  1  0
 15 16  1  0
 16 17  1  0
 17 18  1  0
 18 19  1  0
 19 20  1  0
 20 21  1  0
 21 22  1  0
 22 23  2  0
 22 24  1  0
 24 25  1  0
 25 26  3  0
 24 27  2  0
 27 28  1  0
 28 29  2  0
 29 30  1  0
 30 31  2  0
 31 32  1  0
 31 33  1  0
 33 34  1  0
 33 35  2  0
 12  5  1  0
 35 28  1  0
M  END
>  <Compound_ID>  (417) 
CHEMBL144842

>  <Active>  (417) 
1.0

>  <Smiles>  (417) 
N#C/C(=C\c1ccc(O)c(O)c1)C(=O)NCCCCCNC(=O)/C(C#N)=C/c1ccc(O)c(O)c1

>  <canonical_smi>  (417) 
N#C/C(=C\c1ccc(O)c(O)c1)C(=O)NCCCCCNC(=O)/C(C#N)=C/c1ccc(O)c(O)c1

>  <Set>  (417) 
G2 active

>  <Set_type>  (417) 
Train

>  <MW>  (417) 
476.49

>  <HBD>  (417) 
6

>  <HBA>  (417) 
8

>  <NRB>  (417) 
10

>  <NR>  (417) 
2

>  <NAR>  (417) 
2

>  <PSA>  (417) 
186.7

>  <Standard Type>  (417) 
nan

>  <Standard Relation>  (417) 
nan

>  <Standard Units>  (417) 
nan

>  <Standard Value>  (417) 
nan

>  <Assay ChEMBL ID>  (417) 
nan

>  <Assay Description>  (417) 
nan

>  <BAO Label>  (417) 
nan

$$$$

     RDKit          2D

 24 25  0  0  0  0  0  0  0  0999 V2000
    3.7500   -1.2990    0.0000 C   0  0  0  0  0  0  0  0  0  0  0  0
    3.0000    0.0000    0.0000 O   0  0  0  0  0  0  0  0  0  0  0  0
    1.5000    0.0000    0.0000 C   0  0  0  0  0  0  0  0  0  0  0  0
    0.7500   -1.2990    0.0000 C   0  0  0  0  0  0  0  0  0  0  0  0
   -0.7500   -1.2990    0.0000 C   0  0  0  0  0  0  0  0  0  0  0  0
   -1.5000   -2.5981    0.0000 C   0  0  0  0  0  0  0  0  0  0  0  0
   -3.0000   -2.5981    0.0000 C   0  0  0  0  0  0  0  0  0  0  0  0
   -3.7500   -1.2990    0.0000 C   0  0  0  0  0  0  0  0  0  0  0  0
   -4.5000    0.0000    0.0000 N   0  0  0  0  0  0  0  0  0  0  0  0
   -3.7500   -3.8971    0.0000 C   0  0  0  0  0  0  0  0  0  0  0  0
   -5.2500   -3.8971    0.0000 N   0  0  0  0  0  0  0  0  0  0  0  0
   -3.0000   -5.1962    0.0000 O   0  0  0  0  0  0  0  0  0  0  0  0
   -1.5000    0.0000    0.0000 C   0  0  0  0  0  0  0  0  0  0  0  0
   -0.7500    1.2990    0.0000 C   0  0  0  0  0  0  0  0  0  0  0  0
   -1.5000    2.5981    0.0000 C   0  0  0  0  0  0  0  0  0  0  0  0
   -0.7500    3.8971    0.0000 S   0  0  0  0  0  0  0  0  0  0  0  0
   -1.5000    5.1962    0.0000 C   0  0  0  0  0  0  0  0  0  0  0  0
   -0.7500    6.4952    0.0000 C   0  0  0  0  0  0  0  0  0  0  0  0
   -1.5000    7.7942    0.0000 C   0  0  0  0  0  0  0  0  0  0  0  0
   -3.0000    7.7942    0.0000 C   0  0  0  0  0  0  0  0  0  0  0  0
   -3.7500    6.4952    0.0000 C   0  0  0  0  0  0  0  0  0  0  0  0
   -3.0000    5.1962    0.0000 N   0  0  0  0  0  0  0  0  0  0  0  0
    0.7500    1.2990    0.0000 C   0  0  0  0  0  0  0  0  0  0  0  0
    1.5000    2.5981    0.0000 O   0  0  0  0  0  0  0  0  0  0  0  0
  1  2  1  0
  2  3  1  0
  3  4  2  0
  4  5  1  0
  5  6  1  0
  6  7  2  0
  7  8  1  0
  8  9  3  0
  7 10  1  0
 10 11  1  0
 10 12  2  0
  5 13  2  0
 13 14  1  0
 14 15  1  0
 15 16  1  0
 16 17  1  0
 17 18  2  0
 18 19  1  0
 19 20  2  0
 20 21  1  0
 21 22  2  0
 14 23  2  0
 23 24  1  0
 23  3  1  0
 22 17  1  0
M  END
>  <Compound_ID>  (418) 
CHEMBL119156

>  <Active>  (418) 
1.0

>  <Smiles>  (418) 
COc1cc(/C=C(\C#N)C(N)=O)cc(CSc2ccccn2)c1O

>  <canonical_smi>  (418) 
COc1cc(/C=C(\C#N)C(N)=O)cc(CSc2ccccn2)c1O

>  <Set>  (418) 
G2 active

>  <Set_type>  (418) 
Train

>  <MW>  (418) 
341.39

>  <HBD>  (418) 
2

>  <HBA>  (418) 
6

>  <NRB>  (418) 
6

>  <NR>  (418) 
2

>  <NAR>  (418) 
2

>  <PSA>  (418) 
109.23

>  <Standard Type>  (418) 
nan

>  <Standard Relation>  (418) 
nan

>  <Standard Units>  (418) 
nan

>  <Standard Value>  (418) 
nan

>  <Assay ChEMBL ID>  (418) 
nan

>  <Assay Description>  (418) 
nan

>  <BAO Label>  (418) 
nan

$$$$

     RDKit          2D

 34 38  0  0  0  0  0  0  0  0999 V2000
    0.7500   -6.4952    0.0000 C   0  0  0  0  0  0  0  0  0  0  0  0
   -0.7500   -6.4952    0.0000 C   0  0  0  0  0  0  0  0  0  0  0  0
   -1.5000   -7.7942    0.0000 C   0  0  0  0  0  0  0  0  0  0  0  0
   -3.0000   -7.7942    0.0000 C   0  0  0  0  0  0  0  0  0  0  0  0
   -3.7500   -6.4952    0.0000 C   0  0  0  0  0  0  0  0  0  0  0  0
   -5.2500   -6.4952    0.0000 N   0  0  0  0  0  0  0  0  0  0  0  0
   -6.0000   -5.1962    0.0000 C   0  0  0  0  0  0  0  0  0  0  0  0
   -5.2500   -3.8971    0.0000 O   0  0  0  0  0  0  0  0  0  0  0  0
   -7.5000   -5.1962    0.0000 C   0  0  0  0  0  0  0  0  0  0  0  0
   -8.2500   -3.8971    0.0000 C   0  0  0  0  0  0  0  0  0  0  0  0
   -9.7500   -3.8971    0.0000 C   0  0  0  0  0  0  0  0  0  0  0  0
  -10.5000   -5.1962    0.0000 C   0  0  0  0  0  0  0  0  0  0  0  0
  -12.0000   -5.1962    0.0000 C   0  0  0  0  0  0  0  0  0  0  0  0
  -12.7500   -3.8971    0.0000 N   0  0  0  0  0  0  0  0  0  0  0  0
  -12.0000   -2.5981    0.0000 C   0  0  0  0  0  0  0  0  0  0  0  0
  -12.7500   -1.2990    0.0000 C   0  0  0  0  0  0  0  0  0  0  0  0
  -14.2500   -1.2990    0.0000 N   0  0  0  0  0  0  0  0  0  0  0  0
  -15.0000    0.0000    0.0000 C   0  0  0  0  0  0  0  0  0  0  0  0
  -15.0000   -2.5981    0.0000 C   0  0  0  0  0  0  0  0  0  0  0  0
  -14.2500   -3.8971    0.0000 C   0  0  0  0  0  0  0  0  0  0  0  0
   -9.7500   -6.4952    0.0000 C   0  0  0  0  0  0  0  0  0  0  0  0
   -8.2500   -6.4952    0.0000 C   0  0  0  0  0  0  0  0  0  0  0  0
   -3.0000   -5.1962    0.0000 C   0  0  0  0  0  0  0  0  0  0  0  0
   -1.5000   -5.1962    0.0000 C   0  0  0  0  0  0  0  0  0  0  0  0
   -0.7500   -3.8971    0.0000 C   0  0  0  0  0  0  0  0  0  0  0  0
    0.7500   -3.8971    0.0000 C   0  0  0  0  0  0  0  0  0  0  0  0
    1.5000   -2.5981    0.0000 C   0  0  0  0  0  0  0  0  0  0  0  0
    0.7500   -1.2990    0.0000 C   0  0  0  0  0  0  0  0  0  0  0  0
    1.5000    0.0000    0.0000 C   0  0  0  0  0  0  0  0  0  0  0  0
    0.7500    1.2990    0.0000 C   0  0  0  0  0  0  0  0  0  0  0  0
   -0.7500    1.2990    0.0000 N   0  0  0  0  0  0  0  0  0  0  0  0
   -1.5000    0.0000    0.0000 C   0  0  0  0  0  0  0  0  0  0  0  0
   -0.7500   -1.2990    0.0000 C   0  0  0  0  0  0  0  0  0  0  0  0
   -1.5000   -2.5981    0.0000 C   0  0  0  0  0  0  0  0  0  0  0  0
  1  2  1  0
  2  3  2  0
  3  4  1  0
  4  5  2  0
  5  6  1  0
  6  7  1  0
  7  8  2  0
  7  9  1  0
  9 10  2  0
 10 11  1  0
 11 12  2  0
 12 13  1  0
 13 14  1  0
 14 15  1  0
 15 16  1  0
 16 17  1  0
 17 18  1  0
 17 19  1  0
 19 20  1  0
 12 21  1  0
 21 22  2  0
  5 23  1  0
 23 24  2  0
 24 25  1  0
 25 26  2  0
 26 27  1  0
 27 28  2  0
 28 29  1  0
 29 30  2  0
 30 31  1  0
 31 32  2  0
 32 33  1  0
 33 34  2  0
 24  2  1  0
 34 25  1  0
 22  9  1  0
 33 28  1  0
 20 14  1  0
M  END
>  <Compound_ID>  (419) 
CHEMBL521887

>  <Active>  (419) 
1.0

>  <Smiles>  (419) 
Cc1ccc(NC(=O)c2ccc(CN3CCN(C)CC3)cc2)cc1-c1ccc2ccncc2c1

>  <canonical_smi>  (419) 
Cc1ccc(NC(=O)c2ccc(CN3CCN(C)CC3)cc2)cc1-c1ccc2ccncc2c1

>  <Set>  (419) 
G2 active

>  <Set_type>  (419) 
Train

>  <MW>  (419) 
450.59

>  <HBD>  (419) 
1

>  <HBA>  (419) 
4

>  <NRB>  (419) 
5

>  <NR>  (419) 
5

>  <NAR>  (419) 
4

>  <PSA>  (419) 
48.47

>  <Standard Type>  (419) 
nan

>  <Standard Relation>  (419) 
nan

>  <Standard Units>  (419) 
nan

>  <Standard Value>  (419) 
nan

>  <Assay ChEMBL ID>  (419) 
nan

>  <Assay Description>  (419) 
nan

>  <BAO Label>  (419) 
nan

$$$$

     RDKit          2D

 27 30  0  0  0  0  0  0  0  0999 V2000
   -0.3363   -9.0724    0.0000 C   0  0  0  0  0  0  0  0  0  0  0  0
    1.0152   -8.4216    0.0000 O   0  0  0  0  0  0  0  0  0  0  0  0
    1.1273   -6.9258    0.0000 C   0  0  0  0  0  0  0  0  0  0  0  0
   -0.1121   -6.0808    0.0000 C   0  0  0  0  0  0  0  0  0  0  0  0
    0.0000   -4.5850    0.0000 C   0  0  0  0  0  0  0  0  0  0  0  0
    1.3515   -3.9342    0.0000 C   0  0  0  0  0  0  0  0  0  0  0  0
    2.5908   -4.7792    0.0000 C   0  0  0  0  0  0  0  0  0  0  0  0
    2.4787   -6.2750    0.0000 C   0  0  0  0  0  0  0  0  0  0  0  0
    3.7181   -7.1199    0.0000 O   0  0  0  0  0  0  0  0  0  0  0  0
    5.0695   -6.4691    0.0000 C   0  0  0  0  0  0  0  0  0  0  0  0
    1.6852   -2.4718    0.0000 O   0  0  0  0  0  0  0  0  0  0  0  0
    0.7500   -1.2990    0.0000 C   0  0  0  0  0  0  0  0  0  0  0  0
    1.5000    0.0000    0.0000 N   0  0  0  0  0  0  0  0  0  0  0  0
    0.7500    1.2990    0.0000 C   0  0  0  0  0  0  0  0  0  0  0  0
   -0.7500    1.2990    0.0000 N   0  0  0  0  0  0  0  0  0  0  0  0
   -1.5000    0.0000    0.0000 C   0  0  0  0  0  0  0  0  0  0  0  0
   -3.0000    0.0000    0.0000 O   0  0  0  0  0  0  0  0  0  0  0  0
   -3.7500    1.2990    0.0000 C   0  0  0  0  0  0  0  0  0  0  0  0
   -3.0000    2.5981    0.0000 C   0  0  0  0  0  0  0  0  0  0  0  0
   -3.7500    3.8971    0.0000 C   0  0  0  0  0  0  0  0  0  0  0  0
   -5.2500    3.8971    0.0000 C   0  0  0  0  0  0  0  0  0  0  0  0
   -6.0000    2.5981    0.0000 C   0  0  0  0  0  0  0  0  0  0  0  0
   -7.5000    2.5981    0.0000 Br  0  0  0  0  0  0  0  0  0  0  0  0
   -5.2500    1.2990    0.0000 C   0  0  0  0  0  0  0  0  0  0  0  0
   -0.7500   -1.2990    0.0000 C   0  0  0  0  0  0  0  0  0  0  0  0
   -1.6852   -2.4718    0.0000 N   0  0  0  0  0  0  0  0  0  0  0  0
   -1.3515   -3.9342    0.0000 C   0  0  0  0  0  0  0  0  0  0  0  0
  1  2  1  0
  2  3  1  0
  3  4  2  0
  4  5  1  0
  5  6  2  0
  6  7  1  0
  7  8  2  0
  8  9  1  0
  9 10  1  0
  6 11  1  0
 11 12  1  0
 12 13  2  0
 13 14  1  0
 14 15  2  0
 15 16  1  0
 16 17  1  0
 17 18  1  0
 18 19  2  0
 19 20  1  0
 20 21  2  0
 21 22  1  0
 22 23  1  0
 22 24  2  0
 16 25  2  0
 25 26  1  0
 26 27  1  0
  8  3  1  0
 25 12  1  0
 27  5  1  0
 24 18  1  0
M  END
>  <Compound_ID>  (420) 
CHEMBL216048

>  <Active>  (420) 
1.0

>  <Smiles>  (420) 
COc1cc2c(cc1OC)Oc1ncnc(Oc3cccc(Br)c3)c1NC2

>  <canonical_smi>  (420) 
COc1cc2c(cc1OC)Oc1ncnc(Oc3cccc(Br)c3)c1NC2

>  <Set>  (420) 
G2 active

>  <Set_type>  (420) 
Train

>  <MW>  (420) 
430.26

>  <HBD>  (420) 
1

>  <HBA>  (420) 
7

>  <NRB>  (420) 
4

>  <NR>  (420) 
4

>  <NAR>  (420) 
3

>  <PSA>  (420) 
74.73

>  <Standard Type>  (420) 
nan

>  <Standard Relation>  (420) 
nan

>  <Standard Units>  (420) 
nan

>  <Standard Value>  (420) 
nan

>  <Assay ChEMBL ID>  (420) 
nan

>  <Assay Description>  (420) 
nan

>  <BAO Label>  (420) 
nan

$$$$

     RDKit          2D

 23 25  0  0  0  0  0  0  0  0999 V2000
    1.8478   -9.0619    0.0000 O   0  0  0  0  0  0  0  0  0  0  0  0
    2.0046   -7.5702    0.0000 C   0  0  0  0  0  0  0  0  0  0  0  0
    3.3037   -6.8202    0.0000 N   0  0  0  0  0  0  0  0  0  0  0  0
    2.9918   -5.3529    0.0000 C   0  0  0  0  0  0  0  0  0  0  0  0
    3.9955   -4.2382    0.0000 O   0  0  0  0  0  0  0  0  0  0  0  0
    1.5000   -5.1962    0.0000 N   0  0  0  0  0  0  0  0  0  0  0  0
    0.7500   -3.8971    0.0000 C   0  0  0  0  0  0  0  0  0  0  0  0
    1.5000   -2.5981    0.0000 C   0  0  0  0  0  0  0  0  0  0  0  0
    0.7500   -1.2990    0.0000 C   0  0  0  0  0  0  0  0  0  0  0  0
    1.5000    0.0000    0.0000 C   0  0  0  0  0  0  0  0  0  0  0  0
    0.7500    1.2990    0.0000 C   0  0  0  0  0  0  0  0  0  0  0  0
   -0.7500    1.2990    0.0000 C   0  0  0  0  0  0  0  0  0  0  0  0
   -1.5000    0.0000    0.0000 C   0  0  0  0  0  0  0  0  0  0  0  0
   -0.7500   -1.2990    0.0000 C   0  0  0  0  0  0  0  0  0  0  0  0
    0.8899   -6.5665    0.0000 C   0  0  0  0  0  0  0  0  0  0  0  0
   -0.5773   -6.8783    0.0000 C   0  0  0  0  0  0  0  0  0  0  0  0
   -1.0409   -8.3049    0.0000 C   0  0  0  0  0  0  0  0  0  0  0  0
   -2.5081   -8.6168    0.0000 C   0  0  0  0  0  0  0  0  0  0  0  0
   -2.9716  -10.0434    0.0000 C   0  0  0  0  0  0  0  0  0  0  0  0
   -1.9679  -11.1581    0.0000 C   0  0  0  0  0  0  0  0  0  0  0  0
   -2.4314  -12.5847    0.0000 O   0  0  0  0  0  0  0  0  0  0  0  0
   -0.5007  -10.8462    0.0000 C   0  0  0  0  0  0  0  0  0  0  0  0
   -0.0372   -9.4196    0.0000 C   0  0  0  0  0  0  0  0  0  0  0  0
  1  2  2  0
  2  3  1  0
  3  4  1  0
  4  5  2  0
  4  6  1  0
  6  7  1  0
  7  8  1  0
  8  9  1  0
  9 10  2  0
 10 11  1  0
 11 12  2  0
 12 13  1  0
 13 14  2  0
  6 15  1  0
 15 16  2  0
 16 17  1  0
 17 18  2  0
 18 19  1  0
 19 20  2  0
 20 21  1  0
 20 22  1  0
 22 23  2  0
 15  2  1  0
 23 17  1  0
 14  9  1  0
M  END
>  <Compound_ID>  (421) 
CHEMBL213560

>  <Active>  (421) 
1.0

>  <Smiles>  (421) 
O=C1NC(=O)N(CCc2ccccc2)/C1=C/c1ccc(O)cc1

>  <canonical_smi>  (421) 
O=C1NC(=O)N(CCc2ccccc2)/C1=C/c1ccc(O)cc1

>  <Set>  (421) 
G2 active

>  <Set_type>  (421) 
Train

>  <MW>  (421) 
308.34

>  <HBD>  (421) 
2

>  <HBA>  (421) 
3

>  <NRB>  (421) 
4

>  <NR>  (421) 
3

>  <NAR>  (421) 
2

>  <PSA>  (421) 
69.64

>  <Standard Type>  (421) 
nan

>  <Standard Relation>  (421) 
nan

>  <Standard Units>  (421) 
nan

>  <Standard Value>  (421) 
nan

>  <Assay ChEMBL ID>  (421) 
nan

>  <Assay Description>  (421) 
nan

>  <BAO Label>  (421) 
nan

$$$$

     RDKit          2D

 36 39  0  0  0  0  0  0  0  0999 V2000
   -3.7500   -6.4952    0.0000 C   0  0  0  0  0  0  0  0  0  0  0  0
   -3.0000   -5.1962    0.0000 O   0  0  0  0  0  0  0  0  0  0  0  0
   -1.5000   -5.1962    0.0000 C   0  0  0  0  0  0  0  0  0  0  0  0
   -0.7500   -3.8971    0.0000 C   0  0  0  0  0  0  0  0  0  0  0  0
    0.7500   -3.8971    0.0000 C   0  0  0  0  0  0  0  0  0  0  0  0
    1.5000   -2.5981    0.0000 N   0  0  0  0  0  0  0  0  0  0  0  0
    0.7500   -1.2990    0.0000 C   0  0  0  0  0  0  0  0  0  0  0  0
    1.5000    0.0000    0.0000 C   0  0  0  0  0  0  0  0  0  0  0  0
    3.0000    0.0000    0.0000 C   0  0  0  0  0  0  0  0  0  0  0  0
    4.5000    0.0000    0.0000 N   0  0  0  0  0  0  0  0  0  0  0  0
    0.7500    1.2990    0.0000 C   0  0  0  0  0  0  0  0  0  0  0  0
   -0.7500    1.2990    0.0000 N   0  0  0  0  0  0  0  0  0  0  0  0
   -1.5000    0.0000    0.0000 C   0  0  0  0  0  0  0  0  0  0  0  0
   -3.0000    0.0000    0.0000 C   0  0  0  0  0  0  0  0  0  0  0  0
   -3.7500   -1.2990    0.0000 C   0  0  0  0  0  0  0  0  0  0  0  0
   -5.2500   -1.2990    0.0000 C   0  0  0  0  0  0  0  0  0  0  0  0
   -6.7500   -1.2990    0.0000 C   0  0  0  0  0  0  0  0  0  0  0  0
   -8.2500   -1.2990    0.0000 C   0  0  0  0  0  0  0  0  0  0  0  0
   -9.0000   -0.0000    0.0000 C   0  0  0  0  0  0  0  0  0  0  0  0
  -10.5000   -0.0000    0.0000 N   0  0  0  0  0  0  0  0  0  0  0  0
  -11.2500    1.2990    0.0000 C   0  0  0  0  0  0  0  0  0  0  0  0
  -12.7500    1.2990    0.0000 C   0  0  0  0  0  0  0  0  0  0  0  0
  -13.5000   -0.0000    0.0000 N   0  0  0  0  0  0  0  0  0  0  0  0
  -15.0000    0.0000    0.0000 C   0  0  0  0  0  0  0  0  0  0  0  0
  -12.7500   -1.2990    0.0000 C   0  0  0  0  0  0  0  0  0  0  0  0
  -11.2500   -1.2990    0.0000 C   0  0  0  0  0  0  0  0  0  0  0  0
   -3.0000   -2.5981    0.0000 C   0  0  0  0  0  0  0  0  0  0  0  0
   -3.7500   -3.8971    0.0000 O   0  0  0  0  0  0  0  0  0  0  0  0
   -5.2500   -3.8971    0.0000 C   0  0  0  0  0  0  0  0  0  0  0  0
   -1.5000   -2.5981    0.0000 C   0  0  0  0  0  0  0  0  0  0  0  0
   -0.7500   -1.2990    0.0000 C   0  0  0  0  0  0  0  0  0  0  0  0
    1.5000   -5.1962    0.0000 C   0  0  0  0  0  0  0  0  0  0  0  0
    3.0000   -5.1962    0.0000 Cl  0  0  0  0  0  0  0  0  0  0  0  0
    0.7500   -6.4952    0.0000 C   0  0  0  0  0  0  0  0  0  0  0  0
   -0.7500   -6.4952    0.0000 C   0  0  0  0  0  0  0  0  0  0  0  0
   -1.5000   -7.7942    0.0000 Cl  0  0  0  0  0  0  0  0  0  0  0  0
  1  2  1  0
  2  3  1  0
  3  4  2  0
  4  5  1  0
  5  6  1  0
  6  7  1  0
  7  8  2  0
  8  9  1  0
  9 10  3  0
  8 11  1  0
 11 12  2  0
 12 13  1  0
 13 14  2  0
 14 15  1  0
 15 16  1  0
 16 17  3  0
 17 18  1  0
 18 19  1  0
 19 20  1  0
 20 21  1  0
 21 22  1  0
 22 23  1  0
 23 24  1  0
 23 25  1  0
 25 26  1  0
 15 27  2  0
 27 28  1  0
 28 29  1  0
 27 30  1  0
 30 31  2  0
  5 32  2  0
 32 33  1  0
 32 34  1  0
 34 35  2  0
 35 36  1  0
 35  3  1  0
 31  7  1  0
 31 13  1  0
 26 20  1  0
M  END
>  <Compound_ID>  (422) 
CHEMBL391738

>  <Active>  (422) 
1.0

>  <Smiles>  (422) 
COc1cc(Nc2c(C#N)cnc3cc(C#CCCN4CCN(C)CC4)c(OC)cc23)c(Cl)cc1Cl

>  <canonical_smi>  (422) 
COc1cc(Nc2c(C#N)cnc3cc(C#CCCN4CCN(C)CC4)c(OC)cc23)c(Cl)cc1Cl

>  <Set>  (422) 
G2 active

>  <Set_type>  (422) 
Train

>  <MW>  (422) 
524.45

>  <HBD>  (422) 
1

>  <HBA>  (422) 
7

>  <NRB>  (422) 
6

>  <NR>  (422) 
4

>  <NAR>  (422) 
3

>  <PSA>  (422) 
73.65

>  <Standard Type>  (422) 
nan

>  <Standard Relation>  (422) 
nan

>  <Standard Units>  (422) 
nan

>  <Standard Value>  (422) 
nan

>  <Assay ChEMBL ID>  (422) 
nan

>  <Assay Description>  (422) 
nan

>  <BAO Label>  (422) 
nan

$$$$

     RDKit          2D

 27 31  0  0  0  0  0  0  0  0999 V2000
   -3.7527    6.6955    0.0000 C   0  0  0  0  0  0  0  0  0  0  0  0
   -5.1793    6.2320    0.0000 O   0  0  0  0  0  0  0  0  0  0  0  0
   -5.4912    4.7648    0.0000 C   0  0  0  0  0  0  0  0  0  0  0  0
   -4.3764    3.7611    0.0000 C   0  0  0  0  0  0  0  0  0  0  0  0
   -4.6883    2.2939    0.0000 C   0  0  0  0  0  0  0  0  0  0  0  0
   -3.5736    1.2902    0.0000 N   0  0  0  0  0  0  0  0  0  0  0  0
   -2.1470    1.7537    0.0000 C   0  0  0  0  0  0  0  0  0  0  0  0
   -1.8351    3.2209    0.0000 N   0  0  0  0  0  0  0  0  0  0  0  0
   -0.4086    3.6844    0.0000 C   0  0  0  0  0  0  0  0  0  0  0  0
    0.7062    2.6807    0.0000 N   0  0  0  0  0  0  0  0  0  0  0  0
    0.3943    1.2135    0.0000 C   0  0  0  0  0  0  0  0  0  0  0  0
    1.2760    0.0000    0.0000 N   0  0  0  0  0  0  0  0  0  0  0  0
    0.3943   -1.2135    0.0000 C   0  0  0  0  0  0  0  0  0  0  0  0
   -1.0323   -0.7500    0.0000 C   0  0  0  0  0  0  0  0  0  0  0  0
   -1.0323    0.7500    0.0000 C   0  0  0  0  0  0  0  0  0  0  0  0
   -6.1149    1.8303    0.0000 C   0  0  0  0  0  0  0  0  0  0  0  0
   -7.2296    2.8340    0.0000 C   0  0  0  0  0  0  0  0  0  0  0  0
   -6.9177    4.3013    0.0000 C   0  0  0  0  0  0  0  0  0  0  0  0
   -8.0325    5.3050    0.0000 C   0  0  0  0  0  0  0  0  0  0  0  0
   -7.8757    6.7967    0.0000 N   0  0  0  0  0  0  0  0  0  0  0  0
   -9.2460    7.4068    0.0000 C   0  0  0  0  0  0  0  0  0  0  0  0
   -9.7095    8.8334    0.0000 C   0  0  0  0  0  0  0  0  0  0  0  0
  -11.1767    9.1453    0.0000 C   0  0  0  0  0  0  0  0  0  0  0  0
  -12.1804    8.0306    0.0000 C   0  0  0  0  0  0  0  0  0  0  0  0
  -11.7169    6.6040    0.0000 C   0  0  0  0  0  0  0  0  0  0  0  0
  -10.2497    6.2921    0.0000 C   0  0  0  0  0  0  0  0  0  0  0  0
   -9.4997    4.9931    0.0000 S   0  0  0  0  0  0  0  0  0  0  0  0
  1  2  1  0
  2  3  1  0
  3  4  2  0
  4  5  1  0
  5  6  1  0
  6  7  1  0
  7  8  2  0
  8  9  1  0
  9 10  2  0
 10 11  1  0
 11 12  1  0
 12 13  1  0
 13 14  2  0
 14 15  1  0
  5 16  2  0
 16 17  1  0
 17 18  2  0
 18 19  1  0
 19 20  2  0
 20 21  1  0
 21 22  2  0
 22 23  1  0
 23 24  2  0
 24 25  1  0
 25 26  2  0
 26 27  1  0
 18  3  1  0
 27 19  1  0
 15  7  1  0
 26 21  1  0
 15 11  2  0
M  END
>  <Compound_ID>  (423) 
CHEMBL462162

>  <Active>  (423) 
1.0

>  <Smiles>  (423) 
COc1cc(Nc2ncnc3[nH]ccc23)ccc1-c1nc2ccccc2s1

>  <canonical_smi>  (423) 
COc1cc(Nc2ncnc3[nH]ccc23)ccc1-c1nc2ccccc2s1

>  <Set>  (423) 
G2 active

>  <Set_type>  (423) 
Train

>  <MW>  (423) 
373.44

>  <HBD>  (423) 
2

>  <HBA>  (423) 
5

>  <NRB>  (423) 
4

>  <NR>  (423) 
5

>  <NAR>  (423) 
5

>  <PSA>  (423) 
75.72

>  <Standard Type>  (423) 
nan

>  <Standard Relation>  (423) 
nan

>  <Standard Units>  (423) 
nan

>  <Standard Value>  (423) 
nan

>  <Assay ChEMBL ID>  (423) 
nan

>  <Assay Description>  (423) 
nan

>  <BAO Label>  (423) 
nan

$$$$

     RDKit          2D

 28 31  0  0  0  0  0  0  0  0999 V2000
    3.7500   -6.4952    0.0000 C   0  0  0  0  0  0  0  0  0  0  0  0
    3.0000   -5.1962    0.0000 C   0  0  0  0  0  0  0  0  0  0  0  0
    1.5000   -5.1962    0.0000 O   0  0  0  0  0  0  0  0  0  0  0  0
    0.7500   -3.8971    0.0000 C   0  0  0  0  0  0  0  0  0  0  0  0
    1.5000   -2.5981    0.0000 C   0  0  0  0  0  0  0  0  0  0  0  0
    0.7500   -1.2990    0.0000 C   0  0  0  0  0  0  0  0  0  0  0  0
    1.5000    0.0000    0.0000 N   0  0  0  0  0  0  0  0  0  0  0  0
    0.7500    1.2990    0.0000 C   0  0  0  0  0  0  0  0  0  0  0  0
   -0.7500    1.2990    0.0000 N   0  0  0  0  0  0  0  0  0  0  0  0
   -1.5000    0.0000    0.0000 C   0  0  0  0  0  0  0  0  0  0  0  0
   -3.0000    0.0000    0.0000 N   0  0  0  0  0  0  0  0  0  0  0  0
   -3.7500    1.2990    0.0000 C   0  0  0  0  0  0  0  0  0  0  0  0
   -3.0000    2.5981    0.0000 C   0  0  0  0  0  0  0  0  0  0  0  0
   -3.7500    3.8971    0.0000 C   0  0  0  0  0  0  0  0  0  0  0  0
   -5.2500    3.8971    0.0000 C   0  0  0  0  0  0  0  0  0  0  0  0
   -6.0000    2.5981    0.0000 C   0  0  0  0  0  0  0  0  0  0  0  0
   -7.5000    2.5981    0.0000 C   0  0  0  0  0  0  0  0  0  0  0  0
   -8.3817    1.3846    0.0000 C   0  0  0  0  0  0  0  0  0  0  0  0
   -9.8083    1.8481    0.0000 O   0  0  0  0  0  0  0  0  0  0  0  0
   -9.8083    3.3481    0.0000 C   0  0  0  0  0  0  0  0  0  0  0  0
   -8.3817    3.8116    0.0000 N   0  0  0  0  0  0  0  0  0  0  0  0
   -5.2500    1.2990    0.0000 C   0  0  0  0  0  0  0  0  0  0  0  0
   -0.7500   -1.2990    0.0000 C   0  0  0  0  0  0  0  0  0  0  0  0
   -1.5000   -2.5981    0.0000 C   0  0  0  0  0  0  0  0  0  0  0  0
   -0.7500   -3.8971    0.0000 C   0  0  0  0  0  0  0  0  0  0  0  0
   -1.5000   -5.1962    0.0000 O   0  0  0  0  0  0  0  0  0  0  0  0
   -3.0000   -5.1962    0.0000 C   0  0  0  0  0  0  0  0  0  0  0  0
   -3.7500   -6.4952    0.0000 C   0  0  0  0  0  0  0  0  0  0  0  0
  1  2  1  0
  2  3  1  0
  3  4  1  0
  4  5  2  0
  5  6  1  0
  6  7  2  0
  7  8  1  0
  8  9  2  0
  9 10  1  0
 10 11  1  0
 11 12  1  0
 12 13  2  0
 13 14  1  0
 14 15  2  0
 15 16  1  0
 16 17  1  0
 17 18  2  0
 18 19  1  0
 19 20  1  0
 20 21  2  0
 16 22  2  0
 10 23  2  0
 23 24  1  0
 24 25  2  0
 25 26  1  0
 26 27  1  0
 27 28  1  0
 25  4  1  0
 23  6  1  0
 22 12  1  0
 21 17  1  0
M  END
>  <Compound_ID>  (424) 
CHEMBL126996

>  <Active>  (424) 
1.0

>  <Smiles>  (424) 
CCOc1cc2ncnc(Nc3cccc(-c4cocn4)c3)c2cc1OCC

>  <canonical_smi>  (424) 
CCOc1cc2ncnc(Nc3cccc(-c4cocn4)c3)c2cc1OCC

>  <Set>  (424) 
G2 active

>  <Set_type>  (424) 
Train

>  <MW>  (424) 
376.42

>  <HBD>  (424) 
1

>  <HBA>  (424) 
7

>  <NRB>  (424) 
7

>  <NR>  (424) 
4

>  <NAR>  (424) 
4

>  <PSA>  (424) 
82.3

>  <Standard Type>  (424) 
nan

>  <Standard Relation>  (424) 
nan

>  <Standard Units>  (424) 
nan

>  <Standard Value>  (424) 
nan

>  <Assay ChEMBL ID>  (424) 
nan

>  <Assay Description>  (424) 
nan

>  <BAO Label>  (424) 
nan

$$$$

     RDKit          2D

 24 26  0  0  0  0  0  0  0  0999 V2000
    3.0000   -5.1962    0.0000 C   0  0  0  0  0  0  0  0  0  0  0  0
    1.5000   -5.1962    0.0000 O   0  0  0  0  0  0  0  0  0  0  0  0
    0.7500   -3.8971    0.0000 C   0  0  0  0  0  0  0  0  0  0  0  0
    1.5000   -2.5981    0.0000 C   0  0  0  0  0  0  0  0  0  0  0  0
    0.7500   -1.2990    0.0000 C   0  0  0  0  0  0  0  0  0  0  0  0
    1.5000    0.0000    0.0000 N   0  0  0  0  0  0  0  0  0  0  0  0
    0.7500    1.2990    0.0000 C   0  0  0  0  0  0  0  0  0  0  0  0
   -0.7500    1.2990    0.0000 N   0  0  0  0  0  0  0  0  0  0  0  0
   -1.5000    0.0000    0.0000 C   0  0  0  0  0  0  0  0  0  0  0  0
   -3.0000    0.0000    0.0000 N   0  0  0  0  0  0  0  0  0  0  0  0
   -3.7500    1.2990    0.0000 N   0  0  0  0  0  0  0  0  0  0  0  0
   -5.2500    1.2990    0.0000 C   0  0  0  0  0  0  0  0  0  0  0  0
   -6.0000    2.5981    0.0000 C   0  0  0  0  0  0  0  0  0  0  0  0
   -7.5000    2.5981    0.0000 C   0  0  0  0  0  0  0  0  0  0  0  0
   -8.2500    1.2990    0.0000 C   0  0  0  0  0  0  0  0  0  0  0  0
   -9.7500    1.2990    0.0000 F   0  0  0  0  0  0  0  0  0  0  0  0
   -7.5000    0.0000    0.0000 C   0  0  0  0  0  0  0  0  0  0  0  0
   -8.2500   -1.2990    0.0000 Cl  0  0  0  0  0  0  0  0  0  0  0  0
   -6.0000    0.0000    0.0000 C   0  0  0  0  0  0  0  0  0  0  0  0
   -0.7500   -1.2990    0.0000 C   0  0  0  0  0  0  0  0  0  0  0  0
   -1.5000   -2.5981    0.0000 C   0  0  0  0  0  0  0  0  0  0  0  0
   -0.7500   -3.8971    0.0000 C   0  0  0  0  0  0  0  0  0  0  0  0
   -1.5000   -5.1962    0.0000 O   0  0  0  0  0  0  0  0  0  0  0  0
   -3.0000   -5.1962    0.0000 C   0  0  0  0  0  0  0  0  0  0  0  0
  1  2  1  0
  2  3  1  0
  3  4  2  0
  4  5  1  0
  5  6  2  0
  6  7  1  0
  7  8  2  0
  8  9  1  0
  9 10  1  0
 10 11  2  3
 11 12  1  0
 12 13  2  0
 13 14  1  0
 14 15  2  0
 15 16  1  0
 15 17  1  0
 17 18  1  0
 17 19  2  0
  9 20  2  0
 20 21  1  0
 21 22  2  0
 22 23  1  0
 23 24  1  0
 22  3  1  0
 20  5  1  0
 19 12  1  0
M  END
>  <Compound_ID>  (425) 
CHEMBL92006

>  <Active>  (425) 
1.0

>  <Smiles>  (425) 
COc1cc2ncnc(N=Nc3ccc(F)c(Cl)c3)c2cc1OC

>  <canonical_smi>  (425) 
COc1cc2ncnc(N=Nc3ccc(F)c(Cl)c3)c2cc1OC

>  <Set>  (425) 
G2 active

>  <Set_type>  (425) 
Train

>  <MW>  (425) 
346.75

>  <HBD>  (425) 
0

>  <HBA>  (425) 
4

>  <NRB>  (425) 
4

>  <NR>  (425) 
3

>  <NAR>  (425) 
3

>  <PSA>  (425) 
68.96

>  <Standard Type>  (425) 
nan

>  <Standard Relation>  (425) 
nan

>  <Standard Units>  (425) 
nan

>  <Standard Value>  (425) 
nan

>  <Assay ChEMBL ID>  (425) 
nan

>  <Assay Description>  (425) 
nan

>  <BAO Label>  (425) 
nan

$$$$

     RDKit          2D

 21 24  0  0  0  0  0  0  0  0999 V2000
    3.1702  -10.7277    0.0000 Br  0  0  0  0  0  0  0  0  0  0  0  0
    1.9567   -9.8460    0.0000 C   0  0  0  0  0  0  0  0  0  0  0  0
    0.5864  -10.4561    0.0000 C   0  0  0  0  0  0  0  0  0  0  0  0
   -0.6272   -9.5744    0.0000 C   0  0  0  0  0  0  0  0  0  0  0  0
   -0.4704   -8.0826    0.0000 C   0  0  0  0  0  0  0  0  0  0  0  0
    0.8999   -7.4725    0.0000 C   0  0  0  0  0  0  0  0  0  0  0  0
    1.0567   -5.9808    0.0000 N   0  0  0  0  0  0  0  0  0  0  0  0
   -0.1568   -5.0991    0.0000 C   0  0  0  0  0  0  0  0  0  0  0  0
   -1.5271   -5.7092    0.0000 N   0  0  0  0  0  0  0  0  0  0  0  0
   -2.7406   -4.8275    0.0000 C   0  0  0  0  0  0  0  0  0  0  0  0
   -2.5838   -3.3357    0.0000 N   0  0  0  0  0  0  0  0  0  0  0  0
   -1.2135   -2.7256    0.0000 C   0  0  0  0  0  0  0  0  0  0  0  0
   -0.0000   -3.6073    0.0000 C   0  0  0  0  0  0  0  0  0  0  0  0
    1.2135   -2.7256    0.0000 S   0  0  0  0  0  0  0  0  0  0  0  0
    0.7500   -1.2990    0.0000 C   0  0  0  0  0  0  0  0  0  0  0  0
    1.5000    0.0000    0.0000 N   0  0  0  0  0  0  0  0  0  0  0  0
    0.7500    1.2990    0.0000 C   0  0  0  0  0  0  0  0  0  0  0  0
   -0.7500    1.2990    0.0000 C   0  0  0  0  0  0  0  0  0  0  0  0
   -1.5000    0.0000    0.0000 C   0  0  0  0  0  0  0  0  0  0  0  0
   -0.7500   -1.2990    0.0000 C   0  0  0  0  0  0  0  0  0  0  0  0
    2.1135   -8.3542    0.0000 C   0  0  0  0  0  0  0  0  0  0  0  0
  1  2  1  0
  2  3  2  0
  3  4  1  0
  4  5  2  0
  5  6  1  0
  6  7  1  0
  7  8  1  0
  8  9  2  0
  9 10  1  0
 10 11  2  0
 11 12  1  0
 12 13  2  0
 13 14  1  0
 14 15  1  0
 15 16  2  0
 16 17  1  0
 17 18  2  0
 18 19  1  0
 19 20  2  0
  6 21  2  0
 21  2  1  0
 13  8  1  0
 20 15  1  0
 20 12  1  0
M  END
>  <Compound_ID>  (426) 
CHEMBL153409

>  <Active>  (426) 
1.0

>  <Smiles>  (426) 
Brc1cccc(Nc2ncnc3c2sc2ncccc23)c1

>  <canonical_smi>  (426) 
Brc1cccc(Nc2ncnc3c2sc2ncccc23)c1

>  <Set>  (426) 
G2 active

>  <Set_type>  (426) 
Train

>  <MW>  (426) 
357.24

>  <HBD>  (426) 
1

>  <HBA>  (426) 
4

>  <NRB>  (426) 
2

>  <NR>  (426) 
4

>  <NAR>  (426) 
4

>  <PSA>  (426) 
50.7

>  <Standard Type>  (426) 
nan

>  <Standard Relation>  (426) 
nan

>  <Standard Units>  (426) 
nan

>  <Standard Value>  (426) 
nan

>  <Assay ChEMBL ID>  (426) 
nan

>  <Assay Description>  (426) 
nan

>  <BAO Label>  (426) 
nan

$$$$

     RDKit          2D

 21 24  0  0  0  0  0  0  0  0999 V2000
    3.1702  -10.7277    0.0000 Br  0  0  0  0  0  0  0  0  0  0  0  0
    1.9567   -9.8460    0.0000 C   0  0  0  0  0  0  0  0  0  0  0  0
    0.5864  -10.4561    0.0000 C   0  0  0  0  0  0  0  0  0  0  0  0
   -0.6272   -9.5744    0.0000 C   0  0  0  0  0  0  0  0  0  0  0  0
   -0.4704   -8.0826    0.0000 C   0  0  0  0  0  0  0  0  0  0  0  0
    0.8999   -7.4725    0.0000 C   0  0  0  0  0  0  0  0  0  0  0  0
    1.0567   -5.9808    0.0000 N   0  0  0  0  0  0  0  0  0  0  0  0
   -0.1568   -5.0991    0.0000 C   0  0  0  0  0  0  0  0  0  0  0  0
   -1.5271   -5.7092    0.0000 N   0  0  0  0  0  0  0  0  0  0  0  0
   -2.7406   -4.8275    0.0000 C   0  0  0  0  0  0  0  0  0  0  0  0
   -2.5838   -3.3357    0.0000 N   0  0  0  0  0  0  0  0  0  0  0  0
   -1.2135   -2.7256    0.0000 C   0  0  0  0  0  0  0  0  0  0  0  0
   -0.0000   -3.6073    0.0000 C   0  0  0  0  0  0  0  0  0  0  0  0
    1.2135   -2.7256    0.0000 O   0  0  0  0  0  0  0  0  0  0  0  0
    0.7500   -1.2990    0.0000 C   0  0  0  0  0  0  0  0  0  0  0  0
    1.5000    0.0000    0.0000 C   0  0  0  0  0  0  0  0  0  0  0  0
    0.7500    1.2990    0.0000 C   0  0  0  0  0  0  0  0  0  0  0  0
   -0.7500    1.2990    0.0000 C   0  0  0  0  0  0  0  0  0  0  0  0
   -1.5000    0.0000    0.0000 C   0  0  0  0  0  0  0  0  0  0  0  0
   -0.7500   -1.2990    0.0000 C   0  0  0  0  0  0  0  0  0  0  0  0
    2.1135   -8.3542    0.0000 C   0  0  0  0  0  0  0  0  0  0  0  0
  1  2  1  0
  2  3  2  0
  3  4  1  0
  4  5  2  0
  5  6  1  0
  6  7  1  0
  7  8  1  0
  8  9  2  0
  9 10  1  0
 10 11  2  0
 11 12  1  0
 12 13  2  0
 13 14  1  0
 14 15  1  0
 15 16  2  0
 16 17  1  0
 17 18  2  0
 18 19  1  0
 19 20  2  0
  6 21  2  0
 21  2  1  0
 13  8  1  0
 20 15  1  0
 20 12  1  0
M  END
>  <Compound_ID>  (427) 
CHEMBL149512

>  <Active>  (427) 
1.0

>  <Smiles>  (427) 
Brc1cccc(Nc2ncnc3c2oc2ccccc23)c1

>  <canonical_smi>  (427) 
Brc1cccc(Nc2ncnc3c2oc2ccccc23)c1

>  <Set>  (427) 
G2 active

>  <Set_type>  (427) 
Train

>  <MW>  (427) 
340.18

>  <HBD>  (427) 
1

>  <HBA>  (427) 
4

>  <NRB>  (427) 
2

>  <NR>  (427) 
4

>  <NAR>  (427) 
4

>  <PSA>  (427) 
50.95

>  <Standard Type>  (427) 
nan

>  <Standard Relation>  (427) 
nan

>  <Standard Units>  (427) 
nan

>  <Standard Value>  (427) 
nan

>  <Assay ChEMBL ID>  (427) 
nan

>  <Assay Description>  (427) 
nan

>  <BAO Label>  (427) 
nan

$$$$

     RDKit          2D

 32 34  0  0  0  0  0  0  0  0999 V2000
    3.7500   -1.2990    0.0000 C   0  0  0  0  0  0  0  0  0  0  0  0
    3.0000    0.0000    0.0000 O   0  0  0  0  0  0  0  0  0  0  0  0
    1.5000    0.0000    0.0000 C   0  0  0  0  0  0  0  0  0  0  0  0
    0.7500   -1.2990    0.0000 C   0  0  0  0  0  0  0  0  0  0  0  0
   -0.7500   -1.2990    0.0000 C   0  0  0  0  0  0  0  0  0  0  0  0
   -1.5000   -2.5981    0.0000 C   0  0  0  0  0  0  0  0  0  0  0  0
   -3.0000   -2.5981    0.0000 C   0  0  0  0  0  0  0  0  0  0  0  0
   -3.7500   -1.2990    0.0000 C   0  0  0  0  0  0  0  0  0  0  0  0
   -4.5000    0.0000    0.0000 N   0  0  0  0  0  0  0  0  0  0  0  0
   -3.7500   -3.8971    0.0000 C   0  0  0  0  0  0  0  0  0  0  0  0
   -3.0000   -5.1962    0.0000 O   0  0  0  0  0  0  0  0  0  0  0  0
   -5.2500   -3.8971    0.0000 C   0  0  0  0  0  0  0  0  0  0  0  0
   -6.0000   -2.5981    0.0000 C   0  0  0  0  0  0  0  0  0  0  0  0
   -7.5000   -2.5981    0.0000 C   0  0  0  0  0  0  0  0  0  0  0  0
   -8.2500   -3.8971    0.0000 C   0  0  0  0  0  0  0  0  0  0  0  0
   -9.7500   -3.8971    0.0000 O   0  0  0  0  0  0  0  0  0  0  0  0
   -7.5000   -5.1962    0.0000 C   0  0  0  0  0  0  0  0  0  0  0  0
   -8.2500   -6.4952    0.0000 O   0  0  0  0  0  0  0  0  0  0  0  0
   -6.0000   -5.1962    0.0000 C   0  0  0  0  0  0  0  0  0  0  0  0
   -1.5000    0.0000    0.0000 C   0  0  0  0  0  0  0  0  0  0  0  0
   -0.7500    1.2990    0.0000 C   0  0  0  0  0  0  0  0  0  0  0  0
   -1.5000    2.5981    0.0000 C   0  0  0  0  0  0  0  0  0  0  0  0
   -0.7500    3.8971    0.0000 S   0  0  0  0  0  0  0  0  0  0  0  0
   -1.5000    5.1962    0.0000 C   0  0  0  0  0  0  0  0  0  0  0  0
   -0.7500    6.4952    0.0000 C   0  0  0  0  0  0  0  0  0  0  0  0
    0.7500    6.4952    0.0000 C   0  0  0  0  0  0  0  0  0  0  0  0
    1.5000    7.7942    0.0000 C   0  0  0  0  0  0  0  0  0  0  0  0
    0.7500    9.0933    0.0000 C   0  0  0  0  0  0  0  0  0  0  0  0
   -0.7500    9.0933    0.0000 C   0  0  0  0  0  0  0  0  0  0  0  0
   -1.5000    7.7942    0.0000 C   0  0  0  0  0  0  0  0  0  0  0  0
    0.7500    1.2990    0.0000 C   0  0  0  0  0  0  0  0  0  0  0  0
    1.5000    2.5981    0.0000 O   0  0  0  0  0  0  0  0  0  0  0  0
  1  2  1  0
  2  3  1  0
  3  4  2  0
  4  5  1  0
  5  6  1  0
  6  7  2  0
  7  8  1  0
  8  9  3  0
  7 10  1  0
 10 11  2  0
 10 12  1  0
 12 13  2  0
 13 14  1  0
 14 15  2  0
 15 16  1  0
 15 17  1  0
 17 18  1  0
 17 19  2  0
  5 20  2  0
 20 21  1  0
 21 22  1  0
 22 23  1  0
 23 24  1  0
 24 25  1  0
 25 26  2  0
 26 27  1  0
 27 28  2  0
 28 29  1  0
 29 30  2  0
 21 31  2  0
 31 32  1  0
 31  3  1  0
 19 12  1  0
 30 25  1  0
M  END
>  <Compound_ID>  (428) 
CHEMBL116547

>  <Active>  (428) 
1.0

>  <Smiles>  (428) 
COc1cc(/C=C(\C#N)C(=O)c2ccc(O)c(O)c2)cc(CSCc2ccccc2)c1O

>  <canonical_smi>  (428) 
COc1cc(/C=C(\C#N)C(=O)c2ccc(O)c(O)c2)cc(CSCc2ccccc2)c1O

>  <Set>  (428) 
G2 active

>  <Set_type>  (428) 
Train

>  <MW>  (428) 
447.51

>  <HBD>  (428) 
3

>  <HBA>  (428) 
7

>  <NRB>  (428) 
8

>  <NR>  (428) 
3

>  <NAR>  (428) 
3

>  <PSA>  (428) 
110.78

>  <Standard Type>  (428) 
nan

>  <Standard Relation>  (428) 
nan

>  <Standard Units>  (428) 
nan

>  <Standard Value>  (428) 
nan

>  <Assay ChEMBL ID>  (428) 
nan

>  <Assay Description>  (428) 
nan

>  <BAO Label>  (428) 
nan

$$$$

     RDKit          2D

 36 39  0  0  0  0  0  0  0  0999 V2000
    3.7500   -1.2990    0.0000 C   0  0  0  0  0  0  0  0  0  0  0  0
    3.0000    0.0000    0.0000 O   0  0  0  0  0  0  0  0  0  0  0  0
    1.5000    0.0000    0.0000 C   0  0  0  0  0  0  0  0  0  0  0  0
    0.7500   -1.2990    0.0000 C   0  0  0  0  0  0  0  0  0  0  0  0
   -0.7500   -1.2990    0.0000 C   0  0  0  0  0  0  0  0  0  0  0  0
   -1.5000   -2.5981    0.0000 N   0  0  0  0  0  0  0  0  0  0  0  0
   -3.0000   -2.5981    0.0000 C   0  0  0  0  0  0  0  0  0  0  0  0
   -3.7500   -1.2990    0.0000 C   0  0  0  0  0  0  0  0  0  0  0  0
   -5.2500   -1.2990    0.0000 C   0  0  0  0  0  0  0  0  0  0  0  0
   -6.7500   -1.2990    0.0000 N   0  0  0  0  0  0  0  0  0  0  0  0
   -3.0000    0.0000    0.0000 C   0  0  0  0  0  0  0  0  0  0  0  0
   -3.7500    1.2990    0.0000 N   0  0  0  0  0  0  0  0  0  0  0  0
   -3.0000    2.5981    0.0000 C   0  0  0  0  0  0  0  0  0  0  0  0
   -1.5000    2.5981    0.0000 C   0  0  0  0  0  0  0  0  0  0  0  0
   -0.7500    3.8971    0.0000 C   0  0  0  0  0  0  0  0  0  0  0  0
   -1.5000    5.1962    0.0000 C   0  0  0  0  0  0  0  0  0  0  0  0
   -0.7500    6.4952    0.0000 N   0  0  0  0  0  0  0  0  0  0  0  0
   -1.3601    7.8655    0.0000 C   0  0  0  0  0  0  0  0  0  0  0  0
   -0.2454    8.8692    0.0000 C   0  0  0  0  0  0  0  0  0  0  0  0
    1.0537    8.1192    0.0000 N   0  0  0  0  0  0  0  0  0  0  0  0
    0.7418    6.6520    0.0000 C   0  0  0  0  0  0  0  0  0  0  0  0
   -3.0000    5.1962    0.0000 C   0  0  0  0  0  0  0  0  0  0  0  0
   -3.7500    6.4952    0.0000 Cl  0  0  0  0  0  0  0  0  0  0  0  0
   -3.7500    3.8971    0.0000 C   0  0  0  0  0  0  0  0  0  0  0  0
   -1.5000    0.0000    0.0000 C   0  0  0  0  0  0  0  0  0  0  0  0
   -0.7500    1.2990    0.0000 C   0  0  0  0  0  0  0  0  0  0  0  0
    0.7500    1.2990    0.0000 C   0  0  0  0  0  0  0  0  0  0  0  0
    1.5000    2.5981    0.0000 N   0  0  0  0  0  0  0  0  0  0  0  0
    3.0000    2.5981    0.0000 C   0  0  0  0  0  0  0  0  0  0  0  0
    3.7500    1.2990    0.0000 O   0  0  0  0  0  0  0  0  0  0  0  0
    3.7500    3.8971    0.0000 C   0  0  0  0  0  0  0  0  0  0  0  0
    5.2500    3.8971    0.0000 C   0  0  0  0  0  0  0  0  0  0  0  0
    6.0000    5.1962    0.0000 C   0  0  0  0  0  0  0  0  0  0  0  0
    7.5000    5.1962    0.0000 N   0  0  0  0  0  0  0  0  0  0  0  0
    8.2500    6.4952    0.0000 C   0  0  0  0  0  0  0  0  0  0  0  0
    8.2500    3.8971    0.0000 C   0  0  0  0  0  0  0  0  0  0  0  0
  1  2  1  0
  2  3  1  0
  3  4  2  0
  4  5  1  0
  5  6  2  0
  6  7  1  0
  7  8  2  0
  8  9  1  0
  9 10  3  0
  8 11  1  0
 11 12  1  0
 12 13  1  0
 13 14  2  0
 14 15  1  0
 15 16  2  0
 16 17  1  0
 17 18  1  0
 18 19  2  0
 19 20  1  0
 20 21  2  0
 16 22  1  0
 22 23  1  0
 22 24  2  0
 11 25  2  0
 25 26  1  0
 26 27  2  0
 27 28  1  0
 28 29  1  0
 29 30  2  0
 29 31  1  0
 31 32  2  0
 32 33  1  0
 33 34  1  0
 34 35  1  0
 34 36  1  0
 27  3  1  0
 25  5  1  0
 24 13  1  0
 21 17  1  0
M  END
>  <Compound_ID>  (429) 
CHEMBL179458

>  <Active>  (429) 
1.0

>  <Smiles>  (429) 
COc1cc2ncc(C#N)c(Nc3ccc(-n4ccnc4)c(Cl)c3)c2cc1NC(=O)/C=C/CN(C)C

>  <canonical_smi>  (429) 
COc1cc2ncc(C#N)c(Nc3ccc(-n4ccnc4)c(Cl)c3)c2cc1NC(=O)/C=C/CN(C)C

>  <Set>  (429) 
G2 active

>  <Set_type>  (429) 
Train

>  <MW>  (429) 
501.98

>  <HBD>  (429) 
2

>  <HBA>  (429) 
7

>  <NRB>  (429) 
8

>  <NR>  (429) 
4

>  <NAR>  (429) 
4

>  <PSA>  (429) 
108.1

>  <Standard Type>  (429) 
nan

>  <Standard Relation>  (429) 
nan

>  <Standard Units>  (429) 
nan

>  <Standard Value>  (429) 
nan

>  <Assay ChEMBL ID>  (429) 
nan

>  <Assay Description>  (429) 
nan

>  <BAO Label>  (429) 
nan

$$$$

     RDKit          2D

 34 37  0  0  0  0  0  0  0  0999 V2000
    0.7500   -6.4952    0.0000 C   0  0  0  0  0  0  0  0  0  0  0  0
    1.5000   -5.1962    0.0000 N   0  0  0  0  0  0  0  0  0  0  0  0
    0.7500   -3.8971    0.0000 N   0  0  0  0  0  0  0  0  0  0  0  0
    1.5000   -2.5981    0.0000 N   0  0  0  0  0  0  0  0  0  0  0  0
    0.7500   -1.2990    0.0000 C   0  0  0  0  0  0  0  0  0  0  0  0
    1.5000    0.0000    0.0000 C   0  0  0  0  0  0  0  0  0  0  0  0
    0.7500    1.2990    0.0000 C   0  0  0  0  0  0  0  0  0  0  0  0
   -0.7500    1.2990    0.0000 C   0  0  0  0  0  0  0  0  0  0  0  0
   -1.5000    2.5981    0.0000 N   0  0  0  0  0  0  0  0  0  0  0  0
   -3.0000    2.5981    0.0000 C   0  0  0  0  0  0  0  0  0  0  0  0
   -3.7500    1.2990    0.0000 N   0  0  0  0  0  0  0  0  0  0  0  0
   -3.0000    0.0000    0.0000 C   0  0  0  0  0  0  0  0  0  0  0  0
   -3.7500   -1.2990    0.0000 N   0  0  0  0  0  0  0  0  0  0  0  0
   -5.2500   -1.2990    0.0000 C   0  0  0  0  0  0  0  0  0  0  0  0
   -6.0000    0.0000    0.0000 C   0  0  0  0  0  0  0  0  0  0  0  0
   -7.5000    0.0000    0.0000 C   0  0  0  0  0  0  0  0  0  0  0  0
   -8.2500   -1.2990    0.0000 C   0  0  0  0  0  0  0  0  0  0  0  0
   -7.5000   -2.5981    0.0000 C   0  0  0  0  0  0  0  0  0  0  0  0
   -8.2500   -3.8971    0.0000 Cl  0  0  0  0  0  0  0  0  0  0  0  0
   -6.0000   -2.5981    0.0000 C   0  0  0  0  0  0  0  0  0  0  0  0
   -1.5000    0.0000    0.0000 C   0  0  0  0  0  0  0  0  0  0  0  0
   -0.7500   -1.2990    0.0000 C   0  0  0  0  0  0  0  0  0  0  0  0
    3.0000   -5.1962    0.0000 C   0  0  0  0  0  0  0  0  0  0  0  0
    3.7500   -3.8971    0.0000 O   0  0  0  0  0  0  0  0  0  0  0  0
    3.7500   -6.4952    0.0000 O   0  0  0  0  0  0  0  0  0  0  0  0
    5.2500   -6.4952    0.0000 C   0  0  0  0  0  0  0  0  0  0  0  0
    6.0000   -7.7942    0.0000 C   0  0  0  0  0  0  0  0  0  0  0  0
    7.5000   -7.7942    0.0000 C   0  0  0  0  0  0  0  0  0  0  0  0
    8.2500   -6.4952    0.0000 C   0  0  0  0  0  0  0  0  0  0  0  0
    9.7500   -6.4952    0.0000 N   0  0  0  0  0  4  0  0  0  0  0  0
   10.5000   -5.1962    0.0000 O   0  0  0  0  0  0  0  0  0  0  0  0
   10.5000   -7.7942    0.0000 O   0  0  0  0  0  1  0  0  0  0  0  0
    7.5000   -5.1962    0.0000 C   0  0  0  0  0  0  0  0  0  0  0  0
    6.0000   -5.1962    0.0000 C   0  0  0  0  0  0  0  0  0  0  0  0
  1  2  1  0
  2  3  1  0
  3  4  2  3
  4  5  1  0
  5  6  2  0
  6  7  1  0
  7  8  2  0
  8  9  1  0
  9 10  2  0
 10 11  1  0
 11 12  2  0
 12 13  1  0
 13 14  1  0
 14 15  2  0
 15 16  1  0
 16 17  2  0
 17 18  1  0
 18 19  1  0
 18 20  2  0
 12 21  1  0
 21 22  2  0
  2 23  1  0
 23 24  2  0
 23 25  1  0
 25 26  1  0
 26 27  2  0
 27 28  1  0
 28 29  2  0
 29 30  1  0
 30 31  2  0
 30 32  1  0
 29 33  1  0
 33 34  2  0
 22  5  1  0
 34 26  1  0
 21  8  1  0
 20 14  1  0
M  CHG  2  30   1  32  -1
M  END
>  <Compound_ID>  (430) 
CHEMBL570709

>  <Active>  (430) 
1.0

>  <Smiles>  (430) 
CN(N=Nc1ccc2ncnc(Nc3cccc(Cl)c3)c2c1)C(=O)Oc1ccc([N+](=O)[O-])cc1

>  <canonical_smi>  (430) 
CN(N=Nc1ccc2ncnc(Nc3cccc(Cl)c3)c2c1)C(=O)Oc1ccc([N+](=O)[O-])cc1

>  <Set>  (430) 
G2 active

>  <Set_type>  (430) 
Train

>  <MW>  (430) 
477.87

>  <HBD>  (430) 
1

>  <HBA>  (430) 
7

>  <NRB>  (430) 
6

>  <NR>  (430) 
4

>  <NAR>  (430) 
4

>  <PSA>  (430) 
135.21

>  <Standard Type>  (430) 
nan

>  <Standard Relation>  (430) 
nan

>  <Standard Units>  (430) 
nan

>  <Standard Value>  (430) 
nan

>  <Assay ChEMBL ID>  (430) 
nan

>  <Assay Description>  (430) 
nan

>  <BAO Label>  (430) 
nan

$$$$

     RDKit          2D

 25 28  0  0  0  0  0  0  0  0999 V2000
    3.0000   -5.1962    0.0000 C   0  0  0  0  0  0  0  0  0  0  0  0
    1.5000   -5.1962    0.0000 O   0  0  0  0  0  0  0  0  0  0  0  0
    0.7500   -3.8971    0.0000 C   0  0  0  0  0  0  0  0  0  0  0  0
    1.5000   -2.5981    0.0000 C   0  0  0  0  0  0  0  0  0  0  0  0
    0.7500   -1.2990    0.0000 C   0  0  0  0  0  0  0  0  0  0  0  0
    1.5000    0.0000    0.0000 N   0  0  0  0  0  0  0  0  0  0  0  0
    0.7500    1.2990    0.0000 C   0  0  0  0  0  0  0  0  0  0  0  0
   -0.7500    1.2990    0.0000 N   0  0  0  0  0  0  0  0  0  0  0  0
   -1.5000    0.0000    0.0000 C   0  0  0  0  0  0  0  0  0  0  0  0
   -3.0000    0.0000    0.0000 N   0  0  0  0  0  0  0  0  0  0  0  0
   -3.7500    1.2990    0.0000 C   0  0  0  0  0  0  0  0  0  0  0  0
   -3.0000    2.5981    0.0000 C   0  0  0  0  0  0  0  0  0  0  0  0
   -3.7500    3.8971    0.0000 N   0  0  0  0  0  0  0  0  0  0  0  0
   -5.2500    3.8971    0.0000 C   0  0  0  0  0  0  0  0  0  0  0  0
   -6.0000    5.1962    0.0000 C   0  0  0  0  0  0  0  0  0  0  0  0
   -7.5000    5.1962    0.0000 C   0  0  0  0  0  0  0  0  0  0  0  0
   -8.2500    3.8971    0.0000 C   0  0  0  0  0  0  0  0  0  0  0  0
   -7.5000    2.5981    0.0000 C   0  0  0  0  0  0  0  0  0  0  0  0
   -6.0000    2.5981    0.0000 C   0  0  0  0  0  0  0  0  0  0  0  0
   -5.2500    1.2990    0.0000 N   0  0  0  0  0  0  0  0  0  0  0  0
   -0.7500   -1.2990    0.0000 C   0  0  0  0  0  0  0  0  0  0  0  0
   -1.5000   -2.5981    0.0000 C   0  0  0  0  0  0  0  0  0  0  0  0
   -0.7500   -3.8971    0.0000 C   0  0  0  0  0  0  0  0  0  0  0  0
   -1.5000   -5.1962    0.0000 O   0  0  0  0  0  0  0  0  0  0  0  0
   -3.0000   -5.1962    0.0000 C   0  0  0  0  0  0  0  0  0  0  0  0
  1  2  1  0
  2  3  1  0
  3  4  2  0
  4  5  1  0
  5  6  2  0
  6  7  1  0
  7  8  2  0
  8  9  1  0
  9 10  1  0
 10 11  1  0
 11 12  2  0
 12 13  1  0
 13 14  2  0
 14 15  1  0
 15 16  2  0
 16 17  1  0
 17 18  2  0
 18 19  1  0
 19 20  2  0
  9 21  2  0
 21 22  1  0
 22 23  2  0
 23 24  1  0
 24 25  1  0
 23  3  1  0
 21  5  1  0
 20 11  1  0
 19 14  1  0
M  END
>  <Compound_ID>  (431) 
CHEMBL330668

>  <Active>  (431) 
1.0

>  <Smiles>  (431) 
COc1cc2ncnc(Nc3cnc4ccccc4n3)c2cc1OC

>  <canonical_smi>  (431) 
COc1cc2ncnc(Nc3cnc4ccccc4n3)c2cc1OC

>  <Set>  (431) 
G2 active

>  <Set_type>  (431) 
Train

>  <MW>  (431) 
333.35

>  <HBD>  (431) 
1

>  <HBA>  (431) 
7

>  <NRB>  (431) 
4

>  <NR>  (431) 
4

>  <NAR>  (431) 
4

>  <PSA>  (431) 
82.05

>  <Standard Type>  (431) 
nan

>  <Standard Relation>  (431) 
nan

>  <Standard Units>  (431) 
nan

>  <Standard Value>  (431) 
nan

>  <Assay ChEMBL ID>  (431) 
nan

>  <Assay Description>  (431) 
nan

>  <BAO Label>  (431) 
nan

$$$$

     RDKit          2D

 41 45  0  0  0  0  0  0  0  0999 V2000
   -5.2500   -3.8971    0.0000 C   0  0  0  0  0  0  0  0  0  0  0  0
   -3.7500   -3.8971    0.0000 O   0  0  0  0  0  0  0  0  0  0  0  0
   -3.0000   -2.5981    0.0000 C   0  0  0  0  0  0  0  0  0  0  0  0
   -1.5000   -2.5981    0.0000 C   0  0  0  0  0  0  0  0  0  0  0  0
   -0.7500   -1.2990    0.0000 C   0  0  0  0  0  0  0  0  0  0  0  0
    0.7500   -1.2990    0.0000 C   0  0  0  0  0  0  0  0  0  0  0  0
    1.5000   -2.5981    0.0000 N   0  0  0  0  0  0  0  0  0  0  0  0
    3.0000   -2.5981    0.0000 C   0  0  0  0  0  0  0  0  0  0  0  0
    3.8817   -1.3846    0.0000 N   0  0  0  0  0  0  0  0  0  0  0  0
    5.3083   -1.8481    0.0000 C   0  0  0  0  0  0  0  0  0  0  0  0
    5.3083   -3.3481    0.0000 C   0  0  0  0  0  0  0  0  0  0  0  0
    6.5218   -4.2298    0.0000 C   0  0  0  0  0  0  0  0  0  0  0  0
    6.3650   -5.7215    0.0000 C   0  0  0  0  0  0  0  0  0  0  0  0
    4.9947   -6.3316    0.0000 O   0  0  0  0  0  0  0  0  0  0  0  0
    7.5785   -6.6032    0.0000 N   0  0  0  0  0  0  0  0  0  0  0  0
    7.4217   -8.0950    0.0000 C   0  0  0  0  0  0  0  0  0  0  0  0
    6.0514   -8.7051    0.0000 C   0  0  0  0  0  0  0  0  0  0  0  0
    5.8946  -10.1969    0.0000 C   0  0  0  0  0  0  0  0  0  0  0  0
    7.1081  -11.0786    0.0000 C   0  0  0  0  0  0  0  0  0  0  0  0
    8.4785  -10.4685    0.0000 C   0  0  0  0  0  0  0  0  0  0  0  0
    9.6920  -11.3501    0.0000 F   0  0  0  0  0  0  0  0  0  0  0  0
    8.6353   -8.9767    0.0000 C   0  0  0  0  0  0  0  0  0  0  0  0
    3.8817   -3.8116    0.0000 S   0  0  0  0  0  0  0  0  0  0  0  0
    1.5000    0.0000    0.0000 N   0  0  0  0  0  0  0  0  0  0  0  0
    0.7500    1.2990    0.0000 C   0  0  0  0  0  0  0  0  0  0  0  0
   -0.7500    1.2990    0.0000 N   0  0  0  0  0  0  0  0  0  0  0  0
   -1.5000    0.0000    0.0000 C   0  0  0  0  0  0  0  0  0  0  0  0
   -3.0000    0.0000    0.0000 C   0  0  0  0  0  0  0  0  0  0  0  0
   -3.7500   -1.2990    0.0000 C   0  0  0  0  0  0  0  0  0  0  0  0
   -5.2500   -1.2990    0.0000 O   0  0  0  0  0  0  0  0  0  0  0  0
   -6.0000    0.0000    0.0000 C   0  0  0  0  0  0  0  0  0  0  0  0
   -7.5000    0.0000    0.0000 C   0  0  0  0  0  0  0  0  0  0  0  0
   -8.2500    1.2990    0.0000 C   0  0  0  0  0  0  0  0  0  0  0  0
   -9.7500    1.2990    0.0000 N   0  0  0  0  0  0  0  0  0  0  0  0
  -10.5000    2.5981    0.0000 C   0  0  0  0  0  0  0  0  0  0  0  0
  -12.0000    2.5981    0.0000 C   0  0  0  0  0  0  0  0  0  0  0  0
  -12.7500    1.2990    0.0000 C   0  0  0  0  0  0  0  0  0  0  0  0
  -14.2500    1.2990    0.0000 C   0  0  0  0  0  0  0  0  0  0  0  0
  -15.0000    2.5981    0.0000 O   0  0  0  0  0  0  0  0  0  0  0  0
  -12.0000    0.0000    0.0000 C   0  0  0  0  0  0  0  0  0  0  0  0
  -10.5000    0.0000    0.0000 C   0  0  0  0  0  0  0  0  0  0  0  0
  1  2  1  0
  2  3  1  0
  3  4  2  0
  4  5  1  0
  5  6  2  0
  6  7  1  0
  7  8  1  0
  8  9  2  0
  9 10  1  0
 10 11  2  0
 11 12  1  0
 12 13  1  0
 13 14  2  0
 13 15  1  0
 15 16  1  0
 16 17  2  0
 17 18  1  0
 18 19  2  0
 19 20  1  0
 20 21  1  0
 20 22  2  0
 11 23  1  0
  6 24  1  0
 24 25  2  0
 25 26  1  0
 26 27  2  0
 27 28  1  0
 28 29  2  0
 29 30  1  0
 30 31  1  0
 31 32  1  0
 32 33  1  0
 33 34  1  0
 34 35  1  0
 35 36  1  0
 36 37  1  0
 37 38  1  0
 38 39  1  0
 37 40  1  0
 40 41  1  0
 29  3  1  0
 41 34  1  0
 27  5  1  0
 23  8  1  0
 22 16  1  0
M  END
>  <Compound_ID>  (432) 
CHEMBL201307

>  <Active>  (432) 
1.0

>  <Smiles>  (432) 
COc1cc2c(Nc3ncc(CC(=O)Nc4cccc(F)c4)s3)ncnc2cc1OCCCN1CCC(CO)CC1

>  <canonical_smi>  (432) 
COc1cc2c(Nc3ncc(CC(=O)Nc4cccc(F)c4)s3)ncnc2cc1OCCCN1CCC(CO)CC1

>  <Set>  (432) 
G2 active

>  <Set_type>  (432) 
Train

>  <MW>  (432) 
580.69

>  <HBD>  (432) 
3

>  <HBA>  (432) 
9

>  <NRB>  (432) 
12

>  <NR>  (432) 
5

>  <NAR>  (432) 
4

>  <PSA>  (432) 
121.73

>  <Standard Type>  (432) 
nan

>  <Standard Relation>  (432) 
nan

>  <Standard Units>  (432) 
nan

>  <Standard Value>  (432) 
nan

>  <Assay ChEMBL ID>  (432) 
nan

>  <Assay Description>  (432) 
nan

>  <BAO Label>  (432) 
nan

$$$$

     RDKit          2D

 25 28  0  0  0  0  0  0  0  0999 V2000
    3.0000   -5.1962    0.0000 C   0  0  0  0  0  0  0  0  0  0  0  0
    1.5000   -5.1962    0.0000 O   0  0  0  0  0  0  0  0  0  0  0  0
    0.7500   -3.8971    0.0000 C   0  0  0  0  0  0  0  0  0  0  0  0
    1.5000   -2.5981    0.0000 C   0  0  0  0  0  0  0  0  0  0  0  0
    0.7500   -1.2990    0.0000 C   0  0  0  0  0  0  0  0  0  0  0  0
    1.5000    0.0000    0.0000 N   0  0  0  0  0  0  0  0  0  0  0  0
    0.7500    1.2990    0.0000 C   0  0  0  0  0  0  0  0  0  0  0  0
   -0.7500    1.2990    0.0000 N   0  0  0  0  0  0  0  0  0  0  0  0
   -1.5000    0.0000    0.0000 C   0  0  0  0  0  0  0  0  0  0  0  0
   -3.0000    0.0000    0.0000 N   0  0  0  0  0  0  0  0  0  0  0  0
   -3.7500    1.2990    0.0000 C   0  0  0  0  0  0  0  0  0  0  0  0
   -3.0000    2.5981    0.0000 N   0  0  0  0  0  0  0  0  0  0  0  0
   -3.7500    3.8971    0.0000 N   0  0  0  0  0  0  0  0  0  0  0  0
   -5.2500    3.8971    0.0000 C   0  0  0  0  0  0  0  0  0  0  0  0
   -6.0000    5.1962    0.0000 C   0  0  0  0  0  0  0  0  0  0  0  0
   -7.5000    5.1962    0.0000 C   0  0  0  0  0  0  0  0  0  0  0  0
   -8.2500    3.8971    0.0000 C   0  0  0  0  0  0  0  0  0  0  0  0
   -7.5000    2.5981    0.0000 C   0  0  0  0  0  0  0  0  0  0  0  0
   -6.0000    2.5981    0.0000 C   0  0  0  0  0  0  0  0  0  0  0  0
   -5.2500    1.2990    0.0000 N   0  0  0  0  0  0  0  0  0  0  0  0
   -0.7500   -1.2990    0.0000 C   0  0  0  0  0  0  0  0  0  0  0  0
   -1.5000   -2.5981    0.0000 C   0  0  0  0  0  0  0  0  0  0  0  0
   -0.7500   -3.8971    0.0000 C   0  0  0  0  0  0  0  0  0  0  0  0
   -1.5000   -5.1962    0.0000 O   0  0  0  0  0  0  0  0  0  0  0  0
   -3.0000   -5.1962    0.0000 C   0  0  0  0  0  0  0  0  0  0  0  0
  1  2  1  0
  2  3  1  0
  3  4  2  0
  4  5  1  0
  5  6  2  0
  6  7  1  0
  7  8  2  0
  8  9  1  0
  9 10  1  0
 10 11  1  0
 11 12  2  0
 12 13  1  0
 13 14  2  0
 14 15  1  0
 15 16  2  0
 16 17  1  0
 17 18  2  0
 18 19  1  0
 19 20  2  0
  9 21  2  0
 21 22  1  0
 22 23  2  0
 23 24  1  0
 24 25  1  0
 23  3  1  0
 21  5  1  0
 20 11  1  0
 19 14  1  0
M  END
>  <Compound_ID>  (433) 
CHEMBL90541

>  <Active>  (433) 
1.0

>  <Smiles>  (433) 
COc1cc2ncnc(Nc3nnc4ccccc4n3)c2cc1OC

>  <canonical_smi>  (433) 
COc1cc2ncnc(Nc3nnc4ccccc4n3)c2cc1OC

>  <Set>  (433) 
G2 active

>  <Set_type>  (433) 
Train

>  <MW>  (433) 
334.34

>  <HBD>  (433) 
1

>  <HBA>  (433) 
8

>  <NRB>  (433) 
4

>  <NR>  (433) 
4

>  <NAR>  (433) 
4

>  <PSA>  (433) 
94.94

>  <Standard Type>  (433) 
nan

>  <Standard Relation>  (433) 
nan

>  <Standard Units>  (433) 
nan

>  <Standard Value>  (433) 
nan

>  <Assay ChEMBL ID>  (433) 
nan

>  <Assay Description>  (433) 
nan

>  <BAO Label>  (433) 
nan

$$$$

     RDKit          2D

 37 41  0  0  0  0  0  0  0  0999 V2000
   -2.6401   -3.1891    0.0000 C   0  0  0  0  0  0  0  0  0  0  0  0
   -1.2135   -2.7256    0.0000 C   0  0  0  0  0  0  0  0  0  0  0  0
   -0.0000   -3.6073    0.0000 C   0  0  0  0  0  0  0  0  0  0  0  0
   -0.0000   -5.1073    0.0000 C   0  0  0  0  0  0  0  0  0  0  0  0
   -1.2990   -5.8573    0.0000 O   0  0  0  0  0  0  0  0  0  0  0  0
    1.2990   -5.8573    0.0000 N   0  0  0  0  0  0  0  0  0  0  0  0
    1.2990   -7.3573    0.0000 C   0  0  0  0  0  0  0  0  0  0  0  0
    2.5981   -8.1073    0.0000 C   0  0  0  0  0  0  0  0  0  0  0  0
    2.5981   -9.6073    0.0000 N   0  0  0  0  0  0  0  0  0  0  0  0
    1.2990  -10.3573    0.0000 C   0  0  0  0  0  0  0  0  0  0  0  0
    1.2990  -11.8573    0.0000 C   0  0  0  0  0  0  0  0  0  0  0  0
    2.5981  -12.6073    0.0000 O   0  0  0  0  0  0  0  0  0  0  0  0
    3.8971  -11.8573    0.0000 C   0  0  0  0  0  0  0  0  0  0  0  0
    3.8971  -10.3573    0.0000 C   0  0  0  0  0  0  0  0  0  0  0  0
    1.2135   -2.7256    0.0000 N   0  0  0  0  0  0  0  0  0  0  0  0
    0.7500   -1.2990    0.0000 C   0  0  0  0  0  0  0  0  0  0  0  0
    1.5000    0.0000    0.0000 C   0  0  0  0  0  0  0  0  0  0  0  0
    0.7500    1.2990    0.0000 N   0  0  0  0  0  0  0  0  0  0  0  0
   -0.7500    1.2990    0.0000 N   0  0  0  0  0  0  0  0  0  0  0  0
   -1.5000    0.0000    0.0000 C   0  0  0  0  0  0  0  0  0  0  0  0
   -3.0000    0.0000    0.0000 N   0  0  0  0  0  0  0  0  0  0  0  0
   -3.7500    1.2990    0.0000 C   0  0  0  0  0  0  0  0  0  0  0  0
   -3.0000    2.5981    0.0000 C   0  0  0  0  0  0  0  0  0  0  0  0
   -3.7500    3.8971    0.0000 C   0  0  0  0  0  0  0  0  0  0  0  0
   -5.2500    3.8971    0.0000 C   0  0  0  0  0  0  0  0  0  0  0  0
   -6.0000    5.1962    0.0000 O   0  0  0  0  0  0  0  0  0  0  0  0
   -5.2500    6.4952    0.0000 C   0  0  0  0  0  0  0  0  0  0  0  0
   -6.0000    7.7942    0.0000 C   0  0  0  0  0  0  0  0  0  0  0  0
   -5.2500    9.0933    0.0000 C   0  0  0  0  0  0  0  0  0  0  0  0
   -6.0000   10.3923    0.0000 C   0  0  0  0  0  0  0  0  0  0  0  0
   -7.5000   10.3923    0.0000 C   0  0  0  0  0  0  0  0  0  0  0  0
   -8.2500    9.0933    0.0000 C   0  0  0  0  0  0  0  0  0  0  0  0
   -7.5000    7.7942    0.0000 N   0  0  0  0  0  0  0  0  0  0  0  0
   -6.0000    2.5981    0.0000 C   0  0  0  0  0  0  0  0  0  0  0  0
   -7.5000    2.5981    0.0000 Cl  0  0  0  0  0  0  0  0  0  0  0  0
   -5.2500    1.2990    0.0000 C   0  0  0  0  0  0  0  0  0  0  0  0
   -0.7500   -1.2990    0.0000 C   0  0  0  0  0  0  0  0  0  0  0  0
  1  2  1  0
  2  3  2  0
  3  4  1  0
  4  5  2  0
  4  6  1  0
  6  7  1  0
  7  8  1  0
  8  9  1  0
  9 10  1  0
 10 11  1  0
 11 12  1  0
 12 13  1  0
 13 14  1  0
  3 15  1  0
 15 16  1  0
 16 17  2  0
 17 18  1  0
 18 19  2  0
 19 20  1  0
 20 21  1  0
 21 22  1  0
 22 23  2  0
 23 24  1  0
 24 25  2  0
 25 26  1  0
 26 27  1  0
 27 28  1  0
 28 29  2  0
 29 30  1  0
 30 31  2  0
 31 32  1  0
 32 33  2  0
 25 34  1  0
 34 35  1  0
 34 36  2  0
 20 37  2  0
 37  2  1  0
 14  9  1  0
 37 16  1  0
 36 22  1  0
 33 28  1  0
M  END
>  <Compound_ID>  (434) 
CHEMBL1080812

>  <Active>  (434) 
1.0

>  <Smiles>  (434) 
Cc1c(C(=O)NCCN2CCOCC2)[nH]c2cnnc(Nc3ccc(OCc4ccccn4)c(Cl)c3)c12

>  <canonical_smi>  (434) 
Cc1c(C(=O)NCCN2CCOCC2)[nH]c2cnnc(Nc3ccc(OCc4ccccn4)c(Cl)c3)c12

>  <Set>  (434) 
G2 active

>  <Set_type>  (434) 
Train

>  <MW>  (434) 
522.01

>  <HBD>  (434) 
3

>  <HBA>  (434) 
8

>  <NRB>  (434) 
9

>  <NR>  (434) 
5

>  <NAR>  (434) 
4

>  <PSA>  (434) 
117.29

>  <Standard Type>  (434) 
nan

>  <Standard Relation>  (434) 
nan

>  <Standard Units>  (434) 
nan

>  <Standard Value>  (434) 
nan

>  <Assay ChEMBL ID>  (434) 
nan

>  <Assay Description>  (434) 
nan

>  <BAO Label>  (434) 
nan

$$$$

     RDKit          2D

 25 28  0  0  0  0  0  0  0  0999 V2000
   -1.0344   -8.1310    0.0000 Cl  0  0  0  0  0  0  0  0  0  0  0  0
   -2.1491   -7.1273    0.0000 C   0  0  0  0  0  0  0  0  0  0  0  0
   -3.5757   -7.5908    0.0000 C   0  0  0  0  0  0  0  0  0  0  0  0
   -4.6904   -6.5871    0.0000 C   0  0  0  0  0  0  0  0  0  0  0  0
   -4.3786   -5.1199    0.0000 C   0  0  0  0  0  0  0  0  0  0  0  0
   -2.9520   -4.6564    0.0000 C   0  0  0  0  0  0  0  0  0  0  0  0
   -2.6401   -3.1891    0.0000 N   0  0  0  0  0  0  0  0  0  0  0  0
   -1.2135   -2.7256    0.0000 C   0  0  0  0  0  0  0  0  0  0  0  0
   -0.0000   -3.6073    0.0000 N   0  0  0  0  0  0  0  0  0  0  0  0
    1.2135   -2.7256    0.0000 N   0  0  0  0  0  0  0  0  0  0  0  0
    0.7500   -1.2990    0.0000 C   0  0  0  0  0  0  0  0  0  0  0  0
    1.5000    0.0000    0.0000 N   0  0  0  0  0  0  0  0  0  0  0  0
    0.7500    1.2990    0.0000 C   0  0  0  0  0  0  0  0  0  0  0  0
   -0.7500    1.2990    0.0000 N   0  0  0  0  0  0  0  0  0  0  0  0
   -1.5000    0.0000    0.0000 C   0  0  0  0  0  0  0  0  0  0  0  0
   -3.0000    0.0000    0.0000 N   0  0  0  0  0  0  0  0  0  0  0  0
   -3.7500    1.2990    0.0000 C   0  0  0  0  0  0  0  0  0  0  0  0
   -5.2500    1.2990    0.0000 C   0  0  0  0  0  0  0  0  0  0  0  0
   -6.0000    2.5981    0.0000 C   0  0  0  0  0  0  0  0  0  0  0  0
   -7.5000    2.5981    0.0000 C   0  0  0  0  0  0  0  0  0  0  0  0
   -8.2500    1.2990    0.0000 C   0  0  0  0  0  0  0  0  0  0  0  0
   -7.5000    0.0000    0.0000 C   0  0  0  0  0  0  0  0  0  0  0  0
   -6.0000    0.0000    0.0000 C   0  0  0  0  0  0  0  0  0  0  0  0
   -0.7500   -1.2990    0.0000 C   0  0  0  0  0  0  0  0  0  0  0  0
   -1.8373   -5.6601    0.0000 C   0  0  0  0  0  0  0  0  0  0  0  0
  1  2  1  0
  2  3  2  0
  3  4  1  0
  4  5  2  0
  5  6  1  0
  6  7  1  0
  7  8  1  0
  8  9  1  0
  9 10  1  0
 10 11  2  0
 11 12  1  0
 12 13  2  0
 13 14  1  0
 14 15  2  0
 15 16  1  0
 16 17  1  0
 17 18  1  0
 18 19  2  0
 19 20  1  0
 20 21  2  0
 21 22  1  0
 22 23  2  0
 15 24  1  0
  6 25  2  0
 25  2  1  0
 24  8  2  0
 24 11  1  0
 23 18  1  0
M  END
>  <Compound_ID>  (435) 
CHEMBL119982

>  <Active>  (435) 
1.0

>  <Smiles>  (435) 
Clc1cccc(Nc2[nH]nc3ncnc(NCc4ccccc4)c23)c1

>  <canonical_smi>  (435) 
Clc1cccc(Nc2[nH]nc3ncnc(NCc4ccccc4)c23)c1

>  <Set>  (435) 
G2 active

>  <Set_type>  (435) 
Train

>  <MW>  (435) 
350.81

>  <HBD>  (435) 
3

>  <HBA>  (435) 
5

>  <NRB>  (435) 
5

>  <NR>  (435) 
4

>  <NAR>  (435) 
4

>  <PSA>  (435) 
78.52

>  <Standard Type>  (435) 
nan

>  <Standard Relation>  (435) 
nan

>  <Standard Units>  (435) 
nan

>  <Standard Value>  (435) 
nan

>  <Assay ChEMBL ID>  (435) 
nan

>  <Assay Description>  (435) 
nan

>  <BAO Label>  (435) 
nan

$$$$

     RDKit          2D

 39 43  0  0  0  0  0  0  0  0999 V2000
    3.7500  -11.6913    0.0000 C   0  0  0  0  0  0  0  0  0  0  0  0
    3.0000  -10.3923    0.0000 N   0  0  0  0  0  0  0  0  0  0  0  0
    1.5000  -10.3923    0.0000 C   0  0  0  0  0  0  0  0  0  0  0  0
    0.7500   -9.0933    0.0000 C   0  0  0  0  0  0  0  0  0  0  0  0
    1.5000   -7.7942    0.0000 N   0  0  0  0  0  0  0  0  0  0  0  0
    0.7500   -6.4952    0.0000 C   0  0  0  0  0  0  0  0  0  0  0  0
    1.5000   -5.1962    0.0000 C   0  0  0  0  0  0  0  0  0  0  0  0
    0.7500   -3.8971    0.0000 C   0  0  0  0  0  0  0  0  0  0  0  0
    1.5000   -2.5981    0.0000 N   0  0  0  0  0  0  0  0  0  0  0  0
    0.7500   -1.2990    0.0000 C   0  0  0  0  0  0  0  0  0  0  0  0
    1.5000    0.0000    0.0000 N   0  0  0  0  0  0  0  0  0  0  0  0
    0.7500    1.2990    0.0000 C   0  0  0  0  0  0  0  0  0  0  0  0
   -0.7500    1.2990    0.0000 C   0  0  0  0  0  0  0  0  0  0  0  0
   -1.5000    2.5981    0.0000 C   0  0  0  0  0  0  0  0  0  0  0  0
   -3.0000    2.5981    0.0000 C   0  0  0  0  0  0  0  0  0  0  0  0
   -3.7500    3.8971    0.0000 C   0  0  0  0  0  0  0  0  0  0  0  0
   -3.0000    5.1962    0.0000 C   0  0  0  0  0  0  0  0  0  0  0  0
   -1.5000    5.1962    0.0000 Cl  0  0  0  0  0  0  0  0  0  0  0  0
   -3.7500    6.4952    0.0000 C   0  0  0  0  0  0  0  0  0  0  0  0
   -5.2500    6.4952    0.0000 C   0  0  0  0  0  0  0  0  0  0  0  0
   -6.0000    5.1962    0.0000 C   0  0  0  0  0  0  0  0  0  0  0  0
   -5.2500    3.8971    0.0000 C   0  0  0  0  0  0  0  0  0  0  0  0
   -6.0000    2.5981    0.0000 Cl  0  0  0  0  0  0  0  0  0  0  0  0
   -3.7500    1.2990    0.0000 C   0  0  0  0  0  0  0  0  0  0  0  0
   -5.2500    1.2990    0.0000 N   0  0  0  0  0  0  0  0  0  0  0  0
   -6.0000    0.0000    0.0000 C   0  0  0  0  0  0  0  0  0  0  0  0
   -5.2500   -1.2990    0.0000 O   0  0  0  0  0  0  0  0  0  0  0  0
   -7.5000    0.0000    0.0000 N   0  0  0  0  0  0  0  0  0  0  0  0
   -8.2500   -1.2990    0.0000 C   0  0  0  0  0  0  0  0  0  0  0  0
   -9.7500   -1.2990    0.0000 C   0  0  0  0  0  0  0  0  0  0  0  0
  -10.5000   -2.5981    0.0000 C   0  0  0  0  0  0  0  0  0  0  0  0
   -9.7500   -3.8971    0.0000 C   0  0  0  0  0  0  0  0  0  0  0  0
   -8.2500   -3.8971    0.0000 C   0  0  0  0  0  0  0  0  0  0  0  0
   -7.5000   -2.5981    0.0000 C   0  0  0  0  0  0  0  0  0  0  0  0
   -3.0000    0.0000    0.0000 N   0  0  0  0  0  0  0  0  0  0  0  0
   -1.5000    0.0000    0.0000 C   0  0  0  0  0  0  0  0  0  0  0  0
   -0.7500   -1.2990    0.0000 N   0  0  0  0  0  0  0  0  0  0  0  0
    3.0000   -7.7942    0.0000 C   0  0  0  0  0  0  0  0  0  0  0  0
    3.7500   -9.0933    0.0000 C   0  0  0  0  0  0  0  0  0  0  0  0
  1  2  1  0
  2  3  1  0
  3  4  1  0
  4  5  1  0
  5  6  1  0
  6  7  1  0
  7  8  1  0
  8  9  1  0
  9 10  1  0
 10 11  2  0
 11 12  1  0
 12 13  2  0
 13 14  1  0
 14 15  2  0
 15 16  1  0
 16 17  2  0
 17 18  1  0
 17 19  1  0
 19 20  2  0
 20 21  1  0
 21 22  2  0
 22 23  1  0
 15 24  1  0
 24 25  1  0
 25 26  1  0
 26 27  2  0
 26 28  1  0
 28 29  1  0
 29 30  1  0
 30 31  1  0
 31 32  1  0
 32 33  1  0
 33 34  1  0
 24 35  2  0
 35 36  1  0
 36 37  2  0
  5 38  1  0
 38 39  1  0
 39  2  1  0
 37 10  1  0
 36 13  1  0
 22 16  1  0
 34 29  1  0
M  END
>  <Compound_ID>  (436) 
CHEMBL51028

>  <Active>  (436) 
1.0

>  <Smiles>  (436) 
CN1CCN(CCCNc2ncc3cc(-c4c(Cl)cccc4Cl)c(NC(=O)NC4CCCCC4)nc3n2)CC1

>  <canonical_smi>  (436) 
CN1CCN(CCCNc2ncc3cc(-c4c(Cl)cccc4Cl)c(NC(=O)NC4CCCCC4)nc3n2)CC1

>  <Set>  (436) 
G2 active

>  <Set_type>  (436) 
Train

>  <MW>  (436) 
571.56

>  <HBD>  (436) 
3

>  <HBA>  (436) 
7

>  <NRB>  (436) 
8

>  <NR>  (436) 
5

>  <NAR>  (436) 
3

>  <PSA>  (436) 
98.31

>  <Standard Type>  (436) 
nan

>  <Standard Relation>  (436) 
nan

>  <Standard Units>  (436) 
nan

>  <Standard Value>  (436) 
nan

>  <Assay ChEMBL ID>  (436) 
nan

>  <Assay Description>  (436) 
nan

>  <BAO Label>  (436) 
nan

$$$$

     RDKit          2D

 37 42  0  0  0  0  0  0  0  0999 V2000
    3.0000   -0.0000    0.0000 Cl  0  0  0  0  0  0  0  0  0  0  0  0
    3.7500   -1.2990    0.0000 C   0  0  0  0  0  0  0  0  0  0  0  0
    5.2500   -1.2990    0.0000 C   0  0  0  0  0  0  0  0  0  0  0  0
    6.0000   -2.5981    0.0000 C   0  0  0  0  0  0  0  0  0  0  0  0
    5.2500   -3.8971    0.0000 C   0  0  0  0  0  0  0  0  0  0  0  0
    3.7500   -3.8971    0.0000 C   0  0  0  0  0  0  0  0  0  0  0  0
    3.0000   -2.5981    0.0000 C   0  0  0  0  0  0  0  0  0  0  0  0
    1.5000   -2.5981    0.0000 N   0  0  0  0  0  0  0  0  0  0  0  0
    0.7500   -1.2990    0.0000 C   0  0  0  0  0  0  0  0  0  0  0  0
    1.5000    0.0000    0.0000 N   0  0  0  0  0  0  0  0  0  0  0  0
    0.7500    1.2990    0.0000 C   0  0  0  0  0  0  0  0  0  0  0  0
   -0.7500    1.2990    0.0000 N   0  0  0  0  0  0  0  0  0  0  0  0
   -1.5000    0.0000    0.0000 C   0  0  0  0  0  0  0  0  0  0  0  0
   -3.0000    0.0000    0.0000 C   0  0  0  0  0  0  0  0  0  0  0  0
   -3.7500   -1.2990    0.0000 C   0  0  0  0  0  0  0  0  0  0  0  0
   -5.2500   -1.2990    0.0000 O   0  0  0  0  0  0  0  0  0  0  0  0
   -6.0000    0.0000    0.0000 C   0  0  0  0  0  0  0  0  0  0  0  0
   -7.5000   -0.0000    0.0000 C   0  0  0  0  0  0  0  0  0  0  0  0
   -8.2500    1.2990    0.0000 C   0  0  0  0  0  0  0  0  0  0  0  0
   -9.7500    1.2990    0.0000 N   0  0  0  0  0  0  0  0  0  0  0  0
  -10.6317    0.0855    0.0000 C   0  0  0  0  0  0  0  0  0  0  0  0
  -12.0583    0.5490    0.0000 C   0  0  0  0  0  0  0  0  0  0  0  0
  -12.0583    2.0490    0.0000 C   0  0  0  0  0  0  0  0  0  0  0  0
  -10.6317    2.5126    0.0000 C   0  0  0  0  0  0  0  0  0  0  0  0
   -3.0000   -2.5981    0.0000 C   0  0  0  0  0  0  0  0  0  0  0  0
   -1.5000   -2.5981    0.0000 C   0  0  0  0  0  0  0  0  0  0  0  0
   -0.7500   -3.8971    0.0000 O   0  0  0  0  0  0  0  0  0  0  0  0
   -1.5000   -5.1962    0.0000 C   0  0  0  0  0  0  0  0  0  0  0  0
   -3.0000   -5.1962    0.0000 C   0  0  0  0  0  0  0  0  0  0  0  0
   -3.7500   -6.4952    0.0000 C   0  0  0  0  0  0  0  0  0  0  0  0
   -3.0000   -7.7942    0.0000 O   0  0  0  0  0  0  0  0  0  0  0  0
   -1.5000   -7.7942    0.0000 C   0  0  0  0  0  0  0  0  0  0  0  0
   -0.7500   -6.4952    0.0000 C   0  0  0  0  0  0  0  0  0  0  0  0
   -0.7500   -1.2990    0.0000 C   0  0  0  0  0  0  0  0  0  0  0  0
    3.2865   -5.3237    0.0000 O   0  0  0  0  0  0  0  0  0  0  0  0
    4.5000   -6.2054    0.0000 C   0  0  0  0  0  0  0  0  0  0  0  0
    5.7135   -5.3237    0.0000 O   0  0  0  0  0  0  0  0  0  0  0  0
  1  2  1  0
  2  3  2  0
  3  4  1  0
  4  5  2  0
  5  6  1  0
  6  7  2  0
  7  8  1  0
  8  9  1  0
  9 10  2  0
 10 11  1  0
 11 12  2  0
 12 13  1  0
 13 14  2  0
 14 15  1  0
 15 16  1  0
 16 17  1  0
 17 18  1  0
 18 19  1  0
 19 20  1  0
 20 21  1  0
 21 22  1  0
 22 23  1  0
 23 24  1  0
 15 25  2  0
 25 26  1  0
 26 27  1  0
 27 28  1  0
 28 29  1  0
 29 30  1  0
 30 31  1  0
 31 32  1  0
 32 33  1  0
 26 34  2  0
  6 35  1  0
 35 36  1  0
 36 37  1  0
  7  2  1  0
 34  9  1  0
 37  5  1  0
 34 13  1  0
 24 20  1  0
 33 28  1  0
M  END
>  <Compound_ID>  (437) 
CHEMBL217090

>  <Active>  (437) 
1.0

>  <Smiles>  (437) 
Clc1ccc2c(c1Nc1ncnc3cc(OCCCN4CCCC4)cc(OC4CCOCC4)c13)OCO2

>  <canonical_smi>  (437) 
Clc1ccc2c(c1Nc1ncnc3cc(OCCCN4CCCC4)cc(OC4CCOCC4)c13)OCO2

>  <Set>  (437) 
G2 active

>  <Set_type>  (437) 
Train

>  <MW>  (437) 
527.02

>  <HBD>  (437) 
1

>  <HBA>  (437) 
9

>  <NRB>  (437) 
9

>  <NR>  (437) 
6

>  <NAR>  (437) 
3

>  <PSA>  (437) 
87.2

>  <Standard Type>  (437) 
nan

>  <Standard Relation>  (437) 
nan

>  <Standard Units>  (437) 
nan

>  <Standard Value>  (437) 
nan

>  <Assay ChEMBL ID>  (437) 
nan

>  <Assay Description>  (437) 
nan

>  <BAO Label>  (437) 
nan

$$$$

     RDKit          2D

 24 27  0  0  0  0  0  0  0  0999 V2000
    3.0000   -5.1962    0.0000 C   0  0  0  0  0  0  0  0  0  0  0  0
    1.5000   -5.1962    0.0000 O   0  0  0  0  0  0  0  0  0  0  0  0
    0.7500   -3.8971    0.0000 C   0  0  0  0  0  0  0  0  0  0  0  0
    1.5000   -2.5981    0.0000 C   0  0  0  0  0  0  0  0  0  0  0  0
    0.7500   -1.2990    0.0000 C   0  0  0  0  0  0  0  0  0  0  0  0
    1.5000    0.0000    0.0000 N   0  0  0  0  0  0  0  0  0  0  0  0
    0.7500    1.2990    0.0000 C   0  0  0  0  0  0  0  0  0  0  0  0
   -0.7500    1.2990    0.0000 N   0  0  0  0  0  0  0  0  0  0  0  0
   -1.5000    0.0000    0.0000 C   0  0  0  0  0  0  0  0  0  0  0  0
   -3.0000    0.0000    0.0000 N   0  0  0  0  0  0  0  0  0  0  0  0
   -3.7500    1.2990    0.0000 C   0  0  0  0  0  0  0  0  0  0  0  0
   -3.1399    2.6694    0.0000 C   0  0  0  0  0  0  0  0  0  0  0  0
   -4.2546    3.6731    0.0000 C   0  0  0  0  0  0  0  0  0  0  0  0
   -5.5537    2.9231    0.0000 C   0  0  0  0  0  0  0  0  0  0  0  0
   -6.9802    3.3866    0.0000 C   0  0  0  0  0  0  0  0  0  0  0  0
   -8.0950    2.3829    0.0000 C   0  0  0  0  0  0  0  0  0  0  0  0
   -7.7831    0.9157    0.0000 C   0  0  0  0  0  0  0  0  0  0  0  0
   -6.3565    0.4521    0.0000 C   0  0  0  0  0  0  0  0  0  0  0  0
   -5.2418    1.4558    0.0000 C   0  0  0  0  0  0  0  0  0  0  0  0
   -0.7500   -1.2990    0.0000 C   0  0  0  0  0  0  0  0  0  0  0  0
   -1.5000   -2.5981    0.0000 C   0  0  0  0  0  0  0  0  0  0  0  0
   -0.7500   -3.8971    0.0000 C   0  0  0  0  0  0  0  0  0  0  0  0
   -1.5000   -5.1962    0.0000 O   0  0  0  0  0  0  0  0  0  0  0  0
   -3.0000   -5.1962    0.0000 C   0  0  0  0  0  0  0  0  0  0  0  0
  1  2  1  0
  2  3  1  0
  3  4  2  0
  4  5  1  0
  5  6  2  0
  6  7  1  0
  7  8  2  0
  8  9  1  0
  9 10  1  0
 10 11  1  0
 11 12  1  0
 12 13  1  0
 13 14  1  0
 14 15  2  0
 15 16  1  0
 16 17  2  0
 17 18  1  0
 18 19  2  0
  9 20  2  0
 20 21  1  0
 21 22  2  0
 22 23  1  0
 23 24  1  0
 22  3  1  0
 20  5  1  0
 19 11  1  0
 19 14  1  0
M  END
>  <Compound_ID>  (438) 
CHEMBL94019

>  <Active>  (438) 
1.0

>  <Smiles>  (438) 
COc1cc2ncnc(NC3CCc4ccccc43)c2cc1OC

>  <canonical_smi>  (438) 
COc1cc2ncnc(NC3CCc4ccccc43)c2cc1OC

>  <Set>  (438) 
G2 active

>  <Set_type>  (438) 
Train

>  <MW>  (438) 
321.38

>  <HBD>  (438) 
1

>  <HBA>  (438) 
5

>  <NRB>  (438) 
4

>  <NR>  (438) 
4

>  <NAR>  (438) 
3

>  <PSA>  (438) 
56.27

>  <Standard Type>  (438) 
nan

>  <Standard Relation>  (438) 
nan

>  <Standard Units>  (438) 
nan

>  <Standard Value>  (438) 
nan

>  <Assay ChEMBL ID>  (438) 
nan

>  <Assay Description>  (438) 
nan

>  <BAO Label>  (438) 
nan

$$$$

     RDKit          2D

 27 30  0  0  0  0  0  0  0  0999 V2000
    7.5000   -2.5981    0.0000 F   0  0  0  0  0  0  0  0  0  0  0  0
    6.0000   -2.5981    0.0000 C   0  0  0  0  0  0  0  0  0  0  0  0
    5.2500   -3.8971    0.0000 C   0  0  0  0  0  0  0  0  0  0  0  0
    3.7500   -3.8971    0.0000 C   0  0  0  0  0  0  0  0  0  0  0  0
    3.0000   -2.5981    0.0000 C   0  0  0  0  0  0  0  0  0  0  0  0
    1.5000   -2.5981    0.0000 N   0  0  0  0  0  0  0  0  0  0  0  0
    0.7500   -1.2990    0.0000 C   0  0  0  0  0  0  0  0  0  0  0  0
    1.5000    0.0000    0.0000 N   0  0  0  0  0  0  0  0  0  0  0  0
    0.7500    1.2990    0.0000 C   0  0  0  0  0  0  0  0  0  0  0  0
   -0.7500    1.2990    0.0000 N   0  0  0  0  0  0  0  0  0  0  0  0
   -1.5000    0.0000    0.0000 C   0  0  0  0  0  0  0  0  0  0  0  0
   -2.9672   -0.3119    0.0000 N   0  0  0  0  0  0  0  0  0  0  0  0
   -3.1240   -1.8037    0.0000 C   0  0  0  0  0  0  0  0  0  0  0  0
   -4.4231   -2.5537    0.0000 N   0  0  0  0  0  0  0  0  0  0  0  0
   -5.7221   -1.8037    0.0000 C   0  0  0  0  0  0  0  0  0  0  0  0
   -7.0211   -2.5537    0.0000 C   0  0  0  0  0  0  0  0  0  0  0  0
   -8.3202   -1.8037    0.0000 N   0  0  0  0  0  0  0  0  0  0  0  0
   -8.3202   -0.3037    0.0000 C   0  0  0  0  0  0  0  0  0  0  0  0
   -9.6192    0.4463    0.0000 C   0  0  0  0  0  0  0  0  0  0  0  0
  -10.9182   -0.3037    0.0000 O   0  0  0  0  0  0  0  0  0  0  0  0
  -10.9182   -1.8037    0.0000 C   0  0  0  0  0  0  0  0  0  0  0  0
   -9.6192   -2.5537    0.0000 C   0  0  0  0  0  0  0  0  0  0  0  0
   -1.7537   -2.4138    0.0000 S   0  0  0  0  0  0  0  0  0  0  0  0
   -0.7500   -1.2990    0.0000 C   0  0  0  0  0  0  0  0  0  0  0  0
    3.7500   -1.2990    0.0000 C   0  0  0  0  0  0  0  0  0  0  0  0
    5.2500   -1.2990    0.0000 C   0  0  0  0  0  0  0  0  0  0  0  0
    6.0000   -0.0000    0.0000 Cl  0  0  0  0  0  0  0  0  0  0  0  0
  1  2  1  0
  2  3  2  0
  3  4  1  0
  4  5  2  0
  5  6  1  0
  6  7  1  0
  7  8  2  0
  8  9  1  0
  9 10  2  0
 10 11  1  0
 11 12  1  0
 12 13  2  0
 13 14  1  0
 14 15  1  0
 15 16  1  0
 16 17  1  0
 17 18  1  0
 18 19  1  0
 19 20  1  0
 20 21  1  0
 21 22  1  0
 13 23  1  0
 23 24  1  0
  5 25  1  0
 25 26  2  0
 26 27  1  0
 26  2  1  0
 24  7  1  0
 24 11  2  0
 22 17  1  0
M  END
>  <Compound_ID>  (439) 
CHEMBL511623

>  <Active>  (439) 
1.0

>  <Smiles>  (439) 
Fc1ccc(Nc2ncnc3nc(NCCN4CCOCC4)sc23)cc1Cl

>  <canonical_smi>  (439) 
Fc1ccc(Nc2ncnc3nc(NCCN4CCOCC4)sc23)cc1Cl

>  <Set>  (439) 
G2 active

>  <Set_type>  (439) 
Train

>  <MW>  (439) 
408.89

>  <HBD>  (439) 
2

>  <HBA>  (439) 
7

>  <NRB>  (439) 
6

>  <NR>  (439) 
4

>  <NAR>  (439) 
3

>  <PSA>  (439) 
75.2

>  <Standard Type>  (439) 
nan

>  <Standard Relation>  (439) 
nan

>  <Standard Units>  (439) 
nan

>  <Standard Value>  (439) 
nan

>  <Assay ChEMBL ID>  (439) 
nan

>  <Assay Description>  (439) 
nan

>  <BAO Label>  (439) 
nan

$$$$

     RDKit          2D

 29 32  0  0  0  0  0  0  0  0999 V2000
    3.0000   -5.1962    0.0000 C   0  0  0  0  0  0  0  0  0  0  0  0
    1.5000   -5.1962    0.0000 O   0  0  0  0  0  0  0  0  0  0  0  0
    0.7500   -3.8971    0.0000 C   0  0  0  0  0  0  0  0  0  0  0  0
    1.5000   -2.5981    0.0000 C   0  0  0  0  0  0  0  0  0  0  0  0
    0.7500   -1.2990    0.0000 C   0  0  0  0  0  0  0  0  0  0  0  0
    1.5000    0.0000    0.0000 N   0  0  0  0  0  0  0  0  0  0  0  0
    0.7500    1.2990    0.0000 C   0  0  0  0  0  0  0  0  0  0  0  0
   -0.7500    1.2990    0.0000 N   0  0  0  0  0  0  0  0  0  0  0  0
   -1.5000    0.0000    0.0000 C   0  0  0  0  0  0  0  0  0  0  0  0
   -3.0000    0.0000    0.0000 N   0  0  0  0  0  0  0  0  0  0  0  0
   -3.7500    1.2990    0.0000 C   0  0  0  0  0  0  0  0  0  0  0  0
   -3.0000    2.5981    0.0000 C   0  0  0  0  0  0  0  0  0  0  0  0
   -3.7500    3.8971    0.0000 C   0  0  0  0  0  0  0  0  0  0  0  0
   -5.2500    3.8971    0.0000 C   0  0  0  0  0  0  0  0  0  0  0  0
   -6.0000    2.5981    0.0000 C   0  0  0  0  0  0  0  0  0  0  0  0
   -7.5000    2.5981    0.0000 C   0  0  0  0  0  0  0  0  0  0  0  0
   -9.0000    2.5981    0.0000 C   0  0  0  0  0  0  0  0  0  0  0  0
  -10.5000    2.5981    0.0000 C   0  0  0  0  0  0  0  0  0  0  0  0
  -11.2500    3.8971    0.0000 C   0  0  0  0  0  0  0  0  0  0  0  0
  -12.7500    3.8971    0.0000 C   0  0  0  0  0  0  0  0  0  0  0  0
  -13.5000    2.5981    0.0000 C   0  0  0  0  0  0  0  0  0  0  0  0
  -12.7500    1.2990    0.0000 C   0  0  0  0  0  0  0  0  0  0  0  0
  -11.2500    1.2990    0.0000 C   0  0  0  0  0  0  0  0  0  0  0  0
   -5.2500    1.2990    0.0000 C   0  0  0  0  0  0  0  0  0  0  0  0
   -0.7500   -1.2990    0.0000 C   0  0  0  0  0  0  0  0  0  0  0  0
   -1.5000   -2.5981    0.0000 C   0  0  0  0  0  0  0  0  0  0  0  0
   -0.7500   -3.8971    0.0000 C   0  0  0  0  0  0  0  0  0  0  0  0
   -1.5000   -5.1962    0.0000 O   0  0  0  0  0  0  0  0  0  0  0  0
   -3.0000   -5.1962    0.0000 C   0  0  0  0  0  0  0  0  0  0  0  0
  1  2  1  0
  2  3  1  0
  3  4  2  0
  4  5  1  0
  5  6  2  0
  6  7  1  0
  7  8  2  0
  8  9  1  0
  9 10  1  0
 10 11  1  0
 11 12  2  0
 12 13  1  0
 13 14  2  0
 14 15  1  0
 15 16  1  0
 16 17  3  0
 17 18  1  0
 18 19  2  0
 19 20  1  0
 20 21  2  0
 21 22  1  0
 22 23  2  0
 15 24  2  0
  9 25  2  0
 25 26  1  0
 26 27  2  0
 27 28  1  0
 28 29  1  0
 27  3  1  0
 25  5  1  0
 24 11  1  0
 23 18  1  0
M  END
>  <Compound_ID>  (440) 
CHEMBL399735

>  <Active>  (440) 
1.0

>  <Smiles>  (440) 
COc1cc2ncnc(Nc3cccc(C#Cc4ccccc4)c3)c2cc1OC

>  <canonical_smi>  (440) 
COc1cc2ncnc(Nc3cccc(C#Cc4ccccc4)c3)c2cc1OC

>  <Set>  (440) 
G2 active

>  <Set_type>  (440) 
Train

>  <MW>  (440) 
381.44

>  <HBD>  (440) 
1

>  <HBA>  (440) 
5

>  <NRB>  (440) 
4

>  <NR>  (440) 
4

>  <NAR>  (440) 
4

>  <PSA>  (440) 
56.27

>  <Standard Type>  (440) 
nan

>  <Standard Relation>  (440) 
nan

>  <Standard Units>  (440) 
nan

>  <Standard Value>  (440) 
nan

>  <Assay ChEMBL ID>  (440) 
nan

>  <Assay Description>  (440) 
nan

>  <BAO Label>  (440) 
nan

$$$$

     RDKit          2D

 34 38  0  0  0  0  0  0  0  0999 V2000
    0.7500   -6.4952    0.0000 C   0  0  0  0  0  0  0  0  0  0  0  0
   -0.7500   -6.4952    0.0000 C   0  0  0  0  0  0  0  0  0  0  0  0
   -1.5000   -7.7942    0.0000 C   0  0  0  0  0  0  0  0  0  0  0  0
   -3.0000   -7.7942    0.0000 C   0  0  0  0  0  0  0  0  0  0  0  0
   -3.7500   -6.4952    0.0000 C   0  0  0  0  0  0  0  0  0  0  0  0
   -3.0000   -5.1962    0.0000 C   0  0  0  0  0  0  0  0  0  0  0  0
   -3.7500   -3.8971    0.0000 C   0  0  0  0  0  0  0  0  0  0  0  0
   -1.5000   -5.1962    0.0000 C   0  0  0  0  0  0  0  0  0  0  0  0
   -0.7500   -3.8971    0.0000 C   0  0  0  0  0  0  0  0  0  0  0  0
    0.7500   -3.8971    0.0000 C   0  0  0  0  0  0  0  0  0  0  0  0
    1.5000   -2.5981    0.0000 C   0  0  0  0  0  0  0  0  0  0  0  0
    3.0000   -2.5981    0.0000 C   0  0  0  0  0  0  0  0  0  0  0  0
    0.7500   -1.2990    0.0000 C   0  0  0  0  0  0  0  0  0  0  0  0
    1.5000    0.0000    0.0000 N   0  0  0  0  0  0  0  0  0  0  0  0
    0.7500    1.2990    0.0000 C   0  0  0  0  0  0  0  0  0  0  0  0
    1.5000    2.5981    0.0000 N   0  0  0  0  0  0  0  0  0  0  0  0
    3.0000    2.5981    0.0000 C   0  0  0  0  0  0  0  0  0  0  0  0
    3.7500    1.2990    0.0000 C   0  0  0  0  0  0  0  0  0  0  0  0
    5.2500    1.2990    0.0000 C   0  0  0  0  0  0  0  0  0  0  0  0
    6.0000    2.5981    0.0000 C   0  0  0  0  0  0  0  0  0  0  0  0
    7.5000    2.5981    0.0000 O   0  0  0  0  0  0  0  0  0  0  0  0
    8.2500    1.2990    0.0000 C   0  0  0  0  0  0  0  0  0  0  0  0
    9.7500    1.2990    0.0000 C   0  0  0  0  0  0  0  0  0  0  0  0
   10.5000   -0.0000    0.0000 N   0  0  0  0  0  0  0  0  0  0  0  0
   11.9918   -0.1568    0.0000 C   0  0  0  0  0  0  0  0  0  0  0  0
   12.3037   -1.6240    0.0000 C   0  0  0  0  0  0  0  0  0  0  0  0
   11.0046   -2.3740    0.0000 C   0  0  0  0  0  0  0  0  0  0  0  0
    9.8899   -1.3703    0.0000 C   0  0  0  0  0  0  0  0  0  0  0  0
    5.2500    3.8971    0.0000 C   0  0  0  0  0  0  0  0  0  0  0  0
    3.7500    3.8971    0.0000 C   0  0  0  0  0  0  0  0  0  0  0  0
   -0.7500    1.2990    0.0000 N   0  0  0  0  0  0  0  0  0  0  0  0
   -1.5000    0.0000    0.0000 N   0  0  0  0  0  0  0  0  0  0  0  0
   -0.7500   -1.2990    0.0000 C   0  0  0  0  0  0  0  0  0  0  0  0
   -1.5000   -2.5981    0.0000 C   0  0  0  0  0  0  0  0  0  0  0  0
  1  2  1  0
  2  3  2  0
  3  4  1  0
  4  5  2  0
  5  6  1  0
  6  7  1  0
  6  8  2  0
  8  9  1  0
  9 10  2  0
 10 11  1  0
 11 12  1  0
 11 13  2  0
 13 14  1  0
 14 15  2  0
 15 16  1  0
 16 17  1  0
 17 18  2  0
 18 19  1  0
 19 20  2  0
 20 21  1  0
 21 22  1  0
 22 23  1  0
 23 24  1  0
 24 25  1  0
 25 26  1  0
 26 27  1  0
 27 28  1  0
 20 29  1  0
 29 30  2  0
 15 31  1  0
 31 32  2  0
 32 33  1  0
 33 34  2  0
  8  2  1  0
 34  9  1  0
 33 13  1  0
 30 17  1  0
 28 24  1  0
M  END
>  <Compound_ID>  (441) 
CHEMBL436137

>  <Active>  (441) 
1.0

>  <Smiles>  (441) 
Cc1cccc(C)c1-c1cc(C)c2nc(Nc3ccc(OCCN4CCCC4)cc3)nnc2c1

>  <canonical_smi>  (441) 
Cc1cccc(C)c1-c1cc(C)c2nc(Nc3ccc(OCCN4CCCC4)cc3)nnc2c1

>  <Set>  (441) 
G2 active

>  <Set_type>  (441) 
Train

>  <MW>  (441) 
453.59

>  <HBD>  (441) 
1

>  <HBA>  (441) 
6

>  <NRB>  (441) 
7

>  <NR>  (441) 
5

>  <NAR>  (441) 
4

>  <PSA>  (441) 
63.17

>  <Standard Type>  (441) 
nan

>  <Standard Relation>  (441) 
nan

>  <Standard Units>  (441) 
nan

>  <Standard Value>  (441) 
nan

>  <Assay ChEMBL ID>  (441) 
nan

>  <Assay Description>  (441) 
nan

>  <BAO Label>  (441) 
nan

$$$$

     RDKit          2D

 36 39  0  0  0  0  0  0  0  0999 V2000
   -6.0000   -7.7942    0.0000 C   0  0  0  0  0  0  0  0  0  0  0  0
   -5.2500   -9.0933    0.0000 O   0  0  0  0  0  0  0  0  0  0  0  0
   -3.7500   -9.0933    0.0000 C   0  0  0  0  0  0  0  0  0  0  0  0
   -3.0000   -7.7942    0.0000 C   0  0  0  0  0  0  0  0  0  0  0  0
   -1.5000   -7.7942    0.0000 C   0  0  0  0  0  0  0  0  0  0  0  0
   -0.7500   -9.0933    0.0000 C   0  0  0  0  0  0  0  0  0  0  0  0
    0.7500   -9.0933    0.0000 N   0  0  0  0  0  0  0  0  0  0  0  0
    1.5000   -7.7942    0.0000 C   0  0  0  0  0  0  0  0  0  0  0  0
    0.7500   -6.4952    0.0000 C   0  0  0  0  0  0  0  0  0  0  0  0
    1.5000   -5.1962    0.0000 N   0  0  0  0  0  0  0  0  0  0  0  0
    0.7500   -3.8971    0.0000 N   0  0  0  0  0  0  0  0  0  0  0  0
    1.5000   -2.5981    0.0000 N   0  0  0  0  0  0  0  0  0  0  0  0
    0.7500   -1.2990    0.0000 C   0  0  0  0  0  0  0  0  0  0  0  0
    1.5000    0.0000    0.0000 C   0  0  0  0  0  0  0  0  0  0  0  0
    0.7500    1.2990    0.0000 C   0  0  0  0  0  0  0  0  0  0  0  0
   -0.7500    1.2990    0.0000 C   0  0  0  0  0  0  0  0  0  0  0  0
   -1.5000    2.5981    0.0000 N   0  0  0  0  0  0  0  0  0  0  0  0
   -3.0000    2.5981    0.0000 C   0  0  0  0  0  0  0  0  0  0  0  0
   -3.7500    1.2990    0.0000 N   0  0  0  0  0  0  0  0  0  0  0  0
   -3.0000    0.0000    0.0000 C   0  0  0  0  0  0  0  0  0  0  0  0
   -3.7500   -1.2990    0.0000 N   0  0  0  0  0  0  0  0  0  0  0  0
   -5.2500   -1.2990    0.0000 C   0  0  0  0  0  0  0  0  0  0  0  0
   -6.0000    0.0000    0.0000 C   0  0  0  0  0  0  0  0  0  0  0  0
   -7.5000    0.0000    0.0000 C   0  0  0  0  0  0  0  0  0  0  0  0
   -8.2500   -1.2990    0.0000 C   0  0  0  0  0  0  0  0  0  0  0  0
   -7.5000   -2.5981    0.0000 C   0  0  0  0  0  0  0  0  0  0  0  0
   -8.2500   -3.8971    0.0000 Cl  0  0  0  0  0  0  0  0  0  0  0  0
   -6.0000   -2.5981    0.0000 C   0  0  0  0  0  0  0  0  0  0  0  0
   -1.5000    0.0000    0.0000 C   0  0  0  0  0  0  0  0  0  0  0  0
   -0.7500   -1.2990    0.0000 C   0  0  0  0  0  0  0  0  0  0  0  0
    1.5000  -10.3923    0.0000 C   0  0  0  0  0  0  0  0  0  0  0  0
    0.7500  -11.6913    0.0000 C   0  0  0  0  0  0  0  0  0  0  0  0
    1.5000  -12.9904    0.0000 C   0  0  0  0  0  0  0  0  0  0  0  0
   -0.7500  -11.6913    0.0000 Cl  0  0  0  0  0  0  0  0  0  0  0  0
   -1.5000  -10.3923    0.0000 C   0  0  0  0  0  0  0  0  0  0  0  0
   -3.0000  -10.3923    0.0000 C   0  0  0  0  0  0  0  0  0  0  0  0
  1  2  1  0
  2  3  1  0
  3  4  2  0
  4  5  1  0
  5  6  2  0
  6  7  1  0
  7  8  1  0
  8  9  1  0
  9 10  1  0
 10 11  1  0
 11 12  2  3
 12 13  1  0
 13 14  2  0
 14 15  1  0
 15 16  2  0
 16 17  1  0
 17 18  2  0
 18 19  1  0
 19 20  2  0
 20 21  1  0
 21 22  1  0
 22 23  2  0
 23 24  1  0
 24 25  2  0
 25 26  1  0
 26 27  1  0
 26 28  2  0
 20 29  1  0
 29 30  2  0
  7 31  1  0
 31 32  1  0
 32 33  1  0
 32 34  1  0
  6 35  1  0
 35 36  2  0
 36  3  1  0
 30 13  1  0
 29 16  1  0
 28 22  1  0
M  END
>  <Compound_ID>  (442) 
CHEMBL225721

>  <Active>  (442) 
1.0

>  <Smiles>  (442) 
COc1ccc(N(CCNN=Nc2ccc3ncnc(Nc4cccc(Cl)c4)c3c2)CC(C)Cl)cc1

>  <canonical_smi>  (442) 
COc1ccc(N(CCNN=Nc2ccc3ncnc(Nc4cccc(Cl)c4)c3c2)CC(C)Cl)cc1

>  <Set>  (442) 
G2 active

>  <Set_type>  (442) 
Train

>  <MW>  (442) 
524.46

>  <HBD>  (442) 
2

>  <HBA>  (442) 
6

>  <NRB>  (442) 
11

>  <NR>  (442) 
4

>  <NAR>  (442) 
4

>  <PSA>  (442) 
87.03

>  <Standard Type>  (442) 
nan

>  <Standard Relation>  (442) 
nan

>  <Standard Units>  (442) 
nan

>  <Standard Value>  (442) 
nan

>  <Assay ChEMBL ID>  (442) 
nan

>  <Assay Description>  (442) 
nan

>  <BAO Label>  (442) 
nan

$$$$

     RDKit          2D

 40 44  0  0  0  0  0  0  0  0999 V2000
    3.7500  -11.6913    0.0000 C   0  0  0  0  0  0  0  0  0  0  0  0
    3.0000  -10.3923    0.0000 N   0  0  0  0  0  0  0  0  0  0  0  0
    1.5000  -10.3923    0.0000 C   0  0  0  0  0  0  0  0  0  0  0  0
    0.7500   -9.0933    0.0000 C   0  0  0  0  0  0  0  0  0  0  0  0
    1.5000   -7.7942    0.0000 N   0  0  0  0  0  0  0  0  0  0  0  0
    0.7500   -6.4952    0.0000 C   0  0  0  0  0  0  0  0  0  0  0  0
    1.5000   -5.1962    0.0000 C   0  0  0  0  0  0  0  0  0  0  0  0
    0.7500   -3.8971    0.0000 C   0  0  0  0  0  0  0  0  0  0  0  0
    1.5000   -2.5981    0.0000 N   0  0  0  0  0  0  0  0  0  0  0  0
    0.7500   -1.2990    0.0000 C   0  0  0  0  0  0  0  0  0  0  0  0
    1.5000    0.0000    0.0000 N   0  0  0  0  0  0  0  0  0  0  0  0
    0.7500    1.2990    0.0000 C   0  0  0  0  0  0  0  0  0  0  0  0
   -0.7500    1.2990    0.0000 C   0  0  0  0  0  0  0  0  0  0  0  0
   -1.5000    2.5981    0.0000 C   0  0  0  0  0  0  0  0  0  0  0  0
   -3.0000    2.5981    0.0000 C   0  0  0  0  0  0  0  0  0  0  0  0
   -3.7500    3.8971    0.0000 C   0  0  0  0  0  0  0  0  0  0  0  0
   -3.0000    5.1962    0.0000 C   0  0  0  0  0  0  0  0  0  0  0  0
   -1.5000    5.1962    0.0000 Cl  0  0  0  0  0  0  0  0  0  0  0  0
   -3.7500    6.4952    0.0000 C   0  0  0  0  0  0  0  0  0  0  0  0
   -5.2500    6.4952    0.0000 C   0  0  0  0  0  0  0  0  0  0  0  0
   -6.0000    5.1962    0.0000 C   0  0  0  0  0  0  0  0  0  0  0  0
   -5.2500    3.8971    0.0000 C   0  0  0  0  0  0  0  0  0  0  0  0
   -6.0000    2.5981    0.0000 Cl  0  0  0  0  0  0  0  0  0  0  0  0
   -3.7500    1.2990    0.0000 C   0  0  0  0  0  0  0  0  0  0  0  0
   -5.2500    1.2990    0.0000 N   0  0  0  0  0  0  0  0  0  0  0  0
   -6.0000    0.0000    0.0000 C   0  0  0  0  0  0  0  0  0  0  0  0
   -5.2500   -1.2990    0.0000 O   0  0  0  0  0  0  0  0  0  0  0  0
   -7.5000    0.0000    0.0000 N   0  0  0  0  0  0  0  0  0  0  0  0
   -8.2500   -1.2990    0.0000 C   0  0  0  0  0  0  0  0  0  0  0  0
   -9.7500   -1.2990    0.0000 C   0  0  0  0  0  0  0  0  0  0  0  0
  -10.5000    0.0000    0.0000 C   0  0  0  0  0  0  0  0  0  0  0  0
  -12.0000    0.0000    0.0000 C   0  0  0  0  0  0  0  0  0  0  0  0
  -12.7500   -1.2990    0.0000 C   0  0  0  0  0  0  0  0  0  0  0  0
  -12.0000   -2.5981    0.0000 C   0  0  0  0  0  0  0  0  0  0  0  0
  -10.5000   -2.5981    0.0000 C   0  0  0  0  0  0  0  0  0  0  0  0
   -3.0000    0.0000    0.0000 N   0  0  0  0  0  0  0  0  0  0  0  0
   -1.5000    0.0000    0.0000 C   0  0  0  0  0  0  0  0  0  0  0  0
   -0.7500   -1.2990    0.0000 N   0  0  0  0  0  0  0  0  0  0  0  0
    3.0000   -7.7942    0.0000 C   0  0  0  0  0  0  0  0  0  0  0  0
    3.7500   -9.0933    0.0000 C   0  0  0  0  0  0  0  0  0  0  0  0
  1  2  1  0
  2  3  1  0
  3  4  1  0
  4  5  1  0
  5  6  1  0
  6  7  1  0
  7  8  1  0
  8  9  1  0
  9 10  1  0
 10 11  2  0
 11 12  1  0
 12 13  2  0
 13 14  1  0
 14 15  2  0
 15 16  1  0
 16 17  2  0
 17 18  1  0
 17 19  1  0
 19 20  2  0
 20 21  1  0
 21 22  2  0
 22 23  1  0
 15 24  1  0
 24 25  1  0
 25 26  1  0
 26 27  2  0
 26 28  1  0
 28 29  1  0
 29 30  1  0
 30 31  2  0
 31 32  1  0
 32 33  2  0
 33 34  1  0
 34 35  2  0
 24 36  2  0
 36 37  1  0
 37 38  2  0
  5 39  1  0
 39 40  1  0
 40  2  1  0
 38 10  1  0
 37 13  1  0
 22 16  1  0
 35 30  1  0
M  END
>  <Compound_ID>  (443) 
CHEMBL51485

>  <Active>  (443) 
1.0

>  <Smiles>  (443) 
CN1CCN(CCCNc2ncc3cc(-c4c(Cl)cccc4Cl)c(NC(=O)NCc4ccccc4)nc3n2)CC1

>  <canonical_smi>  (443) 
CN1CCN(CCCNc2ncc3cc(-c4c(Cl)cccc4Cl)c(NC(=O)NCc4ccccc4)nc3n2)CC1

>  <Set>  (443) 
G2 active

>  <Set_type>  (443) 
Train

>  <MW>  (443) 
579.54

>  <HBD>  (443) 
3

>  <HBA>  (443) 
7

>  <NRB>  (443) 
9

>  <NR>  (443) 
5

>  <NAR>  (443) 
4

>  <PSA>  (443) 
98.31

>  <Standard Type>  (443) 
nan

>  <Standard Relation>  (443) 
nan

>  <Standard Units>  (443) 
nan

>  <Standard Value>  (443) 
nan

>  <Assay ChEMBL ID>  (443) 
nan

>  <Assay Description>  (443) 
nan

>  <BAO Label>  (443) 
nan

$$$$

     RDKit          2D

 40 44  0  0  0  0  0  0  0  0999 V2000
   -2.6401   -3.1891    0.0000 C   0  0  0  0  0  0  0  0  0  0  0  0
   -1.2135   -2.7256    0.0000 C   0  0  0  0  0  0  0  0  0  0  0  0
   -0.0000   -3.6073    0.0000 C   0  0  0  0  0  0  0  0  0  0  0  0
   -0.0000   -5.1073    0.0000 C   0  0  0  0  0  0  0  0  0  0  0  0
   -1.2990   -5.8573    0.0000 O   0  0  0  0  0  0  0  0  0  0  0  0
    1.2990   -5.8573    0.0000 N   0  0  0  0  0  0  0  0  0  0  0  0
    1.2990   -7.3573    0.0000 C   0  0  0  0  0  0  0  0  0  0  0  0
    2.5981   -8.1073    0.0000 C   0  0  0  0  0  0  0  0  0  0  0  0
    2.5981   -9.6073    0.0000 C   0  0  0  0  0  0  0  0  0  0  0  0
    3.8971  -10.3573    0.0000 N   0  0  0  0  0  0  0  0  0  0  0  0
    3.8971  -11.8573    0.0000 C   0  0  0  0  0  0  0  0  0  0  0  0
    5.1962  -12.6073    0.0000 C   0  0  0  0  0  0  0  0  0  0  0  0
    6.4952  -11.8573    0.0000 N   0  0  0  0  0  0  0  0  0  0  0  0
    7.7942  -12.6073    0.0000 C   0  0  0  0  0  0  0  0  0  0  0  0
    6.4952  -10.3573    0.0000 C   0  0  0  0  0  0  0  0  0  0  0  0
    5.1962   -9.6073    0.0000 C   0  0  0  0  0  0  0  0  0  0  0  0
    1.2135   -2.7256    0.0000 N   0  0  0  0  0  0  0  0  0  0  0  0
    0.7500   -1.2990    0.0000 C   0  0  0  0  0  0  0  0  0  0  0  0
    1.5000    0.0000    0.0000 C   0  0  0  0  0  0  0  0  0  0  0  0
    0.7500    1.2990    0.0000 N   0  0  0  0  0  0  0  0  0  0  0  0
   -0.7500    1.2990    0.0000 N   0  0  0  0  0  0  0  0  0  0  0  0
   -1.5000    0.0000    0.0000 C   0  0  0  0  0  0  0  0  0  0  0  0
   -3.0000    0.0000    0.0000 N   0  0  0  0  0  0  0  0  0  0  0  0
   -3.7500    1.2990    0.0000 C   0  0  0  0  0  0  0  0  0  0  0  0
   -3.0000    2.5981    0.0000 C   0  0  0  0  0  0  0  0  0  0  0  0
   -3.7500    3.8971    0.0000 C   0  0  0  0  0  0  0  0  0  0  0  0
   -5.2500    3.8971    0.0000 C   0  0  0  0  0  0  0  0  0  0  0  0
   -6.0000    5.1962    0.0000 O   0  0  0  0  0  0  0  0  0  0  0  0
   -5.2500    6.4952    0.0000 C   0  0  0  0  0  0  0  0  0  0  0  0
   -6.0000    7.7942    0.0000 C   0  0  0  0  0  0  0  0  0  0  0  0
   -5.2500    9.0933    0.0000 C   0  0  0  0  0  0  0  0  0  0  0  0
   -6.0000   10.3923    0.0000 C   0  0  0  0  0  0  0  0  0  0  0  0
   -7.5000   10.3923    0.0000 C   0  0  0  0  0  0  0  0  0  0  0  0
   -8.2500    9.0933    0.0000 C   0  0  0  0  0  0  0  0  0  0  0  0
   -9.7500    9.0933    0.0000 F   0  0  0  0  0  0  0  0  0  0  0  0
   -7.5000    7.7942    0.0000 C   0  0  0  0  0  0  0  0  0  0  0  0
   -6.0000    2.5981    0.0000 C   0  0  0  0  0  0  0  0  0  0  0  0
   -7.5000    2.5981    0.0000 Cl  0  0  0  0  0  0  0  0  0  0  0  0
   -5.2500    1.2990    0.0000 C   0  0  0  0  0  0  0  0  0  0  0  0
   -0.7500   -1.2990    0.0000 C   0  0  0  0  0  0  0  0  0  0  0  0
  1  2  1  0
  2  3  2  0
  3  4  1  0
  4  5  2  0
  4  6  1  0
  6  7  1  0
  7  8  1  0
  8  9  1  0
  9 10  1  0
 10 11  1  0
 11 12  1  0
 12 13  1  0
 13 14  1  0
 13 15  1  0
 15 16  1  0
  3 17  1  0
 17 18  1  0
 18 19  2  0
 19 20  1  0
 20 21  2  0
 21 22  1  0
 22 23  1  0
 23 24  1  0
 24 25  2  0
 25 26  1  0
 26 27  2  0
 27 28  1  0
 28 29  1  0
 29 30  1  0
 30 31  2  0
 31 32  1  0
 32 33  2  0
 33 34  1  0
 34 35  1  0
 34 36  2  0
 27 37  1  0
 37 38  1  0
 37 39  2  0
 22 40  2  0
 40  2  1  0
 16 10  1  0
 40 18  1  0
 39 24  1  0
 36 30  1  0
M  END
>  <Compound_ID>  (444) 
CHEMBL1081849

>  <Active>  (444) 
1.0

>  <Smiles>  (444) 
Cc1c(C(=O)NCCCN2CCN(C)CC2)[nH]c2cnnc(Nc3ccc(OCc4cccc(F)c4)c(Cl)c3)c12

>  <canonical_smi>  (444) 
Cc1c(C(=O)NCCCN2CCN(C)CC2)[nH]c2cnnc(Nc3ccc(OCc4cccc(F)c4)c(Cl)c3)c12

>  <Set>  (444) 
G2 active

>  <Set_type>  (444) 
Train

>  <MW>  (444) 
566.08

>  <HBD>  (444) 
3

>  <HBA>  (444) 
7

>  <NRB>  (444) 
10

>  <NR>  (444) 
5

>  <NAR>  (444) 
4

>  <PSA>  (444) 
98.41

>  <Standard Type>  (444) 
nan

>  <Standard Relation>  (444) 
nan

>  <Standard Units>  (444) 
nan

>  <Standard Value>  (444) 
nan

>  <Assay ChEMBL ID>  (444) 
nan

>  <Assay Description>  (444) 
nan

>  <BAO Label>  (444) 
nan

$$$$

     RDKit          2D

 26 29  0  0  0  0  0  0  0  0999 V2000
    2.6491   -9.4281    0.0000 C   0  0  0  0  0  0  0  0  0  0  0  0
    1.5000  -10.3923    0.0000 C   0  0  0  0  0  0  0  0  0  0  0  0
    2.6491  -11.3565    0.0000 C   0  0  0  0  0  0  0  0  0  0  0  0
    0.7500  -11.6913    0.0000 C   0  0  0  0  0  0  0  0  0  0  0  0
   -0.7500  -11.6913    0.0000 C   0  0  0  0  0  0  0  0  0  0  0  0
   -1.5000  -10.3923    0.0000 C   0  0  0  0  0  0  0  0  0  0  0  0
   -0.7500   -9.0933    0.0000 C   0  0  0  0  0  0  0  0  0  0  0  0
   -2.1595   -8.5802    0.0000 C   0  0  0  0  0  0  0  0  0  0  0  0
   -0.4895   -7.6161    0.0000 C   0  0  0  0  0  0  0  0  0  0  0  0
    0.7500   -9.0933    0.0000 N   0  0  0  0  0  4  0  0  0  0  0  0
    1.5000   -7.7942    0.0000 C   0  0  0  0  0  0  0  0  0  0  0  0
    0.7500   -6.4952    0.0000 C   0  0  0  0  0  0  0  0  0  0  0  0
   -0.7500   -6.4952    0.0000 O   0  0  0  0  0  0  0  0  0  0  0  0
    1.5000   -5.1962    0.0000 C   0  0  0  0  0  0  0  0  0  0  0  0
    0.7500   -3.8971    0.0000 O   0  0  0  0  0  0  0  0  0  0  0  0
    1.5000   -2.5981    0.0000 C   0  0  0  0  0  0  0  0  0  0  0  0
    0.7500   -1.2990    0.0000 C   0  0  0  0  0  0  0  0  0  0  0  0
    1.5000    0.0000    0.0000 C   0  0  0  0  0  0  0  0  0  0  0  0
    0.7500    1.2990    0.0000 C   0  0  0  0  0  0  0  0  0  0  0  0
   -0.7500    1.2990    0.0000 C   0  0  0  0  0  0  0  0  0  0  0  0
   -1.5000    0.0000    0.0000 C   0  0  0  0  0  0  0  0  0  0  0  0
    1.7010   -0.7500    0.0000 C   0  0  0  0  0  0  0  0  0  0  0  0
    3.0000   -0.0000    0.0000 C   0  0  0  0  0  0  0  0  0  0  0  0
    2.2500    1.2990    0.0000 C   0  0  0  0  0  0  0  0  0  0  0  0
    2.2500   -1.2990    0.0000 C   0  0  0  0  0  0  0  0  0  0  0  0
   -0.7500   -1.2990    0.0000 C   0  0  0  0  0  0  0  0  0  0  0  0
  1  2  1  0
  2  3  1  0
  2  4  1  0
  4  5  1  0
  5  6  1  0
  6  7  1  0
  7  8  1  0
  7  9  1  0
  7 10  1  0
 10 11  1  0
 11 12  1  0
 12 13  1  1
 12 14  1  0
 14 15  1  0
 15 16  1  0
 16 17  1  0
 17 18  1  0
 18 19  1  0
 19 20  1  0
 20 21  1  0
 21 22  1  0
 22 23  1  0
 23 24  1  0
 23 25  1  0
 21 26  1  0
 10  2  1  0
 25 17  1  0
 26 17  1  0
 24 19  1  0
M  CHG  1  10   1
M  END
>  <Compound_ID>  (445) 
C10383802

>  <Active>  (445) 
0.0

>  <Smiles>  (445) 
CC1(C)CCCC(C)(C)[NH+]1C[C@@H](O)COCC12CC3CC(CC(C3)C1)C2

>  <canonical_smi>  (445) 
CC1(C)CCCC(C)(C)[NH+]1C[C@@H](O)COCC12CC3CC(CC(C3)C1)C2

>  <Set>  (445) 
G2 inactive

>  <Set_type>  (445) 
Train

>  <MW>  (445) 
364.59

>  <HBD>  (445) 
2

>  <HBA>  (445) 
2

>  <NRB>  (445) 
6

>  <NR>  (445) 
5

>  <NAR>  (445) 
0

>  <PSA>  (445) 
33.9

>  <Standard Type>  (445) 
nan

>  <Standard Relation>  (445) 
nan

>  <Standard Units>  (445) 
nan

>  <Standard Value>  (445) 
nan

>  <Assay ChEMBL ID>  (445) 
nan

>  <Assay Description>  (445) 
nan

>  <BAO Label>  (445) 
nan

$$$$

     RDKit          2D

 23 26  0  0  0  0  0  0  0  0999 V2000
    1.5000    0.0000    0.0000 C   0  0  0  0  0  0  0  0  0  0  0  0
    0.7500   -1.2990    0.0000 C   0  0  0  0  0  0  0  0  0  0  0  0
   -0.7500   -1.2990    0.0000 C   0  0  0  0  0  0  0  0  0  0  0  0
   -1.5000    0.0000    0.0000 C   0  0  0  0  0  0  0  0  0  0  0  0
   -3.0000    0.0000    0.0000 C   0  0  0  0  0  0  0  0  0  0  0  0
   -2.8432   -1.4918    0.0000 C   0  0  0  0  0  0  0  0  0  0  0  0
   -4.0567   -2.3735    0.0000 C   0  0  0  0  0  0  0  0  0  0  0  0
   -3.8999   -3.8652    0.0000 C   0  0  0  0  0  0  0  0  0  0  0  0
   -2.5296   -4.4753    0.0000 C   0  0  0  0  0  0  0  0  0  0  0  0
   -1.3161   -3.5937    0.0000 C   0  0  0  0  0  0  0  0  0  0  0  0
   -1.4729   -2.1019    0.0000 C   0  0  0  0  0  0  0  0  0  0  0  0
   -4.4672   -0.3119    0.0000 O   0  0  0  0  0  0  0  0  0  0  0  0
   -5.2172    0.9872    0.0000 C   0  0  0  0  0  0  0  0  0  0  0  0
   -4.2135    2.1019    0.0000 C   0  0  0  0  0  0  0  0  0  0  0  0
   -4.5254    3.5691    0.0000 C   0  0  0  0  0  0  0  0  0  0  0  0
   -3.4107    4.5728    0.0000 C   0  0  0  0  0  0  0  0  0  0  0  0
   -3.7225    6.0400    0.0000 C   0  0  0  0  0  0  0  0  0  0  0  0
   -5.1491    6.5036    0.0000 C   0  0  0  0  0  0  0  0  0  0  0  0
   -6.2638    5.4999    0.0000 C   0  0  0  0  0  0  0  0  0  0  0  0
   -5.9520    4.0326    0.0000 N   0  0  0  0  0  4  0  0  0  0  0  0
   -2.8432    1.4918    0.0000 O   0  0  0  0  0  0  0  0  0  0  0  0
   -0.7500    1.2990    0.0000 C   0  0  0  0  0  0  0  0  0  0  0  0
    0.7500    1.2990    0.0000 C   0  0  0  0  0  0  0  0  0  0  0  0
  1  2  1  0
  2  3  1  0
  3  4  1  0
  4  5  1  0
  5  6  1  0
  6  7  1  0
  7  8  1  0
  8  9  1  0
  9 10  1  0
 10 11  1  0
  5 12  1  0
 12 13  1  0
 14 13  1  1
 14 15  1  0
 15 16  1  1
 16 17  1  0
 17 18  1  0
 18 19  1  0
 19 20  1  0
 14 21  1  0
  4 22  1  0
 22 23  1  0
 23  1  1  0
 21  5  1  0
 11  6  1  0
 20 15  1  0
M  CHG  1  20   1
M  END
>  <Compound_ID>  (446) 
C02036997

>  <Active>  (446) 
0.0

>  <Smiles>  (446) 
C1CCC(C2(C3CCCCC3)OC[C@@H]([C@@H]3CCCC[NH2+]3)O2)CC1

>  <canonical_smi>  (446) 
C1CCC(C2(C3CCCCC3)OC[C@@H]([C@@H]3CCCC[NH2+]3)O2)CC1

>  <Set>  (446) 
G2 inactive

>  <Set_type>  (446) 
Train

>  <MW>  (446) 
322.51

>  <HBD>  (446) 
1

>  <HBA>  (446) 
2

>  <NRB>  (446) 
3

>  <NR>  (446) 
4

>  <NAR>  (446) 
0

>  <PSA>  (446) 
35.07

>  <Standard Type>  (446) 
nan

>  <Standard Relation>  (446) 
nan

>  <Standard Units>  (446) 
nan

>  <Standard Value>  (446) 
nan

>  <Assay ChEMBL ID>  (446) 
nan

>  <Assay Description>  (446) 
nan

>  <BAO Label>  (446) 
nan

$$$$

     RDKit          2D

 24 27  0  0  0  0  0  0  0  0999 V2000
   -6.3812   -2.1825    0.0000 C   0  0  0  0  0  0  0  0  0  0  0  0
   -5.1677   -3.0642    0.0000 C   0  0  0  0  0  0  0  0  0  0  0  0
   -3.7974   -2.4540    0.0000 C   0  0  0  0  0  0  0  0  0  0  0  0
   -2.5838   -3.3357    0.0000 C   0  0  0  0  0  0  0  0  0  0  0  0
   -2.7406   -4.8275    0.0000 N   0  0  0  0  0  0  0  0  0  0  0  0
   -1.5271   -5.7092    0.0000 C   0  0  0  0  0  0  0  0  0  0  0  0
   -0.1568   -5.0991    0.0000 C   0  0  0  0  0  0  0  0  0  0  0  0
    1.0567   -5.9808    0.0000 C   0  0  0  0  0  0  0  0  0  0  0  0
    2.4271   -5.3707    0.0000 N   0  0  0  0  0  0  0  0  0  0  0  0
    3.6406   -6.2523    0.0000 O   0  0  0  0  0  0  0  0  0  0  0  0
    0.8999   -7.4725    0.0000 C   0  0  0  0  0  0  0  0  0  0  0  0
   -0.4704   -8.0826    0.0000 C   0  0  0  0  0  0  0  0  0  0  0  0
   -1.5494   -9.1246    0.0000 C   0  0  0  0  0  0  0  0  0  0  0  0
    0.3684   -9.3262    0.0000 C   0  0  0  0  0  0  0  0  0  0  0  0
   -1.6839   -7.2010    0.0000 C   0  0  0  0  0  0  0  0  0  0  0  0
   -0.0000   -3.6073    0.0000 C   0  0  0  0  0  0  0  0  0  0  0  0
    1.2135   -2.7256    0.0000 N   0  0  0  0  0  4  0  0  0  0  0  0
    0.7500   -1.2990    0.0000 C   0  0  0  0  0  0  0  0  0  0  0  0
    1.5000    0.0000    0.0000 C   0  0  0  0  0  0  0  0  0  0  0  0
    0.7500    1.2990    0.0000 C   0  0  0  0  0  0  0  0  0  0  0  0
   -0.7500    1.2990    0.0000 C   0  0  0  0  0  0  0  0  0  0  0  0
   -1.5000    0.0000    0.0000 C   0  0  0  0  0  0  0  0  0  0  0  0
   -0.7500   -1.2990    0.0000 C   0  0  0  0  0  0  0  0  0  0  0  0
   -1.2135   -2.7256    0.0000 C   0  0  0  0  0  0  0  0  0  0  0  0
  1  2  1  0
  2  3  1  0
  3  4  1  0
  4  5  2  0
  5  6  1  0
  6  7  2  0
  7  8  1  0
  8  9  2  0
  9 10  1  0
  8 11  1  0
 11 12  1  0
 12 13  1  0
 12 14  1  0
 12 15  1  0
  7 16  1  0
 16 17  1  6
 17 18  2  0
 18 19  1  0
 19 20  2  0
 20 21  1  0
 21 22  2  0
 22 23  1  0
 23 24  2  0
 24  4  1  0
 15  6  1  0
 24 16  1  0
 23 18  1  0
M  CHG  1  17   1
M  END
>  <Compound_ID>  (447) 
C38549498

>  <Active>  (447) 
0.0

>  <Smiles>  (447) 
CCCC1=NC2=C(/C(=N/O)CC(C)(C)C2)[C@H]2[NH+]=c3ccccc3=C12

>  <canonical_smi>  (447) 
CCCC1=NC2=C(/C(=N/O)CC(C)(C)C2)[C@H]2[NH+]=c3ccccc3=C12

>  <Set>  (447) 
G2 inactive

>  <Set_type>  (447) 
Train

>  <MW>  (447) 
322.43

>  <HBD>  (447) 
2

>  <HBA>  (447) 
1

>  <NRB>  (447) 
2

>  <NR>  (447) 
4

>  <NAR>  (447) 
1

>  <PSA>  (447) 
58.92

>  <Standard Type>  (447) 
nan

>  <Standard Relation>  (447) 
nan

>  <Standard Units>  (447) 
nan

>  <Standard Value>  (447) 
nan

>  <Assay ChEMBL ID>  (447) 
nan

>  <Assay Description>  (447) 
nan

>  <BAO Label>  (447) 
nan

$$$$

     RDKit          2D

 26 30  0  0  0  0  0  0  0  0999 V2000
   -7.4379    0.1910    0.0000 Cl  0  0  0  0  0  0  0  0  0  0  0  0
   -6.2244   -0.6907    0.0000 C   0  0  0  0  0  0  0  0  0  0  0  0
   -4.8541   -0.0806    0.0000 C   0  0  0  0  0  0  0  0  0  0  0  0
   -3.6406   -0.9623    0.0000 C   0  0  0  0  0  0  0  0  0  0  0  0
   -3.7974   -2.4540    0.0000 C   0  0  0  0  0  0  0  0  0  0  0  0
   -2.5838   -3.3357    0.0000 C   0  0  0  0  0  0  0  0  0  0  0  0
   -2.7406   -4.8275    0.0000 C   0  0  0  0  0  0  0  0  0  0  0  0
   -1.5271   -5.7092    0.0000 C   0  0  0  0  0  0  0  0  0  0  0  0
   -1.6839   -7.2010    0.0000 C   0  0  0  0  0  0  0  0  0  0  0  0
   -3.0542   -7.8111    0.0000 C   0  0  0  0  0  0  0  0  0  0  0  0
   -3.2110   -9.3029    0.0000 C   0  0  0  0  0  0  0  0  0  0  0  0
   -1.9975  -10.1845    0.0000 C   0  0  0  0  0  0  0  0  0  0  0  0
   -0.6272   -9.5744    0.0000 C   0  0  0  0  0  0  0  0  0  0  0  0
   -0.4704   -8.0826    0.0000 C   0  0  0  0  0  0  0  0  0  0  0  0
   -0.1568   -5.0991    0.0000 N   0  0  0  0  0  0  0  0  0  0  0  0
   -0.0000   -3.6073    0.0000 C   0  0  0  0  0  0  0  0  0  0  0  0
    1.2135   -2.7256    0.0000 N   0  0  0  0  0  4  0  0  0  0  0  0
    0.7500   -1.2990    0.0000 C   0  0  0  0  0  0  0  0  0  0  0  0
    1.5000    0.0000    0.0000 C   0  0  0  0  0  0  0  0  0  0  0  0
    0.7500    1.2990    0.0000 C   0  0  0  0  0  0  0  0  0  0  0  0
   -0.7500    1.2990    0.0000 C   0  0  0  0  0  0  0  0  0  0  0  0
   -1.5000    0.0000    0.0000 C   0  0  0  0  0  0  0  0  0  0  0  0
   -0.7500   -1.2990    0.0000 C   0  0  0  0  0  0  0  0  0  0  0  0
   -1.2135   -2.7256    0.0000 N   0  0  0  0  0  0  0  0  0  0  0  0
   -5.1677   -3.0642    0.0000 C   0  0  0  0  0  0  0  0  0  0  0  0
   -6.3812   -2.1825    0.0000 C   0  0  0  0  0  0  0  0  0  0  0  0
  1  2  1  0
  2  3  2  0
  3  4  1  0
  4  5  2  0
  6  5  1  6
  6  7  1  0
  7  8  1  0
  8  9  1  1
  9 10  2  0
 10 11  1  0
 11 12  2  0
 12 13  1  0
 13 14  2  0
  8 15  1  0
 15 16  1  0
 16 17  2  0
 17 18  1  0
 18 19  2  0
 19 20  1  0
 20 21  2  0
 21 22  1  0
 22 23  2  0
 23 24  1  0
  5 25  1  0
 25 26  2  0
 26  2  1  0
 24  6  1  0
 14  9  1  0
 24 16  1  0
 23 18  1  0
M  CHG  1  17   1
M  END
>  <Compound_ID>  (448) 
C05459213

>  <Active>  (448) 
0.0

>  <Smiles>  (448) 
Clc1ccc([C@H]2C[C@H](c3ccccc3)Nc3[nH+]c4ccccc4n32)cc1

>  <canonical_smi>  (448) 
Clc1ccc([C@H]2C[C@H](c3ccccc3)Nc3[nH+]c4ccccc4n32)cc1

>  <Set>  (448) 
G2 inactive

>  <Set_type>  (448) 
Train

>  <MW>  (448) 
360.87

>  <HBD>  (448) 
1

>  <HBA>  (448) 
1

>  <NRB>  (448) 
2

>  <NR>  (448) 
5

>  <NAR>  (448) 
4

>  <PSA>  (448) 
31.1

>  <Standard Type>  (448) 
nan

>  <Standard Relation>  (448) 
nan

>  <Standard Units>  (448) 
nan

>  <Standard Value>  (448) 
nan

>  <Assay ChEMBL ID>  (448) 
nan

>  <Assay Description>  (448) 
nan

>  <BAO Label>  (448) 
nan

$$$$

     RDKit          2D

 24 26  0  0  0  0  0  0  0  0999 V2000
    5.1962   -5.1073    0.0000 C   0  0  0  0  0  0  0  0  0  0  0  0
    3.8971   -5.8573    0.0000 C   0  0  0  0  0  0  0  0  0  0  0  0
    3.8971   -7.3573    0.0000 C   0  0  0  0  0  0  0  0  0  0  0  0
    2.5981   -8.1073    0.0000 C   0  0  0  0  0  0  0  0  0  0  0  0
    1.2990   -7.3573    0.0000 C   0  0  0  0  0  0  0  0  0  0  0  0
    1.2990   -5.8573    0.0000 C   0  0  0  0  0  0  0  0  0  0  0  0
   -0.0000   -5.1073    0.0000 C   0  0  0  0  0  0  0  0  0  0  0  0
   -1.2990   -5.8573    0.0000 O   0  0  0  0  0  0  0  0  0  0  0  0
   -0.0000   -3.6073    0.0000 N   0  0  0  0  0  0  0  0  0  0  0  0
    1.2135   -2.7256    0.0000 N   0  0  0  0  0  0  0  0  0  0  0  0
    0.7500   -1.2990    0.0000 C   0  0  0  0  0  0  0  0  0  0  0  0
    1.5000    0.0000    0.0000 C   0  0  0  0  0  0  0  0  0  0  0  0
    0.7500    1.2990    0.0000 C   0  0  0  0  0  0  0  0  0  0  0  0
   -0.7500    1.2990    0.0000 C   0  0  0  0  0  0  0  0  0  0  0  0
   -1.5000    0.0000    0.0000 C   0  0  0  0  0  0  0  0  0  0  0  0
   -0.7500   -1.2990    0.0000 C   0  0  0  0  0  0  0  0  0  0  0  0
   -1.2135   -2.7256    0.0000 C   0  0  0  0  0  0  0  0  0  0  0  0
   -1.9635   -4.0247    0.0000 O   0  0  0  0  0  0  0  0  0  0  0  0
   -2.5838   -2.1155    0.0000 C   0  0  0  0  0  0  0  0  0  0  0  0
   -3.9542   -1.5054    0.0000 F   0  0  0  0  0  0  0  0  0  0  0  0
   -3.1939   -3.4858    0.0000 F   0  0  0  0  0  0  0  0  0  0  0  0
   -1.9737   -0.7452    0.0000 F   0  0  0  0  0  0  0  0  0  0  0  0
    2.5981   -5.1073    0.0000 C   0  0  0  0  0  0  0  0  0  0  0  0
    2.5981   -3.6073    0.0000 O   0  0  0  0  0  0  0  0  0  0  0  0
  1  2  1  0
  2  3  2  0
  3  4  1  0
  4  5  2  0
  5  6  1  0
  6  7  1  0
  7  8  2  0
  7  9  1  0
  9 10  1  0
 10 11  2  0
 11 12  1  0
 12 13  1  0
 13 14  1  0
 14 15  1  0
 16 15  1  1
 16 17  1  0
 17 18  1  1
 17 19  1  0
 19 20  1  0
 19 21  1  0
 19 22  1  0
  6 23  2  0
 23 24  1  0
 23  2  1  0
 17  9  1  0
 16 11  1  0
M  END
>  <Compound_ID>  (449) 
C00352141

>  <Active>  (449) 
0.0

>  <Smiles>  (449) 
Cc1cccc(C(=O)N2N=C3CCCC[C@@H]3[C@@]2(O)C(F)(F)F)c1O

>  <canonical_smi>  (449) 
Cc1cccc(C(=O)N2N=C3CCCC[C@@H]3[C@@]2(O)C(F)(F)F)c1O

>  <Set>  (449) 
G2 inactive

>  <Set_type>  (449) 
Train

>  <MW>  (449) 
342.32

>  <HBD>  (449) 
2

>  <HBA>  (449) 
3

>  <NRB>  (449) 
1

>  <NR>  (449) 
3

>  <NAR>  (449) 
1

>  <PSA>  (449) 
73.13

>  <Standard Type>  (449) 
nan

>  <Standard Relation>  (449) 
nan

>  <Standard Units>  (449) 
nan

>  <Standard Value>  (449) 
nan

>  <Assay ChEMBL ID>  (449) 
nan

>  <Assay Description>  (449) 
nan

>  <BAO Label>  (449) 
nan

$$$$

     RDKit          2D

 21 23  0  0  0  0  0  0  0  0999 V2000
    3.0000    0.0000    0.0000 C   0  0  0  0  0  0  0  0  0  0  0  0
    1.5000    0.0000    0.0000 C   0  0  0  0  0  0  0  0  0  0  0  0
    0.7500   -1.2990    0.0000 C   0  0  0  0  0  0  0  0  0  0  0  0
   -0.7500   -1.2990    0.0000 C   0  0  0  0  0  0  0  0  0  0  0  0
   -1.5000    0.0000    0.0000 C   0  0  0  0  0  0  0  0  0  0  0  0
   -0.7500    1.2990    0.0000 C   0  0  0  0  0  0  0  0  0  0  0  0
    0.7500    1.2990    0.0000 C   0  0  0  0  0  0  0  0  0  0  0  0
    1.5000    2.5981    0.0000 C   0  0  0  0  0  0  0  0  0  0  0  0
    0.7500    3.8971    0.0000 N   0  0  0  0  0  0  0  0  0  0  0  0
   -0.7418    4.0539    0.0000 N   0  0  0  0  0  0  0  0  0  0  0  0
   -1.0537    5.5211    0.0000 N   0  0  0  0  0  0  0  0  0  0  0  0
    0.2454    6.2711    0.0000 N   0  0  0  0  0  0  0  0  0  0  0  0
    1.3601    5.2674    0.0000 C   0  0  0  0  0  0  0  0  0  0  0  0
    2.8273    5.5793    0.0000 C   0  0  0  0  0  0  0  0  0  0  0  0
    3.8310    4.4646    0.0000 C   0  0  0  0  0  0  0  0  0  0  0  0
    5.2982    4.7765    0.0000 C   0  0  0  0  0  0  0  0  0  0  0  0
    6.3019    3.6617    0.0000 N   0  0  0  0  0  0  0  0  0  0  0  0
    5.7618    6.2030    0.0000 C   0  0  0  0  0  0  0  0  0  0  0  0
    4.7581    7.3178    0.0000 C   0  0  0  0  0  0  0  0  0  0  0  0
    3.2909    7.0059    0.0000 C   0  0  0  0  0  0  0  0  0  0  0  0
    2.2872    8.1206    0.0000 Br  0  0  0  0  0  0  0  0  0  0  0  0
  2  1  1  6
  2  3  1  0
  3  4  1  0
  4  5  1  0
  5  6  1  0
  6  7  1  0
  7  8  1  6
  8  9  1  0
  9 10  1  0
 10 11  2  0
 11 12  1  0
 12 13  2  0
 13 14  1  0
 14 15  2  0
 15 16  1  0
 16 17  1  0
 16 18  2  0
 18 19  1  0
 19 20  2  0
 20 21  1  0
  7  2  1  0
 13  9  1  0
 20 14  1  0
M  END
>  <Compound_ID>  (450) 
C45626427

>  <Active>  (450) 
0.0

>  <Smiles>  (450) 
C[C@@H]1CCCC[C@@H]1Cn1nnnc1-c1cc(N)ccc1Br

>  <canonical_smi>  (450) 
C[C@@H]1CCCC[C@@H]1Cn1nnnc1-c1cc(N)ccc1Br

>  <Set>  (450) 
G2 inactive

>  <Set_type>  (450) 
Train

>  <MW>  (450) 
350.26

>  <HBD>  (450) 
1

>  <HBA>  (450) 
4

>  <NRB>  (450) 
3

>  <NR>  (450) 
3

>  <NAR>  (450) 
2

>  <PSA>  (450) 
69.62

>  <Standard Type>  (450) 
nan

>  <Standard Relation>  (450) 
nan

>  <Standard Units>  (450) 
nan

>  <Standard Value>  (450) 
nan

>  <Assay ChEMBL ID>  (450) 
nan

>  <Assay Description>  (450) 
nan

>  <BAO Label>  (450) 
nan

$$$$

     RDKit          2D

 21 22  0  0  0  0  0  0  0  0999 V2000
    3.0000    0.0000    0.0000 C   0  0  0  0  0  0  0  0  0  0  0  0
    1.5000    0.0000    0.0000 C   0  0  0  0  0  0  0  0  0  0  0  0
    0.7500   -1.2990    0.0000 N   0  0  0  0  0  0  0  0  0  0  0  0
   -0.7500   -1.2990    0.0000 N   0  0  0  0  0  0  0  0  0  0  0  0
   -1.5000    0.0000    0.0000 C   0  0  0  0  0  0  0  0  0  0  0  0
   -3.0000    0.0000    0.0000 O   0  0  0  0  0  0  0  0  0  0  0  0
   -3.7500   -1.2990    0.0000 C   0  0  0  0  0  0  0  0  0  0  0  0
   -5.2500   -1.2990    0.0000 C   0  0  0  0  0  0  0  0  0  0  0  0
   -6.0000   -2.5981    0.0000 C   0  0  0  0  0  0  0  0  0  0  0  0
   -7.5000   -2.5981    0.0000 C   0  0  0  0  0  0  0  0  0  0  0  0
   -5.2500   -3.8971    0.0000 C   0  0  0  0  0  0  0  0  0  0  0  0
   -3.7500   -3.8971    0.0000 C   0  0  0  0  0  0  0  0  0  0  0  0
   -2.3405   -4.4101    0.0000 C   0  0  0  0  0  0  0  0  0  0  0  0
   -4.0105   -5.3743    0.0000 C   0  0  0  0  0  0  0  0  0  0  0  0
   -3.0000   -2.5981    0.0000 C   0  0  0  0  0  0  0  0  0  0  0  0
   -0.7500    1.2990    0.0000 C   0  0  0  0  0  0  0  0  0  0  0  0
   -1.5000    2.5981    0.0000 C   0  0  0  0  0  0  0  0  0  0  0  0
   -3.0000    2.5981    0.0000 N   0  0  0  0  0  0  0  0  0  0  0  0
   -0.7500    3.8971    0.0000 S   0  0  0  0  0  0  0  0  0  0  0  0
    0.7500    1.2990    0.0000 C   0  0  0  0  0  0  0  0  0  0  0  0
    1.5000    2.5981    0.0000 C   0  0  0  0  0  0  0  0  0  0  0  0
  1  2  1  0
  2  3  2  0
  3  4  1  0
  4  5  2  0
  5  6  1  0
  7  6  1  6
  7  8  1  0
  8  9  1  0
  9 10  1  6
  9 11  1  0
 11 12  1  0
 12 13  1  0
 12 14  1  0
 12 15  1  0
  5 16  1  0
 16 17  1  0
 17 18  1  0
 17 19  2  0
 16 20  2  0
 20 21  1  0
 20  2  1  0
 15  7  1  0
M  END
>  <Compound_ID>  (451) 
C40291437

>  <Active>  (451) 
0.0

>  <Smiles>  (451) 
Cc1nnc(O[C@H]2C[C@@H](C)CC(C)(C)C2)c(C(N)=S)c1C

>  <canonical_smi>  (451) 
Cc1nnc(O[C@H]2C[C@@H](C)CC(C)(C)C2)c(C(N)=S)c1C

>  <Set>  (451) 
G2 inactive

>  <Set_type>  (451) 
Train

>  <MW>  (451) 
307.46

>  <HBD>  (451) 
1

>  <HBA>  (451) 
5

>  <NRB>  (451) 
3

>  <NR>  (451) 
2

>  <NAR>  (451) 
1

>  <PSA>  (451) 
61.03

>  <Standard Type>  (451) 
nan

>  <Standard Relation>  (451) 
nan

>  <Standard Units>  (451) 
nan

>  <Standard Value>  (451) 
nan

>  <Assay ChEMBL ID>  (451) 
nan

>  <Assay Description>  (451) 
nan

>  <BAO Label>  (451) 
nan

$$$$

     RDKit          2D

 35 38  0  0  0  0  0  0  0  0999 V2000
   -3.4176    6.0727    0.0000 C   0  0  0  0  0  0  0  0  0  0  0  0
   -2.3028    5.0690    0.0000 O   0  0  0  0  0  0  0  0  0  0  0  0
   -2.6147    3.6018    0.0000 C   0  0  0  0  0  0  0  0  0  0  0  0
   -4.0872    3.3156    0.0000 O   0  0  0  0  0  0  0  0  0  0  0  0
   -1.5000    2.5981    0.0000 C   0  0  0  0  0  0  0  0  0  0  0  0
   -1.0365    4.0247    0.0000 C   0  0  0  0  0  0  0  0  0  0  0  0
    0.3901    4.4882    0.0000 O   0  0  0  0  0  0  0  0  0  0  0  0
   -2.2500    4.9063    0.0000 C   0  0  0  0  0  0  0  0  0  0  0  0
   -2.2500    6.4063    0.0000 C   0  0  0  0  0  0  0  0  0  0  0  0
   -3.4635    4.0247    0.0000 C   0  0  0  0  0  0  0  0  0  0  0  0
   -4.8901    4.4882    0.0000 O   0  0  0  0  0  0  0  0  0  0  0  0
   -3.0000    2.5981    0.0000 C   0  0  0  0  0  0  0  0  0  0  0  0
   -4.4998    2.5719    0.0000 C   0  0  0  0  0  0  0  0  0  0  0  0
   -3.7500    1.2990    0.0000 C   0  0  0  0  0  0  0  0  0  0  0  0
   -5.2500    1.2990    0.0000 C   0  0  0  0  0  0  0  0  0  0  0  0
   -3.0000    0.0000    0.0000 C   0  0  0  0  0  0  0  0  0  0  0  0
   -1.5000    0.0000    0.0000 C   0  0  0  0  0  0  0  0  0  0  0  0
   -0.7500   -1.2990    0.0000 C   0  0  0  0  0  0  0  0  0  0  0  0
   -2.2500   -1.2990    0.0000 C   0  0  0  0  0  0  0  0  0  0  0  0
   -3.0000   -2.5981    0.0000 O   0  0  0  0  0  0  0  0  0  0  0  0
   -1.5000   -2.5981    0.0000 C   0  0  0  0  0  0  0  0  0  0  0  0
   -0.7500   -3.8971    0.0000 C   0  0  0  0  0  0  0  0  0  0  0  0
    0.7500   -3.8971    0.0000 C   0  0  0  0  0  0  0  0  0  0  0  0
    1.5000   -5.1962    0.0000 O   0  0  0  0  0  0  0  0  0  0  0  0
    0.7500   -6.4952    0.0000 C   0  0  0  0  0  0  0  0  0  0  0  0
    1.5000   -7.7942    0.0000 C   0  0  0  0  0  0  0  0  0  0  0  0
   -0.7500   -6.4952    0.0000 O   0  0  0  0  0  0  0  0  0  0  0  0
    1.5000   -2.5981    0.0000 C   0  0  0  0  0  0  0  0  0  0  0  0
    2.6491   -1.6339    0.0000 C   0  0  0  0  0  0  0  0  0  0  0  0
    2.6491   -3.5623    0.0000 C   0  0  0  0  0  0  0  0  0  0  0  0
    0.7500   -1.2990    0.0000 C   0  0  0  0  0  0  0  0  0  0  0  0
    1.5000    0.0000    0.0000 C   0  0  0  0  0  0  0  0  0  0  0  0
    0.7500    1.2990    0.0000 C   0  0  0  0  0  0  0  0  0  0  0  0
   -0.7500    1.2990    0.0000 C   0  0  0  0  0  0  0  0  0  0  0  0
    0.0000    2.5981    0.0000 C   0  0  0  0  0  0  0  0  0  0  0  0
  1  2  1  0
  2  3  1  0
  3  4  2  0
  5  3  1  6
  5  6  1  0
  6  7  2  0
  6  8  1  0
  8  9  1  1
  8 10  1  0
 10 11  2  0
 10 12  1  0
 12 13  1  6
 12 14  1  0
 14 15  1  0
 14 16  2  0
 17 16  1  6
 17 18  1  0
 18 19  1  6
 19 20  1  0
 18 21  1  0
 21 22  1  0
 22 23  1  0
 23 24  1  1
 24 25  1  0
 25 26  1  0
 25 27  2  0
 23 28  1  0
 28 29  1  0
 28 30  1  0
 28 31  1  0
 31 32  1  6
 32 33  1  0
 33 34  1  0
 34 35  1  6
 12  5  1  0
 34 17  1  0
 34  5  1  0
 31 18  1  0
M  END
>  <Compound_ID>  (452) 
C34527611

>  <Active>  (452) 
0.0

>  <Smiles>  (452) 
COC(=O)[C@@]12C(=O)[C@H](C)C(=O)[C@]1(C)C(C)=C[C@H]1[C@]3(CO)CC[C@H](OC(C)=O)C(C)(C)[C@H]3CC[C@@]12C

>  <canonical_smi>  (452) 
COC(=O)[C@@]12C(=O)[C@H](C)C(=O)[C@]1(C)C(C)=C[C@H]1[C@]3(CO)CC[C@H](OC(C)=O)C(C)(C)[C@H]3CC[C@@]12C

>  <Set>  (452) 
G2 inactive

>  <Set_type>  (452) 
Train

>  <MW>  (452) 
488.62

>  <HBD>  (452) 
1

>  <HBA>  (452) 
7

>  <NRB>  (452) 
3

>  <NR>  (452) 
4

>  <NAR>  (452) 
0

>  <PSA>  (452) 
106.97

>  <Standard Type>  (452) 
nan

>  <Standard Relation>  (452) 
nan

>  <Standard Units>  (452) 
nan

>  <Standard Value>  (452) 
nan

>  <Assay ChEMBL ID>  (452) 
nan

>  <Assay Description>  (452) 
nan

>  <BAO Label>  (452) 
nan

$$$$

     RDKit          2D

 35 40  0  0  0  0  0  0  0  0999 V2000
   -3.4430   -0.7182    0.0000 C   0  0  0  0  0  0  0  0  0  0  0  0
   -3.7548   -2.1855    0.0000 C   0  0  0  0  0  0  0  0  0  0  0  0
   -5.1814   -2.6490    0.0000 C   0  0  0  0  0  0  0  0  0  0  0  0
   -2.6401   -3.1891    0.0000 C   0  0  0  0  0  0  0  0  0  0  0  0
   -1.2135   -2.7256    0.0000 N   0  0  0  0  0  0  0  0  0  0  0  0
   -0.0000   -3.6073    0.0000 C   0  0  0  0  0  0  0  0  0  0  0  0
   -0.0000   -5.1073    0.0000 O   0  0  0  0  0  0  0  0  0  0  0  0
    1.2135   -2.7256    0.0000 C   0  0  0  0  0  0  0  0  0  0  0  0
    2.4271   -1.8439    0.0000 N   0  0  0  0  0  0  0  0  0  0  0  0
    3.6406   -2.7256    0.0000 C   0  0  0  0  0  0  0  0  0  0  0  0
    5.0672   -2.2621    0.0000 C   0  0  0  0  0  0  0  0  0  0  0  0
    6.1819   -3.2658    0.0000 C   0  0  0  0  0  0  0  0  0  0  0  0
    5.8700   -4.7330    0.0000 C   0  0  0  0  0  0  0  0  0  0  0  0
    6.9847   -5.7367    0.0000 C   0  0  0  0  0  0  0  0  0  0  0  0
    8.4113   -5.2732    0.0000 C   0  0  0  0  0  0  0  0  0  0  0  0
    8.7232   -3.8060    0.0000 C   0  0  0  0  0  0  0  0  0  0  0  0
    7.6085   -2.8023    0.0000 C   0  0  0  0  0  0  0  0  0  0  0  0
    3.1771   -4.1522    0.0000 C   0  0  0  0  0  0  0  0  0  0  0  0
    3.6406   -5.5788    0.0000 C   0  0  0  0  0  0  0  0  0  0  0  0
    5.0672   -6.0423    0.0000 O   0  0  0  0  0  0  0  0  0  0  0  0
    2.4271   -6.4605    0.0000 N   0  0  0  0  0  0  0  0  0  0  0  0
    2.4271   -7.9605    0.0000 C   0  0  0  0  0  0  0  0  0  0  0  0
    3.6406   -8.8421    0.0000 N   0  0  0  0  0  0  0  0  0  0  0  0
    3.1771  -10.2687    0.0000 C   0  0  0  0  0  0  0  0  0  0  0  0
    1.6771  -10.2687    0.0000 C   0  0  0  0  0  0  0  0  0  0  0  0
    1.2135   -8.8421    0.0000 S   0  0  0  0  0  0  0  0  0  0  0  0
    1.2135   -5.5788    0.0000 C   0  0  0  0  0  0  0  0  0  0  0  0
   -0.2131   -6.0423    0.0000 O   0  0  0  0  0  0  0  0  0  0  0  0
    1.6771   -4.1522    0.0000 C   0  0  0  0  0  0  0  0  0  0  0  0
    0.7500   -1.2990    0.0000 C   0  0  0  0  0  0  0  0  0  0  0  0
    1.5000    0.0000    0.0000 C   0  0  0  0  0  0  0  0  0  0  0  0
    0.7500    1.2990    0.0000 C   0  0  0  0  0  0  0  0  0  0  0  0
   -0.7500    1.2990    0.0000 C   0  0  0  0  0  0  0  0  0  0  0  0
   -1.5000    0.0000    0.0000 C   0  0  0  0  0  0  0  0  0  0  0  0
   -0.7500   -1.2990    0.0000 C   0  0  0  0  0  0  0  0  0  0  0  0
  1  2  2  0
  2  3  1  0
  2  4  1  0
  4  5  1  0
  5  6  1  0
  6  7  2  0
  6  8  1  0
  8  9  1  6
  9 10  1  0
 10 11  1  1
 11 12  1  0
 12 13  2  0
 13 14  1  0
 14 15  2  0
 15 16  1  0
 16 17  2  0
 10 18  1  0
 18 19  1  1
 19 20  2  0
 19 21  1  0
 21 22  1  0
 22 23  2  0
 23 24  1  0
 24 25  2  0
 25 26  1  0
 21 27  1  0
 27 28  2  0
 29 27  1  1
  8 30  1  0
 30 31  2  0
 31 32  1  0
 32 33  2  0
 33 34  1  0
 34 35  2  0
 35  5  1  0
 29  8  1  0
 35 30  1  0
 17 12  1  0
 29 18  1  0
 26 22  1  0
M  END
>  <Compound_ID>  (453) 
C59256179

>  <Active>  (453) 
0.0

>  <Smiles>  (453) 
C=C(C)CN1C(=O)[C@@]2(N[C@@H](Cc3ccccc3)[C@H]3C(=O)N(c4nccs4)C(=O)[C@H]32)c2ccccc21

>  <canonical_smi>  (453) 
C=C(C)CN1C(=O)[C@@]2(N[C@@H](Cc3ccccc3)[C@H]3C(=O)N(c4nccs4)C(=O)[C@H]32)c2ccccc21

>  <Set>  (453) 
G2 inactive

>  <Set_type>  (453) 
Train

>  <MW>  (453) 
484.58

>  <HBD>  (453) 
1

>  <HBA>  (453) 
5

>  <NRB>  (453) 
5

>  <NR>  (453) 
6

>  <NAR>  (453) 
3

>  <PSA>  (453) 
82.61

>  <Standard Type>  (453) 
nan

>  <Standard Relation>  (453) 
nan

>  <Standard Units>  (453) 
nan

>  <Standard Value>  (453) 
nan

>  <Assay ChEMBL ID>  (453) 
nan

>  <Assay Description>  (453) 
nan

>  <BAO Label>  (453) 
nan

$$$$

     RDKit          2D

 32 34  0  0  0  0  0  0  0  0999 V2000
   -3.6375   -5.2496    0.0000 C   0  0  0  0  0  0  0  0  0  0  0  0
   -2.4240   -6.1312    0.0000 C   0  0  0  0  0  0  0  0  0  0  0  0
   -2.5808   -7.6230    0.0000 O   0  0  0  0  0  0  0  0  0  0  0  0
   -1.0537   -5.5211    0.0000 C   0  0  0  0  0  0  0  0  0  0  0  0
    0.2454   -6.2711    0.0000 C   0  0  0  0  0  0  0  0  0  0  0  0
    0.4022   -7.7629    0.0000 C   0  0  0  0  0  0  0  0  0  0  0  0
    1.3601   -5.2674    0.0000 N   0  0  0  0  0  0  0  0  0  0  0  0
    0.7500   -3.8971    0.0000 C   0  0  0  0  0  0  0  0  0  0  0  0
    1.5000   -2.5981    0.0000 C   0  0  0  0  0  0  0  0  0  0  0  0
    3.0000   -2.5981    0.0000 O   0  0  0  0  0  0  0  0  0  0  0  0
    0.7500   -1.2990    0.0000 N   0  0  0  0  0  0  0  0  0  0  0  0
    1.5000    0.0000    0.0000 C   0  0  0  0  0  0  0  0  0  0  0  0
    0.7500    1.2990    0.0000 C   0  0  0  0  0  0  0  0  0  0  0  0
   -0.7500    1.2990    0.0000 N   0  0  0  0  0  0  0  0  0  0  0  0
   -1.5000    2.5981    0.0000 S   0  0  0  0  0  0  0  0  0  0  0  0
   -2.7990    1.8481    0.0000 O   0  0  0  0  0  0  0  0  0  0  0  0
   -0.2010    3.3481    0.0000 O   0  0  0  0  0  0  0  0  0  0  0  0
   -2.2500    3.8971    0.0000 C   0  0  0  0  0  0  0  0  0  0  0  0
   -1.5000    5.1962    0.0000 C   0  0  0  0  0  0  0  0  0  0  0  0
    0.0000    5.1962    0.0000 C   0  0  0  0  0  0  0  0  0  0  0  0
   -2.2500    6.4952    0.0000 C   0  0  0  0  0  0  0  0  0  0  0  0
   -1.5000    7.7942    0.0000 C   0  0  0  0  0  0  0  0  0  0  0  0
   -3.7500    6.4952    0.0000 C   0  0  0  0  0  0  0  0  0  0  0  0
   -4.5000    7.7942    0.0000 C   0  0  0  0  0  0  0  0  0  0  0  0
   -4.5000    5.1962    0.0000 C   0  0  0  0  0  0  0  0  0  0  0  0
   -6.0000    5.1962    0.0000 C   0  0  0  0  0  0  0  0  0  0  0  0
   -3.7500    3.8971    0.0000 C   0  0  0  0  0  0  0  0  0  0  0  0
   -4.5000    2.5981    0.0000 C   0  0  0  0  0  0  0  0  0  0  0  0
   -1.5000    0.0000    0.0000 C   0  0  0  0  0  0  0  0  0  0  0  0
   -0.7500   -1.2990    0.0000 C   0  0  0  0  0  0  0  0  0  0  0  0
   -0.7418   -4.0539    0.0000 C   0  0  0  0  0  0  0  0  0  0  0  0
   -1.7455   -2.9392    0.0000 C   0  0  0  0  0  0  0  0  0  0  0  0
  1  2  1  0
  2  3  2  0
  2  4  1  0
  4  5  2  0
  5  6  1  0
  5  7  1  0
  7  8  1  0
  8  9  1  0
  9 10  2  0
  9 11  1  0
 11 12  1  0
 12 13  1  0
 13 14  1  0
 14 15  1  0
 15 16  2  0
 15 17  2  0
 15 18  1  0
 18 19  2  0
 19 20  1  0
 19 21  1  0
 21 22  1  0
 21 23  2  0
 23 24  1  0
 23 25  1  0
 25 26  1  0
 25 27  2  0
 27 28  1  0
 14 29  1  0
 29 30  1  0
  8 31  2  0
 31 32  1  0
 31  4  1  0
 30 11  1  0
 27 18  1  0
M  END
>  <Compound_ID>  (454) 
C23721830

>  <Active>  (454) 
0.0

>  <Smiles>  (454) 
CC(=O)c1c(C)[nH]c(C(=O)N2CCN(S(=O)(=O)c3c(C)c(C)c(C)c(C)c3C)CC2)c1C

>  <canonical_smi>  (454) 
CC(=O)c1c(C)[nH]c(C(=O)N2CCN(S(=O)(=O)c3c(C)c(C)c(C)c(C)c3C)CC2)c1C

>  <Set>  (454) 
G2 inactive

>  <Set_type>  (454) 
Train

>  <MW>  (454) 
459.61

>  <HBD>  (454) 
1

>  <HBA>  (454) 
4

>  <NRB>  (454) 
4

>  <NR>  (454) 
3

>  <NAR>  (454) 
2

>  <PSA>  (454) 
90.55

>  <Standard Type>  (454) 
nan

>  <Standard Relation>  (454) 
nan

>  <Standard Units>  (454) 
nan

>  <Standard Value>  (454) 
nan

>  <Assay ChEMBL ID>  (454) 
nan

>  <Assay Description>  (454) 
nan

>  <BAO Label>  (454) 
nan

$$$$

     RDKit          2D

 34 38  0  0  0  0  0  0  0  0999 V2000
   -5.6682   -6.5372    0.0000 C   0  0  0  0  0  0  0  0  0  0  0  0
   -6.1317   -5.1106    0.0000 C   0  0  0  0  0  0  0  0  0  0  0  0
   -5.2500   -3.8971    0.0000 C   0  0  0  0  0  0  0  0  0  0  0  0
   -3.7500   -3.8971    0.0000 N   0  0  0  0  0  0  0  0  0  0  0  0
   -3.0000   -2.5981    0.0000 C   0  0  0  0  0  0  0  0  0  0  0  0
   -1.5000   -2.5981    0.0000 C   0  0  0  0  0  0  0  0  0  0  0  0
   -0.7500   -3.8971    0.0000 C   0  0  0  0  0  0  0  0  0  0  0  0
   -1.5000   -5.1962    0.0000 O   0  0  0  0  0  0  0  0  0  0  0  0
    0.7500   -3.8971    0.0000 N   0  0  0  0  0  0  0  0  0  0  0  0
    1.5000   -5.1962    0.0000 C   0  0  0  0  0  0  0  0  0  0  0  0
    0.7500   -6.4952    0.0000 C   0  0  0  0  0  0  0  0  0  0  0  0
    1.5000   -7.7942    0.0000 C   0  0  0  0  0  0  0  0  0  0  0  0
    3.0000   -7.7942    0.0000 C   0  0  0  0  0  0  0  0  0  0  0  0
    3.7500   -6.4952    0.0000 C   0  0  0  0  0  0  0  0  0  0  0  0
    3.0000   -5.1962    0.0000 C   0  0  0  0  0  0  0  0  0  0  0  0
    1.5000   -2.5981    0.0000 C   0  0  0  0  0  0  0  0  0  0  0  0
    3.0000   -2.5981    0.0000 O   0  0  0  0  0  0  0  0  0  0  0  0
    0.7500   -1.2990    0.0000 C   0  0  0  0  0  0  0  0  0  0  0  0
    1.5000    0.0000    0.0000 C   0  0  0  0  0  0  0  0  0  0  0  0
    0.7500    1.2990    0.0000 C   0  0  0  0  0  0  0  0  0  0  0  0
   -0.7500    1.2990    0.0000 C   0  0  0  0  0  0  0  0  0  0  0  0
   -1.5000    0.0000    0.0000 C   0  0  0  0  0  0  0  0  0  0  0  0
   -0.7500   -1.2990    0.0000 C   0  0  0  0  0  0  0  0  0  0  0  0
   -6.1317   -2.6836    0.0000 C   0  0  0  0  0  0  0  0  0  0  0  0
   -5.6682   -1.2570    0.0000 O   0  0  0  0  0  0  0  0  0  0  0  0
   -7.5583   -3.1471    0.0000 N   0  0  0  0  0  0  0  0  0  0  0  0
   -8.7718   -2.2654    0.0000 C   0  0  0  0  0  0  0  0  0  0  0  0
   -8.6150   -0.7737    0.0000 C   0  0  0  0  0  0  0  0  0  0  0  0
   -9.8285    0.1080    0.0000 C   0  0  0  0  0  0  0  0  0  0  0  0
  -11.1988   -0.5021    0.0000 C   0  0  0  0  0  0  0  0  0  0  0  0
  -11.3556   -1.9939    0.0000 C   0  0  0  0  0  0  0  0  0  0  0  0
  -10.1421   -2.8755    0.0000 C   0  0  0  0  0  0  0  0  0  0  0  0
   -7.5583   -4.6471    0.0000 N   0  0  0  0  0  0  0  0  0  0  0  0
   -8.7718   -5.5288    0.0000 C   0  0  0  0  0  0  0  0  0  0  0  0
  1  2  1  0
  2  3  2  0
  3  4  1  0
  4  5  1  0
  5  6  2  0
  6  7  1  0
  7  8  2  0
  7  9  1  0
  9 10  1  0
 10 11  2  0
 11 12  1  0
 12 13  2  0
 13 14  1  0
 14 15  2  0
  9 16  1  0
 16 17  2  0
 16 18  1  0
 18 19  2  0
 19 20  1  0
 20 21  2  0
 21 22  1  0
 22 23  2  0
  3 24  1  0
 24 25  2  0
 24 26  1  0
 26 27  1  0
 27 28  2  0
 28 29  1  0
 29 30  2  0
 30 31  1  0
 31 32  2  0
 26 33  1  0
 33 34  1  0
 33  2  1  0
 23  6  1  0
 32 27  1  0
 15 10  1  0
 23 18  1  0
M  END
>  <Compound_ID>  (455) 
C13816063

>  <Active>  (455) 
0.0

>  <Smiles>  (455) 
Cc1c(N/C=C2\C(=O)N(c3ccccc3)C(=O)c3ccccc32)c(=O)n(-c2ccccc2)n1C

>  <canonical_smi>  (455) 
Cc1c(N/C=C2\C(=O)N(c3ccccc3)C(=O)c3ccccc32)c(=O)n(-c2ccccc2)n1C

>  <Set>  (455) 
G2 inactive

>  <Set_type>  (455) 
Train

>  <MW>  (455) 
450.5

>  <HBD>  (455) 
1

>  <HBA>  (455) 
4

>  <NRB>  (455) 
4

>  <NR>  (455) 
5

>  <NAR>  (455) 
4

>  <PSA>  (455) 
76.34

>  <Standard Type>  (455) 
nan

>  <Standard Relation>  (455) 
nan

>  <Standard Units>  (455) 
nan

>  <Standard Value>  (455) 
nan

>  <Assay ChEMBL ID>  (455) 
nan

>  <Assay Description>  (455) 
nan

>  <BAO Label>  (455) 
nan

$$$$

     RDKit          2D

 24 27  0  0  0  0  0  0  0  0999 V2000
    4.3865   -3.5206    0.0000 H   0  0  0  0  0  0  0  0  0  0  0  0
    3.1965   -4.4337    0.0000 N   0  0  0  0  0  0  0  0  0  0  0  0
    1.8107   -3.8597    0.0000 C   0  0  0  0  0  0  0  0  0  0  0  0
    1.8107   -2.3597    0.0000 N   0  0  0  0  0  0  0  0  0  0  0  0
    0.7500   -1.2990    0.0000 C   0  0  0  0  0  0  0  0  0  0  0  0
    1.5000    0.0000    0.0000 C   0  0  0  0  0  0  0  0  0  0  0  0
    0.7500    1.2990    0.0000 C   0  0  0  0  0  0  0  0  0  0  0  0
   -0.7500    1.2990    0.0000 C   0  0  0  0  0  0  0  0  0  0  0  0
   -1.5000    0.0000    0.0000 C   0  0  0  0  0  0  0  0  0  0  0  0
   -0.7500   -1.2990    0.0000 C   0  0  0  0  0  0  0  0  0  0  0  0
   -1.8107   -2.3597    0.0000 S   0  0  0  0  0  0  0  0  0  0  0  0
   -1.8107   -3.8597    0.0000 C   0  0  0  0  0  0  0  0  0  0  0  0
   -3.2595   -4.2479    0.0000 N   0  0  0  0  0  0  0  0  0  0  0  0
   -3.6478   -5.6968    0.0000 C   0  0  0  0  0  0  0  0  0  0  0  0
   -5.0967   -6.0850    0.0000 C   0  0  0  0  0  0  0  0  0  0  0  0
   -5.4849   -7.5339    0.0000 C   0  0  0  0  0  0  0  0  0  0  0  0
   -4.4242   -8.5946    0.0000 C   0  0  0  0  0  0  0  0  0  0  0  0
   -2.9753   -8.2064    0.0000 C   0  0  0  0  0  0  0  0  0  0  0  0
   -2.5871   -6.7575    0.0000 C   0  0  0  0  0  0  0  0  0  0  0  0
   -1.1382   -6.3692    0.0000 N   0  0  0  0  0  0  0  0  0  0  0  0
   -0.7500   -4.9204    0.0000 C   0  0  0  0  0  0  0  0  0  0  0  0
    0.7500   -4.9204    0.0000 C   0  0  0  0  0  0  0  0  0  0  0  0
    1.3240   -6.3062    0.0000 C   0  0  0  0  0  0  0  0  0  0  0  0
    1.8981   -7.6920    0.0000 N   0  0  0  0  0  0  0  0  0  0  0  0
  1  2  1  0
  2  3  2  0
  3  4  1  0
  4  5  1  0
  5  6  2  0
  6  7  1  0
  7  8  2  0
  8  9  1  0
  9 10  2  0
 10 11  1  0
 11 12  1  0
 12 13  2  0
 13 14  1  0
 14 15  2  0
 15 16  1  0
 16 17  2  0
 17 18  1  0
 18 19  2  0
 19 20  1  0
 20 21  2  0
 21 22  1  0
 22 23  1  1
 23 24  3  0
 22  3  1  0
 10  5  1  0
 21 12  1  0
 19 14  1  0
M  END
>  <Compound_ID>  (456) 
C05731767

>  <Active>  (456) 
0.0

>  <Smiles>  (456) 
[H]/N=C1\Nc2ccccc2Sc2nc3ccccc3nc2[C@@H]1C#N

>  <canonical_smi>  (456) 
[H]/N=C1\Nc2ccccc2Sc2nc3ccccc3nc2[C@@H]1C#N

>  <Set>  (456) 
G2 inactive

>  <Set_type>  (456) 
Train

>  <MW>  (456) 
317.38

>  <HBD>  (456) 
2

>  <HBA>  (456) 
5

>  <NRB>  (456) 
0

>  <NR>  (456) 
4

>  <NAR>  (456) 
3

>  <PSA>  (456) 
85.45

>  <Standard Type>  (456) 
nan

>  <Standard Relation>  (456) 
nan

>  <Standard Units>  (456) 
nan

>  <Standard Value>  (456) 
nan

>  <Assay ChEMBL ID>  (456) 
nan

>  <Assay Description>  (456) 
nan

>  <BAO Label>  (456) 
nan

$$$$

     RDKit          2D

 24 26  0  0  0  0  0  0  0  0999 V2000
    0.3177    5.1814    0.0000 C   0  0  0  0  0  0  0  0  0  0  0  0
    1.7849    5.4933    0.0000 C   0  0  0  0  0  0  0  0  0  0  0  0
    2.2484    6.9199    0.0000 C   0  0  0  0  0  0  0  0  0  0  0  0
    1.2447    8.0346    0.0000 Cl  0  0  0  0  0  0  0  0  0  0  0  0
    3.7156    7.2317    0.0000 C   0  0  0  0  0  0  0  0  0  0  0  0
    4.7193    6.1170    0.0000 C   0  0  0  0  0  0  0  0  0  0  0  0
    4.2558    4.6904    0.0000 C   0  0  0  0  0  0  0  0  0  0  0  0
    2.7886    4.3786    0.0000 C   0  0  0  0  0  0  0  0  0  0  0  0
    2.3250    2.9520    0.0000 N   0  0  0  0  0  0  0  0  0  0  0  0
    0.8578    2.6401    0.0000 C   0  0  0  0  0  0  0  0  0  0  0  0
   -0.1459    3.7548    0.0000 O   0  0  0  0  0  0  0  0  0  0  0  0
    0.3943    1.2135    0.0000 C   0  0  0  0  0  0  0  0  0  0  0  0
    1.2760    0.0000    0.0000 C   0  0  0  0  0  0  0  0  0  0  0  0
    0.3943   -1.2135    0.0000 C   0  0  0  0  0  0  0  0  0  0  0  0
   -1.0323   -0.7500    0.0000 C   0  0  0  0  0  0  0  0  0  0  0  0
   -2.2458   -1.6317    0.0000 C   0  0  0  0  0  0  0  0  0  0  0  0
   -1.9140    0.4635    0.0000 C   0  0  0  0  0  0  0  0  0  0  0  0
   -3.4140    0.4635    0.0000 N   0  0  0  0  0  0  0  0  0  0  0  0
   -4.1640    1.7626    0.0000 O   0  0  0  0  0  0  0  0  0  0  0  0
   -1.0323    1.6771    0.0000 C   0  0  0  0  0  0  0  0  0  0  0  0
   -1.4958    3.1036    0.0000 O   0  0  0  0  0  0  0  0  0  0  0  0
   -1.0323    0.7500    0.0000 C   0  0  0  0  0  0  0  0  0  0  0  0
   -2.5177    0.9588    0.0000 C   0  0  0  0  0  0  0  0  0  0  0  0
   -1.6899    2.0982    0.0000 C   0  0  0  0  0  0  0  0  0  0  0  0
  1  2  1  0
  2  3  2  0
  3  4  1  0
  3  5  1  0
  5  6  2  0
  6  7  1  0
  7  8  2  0
  8  9  1  0
  9 10  1  0
 10 11  2  0
 12 10  1  6
 12 13  1  0
 13 14  1  0
 14 15  1  0
 15 16  1  6
 15 17  1  0
 17 18  2  0
 18 19  1  0
 17 20  1  0
 20 21  2  0
 15 22  1  0
 22 23  1  0
 22 24  1  0
  8  2  1  0
 20 12  1  0
 22 12  1  0
M  END
>  <Compound_ID>  (457) 
C33942194

>  <Active>  (457) 
0.0

>  <Smiles>  (457) 
Cc1c(Cl)cccc1NC(=O)[C@@]12CC[C@@](C)(/C(=N/O)C1=O)C2(C)C

>  <canonical_smi>  (457) 
Cc1c(Cl)cccc1NC(=O)[C@@]12CC[C@@](C)(/C(=N/O)C1=O)C2(C)C

>  <Set>  (457) 
G2 inactive

>  <Set_type>  (457) 
Train

>  <MW>  (457) 
348.83

>  <HBD>  (457) 
2

>  <HBA>  (457) 
3

>  <NRB>  (457) 
2

>  <NR>  (457) 
3

>  <NAR>  (457) 
1

>  <PSA>  (457) 
78.76

>  <Standard Type>  (457) 
nan

>  <Standard Relation>  (457) 
nan

>  <Standard Units>  (457) 
nan

>  <Standard Value>  (457) 
nan

>  <Assay ChEMBL ID>  (457) 
nan

>  <Assay Description>  (457) 
nan

>  <BAO Label>  (457) 
nan

$$$$

     RDKit          2D

 25 28  0  0  0  0  0  0  0  0999 V2000
    3.2909   -7.0059    0.0000 N   0  0  0  0  0  0  0  0  0  0  0  0
    2.8273   -5.5793    0.0000 C   0  0  0  0  0  0  0  0  0  0  0  0
    3.8310   -4.4646    0.0000 O   0  0  0  0  0  0  0  0  0  0  0  0
    1.3601   -5.2674    0.0000 C   0  0  0  0  0  0  0  0  0  0  0  0
    0.2454   -6.2711    0.0000 C   0  0  0  0  0  0  0  0  0  0  0  0
   -1.0537   -5.5211    0.0000 C   0  0  0  0  0  0  0  0  0  0  0  0
   -2.4802   -5.9847    0.0000 C   0  0  0  0  0  0  0  0  0  0  0  0
   -3.5950   -4.9810    0.0000 C   0  0  0  0  0  0  0  0  0  0  0  0
   -3.2831   -3.5137    0.0000 C   0  0  0  0  0  0  0  0  0  0  0  0
   -1.8565   -3.0502    0.0000 C   0  0  0  0  0  0  0  0  0  0  0  0
   -0.7418   -4.0539    0.0000 C   0  0  0  0  0  0  0  0  0  0  0  0
    0.7500   -3.8971    0.0000 N   0  0  0  0  0  0  0  0  0  0  0  0
    1.5000   -2.5981    0.0000 C   0  0  0  0  0  0  0  0  0  0  0  0
    3.0000   -2.5981    0.0000 O   0  0  0  0  0  0  0  0  0  0  0  0
    0.7500   -1.2990    0.0000 C   0  0  0  0  0  0  0  0  0  0  0  0
    1.5000    0.0000    0.0000 C   0  0  0  0  0  0  0  0  0  0  0  0
    0.7500    1.2990    0.0000 C   0  0  0  0  0  0  0  0  0  0  0  0
    1.5000    2.5981    0.0000 C   0  0  0  0  0  0  0  0  0  0  0  0
    0.7500    3.8971    0.0000 C   0  0  0  0  0  0  0  0  0  0  0  0
    1.5000    5.1962    0.0000 Cl  0  0  0  0  0  0  0  0  0  0  0  0
   -0.7500    3.8971    0.0000 C   0  0  0  0  0  0  0  0  0  0  0  0
   -1.5000    2.5981    0.0000 C   0  0  0  0  0  0  0  0  0  0  0  0
   -0.7500    1.2990    0.0000 C   0  0  0  0  0  0  0  0  0  0  0  0
   -1.5000    0.0000    0.0000 O   0  0  0  0  0  0  0  0  0  0  0  0
   -0.7500   -1.2990    0.0000 C   0  0  0  0  0  0  0  0  0  0  0  0
  1  2  1  0
  2  3  2  0
  4  2  1  6
  4  5  1  0
  5  6  1  0
  6  7  2  0
  7  8  1  0
  8  9  2  0
  9 10  1  0
 10 11  2  0
 11 12  1  0
 12 13  1  0
 13 14  2  0
 13 15  1  0
 15 16  2  0
 16 17  1  0
 17 18  2  0
 18 19  1  0
 19 20  1  0
 19 21  2  0
 21 22  1  0
 22 23  2  0
 23 24  1  0
 24 25  1  0
 12  4  1  0
 25 15  1  0
 11  6  1  0
 23 17  1  0
M  END
>  <Compound_ID>  (458) 
C58433026

>  <Active>  (458) 
0.0

>  <Smiles>  (458) 
NC(=O)[C@@H]1Cc2ccccc2N1C(=O)C1=Cc2cc(Cl)ccc2OC1

>  <canonical_smi>  (458) 
NC(=O)[C@@H]1Cc2ccccc2N1C(=O)C1=Cc2cc(Cl)ccc2OC1

>  <Set>  (458) 
G2 inactive

>  <Set_type>  (458) 
Train

>  <MW>  (458) 
354.79

>  <HBD>  (458) 
1

>  <HBA>  (458) 
3

>  <NRB>  (458) 
2

>  <NR>  (458) 
4

>  <NAR>  (458) 
2

>  <PSA>  (458) 
72.63

>  <Standard Type>  (458) 
nan

>  <Standard Relation>  (458) 
nan

>  <Standard Units>  (458) 
nan

>  <Standard Value>  (458) 
nan

>  <Assay ChEMBL ID>  (458) 
nan

>  <Assay Description>  (458) 
nan

>  <BAO Label>  (458) 
nan

$$$$

     RDKit          2D

 34 38  0  0  0  0  0  0  0  0999 V2000
    3.0000    2.5981    0.0000 C   0  0  0  0  0  0  0  0  0  0  0  0
    1.5000    2.5981    0.0000 C   0  0  0  0  0  0  0  0  0  0  0  0
    0.7500    3.8971    0.0000 C   0  0  0  0  0  0  0  0  0  0  0  0
   -0.7500    3.8971    0.0000 C   0  0  0  0  0  0  0  0  0  0  0  0
   -1.5000    2.5981    0.0000 C   0  0  0  0  0  0  0  0  0  0  0  0
   -3.0000    2.5981    0.0000 C   0  0  0  0  0  0  0  0  0  0  0  0
   -3.7500    1.2990    0.0000 C   0  0  0  0  0  0  0  0  0  0  0  0
   -5.2500    1.2990    0.0000 C   0  0  0  0  0  0  0  0  0  0  0  0
   -6.0000    2.5981    0.0000 C   0  0  0  0  0  0  0  0  0  0  0  0
   -7.4918    2.7549    0.0000 N   0  0  0  0  0  0  0  0  0  0  0  0
   -7.8037    4.2221    0.0000 N   0  0  0  0  0  0  0  0  0  0  0  0
   -6.5046    4.9721    0.0000 N   0  0  0  0  0  0  0  0  0  0  0  0
   -5.3899    3.9684    0.0000 N   0  0  0  0  0  0  0  0  0  0  0  0
   -3.9227    4.2803    0.0000 C   0  0  0  0  0  0  0  0  0  0  0  0
   -3.4591    5.7068    0.0000 C   0  0  0  0  0  0  0  0  0  0  0  0
   -1.9919    6.0187    0.0000 C   0  0  0  0  0  0  0  0  0  0  0  0
   -1.5284    7.4453    0.0000 C   0  0  0  0  0  0  0  0  0  0  0  0
   -2.5321    8.5600    0.0000 C   0  0  0  0  0  0  0  0  0  0  0  0
   -2.0686    9.9866    0.0000 F   0  0  0  0  0  0  0  0  0  0  0  0
   -3.9993    8.2481    0.0000 C   0  0  0  0  0  0  0  0  0  0  0  0
   -4.4628    6.8216    0.0000 C   0  0  0  0  0  0  0  0  0  0  0  0
   -6.0000    0.0000    0.0000 N   0  0  0  0  0  4  0  0  0  0  0  0
   -5.1550   -1.2394    0.0000 C   0  0  0  0  0  0  0  0  0  0  0  0
   -5.5972   -2.6727    0.0000 C   0  0  0  0  0  0  0  0  0  0  0  0
   -6.9935   -3.2207    0.0000 C   0  0  0  0  0  0  0  0  0  0  0  0
   -8.2925   -2.4707    0.0000 C   0  0  0  0  0  0  0  0  0  0  0  0
   -8.5161   -0.9875    0.0000 C   0  0  0  0  0  0  0  0  0  0  0  0
   -7.4958    0.1121    0.0000 C   0  0  0  0  0  0  0  0  0  0  0  0
   -3.0000    0.0000    0.0000 C   0  0  0  0  0  0  0  0  0  0  0  0
   -3.7500   -1.2990    0.0000 O   0  0  0  0  0  0  0  0  0  0  0  0
   -1.5000    0.0000    0.0000 N   0  0  0  0  0  0  0  0  0  0  0  0
   -0.7500    1.2990    0.0000 C   0  0  0  0  0  0  0  0  0  0  0  0
    0.7500    1.2990    0.0000 C   0  0  0  0  0  0  0  0  0  0  0  0
    1.5000    0.0000    0.0000 C   0  0  0  0  0  0  0  0  0  0  0  0
  1  2  1  0
  2  3  2  0
  3  4  1  0
  4  5  2  0
  5  6  1  0
  6  7  2  0
  7  8  1  0
  8  9  1  0
  9 10  2  0
 10 11  1  0
 11 12  2  0
 12 13  1  0
 13 14  1  0
 14 15  1  0
 15 16  2  0
 16 17  1  0
 17 18  2  0
 18 19  1  0
 18 20  1  0
 20 21  2  0
  8 22  1  6
 22 23  1  0
 23 24  1  0
 24 25  1  0
 25 26  1  0
 26 27  1  0
 27 28  1  0
  7 29  1  0
 29 30  2  0
 29 31  1  0
 31 32  1  0
 32 33  2  0
 33 34  1  0
 33  2  1  0
 32  5  1  0
 13  9  1  0
 21 15  1  0
 28 22  1  0
M  CHG  1  22   1
M  END
>  <Compound_ID>  (459) 
C06442362

>  <Active>  (459) 
0.0

>  <Smiles>  (459) 
Cc1ccc2cc([C@@H](c3nnnn3Cc3ccc(F)cc3)[NH+]3CCCCCC3)c(=O)[nH]c2c1C

>  <canonical_smi>  (459) 
Cc1ccc2cc([C@@H](c3nnnn3Cc3ccc(F)cc3)[NH+]3CCCCCC3)c(=O)[nH]c2c1C

>  <Set>  (459) 
G2 inactive

>  <Set_type>  (459) 
Train

>  <MW>  (459) 
461.57

>  <HBD>  (459) 
2

>  <HBA>  (459) 
4

>  <NRB>  (459) 
5

>  <NR>  (459) 
5

>  <NAR>  (459) 
4

>  <PSA>  (459) 
80.9

>  <Standard Type>  (459) 
nan

>  <Standard Relation>  (459) 
nan

>  <Standard Units>  (459) 
nan

>  <Standard Value>  (459) 
nan

>  <Assay ChEMBL ID>  (459) 
nan

>  <Assay Description>  (459) 
nan

>  <BAO Label>  (459) 
nan

$$$$

     RDKit          2D

 34 39  0  0  0  0  0  0  0  0999 V2000
    8.0346   -3.5760    0.0000 O   0  0  0  0  0  0  0  0  0  0  0  0
    6.9199   -4.5797    0.0000 C   0  0  0  0  0  0  0  0  0  0  0  0
    7.2317   -6.0469    0.0000 C   0  0  0  0  0  0  0  0  0  0  0  0
    8.6021   -6.6571    0.0000 C   0  0  0  0  0  0  0  0  0  0  0  0
    8.4453   -8.1488    0.0000 C   0  0  0  0  0  0  0  0  0  0  0  0
    9.5600   -9.1525    0.0000 C   0  0  0  0  0  0  0  0  0  0  0  0
    9.2481  -10.6198    0.0000 C   0  0  0  0  0  0  0  0  0  0  0  0
   10.3628  -11.6234    0.0000 C   0  0  0  0  0  0  0  0  0  0  0  0
   11.7894  -11.1599    0.0000 C   0  0  0  0  0  0  0  0  0  0  0  0
   12.1013   -9.6927    0.0000 C   0  0  0  0  0  0  0  0  0  0  0  0
   10.9866   -8.6890    0.0000 C   0  0  0  0  0  0  0  0  0  0  0  0
    6.9780   -8.4607    0.0000 N   0  0  0  0  0  0  0  0  0  0  0  0
    6.2280   -7.1617    0.0000 N   0  0  0  0  0  0  0  0  0  0  0  0
    5.4933   -4.1162    0.0000 N   0  0  0  0  0  0  0  0  0  0  0  0
    5.1814   -2.6490    0.0000 C   0  0  0  0  0  0  0  0  0  0  0  0
    3.7548   -2.1855    0.0000 C   0  0  0  0  0  0  0  0  0  0  0  0
    2.6401   -3.1891    0.0000 C   0  0  0  0  0  0  0  0  0  0  0  0
    1.2135   -2.7256    0.0000 N   0  0  0  0  0  0  0  0  0  0  0  0
    0.7500   -1.2990    0.0000 C   0  0  0  0  0  0  0  0  0  0  0  0
    1.5000    0.0000    0.0000 N   0  0  0  0  0  4  0  0  0  0  0  0
    0.7500    1.2990    0.0000 C   0  0  0  0  0  0  0  0  0  0  0  0
   -0.7500    1.2990    0.0000 C   0  0  0  0  0  0  0  0  0  0  0  0
   -1.5000    0.0000    0.0000 C   0  0  0  0  0  0  0  0  0  0  0  0
   -0.7500   -1.2990    0.0000 C   0  0  0  0  0  0  0  0  0  0  0  0
   -1.2135   -2.7256    0.0000 N   0  0  0  0  0  0  0  0  0  0  0  0
    0.0000   -3.6073    0.0000 C   0  0  0  0  0  0  0  0  0  0  0  0
    0.0000   -5.1073    0.0000 C   0  0  0  0  0  0  0  0  0  0  0  0
   -1.2990   -5.8573    0.0000 C   0  0  0  0  0  0  0  0  0  0  0  0
   -1.4558   -7.3491    0.0000 C   0  0  0  0  0  0  0  0  0  0  0  0
   -2.9231   -7.6610    0.0000 C   0  0  0  0  0  0  0  0  0  0  0  0
   -3.6731   -6.3619    0.0000 C   0  0  0  0  0  0  0  0  0  0  0  0
   -2.6694   -5.2472    0.0000 C   0  0  0  0  0  0  0  0  0  0  0  0
    2.9520   -4.6564    0.0000 C   0  0  0  0  0  0  0  0  0  0  0  0
    4.3786   -5.1199    0.0000 C   0  0  0  0  0  0  0  0  0  0  0  0
  1  2  2  0
  3  2  1  1
  3  4  1  0
  4  5  2  0
  5  6  1  0
  6  7  2  0
  7  8  1  0
  8  9  2  0
  9 10  1  0
 10 11  2  0
  5 12  1  0
 12 13  2  0
  2 14  1  0
 14 15  1  0
 15 16  1  0
 16 17  1  0
 17 18  1  0
 18 19  1  0
 19 20  2  0
 20 21  1  0
 21 22  2  0
 22 23  1  0
 23 24  2  0
 24 25  1  0
 25 26  1  0
 26 27  1  1
 27 28  1  0
 28 29  1  0
 29 30  1  0
 30 31  1  0
 31 32  1  0
 17 33  1  0
 33 34  1  0
 13  3  1  0
 34 14  1  0
 11  6  1  0
 26 18  1  0
 32 28  1  0
 24 19  1  0
M  CHG  1  20   1
M  END
>  <Compound_ID>  (460) 
C39519160

>  <Active>  (460) 
0.0

>  <Smiles>  (460) 
O=C([C@H]1C=C(c2ccccc2)N=N1)N1CCC(N2c3[nH+]cccc3N[C@@H]2CC2CCCC2)CC1

>  <canonical_smi>  (460) 
O=C([C@H]1C=C(c2ccccc2)N=N1)N1CCC(N2c3[nH+]cccc3N[C@@H]2CC2CCCC2)CC1

>  <Set>  (460) 
G2 inactive

>  <Set_type>  (460) 
Train

>  <MW>  (460) 
457.6

>  <HBD>  (460) 
1

>  <HBA>  (460) 
3

>  <NRB>  (460) 
5

>  <NR>  (460) 
6

>  <NAR>  (460) 
2

>  <PSA>  (460) 
74.44

>  <Standard Type>  (460) 
nan

>  <Standard Relation>  (460) 
nan

>  <Standard Units>  (460) 
nan

>  <Standard Value>  (460) 
nan

>  <Assay ChEMBL ID>  (460) 
nan

>  <Assay Description>  (460) 
nan

>  <BAO Label>  (460) 
nan

$$$$

     RDKit          2D

 32 36  0  0  0  0  0  0  0  0999 V2000
    5.2500   -1.2990    0.0000 O   0  0  0  0  0  0  0  0  0  0  0  0
    4.5000   -0.0000    0.0000 C   0  0  0  0  0  0  0  0  0  0  0  0
    5.2500    1.2990    0.0000 C   0  0  0  0  0  0  0  0  0  0  0  0
    6.7500    1.2990    0.0000 N   0  0  0  0  0  0  0  0  0  0  0  0
    7.5000    0.0000    0.0000 S   0  0  0  0  0  0  0  0  0  0  0  0
    6.2010   -0.7500    0.0000 O   0  0  0  0  0  0  0  0  0  0  0  0
    8.7990    0.7500    0.0000 O   0  0  0  0  0  0  0  0  0  0  0  0
    8.2500   -1.2990    0.0000 C   0  0  0  0  0  0  0  0  0  0  0  0
    7.5000   -2.5981    0.0000 C   0  0  0  0  0  0  0  0  0  0  0  0
    8.2500   -3.8971    0.0000 C   0  0  0  0  0  0  0  0  0  0  0  0
    9.7500   -3.8971    0.0000 C   0  0  0  0  0  0  0  0  0  0  0  0
   10.5000   -2.5981    0.0000 C   0  0  0  0  0  0  0  0  0  0  0  0
   12.0000   -2.5981    0.0000 F   0  0  0  0  0  0  0  0  0  0  0  0
    9.7500   -1.2990    0.0000 C   0  0  0  0  0  0  0  0  0  0  0  0
    4.5000    2.5981    0.0000 C   0  0  0  0  0  0  0  0  0  0  0  0
    3.0000    2.5981    0.0000 C   0  0  0  0  0  0  0  0  0  0  0  0
    2.2500    1.2990    0.0000 C   0  0  0  0  0  0  0  0  0  0  0  0
    3.0000   -0.0000    0.0000 N   0  0  0  0  0  0  0  0  0  0  0  0
    2.2500   -1.2990    0.0000 C   0  0  0  0  0  0  0  0  0  0  0  0
    0.7500   -1.2990    0.0000 C   0  0  0  0  0  0  0  0  0  0  0  0
    1.5000    0.0000    0.0000 C   0  0  0  0  0  0  0  0  0  0  0  0
    0.7500    1.2990    0.0000 C   0  0  0  0  0  0  0  0  0  0  0  0
   -0.7500    1.2990    0.0000 C   0  0  0  0  0  0  0  0  0  0  0  0
   -1.5000    0.0000    0.0000 N   0  0  0  0  0  4  0  0  0  0  0  0
   -3.0000    0.0000    0.0000 C   0  0  0  0  0  0  0  0  0  0  0  0
   -3.7500    1.2990    0.0000 C   0  0  0  0  0  0  0  0  0  0  0  0
   -3.0000    2.5981    0.0000 C   0  0  0  0  0  0  0  0  0  0  0  0
   -3.7500    3.8971    0.0000 C   0  0  0  0  0  0  0  0  0  0  0  0
   -5.2500    3.8971    0.0000 C   0  0  0  0  0  0  0  0  0  0  0  0
   -6.0000    2.5981    0.0000 C   0  0  0  0  0  0  0  0  0  0  0  0
   -5.2500    1.2990    0.0000 C   0  0  0  0  0  0  0  0  0  0  0  0
   -0.7500   -1.2990    0.0000 C   0  0  0  0  0  0  0  0  0  0  0  0
  1  2  2  0
  2  3  1  0
  3  4  1  0
  4  5  1  0
  5  6  2  0
  5  7  2  0
  5  8  1  0
  8  9  2  0
  9 10  1  0
 10 11  2  0
 11 12  1  0
 12 13  1  0
 12 14  2  0
  3 15  2  0
 15 16  1  0
 16 17  2  0
 17 18  1  0
 18 19  1  0
 20 19  1  6
 20 21  1  0
 21 22  1  0
 22 23  1  6
 23 24  1  0
 24 25  1  0
 25 26  1  0
 26 27  1  0
 27 28  1  0
 28 29  1  0
 29 30  1  0
 30 31  1  0
 24 32  1  0
 18  2  1  0
 32 20  1  0
 14  8  1  0
 22 17  1  0
 31 26  1  0
M  CHG  1  24   1
M  END
>  <Compound_ID>  (461) 
C03841484

>  <Active>  (461) 
0.0

>  <Smiles>  (461) 
O=c1c(NS(=O)(=O)c2cccc(F)c2)ccc2n1C[C@H]1C[C@@H]2C[NH+](CC2CCCCC2)C1

>  <canonical_smi>  (461) 
O=c1c(NS(=O)(=O)c2cccc(F)c2)ccc2n1C[C@H]1C[C@@H]2C[NH+](CC2CCCCC2)C1

>  <Set>  (461) 
G2 inactive

>  <Set_type>  (461) 
Train

>  <MW>  (461) 
460.6

>  <HBD>  (461) 
2

>  <HBA>  (461) 
3

>  <NRB>  (461) 
5

>  <NR>  (461) 
5

>  <NAR>  (461) 
2

>  <PSA>  (461) 
72.61

>  <Standard Type>  (461) 
nan

>  <Standard Relation>  (461) 
nan

>  <Standard Units>  (461) 
nan

>  <Standard Value>  (461) 
nan

>  <Assay ChEMBL ID>  (461) 
nan

>  <Assay Description>  (461) 
nan

>  <BAO Label>  (461) 
nan

$$$$

     RDKit          2D

 26 25  0  0  0  0  0  0  0  0999 V2000
    0.0000    0.0000    0.0000 C   0  0  0  0  0  0  0  0  0  0  0  0
    1.2990    0.7500    0.0000 C   0  0  0  0  0  0  0  0  0  0  0  0
    2.5981    1.5000    0.0000 C   0  0  0  0  0  0  0  0  0  0  0  0
    2.0490   -0.5490    0.0000 C   0  0  0  0  0  0  0  0  0  0  0  0
    0.5490    2.0490    0.0000 N   0  0  0  0  0  0  0  0  0  0  0  0
    1.2990    3.3481    0.0000 C   0  0  0  0  0  0  0  0  0  0  0  0
    0.5490    4.6471    0.0000 C   0  0  0  0  0  0  0  0  0  0  0  0
    1.2990    5.9462    0.0000 Cl  0  0  0  0  0  0  0  0  0  0  0  0
   -0.9510    4.6471    0.0000 Cl  0  0  0  0  0  0  0  0  0  0  0  0
   -0.9510    2.0490    0.0000 C   0  0  0  0  0  0  0  0  0  0  0  0
   -1.7010    0.7500    0.0000 O   0  0  0  0  0  0  0  0  0  0  0  0
   -1.7010    3.3481    0.0000 N   0  0  0  0  0  0  0  0  0  0  0  0
   -3.2010    3.3481    0.0000 C   0  0  0  0  0  0  0  0  0  0  0  0
   -3.9510    4.6471    0.0000 C   0  0  0  0  0  0  0  0  0  0  0  0
   -5.4510    4.6471    0.0000 N   0  0  0  0  0  0  0  0  0  0  0  0
   -6.2010    5.9462    0.0000 C   0  0  0  0  0  0  0  0  0  0  0  0
   -5.4510    7.2452    0.0000 O   0  0  0  0  0  0  0  0  0  0  0  0
   -7.7010    5.9462    0.0000 N   0  0  0  0  0  0  0  0  0  0  0  0
   -8.4510    7.2452    0.0000 C   0  0  0  0  0  0  0  0  0  0  0  0
   -9.9510    7.2452    0.0000 C   0  0  0  0  0  0  0  0  0  0  0  0
  -10.7010    8.5442    0.0000 Cl  0  0  0  0  0  0  0  0  0  0  0  0
  -10.7010    5.9462    0.0000 Cl  0  0  0  0  0  0  0  0  0  0  0  0
   -8.4510    4.6471    0.0000 C   0  0  0  0  0  0  0  0  0  0  0  0
   -9.7500    5.3971    0.0000 C   0  0  0  0  0  0  0  0  0  0  0  0
   -7.1519    3.8971    0.0000 C   0  0  0  0  0  0  0  0  0  0  0  0
   -9.2010    3.3481    0.0000 C   0  0  0  0  0  0  0  0  0  0  0  0
  1  2  1  0
  2  3  1  0
  2  4  1  0
  2  5  1  0
  5  6  1  0
  6  7  2  0
  7  8  1  0
  7  9  1  0
  5 10  1  0
 10 11  2  0
 10 12  1  0
 12 13  1  0
 13 14  1  0
 14 15  1  0
 15 16  1  0
 16 17  2  0
 16 18  1  0
 18 19  1  0
 19 20  2  0
 20 21  1  0
 20 22  1  0
 18 23  1  0
 23 24  1  0
 23 25  1  0
 23 26  1  0
M  END
>  <Compound_ID>  (462) 
C03058824

>  <Active>  (462) 
0.0

>  <Smiles>  (462) 
CC(C)(C)N(C=C(Cl)Cl)C(=O)NCCNC(=O)N(C=C(Cl)Cl)C(C)(C)C

>  <canonical_smi>  (462) 
CC(C)(C)N(C=C(Cl)Cl)C(=O)NCCNC(=O)N(C=C(Cl)Cl)C(C)(C)C

>  <Set>  (462) 
G2 inactive

>  <Set_type>  (462) 
Train

>  <MW>  (462) 
448.22

>  <HBD>  (462) 
2

>  <HBA>  (462) 
2

>  <NRB>  (462) 
5

>  <NR>  (462) 
0

>  <NAR>  (462) 
0

>  <PSA>  (462) 
64.68

>  <Standard Type>  (462) 
nan

>  <Standard Relation>  (462) 
nan

>  <Standard Units>  (462) 
nan

>  <Standard Value>  (462) 
nan

>  <Assay ChEMBL ID>  (462) 
nan

>  <Assay Description>  (462) 
nan

>  <BAO Label>  (462) 
nan

$$$$

     RDKit          2D

 33 37  0  0  0  0  0  0  0  0999 V2000
   -9.7500   -3.8971    0.0000 N   0  0  0  0  0  0  0  0  0  0  0  0
   -8.2500   -3.8971    0.0000 C   0  0  0  0  0  0  0  0  0  0  0  0
   -7.5000   -5.1962    0.0000 O   0  0  0  0  0  0  0  0  0  0  0  0
   -7.5000   -2.5981    0.0000 C   0  0  0  0  0  0  0  0  0  0  0  0
   -8.2500   -1.2990    0.0000 C   0  0  0  0  0  0  0  0  0  0  0  0
   -7.5000    0.0000    0.0000 C   0  0  0  0  0  0  0  0  0  0  0  0
   -8.2500    1.2990    0.0000 C   0  0  0  0  0  0  0  0  0  0  0  0
   -9.7500    1.2990    0.0000 C   0  0  0  0  0  0  0  0  0  0  0  0
  -10.5000    2.5981    0.0000 Cl  0  0  0  0  0  0  0  0  0  0  0  0
  -10.5000    0.0000    0.0000 C   0  0  0  0  0  0  0  0  0  0  0  0
   -9.7500   -1.2990    0.0000 C   0  0  0  0  0  0  0  0  0  0  0  0
   -6.0000   -2.5981    0.0000 N   0  0  0  0  0  0  0  0  0  0  0  0
   -5.2500   -3.8971    0.0000 C   0  0  0  0  0  0  0  0  0  0  0  0
   -3.7500   -3.8971    0.0000 C   0  0  0  0  0  0  0  0  0  0  0  0
   -3.0000   -2.5981    0.0000 N   0  0  0  0  0  0  0  0  0  0  0  0
   -1.5000   -2.5981    0.0000 C   0  0  0  0  0  0  0  0  0  0  0  0
   -0.7500   -3.8971    0.0000 N   0  0  0  0  0  0  0  0  0  0  0  0
    0.7500   -3.8971    0.0000 C   0  0  0  0  0  0  0  0  0  0  0  0
    1.5000   -5.1962    0.0000 C   0  0  0  0  0  0  0  0  0  0  0  0
    0.7500   -6.4952    0.0000 C   0  0  0  0  0  0  0  0  0  0  0  0
    1.5000   -7.7942    0.0000 C   0  0  0  0  0  0  0  0  0  0  0  0
    3.0000   -7.7942    0.0000 C   0  0  0  0  0  0  0  0  0  0  0  0
    3.7500   -6.4952    0.0000 N   0  0  0  0  0  0  0  0  0  0  0  0
    3.0000   -5.1962    0.0000 C   0  0  0  0  0  0  0  0  0  0  0  0
    1.5000   -2.5981    0.0000 N   0  0  0  0  0  0  0  0  0  0  0  0
    0.7500   -1.2990    0.0000 C   0  0  0  0  0  0  0  0  0  0  0  0
    1.5000    0.0000    0.0000 C   0  0  0  0  0  0  0  0  0  0  0  0
    0.7500    1.2990    0.0000 C   0  0  0  0  0  0  0  0  0  0  0  0
   -0.7500    1.2990    0.0000 C   0  0  0  0  0  0  0  0  0  0  0  0
   -1.5000    0.0000    0.0000 C   0  0  0  0  0  0  0  0  0  0  0  0
   -0.7500   -1.2990    0.0000 C   0  0  0  0  0  0  0  0  0  0  0  0
   -3.7500   -1.2990    0.0000 C   0  0  0  0  0  0  0  0  0  0  0  0
   -5.2500   -1.2990    0.0000 C   0  0  0  0  0  0  0  0  0  0  0  0
  1  2  1  0
  2  3  2  0
  2  4  1  0
  4  5  1  0
  5  6  2  0
  6  7  1  0
  7  8  2  0
  8  9  1  0
  8 10  1  0
 10 11  2  0
  4 12  1  1
 12 13  1  0
 13 14  1  0
 14 15  1  0
 15 16  1  0
 16 17  2  0
 17 18  1  0
 18 19  1  0
 19 20  2  0
 20 21  1  0
 21 22  2  0
 22 23  1  0
 23 24  2  0
 18 25  2  0
 25 26  1  0
 26 27  2  0
 27 28  1  0
 28 29  2  0
 29 30  1  0
 30 31  2  0
 15 32  1  0
 32 33  1  0
 11  5  1  0
 33 12  1  0
 31 16  1  0
 24 19  1  0
 31 26  1  0
M  END
>  <Compound_ID>  (463) 
C36386311

>  <Active>  (463) 
0.0

>  <Smiles>  (463) 
NC(=O)[C@@H](c1ccc(Cl)cc1)N1CCN(c2nc(-c3cccnc3)nc3ccccc23)CC1

>  <canonical_smi>  (463) 
NC(=O)[C@@H](c1ccc(Cl)cc1)N1CCN(c2nc(-c3cccnc3)nc3ccccc23)CC1

>  <Set>  (463) 
G2 inactive

>  <Set_type>  (463) 
Train

>  <MW>  (463) 
458.95

>  <HBD>  (463) 
1

>  <HBA>  (463) 
6

>  <NRB>  (463) 
5

>  <NR>  (463) 
5

>  <NAR>  (463) 
4

>  <PSA>  (463) 
88.24

>  <Standard Type>  (463) 
nan

>  <Standard Relation>  (463) 
nan

>  <Standard Units>  (463) 
nan

>  <Standard Value>  (463) 
nan

>  <Assay ChEMBL ID>  (463) 
nan

>  <Assay Description>  (463) 
nan

>  <BAO Label>  (463) 
nan

$$$$

     RDKit          2D

 33 37  0  0  0  0  0  0  0  0999 V2000
    6.8193    8.2402    0.0000 C   0  0  0  0  0  0  0  0  0  0  0  0
    5.6057    9.1218    0.0000 C   0  0  0  0  0  0  0  0  0  0  0  0
    5.6057   10.6218    0.0000 N   0  0  0  0  0  0  0  0  0  0  0  0
    4.1791   11.0854    0.0000 C   0  0  0  0  0  0  0  0  0  0  0  0
    3.2975    9.8718    0.0000 C   0  0  0  0  0  0  0  0  0  0  0  0
    4.1791    8.6583    0.0000 N   0  0  0  0  0  0  0  0  0  0  0  0
    3.7156    7.2317    0.0000 C   0  0  0  0  0  0  0  0  0  0  0  0
    2.2484    6.9199    0.0000 C   0  0  0  0  0  0  0  0  0  0  0  0
    1.7849    5.4933    0.0000 C   0  0  0  0  0  0  0  0  0  0  0  0
    2.7886    4.3786    0.0000 C   0  0  0  0  0  0  0  0  0  0  0  0
    2.3250    2.9520    0.0000 N   0  0  0  0  0  0  0  0  0  0  0  0
    0.8578    2.6401    0.0000 C   0  0  0  0  0  0  0  0  0  0  0  0
   -0.1459    3.7548    0.0000 O   0  0  0  0  0  1  0  0  0  0  0  0
    0.3943    1.2135    0.0000 C   0  0  0  0  0  0  0  0  0  0  0  0
    1.2760    0.0000    0.0000 C   0  0  0  0  0  0  0  0  0  0  0  0
    0.3943   -1.2135    0.0000 N   0  0  0  0  0  0  0  0  0  0  0  0
   -1.0323   -0.7500    0.0000 N   0  0  0  0  0  0  0  0  0  0  0  0
   -1.0323    0.7500    0.0000 C   0  0  0  0  0  0  0  0  0  0  0  0
   -2.3313    1.5000    0.0000 N   0  0  0  0  0  4  0  0  0  0  0  0
   -3.6304    0.7500    0.0000 C   0  0  0  0  0  0  0  0  0  0  0  0
   -4.9294    1.5000    0.0000 C   0  0  0  0  0  0  0  0  0  0  0  0
   -6.2997    0.8899    0.0000 C   0  0  0  0  0  0  0  0  0  0  0  0
   -7.3034    2.0046    0.0000 C   0  0  0  0  0  0  0  0  0  0  0  0
   -6.5534    3.3037    0.0000 C   0  0  0  0  0  0  0  0  0  0  0  0
   -5.0862    2.9918    0.0000 S   0  0  0  0  0  0  0  0  0  0  0  0
   -3.6304   -0.7500    0.0000 C   0  0  0  0  0  0  0  0  0  0  0  0
   -2.3313   -1.5000    0.0000 C   0  0  0  0  0  0  0  0  0  0  0  0
   -2.3313   -3.0000    0.0000 C   0  0  0  0  0  0  0  0  0  0  0  0
   -2.3313   -4.5000    0.0000 F   0  0  0  0  0  0  0  0  0  0  0  0
   -3.8313   -3.0000    0.0000 F   0  0  0  0  0  0  0  0  0  0  0  0
   -0.8313   -3.0000    0.0000 F   0  0  0  0  0  0  0  0  0  0  0  0
    4.2558    4.6904    0.0000 C   0  0  0  0  0  0  0  0  0  0  0  0
    4.7193    6.1170    0.0000 C   0  0  0  0  0  0  0  0  0  0  0  0
  1  2  1  0
  2  3  2  0
  3  4  1  0
  4  5  2  0
  5  6  1  0
  6  7  1  0
  7  8  2  0
  8  9  1  0
  9 10  2  0
 10 11  1  0
 11 12  2  0
 12 13  1  0
 12 14  1  0
 14 15  2  0
 15 16  1  0
 16 17  1  0
 17 18  1  0
 18 19  2  0
 19 20  1  0
 20 21  1  1
 21 22  2  0
 22 23  1  0
 23 24  2  0
 24 25  1  0
 20 26  1  0
 26 27  1  0
 27 28  1  6
 28 29  1  0
 28 30  1  0
 28 31  1  0
 10 32  1  0
 32 33  2  0
  6  2  1  0
 33  7  1  0
 18 14  1  0
 25 21  1  0
 27 17  1  0
M  CHG  2  13  -1  19   1
M  END
>  <Compound_ID>  (464) 
C13640564

>  <Active>  (464) 
0.0

>  <Smiles>  (464) 
Cc1nccn1-c1ccc(/N=C(\[O-])C2=CNN3C2=[NH+][C@H](c2cccs2)C[C@H]3C(F)(F)F)cc1

>  <canonical_smi>  (464) 
Cc1nccn1-c1ccc(/N=C(\[O-])C2=CNN3C2=[NH+][C@H](c2cccs2)C[C@H]3C(F)(F)F)cc1

>  <Set>  (464) 
G2 inactive

>  <Set_type>  (464) 
Train

>  <MW>  (464) 
472.5

>  <HBD>  (464) 
2

>  <HBA>  (464) 
4

>  <NRB>  (464) 
4

>  <NR>  (464) 
5

>  <NAR>  (464) 
3

>  <PSA>  (464) 
82.48

>  <Standard Type>  (464) 
nan

>  <Standard Relation>  (464) 
nan

>  <Standard Units>  (464) 
nan

>  <Standard Value>  (464) 
nan

>  <Assay ChEMBL ID>  (464) 
nan

>  <Assay Description>  (464) 
nan

>  <BAO Label>  (464) 
nan

$$$$

     RDKit          2D

 31 35  0  0  0  0  0  0  0  0999 V2000
    0.0210   13.5250    0.0000 N   0  0  0  0  0  0  0  0  0  0  0  0
    1.3913   12.9149    0.0000 C   0  0  0  0  0  0  0  0  0  0  0  0
    2.7616   12.3048    0.0000 C   0  0  0  0  0  0  0  0  0  0  0  0
    2.9184   10.8130    0.0000 C   0  0  0  0  0  0  0  0  0  0  0  0
    4.2888   10.2029    0.0000 O   0  0  0  0  0  0  0  0  0  0  0  0
    1.7049    9.9314    0.0000 C   0  0  0  0  0  0  0  0  0  0  0  0
    1.8617    8.4396    0.0000 O   0  0  0  0  0  0  0  0  0  0  0  0
    0.6482    7.5579    0.0000 C   0  0  0  0  0  0  0  0  0  0  0  0
   -0.7221    8.1680    0.0000 O   0  0  0  0  0  0  0  0  0  0  0  0
    0.8050    6.0661    0.0000 C   0  0  0  0  0  0  0  0  0  0  0  0
   -0.4086    5.1844    0.0000 C   0  0  0  0  0  0  0  0  0  0  0  0
   -1.8351    5.6480    0.0000 C   0  0  0  0  0  0  0  0  0  0  0  0
   -2.7168    4.4344    0.0000 O   0  0  0  0  0  0  0  0  0  0  0  0
   -1.8351    3.2209    0.0000 C   0  0  0  0  0  0  0  0  0  0  0  0
   -2.1470    1.7537    0.0000 C   0  0  0  0  0  0  0  0  0  0  0  0
   -1.0323    0.7500    0.0000 C   0  0  0  0  0  0  0  0  0  0  0  0
    0.3943    1.2135    0.0000 C   0  0  0  0  0  0  0  0  0  0  0  0
    0.7062    2.6807    0.0000 C   0  0  0  0  0  0  0  0  0  0  0  0
   -0.4086    3.6844    0.0000 C   0  0  0  0  0  0  0  0  0  0  0  0
    1.2760    0.0000    0.0000 C   0  0  0  0  0  0  0  0  0  0  0  0
    0.3943   -1.2135    0.0000 C   0  0  0  0  0  0  0  0  0  0  0  0
   -1.0323   -0.7500    0.0000 C   0  0  0  0  0  0  0  0  0  0  0  0
    3.9752   13.1865    0.0000 C   0  0  0  0  0  0  0  0  0  0  0  0
    5.4018   12.7230    0.0000 N   0  0  0  0  0  0  0  0  0  0  0  0
    6.2834   13.9365    0.0000 C   0  0  0  0  0  0  0  0  0  0  0  0
    7.7752   14.0933    0.0000 C   0  0  0  0  0  0  0  0  0  0  0  0
    8.3853   15.4636    0.0000 C   0  0  0  0  0  0  0  0  0  0  0  0
    7.5036   16.6771    0.0000 C   0  0  0  0  0  0  0  0  0  0  0  0
    6.0119   16.5203    0.0000 C   0  0  0  0  0  0  0  0  0  0  0  0
    5.4018   15.1500    0.0000 C   0  0  0  0  0  0  0  0  0  0  0  0
    3.9752   14.6865    0.0000 N   0  0  0  0  0  0  0  0  0  0  0  0
  1  2  3  0
  2  3  1  0
  3  4  1  0
  4  5  2  0
  4  6  1  0
  6  7  1  0
  7  8  1  0
  8  9  2  0
  8 10  1  0
 10 11  1  0
 11 12  2  0
 12 13  1  0
 13 14  1  0
 14 15  2  0
 15 16  1  0
 16 17  2  0
 17 18  1  0
 18 19  2  0
 17 20  1  0
 20 21  1  0
 21 22  1  0
  3 23  2  0
 23 24  1  0
 24 25  1  0
 25 26  2  0
 26 27  1  0
 27 28  2  0
 28 29  1  0
 29 30  2  0
 30 31  1  0
 19 11  1  0
 31 23  1  0
 19 14  1  0
 30 25  1  0
 22 16  1  0
M  END
>  <Compound_ID>  (465) 
C03358168

>  <Active>  (465) 
0.0

>  <Smiles>  (465) 
N#CC(C(=O)COC(=O)Cc1coc2cc3c(cc12)CCC3)=C1Nc2ccccc2N1

>  <canonical_smi>  (465) 
N#CC(C(=O)COC(=O)Cc1coc2cc3c(cc12)CCC3)=C1Nc2ccccc2N1

>  <Set>  (465) 
G2 inactive

>  <Set_type>  (465) 
Train

>  <MW>  (465) 
413.43

>  <HBD>  (465) 
2

>  <HBA>  (465) 
7

>  <NRB>  (465) 
5

>  <NR>  (465) 
5

>  <NAR>  (465) 
3

>  <PSA>  (465) 
104.36

>  <Standard Type>  (465) 
nan

>  <Standard Relation>  (465) 
nan

>  <Standard Units>  (465) 
nan

>  <Standard Value>  (465) 
nan

>  <Assay ChEMBL ID>  (465) 
nan

>  <Assay Description>  (465) 
nan

>  <BAO Label>  (465) 
nan

$$$$

     RDKit          2D

 28 31  0  0  0  0  0  0  0  0999 V2000
   -1.1280  -10.2105    0.0000 C   0  0  0  0  0  0  0  0  0  0  0  0
   -1.1280   -8.7105    0.0000 C   0  0  0  0  0  0  0  0  0  0  0  0
   -2.4271   -7.9605    0.0000 C   0  0  0  0  0  0  0  0  0  0  0  0
   -3.7261   -8.7105    0.0000 C   0  0  0  0  0  0  0  0  0  0  0  0
   -2.4271   -6.4605    0.0000 N   0  0  0  0  0  0  0  0  0  0  0  0
   -3.6406   -5.5788    0.0000 C   0  0  0  0  0  0  0  0  0  0  0  0
   -5.0672   -6.0423    0.0000 O   0  0  0  0  0  0  0  0  0  0  0  0
   -3.1771   -4.1522    0.0000 C   0  0  0  0  0  0  0  0  0  0  0  0
   -3.6406   -2.7256    0.0000 C   0  0  0  0  0  0  0  0  0  0  0  0
   -5.0672   -2.2621    0.0000 C   0  0  0  0  0  0  0  0  0  0  0  0
   -5.3790   -0.7949    0.0000 C   0  0  0  0  0  0  0  0  0  0  0  0
   -6.8056   -0.3314    0.0000 C   0  0  0  0  0  0  0  0  0  0  0  0
   -4.2643    0.2088    0.0000 C   0  0  0  0  0  0  0  0  0  0  0  0
   -2.4271   -1.8439    0.0000 N   0  0  0  0  0  4  0  0  0  0  0  0
   -1.2135   -2.7256    0.0000 C   0  0  0  0  0  0  0  0  0  0  0  0
   -0.0000   -3.6073    0.0000 C   0  0  0  0  0  0  0  0  0  0  0  0
    0.0000   -5.1073    0.0000 O   0  0  0  0  0  0  0  0  0  0  0  0
    1.2135   -2.7256    0.0000 N   0  0  0  0  0  0  0  0  0  0  0  0
    0.7500   -1.2990    0.0000 C   0  0  0  0  0  0  0  0  0  0  0  0
    1.5000    0.0000    0.0000 C   0  0  0  0  0  0  0  0  0  0  0  0
    0.7500    1.2990    0.0000 C   0  0  0  0  0  0  0  0  0  0  0  0
   -0.7500    1.2990    0.0000 C   0  0  0  0  0  0  0  0  0  0  0  0
   -1.5000    2.5981    0.0000 Cl  0  0  0  0  0  0  0  0  0  0  0  0
   -1.5000    0.0000    0.0000 C   0  0  0  0  0  0  0  0  0  0  0  0
   -0.7500   -1.2990    0.0000 C   0  0  0  0  0  0  0  0  0  0  0  0
   -1.6771   -4.1522    0.0000 C   0  0  0  0  0  0  0  0  0  0  0  0
   -1.2135   -5.5788    0.0000 C   0  0  0  0  0  0  0  0  0  0  0  0
    0.2131   -6.0423    0.0000 O   0  0  0  0  0  0  0  0  0  0  0  0
  1  2  1  0
  2  3  1  0
  3  4  1  1
  3  5  1  0
  5  6  1  0
  6  7  2  0
  8  6  1  6
  8  9  1  0
  9 10  1  6
 10 11  1  0
 11 12  1  0
 11 13  1  0
  9 14  1  0
 15 14  1  1
 15 16  1  0
 16 17  2  0
 16 18  1  0
 18 19  1  0
 19 20  2  0
 20 21  1  0
 21 22  2  0
 22 23  1  0
 22 24  1  0
 24 25  2  0
 15 26  1  0
 26 27  1  6
 27 28  2  0
 27  5  1  0
 26  8  1  0
 25 15  1  0
 25 19  1  0
M  CHG  1  14   1
M  END
>  <Compound_ID>  (466) 
C05345950

>  <Active>  (466) 
0.0

>  <Smiles>  (466) 
CC[C@@H](C)N1C(=O)[C@@H]2[C@H](CC(C)C)[NH2+][C@@]3(C(=O)Nc4ccc(Cl)cc43)[C@@H]2C1=O

>  <canonical_smi>  (466) 
CC[C@@H](C)N1C(=O)[C@@H]2[C@H](CC(C)C)[NH2+][C@@]3(C(=O)Nc4ccc(Cl)cc43)[C@@H]2C1=O

>  <Set>  (466) 
G2 inactive

>  <Set_type>  (466) 
Train

>  <MW>  (466) 
404.92

>  <HBD>  (466) 
2

>  <HBA>  (466) 
3

>  <NRB>  (466) 
4

>  <NR>  (466) 
4

>  <NAR>  (466) 
1

>  <PSA>  (466) 
83.09

>  <Standard Type>  (466) 
nan

>  <Standard Relation>  (466) 
nan

>  <Standard Units>  (466) 
nan

>  <Standard Value>  (466) 
nan

>  <Assay ChEMBL ID>  (466) 
nan

>  <Assay Description>  (466) 
nan

>  <BAO Label>  (466) 
nan

$$$$

     RDKit          2D

 30 34  0  0  0  0  0  0  0  0999 V2000
  -15.0702   -1.6915    0.0000 N   0  0  0  0  0  0  0  0  0  0  0  0
  -13.7711   -2.4415    0.0000 C   0  0  0  0  0  0  0  0  0  0  0  0
  -12.4721   -1.6915    0.0000 C   0  0  0  0  0  0  0  0  0  0  0  0
  -11.1731   -2.4415    0.0000 C   0  0  0  0  0  0  0  0  0  0  0  0
  -11.1731   -3.9415    0.0000 C   0  0  0  0  0  0  0  0  0  0  0  0
   -9.8740   -4.6915    0.0000 C   0  0  0  0  0  0  0  0  0  0  0  0
   -9.7172   -6.1833    0.0000 C   0  0  0  0  0  0  0  0  0  0  0  0
   -8.2500   -6.4952    0.0000 N   0  0  0  0  0  0  0  0  0  0  0  0
   -7.5000   -7.7942    0.0000 C   0  0  0  0  0  0  0  0  0  0  0  0
   -6.0000   -7.7942    0.0000 C   0  0  0  0  0  0  0  0  0  0  0  0
   -5.2500   -6.4952    0.0000 C   0  0  0  0  0  0  0  0  0  0  0  0
   -6.0000   -5.1962    0.0000 C   0  0  0  0  0  0  0  0  0  0  0  0
   -5.2500   -3.8971    0.0000 O   0  0  0  0  0  0  0  0  0  0  0  0
   -3.7500   -3.8971    0.0000 C   0  0  0  0  0  0  0  0  0  0  0  0
   -3.0000   -2.5981    0.0000 C   0  0  0  0  0  0  0  0  0  0  0  0
   -3.7500   -1.2990    0.0000 O   0  0  0  0  0  0  0  0  0  0  0  0
   -1.5000   -2.5981    0.0000 N   0  0  0  0  0  0  0  0  0  0  0  0
   -0.7500   -3.8971    0.0000 C   0  0  0  0  0  0  0  0  0  0  0  0
    0.7500   -3.8971    0.0000 C   0  0  0  0  0  0  0  0  0  0  0  0
    1.5000   -2.5981    0.0000 C   0  0  0  0  0  0  0  0  0  0  0  0
    0.7500   -1.2990    0.0000 C   0  0  0  0  0  0  0  0  0  0  0  0
    1.5000    0.0000    0.0000 C   0  0  0  0  0  0  0  0  0  0  0  0
    0.7500    1.2990    0.0000 C   0  0  0  0  0  0  0  0  0  0  0  0
   -0.7500    1.2990    0.0000 C   0  0  0  0  0  0  0  0  0  0  0  0
   -1.5000    0.0000    0.0000 C   0  0  0  0  0  0  0  0  0  0  0  0
   -0.7500   -1.2990    0.0000 C   0  0  0  0  0  0  0  0  0  0  0  0
   -7.5000   -5.1962    0.0000 C   0  0  0  0  0  0  0  0  0  0  0  0
   -8.5037   -4.0814    0.0000 N   0  0  0  0  0  4  0  0  0  0  0  0
  -12.4721   -4.6915    0.0000 C   0  0  0  0  0  0  0  0  0  0  0  0
  -13.7711   -3.9415    0.0000 C   0  0  0  0  0  0  0  0  0  0  0  0
  1  2  1  0
  2  3  2  0
  3  4  1  0
  4  5  2  0
  5  6  1  0
  6  7  2  0
  7  8  1  0
  8  9  1  0
  9 10  2  0
 10 11  1  0
 11 12  2  0
 12 13  1  0
 13 14  1  0
 14 15  1  0
 15 16  2  0
 15 17  1  0
 17 18  1  0
 18 19  1  0
 19 20  1  0
 20 21  1  0
 21 22  2  0
 22 23  1  0
 23 24  2  0
 24 25  1  0
 25 26  2  0
 12 27  1  0
 27 28  2  0
  5 29  1  0
 29 30  2  0
 30  2  1  0
 28  6  1  0
 27  8  1  0
 26 17  1  0
 26 21  1  0
M  CHG  1  28   1
M  END
>  <Compound_ID>  (467) 
C36273720

>  <Active>  (467) 
0.0

>  <Smiles>  (467) 
Nc1ccc(-c2cn3cccc(OCC(=O)N4CCCc5ccccc54)c3[nH+]2)cc1

>  <canonical_smi>  (467) 
Nc1ccc(-c2cn3cccc(OCC(=O)N4CCCc5ccccc54)c3[nH+]2)cc1

>  <Set>  (467) 
G2 inactive

>  <Set_type>  (467) 
Train

>  <MW>  (467) 
399.47

>  <HBD>  (467) 
1

>  <HBA>  (467) 
3

>  <NRB>  (467) 
4

>  <NR>  (467) 
5

>  <NAR>  (467) 
4

>  <PSA>  (467) 
74.11

>  <Standard Type>  (467) 
nan

>  <Standard Relation>  (467) 
nan

>  <Standard Units>  (467) 
nan

>  <Standard Value>  (467) 
nan

>  <Assay ChEMBL ID>  (467) 
nan

>  <Assay Description>  (467) 
nan

>  <BAO Label>  (467) 
nan

$$$$

     RDKit          2D

 34 38  0  0  0  0  0  0  0  0999 V2000
   -4.6883    2.2939    0.0000 C   0  0  0  0  0  0  0  0  0  0  0  0
   -3.5736    1.2902    0.0000 N   0  0  0  0  0  0  0  0  0  0  0  0
   -3.8855   -0.1771    0.0000 C   0  0  0  0  0  0  0  0  0  0  0  0
   -5.3120   -0.6406    0.0000 C   0  0  0  0  0  0  0  0  0  0  0  0
   -5.6239   -2.1078    0.0000 C   0  0  0  0  0  0  0  0  0  0  0  0
   -7.0505   -2.5713    0.0000 C   0  0  0  0  0  0  0  0  0  0  0  0
   -7.5140   -3.9979    0.0000 N   0  0  0  0  0  0  0  0  0  0  0  0
   -9.0140   -3.9979    0.0000 N   0  0  0  0  0  0  0  0  0  0  0  0
   -9.4775   -2.5713    0.0000 C   0  0  0  0  0  0  0  0  0  0  0  0
  -10.9041   -2.1078    0.0000 N   0  0  0  0  0  0  0  0  0  0  0  0
   -8.2640   -1.6896    0.0000 C   0  0  0  0  0  0  0  0  0  0  0  0
   -8.2640   -0.1896    0.0000 C   0  0  0  0  0  0  0  0  0  0  0  0
   -8.2640    1.3104    0.0000 N   0  0  0  0  0  0  0  0  0  0  0  0
   -2.1470    1.7537    0.0000 C   0  0  0  0  0  0  0  0  0  0  0  0
   -1.8351    3.2209    0.0000 N   0  0  0  0  0  0  0  0  0  0  0  0
   -0.4086    3.6844    0.0000 C   0  0  0  0  0  0  0  0  0  0  0  0
   -0.0967    5.1517    0.0000 C   0  0  0  0  0  0  0  0  0  0  0  0
    1.3299    5.6152    0.0000 N   0  0  0  0  0  0  0  0  0  0  0  0
    2.4446    4.6115    0.0000 C   0  0  0  0  0  0  0  0  0  0  0  0
    3.8712    5.0750    0.0000 C   0  0  0  0  0  0  0  0  0  0  0  0
    4.1831    6.5422    0.0000 O   0  0  0  0  0  0  0  0  0  0  0  0
    3.0684    7.5459    0.0000 C   0  0  0  0  0  0  0  0  0  0  0  0
    1.6418    7.0824    0.0000 C   0  0  0  0  0  0  0  0  0  0  0  0
    0.7062    2.6807    0.0000 N   0  0  0  0  0  0  0  0  0  0  0  0
    0.3943    1.2135    0.0000 C   0  0  0  0  0  0  0  0  0  0  0  0
    1.2760    0.0000    0.0000 S   0  0  0  0  0  0  0  0  0  0  0  0
    0.3943   -1.2135    0.0000 C   0  0  0  0  0  0  0  0  0  0  0  0
   -1.0323   -0.7500    0.0000 C   0  0  0  0  0  0  0  0  0  0  0  0
   -2.2458   -1.6317    0.0000 C   0  0  0  0  0  0  0  0  0  0  0  0
   -2.2458   -3.1317    0.0000 C   0  0  0  0  0  0  0  0  0  0  0  0
   -3.6724   -3.5952    0.0000 C   0  0  0  0  0  0  0  0  0  0  0  0
   -4.5541   -2.3817    0.0000 C   0  0  0  0  0  0  0  0  0  0  0  0
   -3.6724   -1.1682    0.0000 S   0  0  0  0  0  0  0  0  0  0  0  0
   -1.0323    0.7500    0.0000 C   0  0  0  0  0  0  0  0  0  0  0  0
  1  2  1  0
  2  3  1  0
  3  4  1  0
  4  5  1  0
  5  6  1  0
  6  7  2  0
  7  8  1  0
  8  9  1  0
  9 10  1  0
  9 11  2  0
 11 12  1  0
 12 13  3  0
  2 14  1  0
 14 15  2  0
 15 16  1  0
 16 17  1  0
 17 18  1  0
 18 19  1  0
 19 20  1  0
 20 21  1  0
 21 22  1  0
 22 23  1  0
 16 24  2  0
 24 25  1  0
 25 26  1  0
 26 27  1  0
 27 28  2  0
 28 29  1  0
 29 30  2  0
 30 31  1  0
 31 32  2  0
 32 33  1  0
 28 34  1  0
 11  6  1  0
 34 14  1  0
 23 18  1  0
 34 25  2  0
 33 29  1  0
M  END
>  <Compound_ID>  (468) 
C19309331

>  <Active>  (468) 
0.0

>  <Smiles>  (468) 
CN(CCCc1n[nH]c(N)c1C#N)c1nc(CN2CCOCC2)nc2scc(-c3cccs3)c12

>  <canonical_smi>  (468) 
CN(CCCc1n[nH]c(N)c1C#N)c1nc(CN2CCOCC2)nc2scc(-c3cccs3)c12

>  <Set>  (468) 
G2 inactive

>  <Set_type>  (468) 
Train

>  <MW>  (468) 
494.65

>  <HBD>  (468) 
2

>  <HBA>  (468) 
8

>  <NRB>  (468) 
8

>  <NR>  (468) 
5

>  <NAR>  (468) 
4

>  <PSA>  (468) 
119.98

>  <Standard Type>  (468) 
nan

>  <Standard Relation>  (468) 
nan

>  <Standard Units>  (468) 
nan

>  <Standard Value>  (468) 
nan

>  <Assay ChEMBL ID>  (468) 
nan

>  <Assay Description>  (468) 
nan

>  <BAO Label>  (468) 
nan

$$$$

     RDKit          2D

 28 29  0  0  0  0  0  0  0  0999 V2000
    7.5000   -0.0000    0.0000 C   0  0  0  0  0  0  0  0  0  0  0  0
    6.0000    0.0000    0.0000 C   0  0  0  0  0  0  0  0  0  0  0  0
    5.2500   -1.2990    0.0000 C   0  0  0  0  0  0  0  0  0  0  0  0
    6.0000   -2.5981    0.0000 C   0  0  0  0  0  0  0  0  0  0  0  0
    3.7500   -1.2990    0.0000 N   0  0  0  0  0  0  0  0  0  0  0  0
    3.0000    0.0000    0.0000 C   0  0  0  0  0  0  0  0  0  0  0  0
    3.7500    1.2990    0.0000 O   0  0  0  0  0  0  0  0  0  0  0  0
    1.5000    0.0000    0.0000 C   0  0  0  0  0  0  0  0  0  0  0  0
    0.7500   -1.2990    0.0000 C   0  0  0  0  0  0  0  0  0  0  0  0
   -0.7500   -1.2990    0.0000 C   0  0  0  0  0  0  0  0  0  0  0  0
   -1.5000    0.0000    0.0000 C   0  0  0  0  0  0  0  0  0  0  0  0
   -0.7500    1.2990    0.0000 C   0  0  0  0  0  0  0  0  0  0  0  0
    0.7500    1.2990    0.0000 C   0  0  0  0  0  0  0  0  0  0  0  0
    1.5000    2.5981    0.0000 N   0  0  0  0  0  0  0  0  0  0  0  0
    0.7500    3.8971    0.0000 S   0  0  0  0  0  0  0  0  0  0  0  0
   -0.5490    3.1471    0.0000 O   0  0  0  0  0  0  0  0  0  0  0  0
    2.0490    4.6471    0.0000 O   0  0  0  0  0  0  0  0  0  0  0  0
    0.0000    5.1962    0.0000 C   0  0  0  0  0  0  0  0  0  0  0  0
    0.7500    6.4952    0.0000 C   0  0  0  0  0  0  0  0  0  0  0  0
   -0.0000    7.7942    0.0000 C   0  0  0  0  0  0  0  0  0  0  0  0
    0.7500    9.0933    0.0000 N   0  0  0  0  0  4  0  0  0  0  0  0
   -0.0000   10.3923    0.0000 O   0  0  0  0  0  0  0  0  0  0  0  0
    2.2500    9.0933    0.0000 O   0  0  0  0  0  1  0  0  0  0  0  0
   -1.5000    7.7942    0.0000 C   0  0  0  0  0  0  0  0  0  0  0  0
   -2.2500    6.4952    0.0000 C   0  0  0  0  0  0  0  0  0  0  0  0
   -3.7500    6.4952    0.0000 C   0  0  0  0  0  0  0  0  0  0  0  0
   -1.5000    5.1962    0.0000 C   0  0  0  0  0  0  0  0  0  0  0  0
   -2.2500    3.8971    0.0000 C   0  0  0  0  0  0  0  0  0  0  0  0
  1  2  1  0
  2  3  1  0
  3  4  1  1
  3  5  1  0
  5  6  1  0
  6  7  2  0
  6  8  1  0
  8  9  2  0
  9 10  1  0
 10 11  2  0
 11 12  1  0
 12 13  2  0
 13 14  1  0
 14 15  1  0
 15 16  2  0
 15 17  2  0
 15 18  1  0
 18 19  2  0
 19 20  1  0
 20 21  1  0
 21 22  2  0
 21 23  1  0
 20 24  2  0
 24 25  1  0
 25 26  1  0
 25 27  2  0
 27 28  1  0
 13  8  1  0
 27 18  1  0
M  CHG  2  21   1  23  -1
M  END
>  <Compound_ID>  (469) 
C07323792

>  <Active>  (469) 
0.0

>  <Smiles>  (469) 
CC[C@@H](C)NC(=O)c1ccccc1NS(=O)(=O)c1cc([N+](=O)[O-])cc(C)c1C

>  <canonical_smi>  (469) 
CC[C@@H](C)NC(=O)c1ccccc1NS(=O)(=O)c1cc([N+](=O)[O-])cc(C)c1C

>  <Set>  (469) 
G2 inactive

>  <Set_type>  (469) 
Train

>  <MW>  (469) 
405.48

>  <HBD>  (469) 
2

>  <HBA>  (469) 
5

>  <NRB>  (469) 
7

>  <NR>  (469) 
2

>  <NAR>  (469) 
2

>  <PSA>  (469) 
118.41

>  <Standard Type>  (469) 
nan

>  <Standard Relation>  (469) 
nan

>  <Standard Units>  (469) 
nan

>  <Standard Value>  (469) 
nan

>  <Assay ChEMBL ID>  (469) 
nan

>  <Assay Description>  (469) 
nan

>  <BAO Label>  (469) 
nan

$$$$

     RDKit          2D

 31 35  0  0  0  0  0  0  0  0999 V2000
  -12.0025   -3.4994    0.0000 C   0  0  0  0  0  0  0  0  0  0  0  0
  -10.5759   -3.0359    0.0000 C   0  0  0  0  0  0  0  0  0  0  0  0
   -9.4612   -4.0396    0.0000 N   0  0  0  0  0  0  0  0  0  0  0  0
   -8.0346   -3.5760    0.0000 C   0  0  0  0  0  0  0  0  0  0  0  0
   -7.7227   -2.1088    0.0000 O   0  0  0  0  0  0  0  0  0  0  0  0
   -6.9199   -4.5797    0.0000 C   0  0  0  0  0  0  0  0  0  0  0  0
   -5.4933   -4.1162    0.0000 N   0  0  0  0  0  4  0  0  0  0  0  0
   -4.3786   -5.1199    0.0000 C   0  0  0  0  0  0  0  0  0  0  0  0
   -2.9520   -4.6564    0.0000 C   0  0  0  0  0  0  0  0  0  0  0  0
   -2.6401   -3.1891    0.0000 C   0  0  0  0  0  0  0  0  0  0  0  0
   -1.2135   -2.7256    0.0000 N   0  0  0  0  0  0  0  0  0  0  0  0
   -0.0000   -3.6073    0.0000 C   0  0  0  0  0  0  0  0  0  0  0  0
    0.0000   -5.1073    0.0000 O   0  0  0  0  0  0  0  0  0  0  0  0
    1.2135   -2.7256    0.0000 N   0  0  0  0  0  0  0  0  0  0  0  0
    0.7500   -1.2990    0.0000 C   0  0  0  0  0  0  0  0  0  0  0  0
    1.5000    0.0000    0.0000 C   0  0  0  0  0  0  0  0  0  0  0  0
    0.7500    1.2990    0.0000 C   0  0  0  0  0  0  0  0  0  0  0  0
   -0.7500    1.2990    0.0000 C   0  0  0  0  0  0  0  0  0  0  0  0
   -1.5000    0.0000    0.0000 C   0  0  0  0  0  0  0  0  0  0  0  0
   -0.7500   -1.2990    0.0000 C   0  0  0  0  0  0  0  0  0  0  0  0
   -3.7548   -2.1855    0.0000 C   0  0  0  0  0  0  0  0  0  0  0  0
   -5.1814   -2.6490    0.0000 C   0  0  0  0  0  0  0  0  0  0  0  0
  -10.2640   -1.5686    0.0000 C   0  0  0  0  0  0  0  0  0  0  0  0
   -8.8937   -0.9585    0.0000 C   0  0  0  0  0  0  0  0  0  0  0  0
   -9.0505    0.5333    0.0000 C   0  0  0  0  0  0  0  0  0  0  0  0
   -8.0468    1.6480    0.0000 C   0  0  0  0  0  0  0  0  0  0  0  0
   -8.5103    3.0746    0.0000 C   0  0  0  0  0  0  0  0  0  0  0  0
   -9.9775    3.3864    0.0000 C   0  0  0  0  0  0  0  0  0  0  0  0
  -10.9812    2.2717    0.0000 C   0  0  0  0  0  0  0  0  0  0  0  0
  -10.5177    0.8451    0.0000 C   0  0  0  0  0  0  0  0  0  0  0  0
  -11.2677   -0.4539    0.0000 O   0  0  0  0  0  0  0  0  0  0  0  0
  2  1  1  6
  2  3  1  0
  3  4  1  0
  4  5  2  0
  4  6  1  0
  6  7  1  0
  7  8  1  0
  8  9  1  0
  9 10  1  0
 10 11  1  0
 11 12  1  0
 12 13  2  0
 12 14  1  0
 14 15  1  0
 15 16  2  0
 16 17  1  0
 17 18  2  0
 18 19  1  0
 19 20  2  0
 10 21  1  0
 21 22  1  0
  2 23  1  0
 23 24  2  0
 24 25  1  0
 25 26  2  0
 26 27  1  0
 27 28  2  0
 28 29  1  0
 29 30  2  0
 30 31  1  0
 22  7  1  0
 31 23  1  0
 20 11  1  0
 30 25  1  0
 20 15  1  0
M  CHG  1   7   1
M  END
>  <Compound_ID>  (470) 
C08918784

>  <Active>  (470) 
0.0

>  <Smiles>  (470) 
C[C@@H](NC(=O)C[NH+]1CCC(n2c(=O)[nH]c3ccccc32)CC1)c1cc2ccccc2o1

>  <canonical_smi>  (470) 
C[C@@H](NC(=O)C[NH+]1CCC(n2c(=O)[nH]c3ccccc32)CC1)c1cc2ccccc2o1

>  <Set>  (470) 
G2 inactive

>  <Set_type>  (470) 
Train

>  <MW>  (470) 
419.51

>  <HBD>  (470) 
3

>  <HBA>  (470) 
3

>  <NRB>  (470) 
5

>  <NR>  (470) 
5

>  <NAR>  (470) 
4

>  <PSA>  (470) 
84.47

>  <Standard Type>  (470) 
nan

>  <Standard Relation>  (470) 
nan

>  <Standard Units>  (470) 
nan

>  <Standard Value>  (470) 
nan

>  <Assay ChEMBL ID>  (470) 
nan

>  <Assay Description>  (470) 
nan

>  <BAO Label>  (470) 
nan

$$$$

     RDKit          2D

 29 31  0  0  0  0  0  0  0  0999 V2000
    6.0000    0.0000    0.0000 C   0  0  0  0  0  0  0  0  0  0  0  0
    5.2500   -1.2990    0.0000 C   0  0  0  0  0  0  0  0  0  0  0  0
    6.0000   -2.5981    0.0000 C   0  0  0  0  0  0  0  0  0  0  0  0
    3.7500   -1.2990    0.0000 C   0  0  0  0  0  0  0  0  0  0  0  0
    3.0000    0.0000    0.0000 O   0  0  0  0  0  0  0  0  0  0  0  0
    1.5000    0.0000    0.0000 C   0  0  0  0  0  0  0  0  0  0  0  0
    0.7500   -1.2990    0.0000 C   0  0  0  0  0  0  0  0  0  0  0  0
   -0.7500   -1.2990    0.0000 C   0  0  0  0  0  0  0  0  0  0  0  0
   -1.5000   -2.5981    0.0000 O   0  0  0  0  0  0  0  0  0  0  0  0
   -3.0000   -2.5981    0.0000 C   0  0  0  0  0  0  0  0  0  0  0  0
   -3.7500   -3.8971    0.0000 O   0  0  0  0  0  0  0  0  0  0  0  0
   -3.7500   -1.2990    0.0000 C   0  0  0  0  0  0  0  0  0  0  0  0
   -5.2500   -1.2990    0.0000 C   0  0  0  0  0  0  0  0  0  0  0  0
   -6.0000   -2.5981    0.0000 C   0  0  0  0  0  0  0  0  0  0  0  0
   -5.2500   -3.8971    0.0000 O   0  0  0  0  0  0  0  0  0  0  0  0
   -7.5000   -2.5981    0.0000 N   0  0  0  0  0  0  0  0  0  0  0  0
   -8.2500   -3.8971    0.0000 C   0  0  0  0  0  0  0  0  0  0  0  0
   -9.7500   -3.8971    0.0000 C   0  0  0  0  0  0  0  0  0  0  0  0
  -10.5000   -5.1962    0.0000 C   0  0  0  0  0  0  0  0  0  0  0  0
   -9.8899   -6.5665    0.0000 C   0  0  0  0  0  0  0  0  0  0  0  0
  -11.0046   -7.5702    0.0000 N   0  0  0  0  0  4  0  0  0  0  0  0
  -12.3037   -6.8202    0.0000 C   0  0  0  0  0  0  0  0  0  0  0  0
  -11.9918   -5.3529    0.0000 N   0  0  0  0  0  0  0  0  0  0  0  0
   -3.0000    0.0000    0.0000 C   0  0  0  0  0  0  0  0  0  0  0  0
   -3.7500    1.2990    0.0000 C   0  0  0  0  0  0  0  0  0  0  0  0
   -1.5000    0.0000    0.0000 C   0  0  0  0  0  0  0  0  0  0  0  0
   -0.7500    1.2990    0.0000 C   0  0  0  0  0  0  0  0  0  0  0  0
    0.7500    1.2990    0.0000 C   0  0  0  0  0  0  0  0  0  0  0  0
    1.5000    2.5981    0.0000 Cl  0  0  0  0  0  0  0  0  0  0  0  0
  1  2  2  0
  2  3  1  0
  2  4  1  0
  4  5  1  0
  5  6  1  0
  6  7  2  0
  7  8  1  0
  8  9  1  0
  9 10  1  0
 10 11  2  0
 10 12  1  0
 12 13  1  0
 13 14  1  0
 14 15  2  0
 14 16  1  0
 16 17  1  0
 17 18  1  0
 18 19  1  0
 19 20  2  0
 20 21  1  0
 21 22  2  0
 22 23  1  0
 12 24  2  0
 24 25  1  0
 24 26  1  0
 26 27  1  0
 27 28  2  0
 28 29  1  0
 28  6  1  0
 26  8  2  0
 23 19  1  0
M  CHG  1  21   1
M  END
>  <Compound_ID>  (471) 
C09060294

>  <Active>  (471) 
0.0

>  <Smiles>  (471) 
C=C(C)COc1cc2oc(=O)c(CC(=O)NCCc3c[nH+]c[nH]3)c(C)c2cc1Cl

>  <canonical_smi>  (471) 
C=C(C)COc1cc2oc(=O)c(CC(=O)NCCc3c[nH+]c[nH]3)c(C)c2cc1Cl

>  <Set>  (471) 
G2 inactive

>  <Set_type>  (471) 
Train

>  <MW>  (471) 
416.89

>  <HBD>  (471) 
2

>  <HBA>  (471) 
4

>  <NRB>  (471) 
8

>  <NR>  (471) 
3

>  <NAR>  (471) 
3

>  <PSA>  (471) 
98.47

>  <Standard Type>  (471) 
nan

>  <Standard Relation>  (471) 
nan

>  <Standard Units>  (471) 
nan

>  <Standard Value>  (471) 
nan

>  <Assay ChEMBL ID>  (471) 
nan

>  <Assay Description>  (471) 
nan

>  <BAO Label>  (471) 
nan

$$$$

     RDKit          2D

 22 24  0  0  0  0  0  0  0  0999 V2000
    3.0000    0.0000    0.0000 C   0  0  0  0  0  0  0  0  0  0  0  0
    1.5000    0.0000    0.0000 C   0  0  0  0  0  0  0  0  0  0  0  0
    0.7500   -1.2990    0.0000 C   0  0  0  0  0  0  0  0  0  0  0  0
   -0.7500   -1.2990    0.0000 C   0  0  0  0  0  0  0  0  0  0  0  0
   -1.5000   -2.5981    0.0000 C   0  0  0  0  0  0  0  0  0  0  0  0
   -3.0000   -2.5981    0.0000 C   0  0  0  0  0  0  0  0  0  0  0  0
   -3.7500   -3.8971    0.0000 C   0  0  0  0  0  0  0  0  0  0  0  0
   -5.2500   -3.8971    0.0000 N   0  0  0  0  0  4  0  0  0  0  0  0
   -6.0000   -5.1962    0.0000 C   0  0  0  0  0  0  0  0  0  0  0  0
   -7.5000   -5.1962    0.0000 C   0  0  0  0  0  0  0  0  0  0  0  0
   -8.2500   -6.4952    0.0000 C   0  0  0  0  0  0  0  0  0  0  0  0
   -7.5000   -7.7942    0.0000 C   0  0  0  0  0  0  0  0  0  0  0  0
   -6.0000   -7.7942    0.0000 C   0  0  0  0  0  0  0  0  0  0  0  0
   -5.2500   -6.4952    0.0000 C   0  0  0  0  0  0  0  0  0  0  0  0
   -3.7500   -6.4952    0.0000 C   0  0  0  0  0  0  0  0  0  0  0  0
   -3.7500   -1.2990    0.0000 C   0  0  0  0  0  0  0  0  0  0  0  0
   -5.2500   -1.2990    0.0000 O   0  0  0  0  0  0  0  0  0  0  0  0
   -3.0000    0.0000    0.0000 N   0  0  0  0  0  0  0  0  0  0  0  0
   -1.5000    0.0000    0.0000 C   0  0  0  0  0  0  0  0  0  0  0  0
   -0.7500    1.2990    0.0000 C   0  0  0  0  0  0  0  0  0  0  0  0
    0.7500    1.2990    0.0000 C   0  0  0  0  0  0  0  0  0  0  0  0
    1.5000    2.5981    0.0000 C   0  0  0  0  0  0  0  0  0  0  0  0
  1  2  1  0
  2  3  2  0
  3  4  1  0
  4  5  1  0
  5  6  2  0
  6  7  1  0
  7  8  1  0
  9  8  1  6
  9 10  1  0
 10 11  1  0
 11 12  1  0
 12 13  1  0
 13 14  1  0
 14 15  1  6
  6 16  1  0
 16 17  2  0
 16 18  1  0
 18 19  1  0
 19 20  1  0
 20 21  2  0
 21 22  1  0
 21  2  1  0
 19  4  2  0
 14  9  1  0
M  CHG  1   8   1
M  END
>  <Compound_ID>  (472) 
C04130519

>  <Active>  (472) 
0.0

>  <Smiles>  (472) 
Cc1cc2cc(C[NH2+][C@H]3CCCC[C@H]3C)c(=O)[nH]c2cc1C

>  <canonical_smi>  (472) 
Cc1cc2cc(C[NH2+][C@H]3CCCC[C@H]3C)c(=O)[nH]c2cc1C

>  <Set>  (472) 
G2 inactive

>  <Set_type>  (472) 
Train

>  <MW>  (472) 
299.44

>  <HBD>  (472) 
2

>  <HBA>  (472) 
1

>  <NRB>  (472) 
3

>  <NR>  (472) 
3

>  <NAR>  (472) 
2

>  <PSA>  (472) 
49.47

>  <Standard Type>  (472) 
nan

>  <Standard Relation>  (472) 
nan

>  <Standard Units>  (472) 
nan

>  <Standard Value>  (472) 
nan

>  <Assay ChEMBL ID>  (472) 
nan

>  <Assay Description>  (472) 
nan

>  <BAO Label>  (472) 
nan

$$$$

     RDKit          2D

 25 29  0  0  0  0  0  0  0  0999 V2000
   -7.5000    0.0000    0.0000 C   0  0  0  0  0  0  0  0  0  0  0  0
   -5.3000    0.0000    0.0000 C   0  0  0  0  0  0  0  0  0  0  0  0
   -5.2500    1.2990    0.0000 C   0  0  0  0  0  0  0  0  0  0  0  0
   -6.0000    0.0000    0.0000 C   0  0  0  0  0  0  0  0  0  0  0  0
   -5.2500   -1.2990    0.0000 C   0  0  0  0  0  0  0  0  0  0  0  0
   -3.7500   -1.2990    0.0000 C   0  0  0  0  0  0  0  0  0  0  0  0
   -3.0000   -2.5981    0.0000 C   0  0  0  0  0  0  0  0  0  0  0  0
   -1.5000   -2.5981    0.0000 C   0  0  0  0  0  0  0  0  0  0  0  0
   -0.7500   -1.2990    0.0000 C   0  0  0  0  0  0  0  0  0  0  0  0
    0.7500   -1.2990    0.0000 C   0  0  0  0  0  0  0  0  0  0  0  0
    1.5000   -2.5981    0.0000 C   0  0  0  0  0  0  0  0  0  0  0  0
    1.5000    0.0000    0.0000 C   0  0  0  0  0  0  0  0  0  0  0  0
    0.7500    1.2990    0.0000 C   0  0  0  0  0  0  0  0  0  0  0  0
   -0.7500    1.2990    0.0000 C   0  0  0  0  0  0  0  0  0  0  0  0
   -1.5000    0.0000    0.0000 C   0  0  0  0  0  0  0  0  0  0  0  0
   -1.0154   -0.4596    0.0000 C   0  0  0  0  0  0  0  0  0  0  0  0
   -0.1000   -0.1732    0.0000 N   0  0  0  0  0  4  0  0  0  0  0  0
   -2.2500   -3.8971    0.0000 C   0  0  0  0  0  0  0  0  0  0  0  0
   -1.5000   -5.1962    0.0000 C   0  0  0  0  0  0  0  0  0  0  0  0
   -2.2500   -6.4952    0.0000 O   0  0  0  0  0  0  0  0  0  0  0  0
    0.1096   -1.1092    0.0000 C   0  0  0  0  0  0  0  0  0  0  0  0
   -3.0000    0.0000    0.0000 C   0  0  0  0  0  0  0  0  0  0  0  0
   -3.7500    1.2990    0.0000 C   0  0  0  0  0  0  0  0  0  0  0  0
   -4.9000   -0.6928    0.0000 C   0  0  0  0  0  0  0  0  0  0  0  0
   -6.0000   -2.5981    0.0000 O   0  0  0  0  0  0  0  0  0  0  0  0
  2  1  1  1
  2  3  1  0
  3  4  1  6
  4  5  1  0
  5  6  1  0
  6  7  1  1
  7  8  1  0
  9  8  1  6
  9 10  1  0
 10 11  1  6
 10 12  1  0
 12 13  1  0
 13 14  1  0
 15 14  1  1
 15 16  1  0
 16 17  1  0
 17 18  1  0
 18 19  1  0
 19 20  1  0
 17 21  1  0
 15 22  1  0
 22 23  1  1
  6 24  1  0
 24 25  1  1
 24  2  1  0
 23  3  1  0
 22  6  1  0
 15  9  1  0
 21 10  1  0
M  CHG  1  17   1
M  END
>  <Compound_ID>  (473) 
C16951681

>  <Active>  (473) 
0.0

>  <Smiles>  (473) 
C[C@H]1[C@@H]2CC[C@]3(CC[C@H]4[C@]5(C)CCC[C@]4(C[NH+](CCO)C5)[C@@H]3C2)[C@H]1O

>  <canonical_smi>  (473) 
C[C@@H]1[C@H](O)[C@]23CC[C@H]4[C@]5(C)CCC[C@]4(C[NH+](CCO)C5)[C@@H]2C[C@H]1CC3

>  <Set>  (473) 
G2 inactive

>  <Set_type>  (473) 
Train

>  <MW>  (473) 
348.55

>  <HBD>  (473) 
3

>  <HBA>  (473) 
2

>  <NRB>  (473) 
2

>  <NR>  (473) 
6

>  <NAR>  (473) 
0

>  <PSA>  (473) 
44.9

>  <Standard Type>  (473) 
nan

>  <Standard Relation>  (473) 
nan

>  <Standard Units>  (473) 
nan

>  <Standard Value>  (473) 
nan

>  <Assay ChEMBL ID>  (473) 
nan

>  <Assay Description>  (473) 
nan

>  <BAO Label>  (473) 
nan

$$$$

     RDKit          2D

 21 24  0  0  0  0  0  0  0  0999 V2000
   -0.7500   -6.4952    0.0000 N   0  0  0  0  0  4  0  0  0  0  0  0
   -1.5000   -5.1962    0.0000 C   0  0  0  0  0  0  0  0  0  0  0  0
   -3.0000   -5.1962    0.0000 C   0  0  0  0  0  0  0  0  0  0  0  0
   -3.8817   -3.9826    0.0000 C   0  0  0  0  0  0  0  0  0  0  0  0
   -5.3083   -4.4462    0.0000 C   0  0  0  0  0  0  0  0  0  0  0  0
   -5.3083   -5.9462    0.0000 C   0  0  0  0  0  0  0  0  0  0  0  0
   -3.8817   -6.4097    0.0000 S   0  0  0  0  0  0  0  0  0  0  0  0
   -6.7348   -6.4097    0.0000 C   0  0  0  0  0  0  0  0  0  0  0  0
   -7.6165   -5.1962    0.0000 C   0  0  0  0  0  0  0  0  0  0  0  0
   -6.7348   -3.9826    0.0000 C   0  0  0  0  0  0  0  0  0  0  0  0
   -0.7500   -3.8971    0.0000 C   0  0  0  0  0  0  0  0  0  0  0  0
   -1.5000   -2.5981    0.0000 C   0  0  0  0  0  0  0  0  0  0  0  0
   -0.7500   -1.2990    0.0000 C   0  0  0  0  0  0  0  0  0  0  0  0
    0.7500   -1.2990    0.0000 C   0  0  0  0  0  0  0  0  0  0  0  0
    1.5000   -2.5981    0.0000 C   0  0  0  0  0  0  0  0  0  0  0  0
    0.7500   -3.8971    0.0000 C   0  0  0  0  0  0  0  0  0  0  0  0
    1.5000   -5.1962    0.0000 Br  0  0  0  0  0  0  0  0  0  0  0  0
    1.5000    0.0000    0.0000 O   0  0  0  0  0  0  0  0  0  0  0  0
    0.7500    1.2990    0.0000 C   0  0  0  0  0  0  0  0  0  0  0  0
   -0.7500    1.2990    0.0000 C   0  0  0  0  0  0  0  0  0  0  0  0
   -1.5000    0.0000    0.0000 O   0  0  0  0  0  0  0  0  0  0  0  0
  2  1  1  6
  2  3  1  0
  3  4  2  0
  4  5  1  0
  5  6  2  0
  6  7  1  0
  6  8  1  0
  8  9  1  0
  9 10  1  0
  2 11  1  0
 11 12  2  0
 12 13  1  0
 13 14  2  0
 14 15  1  0
 15 16  2  0
 16 17  1  0
 14 18  1  0
 18 19  1  0
 19 20  1  0
 20 21  1  0
  7  3  1  0
 16 11  1  0
 10  5  1  0
 21 13  1  0
M  CHG  1   1   1
M  END
>  <Compound_ID>  (474) 
C35381972

>  <Active>  (474) 
0.0

>  <Smiles>  (474) 
[NH3+][C@H](c1cc2c(s1)CCC2)c1cc2c(cc1Br)OCCO2

>  <canonical_smi>  (474) 
[NH3+][C@H](c1cc2c(s1)CCC2)c1cc2c(cc1Br)OCCO2

>  <Set>  (474) 
G2 inactive

>  <Set_type>  (474) 
Train

>  <MW>  (474) 
367.29

>  <HBD>  (474) 
1

>  <HBA>  (474) 
2

>  <NRB>  (474) 
2

>  <NR>  (474) 
4

>  <NAR>  (474) 
2

>  <PSA>  (474) 
46.1

>  <Standard Type>  (474) 
nan

>  <Standard Relation>  (474) 
nan

>  <Standard Units>  (474) 
nan

>  <Standard Value>  (474) 
nan

>  <Assay ChEMBL ID>  (474) 
nan

>  <Assay Description>  (474) 
nan

>  <BAO Label>  (474) 
nan

$$$$

     RDKit          2D

 21 23  0  0  0  0  0  0  0  0999 V2000
   -5.3120   -0.6406    0.0000 C   0  0  0  0  0  0  0  0  0  0  0  0
   -3.8855   -0.1771    0.0000 C   0  0  0  0  0  0  0  0  0  0  0  0
   -2.7707   -1.1807    0.0000 C   0  0  0  0  0  0  0  0  0  0  0  0
   -3.5736    1.2902    0.0000 N   0  0  0  0  0  0  0  0  0  0  0  0
   -4.6883    2.2939    0.0000 C   0  0  0  0  0  0  0  0  0  0  0  0
   -6.1149    1.8303    0.0000 C   0  0  0  0  0  0  0  0  0  0  0  0
   -7.2296    2.8340    0.0000 C   0  0  0  0  0  0  0  0  0  0  0  0
   -8.6562    2.3705    0.0000 C   0  0  0  0  0  0  0  0  0  0  0  0
   -8.9681    0.9033    0.0000 C   0  0  0  0  0  0  0  0  0  0  0  0
  -10.3946    0.4398    0.0000 N   0  0  0  0  0  0  0  0  0  0  0  0
   -7.8533   -0.1004    0.0000 C   0  0  0  0  0  0  0  0  0  0  0  0
   -6.4268    0.3631    0.0000 C   0  0  0  0  0  0  0  0  0  0  0  0
   -2.1470    1.7537    0.0000 C   0  0  0  0  0  0  0  0  0  0  0  0
   -1.8351    3.2209    0.0000 N   0  0  0  0  0  4  0  0  0  0  0  0
   -0.4086    3.6844    0.0000 C   0  0  0  0  0  0  0  0  0  0  0  0
    0.7062    2.6807    0.0000 C   0  0  0  0  0  0  0  0  0  0  0  0
    0.3943    1.2135    0.0000 C   0  0  0  0  0  0  0  0  0  0  0  0
    1.2760    0.0000    0.0000 S   0  0  0  0  0  0  0  0  0  0  0  0
    0.3943   -1.2135    0.0000 C   0  0  0  0  0  0  0  0  0  0  0  0
   -1.0323   -0.7500    0.0000 C   0  0  0  0  0  0  0  0  0  0  0  0
   -1.0323    0.7500    0.0000 C   0  0  0  0  0  0  0  0  0  0  0  0
  1  2  1  0
  2  3  1  0
  2  4  1  0
  4  5  1  0
  5  6  1  0
  6  7  2  0
  7  8  1  0
  8  9  2  0
  9 10  1  0
  9 11  1  0
 11 12  2  0
  4 13  1  0
 13 14  2  0
 14 15  1  0
 15 16  2  0
 16 17  1  0
 17 18  1  0
 18 19  1  0
 19 20  2  0
 20 21  1  0
 12  6  1  0
 21 13  1  0
 21 17  2  0
M  CHG  1  14   1
M  END
>  <Compound_ID>  (475) 
C37671754

>  <Active>  (475) 
0.0

>  <Smiles>  (475) 
CC(C)N(Cc1ccc(N)cc1)c1[nH+]ccc2sccc12

>  <canonical_smi>  (475) 
CC(C)N(Cc1ccc(N)cc1)c1[nH+]ccc2sccc12

>  <Set>  (475) 
G2 inactive

>  <Set_type>  (475) 
Train

>  <MW>  (475) 
298.44

>  <HBD>  (475) 
1

>  <HBA>  (475) 
2

>  <NRB>  (475) 
4

>  <NR>  (475) 
3

>  <NAR>  (475) 
3

>  <PSA>  (475) 
43.4

>  <Standard Type>  (475) 
nan

>  <Standard Relation>  (475) 
nan

>  <Standard Units>  (475) 
nan

>  <Standard Value>  (475) 
nan

>  <Assay ChEMBL ID>  (475) 
nan

>  <Assay Description>  (475) 
nan

>  <BAO Label>  (475) 
nan

$$$$

     RDKit          2D

 21 23  0  0  0  0  0  0  0  0999 V2000
    3.7500   -3.8971    0.0000 O   0  0  0  0  0  0  0  0  0  0  0  0
    3.0000   -5.1962    0.0000 C   0  0  0  0  0  0  0  0  0  0  0  0
    3.7500   -6.4952    0.0000 O   0  0  0  0  0  1  0  0  0  0  0  0
    1.5000   -5.1962    0.0000 C   0  0  0  0  0  0  0  0  0  0  0  0
    0.7500   -6.4952    0.0000 C   0  0  0  0  0  0  0  0  0  0  0  0
   -0.7500   -6.4952    0.0000 C   0  0  0  0  0  0  0  0  0  0  0  0
   -1.5000   -5.1962    0.0000 C   0  0  0  0  0  0  0  0  0  0  0  0
   -0.7500   -3.8971    0.0000 C   0  0  0  0  0  0  0  0  0  0  0  0
    0.7500   -3.8971    0.0000 C   0  0  0  0  0  0  0  0  0  0  0  0
    1.5000   -2.5981    0.0000 C   0  0  0  0  0  0  0  0  0  0  0  0
    3.0000   -2.5981    0.0000 O   0  0  0  0  0  0  0  0  0  0  0  0
    0.7500   -1.2990    0.0000 C   0  0  0  0  0  0  0  0  0  0  0  0
    1.5000    0.0000    0.0000 C   0  0  0  0  0  0  0  0  0  0  0  0
    0.7500    1.2990    0.0000 C   0  0  0  0  0  0  0  0  0  0  0  0
   -0.7500    1.2990    0.0000 C   0  0  0  0  0  0  0  0  0  0  0  0
   -1.7537    2.4138    0.0000 N   0  0  0  0  0  0  0  0  0  0  0  0
   -3.1240    1.8037    0.0000 C   0  0  0  0  0  0  0  0  0  0  0  0
   -4.4231    2.5537    0.0000 O   0  0  0  0  0  0  0  0  0  0  0  0
   -2.9672    0.3119    0.0000 N   0  0  0  0  0  0  0  0  0  0  0  0
   -1.5000    0.0000    0.0000 C   0  0  0  0  0  0  0  0  0  0  0  0
   -0.7500   -1.2990    0.0000 C   0  0  0  0  0  0  0  0  0  0  0  0
  1  2  2  0
  2  3  1  0
  4  2  1  1
  4  5  1  0
  5  6  1  0
  6  7  1  0
  7  8  1  0
  9  8  1  1
  9 10  1  0
 10 11  1  1
 10 12  1  0
 12 13  2  0
 13 14  1  0
 14 15  2  0
 15 16  1  0
 16 17  1  0
 17 18  2  0
 17 19  1  0
 19 20  1  0
 20 21  2  0
  9  4  1  0
 21 12  1  0
 20 15  1  0
M  CHG  1   3  -1
M  END
>  <Compound_ID>  (476) 
C20433430

>  <Active>  (476) 
0.0

>  <Smiles>  (476) 
O=C([O-])[C@H]1CCCC[C@H]1[C@H](O)c1ccc2[nH]c(=O)[nH]c2c1

>  <canonical_smi>  (476) 
O=C([O-])[C@H]1CCCC[C@H]1[C@H](O)c1ccc2[nH]c(=O)[nH]c2c1

>  <Set>  (476) 
G2 inactive

>  <Set_type>  (476) 
Train

>  <MW>  (476) 
289.31

>  <HBD>  (476) 
3

>  <HBA>  (476) 
4

>  <NRB>  (476) 
3

>  <NR>  (476) 
3

>  <NAR>  (476) 
2

>  <PSA>  (476) 
109.01

>  <Standard Type>  (476) 
nan

>  <Standard Relation>  (476) 
nan

>  <Standard Units>  (476) 
nan

>  <Standard Value>  (476) 
nan

>  <Assay ChEMBL ID>  (476) 
nan

>  <Assay Description>  (476) 
nan

>  <BAO Label>  (476) 
nan

$$$$

     RDKit          2D

 21 22  0  0  0  0  0  0  0  0999 V2000
   -2.5981   -8.1073    0.0000 C   0  0  0  0  0  0  0  0  0  0  0  0
   -1.2990   -7.3573    0.0000 C   0  0  0  0  0  0  0  0  0  0  0  0
   -0.0000   -8.1073    0.0000 C   0  0  0  0  0  0  0  0  0  0  0  0
   -1.2990   -5.8573    0.0000 C   0  0  0  0  0  0  0  0  0  0  0  0
   -0.0000   -5.1073    0.0000 S   0  0  0  0  0  0  0  0  0  0  0  0
   -0.0000   -3.6073    0.0000 C   0  0  0  0  0  0  0  0  0  0  0  0
    1.2135   -2.7256    0.0000 N   0  0  0  0  0  0  0  0  0  0  0  0
    0.7500   -1.2990    0.0000 C   0  0  0  0  0  0  0  0  0  0  0  0
    1.5000    0.0000    0.0000 N   0  0  0  0  0  0  0  0  0  0  0  0
    0.7500    1.2990    0.0000 C   0  0  0  0  0  0  0  0  0  0  0  0
   -0.7500    1.2990    0.0000 C   0  0  0  0  0  0  0  0  0  0  0  0
   -1.5000    2.5981    0.0000 Cl  0  0  0  0  0  0  0  0  0  0  0  0
   -1.5000    0.0000    0.0000 C   0  0  0  0  0  0  0  0  0  0  0  0
   -0.7500   -1.2990    0.0000 C   0  0  0  0  0  0  0  0  0  0  0  0
   -1.2135   -2.7256    0.0000 N   0  0  0  0  0  2  0  0  0  0  0  0
   -2.5981   -5.1073    0.0000 C   0  0  0  0  0  0  0  0  0  0  0  0
   -2.5981   -3.6073    0.0000 O   0  0  0  0  0  0  0  0  0  0  0  0
   -3.8971   -5.8573    0.0000 N   0  0  0  0  0  0  0  0  0  0  0  0
   -5.1962   -5.1073    0.0000 C   0  0  0  0  0  0  0  0  0  0  0  0
   -6.4952   -5.8573    0.0000 N   0  0  0  0  0  0  0  0  0  0  0  0
   -5.1962   -3.6073    0.0000 O   0  0  0  0  0  0  0  0  0  0  0  0
  1  2  1  0
  2  3  1  0
  2  4  1  0
  4  5  1  1
  5  6  1  0
  6  7  2  0
  7  8  1  0
  8  9  2  0
  9 10  1  0
 10 11  2  0
 11 12  1  0
 11 13  1  0
 13 14  2  0
 14 15  1  0
  4 16  1  0
 16 17  2  0
 16 18  1  0
 18 19  1  0
 19 20  1  0
 19 21  2  0
 15  6  1  0
 14  8  1  0
M  CHG  1  15  -1
M  END
>  <Compound_ID>  (477) 
C05310022

>  <Active>  (477) 
0.0

>  <Smiles>  (477) 
CC(C)[C@H](Sc1nc2ncc(Cl)cc2[n-]1)C(=O)NC(N)=O

>  <canonical_smi>  (477) 
CC(C)[C@H](Sc1nc2ncc(Cl)cc2[n-]1)C(=O)NC(N)=O

>  <Set>  (477) 
G2 inactive

>  <Set_type>  (477) 
Train

>  <MW>  (477) 
326.79

>  <HBD>  (477) 
2

>  <HBA>  (477) 
6

>  <NRB>  (477) 
4

>  <NR>  (477) 
2

>  <NAR>  (477) 
2

>  <PSA>  (477) 
112.07

>  <Standard Type>  (477) 
nan

>  <Standard Relation>  (477) 
nan

>  <Standard Units>  (477) 
nan

>  <Standard Value>  (477) 
nan

>  <Assay ChEMBL ID>  (477) 
nan

>  <Assay Description>  (477) 
nan

>  <BAO Label>  (477) 
nan

$$$$

     RDKit          2D

 20 21  0  0  0  0  0  0  0  0999 V2000
   -0.7500   -6.4952    0.0000 N   0  0  0  0  0  0  0  0  0  0  0  0
    0.7500   -6.4952    0.0000 C   0  0  0  0  0  0  0  0  0  0  0  0
    1.5000   -5.1962    0.0000 N   0  0  0  0  0  0  0  0  0  0  0  0
    0.7500   -3.8971    0.0000 N   0  0  0  0  0  4  0  0  0  0  0  0
    1.5000   -2.5981    0.0000 C   0  0  0  0  0  0  0  0  0  0  0  0
    0.7500   -1.2990    0.0000 C   0  0  0  0  0  0  0  0  0  0  0  0
    1.5000    0.0000    0.0000 C   0  0  0  0  0  0  0  0  0  0  0  0
    0.7500    1.2990    0.0000 C   0  0  0  0  0  0  0  0  0  0  0  0
    1.5000    2.5981    0.0000 Cl  0  0  0  0  0  0  0  0  0  0  0  0
   -0.7500    1.2990    0.0000 C   0  0  0  0  0  0  0  0  0  0  0  0
   -1.5000    0.0000    0.0000 C   0  0  0  0  0  0  0  0  0  0  0  0
   -3.0000    0.0000    0.0000 Cl  0  0  0  0  0  0  0  0  0  0  0  0
   -0.7500   -1.2990    0.0000 C   0  0  0  0  0  0  0  0  0  0  0  0
   -1.5000   -2.5981    0.0000 O   0  0  0  0  0  1  0  0  0  0  0  0
    1.5000   -7.7942    0.0000 C   0  0  0  0  0  0  0  0  0  0  0  0
    2.9918   -7.9510    0.0000 N   0  0  0  0  0  0  0  0  0  0  0  0
    3.3037   -9.4182    0.0000 O   0  0  0  0  0  0  0  0  0  0  0  0
    2.0046  -10.1682    0.0000 N   0  0  0  0  0  0  0  0  0  0  0  0
    0.8899   -9.1645    0.0000 C   0  0  0  0  0  0  0  0  0  0  0  0
   -0.5773   -9.4764    0.0000 N   0  0  0  0  0  0  0  0  0  0  0  0
  1  2  1  0
  2  3  2  0
  3  4  1  0
  4  5  2  0
  5  6  1  0
  6  7  2  0
  7  8  1  0
  8  9  1  0
  8 10  2  0
 10 11  1  0
 11 12  1  0
 11 13  2  0
 13 14  1  0
  2 15  1  0
 15 16  2  0
 16 17  1  0
 17 18  1  0
 18 19  2  0
 19 20  1  0
 13  6  1  0
 19 15  1  0
M  CHG  2   4   1  14  -1
M  END
>  <Compound_ID>  (478) 
C08572939

>  <Active>  (478) 
0.0

>  <Smiles>  (478) 
N/C(=N\[NH+]=C\c1cc(Cl)cc(Cl)c1[O-])c1nonc1N

>  <canonical_smi>  (478) 
N/C(=N\[NH+]=C\c1cc(Cl)cc(Cl)c1[O-])c1nonc1N

>  <Set>  (478) 
G2 inactive

>  <Set_type>  (478) 
Train

>  <MW>  (478) 
315.12

>  <HBD>  (478) 
3

>  <HBA>  (478) 
6

>  <NRB>  (478) 
3

>  <NR>  (478) 
2

>  <NAR>  (478) 
2

>  <PSA>  (478) 
140.35

>  <Standard Type>  (478) 
nan

>  <Standard Relation>  (478) 
nan

>  <Standard Units>  (478) 
nan

>  <Standard Value>  (478) 
nan

>  <Assay ChEMBL ID>  (478) 
nan

>  <Assay Description>  (478) 
nan

>  <BAO Label>  (478) 
nan

$$$$

     RDKit          2D

 21 24  0  0  0  0  0  0  0  0999 V2000
    5.5798   -1.8724    0.0000 N   0  0  0  0  0  0  0  0  0  0  0  0
    5.0260   -1.2990    0.0000 C   0  0  0  0  0  0  0  0  0  0  0  0
    5.7760    0.0000    0.0000 S   0  0  0  0  0  0  0  0  0  0  0  0
    3.5260   -1.2990    0.0000 N   0  0  0  0  0  0  0  0  0  0  0  0
    2.7760    0.0000    0.0000 N   0  0  0  0  0  0  0  0  0  0  0  0
    1.2760    0.0000    0.0000 C   0  0  0  0  0  0  0  0  0  0  0  0
    0.3943    1.2135    0.0000 C   0  0  0  0  0  0  0  0  0  0  0  0
   -1.0323    0.7500    0.0000 C   0  0  0  0  0  0  0  0  0  0  0  0
   -1.0323   -4.6771    0.0000 C   0  0  0  0  0  0  0  0  0  0  0  0
    0.3943   -5.1406    0.0000 C   0  0  0  0  0  0  0  0  0  0  0  0
    1.2760   -3.9271    0.0000 C   0  0  0  0  0  0  0  0  0  0  0  0
    2.7760   -3.9271    0.0000 N   0  0  0  0  0  0  0  0  0  0  0  0
    3.5260   -2.6280    0.0000 N   0  0  0  0  0  0  0  0  0  0  0  0
    5.0260   -2.6280    0.0000 C   0  0  0  0  0  0  0  0  0  0  0  0
    5.5798   -2.0546    0.0000 N   0  0  0  0  0  0  0  0  0  0  0  0
    5.7760   -3.9271    0.0000 S   0  0  0  0  0  0  0  0  0  0  0  0
    0.3943   -2.7135    0.0000 C   0  0  0  0  0  0  0  0  0  0  0  0
   -1.0323   -3.1771    0.0000 C   0  0  0  0  0  0  0  0  0  0  0  0
   -1.9140   -1.9635    0.0000 C   0  0  0  0  0  0  0  0  0  0  0  0
   -1.0323   -0.7500    0.0000 C   0  0  0  0  0  0  0  0  0  0  0  0
    0.3943   -1.2135    0.0000 C   0  0  0  0  0  0  0  0  0  0  0  0
  1  2  1  0
  2  3  2  0
  2  4  1  0
  4  5  1  0
  5  6  2  0
  6  7  1  0
  8  7  1  1
  8  9  1  0
  9 10  1  1
 10 11  1  0
 11 12  2  0
 12 13  1  0
 13 14  1  0
 14 15  1  0
 14 16  2  0
 17 11  1  1
 17 18  1  0
 18 19  1  1
 20 19  1  1
 20 21  1  0
 21  6  1  1
 20  8  1  0
 18  9  1  0
 21 17  1  0
M  END
>  <Compound_ID>  (479) 
C39944310

>  <Active>  (479) 
0.0

>  <Smiles>  (479) 
NC(=S)N/N=C1/C[C@@H]2[C@@H]3C/C(=N/NC(N)=S)[C@H]4[C@@H]3C[C@@H]2[C@@H]14

>  <canonical_smi>  (479) 
NC(=S)N/N=C1/C[C@H]2[C@H]3C/C(=N/NC(N)=S)[C@@H]4[C@H]3C[C@H]2[C@H]14

>  <Set>  (479) 
G2 inactive

>  <Set_type>  (479) 
Train

>  <MW>  (479) 
322.46

>  <HBD>  (479) 
4

>  <HBA>  (479) 
6

>  <NRB>  (479) 
2

>  <NR>  (479) 
4

>  <NAR>  (479) 
0

>  <PSA>  (479) 
100.82

>  <Standard Type>  (479) 
nan

>  <Standard Relation>  (479) 
nan

>  <Standard Units>  (479) 
nan

>  <Standard Value>  (479) 
nan

>  <Assay ChEMBL ID>  (479) 
nan

>  <Assay Description>  (479) 
nan

>  <BAO Label>  (479) 
nan

$$$$

     RDKit          2D

 20 22  0  0  0  0  0  0  0  0999 V2000
    2.7760    0.0000    0.0000 C   0  0  0  0  0  0  0  0  0  0  0  0
    1.2760    0.0000    0.0000 C   0  0  0  0  0  0  0  0  0  0  0  0
    0.3943    1.2135    0.0000 N   0  0  0  0  0  0  0  0  0  0  0  0
   -1.0323    0.7500    0.0000 C   0  0  0  0  0  0  0  0  0  0  0  0
   -2.3313    1.5000    0.0000 C   0  0  0  0  0  0  0  0  0  0  0  0
   -3.6304    0.7500    0.0000 C   0  0  0  0  0  0  0  0  0  0  0  0
   -4.9294    1.5000    0.0000 S   0  0  0  0  0  0  0  0  0  0  0  0
   -4.9294    3.0000    0.0000 C   0  0  0  0  0  0  0  0  0  0  0  0
   -3.6304    3.7500    0.0000 N   0  0  0  0  0  0  0  0  0  0  0  0
   -3.6304    5.2500    0.0000 C   0  0  0  0  0  0  0  0  0  0  0  0
   -2.3313    6.0000    0.0000 N   0  0  0  0  0  0  0  0  0  0  0  0
   -4.9294    6.0000    0.0000 C   0  0  0  0  0  0  0  0  0  0  0  0
   -6.2284    5.2500    0.0000 C   0  0  0  0  0  0  0  0  0  0  0  0
   -7.5275    6.0000    0.0000 O   0  0  0  0  0  0  0  0  0  0  0  0
   -6.2284    3.7500    0.0000 N   0  0  0  0  0  0  0  0  0  0  0  0
   -3.6304   -0.7500    0.0000 C   0  0  0  0  0  0  0  0  0  0  0  0
   -4.9294   -1.5000    0.0000 N   0  0  0  0  0  0  0  0  0  0  0  0
   -2.3313   -1.5000    0.0000 C   0  0  0  0  0  0  0  0  0  0  0  0
   -1.0323   -0.7500    0.0000 C   0  0  0  0  0  0  0  0  0  0  0  0
    0.3943   -1.2135    0.0000 S   0  0  0  0  0  0  0  0  0  0  0  0
  1  2  1  0
  2  3  2  0
  3  4  1  0
  4  5  2  0
  5  6  1  0
  6  7  1  0
  7  8  1  0
  8  9  2  0
  9 10  1  0
 10 11  1  0
 10 12  2  0
 12 13  1  0
 13 14  2  0
 13 15  1  0
  6 16  2  0
 16 17  1  0
 16 18  1  0
 18 19  2  0
 19 20  1  0
 20  2  1  0
 19  4  1  0
 15  8  1  0
M  END
>  <Compound_ID>  (480) 
C41027106

>  <Active>  (480) 
0.0

>  <Smiles>  (480) 
Cc1nc2cc(Sc3nc(N)cc(=O)[nH]3)c(N)cc2s1

>  <canonical_smi>  (480) 
Cc1nc2cc(Sc3nc(N)cc(=O)[nH]3)c(N)cc2s1

>  <Set>  (480) 
G2 inactive

>  <Set_type>  (480) 
Train

>  <MW>  (480) 
305.39

>  <HBD>  (480) 
3

>  <HBA>  (480) 
6

>  <NRB>  (480) 
2

>  <NR>  (480) 
3

>  <NAR>  (480) 
3

>  <PSA>  (480) 
110.68

>  <Standard Type>  (480) 
nan

>  <Standard Relation>  (480) 
nan

>  <Standard Units>  (480) 
nan

>  <Standard Value>  (480) 
nan

>  <Assay ChEMBL ID>  (480) 
nan

>  <Assay Description>  (480) 
nan

>  <BAO Label>  (480) 
nan

$$$$

     RDKit          2D

 17 18  0  0  0  0  0  0  0  0999 V2000
    3.0000    0.0000    0.0000 N   0  0  0  0  0  0  0  0  0  0  0  0
    1.5000    0.0000    0.0000 C   0  0  0  0  0  0  0  0  0  0  0  0
    0.7500   -1.2990    0.0000 C   0  0  0  0  0  0  0  0  0  0  0  0
   -0.7500   -1.2990    0.0000 C   0  0  0  0  0  0  0  0  0  0  0  0
   -1.5000   -2.5981    0.0000 O   0  0  0  0  0  1  0  0  0  0  0  0
   -1.5000    0.0000    0.0000 N   0  0  0  0  0  0  0  0  0  0  0  0
   -0.7500    1.2990    0.0000 C   0  0  0  0  0  0  0  0  0  0  0  0
   -1.5000    2.5981    0.0000 S   0  0  0  0  0  0  0  0  0  0  0  0
   -0.7500    3.8971    0.0000 C   0  0  0  0  0  0  0  0  0  0  0  0
   -1.5000    5.1962    0.0000 C   0  0  0  0  0  0  0  0  0  0  0  0
   -0.7500    6.4952    0.0000 N   0  0  0  0  0  4  0  0  0  0  0  0
    0.7500    3.8971    0.0000 C   0  0  0  0  0  0  0  0  0  0  0  0
    1.6317    5.1106    0.0000 C   0  0  0  0  0  0  0  0  0  0  0  0
    3.0583    4.6471    0.0000 C   0  0  0  0  0  0  0  0  0  0  0  0
    3.0583    3.1471    0.0000 C   0  0  0  0  0  0  0  0  0  0  0  0
    1.6317    2.6836    0.0000 S   0  0  0  0  0  0  0  0  0  0  0  0
    0.7500    1.2990    0.0000 N   0  0  0  0  0  0  0  0  0  0  0  0
  1  2  1  0
  2  3  2  0
  3  4  1  0
  4  5  1  0
  4  6  2  0
  6  7  1  0
  7  8  1  0
  8  9  1  0
  9 10  1  6
 10 11  1  0
  9 12  1  0
 12 13  2  0
 13 14  1  0
 14 15  2  0
 15 16  1  0
  7 17  2  0
 17  2  1  0
 16 12  1  0
M  CHG  2   5  -1  11   1
M  END
>  <Compound_ID>  (481) 
C43114742

>  <Active>  (481) 
0.0

>  <Smiles>  (481) 
Nc1cc([O-])nc(S[C@H](C[NH3+])c2cccs2)n1

>  <canonical_smi>  (481) 
Nc1cc([O-])nc(S[C@H](C[NH3+])c2cccs2)n1

>  <Set>  (481) 
G2 inactive

>  <Set_type>  (481) 
Train

>  <MW>  (481) 
268.37

>  <HBD>  (481) 
2

>  <HBA>  (481) 
5

>  <NRB>  (481) 
4

>  <NR>  (481) 
2

>  <NAR>  (481) 
2

>  <PSA>  (481) 
102.5

>  <Standard Type>  (481) 
nan

>  <Standard Relation>  (481) 
nan

>  <Standard Units>  (481) 
nan

>  <Standard Value>  (481) 
nan

>  <Assay ChEMBL ID>  (481) 
nan

>  <Assay Description>  (481) 
nan

>  <BAO Label>  (481) 
nan

$$$$

     RDKit          2D

 19 20  0  0  0  0  0  0  0  0999 V2000
   -0.7500   -3.8971    0.0000 C   0  0  0  0  0  0  0  0  0  0  0  0
    0.7500   -3.8971    0.0000 C   0  0  0  0  0  0  0  0  0  0  0  0
    1.5000   -2.5981    0.0000 N   0  0  0  0  0  0  0  0  0  0  0  0
    0.7500   -1.2990    0.0000 C   0  0  0  0  0  0  0  0  0  0  0  0
    1.5000    0.0000    0.0000 C   0  0  0  0  0  0  0  0  0  0  0  0
    0.7500    1.2990    0.0000 C   0  0  0  0  0  0  0  0  0  0  0  0
    1.5000    2.5981    0.0000 C   0  0  0  0  0  0  0  0  0  0  0  0
    3.0000    2.5981    0.0000 N   0  0  0  0  0  0  0  0  0  0  0  0
    0.7500    3.8971    0.0000 O   0  0  0  0  0  0  0  0  0  0  0  0
   -0.7500    1.2990    0.0000 C   0  0  0  0  0  0  0  0  0  0  0  0
   -1.5000    2.5981    0.0000 N   0  0  0  0  0  0  0  0  0  0  0  0
   -1.5000    0.0000    0.0000 C   0  0  0  0  0  0  0  0  0  0  0  0
   -0.7500   -1.2990    0.0000 C   0  0  0  0  0  0  0  0  0  0  0  0
   -1.5000   -2.5981    0.0000 F   0  0  0  0  0  0  0  0  0  0  0  0
    1.5000   -5.1962    0.0000 C   0  0  0  0  0  0  0  0  0  0  0  0
    2.9918   -5.3529    0.0000 C   0  0  0  0  0  0  0  0  0  0  0  0
    3.3037   -6.8202    0.0000 C   0  0  0  0  0  0  0  0  0  0  0  0
    2.0046   -7.5702    0.0000 C   0  0  0  0  0  0  0  0  0  0  0  0
    0.8899   -6.5665    0.0000 O   0  0  0  0  0  0  0  0  0  0  0  0
  2  1  1  1
  2  3  1  0
  3  4  1  0
  4  5  2  0
  5  6  1  0
  6  7  1  0
  7  8  1  0
  7  9  2  0
  6 10  2  0
 10 11  1  0
 10 12  1  0
 12 13  2  0
 13 14  1  0
  2 15  1  0
 15 16  1  6
 16 17  1  0
 17 18  1  0
 18 19  1  0
 13  4  1  0
 19 15  1  0
M  END
>  <Compound_ID>  (482) 
C50029855

>  <Active>  (482) 
0.0

>  <Smiles>  (482) 
C[C@@H](Nc1cc(C(N)=O)c(N)cc1F)[C@@H]1CCCO1

>  <canonical_smi>  (482) 
C[C@@H](Nc1cc(C(N)=O)c(N)cc1F)[C@@H]1CCCO1

>  <Set>  (482) 
G2 inactive

>  <Set_type>  (482) 
Train

>  <MW>  (482) 
267.3

>  <HBD>  (482) 
3

>  <HBA>  (482) 
4

>  <NRB>  (482) 
4

>  <NR>  (482) 
2

>  <NAR>  (482) 
1

>  <PSA>  (482) 
90.37

>  <Standard Type>  (482) 
nan

>  <Standard Relation>  (482) 
nan

>  <Standard Units>  (482) 
nan

>  <Standard Value>  (482) 
nan

>  <Assay ChEMBL ID>  (482) 
nan

>  <Assay Description>  (482) 
nan

>  <BAO Label>  (482) 
nan

$$$$

     RDKit          2D

 16 16  0  0  0  0  0  0  0  0999 V2000
    3.7500    1.2990    0.0000 C   0  0  0  0  0  0  0  0  0  0  0  0
    3.0000    0.0000    0.0000 C   0  0  0  0  0  0  0  0  0  0  0  0
    3.7500   -1.2990    0.0000 N   0  0  0  0  0  0  0  0  0  0  0  0
    5.2500   -1.2990    0.0000 N   0  0  0  0  0  0  0  0  0  0  0  0
    6.0000   -2.5981    0.0000 C   0  0  0  0  0  0  0  0  0  0  0  0
    7.5000   -2.5981    0.0000 N   0  0  0  0  0  0  0  0  0  0  0  0
    5.2500   -3.8971    0.0000 O   0  0  0  0  0  0  0  0  0  0  0  0
    1.5000    0.0000    0.0000 C   0  0  0  0  0  0  0  0  0  0  0  0
    0.7500   -1.2990    0.0000 C   0  0  0  0  0  0  0  0  0  0  0  0
   -0.7500   -1.2990    0.0000 C   0  0  0  0  0  0  0  0  0  0  0  0
   -1.5000   -2.5981    0.0000 Cl  0  0  0  0  0  0  0  0  0  0  0  0
   -1.5000    0.0000    0.0000 C   0  0  0  0  0  0  0  0  0  0  0  0
   -0.7500    1.2990    0.0000 C   0  0  0  0  0  0  0  0  0  0  0  0
   -1.5000    2.5981    0.0000 Cl  0  0  0  0  0  0  0  0  0  0  0  0
    0.7500    1.2990    0.0000 C   0  0  0  0  0  0  0  0  0  0  0  0
    1.5000    2.5981    0.0000 O   0  0  0  0  0  0  0  0  0  0  0  0
  1  2  1  0
  2  3  1  0
  3  4  1  0
  4  5  1  0
  5  6  1  0
  5  7  2  0
  2  8  2  0
  8  9  1  0
  9 10  2  0
 10 11  1  0
 10 12  1  0
 12 13  2  0
 13 14  1  0
 13 15  1  0
 15 16  2  0
 15  8  1  0
M  END
>  <Compound_ID>  (483) 
C13123085

>  <Active>  (483) 
0.0

>  <Smiles>  (483) 
C/C(NNC(N)=O)=C1/C=C(Cl)C=C(Cl)C1=O

>  <canonical_smi>  (483) 
C/C(NNC(N)=O)=C1/C=C(Cl)C=C(Cl)C1=O

>  <Set>  (483) 
G2 inactive

>  <Set_type>  (483) 
Train

>  <MW>  (483) 
262.1

>  <HBD>  (483) 
3

>  <HBA>  (483) 
3

>  <NRB>  (483) 
2

>  <NR>  (483) 
1

>  <NAR>  (483) 
0

>  <PSA>  (483) 
84.22

>  <Standard Type>  (483) 
nan

>  <Standard Relation>  (483) 
nan

>  <Standard Units>  (483) 
nan

>  <Standard Value>  (483) 
nan

>  <Assay ChEMBL ID>  (483) 
nan

>  <Assay Description>  (483) 
nan

>  <BAO Label>  (483) 
nan

$$$$

     RDKit          2D

 23 25  0  0  0  0  0  0  0  0999 V2000
    3.0000    0.0000    0.0000 N   0  0  0  0  0  0  0  0  0  0  0  0
    1.5000    0.0000    0.0000 C   0  0  0  0  0  0  0  0  0  0  0  0
    0.7500   -1.2990    0.0000 N   0  0  0  0  0  0  0  0  0  0  0  0
   -0.7500   -1.2990    0.0000 C   0  0  0  0  0  0  0  0  0  0  0  0
   -1.5000   -2.5981    0.0000 C   0  0  0  0  0  0  0  0  0  0  0  0
   -3.0000   -2.5981    0.0000 C   0  0  0  0  0  0  0  0  0  0  0  0
   -3.7500   -3.8971    0.0000 C   0  0  0  0  0  0  0  0  0  0  0  0
   -5.2500   -3.8971    0.0000 C   0  0  0  0  0  0  0  0  0  0  0  0
   -6.0000   -5.1962    0.0000 C   0  0  0  0  0  0  0  0  0  0  0  0
   -5.2500   -6.4952    0.0000 C   0  0  0  0  0  0  0  0  0  0  0  0
   -6.0000   -7.7942    0.0000 O   0  0  0  0  0  0  0  0  0  0  0  0
   -3.7500   -6.4952    0.0000 C   0  0  0  0  0  0  0  0  0  0  0  0
   -3.0000   -5.1962    0.0000 C   0  0  0  0  0  0  0  0  0  0  0  0
   -1.5000    0.0000    0.0000 N   0  0  0  0  0  0  0  0  0  0  0  0
   -0.7500    1.2990    0.0000 C   0  0  0  0  0  0  0  0  0  0  0  0
   -1.5000    2.5981    0.0000 C   0  0  0  0  0  0  0  0  0  0  0  0
   -0.7500    3.8971    0.0000 C   0  0  0  0  0  0  0  0  0  0  0  0
   -1.5000    5.1962    0.0000 C   0  0  0  0  0  0  0  0  0  0  0  0
   -3.0000    5.1962    0.0000 C   0  0  0  0  0  0  0  0  0  0  0  0
   -3.7500    3.8971    0.0000 C   0  0  0  0  0  0  0  0  0  0  0  0
   -3.0000    2.5981    0.0000 C   0  0  0  0  0  0  0  0  0  0  0  0
   -3.7500    1.2990    0.0000 O   0  0  0  0  0  0  0  0  0  0  0  0
    0.7500    1.2990    0.0000 N   0  0  0  0  0  0  0  0  0  0  0  0
  1  2  1  0
  2  3  2  0
  3  4  1  0
  4  5  1  0
  5  6  2  0
  6  7  1  0
  7  8  2  0
  8  9  1  0
  9 10  2  0
 10 11  1  0
 10 12  1  0
 12 13  2  0
  4 14  2  0
 14 15  1  0
 15 16  1  0
 16 17  2  0
 17 18  1  0
 18 19  2  0
 19 20  1  0
 20 21  2  0
 21 22  1  0
 15 23  2  0
 23  2  1  0
 13  7  1  0
 21 16  1  0
M  END
>  <Compound_ID>  (484) 
C04978049

>  <Active>  (484) 
0.0

>  <Smiles>  (484) 
Nc1nc(/C=C/c2ccc(O)cc2)nc(-c2ccccc2O)n1

>  <canonical_smi>  (484) 
Nc1nc(/C=C/c2ccc(O)cc2)nc(-c2ccccc2O)n1

>  <Set>  (484) 
G2 inactive

>  <Set_type>  (484) 
Train

>  <MW>  (484) 
306.32

>  <HBD>  (484) 
3

>  <HBA>  (484) 
6

>  <NRB>  (484) 
3

>  <NR>  (484) 
3

>  <NAR>  (484) 
3

>  <PSA>  (484) 
105.15

>  <Standard Type>  (484) 
nan

>  <Standard Relation>  (484) 
nan

>  <Standard Units>  (484) 
nan

>  <Standard Value>  (484) 
nan

>  <Assay ChEMBL ID>  (484) 
nan

>  <Assay Description>  (484) 
nan

>  <BAO Label>  (484) 
nan

$$$$

     RDKit          2D

 35 40  0  0  0  0  0  0  0  0999 V2000
    0.1568    1.6910    0.0000 O   0  0  0  0  0  0  0  0  0  0  0  0
    1.5271    2.3011    0.0000 C   0  0  0  0  0  0  0  0  0  0  0  0
    1.6839    3.7929    0.0000 C   0  0  0  0  0  0  0  0  0  0  0  0
    3.0542    4.4030    0.0000 C   0  0  0  0  0  0  0  0  0  0  0  0
    4.2677    3.5213    0.0000 C   0  0  0  0  0  0  0  0  0  0  0  0
    4.1110    2.0295    0.0000 C   0  0  0  0  0  0  0  0  0  0  0  0
    2.7406    1.4194    0.0000 C   0  0  0  0  0  0  0  0  0  0  0  0
    2.5838   -0.0724    0.0000 C   0  0  0  0  0  0  0  0  0  0  0  0
    3.7974   -0.9540    0.0000 N   0  0  0  0  0  4  0  0  0  0  0  0
    5.2240   -0.4905    0.0000 C   0  0  0  0  0  0  0  0  0  0  0  0
    6.1056   -1.7040    0.0000 C   0  0  0  0  0  0  0  0  0  0  0  0
    5.2240   -2.9176    0.0000 N   0  0  0  0  0  4  0  0  0  0  0  0
    5.6875   -4.3442    0.0000 C   0  0  0  0  0  0  0  0  0  0  0  0
    7.1547   -4.6560    0.0000 C   0  0  0  0  0  0  0  0  0  0  0  0
    7.6182   -6.0826    0.0000 C   0  0  0  0  0  0  0  0  0  0  0  0
    9.0854   -6.3945    0.0000 C   0  0  0  0  0  0  0  0  0  0  0  0
   10.0891   -5.2798    0.0000 C   0  0  0  0  0  0  0  0  0  0  0  0
    9.6256   -3.8532    0.0000 C   0  0  0  0  0  0  0  0  0  0  0  0
    8.1584   -3.5413    0.0000 C   0  0  0  0  0  0  0  0  0  0  0  0
    7.6949   -2.1147    0.0000 O   0  0  0  0  0  0  0  0  0  0  0  0
    3.7974   -2.4540    0.0000 C   0  0  0  0  0  0  0  0  0  0  0  0
    2.5838   -3.3357    0.0000 C   0  0  0  0  0  0  0  0  0  0  0  0
    1.2135   -2.7256    0.0000 C   0  0  0  0  0  0  0  0  0  0  0  0
    1.0567   -1.2338    0.0000 O   0  0  0  0  0  0  0  0  0  0  0  0
   -0.0000   -3.6073    0.0000 C   0  0  0  0  0  0  0  0  0  0  0  0
    0.1568   -5.0991    0.0000 C   0  0  0  0  0  0  0  0  0  0  0  0
    1.5271   -5.7092    0.0000 C   0  0  0  0  0  0  0  0  0  0  0  0
    1.9906   -7.1358    0.0000 O   0  0  0  0  0  0  0  0  0  0  0  0
    3.4906   -7.1358    0.0000 C   0  0  0  0  0  0  0  0  0  0  0  0
    3.9542   -5.7092    0.0000 C   0  0  0  0  0  0  0  0  0  0  0  0
    2.7406   -4.8275    0.0000 C   0  0  0  0  0  0  0  0  0  0  0  0
    5.4214   -5.3973    0.0000 C   0  0  0  0  0  0  0  0  0  0  0  0
    6.4251   -6.5120    0.0000 C   0  0  0  0  0  0  0  0  0  0  0  0
    5.9616   -7.9386    0.0000 C   0  0  0  0  0  0  0  0  0  0  0  0
    4.4943   -8.2505    0.0000 C   0  0  0  0  0  0  0  0  0  0  0  0
  1  2  1  0
  2  3  2  0
  3  4  1  0
  4  5  2  0
  5  6  1  0
  6  7  2  0
  7  8  1  0
  8  9  1  0
  9 10  1  0
 10 11  1  0
 11 12  1  0
 12 13  1  0
 13 14  1  0
 14 15  2  0
 15 16  1  0
 16 17  2  0
 17 18  1  0
 18 19  2  0
 19 20  1  0
 12 21  1  0
 21 22  1  0
 22 23  2  0
 23 24  1  0
 23 25  1  0
 25 26  2  0
 26 27  1  0
 27 28  1  0
 28 29  1  0
 29 30  2  0
 30 31  1  0
 30 32  1  0
 32 33  1  0
 33 34  1  0
 34 35  1  0
  7  2  1  0
 21  9  1  0
 31 22  1  0
 19 14  1  0
 31 27  2  0
 35 29  1  0
M  CHG  2   9   1  12   1
M  END
>  <Compound_ID>  (485) 
C19324814

>  <Active>  (485) 
0.0

>  <Smiles>  (485) 
Oc1ccccc1C[NH+]1CC[NH+](Cc2ccccc2O)C1c1c(O)ccc2oc3c(c12)CCCC3

>  <canonical_smi>  (485) 
Oc1ccccc1C[NH+]1CC[NH+](Cc2ccccc2O)C1c1c(O)ccc2oc3c(c12)CCCC3

>  <Set>  (485) 
G2 inactive

>  <Set_type>  (485) 
Train

>  <MW>  (485) 
472.59

>  <HBD>  (485) 
5

>  <HBA>  (485) 
4

>  <NRB>  (485) 
5

>  <NR>  (485) 
6

>  <NAR>  (485) 
4

>  <PSA>  (485) 
82.71

>  <Standard Type>  (485) 
nan

>  <Standard Relation>  (485) 
nan

>  <Standard Units>  (485) 
nan

>  <Standard Value>  (485) 
nan

>  <Assay ChEMBL ID>  (485) 
nan

>  <Assay Description>  (485) 
nan

>  <BAO Label>  (485) 
nan

$$$$

     RDKit          2D

 31 35  0  0  0  0  0  0  0  0999 V2000
    3.7500   -1.2990    0.0000 N   0  0  0  0  0  0  0  0  0  0  0  0
    3.0000    0.0000    0.0000 C   0  0  0  0  0  0  0  0  0  0  0  0
    3.7500    1.2990    0.0000 O   0  0  0  0  0  0  0  0  0  0  0  0
    1.5000    0.0000    0.0000 C   0  0  0  0  0  0  0  0  0  0  0  0
    0.7500   -1.2990    0.0000 C   0  0  0  0  0  0  0  0  0  0  0  0
   -0.7500   -1.2990    0.0000 C   0  0  0  0  0  0  0  0  0  0  0  0
   -1.5000    0.0000    0.0000 C   0  0  0  0  0  0  0  0  0  0  0  0
   -0.7500    1.2990    0.0000 C   0  0  0  0  0  0  0  0  0  0  0  0
    0.7500    1.2990    0.0000 C   0  0  0  0  0  0  0  0  0  0  0  0
   -1.5000    2.5981    0.0000 C   0  0  0  0  0  0  0  0  0  0  0  0
   -3.0000    2.5981    0.0000 C   0  0  0  0  0  0  0  0  0  0  0  0
   -3.7500    1.2990    0.0000 O   0  0  0  0  0  0  0  0  0  0  0  0
   -3.0000    0.0000    0.0000 C   0  0  0  0  0  0  0  0  0  0  0  0
   -3.7500   -1.2990    0.0000 C   0  0  0  0  0  0  0  0  0  0  0  0
   -5.2500   -1.2990    0.0000 C   0  0  0  0  0  0  0  0  0  0  0  0
   -6.0000   -2.5981    0.0000 N   0  0  0  0  0  4  0  0  0  0  0  0
   -7.5000   -2.5981    0.0000 C   0  0  0  0  0  0  0  0  0  0  0  0
   -8.2500   -3.8971    0.0000 C   0  0  0  0  0  0  0  0  0  0  0  0
   -7.5000   -5.1962    0.0000 C   0  0  0  0  0  0  0  0  0  0  0  0
   -8.2500   -6.4952    0.0000 C   0  0  0  0  0  0  0  0  0  0  0  0
   -9.7418   -6.6520    0.0000 C   0  0  0  0  0  0  0  0  0  0  0  0
  -10.8565   -5.6483    0.0000 C   0  0  0  0  0  0  0  0  0  0  0  0
  -12.2831   -6.1118    0.0000 C   0  0  0  0  0  0  0  0  0  0  0  0
  -12.5950   -7.5790    0.0000 C   0  0  0  0  0  0  0  0  0  0  0  0
  -14.0215   -8.0426    0.0000 F   0  0  0  0  0  0  0  0  0  0  0  0
  -11.4802   -8.5827    0.0000 C   0  0  0  0  0  0  0  0  0  0  0  0
  -10.0537   -8.1192    0.0000 C   0  0  0  0  0  0  0  0  0  0  0  0
   -8.7546   -8.8692    0.0000 N   0  0  0  0  0  4  0  0  0  0  0  0
   -7.6399   -7.8655    0.0000 C   0  0  0  0  0  0  0  0  0  0  0  0
   -6.0000   -5.1962    0.0000 C   0  0  0  0  0  0  0  0  0  0  0  0
   -5.2500   -3.8971    0.0000 C   0  0  0  0  0  0  0  0  0  0  0  0
  1  2  1  0
  2  3  2  0
  2  4  1  0
  4  5  2  0
  5  6  1  0
  6  7  2  0
  7  8  1  0
  8  9  2  0
  8 10  1  0
 10 11  1  0
 11 12  1  0
 12 13  1  0
 13 14  1  6
 14 15  1  0
 15 16  1  0
 16 17  1  0
 17 18  1  0
 18 19  2  0
 19 20  1  0
 20 21  2  0
 21 22  1  0
 22 23  2  0
 23 24  1  0
 24 25  1  0
 24 26  2  0
 26 27  1  0
 27 28  2  0
 28 29  1  0
 19 30  1  0
 30 31  1  0
  9  4  1  0
 31 16  1  0
 13  7  1  0
 29 20  1  0
 27 21  1  0
M  CHG  2  16   1  28   1
M  END
>  <Compound_ID>  (486) 
C52595238

>  <Active>  (486) 
0.0

>  <Smiles>  (486) 
NC(=O)c1ccc2c(c1)CCO[C@H]2CC[NH+]1CC=C(C2=c3ccc(F)cc3=[NH+]C2)CC1

>  <canonical_smi>  (486) 
NC(=O)c1ccc2c(c1)CCO[C@H]2CC[NH+]1CC=C(C2=c3ccc(F)cc3=[NH+]C2)CC1

>  <Set>  (486) 
G2 inactive

>  <Set_type>  (486) 
Train

>  <MW>  (486) 
421.52

>  <HBD>  (486) 
3

>  <HBA>  (486) 
2

>  <NRB>  (486) 
5

>  <NR>  (486) 
5

>  <NAR>  (486) 
2

>  <PSA>  (486) 
70.73

>  <Standard Type>  (486) 
nan

>  <Standard Relation>  (486) 
nan

>  <Standard Units>  (486) 
nan

>  <Standard Value>  (486) 
nan

>  <Assay ChEMBL ID>  (486) 
nan

>  <Assay Description>  (486) 
nan

>  <BAO Label>  (486) 
nan

$$$$

     RDKit          2D

 31 35  0  0  0  0  0  0  0  0999 V2000
   -7.9738  -16.0683    0.0000 C   0  0  0  0  0  0  0  0  0  0  0  0
   -7.9738  -14.5683    0.0000 C   0  0  0  0  0  0  0  0  0  0  0  0
   -9.2728  -13.8183    0.0000 C   0  0  0  0  0  0  0  0  0  0  0  0
   -9.2728  -12.3183    0.0000 C   0  0  0  0  0  0  0  0  0  0  0  0
   -7.9738  -11.5683    0.0000 C   0  0  0  0  0  0  0  0  0  0  0  0
   -7.9738  -10.0683    0.0000 N   0  0  0  0  0  0  0  0  0  0  0  0
   -9.1873   -9.1866    0.0000 N   0  0  0  0  0  0  0  0  0  0  0  0
   -8.7238   -7.7600    0.0000 C   0  0  0  0  0  0  0  0  0  0  0  0
   -9.6054   -6.5465    0.0000 C   0  0  0  0  0  0  0  0  0  0  0  0
   -7.2238   -7.7600    0.0000 C   0  0  0  0  0  0  0  0  0  0  0  0
   -6.3421   -6.5465    0.0000 C   0  0  0  0  0  0  0  0  0  0  0  0
   -6.8056   -5.1199    0.0000 C   0  0  0  0  0  0  0  0  0  0  0  0
   -5.5921   -4.2382    0.0000 C   0  0  0  0  0  0  0  0  0  0  0  0
   -4.3786   -5.1199    0.0000 C   0  0  0  0  0  0  0  0  0  0  0  0
   -2.9520   -4.6564    0.0000 N   0  0  0  0  0  4  0  0  0  0  0  0
   -2.6401   -3.1891    0.0000 C   0  0  0  0  0  0  0  0  0  0  0  0
   -1.2135   -2.7256    0.0000 C   0  0  0  0  0  0  0  0  0  0  0  0
   -0.0000   -3.6073    0.0000 C   0  0  0  0  0  0  0  0  0  0  0  0
    1.2135   -2.7256    0.0000 N   0  0  0  0  0  0  0  0  0  0  0  0
    0.7500   -1.2990    0.0000 C   0  0  0  0  0  0  0  0  0  0  0  0
    1.5000    0.0000    0.0000 C   0  0  0  0  0  0  0  0  0  0  0  0
    0.7500    1.2990    0.0000 C   0  0  0  0  0  0  0  0  0  0  0  0
   -0.7500    1.2990    0.0000 C   0  0  0  0  0  0  0  0  0  0  0  0
   -1.5000    0.0000    0.0000 C   0  0  0  0  0  0  0  0  0  0  0  0
   -0.7500   -1.2990    0.0000 C   0  0  0  0  0  0  0  0  0  0  0  0
   -4.8421   -6.5465    0.0000 C   0  0  0  0  0  0  0  0  0  0  0  0
   -6.7602   -9.1866    0.0000 C   0  0  0  0  0  0  0  0  0  0  0  0
   -5.3337   -9.6501    0.0000 C   0  0  0  0  0  0  0  0  0  0  0  0
   -6.6747  -12.3183    0.0000 C   0  0  0  0  0  0  0  0  0  0  0  0
   -6.6747  -13.8183    0.0000 C   0  0  0  0  0  0  0  0  0  0  0  0
   -5.3757  -14.5683    0.0000 Cl  0  0  0  0  0  0  0  0  0  0  0  0
  1  2  1  0
  2  3  2  0
  3  4  1  0
  4  5  2  0
  5  6  1  0
  6  7  1  0
  7  8  2  0
  8  9  1  0
  8 10  1  0
 11 10  1  6
 11 12  1  0
 12 13  2  0
 13 14  1  0
 14 15  1  1
 15 16  1  0
 16 17  1  0
 17 18  2  0
 18 19  1  0
 19 20  1  0
 20 21  2  0
 21 22  1  0
 22 23  2  0
 23 24  1  0
 24 25  2  0
 14 26  1  0
 10 27  2  0
 27 28  1  0
  5 29  1  0
 29 30  2  0
 30 31  1  0
 30  2  1  0
 27  6  1  0
 26 11  1  0
 25 17  1  0
 25 20  1  0
M  CHG  1  15   1
M  END
>  <Compound_ID>  (487) 
C15673928

>  <Active>  (487) 
0.0

>  <Smiles>  (487) 
Cc1ccc(-n2nc(C)c([C@@H]3C=C[C@@H]([NH2+]Cc4c[nH]c5ccccc45)C3)c2C)cc1Cl

>  <canonical_smi>  (487) 
Cc1ccc(-n2nc(C)c([C@@H]3C=C[C@@H]([NH2+]Cc4c[nH]c5ccccc45)C3)c2C)cc1Cl

>  <Set>  (487) 
G2 inactive

>  <Set_type>  (487) 
Train

>  <MW>  (487) 
431.99

>  <HBD>  (487) 
2

>  <HBA>  (487) 
1

>  <NRB>  (487) 
5

>  <NR>  (487) 
5

>  <NAR>  (487) 
4

>  <PSA>  (487) 
50.22

>  <Standard Type>  (487) 
nan

>  <Standard Relation>  (487) 
nan

>  <Standard Units>  (487) 
nan

>  <Standard Value>  (487) 
nan

>  <Assay ChEMBL ID>  (487) 
nan

>  <Assay Description>  (487) 
nan

>  <BAO Label>  (487) 
nan

$$$$

     RDKit          2D

 23 25  0  0  0  0  0  0  0  0999 V2000
    2.8273   -5.5793    0.0000 C   0  0  0  0  0  0  0  0  0  0  0  0
    1.3601   -5.2674    0.0000 C   0  0  0  0  0  0  0  0  0  0  0  0
    0.7500   -3.8971    0.0000 C   0  0  0  0  0  0  0  0  0  0  0  0
    1.5000   -2.5981    0.0000 O   0  0  0  0  0  0  0  0  0  0  0  0
    3.0000   -2.5981    0.0000 C   0  0  0  0  0  0  0  0  0  0  0  0
    3.7500   -1.2990    0.0000 C   0  0  0  0  0  0  0  0  0  0  0  0
    5.2500   -1.2990    0.0000 C   0  0  0  0  0  0  0  0  0  0  0  0
    6.0000   -2.5981    0.0000 C   0  0  0  0  0  0  0  0  0  0  0  0
    7.5000   -2.5981    0.0000 I   0  0  0  0  0  0  0  0  0  0  0  0
    5.2500   -3.8971    0.0000 C   0  0  0  0  0  0  0  0  0  0  0  0
    3.7500   -3.8971    0.0000 C   0  0  0  0  0  0  0  0  0  0  0  0
   -0.7418   -4.0539    0.0000 C   0  0  0  0  0  0  0  0  0  0  0  0
   -1.7455   -2.9392    0.0000 C   0  0  0  0  0  0  0  0  0  0  0  0
   -1.2820   -1.5126    0.0000 C   0  0  0  0  0  0  0  0  0  0  0  0
   -2.2856   -0.3979    0.0000 C   0  0  0  0  0  0  0  0  0  0  0  0
   -3.7529   -0.7098    0.0000 C   0  0  0  0  0  0  0  0  0  0  0  0
   -4.7566    0.4050    0.0000 O   0  0  0  0  0  0  0  0  0  0  0  0
   -4.2164   -2.1363    0.0000 C   0  0  0  0  0  0  0  0  0  0  0  0
   -5.6836   -2.4482    0.0000 C   0  0  0  0  0  0  0  0  0  0  0  0
   -3.2127   -3.2511    0.0000 C   0  0  0  0  0  0  0  0  0  0  0  0
   -3.6762   -4.6776    0.0000 O   0  0  0  0  0  0  0  0  0  0  0  0
   -1.0537   -5.5211    0.0000 N   0  0  0  0  0  4  0  0  0  0  0  0
    0.2454   -6.2711    0.0000 N   0  0  0  0  0  0  0  0  0  0  0  0
  1  2  1  0
  2  3  2  0
  3  4  1  0
  4  5  1  0
  5  6  2  0
  6  7  1  0
  7  8  2  0
  8  9  1  0
  8 10  1  0
 10 11  2  0
  3 12  1  0
 12 13  1  1
 13 14  2  0
 14 15  1  0
 15 16  2  0
 16 17  1  0
 16 18  1  0
 18 19  1  0
 18 20  2  0
 20 21  1  0
 12 22  1  0
 22 23  2  0
 23  2  1  0
 11  5  1  0
 20 13  1  0
M  CHG  1  22   1
M  END
>  <Compound_ID>  (488) 
C39580434

>  <Active>  (488) 
0.0

>  <Smiles>  (488) 
CC1=C(Oc2ccc(I)cc2)[C@H](c2ccc(O)c(C)c2O)[NH+]=N1

>  <canonical_smi>  (488) 
CC1=C(Oc2ccc(I)cc2)[C@H](c2ccc(O)c(C)c2O)[NH+]=N1

>  <Set>  (488) 
G2 inactive

>  <Set_type>  (488) 
Train

>  <MW>  (488) 
423.23

>  <HBD>  (488) 
3

>  <HBA>  (488) 
3

>  <NRB>  (488) 
3

>  <NR>  (488) 
3

>  <NAR>  (488) 
2

>  <PSA>  (488) 
76.02

>  <Standard Type>  (488) 
nan

>  <Standard Relation>  (488) 
nan

>  <Standard Units>  (488) 
nan

>  <Standard Value>  (488) 
nan

>  <Assay ChEMBL ID>  (488) 
nan

>  <Assay Description>  (488) 
nan

>  <BAO Label>  (488) 
nan

$$$$

     RDKit          2D

 32 36  0  0  0  0  0  0  0  0999 V2000
  -10.7447  -11.9128    0.0000 C   0  0  0  0  0  0  0  0  0  0  0  0
   -9.5312  -11.0311    0.0000 O   0  0  0  0  0  0  0  0  0  0  0  0
   -9.6879   -9.5393    0.0000 C   0  0  0  0  0  0  0  0  0  0  0  0
  -11.0583   -8.9292    0.0000 C   0  0  0  0  0  0  0  0  0  0  0  0
  -11.2151   -7.4375    0.0000 C   0  0  0  0  0  0  0  0  0  0  0  0
  -10.0015   -6.5558    0.0000 C   0  0  0  0  0  0  0  0  0  0  0  0
   -8.6312   -7.1659    0.0000 C   0  0  0  0  0  0  0  0  0  0  0  0
   -7.4177   -6.2842    0.0000 C   0  0  0  0  0  0  0  0  0  0  0  0
   -6.0474   -6.8943    0.0000 N   0  0  0  0  0  4  0  0  0  0  0  0
   -4.8338   -6.0126    0.0000 C   0  0  0  0  0  0  0  0  0  0  0  0
   -3.4635   -6.6227    0.0000 C   0  0  0  0  0  0  0  0  0  0  0  0
   -4.2135   -7.9218    0.0000 O   0  0  0  0  0  0  0  0  0  0  0  0
   -2.2500   -7.5044    0.0000 C   0  0  0  0  0  0  0  0  0  0  0  0
   -1.0365   -6.6227    0.0000 C   0  0  0  0  0  0  0  0  0  0  0  0
   -1.5000   -5.1962    0.0000 C   0  0  0  0  0  0  0  0  0  0  0  0
   -0.7500   -3.8971    0.0000 C   0  0  0  0  0  0  0  0  0  0  0  0
    0.7500   -3.8971    0.0000 C   0  0  0  0  0  0  0  0  0  0  0  0
    1.5000   -2.5981    0.0000 C   0  0  0  0  0  0  0  0  0  0  0  0
    0.7500   -1.2990    0.0000 C   0  0  0  0  0  0  0  0  0  0  0  0
    1.5000    0.0000    0.0000 C   0  0  0  0  0  0  0  0  0  0  0  0
    0.7500    1.2990    0.0000 C   0  0  0  0  0  0  0  0  0  0  0  0
   -0.7500    1.2990    0.0000 C   0  0  0  0  0  0  0  0  0  0  0  0
   -1.5000    0.0000    0.0000 C   0  0  0  0  0  0  0  0  0  0  0  0
   -0.7500   -1.2990    0.0000 C   0  0  0  0  0  0  0  0  0  0  0  0
   -2.2500   -1.2990    0.0000 C   0  0  0  0  0  0  0  0  0  0  0  0
   -1.5000   -2.5981    0.0000 C   0  0  0  0  0  0  0  0  0  0  0  0
   -3.0000   -2.5981    0.0000 C   0  0  0  0  0  0  0  0  0  0  0  0
   -3.7500   -3.8971    0.0000 C   0  0  0  0  0  0  0  0  0  0  0  0
   -3.0000   -5.1962    0.0000 C   0  0  0  0  0  0  0  0  0  0  0  0
   -4.4918   -5.3529    0.0000 C   0  0  0  0  0  0  0  0  0  0  0  0
   -8.4744   -8.6577    0.0000 C   0  0  0  0  0  0  0  0  0  0  0  0
   -7.1041   -9.2678    0.0000 O   0  0  0  0  0  0  0  0  0  0  0  0
  1  2  1  0
  2  3  1  0
  3  4  2  0
  4  5  1  0
  5  6  2  0
  6  7  1  0
  7  8  1  0
  8  9  2  0
  9 10  1  0
 10 11  1  0
 11 12  1  1
 11 13  1  0
 13 14  1  0
 15 14  1  1
 15 16  1  0
 16 17  1  6
 17 18  1  0
 19 18  1  6
 19 20  1  0
 20 21  1  0
 21 22  1  0
 22 23  1  0
 23 24  1  0
 24 25  1  1
 24 26  1  0
 26 27  1  6
 27 28  1  0
 28 29  1  0
 29 30  1  1
  7 31  2  0
 31 32  1  0
 31  3  1  0
 29 11  1  0
 29 15  1  0
 26 16  1  0
 24 19  1  0
M  CHG  1   9   1
M  END
>  <Compound_ID>  (489) 
C43740991

>  <Active>  (489) 
0.0

>  <Smiles>  (489) 
COc1cccc(/C=[NH+]/C[C@@]2(O)CC[C@@H]3[C@H]4CC[C@H]5CCCC[C@@]5(C)[C@H]4CC[C@]32C)c1O

>  <canonical_smi>  (489) 
COc1cccc(/C=[NH+]/C[C@@]2(O)CC[C@@H]3[C@H]4CC[C@H]5CCCC[C@@]5(C)[C@H]4CC[C@]32C)c1O

>  <Set>  (489) 
G2 inactive

>  <Set_type>  (489) 
Train

>  <MW>  (489) 
440.65

>  <HBD>  (489) 
3

>  <HBA>  (489) 
3

>  <NRB>  (489) 
4

>  <NR>  (489) 
5

>  <NAR>  (489) 
1

>  <PSA>  (489) 
63.66

>  <Standard Type>  (489) 
nan

>  <Standard Relation>  (489) 
nan

>  <Standard Units>  (489) 
nan

>  <Standard Value>  (489) 
nan

>  <Assay ChEMBL ID>  (489) 
nan

>  <Assay Description>  (489) 
nan

>  <BAO Label>  (489) 
nan

$$$$

     RDKit          2D

 25 27  0  0  0  0  0  0  0  0999 V2000
    6.0000   -2.5981    0.0000 C   0  0  0  0  0  0  0  0  0  0  0  0
    5.2500   -1.2990    0.0000 C   0  0  0  0  0  0  0  0  0  0  0  0
    6.0000    0.0000    0.0000 N   0  0  0  0  0  0  0  0  0  0  0  0
    7.5000   -0.0000    0.0000 C   0  0  0  0  0  0  0  0  0  0  0  0
    8.2500   -1.2990    0.0000 O   0  0  0  0  0  0  0  0  0  0  0  0
    8.2500    1.2990    0.0000 O   0  0  0  0  0  0  0  0  0  0  0  0
    9.7500    1.2990    0.0000 C   0  0  0  0  0  0  0  0  0  0  0  0
    9.7500    2.7990    0.0000 C   0  0  0  0  0  0  0  0  0  0  0  0
    9.7500   -0.2010    0.0000 C   0  0  0  0  0  0  0  0  0  0  0  0
   11.2500    1.2990    0.0000 C   0  0  0  0  0  0  0  0  0  0  0  0
    3.7500   -1.2990    0.0000 C   0  0  0  0  0  0  0  0  0  0  0  0
    3.0000   -2.5981    0.0000 O   0  0  0  0  0  0  0  0  0  0  0  0
    3.0000    0.0000    0.0000 N   0  0  0  0  0  0  0  0  0  0  0  0
    1.5000    0.0000    0.0000 C   0  0  0  0  0  0  0  0  0  0  0  0
    0.7500   -1.2990    0.0000 C   0  0  0  0  0  0  0  0  0  0  0  0
   -0.7500   -1.2990    0.0000 C   0  0  0  0  0  0  0  0  0  0  0  0
   -1.5000    0.0000    0.0000 C   0  0  0  0  0  0  0  0  0  0  0  0
   -0.7500    1.2990    0.0000 C   0  0  0  0  0  0  0  0  0  0  0  0
    0.7500    1.2990    0.0000 C   0  0  0  0  0  0  0  0  0  0  0  0
    2.2500    1.2990    0.0000 C   0  0  0  0  0  0  0  0  0  0  0  0
    3.0000   -0.0000    0.0000 N   0  0  0  0  0  4  0  0  0  0  0  0
    4.5000   -0.0000    0.0000 C   0  0  0  0  0  0  0  0  0  0  0  0
    5.7990    0.7500    0.0000 C   0  0  0  0  0  0  0  0  0  0  0  0
    5.7990   -0.7500    0.0000 C   0  0  0  0  0  0  0  0  0  0  0  0
    2.2500   -1.2990    0.0000 C   0  0  0  0  0  0  0  0  0  0  0  0
  2  1  1  6
  2  3  1  0
  3  4  1  0
  4  5  2  0
  4  6  1  0
  6  7  1  0
  7  8  1  0
  7  9  1  0
  7 10  1  0
  2 11  1  0
 11 12  2  0
 11 13  1  0
 13 14  1  0
 14 15  1  0
 15 16  1  1
 16 17  1  0
 17 18  1  0
 19 18  1  1
 19 20  1  0
 20 21  1  0
 21 22  1  0
 22 23  1  0
 23 24  1  0
 21 25  1  0
 19 14  1  0
 24 22  1  0
 25 15  1  0
M  CHG  1  21   1
M  END
>  <Compound_ID>  (490) 
C55476926

>  <Active>  (490) 
0.0

>  <Smiles>  (490) 
C[C@@H](NC(=O)OC(C)(C)C)C(=O)NC1[C@@H]2CCC[C@H]1C[NH+](C1CC1)C2

>  <canonical_smi>  (490) 
C[C@@H](NC(=O)OC(C)(C)C)C(=O)NC1[C@H]2CCC[C@@H]1C[NH+](C1CC1)C2

>  <Set>  (490) 
G2 inactive

>  <Set_type>  (490) 
Train

>  <MW>  (490) 
352.5

>  <HBD>  (490) 
3

>  <HBA>  (490) 
3

>  <NRB>  (490) 
4

>  <NR>  (490) 
3

>  <NAR>  (490) 
0

>  <PSA>  (490) 
71.87

>  <Standard Type>  (490) 
nan

>  <Standard Relation>  (490) 
nan

>  <Standard Units>  (490) 
nan

>  <Standard Value>  (490) 
nan

>  <Assay ChEMBL ID>  (490) 
nan

>  <Assay Description>  (490) 
nan

>  <BAO Label>  (490) 
nan

$$$$

     RDKit          2D

 26 26  0  0  0  0  0  0  0  0999 V2000
   10.2760   -5.1962    0.0000 C   0  0  0  0  0  0  0  0  0  0  0  0
    9.5260   -3.8971    0.0000 C   0  0  0  0  0  0  0  0  0  0  0  0
    8.0260   -3.8971    0.0000 C   0  0  0  0  0  0  0  0  0  0  0  0
    7.2760   -2.5981    0.0000 C   0  0  0  0  0  0  0  0  0  0  0  0
    5.7760   -2.5981    0.0000 C   0  0  0  0  0  0  0  0  0  0  0  0
    5.0260   -1.2990    0.0000 C   0  0  0  0  0  0  0  0  0  0  0  0
    5.7760    0.0000    0.0000 O   0  0  0  0  0  0  0  0  0  0  0  0
    3.5260   -1.2990    0.0000 C   0  0  0  0  0  0  0  0  0  0  0  0
    2.7760    0.0000    0.0000 C   0  0  0  0  0  0  0  0  0  0  0  0
    1.2760    0.0000    0.0000 C   0  0  0  0  0  0  0  0  0  0  0  0
    0.3943    1.2135    0.0000 C   0  0  0  0  0  0  0  0  0  0  0  0
    0.8578    2.6401    0.0000 C   0  0  0  0  0  0  0  0  0  0  0  0
    2.3250    2.9520    0.0000 C   0  0  0  0  0  0  0  0  0  0  0  0
    2.7886    4.3786    0.0000 C   0  0  0  0  0  0  0  0  0  0  0  0
    1.7849    5.4933    0.0000 C   0  0  0  0  0  0  0  0  0  0  0  0
    2.2484    6.9199    0.0000 C   0  0  0  0  0  0  0  0  0  0  0  0
    1.2447    8.0346    0.0000 C   0  0  0  0  0  0  0  0  0  0  0  0
    1.7082    9.4612    0.0000 C   0  0  0  0  0  0  0  0  0  0  0  0
    0.7045   10.5759    0.0000 N   0  0  0  0  0  4  0  0  0  0  0  0
    1.1681   12.0025    0.0000 C   0  0  0  0  0  0  0  0  0  0  0  0
   -0.7627   10.2640    0.0000 C   0  0  0  0  0  0  0  0  0  0  0  0
   -1.0323    0.7500    0.0000 C   0  0  0  0  0  0  0  0  0  0  0  0
   -2.2458    1.6317    0.0000 O   0  0  0  0  0  0  0  0  0  0  0  0
   -1.0323   -0.7500    0.0000 C   0  0  0  0  0  0  0  0  0  0  0  0
    0.3943   -1.2135    0.0000 C   0  0  0  0  0  0  0  0  0  0  0  0
    0.8578   -2.6401    0.0000 O   0  0  0  0  0  0  0  0  0  0  0  0
  1  2  1  0
  2  3  1  0
  3  4  1  0
  4  5  1  0
  5  6  1  0
  6  7  1  6
  6  8  1  0
  8  9  2  0
 10  9  1  1
 10 11  1  0
 11 12  1  6
 12 13  1  0
 13 14  2  0
 14 15  1  0
 15 16  1  0
 16 17  1  0
 17 18  1  0
 18 19  1  0
 19 20  1  0
 19 21  1  0
 11 22  1  0
 22 23  1  6
 22 24  1  0
 24 25  1  0
 25 26  1  6
 25 10  1  0
M  CHG  1  19   1
M  END
>  <Compound_ID>  (491) 
C43772188

>  <Active>  (491) 
0.0

>  <Smiles>  (491) 
CCCCC[C@@H](O)/C=C/[C@@H]1[C@@H](C/C=C\CCCC[NH+](C)C)[C@@H](O)C[C@H]1O

>  <canonical_smi>  (491) 
CCCCC[C@@H](O)/C=C/[C@H]1[C@H](O)C[C@H](O)[C@@H]1C/C=C\CCCC[NH+](C)C

>  <Set>  (491) 
G2 inactive

>  <Set_type>  (491) 
Train

>  <MW>  (491) 
368.58

>  <HBD>  (491) 
4

>  <HBA>  (491) 
3

>  <NRB>  (491) 
13

>  <NR>  (491) 
1

>  <NAR>  (491) 
0

>  <PSA>  (491) 
65.13

>  <Standard Type>  (491) 
nan

>  <Standard Relation>  (491) 
nan

>  <Standard Units>  (491) 
nan

>  <Standard Value>  (491) 
nan

>  <Assay ChEMBL ID>  (491) 
nan

>  <Assay Description>  (491) 
nan

>  <BAO Label>  (491) 
nan

$$$$

     RDKit          2D

 25 28  0  0  0  0  0  0  0  0999 V2000
   -5.1527   -9.1740    0.0000 C   0  0  0  0  0  0  0  0  0  0  0  0
   -3.8536   -8.4240    0.0000 C   0  0  0  0  0  0  0  0  0  0  0  0
   -3.8536   -6.9240    0.0000 N   0  0  0  0  0  4  0  0  0  0  0  0
   -2.6401   -6.0423    0.0000 C   0  0  0  0  0  0  0  0  0  0  0  0
   -3.1036   -4.6157    0.0000 C   0  0  0  0  0  0  0  0  0  0  0  0
   -2.6401   -3.1891    0.0000 C   0  0  0  0  0  0  0  0  0  0  0  0
   -1.2135   -2.7256    0.0000 C   0  0  0  0  0  0  0  0  0  0  0  0
   -0.0000   -3.6073    0.0000 C   0  0  0  0  0  0  0  0  0  0  0  0
    0.0000   -5.1073    0.0000 C   0  0  0  0  0  0  0  0  0  0  0  0
    1.2135   -2.7256    0.0000 S   0  0  0  0  0  0  0  0  0  0  0  0
    0.7500   -1.2990    0.0000 C   0  0  0  0  0  0  0  0  0  0  0  0
    1.5000    0.0000    0.0000 C   0  0  0  0  0  0  0  0  0  0  0  0
    0.7500    1.2990    0.0000 C   0  0  0  0  0  0  0  0  0  0  0  0
   -0.7500    1.2990    0.0000 C   0  0  0  0  0  0  0  0  0  0  0  0
   -1.5000    0.0000    0.0000 C   0  0  0  0  0  0  0  0  0  0  0  0
   -0.7500   -1.2990    0.0000 C   0  0  0  0  0  0  0  0  0  0  0  0
   -3.8536   -2.3075    0.0000 N   0  0  0  0  0  0  0  0  0  0  0  0
   -5.0672   -3.1891    0.0000 C   0  0  0  0  0  0  0  0  0  0  0  0
   -6.4375   -3.7993    0.0000 C   0  0  0  0  0  0  0  0  0  0  0  0
   -7.6510   -2.9176    0.0000 O   0  0  0  0  0  0  0  0  0  0  0  0
   -5.8172   -1.8901    0.0000 C   0  0  0  0  0  0  0  0  0  0  0  0
   -7.3172   -1.8901    0.0000 C   0  0  0  0  0  0  0  0  0  0  0  0
   -8.0672   -0.5911    0.0000 O   0  0  0  0  0  0  0  0  0  0  0  0
   -4.6036   -4.6157    0.0000 C   0  0  0  0  0  0  0  0  0  0  0  0
   -5.0672   -6.0423    0.0000 C   0  0  0  0  0  0  0  0  0  0  0  0
  1  2  1  0
  2  3  1  0
  3  4  1  0
  5  4  1  6
  5  6  1  0
  6  7  1  6
  7  8  2  0
  8  9  1  0
  8 10  1  0
 10 11  1  0
 11 12  2  0
 12 13  1  0
 13 14  2  0
 14 15  1  0
 15 16  2  0
  6 17  1  0
 17 18  1  0
 18 19  1  6
 19 20  1  0
 18 21  1  0
 21 22  1  0
 22 23  1  0
 18 24  1  0
 24 25  1  6
 25  3  1  0
 24  5  1  0
 16  7  1  0
 16 11  1  0
M  CHG  1   3   1
M  END
>  <Compound_ID>  (492) 
C65502308

>  <Active>  (492) 
0.0

>  <Smiles>  (492) 
CC[NH+]1C[C@H]2[C@@H](c3c(C)sc4ccccc34)N[C@](CO)(CCO)[C@H]2C1

>  <canonical_smi>  (492) 
CC[NH+]1C[C@H]2[C@@H](c3c(C)sc4ccccc34)N[C@](CO)(CCO)[C@H]2C1

>  <Set>  (492) 
G2 inactive

>  <Set_type>  (492) 
Train

>  <MW>  (492) 
361.53

>  <HBD>  (492) 
4

>  <HBA>  (492) 
3

>  <NRB>  (492) 
5

>  <NR>  (492) 
4

>  <NAR>  (492) 
2

>  <PSA>  (492) 
56.93

>  <Standard Type>  (492) 
nan

>  <Standard Relation>  (492) 
nan

>  <Standard Units>  (492) 
nan

>  <Standard Value>  (492) 
nan

>  <Assay ChEMBL ID>  (492) 
nan

>  <Assay Description>  (492) 
nan

>  <BAO Label>  (492) 
nan

$$$$

     RDKit          2D

 34 36  0  0  0  0  0  0  0  0999 V2000
    6.6888   -9.0562    0.0000 C   0  0  0  0  0  0  0  0  0  0  0  0
    5.2216   -8.7443    0.0000 C   0  0  0  0  0  0  0  0  0  0  0  0
    4.7581   -7.3178    0.0000 C   0  0  0  0  0  0  0  0  0  0  0  0
    3.2909   -7.0059    0.0000 N   0  0  0  0  0  4  0  0  0  0  0  0
    2.8273   -5.5793    0.0000 C   0  0  0  0  0  0  0  0  0  0  0  0
    1.3601   -5.2674    0.0000 C   0  0  0  0  0  0  0  0  0  0  0  0
    0.2454   -6.2711    0.0000 C   0  0  0  0  0  0  0  0  0  0  0  0
   -1.0537   -5.5211    0.0000 C   0  0  0  0  0  0  0  0  0  0  0  0
   -0.7418   -4.0539    0.0000 C   0  0  0  0  0  0  0  0  0  0  0  0
    0.7500   -3.8971    0.0000 N   0  0  0  0  0  0  0  0  0  0  0  0
    1.5000   -2.5981    0.0000 C   0  0  0  0  0  0  0  0  0  0  0  0
    0.7500   -1.2990    0.0000 C   0  0  0  0  0  0  0  0  0  0  0  0
    1.5000    0.0000    0.0000 C   0  0  0  0  0  0  0  0  0  0  0  0
    0.7500    1.2990    0.0000 C   0  0  0  0  0  0  0  0  0  0  0  0
   -0.7500    1.2990    0.0000 C   0  0  0  0  0  0  0  0  0  0  0  0
   -1.5000    2.5981    0.0000 C   0  0  0  0  0  0  0  0  0  0  0  0
   -0.2010    3.3481    0.0000 C   0  0  0  0  0  0  0  0  0  0  0  0
   -2.7990    1.8481    0.0000 C   0  0  0  0  0  0  0  0  0  0  0  0
   -2.2500    3.8971    0.0000 C   0  0  0  0  0  0  0  0  0  0  0  0
   -1.5000    0.0000    0.0000 C   0  0  0  0  0  0  0  0  0  0  0  0
   -0.7500   -1.2990    0.0000 C   0  0  0  0  0  0  0  0  0  0  0  0
    2.2872   -8.1206    0.0000 C   0  0  0  0  0  0  0  0  0  0  0  0
    2.7507   -9.5472    0.0000 C   0  0  0  0  0  0  0  0  0  0  0  0
    4.2179   -9.8591    0.0000 O   0  0  0  0  0  0  0  0  0  0  0  0
    1.7470  -10.6619    0.0000 C   0  0  0  0  0  0  0  0  0  0  0  0
    2.2105  -12.0885    0.0000 O   0  0  0  0  0  0  0  0  0  0  0  0
    1.2068  -13.2032    0.0000 C   0  0  0  0  0  0  0  0  0  0  0  0
   -0.2604  -12.8913    0.0000 C   0  0  0  0  0  0  0  0  0  0  0  0
   -1.2641  -14.0061    0.0000 C   0  0  0  0  0  0  0  0  0  0  0  0
   -0.8006  -15.4326    0.0000 C   0  0  0  0  0  0  0  0  0  0  0  0
   -1.8043  -16.5474    0.0000 O   0  0  0  0  0  0  0  0  0  0  0  0
   -3.2715  -16.2355    0.0000 C   0  0  0  0  0  0  0  0  0  0  0  0
    0.6666  -15.7445    0.0000 C   0  0  0  0  0  0  0  0  0  0  0  0
    1.6703  -14.6298    0.0000 C   0  0  0  0  0  0  0  0  0  0  0  0
  1  2  2  0
  2  3  1  0
  3  4  1  0
  4  5  1  0
  5  6  1  0
  6  7  2  0
  7  8  1  0
  8  9  2  0
  9 10  1  0
 10 11  1  0
 11 12  1  0
 12 13  2  0
 13 14  1  0
 14 15  2  0
 15 16  1  0
 16 17  1  0
 16 18  1  0
 16 19  1  0
 15 20  1  0
 20 21  2  0
  4 22  1  0
 22 23  1  0
 23 24  1  1
 23 25  1  0
 25 26  1  0
 26 27  1  0
 27 28  2  0
 28 29  1  0
 29 30  2  0
 30 31  1  0
 31 32  1  0
 30 33  1  0
 33 34  2  0
 10  6  1  0
 21 12  1  0
 34 27  1  0
M  CHG  1   4   1
M  END
>  <Compound_ID>  (493) 
C35499052

>  <Active>  (493) 
0.0

>  <Smiles>  (493) 
C=CC[NH+](Cc1cccn1Cc1ccc(C(C)(C)C)cc1)C[C@@H](O)COc1ccc(OC)cc1

>  <canonical_smi>  (493) 
C=CC[NH+](Cc1cccn1Cc1ccc(C(C)(C)C)cc1)C[C@@H](O)COc1ccc(OC)cc1

>  <Set>  (493) 
G2 inactive

>  <Set_type>  (493) 
Train

>  <MW>  (493) 
463.64

>  <HBD>  (493) 
2

>  <HBA>  (493) 
3

>  <NRB>  (493) 
12

>  <NR>  (493) 
3

>  <NAR>  (493) 
3

>  <PSA>  (493) 
48.06

>  <Standard Type>  (493) 
nan

>  <Standard Relation>  (493) 
nan

>  <Standard Units>  (493) 
nan

>  <Standard Value>  (493) 
nan

>  <Assay ChEMBL ID>  (493) 
nan

>  <Assay Description>  (493) 
nan

>  <BAO Label>  (493) 
nan

$$$$

     RDKit          2D

 24 26  0  0  0  0  0  0  0  0999 V2000
    9.7500   -3.8971    0.0000 C   0  0  0  0  0  0  0  0  0  0  0  0
    8.2500   -3.8971    0.0000 C   0  0  0  0  0  0  0  0  0  0  0  0
    7.5000   -2.5981    0.0000 C   0  0  0  0  0  0  0  0  0  0  0  0
    6.0000   -2.5981    0.0000 N   0  0  0  0  0  4  0  0  0  0  0  0
    5.2500   -3.8971    0.0000 C   0  0  0  0  0  0  0  0  0  0  0  0
    6.0000   -5.1962    0.0000 C   0  0  0  0  0  0  0  0  0  0  0  0
    5.2500   -6.4952    0.0000 C   0  0  0  0  0  0  0  0  0  0  0  0
    5.2500   -1.2990    0.0000 C   0  0  0  0  0  0  0  0  0  0  0  0
    3.7500   -1.2990    0.0000 C   0  0  0  0  0  0  0  0  0  0  0  0
    3.0000    0.0000    0.0000 S   0  0  0  0  0  0  0  0  0  0  0  0
    1.5000    0.0000    0.0000 C   0  0  0  0  0  0  0  0  0  0  0  0
    0.7500   -1.2990    0.0000 N   0  0  0  0  0  0  0  0  0  0  0  0
   -0.7500   -1.2990    0.0000 C   0  0  0  0  0  0  0  0  0  0  0  0
   -1.7537   -2.4138    0.0000 N   0  0  0  0  0  4  0  0  0  0  0  0
   -3.1240   -1.8037    0.0000 C   0  0  0  0  0  0  0  0  0  0  0  0
   -4.4943   -2.4138    0.0000 C   0  0  0  0  0  0  0  0  0  0  0  0
   -5.7079   -1.5321    0.0000 C   0  0  0  0  0  0  0  0  0  0  0  0
   -5.5511   -0.0403    0.0000 C   0  0  0  0  0  0  0  0  0  0  0  0
   -6.7646    0.8414    0.0000 N   0  0  0  0  0  0  0  0  0  0  0  0
   -4.1807    0.5698    0.0000 C   0  0  0  0  0  0  0  0  0  0  0  0
   -2.9672   -0.3119    0.0000 C   0  0  0  0  0  0  0  0  0  0  0  0
   -1.5000    0.0000    0.0000 C   0  0  0  0  0  0  0  0  0  0  0  0
   -0.7500    1.2990    0.0000 N   0  0  0  0  0  0  0  0  0  0  0  0
    0.7500    1.2990    0.0000 N   0  0  0  0  0  0  0  0  0  0  0  0
  1  2  1  0
  2  3  1  0
  3  4  1  0
  4  5  1  0
  5  6  1  0
  6  7  1  0
  4  8  1  0
  8  9  1  0
  9 10  1  0
 10 11  1  0
 11 12  2  0
 13 12  1  1
 13 14  1  0
 14 15  2  0
 15 16  1  0
 16 17  2  0
 17 18  1  0
 18 19  1  0
 18 20  2  0
 20 21  1  0
 21 22  2  0
 22 23  1  0
 23 24  2  0
 24 11  1  0
 22 13  1  0
 21 15  1  0
M  CHG  2   4   1  14   1
M  END
>  <Compound_ID>  (494) 
C39776593

>  <Active>  (494) 
0.0

>  <Smiles>  (494) 
CCC[NH+](CCC)CCSC1=N[C@H]2[NH+]=c3ccc(N)cc3=C2N=N1

>  <canonical_smi>  (494) 
CCC[NH+](CCC)CCSC1=N[C@H]2[NH+]=c3ccc(N)cc3=C2N=N1

>  <Set>  (494) 
G2 inactive

>  <Set_type>  (494) 
Train

>  <MW>  (494) 
346.5

>  <HBD>  (494) 
3

>  <HBA>  (494) 
2

>  <NRB>  (494) 
7

>  <NR>  (494) 
3

>  <NAR>  (494) 
1

>  <PSA>  (494) 
81.51

>  <Standard Type>  (494) 
nan

>  <Standard Relation>  (494) 
nan

>  <Standard Units>  (494) 
nan

>  <Standard Value>  (494) 
nan

>  <Assay ChEMBL ID>  (494) 
nan

>  <Assay Description>  (494) 
nan

>  <BAO Label>  (494) 
nan

$$$$

     RDKit          2D

 20 21  0  0  0  0  0  0  0  0999 V2000
    0.7500   -6.4952    0.0000 C   0  0  0  0  0  0  0  0  0  0  0  0
    1.5000   -5.1962    0.0000 C   0  0  0  0  0  0  0  0  0  0  0  0
    0.7500   -3.8971    0.0000 C   0  0  0  0  0  0  0  0  0  0  0  0
   -0.7500   -3.8971    0.0000 N   0  0  0  0  0  4  0  0  0  0  0  0
    1.5000   -2.5981    0.0000 C   0  0  0  0  0  0  0  0  0  0  0  0
    0.7500   -1.2990    0.0000 C   0  0  0  0  0  0  0  0  0  0  0  0
    1.5000    0.0000    0.0000 C   0  0  0  0  0  0  0  0  0  0  0  0
    0.7500    1.2990    0.0000 C   0  0  0  0  0  0  0  0  0  0  0  0
   -0.7500    1.2990    0.0000 C   0  0  0  0  0  0  0  0  0  0  0  0
   -1.5000    2.5981    0.0000 Br  0  0  0  0  0  0  0  0  0  0  0  0
   -1.5000    0.0000    0.0000 C   0  0  0  0  0  0  0  0  0  0  0  0
   -0.7500   -1.2990    0.0000 C   0  0  0  0  0  0  0  0  0  0  0  0
    3.0000   -2.5981    0.0000 N   0  0  0  0  0  4  0  0  0  0  0  0
    3.7500   -3.8971    0.0000 C   0  0  0  0  0  0  0  0  0  0  0  0
    3.7500   -1.2990    0.0000 C   0  0  0  0  0  0  0  0  0  0  0  0
    5.2500   -1.2990    0.0000 C   0  0  0  0  0  0  0  0  0  0  0  0
    6.1317   -0.0855    0.0000 C   0  0  0  0  0  0  0  0  0  0  0  0
    7.5583   -0.5490    0.0000 C   0  0  0  0  0  0  0  0  0  0  0  0
    7.5583   -2.0490    0.0000 O   0  0  0  0  0  0  0  0  0  0  0  0
    6.1317   -2.5126    0.0000 C   0  0  0  0  0  0  0  0  0  0  0  0
  1  2  1  0
  2  3  1  0
  3  4  1  1
  3  5  1  0
  5  6  1  0
  6  7  2  0
  7  8  1  0
  8  9  2  0
  9 10  1  0
  9 11  1  0
 11 12  2  0
  5 13  1  1
 13 14  1  0
 13 15  1  0
 15 16  1  0
 16 17  1  0
 17 18  2  0
 18 19  1  0
 19 20  1  0
 12  6  1  0
 20 16  2  0
M  CHG  2   4   1  13   1
M  END
>  <Compound_ID>  (495) 
C42954303

>  <Active>  (495) 
0.0

>  <Smiles>  (495) 
CC[C@@H]([NH3+])[C@@H](c1ccc(Br)cc1)[NH+](C)Cc1ccoc1

>  <canonical_smi>  (495) 
CC[C@@H]([NH3+])[C@@H](c1ccc(Br)cc1)[NH+](C)Cc1ccoc1

>  <Set>  (495) 
G2 inactive

>  <Set_type>  (495) 
Train

>  <MW>  (495) 
339.28

>  <HBD>  (495) 
2

>  <HBA>  (495) 
1

>  <NRB>  (495) 
6

>  <NR>  (495) 
2

>  <NAR>  (495) 
2

>  <PSA>  (495) 
45.22

>  <Standard Type>  (495) 
nan

>  <Standard Relation>  (495) 
nan

>  <Standard Units>  (495) 
nan

>  <Standard Value>  (495) 
nan

>  <Assay ChEMBL ID>  (495) 
nan

>  <Assay Description>  (495) 
nan

>  <BAO Label>  (495) 
nan

$$$$

     RDKit          2D

 26 29  0  0  0  0  0  0  0  0999 V2000
    0.9717   16.4259    0.0000 C   0  0  0  0  0  0  0  0  0  0  0  0
    0.6598   14.9587    0.0000 C   0  0  0  0  0  0  0  0  0  0  0  0
    1.7745   13.9550    0.0000 C   0  0  0  0  0  0  0  0  0  0  0  0
    1.4627   12.4878    0.0000 C   0  0  0  0  0  0  0  0  0  0  0  0
    0.0361   12.0242    0.0000 C   0  0  0  0  0  0  0  0  0  0  0  0
   -1.0786   13.0279    0.0000 N   0  0  0  0  0  4  0  0  0  0  0  0
   -2.5052   12.5644    0.0000 C   0  0  0  0  0  0  0  0  0  0  0  0
   -2.8171   11.0972    0.0000 C   0  0  0  0  0  0  0  0  0  0  0  0
   -4.2437   10.6337    0.0000 C   0  0  0  0  0  0  0  0  0  0  0  0
   -4.5556    9.1664    0.0000 C   0  0  0  0  0  0  0  0  0  0  0  0
   -3.4408    8.1628    0.0000 C   0  0  0  0  0  0  0  0  0  0  0  0
   -3.7527    6.6955    0.0000 C   0  0  0  0  0  0  0  0  0  0  0  0
   -2.6380    5.6918    0.0000 N   0  0  0  0  0  4  0  0  0  0  0  0
   -2.9499    4.2246    0.0000 C   0  0  0  0  0  0  0  0  0  0  0  0
   -1.8351    3.2209    0.0000 C   0  0  0  0  0  0  0  0  0  0  0  0
   -0.4086    3.6844    0.0000 C   0  0  0  0  0  0  0  0  0  0  0  0
    0.7062    2.6807    0.0000 N   0  0  0  0  0  0  0  0  0  0  0  0
    0.3943    1.2135    0.0000 C   0  0  0  0  0  0  0  0  0  0  0  0
    1.2760    0.0000    0.0000 C   0  0  0  0  0  0  0  0  0  0  0  0
    0.3943   -1.2135    0.0000 C   0  0  0  0  0  0  0  0  0  0  0  0
   -1.0323   -0.7500    0.0000 N   0  0  0  0  0  0  0  0  0  0  0  0
   -1.0323    0.7500    0.0000 N   0  0  0  0  0  0  0  0  0  0  0  0
   -2.1470    1.7537    0.0000 C   0  0  0  0  0  0  0  0  0  0  0  0
   -2.0143    8.6263    0.0000 C   0  0  0  0  0  0  0  0  0  0  0  0
   -1.7024   10.0935    0.0000 C   0  0  0  0  0  0  0  0  0  0  0  0
   -0.7668   14.4952    0.0000 C   0  0  0  0  0  0  0  0  0  0  0  0
  2  1  1  6
  2  3  1  0
  3  4  1  0
  4  5  1  0
  5  6  1  0
  6  7  1  0
  7  8  1  0
  8  9  2  0
  9 10  1  0
 10 11  2  0
 11 12  1  0
 12 13  1  0
 13 14  1  0
 15 14  1  6
 15 16  1  0
 16 17  1  0
 17 18  1  0
 18 19  2  0
 19 20  1  0
 20 21  2  0
 21 22  1  0
 22 23  1  0
 11 24  1  0
 24 25  2  0
  6 26  1  0
 26  2  1  0
 25  8  1  0
 23 15  1  0
 22 18  1  0
M  CHG  2   6   1  13   1
M  END
>  <Compound_ID>  (496) 
C58308381

>  <Active>  (496) 
0.0

>  <Smiles>  (496) 
C[C@@H]1CCC[NH+](Cc2ccc(C[NH2+]C[C@@H]3CNc4ccnn4C3)cc2)C1

>  <canonical_smi>  (496) 
C[C@@H]1CCC[NH+](Cc2ccc(C[NH2+]C[C@@H]3CNc4ccnn4C3)cc2)C1

>  <Set>  (496) 
G2 inactive

>  <Set_type>  (496) 
Train

>  <MW>  (496) 
355.53

>  <HBD>  (496) 
3

>  <HBA>  (496) 
2

>  <NRB>  (496) 
6

>  <NR>  (496) 
4

>  <NAR>  (496) 
2

>  <PSA>  (496) 
50.9

>  <Standard Type>  (496) 
nan

>  <Standard Relation>  (496) 
nan

>  <Standard Units>  (496) 
nan

>  <Standard Value>  (496) 
nan

>  <Assay ChEMBL ID>  (496) 
nan

>  <Assay Description>  (496) 
nan

>  <BAO Label>  (496) 
nan

$$$$

     RDKit          2D

 33 35  0  0  0  0  0  0  0  0999 V2000
    4.5000    0.0000    0.0000 N   0  0  0  0  0  0  0  0  0  0  0  0
    3.0000    0.0000    0.0000 C   0  0  0  0  0  0  0  0  0  0  0  0
    1.5000    0.0000    0.0000 C   0  0  0  0  0  0  0  0  0  0  0  0
    0.7500   -1.2990    0.0000 C   0  0  0  0  0  0  0  0  0  0  0  0
   -0.7500   -1.2990    0.0000 C   0  0  0  0  0  0  0  0  0  0  0  0
   -1.5000    0.0000    0.0000 C   0  0  0  0  0  0  0  0  0  0  0  0
   -3.0000    0.0000    0.0000 N   0  0  0  0  0  0  0  0  0  0  0  0
   -3.7500    1.2990    0.0000 C   0  0  0  0  0  0  0  0  0  0  0  0
   -5.2500    1.2990    0.0000 C   0  0  0  0  0  0  0  0  0  0  0  0
   -5.2500    2.7990    0.0000 F   0  0  0  0  0  0  0  0  0  0  0  0
   -5.2500   -0.2010    0.0000 F   0  0  0  0  0  0  0  0  0  0  0  0
   -6.7500    1.2990    0.0000 C   0  0  0  0  0  0  0  0  0  0  0  0
   -7.5000    2.5981    0.0000 C   0  0  0  0  0  0  0  0  0  0  0  0
   -9.0000    2.5981    0.0000 C   0  0  0  0  0  0  0  0  0  0  0  0
   -9.7500    1.2990    0.0000 C   0  0  0  0  0  0  0  0  0  0  0  0
   -9.0000    0.0000    0.0000 C   0  0  0  0  0  0  0  0  0  0  0  0
   -7.5000    0.0000    0.0000 N   0  0  0  0  0  0  0  0  0  0  0  0
   -0.7500    1.2990    0.0000 N   0  0  0  0  0  4  0  0  0  0  0  0
   -1.5000    2.5981    0.0000 O   0  0  0  0  0  1  0  0  0  0  0  0
    0.7500    1.2990    0.0000 C   0  0  0  0  0  0  0  0  0  0  0  0
    1.5000    2.5981    0.0000 C   0  0  0  0  0  0  0  0  0  0  0  0
    0.7500    3.8971    0.0000 C   0  0  0  0  0  0  0  0  0  0  0  0
   -0.7500    3.8971    0.0000 O   0  0  0  0  0  0  0  0  0  0  0  0
    1.5000    5.1962    0.0000 N   0  0  0  0  0  0  0  0  0  0  0  0
    0.7500    6.4952    0.0000 C   0  0  0  0  0  0  0  0  0  0  0  0
    1.5000    7.7942    0.0000 C   0  0  0  0  0  0  0  0  0  0  0  0
    3.0000    7.7942    0.0000 C   0  0  0  0  0  0  0  0  0  0  0  0
    3.7500    9.0933    0.0000 C   0  0  0  0  0  0  0  0  0  0  0  0
    3.0000   10.3923    0.0000 C   0  0  0  0  0  0  0  0  0  0  0  0
    1.5000   10.3923    0.0000 C   0  0  0  0  0  0  0  0  0  0  0  0
    0.7500    9.0933    0.0000 C   0  0  0  0  0  0  0  0  0  0  0  0
   -0.7500    9.0933    0.0000 C   0  0  0  0  0  0  0  0  0  0  0  0
   -1.5000   10.3923    0.0000 N   0  0  0  0  0  4  0  0  0  0  0  0
  1  2  3  0
  2  3  1  0
  3  4  2  0
  4  5  1  0
  5  6  2  0
  6  7  1  0
  7  8  1  0
  8  9  1  0
  9 10  1  0
  9 11  1  0
  9 12  1  0
 12 13  2  0
 13 14  1  0
 14 15  2  0
 15 16  1  0
 16 17  2  0
  6 18  1  0
 18 19  1  0
 18 20  2  0
 20 21  1  0
 21 22  1  0
 22 23  1  6
 22 24  1  0
 24 25  1  0
 25 26  1  0
 26 27  2  0
 27 28  1  0
 28 29  2  0
 29 30  1  0
 30 31  2  0
 31 32  1  0
 32 33  1  0
 20  3  1  0
 31 26  1  0
 17 12  1  0
M  CHG  3  18   1  19  -1  33   1
M  END
>  <Compound_ID>  (497) 
C28525091

>  <Active>  (497) 
0.0

>  <Smiles>  (497) 
N#Cc1ccc(NCC(F)(F)c2ccccn2)[n+]([O-])c1C[C@H](O)NCc1ccccc1C[NH3+]

>  <canonical_smi>  (497) 
N#Cc1ccc(NCC(F)(F)c2ccccn2)[n+]([O-])c1C[C@H](O)NCc1ccccc1C[NH3+]

>  <Set>  (497) 
G2 inactive

>  <Set_type>  (497) 
Train

>  <MW>  (497) 
455.49

>  <HBD>  (497) 
4

>  <HBA>  (497) 
6

>  <NRB>  (497) 
10

>  <NR>  (497) 
3

>  <NAR>  (497) 
3

>  <PSA>  (497) 
135.55

>  <Standard Type>  (497) 
nan

>  <Standard Relation>  (497) 
nan

>  <Standard Units>  (497) 
nan

>  <Standard Value>  (497) 
nan

>  <Assay ChEMBL ID>  (497) 
nan

>  <Assay Description>  (497) 
nan

>  <BAO Label>  (497) 
nan

$$$$

     RDKit          2D

 36 38  0  0  0  0  0  0  0  0999 V2000
   14.4110    3.9134    0.0000 C   0  0  0  0  0  0  0  0  0  0  0  0
   12.9844    4.3769    0.0000 C   0  0  0  0  0  0  0  0  0  0  0  0
   11.8697    3.3732    0.0000 C   0  0  0  0  0  0  0  0  0  0  0  0
   10.4431    3.8367    0.0000 C   0  0  0  0  0  0  0  0  0  0  0  0
    9.3284    2.8330    0.0000 C   0  0  0  0  0  0  0  0  0  0  0  0
    7.9018    3.2966    0.0000 C   0  0  0  0  0  0  0  0  0  0  0  0
    6.7871    2.2929    0.0000 C   0  0  0  0  0  0  0  0  0  0  0  0
    7.0990    0.8256    0.0000 C   0  0  0  0  0  0  0  0  0  0  0  0
    8.5256    0.3621    0.0000 O   0  0  0  0  0  0  0  0  0  0  0  0
    5.9843   -0.1781    0.0000 N   0  0  0  0  0  0  0  0  0  0  0  0
    6.2961   -1.6453    0.0000 C   0  0  0  0  0  0  0  0  0  0  0  0
    5.1814   -2.6490    0.0000 C   0  0  0  0  0  0  0  0  0  0  0  0
    5.4933   -4.1162    0.0000 O   0  0  0  0  0  0  0  0  0  0  0  0
    3.7548   -2.1855    0.0000 O   0  0  0  0  0  0  0  0  0  0  0  0
    2.6401   -3.1891    0.0000 C   0  0  0  0  0  0  0  0  0  0  0  0
    1.2135   -2.7256    0.0000 C   0  0  0  0  0  0  0  0  0  0  0  0
    0.7500   -1.2990    0.0000 C   0  0  0  0  0  0  0  0  0  0  0  0
    1.5000    0.0000    0.0000 C   0  0  0  0  0  0  0  0  0  0  0  0
    0.7500    1.2990    0.0000 C   0  0  0  0  0  0  0  0  0  0  0  0
   -0.7500    1.2990    0.0000 C   0  0  0  0  0  0  0  0  0  0  0  0
   -1.5000    2.5981    0.0000 Cl  0  0  0  0  0  0  0  0  0  0  0  0
   -1.5000    0.0000    0.0000 C   0  0  0  0  0  0  0  0  0  0  0  0
   -0.7500   -1.2990    0.0000 C   0  0  0  0  0  0  0  0  0  0  0  0
   -1.2135   -2.7256    0.0000 N   0  0  0  0  0  0  0  0  0  0  0  0
    0.0000   -3.6073    0.0000 C   0  0  0  0  0  0  0  0  0  0  0  0
    2.9520   -4.6564    0.0000 C   0  0  0  0  0  0  0  0  0  0  0  0
    4.3786   -5.1199    0.0000 N   0  0  0  0  0  0  0  0  0  0  0  0
    4.6904   -6.5871    0.0000 C   0  0  0  0  0  0  0  0  0  0  0  0
    6.1170   -7.0506    0.0000 O   0  0  0  0  0  0  0  0  0  0  0  0
    3.5757   -7.5908    0.0000 C   0  0  0  0  0  0  0  0  0  0  0  0
    2.1491   -7.1273    0.0000 N   0  0  0  0  0  0  0  0  0  0  0  0
    1.8373   -5.6601    0.0000 C   0  0  0  0  0  0  0  0  0  0  0  0
    0.4107   -5.1965    0.0000 O   0  0  0  0  0  0  0  0  0  0  0  0
    7.7227   -2.1088    0.0000 C   0  0  0  0  0  0  0  0  0  0  0  0
    8.8374   -1.1051    0.0000 C   0  0  0  0  0  0  0  0  0  0  0  0
    8.0346   -3.5760    0.0000 N   0  0  0  0  0  4  0  0  0  0  0  0
  1  2  1  0
  2  3  2  0
  3  4  1  0
  4  5  2  0
  5  6  1  0
  6  7  2  0
  7  8  1  0
  8  9  2  0
  8 10  1  0
 11 10  1  6
 11 12  1  0
 12 13  2  0
 12 14  1  0
 15 14  1  1
 15 16  1  0
 16 17  2  0
 17 18  1  0
 18 19  2  0
 19 20  1  0
 20 21  1  0
 20 22  2  0
 23 22  1  1
 23 24  1  0
 24 25  2  0
 15 26  1  0
 26 27  1  1
 27 28  1  0
 28 29  2  0
 28 30  1  0
 30 31  1  0
 31 32  1  0
 32 33  2  0
 11 34  1  0
 34 35  1  6
 34 36  1  0
 25 16  1  0
 32 26  1  0
 23 17  1  0
M  CHG  1  36   1
M  END
>  <Compound_ID>  (498) 
C39559757

>  <Active>  (498) 
0.0

>  <Smiles>  (498) 
C/C=C/C=C/C=C\C(=O)N[C@@H](C(=O)O[C@H](C1=C2C=CC(Cl)=C[C@@H]2N=C1)[C@H]1NC(=O)CNC1=O)[C@H](C)[NH3+]

>  <canonical_smi>  (498) 
C/C=C/C=C/C=C\C(=O)N[C@@H](C(=O)O[C@H](C1=C2C=CC(Cl)=C[C@@H]2N=C1)[C@H]1NC(=O)CNC1=O)[C@H](C)[NH3+]

>  <Set>  (498) 
G2 inactive

>  <Set_type>  (498) 
Train

>  <MW>  (498) 
514.99

>  <HBD>  (498) 
4

>  <HBA>  (498) 
5

>  <NRB>  (498) 
9

>  <NR>  (498) 
3

>  <NAR>  (498) 
0

>  <PSA>  (498) 
153.6

>  <Standard Type>  (498) 
nan

>  <Standard Relation>  (498) 
nan

>  <Standard Units>  (498) 
nan

>  <Standard Value>  (498) 
nan

>  <Assay ChEMBL ID>  (498) 
nan

>  <Assay Description>  (498) 
nan

>  <BAO Label>  (498) 
nan

$$$$

     RDKit          2D

 36 41  0  0  0  0  0  0  0  0999 V2000
    8.7450   -4.1997    0.0000 C   0  0  0  0  0  0  0  0  0  0  0  0
    8.1349   -2.8294    0.0000 C   0  0  0  0  0  0  0  0  0  0  0  0
    7.5248   -1.4590    0.0000 C   0  0  0  0  0  0  0  0  0  0  0  0
    8.4065   -0.2455    0.0000 O   0  0  0  0  0  0  0  0  0  0  0  0
    9.5052   -2.2192    0.0000 C   0  0  0  0  0  0  0  0  0  0  0  0
    9.6620   -0.7275    0.0000 O   0  0  0  0  0  0  0  0  0  0  0  0
    6.7646   -3.4395    0.0000 N   0  0  0  0  0  0  0  0  0  0  0  0
    5.5511   -2.5578    0.0000 C   0  0  0  0  0  0  0  0  0  0  0  0
    5.7079   -1.0660    0.0000 C   0  0  0  0  0  0  0  0  0  0  0  0
    4.4943   -0.1843    0.0000 C   0  0  0  0  0  0  0  0  0  0  0  0
    3.1240   -0.7944    0.0000 C   0  0  0  0  0  0  0  0  0  0  0  0
    1.7537   -0.1843    0.0000 N   0  0  0  0  0  0  0  0  0  0  0  0
    0.7500   -1.2990    0.0000 C   0  0  0  0  0  0  0  0  0  0  0  0
    0.8000   -0.0000    0.0000 C   0  0  0  0  0  0  0  0  0  0  0  0
    0.4000    0.6928    0.0000 C   0  0  0  0  0  0  0  0  0  0  0  0
   -0.4000    0.6928    0.0000 C   0  0  0  0  0  0  0  0  0  0  0  0
   -0.8000    0.0000    0.0000 C   0  0  0  0  0  0  0  0  0  0  0  0
   -0.7500   -1.2990    0.0000 C   0  0  0  0  0  0  0  0  0  0  0  0
   -1.5000   -2.5981    0.0000 C   0  0  0  0  0  0  0  0  0  0  0  0
   -3.0000   -2.5981    0.0000 C   0  0  0  0  0  0  0  0  0  0  0  0
   -3.7500   -1.2990    0.0000 C   0  0  0  0  0  0  0  0  0  0  0  0
   -5.2500   -1.2990    0.0000 C   0  0  0  0  0  0  0  0  0  0  0  0
   -6.0000   -2.5981    0.0000 C   0  0  0  0  0  0  0  0  0  0  0  0
   -5.2500   -3.8971    0.0000 C   0  0  0  0  0  0  0  0  0  0  0  0
   -3.7500   -3.8971    0.0000 C   0  0  0  0  0  0  0  0  0  0  0  0
   -0.7500   -3.8971    0.0000 C   0  0  0  0  0  0  0  0  0  0  0  0
    0.7500   -3.8971    0.0000 C   0  0  0  0  0  0  0  0  0  0  0  0
    1.5000   -5.1962    0.0000 C   0  0  0  0  0  0  0  0  0  0  0  0
    0.7500   -6.4952    0.0000 C   0  0  0  0  0  0  0  0  0  0  0  0
    1.5000   -7.7942    0.0000 C   0  0  0  0  0  0  0  0  0  0  0  0
    3.0000   -7.7942    0.0000 C   0  0  0  0  0  0  0  0  0  0  0  0
    3.7500   -6.4952    0.0000 C   0  0  0  0  0  0  0  0  0  0  0  0
    3.0000   -5.1962    0.0000 C   0  0  0  0  0  0  0  0  0  0  0  0
    1.5000   -2.5981    0.0000 N   0  0  0  0  0  0  0  0  0  0  0  0
    2.9672   -2.2862    0.0000 C   0  0  0  0  0  0  0  0  0  0  0  0
    4.1807   -3.1679    0.0000 C   0  0  0  0  0  0  0  0  0  0  0  0
  1  2  1  0
  2  3  1  0
  3  4  1  0
  2  5  1  0
  5  6  1  0
  2  7  1  0
  7  8  2  0
  8  9  1  0
  9 10  2  0
 10 11  1  0
 11 12  2  0
 12 13  1  0
 13 14  1  6
 14 15  1  0
 15 16  1  0
 16 17  1  0
 18 17  1  1
 18 19  1  0
 19 20  1  6
 20 21  2  0
 21 22  1  0
 22 23  2  0
 23 24  1  0
 24 25  2  0
 19 26  1  0
 26 27  2  0
 27 28  1  0
 28 29  2  0
 29 30  1  0
 30 31  2  0
 31 32  1  0
 32 33  2  0
 27 34  1  0
 34 35  1  0
 35 36  2  0
 36  8  1  0
 35 11  1  0
 18 13  1  0
 25 20  1  0
 33 28  1  0
 34 13  1  0
M  END
>  <Compound_ID>  (499) 
C12436883

>  <Active>  (499) 
0.0

>  <Smiles>  (499) 
CC(CO)(CO)/N=C1\C=CC2=N[C@]34CCCC[C@@H]3[C@@H](c3ccccc3)C=C(c3ccccc3)N4C2=C1

>  <canonical_smi>  (499) 
CC(CO)(CO)/N=C1\C=CC2=N[C@]34CCCC[C@@H]3[C@@H](c3ccccc3)C=C(c3ccccc3)N4C2=C1

>  <Set>  (499) 
G2 inactive

>  <Set_type>  (499) 
Train

>  <MW>  (499) 
479.62

>  <HBD>  (499) 
2

>  <HBA>  (499) 
3

>  <NRB>  (499) 
5

>  <NR>  (499) 
6

>  <NAR>  (499) 
2

>  <PSA>  (499) 
68.42

>  <Standard Type>  (499) 
nan

>  <Standard Relation>  (499) 
nan

>  <Standard Units>  (499) 
nan

>  <Standard Value>  (499) 
nan

>  <Assay ChEMBL ID>  (499) 
nan

>  <Assay Description>  (499) 
nan

>  <BAO Label>  (499) 
nan

$$$$

     RDKit          2D

 27 30  0  0  0  0  0  0  0  0999 V2000
    6.1459    5.6535    0.0000 C   0  0  0  0  0  0  0  0  0  0  0  0
    4.7193    6.1170    0.0000 C   0  0  0  0  0  0  0  0  0  0  0  0
    3.2927    6.5805    0.0000 C   0  0  0  0  0  0  0  0  0  0  0  0
    5.1828    7.5436    0.0000 C   0  0  0  0  0  0  0  0  0  0  0  0
    4.2558    4.6904    0.0000 C   0  0  0  0  0  0  0  0  0  0  0  0
    5.2595    3.5757    0.0000 C   0  0  0  0  0  0  0  0  0  0  0  0
    4.7960    2.1491    0.0000 C   0  0  0  0  0  0  0  0  0  0  0  0
    3.3287    1.8373    0.0000 N   0  0  0  0  0  0  0  0  0  0  0  0
    2.3250    2.9520    0.0000 C   0  0  0  0  0  0  0  0  0  0  0  0
    0.8578    2.6401    0.0000 N   0  0  0  0  0  0  0  0  0  0  0  0
    0.3943    1.2135    0.0000 C   0  0  0  0  0  0  0  0  0  0  0  0
    1.2760    0.0000    0.0000 C   0  0  0  0  0  0  0  0  0  0  0  0
    0.3943   -1.2135    0.0000 O   0  0  0  0  0  0  0  0  0  0  0  0
   -1.0323   -0.7500    0.0000 C   0  0  0  0  0  0  0  0  0  0  0  0
   -1.0323    0.7500    0.0000 C   0  0  0  0  0  0  0  0  0  0  0  0
   -2.4589    1.2135    0.0000 O   0  0  0  0  0  0  0  0  0  0  0  0
   -3.3405    0.0000    0.0000 C   0  0  0  0  0  0  0  0  0  0  0  0
   -2.4589   -1.2135    0.0000 C   0  0  0  0  0  0  0  0  0  0  0  0
   -2.9224   -2.6401    0.0000 N   0  0  0  0  0  4  0  0  0  0  0  0
   -4.3896   -2.9520    0.0000 C   0  0  0  0  0  0  0  0  0  0  0  0
   -4.8531   -4.3786    0.0000 C   0  0  0  0  0  0  0  0  0  0  0  0
   -6.3204   -4.6904    0.0000 C   0  0  0  0  0  0  0  0  0  0  0  0
   -6.7839   -6.1170    0.0000 C   0  0  0  0  0  0  0  0  0  0  0  0
   -5.7802   -7.2317    0.0000 C   0  0  0  0  0  0  0  0  0  0  0  0
   -4.3130   -6.9199    0.0000 C   0  0  0  0  0  0  0  0  0  0  0  0
   -3.8494   -5.4933    0.0000 C   0  0  0  0  0  0  0  0  0  0  0  0
    2.7886    4.3786    0.0000 N   0  0  0  0  0  0  0  0  0  0  0  0
  1  2  1  0
  2  3  1  0
  2  4  1  0
  2  5  1  0
  5  6  2  0
  6  7  1  0
  7  8  2  0
  8  9  1  0
  9 10  1  0
 11 10  1  1
 11 12  1  0
 12 13  1  0
 14 13  1  6
 14 15  1  0
 15 16  1  6
 16 17  1  0
 17 18  1  0
 18 19  1  1
 19 20  1  0
 20 21  1  0
 21 22  1  0
 22 23  1  0
 23 24  1  0
 24 25  1  0
 25 26  1  0
  9 27  2  0
 27  5  1  0
 15 11  1  0
 26 21  1  0
 18 14  1  0
M  CHG  1  19   1
M  END
>  <Compound_ID>  (500) 
C05433911

>  <Active>  (500) 
0.0

>  <Smiles>  (500) 
CC(C)(C)c1ccnc(N[C@H]2CO[C@H]3[C@@H]2OC[C@@H]3[NH2+]CC2CCCCC2)n1

>  <canonical_smi>  (500) 
CC(C)(C)c1ccnc(N[C@H]2CO[C@@H]3[C@@H]([NH2+]CC4CCCCC4)CO[C@H]23)n1

>  <Set>  (500) 
G2 inactive

>  <Set_type>  (500) 
Train

>  <MW>  (500) 
375.54

>  <HBD>  (500) 
2

>  <HBA>  (500) 
5

>  <NRB>  (500) 
5

>  <NR>  (500) 
4

>  <NAR>  (500) 
1

>  <PSA>  (500) 
72.88

>  <Standard Type>  (500) 
nan

>  <Standard Relation>  (500) 
nan

>  <Standard Units>  (500) 
nan

>  <Standard Value>  (500) 
nan

>  <Assay ChEMBL ID>  (500) 
nan

>  <Assay Description>  (500) 
nan

>  <BAO Label>  (500) 
nan

$$$$

     RDKit          2D

 21 22  0  0  0  0  0  0  0  0999 V2000
    3.0000    0.0000    0.0000 C   0  0  0  0  0  0  0  0  0  0  0  0
    1.5000    0.0000    0.0000 C   0  0  0  0  0  0  0  0  0  0  0  0
    0.7500   -1.2990    0.0000 C   0  0  0  0  0  0  0  0  0  0  0  0
   -0.7500   -1.2990    0.0000 C   0  0  0  0  0  0  0  0  0  0  0  0
   -1.5000   -2.5981    0.0000 C   0  0  0  0  0  0  0  0  0  0  0  0
   -1.5000    0.0000    0.0000 C   0  0  0  0  0  0  0  0  0  0  0  0
   -0.7500    1.2990    0.0000 C   0  0  0  0  0  0  0  0  0  0  0  0
   -1.5000    2.5981    0.0000 O   0  0  0  0  0  0  0  0  0  0  0  0
   -0.7500    3.8971    0.0000 C   0  0  0  0  0  0  0  0  0  0  0  0
   -1.5000    5.1962    0.0000 C   0  0  0  0  0  0  0  0  0  0  0  0
   -0.7500    6.4952    0.0000 C   0  0  0  0  0  0  0  0  0  0  0  0
   -1.5000    7.7942    0.0000 C   0  0  0  0  0  0  0  0  0  0  0  0
   -3.0000    7.7942    0.0000 C   0  0  0  0  0  0  0  0  0  0  0  0
   -3.7500    9.0933    0.0000 N   0  0  0  0  0  0  0  0  0  0  0  0
   -3.0000   10.3923    0.0000 N   0  0  0  0  0  0  0  0  0  0  0  0
   -3.7500    6.4952    0.0000 C   0  0  0  0  0  0  0  0  0  0  0  0
   -5.2500    6.4952    0.0000 N   0  0  0  0  0  4  0  0  0  0  0  0
   -6.0000    7.7942    0.0000 O   0  0  0  0  0  0  0  0  0  0  0  0
   -6.0000    5.1962    0.0000 O   0  0  0  0  0  1  0  0  0  0  0  0
   -3.0000    5.1962    0.0000 C   0  0  0  0  0  0  0  0  0  0  0  0
    0.7500    1.2990    0.0000 C   0  0  0  0  0  0  0  0  0  0  0  0
  1  2  1  0
  2  3  2  0
  3  4  1  0
  4  5  1  0
  4  6  2  0
  6  7  1  0
  7  8  1  0
  8  9  1  0
  9 10  1  0
 10 11  2  0
 11 12  1  0
 12 13  2  0
 13 14  1  0
 14 15  1  0
 13 16  1  0
 16 17  1  0
 17 18  2  0
 17 19  1  0
 16 20  2  0
  7 21  2  0
 21  2  1  0
 20 10  1  0
M  CHG  2  17   1  19  -1
M  END
>  <Compound_ID>  (501) 
C51148840

>  <Active>  (501) 
0.0

>  <Smiles>  (501) 
Cc1cc(C)cc(OCc2ccc(NN)c([N+](=O)[O-])c2)c1

>  <canonical_smi>  (501) 
Cc1cc(C)cc(OCc2ccc(NN)c([N+](=O)[O-])c2)c1

>  <Set>  (501) 
G2 inactive

>  <Set_type>  (501) 
Train

>  <MW>  (501) 
287.32

>  <HBD>  (501) 
2

>  <HBA>  (501) 
5

>  <NRB>  (501) 
5

>  <NR>  (501) 
2

>  <NAR>  (501) 
2

>  <PSA>  (501) 
90.42

>  <Standard Type>  (501) 
nan

>  <Standard Relation>  (501) 
nan

>  <Standard Units>  (501) 
nan

>  <Standard Value>  (501) 
nan

>  <Assay ChEMBL ID>  (501) 
nan

>  <Assay Description>  (501) 
nan

>  <BAO Label>  (501) 
nan

$$$$

     RDKit          2D

 23 25  0  0  0  0  0  0  0  0999 V2000
    3.3107   -1.2990    0.0000 C   0  0  0  0  0  0  0  0  0  0  0  0
    2.5607    0.0000    0.0000 C   0  0  0  0  0  0  0  0  0  0  0  0
    3.3107    1.2990    0.0000 O   0  0  0  0  0  0  0  0  0  0  0  0
    1.0607    0.0000    0.0000 C   0  0  0  0  0  0  0  0  0  0  0  0
   -0.0000   -1.0607    0.0000 C   0  0  0  0  0  0  0  0  0  0  0  0
   -0.0000   -2.5607    0.0000 O   0  0  0  0  0  0  0  0  0  0  0  0
   -1.0607    0.0000    0.0000 N   0  0  0  0  0  0  0  0  0  0  0  0
   -2.3972    0.6810    0.0000 C   0  0  0  0  0  0  0  0  0  0  0  0
   -3.7337    0.0000    0.0000 C   0  0  0  0  0  0  0  0  0  0  0  0
   -4.9917    0.8170    0.0000 O   0  0  0  0  0  0  0  0  0  0  0  0
   -3.8122   -1.4979    0.0000 O   0  0  0  0  0  1  0  0  0  0  0  0
   -2.1625    2.1625    0.0000 C   0  0  0  0  0  0  0  0  0  0  0  0
   -3.2232    3.2232    0.0000 C   0  0  0  0  0  0  0  0  0  0  0  0
   -2.8349    4.6721    0.0000 C   0  0  0  0  0  0  0  0  0  0  0  0
   -3.8956    5.7327    0.0000 C   0  0  0  0  0  0  0  0  0  0  0  0
   -5.3445    5.3445    0.0000 C   0  0  0  0  0  0  0  0  0  0  0  0
   -6.4052    6.4052    0.0000 C   0  0  0  0  0  0  0  0  0  0  0  0
   -6.0169    7.8540    0.0000 N   0  0  0  0  0  4  0  0  0  0  0  0
   -5.7327    3.8956    0.0000 N   0  0  0  0  0  0  0  0  0  0  0  0
   -4.6721    2.8349    0.0000 C   0  0  0  0  0  0  0  0  0  0  0  0
   -0.6810    2.3972    0.0000 C   0  0  0  0  0  0  0  0  0  0  0  0
    0.0000    3.7337    0.0000 C   0  0  0  0  0  0  0  0  0  0  0  0
    0.0000    1.0607    0.0000 C   0  0  0  0  0  0  0  0  0  0  0  0
  2  1  1  1
  2  3  1  0
  2  4  1  0
  4  5  1  1
  5  6  2  0
  5  7  1  0
  7  8  1  0
  8  9  1  0
  9 10  2  0
  9 11  1  0
  8 12  2  0
 12 13  1  0
 13 14  2  0
 14 15  1  0
 15 16  2  0
 16 17  1  0
 17 18  1  0
 16 19  1  0
 19 20  2  0
 12 21  1  0
 21 22  1  6
 21 23  1  0
 23  4  1  0
 23  7  1  6
 20 13  1  0
M  CHG  2  11  -1  18   1
M  END
>  <Compound_ID>  (502) 
C27990646

>  <Active>  (502) 
0.0

>  <Smiles>  (502) 
C[C@H](O)[C@H]1C(=O)N2C(C(=O)[O-])=C(c3ccc(C[NH3+])nc3)[C@H](C)[C@H]12

>  <canonical_smi>  (502) 
C[C@H](O)[C@H]1C(=O)N2C(C(=O)[O-])=C(c3ccc(C[NH3+])nc3)[C@H](C)[C@H]12

>  <Set>  (502) 
G2 inactive

>  <Set_type>  (502) 
Train

>  <MW>  (502) 
317.35

>  <HBD>  (502) 
2

>  <HBA>  (502) 
5

>  <NRB>  (502) 
4

>  <NR>  (502) 
3

>  <NAR>  (502) 
1

>  <PSA>  (502) 
121.2

>  <Standard Type>  (502) 
nan

>  <Standard Relation>  (502) 
nan

>  <Standard Units>  (502) 
nan

>  <Standard Value>  (502) 
nan

>  <Assay ChEMBL ID>  (502) 
nan

>  <Assay Description>  (502) 
nan

>  <BAO Label>  (502) 
nan

$$$$

     RDKit          2D

 16 17  0  0  0  0  0  0  0  0999 V2000
    2.7760    0.0000    0.0000 N   0  0  0  0  0  0  0  0  0  0  0  0
    1.2760    0.0000    0.0000 C   0  0  0  0  0  0  0  0  0  0  0  0
    0.3943    1.2135    0.0000 N   0  0  0  0  0  0  0  0  0  0  0  0
   -1.0323    0.7500    0.0000 N   0  0  0  0  0  4  0  0  0  0  0  0
   -1.0323   -0.7500    0.0000 C   0  0  0  0  0  0  0  0  0  0  0  0
    0.3943   -1.2135    0.0000 C   0  0  0  0  0  0  0  0  0  0  0  0
    0.8578   -2.6401    0.0000 S   0  0  0  0  0  0  0  0  0  0  0  0
   -0.5688   -3.1036    0.0000 O   0  0  0  0  0  0  0  0  0  0  0  0
    2.2844   -2.1766    0.0000 O   0  0  0  0  0  0  0  0  0  0  0  0
    1.3213   -4.0667    0.0000 N   0  0  0  0  0  2  0  0  0  0  0  0
    2.7886   -4.3786    0.0000 C   0  0  0  0  0  0  0  0  0  0  0  0
    3.9033   -3.3749    0.0000 N   0  0  0  0  0  0  0  0  0  0  0  0
    5.2023   -4.1249    0.0000 C   0  0  0  0  0  0  0  0  0  0  0  0
    4.8905   -5.5921    0.0000 C   0  0  0  0  0  0  0  0  0  0  0  0
    5.8942   -6.7068    0.0000 Br  0  0  0  0  0  0  0  0  0  0  0  0
    3.3987   -5.7489    0.0000 S   0  0  0  0  0  0  0  0  0  0  0  0
  1  2  1  0
  2  3  1  0
  3  4  1  0
  4  5  2  0
  5  6  1  0
  6  7  1  0
  7  8  2  0
  7  9  2  0
  7 10  1  0
 10 11  1  0
 11 12  2  0
 12 13  1  0
 13 14  2  0
 14 15  1  0
 14 16  1  0
  6  2  2  0
 16 11  1  0
M  CHG  2   4   1  10  -1
M  END
>  <Compound_ID>  (503) 
C37471665

>  <Active>  (503) 
0.0

>  <Smiles>  (503) 
Nc1[nH][nH+]cc1S(=O)(=O)[N-]c1ncc(Br)s1

>  <canonical_smi>  (503) 
Nc1[nH][nH+]cc1S(=O)(=O)[N-]c1ncc(Br)s1

>  <Set>  (503) 
G2 inactive

>  <Set_type>  (503) 
Train

>  <MW>  (503) 
324.19

>  <HBD>  (503) 
2

>  <HBA>  (503) 
4

>  <NRB>  (503) 
3

>  <NR>  (503) 
2

>  <NAR>  (503) 
2

>  <PSA>  (503) 
117.08

>  <Standard Type>  (503) 
nan

>  <Standard Relation>  (503) 
nan

>  <Standard Units>  (503) 
nan

>  <Standard Value>  (503) 
nan

>  <Assay ChEMBL ID>  (503) 
nan

>  <Assay Description>  (503) 
nan

>  <BAO Label>  (503) 
nan

$$$$

     RDKit          2D

 22 23  0  0  0  0  0  0  0  0999 V2000
    2.6491    0.9642    0.0000 C   0  0  0  0  0  0  0  0  0  0  0  0
    1.5000    0.0000    0.0000 C   0  0  0  0  0  0  0  0  0  0  0  0
    2.6491   -0.9642    0.0000 C   0  0  0  0  0  0  0  0  0  0  0  0
    0.7500   -1.2990    0.0000 C   0  0  0  0  0  0  0  0  0  0  0  0
   -0.7500   -1.2990    0.0000 C   0  0  0  0  0  0  0  0  0  0  0  0
   -1.5000   -2.5981    0.0000 O   0  0  0  0  0  0  0  0  0  0  0  0
   -1.5000    0.0000    0.0000 C   0  0  0  0  0  0  0  0  0  0  0  0
   -0.7500    1.2990    0.0000 C   0  0  0  0  0  0  0  0  0  0  0  0
   -2.1595    1.8121    0.0000 C   0  0  0  0  0  0  0  0  0  0  0  0
   -0.4895    2.7762    0.0000 C   0  0  0  0  0  0  0  0  0  0  0  0
   -1.6386    3.7404    0.0000 N   0  0  0  0  0  0  0  0  0  0  0  0
   -1.3781    5.2176    0.0000 C   0  0  0  0  0  0  0  0  0  0  0  0
   -2.5272    6.1818    0.0000 C   0  0  0  0  0  0  0  0  0  0  0  0
   -2.2667    7.6590    0.0000 C   0  0  0  0  0  0  0  0  0  0  0  0
   -0.8572    8.1721    0.0000 O   0  0  0  0  0  0  0  0  0  0  0  0
   -3.4158    8.6232    0.0000 N   0  0  0  0  0  0  0  0  0  0  0  0
   -4.8253    8.1102    0.0000 C   0  0  0  0  0  0  0  0  0  0  0  0
   -5.9744    9.0744    0.0000 O   0  0  0  0  0  0  0  0  0  0  0  0
   -5.0858    6.6330    0.0000 N   0  0  0  0  0  0  0  0  0  0  0  0
   -3.9367    5.6688    0.0000 C   0  0  0  0  0  0  0  0  0  0  0  0
   -4.1972    4.1916    0.0000 O   0  0  0  0  0  0  0  0  0  0  0  0
    0.7500    1.2990    0.0000 C   0  0  0  0  0  0  0  0  0  0  0  0
  1  2  1  0
  2  3  1  0
  2  4  1  0
  4  5  1  0
  5  6  1  1
  5  7  1  0
  7  8  1  0
  8  9  1  1
  8 10  1  0
 10 11  1  0
 11 12  1  0
 12 13  2  0
 13 14  1  0
 14 15  2  0
 14 16  1  0
 16 17  1  0
 17 18  2  0
 17 19  1  0
 19 20  1  0
 20 21  2  0
  8 22  1  0
 22  2  1  0
 20 13  1  0
M  END
>  <Compound_ID>  (504) 
C03189460

>  <Active>  (504) 
0.0

>  <Smiles>  (504) 
CC1(C)C[C@@H](O)C[C@](C)(CNC=C2C(=O)NC(=O)NC2=O)C1

>  <canonical_smi>  (504) 
CC1(C)C[C@@H](O)C[C@](C)(CNC=C2C(=O)NC(=O)NC2=O)C1

>  <Set>  (504) 
G2 inactive

>  <Set_type>  (504) 
Train

>  <MW>  (504) 
309.37

>  <HBD>  (504) 
4

>  <HBA>  (504) 
5

>  <NRB>  (504) 
3

>  <NR>  (504) 
2

>  <NAR>  (504) 
0

>  <PSA>  (504) 
107.53

>  <Standard Type>  (504) 
nan

>  <Standard Relation>  (504) 
nan

>  <Standard Units>  (504) 
nan

>  <Standard Value>  (504) 
nan

>  <Assay ChEMBL ID>  (504) 
nan

>  <Assay Description>  (504) 
nan

>  <BAO Label>  (504) 
nan

$$$$

     RDKit          2D

 25 27  0  0  0  0  0  0  0  0999 V2000
   -0.2316  -10.6019    0.0000 N   0  0  0  0  0  0  0  0  0  0  0  0
   -1.3463   -9.5982    0.0000 N   0  0  0  0  0  0  0  0  0  0  0  0
   -1.0344   -8.1310    0.0000 C   0  0  0  0  0  0  0  0  0  0  0  0
    0.3922   -7.6675    0.0000 S   0  0  0  0  0  0  0  0  0  0  0  0
   -2.1491   -7.1273    0.0000 N   0  0  0  0  0  0  0  0  0  0  0  0
   -1.8373   -5.6601    0.0000 N   0  0  0  0  0  0  0  0  0  0  0  0
   -2.9520   -4.6564    0.0000 C   0  0  0  0  0  0  0  0  0  0  0  0
   -2.6401   -3.1891    0.0000 C   0  0  0  0  0  0  0  0  0  0  0  0
   -1.2135   -2.7256    0.0000 C   0  0  0  0  0  0  0  0  0  0  0  0
   -0.0000   -3.6073    0.0000 O   0  0  0  0  0  0  0  0  0  0  0  0
    1.2135   -2.7256    0.0000 C   0  0  0  0  0  0  0  0  0  0  0  0
    2.6401   -3.1891    0.0000 O   0  0  0  0  0  0  0  0  0  0  0  0
    0.7500   -1.2990    0.0000 C   0  0  0  0  0  0  0  0  0  0  0  0
    1.5000    0.0000    0.0000 C   0  0  0  0  0  0  0  0  0  0  0  0
    0.7500    1.2990    0.0000 C   0  0  0  0  0  0  0  0  0  0  0  0
   -0.7500    1.2990    0.0000 C   0  0  0  0  0  0  0  0  0  0  0  0
   -1.5000    0.0000    0.0000 C   0  0  0  0  0  0  0  0  0  0  0  0
   -0.7500   -1.2990    0.0000 C   0  0  0  0  0  0  0  0  0  0  0  0
   -4.3786   -5.1199    0.0000 C   0  0  0  0  0  0  0  0  0  0  0  0
   -5.4933   -4.1162    0.0000 C   0  0  0  0  0  0  0  0  0  0  0  0
   -6.9199   -4.5797    0.0000 C   0  0  0  0  0  0  0  0  0  0  0  0
   -7.2317   -6.0469    0.0000 C   0  0  0  0  0  0  0  0  0  0  0  0
   -6.1170   -7.0506    0.0000 C   0  0  0  0  0  0  0  0  0  0  0  0
   -4.6904   -6.5871    0.0000 C   0  0  0  0  0  0  0  0  0  0  0  0
   -3.5757   -7.5908    0.0000 O   0  0  0  0  0  0  0  0  0  0  0  0
  1  2  1  0
  2  3  1  0
  3  4  2  0
  3  5  1  0
  5  6  1  0
  6  7  1  0
  7  8  1  0
  9  8  1  1
  9 10  1  0
 10 11  1  0
 11 12  2  0
 11 13  1  0
 13 14  2  0
 14 15  1  0
 15 16  2  0
 16 17  1  0
 17 18  2  0
  7 19  2  0
 19 20  1  0
 20 21  2  0
 21 22  1  0
 22 23  2  0
 23 24  1  0
 24 25  2  0
 18  9  1  0
 24 19  1  0
 18 13  1  0
M  END
>  <Compound_ID>  (505) 
C05808789

>  <Active>  (505) 
0.0

>  <Smiles>  (505) 
NNC(=S)NN/C(C[C@@H]1OC(=O)c2ccccc21)=C1/C=CC=CC1=O

>  <canonical_smi>  (505) 
NNC(=S)NN/C(C[C@@H]1OC(=O)c2ccccc21)=C1/C=CC=CC1=O

>  <Set>  (505) 
G2 inactive

>  <Set_type>  (505) 
Train

>  <MW>  (505) 
356.41

>  <HBD>  (505) 
4

>  <HBA>  (505) 
8

>  <NRB>  (505) 
4

>  <NR>  (505) 
3

>  <NAR>  (505) 
1

>  <PSA>  (505) 
105.48

>  <Standard Type>  (505) 
nan

>  <Standard Relation>  (505) 
nan

>  <Standard Units>  (505) 
nan

>  <Standard Value>  (505) 
nan

>  <Assay ChEMBL ID>  (505) 
nan

>  <Assay Description>  (505) 
nan

>  <BAO Label>  (505) 
nan

$$$$

     RDKit          2D

 25 27  0  0  0  0  0  0  0  0999 V2000
    3.0000    0.0000    0.0000 C   0  0  0  0  0  0  0  0  0  0  0  0
    1.5000    0.0000    0.0000 C   0  0  0  0  0  0  0  0  0  0  0  0
    0.7500   -1.2990    0.0000 C   0  0  0  0  0  0  0  0  0  0  0  0
   -0.7500   -1.2990    0.0000 C   0  0  0  0  0  0  0  0  0  0  0  0
   -1.5000    0.0000    0.0000 C   0  0  0  0  0  0  0  0  0  0  0  0
   -0.7500    1.2990    0.0000 C   0  0  0  0  0  0  0  0  0  0  0  0
    0.7500    1.2990    0.0000 C   0  0  0  0  0  0  0  0  0  0  0  0
    1.5000    2.5981    0.0000 N   0  0  0  0  0  0  0  0  0  0  0  0
    0.7500    3.8971    0.0000 C   0  0  0  0  0  0  0  0  0  0  0  0
    1.5000    5.1962    0.0000 N   0  0  0  0  0  0  0  0  0  0  0  0
    0.7500    6.4952    0.0000 C   0  0  0  0  0  0  0  0  0  0  0  0
    1.5000    7.7942    0.0000 N   0  0  0  0  0  0  0  0  0  0  0  0
   -0.7500    6.4952    0.0000 N   0  0  0  0  0  0  0  0  0  0  0  0
   -1.5000    5.1962    0.0000 C   0  0  0  0  0  0  0  0  0  0  0  0
   -3.0000    5.1962    0.0000 C   0  0  0  0  0  0  0  0  0  0  0  0
   -3.7500    6.4952    0.0000 S   0  0  0  0  0  0  0  0  0  0  0  0
   -5.2500    6.4952    0.0000 C   0  0  0  0  0  0  0  0  0  0  0  0
   -6.0000    7.7942    0.0000 N   0  0  0  0  0  0  0  0  0  0  0  0
   -7.5000    7.7942    0.0000 C   0  0  0  0  0  0  0  0  0  0  0  0
   -8.2500    9.0933    0.0000 O   0  0  0  0  0  0  0  0  0  0  0  0
   -8.2500    6.4952    0.0000 C   0  0  0  0  0  0  0  0  0  0  0  0
   -7.5000    5.1962    0.0000 C   0  0  0  0  0  0  0  0  0  0  0  0
   -8.2500    3.8971    0.0000 N   0  0  0  0  0  0  0  0  0  0  0  0
   -6.0000    5.1962    0.0000 N   0  0  0  0  0  0  0  0  0  0  0  0
   -0.7500    3.8971    0.0000 N   0  0  0  0  0  0  0  0  0  0  0  0
  1  2  1  0
  2  3  2  0
  3  4  1  0
  4  5  2  0
  5  6  1  0
  6  7  2  0
  7  8  1  0
  8  9  1  0
  9 10  2  0
 10 11  1  0
 11 12  1  0
 11 13  2  0
 13 14  1  0
 14 15  1  0
 15 16  1  0
 16 17  1  0
 17 18  2  0
 18 19  1  0
 19 20  2  0
 19 21  1  0
 21 22  1  0
 22 23  1  0
 22 24  2  0
 14 25  2  0
  7  2  1  0
 25  9  1  0
 24 17  1  0
M  END
>  <Compound_ID>  (506) 
C63901461

>  <Active>  (506) 
0.0

>  <Smiles>  (506) 
Cc1ccccc1Nc1nc(N)nc(CSC2=NC(=O)CC(N)=N2)n1

>  <canonical_smi>  (506) 
Cc1ccccc1Nc1nc(N)nc(CSC2=NC(=O)CC(N)=N2)n1

>  <Set>  (506) 
G2 inactive

>  <Set_type>  (506) 
Train

>  <MW>  (506) 
356.42

>  <HBD>  (506) 
3

>  <HBA>  (506) 
8

>  <NRB>  (506) 
4

>  <NR>  (506) 
3

>  <NAR>  (506) 
2

>  <PSA>  (506) 
144.53

>  <Standard Type>  (506) 
nan

>  <Standard Relation>  (506) 
nan

>  <Standard Units>  (506) 
nan

>  <Standard Value>  (506) 
nan

>  <Assay ChEMBL ID>  (506) 
nan

>  <Assay Description>  (506) 
nan

>  <BAO Label>  (506) 
nan

$$$$

     RDKit          2D

 33 36  0  0  0  0  0  0  0  0999 V2000
    8.2500   -3.8971    0.0000 C   0  0  0  0  0  0  0  0  0  0  0  0
    7.5000   -2.5981    0.0000 C   0  0  0  0  0  0  0  0  0  0  0  0
    6.0000   -2.5981    0.0000 C   0  0  0  0  0  0  0  0  0  0  0  0
    5.2500   -1.2990    0.0000 C   0  0  0  0  0  0  0  0  0  0  0  0
    3.7500   -1.2990    0.0000 C   0  0  0  0  0  0  0  0  0  0  0  0
    3.0000    0.0000    0.0000 C   0  0  0  0  0  0  0  0  0  0  0  0
    3.7500    1.2990    0.0000 O   0  0  0  0  0  0  0  0  0  0  0  0
    1.5000    0.0000    0.0000 N   0  0  0  0  0  0  0  0  0  0  0  0
    0.7500   -1.2990    0.0000 C   0  0  0  0  0  0  0  0  0  0  0  0
   -0.7500   -1.2990    0.0000 C   0  0  0  0  0  0  0  0  0  0  0  0
   -1.5000    0.0000    0.0000 N   0  0  0  0  0  0  0  0  0  0  0  0
   -3.0000    0.0000    0.0000 C   0  0  0  0  0  0  0  0  0  0  0  0
   -3.7500    1.2990    0.0000 N   0  0  0  0  0  0  0  0  0  0  0  0
   -5.2500    1.2990    0.0000 C   0  0  0  0  0  0  0  0  0  0  0  0
   -6.0000    2.5981    0.0000 C   0  0  0  0  0  0  0  0  0  0  0  0
   -5.2500    3.8971    0.0000 N   0  0  0  0  0  0  0  0  0  0  0  0
   -3.7500    3.8971    0.0000 C   0  0  0  0  0  0  0  0  0  0  0  0
   -3.0000    5.1962    0.0000 C   0  0  0  0  0  0  0  0  0  0  0  0
   -3.7500    6.4952    0.0000 N   0  0  0  0  0  4  0  0  0  0  0  0
   -3.0000    7.7942    0.0000 C   0  0  0  0  0  0  0  0  0  0  0  0
   -1.5000    7.7942    0.0000 C   0  0  0  0  0  0  0  0  0  0  0  0
   -0.7500    9.0933    0.0000 C   0  0  0  0  0  0  0  0  0  0  0  0
   -1.5000   10.3923    0.0000 C   0  0  0  0  0  0  0  0  0  0  0  0
   -3.0000   10.3923    0.0000 C   0  0  0  0  0  0  0  0  0  0  0  0
   -3.7500    9.0933    0.0000 C   0  0  0  0  0  0  0  0  0  0  0  0
   -5.2500    6.4952    0.0000 C   0  0  0  0  0  0  0  0  0  0  0  0
   -6.0000    5.1962    0.0000 C   0  0  0  0  0  0  0  0  0  0  0  0
   -6.0000    0.0000    0.0000 C   0  0  0  0  0  0  0  0  0  0  0  0
   -5.2500   -1.2990    0.0000 C   0  0  0  0  0  0  0  0  0  0  0  0
   -6.0000   -2.5981    0.0000 O   0  0  0  0  0  0  0  0  0  0  0  0
   -3.7500   -1.2990    0.0000 N   0  0  0  0  0  0  0  0  0  0  0  0
   -0.7500    1.2990    0.0000 C   0  0  0  0  0  0  0  0  0  0  0  0
    0.7500    1.2990    0.0000 C   0  0  0  0  0  0  0  0  0  0  0  0
  1  2  1  0
  2  3  1  0
  3  4  1  0
  4  5  1  0
  5  6  1  0
  6  7  2  0
  6  8  1  0
  8  9  1  0
  9 10  1  0
 10 11  1  0
 11 12  1  0
 12 13  2  0
 13 14  1  0
 14 15  1  0
 15 16  1  0
 16 17  1  0
 17 18  1  0
 18 19  1  0
 19 20  1  0
 20 21  1  0
 21 22  1  0
 22 23  1  0
 23 24  1  0
 24 25  1  0
 19 26  1  0
 26 27  1  0
 14 28  2  0
 28 29  1  0
 29 30  2  0
 29 31  1  0
 11 32  1  0
 32 33  1  0
 33  8  1  0
 31 12  1  0
 27 16  1  0
 25 20  1  0
M  CHG  1  19   1
M  END
>  <Compound_ID>  (507) 
C35564273

>  <Active>  (507) 
0.0

>  <Smiles>  (507) 
CCCCCC(=O)N1CCN(c2nc(CN3CC[NH+](C4CCCCC4)CC3)cc(=O)[nH]2)CC1

>  <canonical_smi>  (507) 
CCCCCC(=O)N1CCN(c2nc(CN3CC[NH+](C4CCCCC4)CC3)cc(=O)[nH]2)CC1

>  <Set>  (507) 
G2 inactive

>  <Set_type>  (507) 
Train

>  <MW>  (507) 
459.66

>  <HBD>  (507) 
2

>  <HBA>  (507) 
5

>  <NRB>  (507) 
8

>  <NR>  (507) 
4

>  <NAR>  (507) 
1

>  <PSA>  (507) 
76.98

>  <Standard Type>  (507) 
nan

>  <Standard Relation>  (507) 
nan

>  <Standard Units>  (507) 
nan

>  <Standard Value>  (507) 
nan

>  <Assay ChEMBL ID>  (507) 
nan

>  <Assay Description>  (507) 
nan

>  <BAO Label>  (507) 
nan

$$$$

     RDKit          2D

 32 35  0  0  0  0  0  0  0  0999 V2000
  -18.6464    9.0285    0.0000 C   0  0  0  0  0  0  0  0  0  0  0  0
  -17.2761    9.6386    0.0000 C   0  0  0  0  0  0  0  0  0  0  0  0
  -16.0625    8.7569    0.0000 O   0  0  0  0  0  0  0  0  0  0  0  0
  -14.6922    9.3670    0.0000 C   0  0  0  0  0  0  0  0  0  0  0  0
  -14.5354   10.8588    0.0000 C   0  0  0  0  0  0  0  0  0  0  0  0
  -13.1651   11.4689    0.0000 C   0  0  0  0  0  0  0  0  0  0  0  0
  -11.9516   10.5872    0.0000 C   0  0  0  0  0  0  0  0  0  0  0  0
  -10.5813   11.1973    0.0000 C   0  0  0  0  0  0  0  0  0  0  0  0
   -9.3677   10.3156    0.0000 N   0  0  0  0  0  0  0  0  0  0  0  0
   -7.9974   10.9257    0.0000 N   0  0  0  0  0  4  0  0  0  0  0  0
   -6.7839   10.0441    0.0000 C   0  0  0  0  0  0  0  0  0  0  0  0
   -5.3573   10.5076    0.0000 N   0  0  0  0  0  0  0  0  0  0  0  0
   -4.4756    9.2941    0.0000 N   0  0  0  0  0  0  0  0  0  0  0  0
   -5.3573    8.0805    0.0000 C   0  0  0  0  0  0  0  0  0  0  0  0
   -4.8938    6.6540    0.0000 S   0  0  0  0  0  0  0  0  0  0  0  0
   -3.4266    6.3421    0.0000 C   0  0  0  0  0  0  0  0  0  0  0  0
   -2.9630    4.9155    0.0000 C   0  0  0  0  0  0  0  0  0  0  0  0
   -3.9667    3.8008    0.0000 O   0  0  0  0  0  0  0  0  0  0  0  0
   -1.4958    4.6036    0.0000 N   0  0  0  0  0  0  0  0  0  0  0  0
   -1.0323    3.1771    0.0000 C   0  0  0  0  0  0  0  0  0  0  0  0
   -1.9140    1.9635    0.0000 S   0  0  0  0  0  0  0  0  0  0  0  0
   -1.0323    0.7500    0.0000 C   0  0  0  0  0  0  0  0  0  0  0  0
    0.3943    1.2135    0.0000 C   0  0  0  0  0  0  0  0  0  0  0  0
    1.2760    0.0000    0.0000 C   0  0  0  0  0  0  0  0  0  0  0  0
    0.3943   -1.2135    0.0000 C   0  0  0  0  0  0  0  0  0  0  0  0
   -1.0323   -0.7500    0.0000 C   0  0  0  0  0  0  0  0  0  0  0  0
    0.3943    2.7135    0.0000 C   0  0  0  0  0  0  0  0  0  0  0  0
    1.6078    3.5952    0.0000 C   0  0  0  0  0  0  0  0  0  0  0  0
    2.8213    4.4769    0.0000 N   0  0  0  0  0  0  0  0  0  0  0  0
   -6.7839    8.5441    0.0000 N   0  0  0  0  0  0  0  0  0  0  0  0
  -12.1084    9.0954    0.0000 C   0  0  0  0  0  0  0  0  0  0  0  0
  -13.4787    8.4853    0.0000 C   0  0  0  0  0  0  0  0  0  0  0  0
  1  2  1  0
  2  3  1  0
  3  4  1  0
  4  5  2  0
  5  6  1  0
  6  7  2  0
  7  8  1  0
  8  9  2  0
  9 10  1  0
 10 11  2  0
 11 12  1  0
 12 13  2  0
 13 14  1  0
 14 15  1  1
 15 16  1  0
 16 17  1  0
 17 18  2  0
 17 19  1  0
 20 19  1  1
 20 21  1  0
 21 22  1  0
 22 23  2  0
 23 24  1  0
 24 25  1  0
 25 26  1  0
 23 27  1  0
 27 28  1  6
 28 29  3  0
 14 30  1  0
  7 31  1  0
 31 32  2  0
 32  4  1  0
 30 11  1  0
 27 20  1  0
 26 22  1  0
M  CHG  1  10   1
M  END
>  <Compound_ID>  (508) 
C39404332

>  <Active>  (508) 
0.0

>  <Smiles>  (508) 
CCOc1ccc(/C=N/[NH+]=C2/N=N[C@@H](SCC(=O)N[C@@H]3SC4=C(CCC4)[C@H]3C#N)N2)cc1

>  <canonical_smi>  (508) 
CCOc1ccc(/C=N/[NH+]=C2/N=N[C@@H](SCC(=O)N[C@@H]3SC4=C(CCC4)[C@H]3C#N)N2)cc1

>  <Set>  (508) 
G2 inactive

>  <Set_type>  (508) 
Train

>  <MW>  (508) 
470.6

>  <HBD>  (508) 
3

>  <HBA>  (508) 
6

>  <NRB>  (508) 
8

>  <NR>  (508) 
4

>  <NAR>  (508) 
1

>  <PSA>  (508) 
125.2

>  <Standard Type>  (508) 
nan

>  <Standard Relation>  (508) 
nan

>  <Standard Units>  (508) 
nan

>  <Standard Value>  (508) 
nan

>  <Assay ChEMBL ID>  (508) 
nan

>  <Assay Description>  (508) 
nan

>  <BAO Label>  (508) 
nan

$$$$

     RDKit          2D

 21 22  0  0  0  0  0  0  0  0999 V2000
    4.5000    0.0000    0.0000 F   0  0  0  0  0  0  0  0  0  0  0  0
    3.0000    0.0000    0.0000 C   0  0  0  0  0  0  0  0  0  0  0  0
    3.0000   -1.5000    0.0000 F   0  0  0  0  0  0  0  0  0  0  0  0
    3.0000    1.5000    0.0000 F   0  0  0  0  0  0  0  0  0  0  0  0
    1.5000    0.0000    0.0000 C   0  0  0  0  0  0  0  0  0  0  0  0
    0.7500   -1.2990    0.0000 C   0  0  0  0  0  0  0  0  0  0  0  0
   -0.7500   -1.2990    0.0000 C   0  0  0  0  0  0  0  0  0  0  0  0
   -1.5000    0.0000    0.0000 C   0  0  0  0  0  0  0  0  0  0  0  0
   -0.7500    1.2990    0.0000 C   0  0  0  0  0  0  0  0  0  0  0  0
   -1.5000    2.5981    0.0000 N   0  0  0  0  0  4  0  0  0  0  0  0
   -0.7500    3.8971    0.0000 C   0  0  0  0  0  0  0  0  0  0  0  0
   -1.5000    5.1962    0.0000 C   0  0  0  0  0  0  0  0  0  0  0  0
   -0.7500    6.4952    0.0000 C   0  0  0  0  0  0  0  0  0  0  0  0
    0.7500    6.4952    0.0000 Cl  0  0  0  0  0  0  0  0  0  0  0  0
   -1.5000    7.7942    0.0000 C   0  0  0  0  0  0  0  0  0  0  0  0
   -3.0000    7.7942    0.0000 C   0  0  0  0  0  0  0  0  0  0  0  0
   -3.7500    6.4952    0.0000 C   0  0  0  0  0  0  0  0  0  0  0  0
   -5.2500    6.4952    0.0000 Cl  0  0  0  0  0  0  0  0  0  0  0  0
   -3.0000    5.1962    0.0000 C   0  0  0  0  0  0  0  0  0  0  0  0
   -3.7500    3.8971    0.0000 Cl  0  0  0  0  0  0  0  0  0  0  0  0
    0.7500    1.2990    0.0000 C   0  0  0  0  0  0  0  0  0  0  0  0
  1  2  1  0
  2  3  1  0
  2  4  1  0
  5  2  1  6
  5  6  1  0
  6  7  1  0
  7  8  1  0
  8  9  1  0
  9 10  1  6
 10 11  1  0
 11 12  1  0
 12 13  2  0
 13 14  1  0
 13 15  1  0
 15 16  2  0
 16 17  1  0
 17 18  1  0
 17 19  2  0
 19 20  1  0
  9 21  1  0
 21  5  1  0
 19 12  1  0
M  CHG  1  10   1
M  END
>  <Compound_ID>  (509) 
C35257509

>  <Active>  (509) 
0.0

>  <Smiles>  (509) 
FC(F)(F)[C@@H]1CCC[C@H]([NH2+]Cc2c(Cl)ccc(Cl)c2Cl)C1

>  <canonical_smi>  (509) 
FC(F)(F)[C@@H]1CCC[C@H]([NH2+]Cc2c(Cl)ccc(Cl)c2Cl)C1

>  <Set>  (509) 
G2 inactive

>  <Set_type>  (509) 
Train

>  <MW>  (509) 
361.64

>  <HBD>  (509) 
1

>  <HBA>  (509) 
0

>  <NRB>  (509) 
3

>  <NR>  (509) 
2

>  <NAR>  (509) 
1

>  <PSA>  (509) 
16.61

>  <Standard Type>  (509) 
nan

>  <Standard Relation>  (509) 
nan

>  <Standard Units>  (509) 
nan

>  <Standard Value>  (509) 
nan

>  <Assay ChEMBL ID>  (509) 
nan

>  <Assay Description>  (509) 
nan

>  <BAO Label>  (509) 
nan

$$$$

     RDKit          2D

 21 23  0  0  0  0  0  0  0  0999 V2000
   -9.0000   -5.1962    0.0000 F   0  0  0  0  0  0  0  0  0  0  0  0
   -7.5000   -5.1962    0.0000 C   0  0  0  0  0  0  0  0  0  0  0  0
   -7.5000   -3.6962    0.0000 F   0  0  0  0  0  0  0  0  0  0  0  0
   -7.5000   -6.6962    0.0000 F   0  0  0  0  0  0  0  0  0  0  0  0
   -6.0000   -5.1962    0.0000 C   0  0  0  0  0  0  0  0  0  0  0  0
   -5.2500   -3.8971    0.0000 C   0  0  0  0  0  0  0  0  0  0  0  0
   -3.7500   -3.8971    0.0000 C   0  0  0  0  0  0  0  0  0  0  0  0
   -3.0000   -5.1962    0.0000 C   0  0  0  0  0  0  0  0  0  0  0  0
   -1.5000   -5.1962    0.0000 N   0  0  0  0  0  4  0  0  0  0  0  0
   -0.7500   -3.8971    0.0000 C   0  0  0  0  0  0  0  0  0  0  0  0
    0.7500   -3.8971    0.0000 C   0  0  0  0  0  0  0  0  0  0  0  0
    1.5000   -2.5981    0.0000 C   0  0  0  0  0  0  0  0  0  0  0  0
    0.7500   -1.2990    0.0000 C   0  0  0  0  0  0  0  0  0  0  0  0
    1.5000    0.0000    0.0000 C   0  0  0  0  0  0  0  0  0  0  0  0
    0.7500    1.2990    0.0000 C   0  0  0  0  0  0  0  0  0  0  0  0
   -0.7500    1.2990    0.0000 C   0  0  0  0  0  0  0  0  0  0  0  0
   -1.5000    0.0000    0.0000 C   0  0  0  0  0  0  0  0  0  0  0  0
   -0.7500   -1.2990    0.0000 C   0  0  0  0  0  0  0  0  0  0  0  0
   -1.5000   -2.5981    0.0000 C   0  0  0  0  0  0  0  0  0  0  0  0
   -3.7500   -6.4952    0.0000 C   0  0  0  0  0  0  0  0  0  0  0  0
   -5.2500   -6.4952    0.0000 C   0  0  0  0  0  0  0  0  0  0  0  0
  1  2  1  0
  2  3  1  0
  2  4  1  0
  2  5  1  0
  5  6  1  0
  6  7  1  0
  7  8  1  0
  8  9  1  0
 10  9  1  1
 10 11  1  0
 11 12  1  0
 13 12  1  1
 13 14  1  0
 14 15  1  0
 15 16  1  0
 16 17  1  0
 18 17  1  1
 18 19  1  0
  8 20  1  0
 20 21  1  0
 21  5  1  0
 19 10  1  0
 18 13  1  0
M  CHG  1   9   1
M  END
>  <Compound_ID>  (510) 
C35258432

>  <Active>  (510) 
0.0

>  <Smiles>  (510) 
FC(F)(F)C1CCC([NH2+][C@@H]2CC[C@@H]3CCCC[C@@H]3C2)CC1

>  <canonical_smi>  (510) 
FC(F)(F)C1CCC([NH2+][C@@H]2CC[C@@H]3CCCC[C@@H]3C2)CC1

>  <Set>  (510) 
G2 inactive

>  <Set_type>  (510) 
Train

>  <MW>  (510) 
304.42

>  <HBD>  (510) 
1

>  <HBA>  (510) 
0

>  <NRB>  (510) 
2

>  <NR>  (510) 
3

>  <NAR>  (510) 
0

>  <PSA>  (510) 
16.61

>  <Standard Type>  (510) 
nan

>  <Standard Relation>  (510) 
nan

>  <Standard Units>  (510) 
nan

>  <Standard Value>  (510) 
nan

>  <Assay ChEMBL ID>  (510) 
nan

>  <Assay Description>  (510) 
nan

>  <BAO Label>  (510) 
nan

$$$$

     RDKit          2D

 17 18  0  0  0  0  0  0  0  0999 V2000
    3.7500   -3.8971    0.0000 C   0  0  0  0  0  0  0  0  0  0  0  0
    3.0000   -2.5981    0.0000 N   0  0  0  0  0  4  0  0  0  0  0  0
    1.5000   -2.5981    0.0000 C   0  0  0  0  0  0  0  0  0  0  0  0
    0.7500   -1.2990    0.0000 C   0  0  0  0  0  0  0  0  0  0  0  0
    1.5000    0.0000    0.0000 C   0  0  0  0  0  0  0  0  0  0  0  0
    0.7500    1.2990    0.0000 C   0  0  0  0  0  0  0  0  0  0  0  0
   -0.7500    1.2990    0.0000 C   0  0  0  0  0  0  0  0  0  0  0  0
   -1.5000    2.5981    0.0000 Cl  0  0  0  0  0  0  0  0  0  0  0  0
   -1.5000    0.0000    0.0000 C   0  0  0  0  0  0  0  0  0  0  0  0
   -0.7500   -1.2990    0.0000 C   0  0  0  0  0  0  0  0  0  0  0  0
    0.7500   -3.8971    0.0000 C   0  0  0  0  0  0  0  0  0  0  0  0
   -0.7500   -3.8971    0.0000 C   0  0  0  0  0  0  0  0  0  0  0  0
   -1.5000   -5.1962    0.0000 C   0  0  0  0  0  0  0  0  0  0  0  0
   -0.7500   -6.4952    0.0000 C   0  0  0  0  0  0  0  0  0  0  0  0
   -1.5000   -7.7942    0.0000 I   0  0  0  0  0  0  0  0  0  0  0  0
    0.7500   -6.4952    0.0000 C   0  0  0  0  0  0  0  0  0  0  0  0
    1.5000   -5.1962    0.0000 C   0  0  0  0  0  0  0  0  0  0  0  0
  1  2  1  0
  3  2  1  6
  3  4  1  0
  4  5  2  0
  5  6  1  0
  6  7  2  0
  7  8  1  0
  7  9  1  0
  9 10  2  0
  3 11  1  0
 11 12  2  0
 12 13  1  0
 13 14  2  0
 14 15  1  0
 14 16  1  0
 16 17  2  0
 10  4  1  0
 17 11  1  0
M  CHG  1   2   1
M  END
>  <Compound_ID>  (511) 
C35464201

>  <Active>  (511) 
0.0

>  <Smiles>  (511) 
C[NH2+][C@@H](c1ccc(Cl)cc1)c1ccc(I)cc1

>  <canonical_smi>  (511) 
C[NH2+][C@@H](c1ccc(Cl)cc1)c1ccc(I)cc1

>  <Set>  (511) 
G2 inactive

>  <Set_type>  (511) 
Train

>  <MW>  (511) 
358.63

>  <HBD>  (511) 
1

>  <HBA>  (511) 
0

>  <NRB>  (511) 
3

>  <NR>  (511) 
2

>  <NAR>  (511) 
2

>  <PSA>  (511) 
16.61

>  <Standard Type>  (511) 
nan

>  <Standard Relation>  (511) 
nan

>  <Standard Units>  (511) 
nan

>  <Standard Value>  (511) 
nan

>  <Assay ChEMBL ID>  (511) 
nan

>  <Assay Description>  (511) 
nan

>  <BAO Label>  (511) 
nan

$$$$

     RDKit          2D

 21 22  0  0  0  0  0  0  0  0999 V2000
    6.5218   -3.5645    0.0000 C   0  0  0  0  0  0  0  0  0  0  0  0
    5.3083   -4.4462    0.0000 C   0  0  0  0  0  0  0  0  0  0  0  0
    3.8817   -3.9826    0.0000 C   0  0  0  0  0  0  0  0  0  0  0  0
    3.0000   -5.1962    0.0000 C   0  0  0  0  0  0  0  0  0  0  0  0
    1.5000   -5.1962    0.0000 C   0  0  0  0  0  0  0  0  0  0  0  0
    0.7500   -6.4952    0.0000 C   0  0  0  0  0  0  0  0  0  0  0  0
    0.7500   -3.8971    0.0000 N   0  0  0  0  0  4  0  0  0  0  0  0
    1.5000   -2.5981    0.0000 C   0  0  0  0  0  0  0  0  0  0  0  0
    3.0000   -2.5981    0.0000 C   0  0  0  0  0  0  0  0  0  0  0  0
    0.7500   -1.2990    0.0000 C   0  0  0  0  0  0  0  0  0  0  0  0
    1.5000    0.0000    0.0000 C   0  0  0  0  0  0  0  0  0  0  0  0
    0.7500    1.2990    0.0000 C   0  0  0  0  0  0  0  0  0  0  0  0
    1.5000    2.5981    0.0000 C   0  0  0  0  0  0  0  0  0  0  0  0
   -0.7500    1.2990    0.0000 C   0  0  0  0  0  0  0  0  0  0  0  0
   -1.5000    2.5981    0.0000 C   0  0  0  0  0  0  0  0  0  0  0  0
   -1.5000    0.0000    0.0000 C   0  0  0  0  0  0  0  0  0  0  0  0
   -0.7500   -1.2990    0.0000 C   0  0  0  0  0  0  0  0  0  0  0  0
   -1.5000   -2.5981    0.0000 C   0  0  0  0  0  0  0  0  0  0  0  0
    3.8817   -6.4097    0.0000 C   0  0  0  0  0  0  0  0  0  0  0  0
    3.4182   -7.8363    0.0000 C   0  0  0  0  0  0  0  0  0  0  0  0
    5.3083   -5.9462    0.0000 S   0  0  0  0  0  0  0  0  0  0  0  0
  1  2  1  0
  2  3  2  0
  3  4  1  0
  4  5  1  0
  5  6  1  1
  5  7  1  0
  7  8  1  0
  8  9  1  1
  8 10  1  0
 10 11  2  0
 11 12  1  0
 12 13  1  0
 12 14  2  0
 14 15  1  0
 14 16  1  0
 16 17  2  0
 17 18  1  0
  4 19  2  0
 19 20  1  0
 19 21  1  0
 21  2  1  0
 17 10  1  0
M  CHG  1   7   1
M  END
>  <Compound_ID>  (512) 
C37122782

>  <Active>  (512) 
0.0

>  <Smiles>  (512) 
Cc1cc([C@@H](C)[NH2+][C@H](C)c2cc(C)c(C)cc2C)c(C)s1

>  <canonical_smi>  (512) 
Cc1cc([C@@H](C)[NH2+][C@H](C)c2cc(C)c(C)cc2C)c(C)s1

>  <Set>  (512) 
G2 inactive

>  <Set_type>  (512) 
Train

>  <MW>  (512) 
302.51

>  <HBD>  (512) 
1

>  <HBA>  (512) 
0

>  <NRB>  (512) 
4

>  <NR>  (512) 
2

>  <NAR>  (512) 
2

>  <PSA>  (512) 
16.61

>  <Standard Type>  (512) 
nan

>  <Standard Relation>  (512) 
nan

>  <Standard Units>  (512) 
nan

>  <Standard Value>  (512) 
nan

>  <Assay ChEMBL ID>  (512) 
nan

>  <Assay Description>  (512) 
nan

>  <BAO Label>  (512) 
nan

$$$$

     RDKit          2D

 36 40  0  0  0  0  0  0  0  0999 V2000
    0.7500   -9.0933    0.0000 C   0  0  0  0  0  0  0  0  0  0  0  0
    1.5000   -7.7942    0.0000 C   0  0  0  0  0  0  0  0  0  0  0  0
    0.7500   -6.4952    0.0000 O   0  0  0  0  0  0  0  0  0  0  0  0
    1.5000   -5.1962    0.0000 C   0  0  0  0  0  0  0  0  0  0  0  0
    3.0000   -5.1962    0.0000 O   0  0  0  0  0  0  0  0  0  0  0  0
    0.7500   -3.8971    0.0000 C   0  0  0  0  0  0  0  0  0  0  0  0
   -0.7500   -3.8971    0.0000 C   0  0  0  0  0  0  0  0  0  0  0  0
   -1.5000   -5.1962    0.0000 N   0  0  0  0  0  0  0  0  0  0  0  0
   -1.5000   -2.5981    0.0000 O   0  0  0  0  0  0  0  0  0  0  0  0
   -0.7500   -1.2990    0.0000 C   0  0  0  0  0  0  0  0  0  0  0  0
    0.7500   -1.2990    0.0000 C   0  0  0  0  0  0  0  0  0  0  0  0
    1.5000    0.0000    0.0000 C   0  0  0  0  0  0  0  0  0  0  0  0
    2.2972    0.0000    0.0000 O   0  0  0  0  0  0  0  0  0  0  0  0
    0.7500    1.2990    0.0000 C   0  0  0  0  0  0  0  0  0  0  0  0
   -0.7500    1.2990    0.0000 C   0  0  0  0  0  0  0  0  0  0  0  0
   -2.1595    1.8121    0.0000 C   0  0  0  0  0  0  0  0  0  0  0  0
   -0.4895    2.7762    0.0000 C   0  0  0  0  0  0  0  0  0  0  0  0
   -1.5000    0.0000    0.0000 C   0  0  0  0  0  0  0  0  0  0  0  0
    1.5000   -2.5981    0.0000 C   0  0  0  0  0  0  0  0  0  0  0  0
    2.3817   -1.3846    0.0000 C   0  0  0  0  0  0  0  0  0  0  0  0
    2.3261   -0.5893    0.0000 O   0  0  0  0  0  0  0  0  0  0  0  0
    3.8083   -1.8481    0.0000 N   0  0  0  0  0  0  0  0  0  0  0  0
    3.8083   -3.3481    0.0000 C   0  0  0  0  0  0  0  0  0  0  0  0
    4.9230   -4.3518    0.0000 C   0  0  0  0  0  0  0  0  0  0  0  0
    4.6111   -5.8190    0.0000 C   0  0  0  0  0  0  0  0  0  0  0  0
    3.1845   -6.2825    0.0000 C   0  0  0  0  0  0  0  0  0  0  0  0
    2.8727   -7.7497    0.0000 O   0  0  0  0  0  0  0  0  0  0  0  0
    3.9874   -8.7534    0.0000 C   0  0  0  0  0  0  0  0  0  0  0  0
    2.0698   -5.2788    0.0000 C   0  0  0  0  0  0  0  0  0  0  0  0
    2.3817   -3.8116    0.0000 C   0  0  0  0  0  0  0  0  0  0  0  0
    6.2353   -3.6114    0.0000 C   0  0  0  0  0  0  0  0  0  0  0  0
    7.4488   -4.4931    0.0000 C   0  0  0  0  0  0  0  0  0  0  0  0
    6.3921   -2.1196    0.0000 C   0  0  0  0  0  0  0  0  0  0  0  0
    5.1786   -1.2380    0.0000 C   0  0  0  0  0  0  0  0  0  0  0  0
    4.3398    0.0056    0.0000 C   0  0  0  0  0  0  0  0  0  0  0  0
    6.2576   -0.1960    0.0000 C   0  0  0  0  0  0  0  0  0  0  0  0
  1  2  1  0
  2  3  1  0
  3  4  1  0
  4  5  2  0
  4  6  1  0
  6  7  2  0
  7  8  1  0
  7  9  1  0
  9 10  1  0
 10 11  2  0
 11 12  1  0
 12 13  2  0
 12 14  1  0
 14 15  1  0
 15 16  1  0
 15 17  1  0
 15 18  1  0
 11 19  1  0
 19 20  1  1
 20 21  2  0
 20 22  1  0
 22 23  1  0
 23 24  2  0
 24 25  1  0
 25 26  2  0
 26 27  1  0
 27 28  1  0
 26 29  1  0
 29 30  2  0
 24 31  1  0
 31 32  1  0
 31 33  2  0
 33 34  1  0
 34 35  1  0
 34 36  1  0
 19  6  1  0
 34 22  1  0
 18 10  1  0
 30 19  1  0
 30 23  1  0
M  END
>  <Compound_ID>  (513) 
C09846919

>  <Active>  (513) 
0.0

>  <Smiles>  (513) 
CCOC(=O)C1=C(N)OC2=C(C(=O)CC(C)(C)C2)[C@@]12C(=O)N1c3c(cc(OC)cc32)C(C)=CC1(C)C

>  <canonical_smi>  (513) 
CCOC(=O)C1=C(N)OC2=C(C(=O)CC(C)(C)C2)[C@@]12C(=O)N1c3c(cc(OC)cc32)C(C)=CC1(C)C

>  <Set>  (513) 
G2 inactive

>  <Set_type>  (513) 
Train

>  <MW>  (513) 
492.57

>  <HBD>  (513) 
1

>  <HBA>  (513) 
7

>  <NRB>  (513) 
3

>  <NR>  (513) 
5

>  <NAR>  (513) 
1

>  <PSA>  (513) 
108.16

>  <Standard Type>  (513) 
nan

>  <Standard Relation>  (513) 
nan

>  <Standard Units>  (513) 
nan

>  <Standard Value>  (513) 
nan

>  <Assay ChEMBL ID>  (513) 
nan

>  <Assay Description>  (513) 
nan

>  <BAO Label>  (513) 
nan

$$$$

     RDKit          2D

 36 41  0  0  0  0  0  0  0  0999 V2000
    2.6491    0.9642    0.0000 C   0  0  0  0  0  0  0  0  0  0  0  0
    1.5000    0.0000    0.0000 C   0  0  0  0  0  0  0  0  0  0  0  0
    2.6491   -0.9642    0.0000 C   0  0  0  0  0  0  0  0  0  0  0  0
    0.7500   -1.2990    0.0000 O   0  0  0  0  0  0  0  0  0  0  0  0
   -0.7500   -1.2990    0.0000 C   0  0  0  0  0  0  0  0  0  0  0  0
   -1.5000    0.0000    0.0000 C   0  0  0  0  0  0  0  0  0  0  0  0
   -2.2500   -1.2990    0.0000 C   0  0  0  0  0  0  0  0  0  0  0  0
   -3.0000    0.0000    0.0000 C   0  0  0  0  0  0  0  0  0  0  0  0
   -3.7500   -1.2990    0.0000 C   0  0  0  0  0  0  0  0  0  0  0  0
   -5.2500   -1.2990    0.0000 C   0  0  0  0  0  0  0  0  0  0  0  0
   -6.0000   -2.5981    0.0000 O   0  0  0  0  0  0  0  0  0  0  0  0
   -6.0000   -0.0000    0.0000 C   0  0  0  0  0  0  0  0  0  0  0  0
   -6.7500   -1.2990    0.0000 C   0  0  0  0  0  0  0  0  0  0  0  0
   -7.5000   -0.0000    0.0000 O   0  0  0  0  0  0  0  0  0  0  0  0
   -8.2500    1.2990    0.0000 C   0  0  0  0  0  0  0  0  0  0  0  0
   -9.7500    1.2990    0.0000 C   0  0  0  0  0  0  0  0  0  0  0  0
  -10.5000    2.5981    0.0000 C   0  0  0  0  0  0  0  0  0  0  0  0
  -12.0000    2.5981    0.0000 C   0  0  0  0  0  0  0  0  0  0  0  0
  -12.7500    3.8971    0.0000 C   0  0  0  0  0  0  0  0  0  0  0  0
  -14.2500    3.8971    0.0000 C   0  0  0  0  0  0  0  0  0  0  0  0
  -15.0000    2.5981    0.0000 C   0  0  0  0  0  0  0  0  0  0  0  0
  -14.2500    1.2990    0.0000 N   0  0  0  0  0  0  0  0  0  0  0  0
  -12.7500    1.2990    0.0000 C   0  0  0  0  0  0  0  0  0  0  0  0
   -9.7500    3.8971    0.0000 O   0  0  0  0  0  0  0  0  0  0  0  0
   -8.2500    3.8971    0.0000 C   0  0  0  0  0  0  0  0  0  0  0  0
   -7.5000    5.1962    0.0000 O   0  0  0  0  0  0  0  0  0  0  0  0
   -7.5000    2.5981    0.0000 C   0  0  0  0  0  0  0  0  0  0  0  0
   -6.0000    2.5981    0.0000 C   0  0  0  0  0  0  0  0  0  0  0  0
   -5.2500    3.8971    0.0000 O   0  0  0  0  0  0  0  0  0  0  0  0
   -5.2500    1.2990    0.0000 C   0  0  0  0  0  0  0  0  0  0  0  0
   -3.7500    1.2990    0.0000 C   0  0  0  0  0  0  0  0  0  0  0  0
   -4.5000    2.5981    0.0000 C   0  0  0  0  0  0  0  0  0  0  0  0
   -3.0000    2.5981    0.0000 C   0  0  0  0  0  0  0  0  0  0  0  0
   -1.5000    2.5981    0.0000 C   0  0  0  0  0  0  0  0  0  0  0  0
   -0.7500    1.2990    0.0000 C   0  0  0  0  0  0  0  0  0  0  0  0
    0.7500    1.2990    0.0000 O   0  0  0  0  0  0  0  0  0  0  0  0
  1  2  1  0
  2  3  1  0
  2  4  1  0
  4  5  1  0
  5  6  1  0
  6  7  1  6
  6  8  1  0
  8  9  1  1
  9 10  1  0
 10 11  1  6
 10 12  1  0
 12 13  1  6
 12 14  1  0
 14 15  1  0
 15 16  1  0
 16 17  2  0
 17 18  1  0
 18 19  2  0
 19 20  1  0
 20 21  2  0
 21 22  1  0
 22 23  2  0
 17 24  1  0
 24 25  1  0
 25 26  2  0
 25 27  1  0
 27 28  1  0
 28 29  1  6
 30 28  1  1
 30 31  1  0
 31 32  1  6
 31 33  1  0
 33 34  1  0
 35 34  1  6
 35 36  1  0
 36  2  1  0
 35  6  1  0
 31  8  1  0
 30 12  1  0
 27 15  2  0
 23 18  1  0
M  END
>  <Compound_ID>  (514) 
C52595782

>  <Active>  (514) 
0.0

>  <Smiles>  (514) 
CC1(C)OC[C@@]2(C)[C@H]3C[C@H](O)[C@@]4(C)Oc5cc(-c6cccnc6)oc(=O)c5[C@H](O)[C@H]4[C@@]3(C)CC[C@@H]2O1

>  <canonical_smi>  (514) 
CC1(C)OC[C@]2(C)[C@H](CC[C@@]3(C)[C@@H]2C[C@H](O)[C@@]2(C)Oc4cc(-c5cccnc5)oc(=O)c4[C@H](O)[C@@H]32)O1

>  <Set>  (514) 
G2 inactive

>  <Set_type>  (514) 
Train

>  <MW>  (514) 
497.59

>  <HBD>  (514) 
2

>  <HBA>  (514) 
8

>  <NRB>  (514) 
1

>  <NR>  (514) 
6

>  <NAR>  (514) 
2

>  <PSA>  (514) 
111.25

>  <Standard Type>  (514) 
nan

>  <Standard Relation>  (514) 
nan

>  <Standard Units>  (514) 
nan

>  <Standard Value>  (514) 
nan

>  <Assay ChEMBL ID>  (514) 
nan

>  <Assay Description>  (514) 
nan

>  <BAO Label>  (514) 
nan

$$$$

     RDKit          2D

 32 37  0  0  0  0  0  0  0  0999 V2000
    4.7779    9.2179    0.0000 C   0  0  0  0  0  0  0  0  0  0  0  0
    4.1678   10.5882    0.0000 C   0  0  0  0  0  0  0  0  0  0  0  0
    2.8687    9.8382    0.0000 C   0  0  0  0  0  0  0  0  0  0  0  0
    1.4984   10.4483    0.0000 C   0  0  0  0  0  0  0  0  0  0  0  0
    0.4947    9.3336    0.0000 C   0  0  0  0  0  0  0  0  0  0  0  0
    1.2447    8.0346    0.0000 C   0  0  0  0  0  0  0  0  0  0  0  0
    0.7812    6.6080    0.0000 C   0  0  0  0  0  0  0  0  0  0  0  0
   -0.6860    6.2961    0.0000 C   0  0  0  0  0  0  0  0  0  0  0  0
   -1.1496    4.8695    0.0000 C   0  0  0  0  0  0  0  0  0  0  0  0
   -0.1459    3.7548    0.0000 C   0  0  0  0  0  0  0  0  0  0  0  0
   -0.6094    2.3282    0.0000 C   0  0  0  0  0  0  0  0  0  0  0  0
    0.3943    1.2135    0.0000 C   0  0  0  0  0  0  0  0  0  0  0  0
    1.8615    1.5254    0.0000 C   0  0  0  0  0  0  0  0  0  0  0  0
    2.3250    2.9520    0.0000 C   0  0  0  0  0  0  0  0  0  0  0  0
    3.7923    3.2638    0.0000 N   0  0  0  0  0  0  0  0  0  0  0  0
    4.2082    4.1558    0.0000 O   0  0  0  0  0  0  0  0  0  0  0  0
    1.3213    4.0667    0.0000 C   0  0  0  0  0  0  0  0  0  0  0  0
    2.7886    4.3786    0.0000 C   0  0  0  0  0  0  0  0  0  0  0  0
    1.7849    5.4933    0.0000 C   0  0  0  0  0  0  0  0  0  0  0  0
    3.2521    5.8051    0.0000 C   0  0  0  0  0  0  0  0  0  0  0  0
    3.9949    5.1595    0.0000 O   0  0  0  0  0  0  0  0  0  0  0  0
    3.7156    7.2317    0.0000 C   0  0  0  0  0  0  0  0  0  0  0  0
    2.7119    8.3464    0.0000 C   0  0  0  0  0  0  0  0  0  0  0  0
    4.1385    8.8100    0.0000 C   0  0  0  0  0  0  0  0  0  0  0  0
    1.2760    0.0000    0.0000 O   0  0  0  0  0  0  0  0  0  0  0  0
    0.3943   -1.2135    0.0000 C   0  0  0  0  0  0  0  0  0  0  0  0
   -1.0323   -0.7500    0.0000 C   0  0  0  0  0  0  0  0  0  0  0  0
   -1.0323    0.7500    0.0000 O   0  0  0  0  0  0  0  0  0  0  0  0
    5.5943   11.0518    0.0000 O   0  0  0  0  0  0  0  0  0  0  0  0
    5.5943   12.5518    0.0000 C   0  0  0  0  0  0  0  0  0  0  0  0
    4.1678   13.0153    0.0000 C   0  0  0  0  0  0  0  0  0  0  0  0
    3.2861   11.8018    0.0000 O   0  0  0  0  0  0  0  0  0  0  0  0
  1  2  1  0
  3  2  1  1
  3  4  1  0
  4  5  1  0
  6  5  1  1
  6  7  1  0
  7  8  1  1
  8  9  1  0
 10  9  1  1
 10 11  1  0
 11 12  1  0
 12 13  1  0
 13 14  1  0
 14 15  2  0
 15 16  1  0
 14 17  1  0
 17 18  1  1
 17 19  1  0
 19 20  1  1
 20 21  1  6
 20 22  1  0
 22 23  1  0
 23 24  1  6
 12 25  1  0
 25 26  1  0
 26 27  1  0
 27 28  1  0
  2 29  1  0
 29 30  1  0
 30 31  1  0
 31 32  1  0
 32  2  1  0
 23  3  1  0
 23  6  1  0
 19  7  1  0
 17 10  1  0
 28 12  1  0
M  END
>  <Compound_ID>  (515) 
C13450622

>  <Active>  (515) 
0.0

>  <Smiles>  (515) 
CC1([C@@H]2CC[C@@H]3[C@@H]4CC[C@@H]5CC6(C/C(=N/O)[C@@]5(C)[C@@H]4[C@@H](O)C[C@@]32C)OCCO6)OCCO1

>  <canonical_smi>  (515) 
CC1([C@@H]2CC[C@@H]3[C@@H]4CC[C@@H]5CC6(C/C(=N/O)[C@@]5(C)[C@@H]4[C@@H](O)C[C@@]32C)OCCO6)OCCO1

>  <Set>  (515) 
G2 inactive

>  <Set_type>  (515) 
Train

>  <MW>  (515) 
449.59

>  <HBD>  (515) 
2

>  <HBA>  (515) 
6

>  <NRB>  (515) 
1

>  <NR>  (515) 
6

>  <NAR>  (515) 
0

>  <PSA>  (515) 
89.74

>  <Standard Type>  (515) 
nan

>  <Standard Relation>  (515) 
nan

>  <Standard Units>  (515) 
nan

>  <Standard Value>  (515) 
nan

>  <Assay ChEMBL ID>  (515) 
nan

>  <Assay Description>  (515) 
nan

>  <BAO Label>  (515) 
nan

$$$$

     RDKit          2D

 33 39  0  0  0  0  0  0  0  0999 V2000
   -1.6037   13.8011    0.0000 C   0  0  0  0  0  0  0  0  0  0  0  0
   -0.8995   12.4767    0.0000 C   0  0  0  0  0  0  0  0  0  0  0  0
    0.2825   13.4002    0.0000 C   0  0  0  0  0  0  0  0  0  0  0  0
    0.2152   11.4730    0.0000 C   0  0  0  0  0  0  0  0  0  0  0  0
   -0.0967   10.0058    0.0000 C   0  0  0  0  0  0  0  0  0  0  0  0
   -1.5233    9.5422    0.0000 C   0  0  0  0  0  0  0  0  0  0  0  0
   -2.6380   10.5459    0.0000 C   0  0  0  0  0  0  0  0  0  0  0  0
   -4.0646   10.0824    0.0000 C   0  0  0  0  0  0  0  0  0  0  0  0
   -4.3764    8.6152    0.0000 C   0  0  0  0  0  0  0  0  0  0  0  0
   -3.2617    7.6115    0.0000 C   0  0  0  0  0  0  0  0  0  0  0  0
   -1.8351    8.0750    0.0000 C   0  0  0  0  0  0  0  0  0  0  0  0
   -0.9535    6.8615    0.0000 N   0  0  0  0  0  0  0  0  0  0  0  0
   -1.8351    5.6480    0.0000 C   0  0  0  0  0  0  0  0  0  0  0  0
   -2.7168    4.4344    0.0000 C   0  0  0  0  0  0  0  0  0  0  0  0
   -1.8351    3.2209    0.0000 C   0  0  0  0  0  0  0  0  0  0  0  0
   -1.2581    2.6335    0.0000 N   0  0  0  0  0  0  0  0  0  0  0  0
   -0.2502    1.7260    0.0000 C   0  0  0  0  0  0  0  0  0  0  0  0
   -0.7540    0.9632    0.0000 O   0  0  0  0  0  0  0  0  0  0  0  0
    0.3943    1.2135    0.0000 C   0  0  0  0  0  0  0  0  0  0  0  0
    1.2760    0.0000    0.0000 C   0  0  0  0  0  0  0  0  0  0  0  0
    0.3943   -1.2135    0.0000 C   0  0  0  0  0  0  0  0  0  0  0  0
   -1.0323   -0.7500    0.0000 C   0  0  0  0  0  0  0  0  0  0  0  0
   -1.0323    0.7500    0.0000 N   0  0  0  0  0  0  0  0  0  0  0  0
   -2.1470    1.7537    0.0000 C   0  0  0  0  0  0  0  0  0  0  0  0
   -3.5736    1.2902    0.0000 O   0  0  0  0  0  0  0  0  0  0  0  0
    0.7062    2.6807    0.0000 C   0  0  0  0  0  0  0  0  0  0  0  0
   -0.4086    3.6844    0.0000 C   0  0  0  0  0  0  0  0  0  0  0  0
   -0.4086    5.1844    0.0000 C   0  0  0  0  0  0  0  0  0  0  0  0
    1.0832    5.0277    0.0000 C   0  0  0  0  0  0  0  0  0  0  0  0
   -0.0967    6.6517    0.0000 C   0  0  0  0  0  0  0  0  0  0  0  0
   -3.2617    6.1115    0.0000 C   0  0  0  0  0  0  0  0  0  0  0  0
   -4.4752    5.2298    0.0000 O   0  0  0  0  0  0  0  0  0  0  0  0
   -2.3261   12.0132    0.0000 O   0  0  0  0  0  0  0  0  0  0  0  0
  1  2  1  0
  2  3  1  0
  2  4  1  0
  4  5  2  0
  5  6  1  0
  6  7  2  0
  7  8  1  0
  8  9  2  0
  9 10  1  0
 10 11  2  0
 11 12  1  0
 12 13  1  0
 13 14  1  1
 15 14  1  1
 15 16  1  0
 16 17  1  0
 17 18  2  0
 17 19  1  0
 19 20  1  1
 20 21  1  0
 21 22  1  0
 22 23  1  0
 23 24  1  0
 24 25  2  0
 19 26  1  0
 26 27  1  0
 27 28  1  1
 28 29  1  0
 28 30  1  0
 13 31  1  0
 31 32  2  0
  7 33  1  0
 33  2  1  0
 11  6  1  0
 28 13  1  0
 31 10  1  0
 24 15  1  0
 27 15  1  0
 23 19  1  0
M  END
>  <Compound_ID>  (516) 
C35271065

>  <Active>  (516) 
0.0

>  <Smiles>  (516) 
CC1(C)C=Cc2c(ccc3c2N[C@@]2(C[C@@]45NC(=O)[C@]6(CCCN6C4=O)C[C@@H]5C2(C)C)C3=O)O1

>  <canonical_smi>  (516) 
CC1(C)C=Cc2c(ccc3c2N[C@@]2(C[C@@]45NC(=O)[C@]6(CCCN6C4=O)C[C@@H]5C2(C)C)C3=O)O1

>  <Set>  (516) 
G2 inactive

>  <Set_type>  (516) 
Train

>  <MW>  (516) 
447.54

>  <HBD>  (516) 
2

>  <HBA>  (516) 
5

>  <NRB>  (516) 
0

>  <NR>  (516) 
8

>  <NAR>  (516) 
1

>  <PSA>  (516) 
87.74

>  <Standard Type>  (516) 
nan

>  <Standard Relation>  (516) 
nan

>  <Standard Units>  (516) 
nan

>  <Standard Value>  (516) 
nan

>  <Assay ChEMBL ID>  (516) 
nan

>  <Assay Description>  (516) 
nan

>  <BAO Label>  (516) 
nan

$$$$

     RDKit          2D

 23 26  0  0  0  0  0  0  0  0999 V2000
   -0.7500   -9.0933    0.0000 O   0  0  0  0  0  0  0  0  0  0  0  0
   -1.5000   -7.7942    0.0000 C   0  0  0  0  0  0  0  0  0  0  0  0
   -3.0000   -7.7942    0.0000 C   0  0  0  0  0  0  0  0  0  0  0  0
   -3.7500   -6.4952    0.0000 C   0  0  0  0  0  0  0  0  0  0  0  0
   -5.2500   -6.4952    0.0000 O   0  0  0  0  0  0  0  0  0  0  0  0
   -3.0000   -5.1962    0.0000 N   0  0  0  0  0  0  0  0  0  0  0  0
   -1.5000   -5.1962    0.0000 C   0  0  0  0  0  0  0  0  0  0  0  0
   -0.7500   -6.4952    0.0000 C   0  0  0  0  0  0  0  0  0  0  0  0
    0.7500   -6.4952    0.0000 N   0  0  0  0  0  0  0  0  0  0  0  0
    1.5000   -7.7942    0.0000 Br  0  0  0  0  0  0  0  0  0  0  0  0
    1.5000   -5.1962    0.0000 C   0  0  0  0  0  0  0  0  0  0  0  0
    3.0000   -5.1962    0.0000 O   0  0  0  0  0  0  0  0  0  0  0  0
    0.7500   -3.8971    0.0000 C   0  0  0  0  0  0  0  0  0  0  0  0
    1.5000   -2.5981    0.0000 C   0  0  0  0  0  0  0  0  0  0  0  0
    0.7500   -1.2990    0.0000 C   0  0  0  0  0  0  0  0  0  0  0  0
    1.5000    0.0000    0.0000 C   0  0  0  0  0  0  0  0  0  0  0  0
    3.0000    0.0000    0.0000 I   0  0  0  0  0  0  0  0  0  0  0  0
    0.7500    1.2990    0.0000 C   0  0  0  0  0  0  0  0  0  0  0  0
   -0.7500    1.2990    0.0000 C   0  0  0  0  0  0  0  0  0  0  0  0
   -1.5000    0.0000    0.0000 C   0  0  0  0  0  0  0  0  0  0  0  0
   -0.7500   -1.2990    0.0000 C   0  0  0  0  0  0  0  0  0  0  0  0
   -1.5000   -2.5981    0.0000 N   0  0  0  0  0  0  0  0  0  0  0  0
   -0.7500   -3.8971    0.0000 C   0  0  0  0  0  0  0  0  0  0  0  0
  1  2  2  0
  2  3  1  0
  3  4  1  0
  4  5  1  6
  4  6  1  0
  6  7  1  0
  7  8  2  0
  8  9  1  0
  9 10  1  0
  9 11  1  0
 11 12  2  0
 11 13  1  0
 13 14  2  0
 14 15  1  0
 15 16  2  0
 16 17  1  0
 16 18  1  0
 18 19  2  0
 19 20  1  0
 20 21  2  0
 21 22  1  0
 22 23  2  0
  8  2  1  0
 23 13  1  0
 23  7  1  0
 21 15  1  0
M  END
>  <Compound_ID>  (517) 
C39453456

>  <Active>  (517) 
0.0

>  <Smiles>  (517) 
O=C1C[C@H](O)Nc2c1n(Br)c(=O)c1cc3c(I)cccc3nc21

>  <canonical_smi>  (517) 
O=C1C[C@H](O)Nc2c1n(Br)c(=O)c1cc3c(I)cccc3nc21

>  <Set>  (517) 
G2 inactive

>  <Set_type>  (517) 
Train

>  <MW>  (517) 
486.06

>  <HBD>  (517) 
2

>  <HBA>  (517) 
5

>  <NRB>  (517) 
0

>  <NR>  (517) 
4

>  <NAR>  (517) 
3

>  <PSA>  (517) 
84.22

>  <Standard Type>  (517) 
nan

>  <Standard Relation>  (517) 
nan

>  <Standard Units>  (517) 
nan

>  <Standard Value>  (517) 
nan

>  <Assay ChEMBL ID>  (517) 
nan

>  <Assay Description>  (517) 
nan

>  <BAO Label>  (517) 
nan

$$$$

     RDKit          2D

 24 26  0  0  0  0  0  0  0  0999 V2000
    1.5342   -9.4474    0.0000 C   0  0  0  0  0  0  0  0  0  0  0  0
    2.9046   -8.8373    0.0000 C   0  0  0  0  0  0  0  0  0  0  0  0
    3.0613   -7.3456    0.0000 N   0  0  0  0  0  0  0  0  0  0  0  0
    1.8478   -6.4639    0.0000 N   0  0  0  0  0  0  0  0  0  0  0  0
    2.0046   -4.9721    0.0000 C   0  0  0  0  0  0  0  0  0  0  0  0
    0.8899   -3.9684    0.0000 N   0  0  0  0  0  0  0  0  0  0  0  0
    1.5000   -2.5981    0.0000 C   0  0  0  0  0  0  0  0  0  0  0  0
    0.7500   -1.2990    0.0000 C   0  0  0  0  0  0  0  0  0  0  0  0
    1.5000    0.0000    0.0000 C   0  0  0  0  0  0  0  0  0  0  0  0
    0.7500    1.2990    0.0000 C   0  0  0  0  0  0  0  0  0  0  0  0
   -0.7500    1.2990    0.0000 C   0  0  0  0  0  0  0  0  0  0  0  0
   -1.5000    2.5981    0.0000 Cl  0  0  0  0  0  0  0  0  0  0  0  0
   -1.5000    0.0000    0.0000 C   0  0  0  0  0  0  0  0  0  0  0  0
   -0.7500   -1.2990    0.0000 C   0  0  0  0  0  0  0  0  0  0  0  0
    2.9918   -2.7549    0.0000 C   0  0  0  0  0  0  0  0  0  0  0  0
    3.3037   -4.2221    0.0000 S   0  0  0  0  0  0  0  0  0  0  0  0
    4.1181   -9.7190    0.0000 C   0  0  0  0  0  0  0  0  0  0  0  0
    3.9613  -11.2108    0.0000 C   0  0  0  0  0  0  0  0  0  0  0  0
    5.1748  -12.0925    0.0000 C   0  0  0  0  0  0  0  0  0  0  0  0
    6.5451  -11.4824    0.0000 C   0  0  0  0  0  0  0  0  0  0  0  0
    7.7587  -12.3640    0.0000 O   0  0  0  0  0  0  0  0  0  0  0  0
    6.7019   -9.9906    0.0000 C   0  0  0  0  0  0  0  0  0  0  0  0
    5.4884   -9.1089    0.0000 C   0  0  0  0  0  0  0  0  0  0  0  0
    5.6452   -7.6171    0.0000 O   0  0  0  0  0  0  0  0  0  0  0  0
  1  2  1  0
  2  3  2  0
  3  4  1  0
  4  5  2  0
  5  6  1  0
  6  7  1  0
  7  8  1  0
  8  9  2  0
  9 10  1  0
 10 11  2  0
 11 12  1  0
 11 13  1  0
 13 14  2  0
  7 15  2  0
 15 16  1  0
  2 17  1  0
 17 18  2  0
 18 19  1  0
 19 20  2  0
 20 21  1  0
 20 22  1  0
 22 23  2  0
 23 24  1  0
 16  5  1  0
 23 17  1  0
 14  8  1  0
M  END
>  <Compound_ID>  (518) 
C43761271

>  <Active>  (518) 
0.0

>  <Smiles>  (518) 
C/C(=N\N=c1\[nH]c(-c2ccc(Cl)cc2)cs1)c1ccc(O)cc1O

>  <canonical_smi>  (518) 
C/C(=N\N=c1\[nH]c(-c2ccc(Cl)cc2)cs1)c1ccc(O)cc1O

>  <Set>  (518) 
G2 inactive

>  <Set_type>  (518) 
Train

>  <MW>  (518) 
359.84

>  <HBD>  (518) 
3

>  <HBA>  (518) 
2

>  <NRB>  (518) 
3

>  <NR>  (518) 
3

>  <NAR>  (518) 
3

>  <PSA>  (518) 
80.97

>  <Standard Type>  (518) 
nan

>  <Standard Relation>  (518) 
nan

>  <Standard Units>  (518) 
nan

>  <Standard Value>  (518) 
nan

>  <Assay ChEMBL ID>  (518) 
nan

>  <Assay Description>  (518) 
nan

>  <BAO Label>  (518) 
nan

$$$$

     RDKit          2D

 15 15  0  0  0  0  0  0  0  0999 V2000
    8.2500   -3.8971    0.0000 C   0  0  0  0  0  0  0  0  0  0  0  0
    7.5000   -2.5981    0.0000 C   0  0  0  0  0  0  0  0  0  0  0  0
    6.0000   -2.5981    0.0000 C   0  0  0  0  0  0  0  0  0  0  0  0
    5.2500   -1.2990    0.0000 N   0  0  0  0  0  0  0  0  0  0  0  0
    3.7500   -1.2990    0.0000 C   0  0  0  0  0  0  0  0  0  0  0  0
    3.0000   -2.5981    0.0000 O   0  0  0  0  0  0  0  0  0  0  0  0
    3.0000    0.0000    0.0000 N   0  0  0  0  0  0  0  0  0  0  0  0
    1.5000    0.0000    0.0000 C   0  0  0  0  0  0  0  0  0  0  0  0
    0.7500   -1.2990    0.0000 C   0  0  0  0  0  0  0  0  0  0  0  0
   -0.7500   -1.2990    0.0000 C   0  0  0  0  0  0  0  0  0  0  0  0
   -1.5000    0.0000    0.0000 C   0  0  0  0  0  0  0  0  0  0  0  0
   -3.0000    0.0000    0.0000 N   0  0  0  0  0  4  0  0  0  0  0  0
   -3.7500    1.2990    0.0000 C   0  0  0  0  0  0  0  0  0  0  0  0
   -0.7500    1.2990    0.0000 C   0  0  0  0  0  0  0  0  0  0  0  0
    0.7500    1.2990    0.0000 C   0  0  0  0  0  0  0  0  0  0  0  0
  1  2  1  0
  2  3  1  0
  3  4  1  0
  4  5  1  0
  5  6  2  0
  5  7  1  0
  7  8  1  0
  8  9  1  0
  9 10  1  0
 10 11  1  0
 11 12  1  0
 12 13  1  0
 11 14  1  0
 14 15  1  0
 15  8  1  0
M  CHG  1  12   1
M  END
>  <Compound_ID>  (519) 
C36880928

>  <Active>  (519) 
0.0

>  <Smiles>  (519) 
CCCNC(=O)NC1CCC([NH2+]C)CC1

>  <canonical_smi>  (519) 
CCCNC(=O)NC1CCC([NH2+]C)CC1

>  <Set>  (519) 
G2 inactive

>  <Set_type>  (519) 
Train

>  <MW>  (519) 
214.33

>  <HBD>  (519) 
3

>  <HBA>  (519) 
1

>  <NRB>  (519) 
4

>  <NR>  (519) 
1

>  <NAR>  (519) 
0

>  <PSA>  (519) 
57.74

>  <Standard Type>  (519) 
nan

>  <Standard Relation>  (519) 
nan

>  <Standard Units>  (519) 
nan

>  <Standard Value>  (519) 
nan

>  <Assay ChEMBL ID>  (519) 
nan

>  <Assay Description>  (519) 
nan

>  <BAO Label>  (519) 
nan

$$$$

     RDKit          2D

 15 15  0  0  0  0  0  0  0  0999 V2000
    5.2077   -1.4153    0.0000 C   0  0  0  0  0  0  0  0  0  0  0  0
    4.0586   -0.4512    0.0000 C   0  0  0  0  0  0  0  0  0  0  0  0
    2.6491   -0.9642    0.0000 O   0  0  0  0  0  0  0  0  0  0  0  0
    1.5000    0.0000    0.0000 C   0  0  0  0  0  0  0  0  0  0  0  0
    2.6491    0.9642    0.0000 C   0  0  0  0  0  0  0  0  0  0  0  0
    4.0586    0.4512    0.0000 C   0  0  0  0  0  0  0  0  0  0  0  0
    0.7500   -1.2990    0.0000 C   0  0  0  0  0  0  0  0  0  0  0  0
   -0.7500   -1.2990    0.0000 C   0  0  0  0  0  0  0  0  0  0  0  0
   -0.4895   -2.7762    0.0000 C   0  0  0  0  0  0  0  0  0  0  0  0
   -2.1595   -1.8121    0.0000 C   0  0  0  0  0  0  0  0  0  0  0  0
   -3.3086   -0.8479    0.0000 C   0  0  0  0  0  0  0  0  0  0  0  0
   -1.5000    0.0000    0.0000 N   0  0  0  0  0  0  0  0  0  0  0  0
   -0.7500    1.2990    0.0000 C   0  0  0  0  0  0  0  0  0  0  0  0
   -1.5000    2.5981    0.0000 N   0  0  0  0  0  0  0  0  0  0  0  0
    0.7500    1.2990    0.0000 N   0  0  0  0  0  4  0  0  0  0  0  0
  1  2  1  0
  2  3  1  0
  3  4  1  0
  4  5  1  1
  5  6  1  0
  4  7  1  0
  7  8  1  0
  8  9  1  1
  8 10  1  0
 10 11  1  0
  8 12  1  0
 12 13  1  0
 13 14  1  0
 13 15  2  0
 15  4  1  0
M  CHG  1  15   1
M  END
>  <Compound_ID>  (520) 
C39100004

>  <Active>  (520) 
0.0

>  <Smiles>  (520) 
CCO[C@]1(CC)C[C@](C)(CC)NC(N)=[NH+]1

>  <canonical_smi>  (520) 
CCO[C@]1(CC)C[C@](C)(CC)NC(N)=[NH+]1

>  <Set>  (520) 
G2 inactive

>  <Set_type>  (520) 
Train

>  <MW>  (520) 
214.33

>  <HBD>  (520) 
3

>  <HBA>  (520) 
3

>  <NRB>  (520) 
4

>  <NR>  (520) 
1

>  <NAR>  (520) 
0

>  <PSA>  (520) 
61.25

>  <Standard Type>  (520) 
nan

>  <Standard Relation>  (520) 
nan

>  <Standard Units>  (520) 
nan

>  <Standard Value>  (520) 
nan

>  <Assay ChEMBL ID>  (520) 
nan

>  <Assay Description>  (520) 
nan

>  <BAO Label>  (520) 
nan

$$$$

     RDKit          2D

 15 15  0  0  0  0  0  0  0  0999 V2000
    2.7760    0.0000    0.0000 C   0  0  0  0  0  0  0  0  0  0  0  0
    1.2760    0.0000    0.0000 C   0  0  0  0  0  0  0  0  0  0  0  0
    0.3943    1.2135    0.0000 N   0  0  0  0  0  0  0  0  0  0  0  0
   -1.0323    0.7500    0.0000 C   0  0  0  0  0  0  0  0  0  0  0  0
   -2.2458    1.6317    0.0000 N   0  0  0  0  0  0  0  0  0  0  0  0
   -2.0890    3.1235    0.0000 C   0  0  0  0  0  0  0  0  0  0  0  0
   -3.6161    1.0216    0.0000 C   0  0  0  0  0  0  0  0  0  0  0  0
   -4.8297    1.9033    0.0000 C   0  0  0  0  0  0  0  0  0  0  0  0
   -3.7729   -0.4702    0.0000 C   0  0  0  0  0  0  0  0  0  0  0  0
   -5.2647   -0.3134    0.0000 C   0  0  0  0  0  0  0  0  0  0  0  0
   -2.2811   -0.6270    0.0000 C   0  0  0  0  0  0  0  0  0  0  0  0
   -3.9297   -1.9620    0.0000 C   0  0  0  0  0  0  0  0  0  0  0  0
   -1.0323   -0.7500    0.0000 C   0  0  0  0  0  0  0  0  0  0  0  0
   -2.2458   -1.6317    0.0000 N   0  0  0  0  0  0  0  0  0  0  0  0
    0.3943   -1.2135    0.0000 N   0  0  0  0  0  4  0  0  0  0  0  0
  1  2  1  0
  2  3  1  0
  3  4  1  0
  4  5  1  0
  5  6  1  0
  5  7  1  0
  7  8  1  1
  7  9  1  0
  9 10  1  0
  9 11  1  0
  9 12  1  0
  4 13  2  0
 13 14  1  0
 13 15  1  0
 15  2  2  0
M  CHG  1  15   1
M  END
>  <Compound_ID>  (521) 
C42873416

>  <Active>  (521) 
0.0

>  <Smiles>  (521) 
Cc1[nH]c(N(C)[C@H](C)C(C)(C)C)c(N)[nH+]1

>  <canonical_smi>  (521) 
Cc1[nH]c(N(C)[C@H](C)C(C)(C)C)c(N)[nH+]1

>  <Set>  (521) 
G2 inactive

>  <Set_type>  (521) 
Train

>  <MW>  (521) 
211.33

>  <HBD>  (521) 
2

>  <HBA>  (521) 
2

>  <NRB>  (521) 
2

>  <NR>  (521) 
1

>  <NAR>  (521) 
1

>  <PSA>  (521) 
59.19

>  <Standard Type>  (521) 
nan

>  <Standard Relation>  (521) 
nan

>  <Standard Units>  (521) 
nan

>  <Standard Value>  (521) 
nan

>  <Assay ChEMBL ID>  (521) 
nan

>  <Assay Description>  (521) 
nan

>  <BAO Label>  (521) 
nan

$$$$

     RDKit          2D

 34 39  0  0  0  0  0  0  0  0999 V2000
    4.5000  -10.3923    0.0000 C   0  0  0  0  0  0  0  0  0  0  0  0
    5.2500   -9.0933    0.0000 C   0  0  0  0  0  0  0  0  0  0  0  0
    4.5000   -7.7942    0.0000 C   0  0  0  0  0  0  0  0  0  0  0  0
    3.0000   -7.7942    0.0000 C   0  0  0  0  0  0  0  0  0  0  0  0
    2.2500   -6.4952    0.0000 C   0  0  0  0  0  0  0  0  0  0  0  0
    3.0000   -5.1962    0.0000 O   0  0  0  0  0  0  0  0  0  0  0  0
    0.7500   -6.4952    0.0000 N   0  0  0  0  0  0  0  0  0  0  0  0
   -0.0000   -7.7942    0.0000 C   0  0  0  0  0  0  0  0  0  0  0  0
   -1.5000   -7.7942    0.0000 C   0  0  0  0  0  0  0  0  0  0  0  0
   -2.2500   -6.4952    0.0000 C   0  0  0  0  0  0  0  0  0  0  0  0
   -1.5000   -5.1962    0.0000 C   0  0  0  0  0  0  0  0  0  0  0  0
   -2.2500   -3.8971    0.0000 C   0  0  0  0  0  0  0  0  0  0  0  0
   -1.5000   -2.5981    0.0000 C   0  0  0  0  0  0  0  0  0  0  0  0
   -0.7500   -3.8971    0.0000 C   0  0  0  0  0  0  0  0  0  0  0  0
    0.7500   -3.8971    0.0000 C   0  0  0  0  0  0  0  0  0  0  0  0
    1.5000   -2.5981    0.0000 C   0  0  0  0  0  0  0  0  0  0  0  0
    0.7500   -1.2990    0.0000 N   0  0  0  0  0  4  0  0  0  0  0  0
    1.5000    0.0000    0.0000 C   0  0  0  0  0  0  0  0  0  0  0  0
    0.7500    1.2990    0.0000 C   0  0  0  0  0  0  0  0  0  0  0  0
   -0.7500    1.2990    0.0000 C   0  0  0  0  0  0  0  0  0  0  0  0
   -1.5000    0.0000    0.0000 C   0  0  0  0  0  0  0  0  0  0  0  0
   -0.7500   -1.2990    0.0000 C   0  0  0  0  0  0  0  0  0  0  0  0
   -0.0000   -5.1962    0.0000 C   0  0  0  0  0  0  0  0  0  0  0  0
    5.2500   -6.4952    0.0000 C   0  0  0  0  0  0  0  0  0  0  0  0
    4.5000   -5.1962    0.0000 O   0  0  0  0  0  0  0  0  0  0  0  0
    6.7500   -6.4952    0.0000 O   0  0  0  0  0  0  0  0  0  0  0  0
    7.5000   -7.7942    0.0000 C   0  0  0  0  0  0  0  0  0  0  0  0
    9.0000   -7.7942    0.0000 C   0  0  0  0  0  0  0  0  0  0  0  0
    9.7500   -6.4952    0.0000 O   0  0  0  0  0  0  0  0  0  0  0  0
    9.7500   -9.0933    0.0000 C   0  0  0  0  0  0  0  0  0  0  0  0
   11.2500   -9.0933    0.0000 O   0  0  0  0  0  0  0  0  0  0  0  0
    9.0000  -10.3923    0.0000 C   0  0  0  0  0  0  0  0  0  0  0  0
    7.5000  -10.3923    0.0000 C   0  0  0  0  0  0  0  0  0  0  0  0
    6.7500   -9.0933    0.0000 C   0  0  0  0  0  0  0  0  0  0  0  0
  1  2  1  0
  2  3  2  0
  3  4  1  0
  4  5  1  0
  5  6  2  0
  5  7  1  0
  7  8  1  0
  8  9  1  0
  9 10  1  0
 10 11  1  0
 11 12  2  0
 13 12  1  1
 13 14  1  0
 14 15  1  0
 15 16  1  1
 16 17  1  0
 17 18  1  0
 18 19  1  0
 19 20  1  0
 20 21  1  0
 22 21  1  1
 15 23  1  0
  3 24  1  0
 24 25  2  0
 24 26  1  0
 26 27  1  0
 27 28  2  0
 28 29  1  0
 28 30  1  0
 30 31  1  0
 30 32  2  0
 32 33  1  0
 33 34  2  0
 34  2  1  0
 23  7  1  6
 34 27  1  0
 23 11  1  0
 22 13  1  0
 22 17  1  0
M  CHG  1  17   1
M  END
>  <Compound_ID>  (522) 
C08765130

>  <Active>  (522) 
0.0

>  <Smiles>  (522) 
Cc1c(CC(=O)N2CCCC3=C[C@@H]4C[C@@H](C[NH+]5CCCC[C@H]45)[C@@H]32)c(=O)oc2c(O)c(O)ccc12

>  <canonical_smi>  (522) 
Cc1c(CC(=O)N2CCCC3=C[C@@H]4C[C@@H](C[NH+]5CCCC[C@H]45)[C@@H]32)c(=O)oc2c(O)c(O)ccc12

>  <Set>  (522) 
G2 inactive

>  <Set_type>  (522) 
Train

>  <MW>  (522) 
465.57

>  <HBD>  (522) 
3

>  <HBA>  (522) 
5

>  <NRB>  (522) 
2

>  <NR>  (522) 
6

>  <NAR>  (522) 
2

>  <PSA>  (522) 
95.42

>  <Standard Type>  (522) 
nan

>  <Standard Relation>  (522) 
nan

>  <Standard Units>  (522) 
nan

>  <Standard Value>  (522) 
nan

>  <Assay ChEMBL ID>  (522) 
nan

>  <Assay Description>  (522) 
nan

>  <BAO Label>  (522) 
nan

$$$$

     RDKit          2D

 35 39  0  0  0  0  0  0  0  0999 V2000
   -8.2500   -9.0933    0.0000 C   0  0  0  0  0  0  0  0  0  0  0  0
   -7.5000   -7.7942    0.0000 C   0  0  0  0  0  0  0  0  0  0  0  0
   -8.2500   -6.4952    0.0000 C   0  0  0  0  0  0  0  0  0  0  0  0
   -7.5000   -5.1962    0.0000 C   0  0  0  0  0  0  0  0  0  0  0  0
   -8.2500   -3.8971    0.0000 N   0  0  0  0  0  0  0  0  0  0  0  0
   -7.5000   -2.5981    0.0000 C   0  0  0  0  0  0  0  0  0  0  0  0
   -8.2500   -1.2990    0.0000 C   0  0  0  0  0  0  0  0  0  0  0  0
   -6.0000   -2.5981    0.0000 C   0  0  0  0  0  0  0  0  0  0  0  0
   -5.2500   -1.2990    0.0000 C   0  0  0  0  0  0  0  0  0  0  0  0
   -6.0000    0.0000    0.0000 C   0  0  0  0  0  0  0  0  0  0  0  0
   -7.4918    0.1568    0.0000 N   0  0  0  0  0  0  0  0  0  0  0  0
   -7.8037    1.6240    0.0000 N   0  0  0  0  0  0  0  0  0  0  0  0
   -6.5046    2.3740    0.0000 C   0  0  0  0  0  0  0  0  0  0  0  0
   -6.3478    3.8658    0.0000 S   0  0  0  0  0  0  0  0  0  0  0  0
   -4.9775    4.4759    0.0000 C   0  0  0  0  0  0  0  0  0  0  0  0
   -4.8207    5.9677    0.0000 C   0  0  0  0  0  0  0  0  0  0  0  0
   -6.0342    6.8494    0.0000 O   0  0  0  0  0  0  0  0  0  0  0  0
   -3.4504    6.5778    0.0000 N   0  0  0  0  0  0  0  0  0  0  0  0
   -3.2936    8.0696    0.0000 C   0  0  0  0  0  0  0  0  0  0  0  0
   -1.9233    8.6797    0.0000 C   0  0  0  0  0  0  0  0  0  0  0  0
   -0.6242    7.9297    0.0000 N   0  0  0  0  0  4  0  0  0  0  0  0
    0.4905    8.9334    0.0000 C   0  0  0  0  0  0  0  0  0  0  0  0
    1.9823    8.7766    0.0000 C   0  0  0  0  0  0  0  0  0  0  0  0
    2.8639    9.9901    0.0000 C   0  0  0  0  0  0  0  0  0  0  0  0
    2.2538   11.3604    0.0000 C   0  0  0  0  0  0  0  0  0  0  0  0
    0.7620   11.5172    0.0000 C   0  0  0  0  0  0  0  0  0  0  0  0
   -0.1196   10.3037    0.0000 C   0  0  0  0  0  0  0  0  0  0  0  0
   -1.6114   10.1469    0.0000 N   0  0  0  0  0  4  0  0  0  0  0  0
   -5.3899    1.3703    0.0000 N   0  0  0  0  0  0  0  0  0  0  0  0
   -3.9227    1.6822    0.0000 C   0  0  0  0  0  0  0  0  0  0  0  0
   -5.2500   -3.8971    0.0000 C   0  0  0  0  0  0  0  0  0  0  0  0
   -3.7500   -3.8971    0.0000 O   0  0  0  0  0  0  0  0  0  0  0  0
   -6.0000   -5.1962    0.0000 N   0  0  0  0  0  0  0  0  0  0  0  0
   -5.2500   -6.4952    0.0000 C   0  0  0  0  0  0  0  0  0  0  0  0
   -6.0000   -7.7942    0.0000 C   0  0  0  0  0  0  0  0  0  0  0  0
  1  2  1  0
  2  3  2  0
  3  4  1  0
  4  5  1  1
  5  6  1  0
  6  7  1  0
  6  8  2  0
  8  9  1  0
  9 10  1  0
 10 11  2  0
 11 12  1  0
 12 13  2  0
 13 14  1  0
 14 15  1  0
 15 16  1  0
 16 17  2  0
 16 18  1  0
 18 19  1  0
 19 20  1  0
 20 21  1  0
 21 22  2  0
 22 23  1  0
 23 24  2  0
 24 25  1  0
 25 26  2  0
 26 27  1  0
 27 28  2  0
 13 29  1  0
 29 30  1  0
  8 31  1  0
 31 32  2  0
 31 33  1  0
 33 34  1  0
 34 35  2  0
 35  2  1  0
 33  4  1  0
 29 10  1  0
 28 20  1  0
 27 22  1  0
M  CHG  2  21   1  28   1
M  END
>  <Compound_ID>  (523) 
C64482306

>  <Active>  (523) 
0.0

>  <Smiles>  (523) 
CC1=C[C@H]2NC(C)=C(Cc3nnc(SCC(=O)NCC4[NH+]=c5ccccc5=[NH+]4)n3C)C(=O)N2C=C1

>  <canonical_smi>  (523) 
CC1=C[C@H]2NC(C)=C(Cc3nnc(SCC(=O)NCC4[NH+]=c5ccccc5=[NH+]4)n3C)C(=O)N2C=C1

>  <Set>  (523) 
G2 inactive

>  <Set_type>  (523) 
Train

>  <MW>  (523) 
492.61

>  <HBD>  (523) 
4

>  <HBA>  (523) 
6

>  <NRB>  (523) 
7

>  <NR>  (523) 
5

>  <NAR>  (523) 
2

>  <PSA>  (523) 
120.09

>  <Standard Type>  (523) 
nan

>  <Standard Relation>  (523) 
nan

>  <Standard Units>  (523) 
nan

>  <Standard Value>  (523) 
nan

>  <Assay ChEMBL ID>  (523) 
nan

>  <Assay Description>  (523) 
nan

>  <BAO Label>  (523) 
nan

$$$$

     RDKit          2D

 34 37  0  0  0  0  0  0  0  0999 V2000
    8.2500   -3.8971    0.0000 C   0  0  0  0  0  0  0  0  0  0  0  0
    7.5000   -2.5981    0.0000 O   0  0  0  0  0  0  0  0  0  0  0  0
    6.0000   -2.5981    0.0000 C   0  0  0  0  0  0  0  0  0  0  0  0
    5.2500   -1.2990    0.0000 C   0  0  0  0  0  0  0  0  0  0  0  0
    3.7500   -1.2990    0.0000 N   0  0  0  0  0  0  0  0  0  0  0  0
    3.0000    0.0000    0.0000 C   0  0  0  0  0  0  0  0  0  0  0  0
    3.7500    1.2990    0.0000 S   0  0  0  0  0  0  0  0  0  0  0  0
    1.5000    0.0000    0.0000 N   0  0  0  0  0  0  0  0  0  0  0  0
    0.7500   -1.2990    0.0000 C   0  0  0  0  0  0  0  0  0  0  0  0
   -0.7500   -1.2990    0.0000 C   0  0  0  0  0  0  0  0  0  0  0  0
   -1.5000    0.0000    0.0000 C   0  0  0  0  0  0  0  0  0  0  0  0
   -3.0000    0.0000    0.0000 C   0  0  0  0  0  0  0  0  0  0  0  0
   -3.7500    1.2990    0.0000 C   0  0  0  0  0  0  0  0  0  0  0  0
   -5.2500    1.2990    0.0000 O   0  0  0  0  0  0  0  0  0  0  0  0
   -6.0000    2.5981    0.0000 C   0  0  0  0  0  0  0  0  0  0  0  0
   -3.0000    2.5981    0.0000 C   0  0  0  0  0  0  0  0  0  0  0  0
   -3.7500    3.8971    0.0000 O   0  0  0  0  0  0  0  0  0  0  0  0
   -3.0000    5.1962    0.0000 C   0  0  0  0  0  0  0  0  0  0  0  0
   -1.5000    2.5981    0.0000 C   0  0  0  0  0  0  0  0  0  0  0  0
   -0.7500    1.2990    0.0000 C   0  0  0  0  0  0  0  0  0  0  0  0
    0.7500    1.2990    0.0000 C   0  0  0  0  0  0  0  0  0  0  0  0
    1.5000    2.5981    0.0000 C   0  0  0  0  0  0  0  0  0  0  0  0
    3.0000    2.5981    0.0000 C   0  0  0  0  0  0  0  0  0  0  0  0
    3.7500    3.8971    0.0000 C   0  0  0  0  0  0  0  0  0  0  0  0
    5.2500    3.8971    0.0000 C   0  0  0  0  0  0  0  0  0  0  0  0
    6.0000    5.1962    0.0000 C   0  0  0  0  0  0  0  0  0  0  0  0
    7.5000    5.1962    0.0000 C   0  0  0  0  0  0  0  0  0  0  0  0
    5.2500    6.4952    0.0000 C   0  0  0  0  0  0  0  0  0  0  0  0
    6.0000    7.7942    0.0000 C   0  0  0  0  0  0  0  0  0  0  0  0
    3.7500    6.4952    0.0000 C   0  0  0  0  0  0  0  0  0  0  0  0
    3.0000    5.1962    0.0000 C   0  0  0  0  0  0  0  0  0  0  0  0
    1.5000    5.1962    0.0000 N   0  0  0  0  0  4  0  0  0  0  0  0
    0.7500    3.8971    0.0000 C   0  0  0  0  0  0  0  0  0  0  0  0
   -0.7500    3.8971    0.0000 O   0  0  0  0  0  0  0  0  0  0  0  0
  1  2  1  0
  2  3  1  0
  3  4  1  0
  4  5  1  0
  5  6  1  0
  6  7  2  0
  6  8  1  0
  8  9  1  0
  9 10  1  0
 10 11  1  0
 11 12  2  0
 12 13  1  0
 13 14  1  0
 14 15  1  0
 13 16  2  0
 16 17  1  0
 17 18  1  0
 16 19  1  0
 19 20  2  0
 20 21  1  0
 21 22  1  0
 22 23  1  6
 23 24  2  0
 24 25  1  0
 25 26  2  0
 26 27  1  0
 26 28  1  0
 28 29  1  0
 28 30  2  0
 30 31  1  0
 31 32  2  0
 32 33  1  0
 33 34  2  0
 21  8  1  6
 33 22  1  0
 20 11  1  0
 31 24  1  0
M  CHG  1  32   1
M  END
>  <Compound_ID>  (524) 
C40010988

>  <Active>  (524) 
0.0

>  <Smiles>  (524) 
COCCNC(=S)N1CCc2cc(OC)c(OC)cc2[C@@H]1[C@H]1C=c2cc(C)c(C)cc2=[NH+]C1=O

>  <canonical_smi>  (524) 
COCCNC(=S)N1CCc2cc(OC)c(OC)cc2[C@@H]1[C@H]1C=c2cc(C)c(C)cc2=[NH+]C1=O

>  <Set>  (524) 
G2 inactive

>  <Set_type>  (524) 
Train

>  <MW>  (524) 
482.63

>  <HBD>  (524) 
2

>  <HBA>  (524) 
7

>  <NRB>  (524) 
6

>  <NR>  (524) 
4

>  <NAR>  (524) 
2

>  <PSA>  (524) 
74.0

>  <Standard Type>  (524) 
nan

>  <Standard Relation>  (524) 
nan

>  <Standard Units>  (524) 
nan

>  <Standard Value>  (524) 
nan

>  <Assay ChEMBL ID>  (524) 
nan

>  <Assay Description>  (524) 
nan

>  <BAO Label>  (524) 
nan

$$$$

     RDKit          2D

 28 30  0  0  0  0  0  0  0  0999 V2000
    3.7500   -1.2990    0.0000 C   0  0  0  0  0  0  0  0  0  0  0  0
    3.0000    0.0000    0.0000 O   0  0  0  0  0  0  0  0  0  0  0  0
    1.5000    0.0000    0.0000 C   0  0  0  0  0  0  0  0  0  0  0  0
    0.7500   -1.2990    0.0000 C   0  0  0  0  0  0  0  0  0  0  0  0
   -0.7500   -1.2990    0.0000 C   0  0  0  0  0  0  0  0  0  0  0  0
   -1.5000    0.0000    0.0000 C   0  0  0  0  0  0  0  0  0  0  0  0
   -0.7500    1.2990    0.0000 C   0  0  0  0  0  0  0  0  0  0  0  0
    0.7500    1.2990    0.0000 C   0  0  0  0  0  0  0  0  0  0  0  0
   -1.7537    2.4138    0.0000 C   0  0  0  0  0  0  0  0  0  0  0  0
   -1.4418    3.8810    0.0000 C   0  0  0  0  0  0  0  0  0  0  0  0
   -2.5565    4.8847    0.0000 C   0  0  0  0  0  0  0  0  0  0  0  0
   -2.2447    6.3519    0.0000 N   0  0  0  0  0  0  0  0  0  0  0  0
   -3.3594    7.3556    0.0000 S   0  0  0  0  0  0  0  0  0  0  0  0
   -4.3631    6.2409    0.0000 O   0  0  0  0  0  0  0  0  0  0  0  0
   -2.3557    8.4703    0.0000 O   0  0  0  0  0  0  0  0  0  0  0  0
   -4.4741    8.3593    0.0000 C   0  0  0  0  0  0  0  0  0  0  0  0
   -4.1622    9.8265    0.0000 C   0  0  0  0  0  0  0  0  0  0  0  0
   -5.2770   10.8302    0.0000 C   0  0  0  0  0  0  0  0  0  0  0  0
   -4.9651   12.2974    0.0000 Br  0  0  0  0  0  0  0  0  0  0  0  0
   -6.7035   10.3667    0.0000 C   0  0  0  0  0  0  0  0  0  0  0  0
   -7.8183   11.3704    0.0000 C   0  0  0  0  0  0  0  0  0  0  0  0
   -7.0154    8.8995    0.0000 C   0  0  0  0  0  0  0  0  0  0  0  0
   -5.9007    7.8958    0.0000 C   0  0  0  0  0  0  0  0  0  0  0  0
   -6.2126    6.4285    0.0000 O   0  0  0  0  0  0  0  0  0  0  0  0
   -7.6391    5.9650    0.0000 C   0  0  0  0  0  0  0  0  0  0  0  0
   -3.1240    1.8037    0.0000 C   0  0  0  0  0  0  0  0  0  0  0  0
   -4.4231    2.5537    0.0000 C   0  0  0  0  0  0  0  0  0  0  0  0
   -2.9672    0.3119    0.0000 N   0  0  0  0  0  4  0  0  0  0  0  0
  1  2  1  0
  2  3  1  0
  3  4  1  0
  4  5  2  0
  5  6  1  0
  6  7  1  0
  7  8  1  0
  7  9  2  0
  9 10  1  0
 10 11  1  0
 11 12  1  0
 12 13  1  0
 13 14  2  0
 13 15  2  0
 13 16  1  0
 16 17  2  0
 17 18  1  0
 18 19  1  0
 18 20  2  0
 20 21  1  0
 20 22  1  0
 22 23  2  0
 23 24  1  0
 24 25  1  0
  9 26  1  0
 26 27  1  1
 26 28  1  0
  8  3  2  0
 23 16  1  0
 28  6  2  0
M  CHG  1  28   1
M  END
>  <Compound_ID>  (525) 
C64657057

>  <Active>  (525) 
0.0

>  <Smiles>  (525) 
COc1ccc2c(c1)=C(CCNS(=O)(=O)c1cc(Br)c(C)cc1OC)[C@H](C)[NH+]=2

>  <canonical_smi>  (525) 
COc1ccc2c(c1)=C(CCNS(=O)(=O)c1cc(Br)c(C)cc1OC)[C@H](C)[NH+]=2

>  <Set>  (525) 
G2 inactive

>  <Set_type>  (525) 
Train

>  <MW>  (525) 
468.39

>  <HBD>  (525) 
2

>  <HBA>  (525) 
4

>  <NRB>  (525) 
7

>  <NR>  (525) 
3

>  <NAR>  (525) 
2

>  <PSA>  (525) 
78.6

>  <Standard Type>  (525) 
nan

>  <Standard Relation>  (525) 
nan

>  <Standard Units>  (525) 
nan

>  <Standard Value>  (525) 
nan

>  <Assay ChEMBL ID>  (525) 
nan

>  <Assay Description>  (525) 
nan

>  <BAO Label>  (525) 
nan

$$$$

     RDKit          2D

 25 27  0  0  0  0  0  0  0  0999 V2000
   -6.2961   -1.6453    0.0000 C   0  0  0  0  0  0  0  0  0  0  0  0
   -5.1814   -2.6490    0.0000 N   0  0  0  0  0  0  0  0  0  0  0  0
   -3.7548   -2.1855    0.0000 C   0  0  0  0  0  0  0  0  0  0  0  0
   -3.4430   -0.7182    0.0000 O   0  0  0  0  0  0  0  0  0  0  0  0
   -2.6401   -3.1891    0.0000 C   0  0  0  0  0  0  0  0  0  0  0  0
   -1.2135   -2.7256    0.0000 C   0  0  0  0  0  0  0  0  0  0  0  0
   -0.0000   -3.6073    0.0000 C   0  0  0  0  0  0  0  0  0  0  0  0
    0.0000   -5.1073    0.0000 C   0  0  0  0  0  0  0  0  0  0  0  0
   -1.2990   -5.8573    0.0000 O   0  0  0  0  0  0  0  0  0  0  0  0
    1.2990   -5.8573    0.0000 O   0  0  0  0  0  1  0  0  0  0  0  0
    1.2135   -2.7256    0.0000 N   0  0  0  0  0  0  0  0  0  0  0  0
    0.7500   -1.2990    0.0000 C   0  0  0  0  0  0  0  0  0  0  0  0
    1.5000    0.0000    0.0000 C   0  0  0  0  0  0  0  0  0  0  0  0
    0.7500    1.2990    0.0000 C   0  0  0  0  0  0  0  0  0  0  0  0
   -0.7500    1.2990    0.0000 C   0  0  0  0  0  0  0  0  0  0  0  0
   -1.5000    2.5981    0.0000 Cl  0  0  0  0  0  0  0  0  0  0  0  0
   -1.5000    0.0000    0.0000 C   0  0  0  0  0  0  0  0  0  0  0  0
   -0.7500   -1.2990    0.0000 C   0  0  0  0  0  0  0  0  0  0  0  0
   -5.4933   -4.1162    0.0000 C   0  0  0  0  0  0  0  0  0  0  0  0
   -4.3786   -5.1199    0.0000 C   0  0  0  0  0  0  0  0  0  0  0  0
   -4.6904   -6.5871    0.0000 C   0  0  0  0  0  0  0  0  0  0  0  0
   -6.1170   -7.0506    0.0000 C   0  0  0  0  0  0  0  0  0  0  0  0
   -6.4289   -8.5179    0.0000 Cl  0  0  0  0  0  0  0  0  0  0  0  0
   -7.2317   -6.0469    0.0000 C   0  0  0  0  0  0  0  0  0  0  0  0
   -6.9199   -4.5797    0.0000 C   0  0  0  0  0  0  0  0  0  0  0  0
  1  2  1  0
  2  3  1  0
  3  4  2  0
  3  5  1  0
  5  6  1  0
  6  7  2  0
  7  8  1  0
  8  9  2  0
  8 10  1  0
  7 11  1  0
 11 12  1  0
 12 13  2  0
 13 14  1  0
 14 15  2  0
 15 16  1  0
 15 17  1  0
 17 18  2  0
  2 19  1  0
 19 20  2  0
 20 21  1  0
 21 22  2  0
 22 23  1  0
 22 24  1  0
 24 25  2  0
 18  6  1  0
 25 19  1  0
 18 12  1  0
M  CHG  1  10  -1
M  END
>  <Compound_ID>  (526) 
C04920452

>  <Active>  (526) 
0.0

>  <Smiles>  (526) 
CN(C(=O)Cc1c(C(=O)[O-])[nH]c2ccc(Cl)cc12)c1ccc(Cl)cc1

>  <canonical_smi>  (526) 
CN(C(=O)Cc1c(C(=O)[O-])[nH]c2ccc(Cl)cc12)c1ccc(Cl)cc1

>  <Set>  (526) 
G2 inactive

>  <Set_type>  (526) 
Train

>  <MW>  (526) 
376.22

>  <HBD>  (526) 
1

>  <HBA>  (526) 
3

>  <NRB>  (526) 
4

>  <NR>  (526) 
3

>  <NAR>  (526) 
3

>  <PSA>  (526) 
76.23

>  <Standard Type>  (526) 
nan

>  <Standard Relation>  (526) 
nan

>  <Standard Units>  (526) 
nan

>  <Standard Value>  (526) 
nan

>  <Assay ChEMBL ID>  (526) 
nan

>  <Assay Description>  (526) 
nan

>  <BAO Label>  (526) 
nan

$$$$

     RDKit          2D

 31 34  0  0  0  0  0  0  0  0999 V2000
    3.0000    0.0000    0.0000 C   0  0  0  0  0  0  0  0  0  0  0  0
    1.5000    0.0000    0.0000 C   0  0  0  0  0  0  0  0  0  0  0  0
    0.7500   -1.2990    0.0000 C   0  0  0  0  0  0  0  0  0  0  0  0
   -0.7500   -1.2990    0.0000 C   0  0  0  0  0  0  0  0  0  0  0  0
   -1.5000    0.0000    0.0000 C   0  0  0  0  0  0  0  0  0  0  0  0
   -3.0000    0.0000    0.0000 N   0  0  0  0  0  0  0  0  0  0  0  0
   -3.7500    1.2990    0.0000 C   0  0  0  0  0  0  0  0  0  0  0  0
   -5.2418    1.4558    0.0000 N   0  0  0  0  0  0  0  0  0  0  0  0
   -5.5537    2.9231    0.0000 C   0  0  0  0  0  0  0  0  0  0  0  0
   -6.9240    3.5332    0.0000 C   0  0  0  0  0  0  0  0  0  0  0  0
   -7.0808    5.0249    0.0000 N   0  0  0  0  0  4  0  0  0  0  0  0
   -8.4511    5.6350    0.0000 C   0  0  0  0  0  0  0  0  0  0  0  0
   -5.8672    5.9066    0.0000 C   0  0  0  0  0  0  0  0  0  0  0  0
   -6.0240    7.3984    0.0000 C   0  0  0  0  0  0  0  0  0  0  0  0
   -7.3231    8.1484    0.0000 C   0  0  0  0  0  0  0  0  0  0  0  0
   -8.6934    7.5383    0.0000 C   0  0  0  0  0  0  0  0  0  0  0  0
   -7.0112    9.6156    0.0000 N   0  0  0  0  0  0  0  0  0  0  0  0
   -5.5194    9.7724    0.0000 N   0  0  0  0  0  0  0  0  0  0  0  0
   -4.7694   11.0715    0.0000 C   0  0  0  0  0  0  0  0  0  0  0  0
   -5.3795   12.4418    0.0000 C   0  0  0  0  0  0  0  0  0  0  0  0
   -4.2648   13.4455    0.0000 C   0  0  0  0  0  0  0  0  0  0  0  0
   -2.9658   12.6955    0.0000 S   0  0  0  0  0  0  0  0  0  0  0  0
   -2.3557   14.0658    0.0000 O   0  0  0  0  0  0  0  0  0  0  0  0
   -1.5392   12.2319    0.0000 O   0  0  0  0  0  0  0  0  0  0  0  0
   -3.2776   11.2282    0.0000 C   0  0  0  0  0  0  0  0  0  0  0  0
   -4.9093    8.4021    0.0000 C   0  0  0  0  0  0  0  0  0  0  0  0
   -3.4421    8.0902    0.0000 C   0  0  0  0  0  0  0  0  0  0  0  0
   -4.2546    3.6731    0.0000 C   0  0  0  0  0  0  0  0  0  0  0  0
   -3.1399    2.6694    0.0000 S   0  0  0  0  0  0  0  0  0  0  0  0
   -0.7500    1.2990    0.0000 C   0  0  0  0  0  0  0  0  0  0  0  0
    0.7500    1.2990    0.0000 C   0  0  0  0  0  0  0  0  0  0  0  0
  1  2  1  0
  2  3  2  0
  3  4  1  0
  4  5  2  0
  5  6  1  0
  6  7  1  0
  7  8  2  0
  8  9  1  0
  9 10  1  0
 10 11  1  0
 11 12  1  0
 11 13  1  0
 13 14  1  0
 14 15  1  0
 15 16  1  0
 15 17  2  0
 17 18  1  0
 19 18  1  6
 19 20  1  0
 20 21  1  0
 21 22  1  0
 22 23  2  0
 22 24  2  0
 22 25  1  0
 18 26  1  0
 26 27  1  0
  9 28  2  0
 28 29  1  0
  5 30  1  0
 30 31  2  0
 31  2  1  0
 29  7  1  0
 26 14  2  0
 25 19  1  0
M  CHG  1  11   1
M  END
>  <Compound_ID>  (527) 
C24757354

>  <Active>  (527) 
0.0

>  <Smiles>  (527) 
Cc1ccc(Nc2nc(C[NH+](C)Cc3c(C)nn([C@@H]4CCS(=O)(=O)C4)c3C)cs2)cc1

>  <canonical_smi>  (527) 
Cc1ccc(Nc2nc(C[NH+](C)Cc3c(C)nn([C@@H]4CCS(=O)(=O)C4)c3C)cs2)cc1

>  <Set>  (527) 
G2 inactive

>  <Set_type>  (527) 
Train

>  <MW>  (527) 
460.65

>  <HBD>  (527) 
2

>  <HBA>  (527) 
5

>  <NRB>  (527) 
7

>  <NR>  (527) 
4

>  <NAR>  (527) 
3

>  <PSA>  (527) 
81.32

>  <Standard Type>  (527) 
nan

>  <Standard Relation>  (527) 
nan

>  <Standard Units>  (527) 
nan

>  <Standard Value>  (527) 
nan

>  <Assay ChEMBL ID>  (527) 
nan

>  <Assay Description>  (527) 
nan

>  <BAO Label>  (527) 
nan

$$$$

     RDKit          2D

 33 36  0  0  0  0  0  0  0  0999 V2000
   14.6426  -19.0362    0.0000 C   0  0  0  0  0  0  0  0  0  0  0  0
   13.5279  -18.0325    0.0000 C   0  0  0  0  0  0  0  0  0  0  0  0
   12.1013  -18.4960    0.0000 C   0  0  0  0  0  0  0  0  0  0  0  0
   10.9866  -17.4923    0.0000 C   0  0  0  0  0  0  0  0  0  0  0  0
   11.2984  -16.0251    0.0000 C   0  0  0  0  0  0  0  0  0  0  0  0
   10.1837  -15.0214    0.0000 N   0  0  0  0  0  0  0  0  0  0  0  0
   10.4956  -13.5542    0.0000 C   0  0  0  0  0  0  0  0  0  0  0  0
   11.9222  -13.0907    0.0000 O   0  0  0  0  0  0  0  0  0  0  0  0
    9.3809  -12.5505    0.0000 C   0  0  0  0  0  0  0  0  0  0  0  0
    7.9136  -12.8624    0.0000 N   0  0  0  0  0  0  0  0  0  0  0  0
    7.1636  -11.5633    0.0000 N   0  0  0  0  0  0  0  0  0  0  0  0
    8.1673  -10.4486    0.0000 C   0  0  0  0  0  0  0  0  0  0  0  0
    7.8555   -8.9814    0.0000 C   0  0  0  0  0  0  0  0  0  0  0  0
    6.4289   -8.5179    0.0000 C   0  0  0  0  0  0  0  0  0  0  0  0
    6.1170   -7.0506    0.0000 C   0  0  0  0  0  0  0  0  0  0  0  0
    4.6904   -6.5871    0.0000 C   0  0  0  0  0  0  0  0  0  0  0  0
    3.5757   -7.5908    0.0000 O   0  0  0  0  0  0  0  0  0  0  0  0
    4.3786   -5.1199    0.0000 N   0  0  0  0  0  0  0  0  0  0  0  0
    2.9520   -4.6564    0.0000 C   0  0  0  0  0  0  0  0  0  0  0  0
    2.6401   -3.1891    0.0000 C   0  0  0  0  0  0  0  0  0  0  0  0
    1.2135   -2.7256    0.0000 C   0  0  0  0  0  0  0  0  0  0  0  0
    0.7500   -1.2990    0.0000 C   0  0  0  0  0  0  0  0  0  0  0  0
    1.5000    0.0000    0.0000 C   0  0  0  0  0  0  0  0  0  0  0  0
    0.7500    1.2990    0.0000 C   0  0  0  0  0  0  0  0  0  0  0  0
    1.5000    2.5981    0.0000 C   0  0  0  0  0  0  0  0  0  0  0  0
   -0.7500    1.2990    0.0000 C   0  0  0  0  0  0  0  0  0  0  0  0
   -1.5000    0.0000    0.0000 C   0  0  0  0  0  0  0  0  0  0  0  0
   -0.7500   -1.2990    0.0000 C   0  0  0  0  0  0  0  0  0  0  0  0
   -1.2135   -2.7256    0.0000 N   0  0  0  0  0  4  0  0  0  0  0  0
    0.0000   -3.6073    0.0000 C   0  0  0  0  0  0  0  0  0  0  0  0
    9.5377  -11.0587    0.0000 S   0  0  0  0  0  0  0  0  0  0  0  0
   12.7250  -15.5616    0.0000 C   0  0  0  0  0  0  0  0  0  0  0  0
   13.8397  -16.5653    0.0000 C   0  0  0  0  0  0  0  0  0  0  0  0
  1  2  1  0
  2  3  2  0
  3  4  1  0
  4  5  2  0
  5  6  1  0
  6  7  1  0
  7  8  2  0
  9  7  1  6
  9 10  1  0
 10 11  2  0
 11 12  1  0
 12 13  1  1
 13 14  1  0
 14 15  1  0
 15 16  1  0
 16 17  2  0
 16 18  1  0
 18 19  1  0
 19 20  1  0
 20 21  1  0
 21 22  2  0
 22 23  1  0
 23 24  2  0
 24 25  1  0
 24 26  1  0
 26 27  2  0
 27 28  1  0
 28 29  2  0
 29 30  1  0
 12 31  1  0
  5 32  1  0
 32 33  2  0
 33  2  1  0
 31  9  1  0
 30 21  1  0
 28 22  1  0
M  CHG  1  29   1
M  END
>  <Compound_ID>  (528) 
C64491498

>  <Active>  (528) 
0.0

>  <Smiles>  (528) 
Cc1ccc(NC(=O)[C@@H]2N=N[C@@H](CCCC(=O)NCCC3=c4cc(C)ccc4=[NH+]C3)S2)cc1

>  <canonical_smi>  (528) 
Cc1ccc(NC(=O)[C@@H]2N=N[C@@H](CCCC(=O)NCCC3=c4cc(C)ccc4=[NH+]C3)S2)cc1

>  <Set>  (528) 
G2 inactive

>  <Set_type>  (528) 
Train

>  <MW>  (528) 
464.62

>  <HBD>  (528) 
3

>  <HBA>  (528) 
3

>  <NRB>  (528) 
9

>  <NR>  (528) 
4

>  <NAR>  (528) 
2

>  <PSA>  (528) 
96.89

>  <Standard Type>  (528) 
nan

>  <Standard Relation>  (528) 
nan

>  <Standard Units>  (528) 
nan

>  <Standard Value>  (528) 
nan

>  <Assay ChEMBL ID>  (528) 
nan

>  <Assay Description>  (528) 
nan

>  <BAO Label>  (528) 
nan

$$$$

     RDKit          2D

 33 37  0  0  0  0  0  0  0  0999 V2000
    5.4954    3.6844    0.0000 O   0  0  0  0  0  0  0  0  0  0  0  0
    5.1835    5.1517    0.0000 C   0  0  0  0  0  0  0  0  0  0  0  0
    3.7570    5.6152    0.0000 C   0  0  0  0  0  0  0  0  0  0  0  0
    3.2934    7.0418    0.0000 C   0  0  0  0  0  0  0  0  0  0  0  0
    1.7934    7.0418    0.0000 C   0  0  0  0  0  0  0  0  0  0  0  0
    1.3299    5.6152    0.0000 C   0  0  0  0  0  0  0  0  0  0  0  0
   -0.0967    5.1517    0.0000 C   0  0  0  0  0  0  0  0  0  0  0  0
   -0.4086    3.6844    0.0000 N   0  0  0  0  0  0  0  0  0  0  0  0
    0.7062    2.6807    0.0000 C   0  0  0  0  0  0  0  0  0  0  0  0
    0.3943    1.2135    0.0000 C   0  0  0  0  0  0  0  0  0  0  0  0
    1.2760    0.0000    0.0000 N   0  0  0  0  0  0  0  0  0  0  0  0
    0.3943   -1.2135    0.0000 C   0  0  0  0  0  0  0  0  0  0  0  0
   -1.0323   -0.7500    0.0000 N   0  0  0  0  0  4  0  0  0  0  0  0
   -1.0323    0.7500    0.0000 C   0  0  0  0  0  0  0  0  0  0  0  0
   -2.1470    1.7537    0.0000 C   0  0  0  0  0  0  0  0  0  0  0  0
   -1.8351    3.2209    0.0000 C   0  0  0  0  0  0  0  0  0  0  0  0
   -2.9499    4.2246    0.0000 C   0  0  0  0  0  0  0  0  0  0  0  0
   -4.4171    3.9127    0.0000 N   0  0  0  0  0  0  0  0  0  0  0  0
   -5.1671    5.2118    0.0000 C   0  0  0  0  0  0  0  0  0  0  0  0
   -6.6589    5.3686    0.0000 C   0  0  0  0  0  0  0  0  0  0  0  0
   -7.2690    6.7389    0.0000 C   0  0  0  0  0  0  0  0  0  0  0  0
   -8.7607    6.8957    0.0000 C   0  0  0  0  0  0  0  0  0  0  0  0
   -9.6424    5.6822    0.0000 C   0  0  0  0  0  0  0  0  0  0  0  0
  -11.1342    5.8390    0.0000 O   0  0  0  0  0  0  0  0  0  0  0  0
  -11.7443    7.2093    0.0000 C   0  0  0  0  0  0  0  0  0  0  0  0
  -12.3544    8.5796    0.0000 F   0  0  0  0  0  0  0  0  0  0  0  0
  -13.1146    6.5992    0.0000 F   0  0  0  0  0  0  0  0  0  0  0  0
  -10.3740    7.8194    0.0000 F   0  0  0  0  0  0  0  0  0  0  0  0
   -9.0323    4.3118    0.0000 C   0  0  0  0  0  0  0  0  0  0  0  0
   -7.5405    4.1551    0.0000 C   0  0  0  0  0  0  0  0  0  0  0  0
   -4.1634    6.3265    0.0000 N   0  0  0  0  0  0  0  0  0  0  0  0
   -2.7931    5.7164    0.0000 O   0  0  0  0  0  0  0  0  0  0  0  0
    2.5434    4.7335    0.0000 O   0  0  0  0  0  0  0  0  0  0  0  0
  1  2  1  0
  2  3  1  0
  3  4  2  0
  4  5  1  0
  5  6  2  0
  6  7  1  0
  7  8  1  0
  8  9  1  0
  9 10  1  0
 10 11  1  0
 11 12  1  0
 12 13  2  0
 13 14  1  0
 14 15  1  0
 15 16  1  0
 16 17  1  1
 17 18  2  0
 18 19  1  0
 19 20  1  0
 20 21  2  0
 21 22  1  0
 22 23  2  0
 23 24  1  0
 24 25  1  0
 25 26  1  0
 25 27  1  0
 25 28  1  0
 23 29  1  0
 29 30  2  0
 19 31  2  0
 31 32  1  0
  6 33  1  0
 33  3  1  0
 16  8  1  0
 32 17  1  0
 14 10  2  0
 30 20  1  0
M  CHG  1  13   1
M  END
>  <Compound_ID>  (529) 
C15675581

>  <Active>  (529) 
0.0

>  <Smiles>  (529) 
OCc1ccc(CN2Cc3[nH]c[nH+]c3C[C@H]2c2nc(-c3ccc(OC(F)(F)F)cc3)no2)o1

>  <canonical_smi>  (529) 
OCc1ccc(CN2Cc3[nH]c[nH+]c3C[C@H]2c2nc(-c3ccc(OC(F)(F)F)cc3)no2)o1

>  <Set>  (529) 
G2 inactive

>  <Set_type>  (529) 
Train

>  <MW>  (529) 
462.41

>  <HBD>  (529) 
2

>  <HBA>  (529) 
7

>  <NRB>  (529) 
6

>  <NR>  (529) 
5

>  <NAR>  (529) 
4

>  <PSA>  (529) 
114.69

>  <Standard Type>  (529) 
nan

>  <Standard Relation>  (529) 
nan

>  <Standard Units>  (529) 
nan

>  <Standard Value>  (529) 
nan

>  <Assay ChEMBL ID>  (529) 
nan

>  <Assay Description>  (529) 
nan

>  <BAO Label>  (529) 
nan

$$$$

     RDKit          2D

 40 45  0  0  0  0  0  0  0  0999 V2000
   -5.7221   -7.8037    0.0000 N   0  0  0  0  0  0  0  0  0  0  0  0
   -5.7221   -6.3037    0.0000 C   0  0  0  0  0  0  0  0  0  0  0  0
   -5.7221   -4.8037    0.0000 C   0  0  0  0  0  0  0  0  0  0  0  0
   -7.0211   -4.0537    0.0000 C   0  0  0  0  0  0  0  0  0  0  0  0
   -7.0211   -2.5537    0.0000 N   0  0  0  0  0  0  0  0  0  0  0  0
   -5.7221   -1.8037    0.0000 C   0  0  0  0  0  0  0  0  0  0  0  0
   -4.4231   -2.5537    0.0000 C   0  0  0  0  0  0  0  0  0  0  0  0
   -3.1240   -1.8037    0.0000 C   0  0  0  0  0  0  0  0  0  0  0  0
   -1.7537   -2.4138    0.0000 N   0  0  0  0  0  0  0  0  0  0  0  0
   -0.7500   -1.2990    0.0000 C   0  0  0  0  0  0  0  0  0  0  0  0
    0.7500   -1.2990    0.0000 C   0  0  0  0  0  0  0  0  0  0  0  0
    1.5000   -2.5981    0.0000 N   0  0  0  0  0  0  0  0  0  0  0  0
    0.7500   -3.8971    0.0000 C   0  0  0  0  0  0  0  0  0  0  0  0
    1.5000   -5.1962    0.0000 C   0  0  0  0  0  0  0  0  0  0  0  0
    3.0000   -5.1962    0.0000 C   0  0  0  0  0  0  0  0  0  0  0  0
    3.7500   -6.4952    0.0000 C   0  0  0  0  0  0  0  0  0  0  0  0
    3.0000   -7.7942    0.0000 C   0  0  0  0  0  0  0  0  0  0  0  0
    1.5000   -7.7942    0.0000 C   0  0  0  0  0  0  0  0  0  0  0  0
    0.7500   -9.0933    0.0000 C   0  0  0  0  0  0  0  0  0  0  0  0
    1.5000  -10.3923    0.0000 C   0  0  0  0  0  0  0  0  0  0  0  0
    3.0000  -10.3923    0.0000 C   0  0  0  0  0  0  0  0  0  0  0  0
    3.7500   -9.0933    0.0000 C   0  0  0  0  0  0  0  0  0  0  0  0
    3.7500   -3.8971    0.0000 C   0  0  0  0  0  0  0  0  0  0  0  0
    3.0000   -2.5981    0.0000 C   0  0  0  0  0  0  0  0  0  0  0  0
    1.5000    0.0000    0.0000 C   0  0  0  0  0  0  0  0  0  0  0  0
    0.7500    1.2990    0.0000 C   0  0  0  0  0  0  0  0  0  0  0  0
   -0.7500    1.2990    0.0000 C   0  0  0  0  0  0  0  0  0  0  0  0
   -1.5000    0.0000    0.0000 C   0  0  0  0  0  0  0  0  0  0  0  0
   -2.9672   -0.3119    0.0000 N   0  0  0  0  0  0  0  0  0  0  0  0
   -4.0819    0.6918    0.0000 C   0  0  0  0  0  0  0  0  0  0  0  0
   -3.7701    2.1590    0.0000 C   0  0  0  0  0  0  0  0  0  0  0  0
   -4.8848    3.1627    0.0000 N   0  0  0  0  0  4  0  0  0  0  0  0
   -4.5729    4.6300    0.0000 C   0  0  0  0  0  0  0  0  0  0  0  0
   -5.6876    5.6337    0.0000 C   0  0  0  0  0  0  0  0  0  0  0  0
   -5.3758    7.1009    0.0000 C   0  0  0  0  0  0  0  0  0  0  0  0
   -6.4905    8.1046    0.0000 C   0  0  0  0  0  0  0  0  0  0  0  0
   -7.9171    7.6411    0.0000 C   0  0  0  0  0  0  0  0  0  0  0  0
   -8.2289    6.1738    0.0000 C   0  0  0  0  0  0  0  0  0  0  0  0
   -7.1142    5.1701    0.0000 C   0  0  0  0  0  0  0  0  0  0  0  0
   -4.4231   -4.0537    0.0000 C   0  0  0  0  0  0  0  0  0  0  0  0
  1  2  3  0
  2  3  1  0
  3  4  2  0
  4  5  1  0
  5  6  2  0
  6  7  1  0
  7  8  1  0
  8  9  2  0
  9 10  1  0
 10 11  2  0
 11 12  1  0
 12 13  1  0
 13 14  1  0
 14 15  1  0
 15 16  1  0
 16 17  1  0
 17 18  2  0
 18 19  1  0
 19 20  2  0
 20 21  1  0
 21 22  2  0
 15 23  1  0
 23 24  1  0
 11 25  1  0
 25 26  2  0
 26 27  1  0
 27 28  2  0
 28 29  1  0
 29 30  1  0
 30 31  1  0
 31 32  1  0
 32 33  1  0
 33 34  1  0
 34 35  2  0
 35 36  1  0
 36 37  2  0
 37 38  1  0
 38 39  2  0
  7 40  2  0
 40  3  1  0
 29  8  1  0
 39 34  1  0
 28 10  1  0
 24 12  1  0
 22 17  1  0
M  CHG  1  32   1
M  END
>  <Compound_ID>  (530) 
C45168795

>  <Active>  (530) 
0.0

>  <Smiles>  (530) 
N#Cc1cncc(-c2nc3c(N4CCC(Cc5ccccc5)CC4)cccc3n2CC[NH2+]Cc2ccccc2)c1

>  <canonical_smi>  (530) 
N#Cc1cncc(-c2nc3c(N4CCC(Cc5ccccc5)CC4)cccc3n2CC[NH2+]Cc2ccccc2)c1

>  <Set>  (530) 
G2 inactive

>  <Set_type>  (530) 
Train

>  <MW>  (530) 
527.7

>  <HBD>  (530) 
1

>  <HBA>  (530) 
4

>  <NRB>  (530) 
9

>  <NR>  (530) 
6

>  <NAR>  (530) 
5

>  <PSA>  (530) 
74.35

>  <Standard Type>  (530) 
nan

>  <Standard Relation>  (530) 
nan

>  <Standard Units>  (530) 
nan

>  <Standard Value>  (530) 
nan

>  <Assay ChEMBL ID>  (530) 
nan

>  <Assay Description>  (530) 
nan

>  <BAO Label>  (530) 
nan

$$$$

     RDKit          2D

 28 30  0  0  0  0  0  0  0  0999 V2000
    5.2500   -1.2990    0.0000 C   0  0  0  0  0  0  0  0  0  0  0  0
    3.7500   -1.2990    0.0000 C   0  0  0  0  0  0  0  0  0  0  0  0
    3.0000   -2.5981    0.0000 C   0  0  0  0  0  0  0  0  0  0  0  0
    3.0000    0.0000    0.0000 S   0  0  0  0  0  0  0  0  0  0  0  0
    1.5000    0.0000    0.0000 C   0  0  0  0  0  0  0  0  0  0  0  0
    0.7500   -1.2990    0.0000 C   0  0  0  0  0  0  0  0  0  0  0  0
   -0.7500   -1.2990    0.0000 C   0  0  0  0  0  0  0  0  0  0  0  0
   -1.5000    0.0000    0.0000 C   0  0  0  0  0  0  0  0  0  0  0  0
   -3.0000    0.0000    0.0000 C   0  0  0  0  0  0  0  0  0  0  0  0
   -3.7500    1.2990    0.0000 C   0  0  0  0  0  0  0  0  0  0  0  0
   -3.0000    2.5981    0.0000 O   0  0  0  0  0  0  0  0  0  0  0  0
   -5.2500    1.2990    0.0000 N   0  0  0  0  0  0  0  0  0  0  0  0
   -6.0000    2.5981    0.0000 C   0  0  0  0  0  0  0  0  0  0  0  0
   -7.5000    2.5981    0.0000 C   0  0  0  0  0  0  0  0  0  0  0  0
   -8.2500    1.2990    0.0000 C   0  0  0  0  0  0  0  0  0  0  0  0
   -9.7500    1.2990    0.0000 C   0  0  0  0  0  0  0  0  0  0  0  0
  -10.5000    2.5981    0.0000 N   0  0  0  0  0  0  0  0  0  0  0  0
   -9.8899    3.9684    0.0000 C   0  0  0  0  0  0  0  0  0  0  0  0
  -11.0046    4.9721    0.0000 C   0  0  0  0  0  0  0  0  0  0  0  0
  -12.3037    4.2221    0.0000 N   0  0  0  0  0  4  0  0  0  0  0  0
  -11.9918    2.7549    0.0000 C   0  0  0  0  0  0  0  0  0  0  0  0
  -12.9955    1.6402    0.0000 C   0  0  0  0  0  0  0  0  0  0  0  0
  -12.5320    0.2136    0.0000 C   0  0  0  0  0  0  0  0  0  0  0  0
  -14.4627    1.9520    0.0000 C   0  0  0  0  0  0  0  0  0  0  0  0
   -7.5000    0.0000    0.0000 C   0  0  0  0  0  0  0  0  0  0  0  0
   -6.0000    0.0000    0.0000 C   0  0  0  0  0  0  0  0  0  0  0  0
   -0.7500    1.2990    0.0000 C   0  0  0  0  0  0  0  0  0  0  0  0
    0.7500    1.2990    0.0000 C   0  0  0  0  0  0  0  0  0  0  0  0
  1  2  1  0
  2  3  1  0
  2  4  1  0
  4  5  1  0
  5  6  2  0
  6  7  1  0
  7  8  2  0
  8  9  1  0
  9 10  1  0
 10 11  2  0
 10 12  1  0
 12 13  1  0
 13 14  1  0
 14 15  1  0
 15 16  1  0
 16 17  1  0
 17 18  1  0
 18 19  2  0
 19 20  1  0
 20 21  2  0
 21 22  1  0
 22 23  1  0
 22 24  1  0
 15 25  1  0
 25 26  1  0
  8 27  1  0
 27 28  2  0
 28  5  1  0
 26 12  1  0
 21 17  1  0
M  CHG  1  20   1
M  END
>  <Compound_ID>  (531) 
C62129024

>  <Active>  (531) 
0.0

>  <Smiles>  (531) 
CC(C)Sc1ccc(CC(=O)N2CCC(Cn3cc[nH+]c3C(C)C)CC2)cc1

>  <canonical_smi>  (531) 
CC(C)Sc1ccc(CC(=O)N2CCC(Cn3cc[nH+]c3C(C)C)CC2)cc1

>  <Set>  (531) 
G2 inactive

>  <Set_type>  (531) 
Train

>  <MW>  (531) 
400.61

>  <HBD>  (531) 
0

>  <HBA>  (531) 
2

>  <NRB>  (531) 
7

>  <NR>  (531) 
3

>  <NAR>  (531) 
2

>  <PSA>  (531) 
39.38

>  <Standard Type>  (531) 
nan

>  <Standard Relation>  (531) 
nan

>  <Standard Units>  (531) 
nan

>  <Standard Value>  (531) 
nan

>  <Assay ChEMBL ID>  (531) 
nan

>  <Assay Description>  (531) 
nan

>  <BAO Label>  (531) 
nan

$$$$

     RDKit          2D

 30 32  0  0  0  0  0  0  0  0999 V2000
   -8.6515   -8.2873    0.0000 C   0  0  0  0  0  0  0  0  0  0  0  0
   -7.2812   -8.8974    0.0000 C   0  0  0  0  0  0  0  0  0  0  0  0
   -6.0676   -8.0157    0.0000 C   0  0  0  0  0  0  0  0  0  0  0  0
   -4.6973   -8.6258    0.0000 O   0  0  0  0  0  0  0  0  0  0  0  0
   -3.4838   -7.7441    0.0000 C   0  0  0  0  0  0  0  0  0  0  0  0
   -2.1135   -8.3542    0.0000 C   0  0  0  0  0  0  0  0  0  0  0  0
   -1.9567   -9.8460    0.0000 O   0  0  0  0  0  0  0  0  0  0  0  0
   -0.8999   -7.4725    0.0000 C   0  0  0  0  0  0  0  0  0  0  0  0
    0.4704   -8.0826    0.0000 N   0  0  0  0  0  4  0  0  0  0  0  0
    0.6272   -9.5744    0.0000 C   0  0  0  0  0  0  0  0  0  0  0  0
   -0.5864  -10.4561    0.0000 C   0  0  0  0  0  0  0  0  0  0  0  0
   -0.4296  -11.9479    0.0000 C   0  0  0  0  0  0  0  0  0  0  0  0
   -1.6431  -12.8296    0.0000 O   0  0  0  0  0  0  0  0  0  0  0  0
   -1.4863  -14.3214    0.0000 C   0  0  0  0  0  0  0  0  0  0  0  0
    1.6839   -7.2010    0.0000 C   0  0  0  0  0  0  0  0  0  0  0  0
    1.5271   -5.7092    0.0000 C   0  0  0  0  0  0  0  0  0  0  0  0
    0.1568   -5.0991    0.0000 N   0  0  0  0  0  0  0  0  0  0  0  0
   -0.0000   -3.6073    0.0000 C   0  0  0  0  0  0  0  0  0  0  0  0
   -1.2135   -2.7256    0.0000 S   0  0  0  0  0  0  0  0  0  0  0  0
   -0.7500   -1.2990    0.0000 C   0  0  0  0  0  0  0  0  0  0  0  0
    0.7500   -1.2990    0.0000 C   0  0  0  0  0  0  0  0  0  0  0  0
    1.2135   -2.7256    0.0000 C   0  0  0  0  0  0  0  0  0  0  0  0
    2.5838   -3.3357    0.0000 C   0  0  0  0  0  0  0  0  0  0  0  0
    3.7974   -2.4540    0.0000 O   0  0  0  0  0  0  0  0  0  0  0  0
    2.7406   -4.8275    0.0000 N   0  0  0  0  0  0  0  0  0  0  0  0
    1.5000    0.0000    0.0000 C   0  0  0  0  0  0  0  0  0  0  0  0
    0.7500    1.2990    0.0000 C   0  0  0  0  0  0  0  0  0  0  0  0
   -0.7500    1.2990    0.0000 C   0  0  0  0  0  0  0  0  0  0  0  0
   -1.5000    2.5981    0.0000 C   0  0  0  0  0  0  0  0  0  0  0  0
   -1.5000    0.0000    0.0000 C   0  0  0  0  0  0  0  0  0  0  0  0
  1  2  2  0
  2  3  1  0
  3  4  1  0
  4  5  1  0
  5  6  1  0
  6  7  1  6
  6  8  1  0
  8  9  1  0
  9 10  1  0
 10 11  1  0
 11 12  1  0
 12 13  1  0
 13 14  1  0
  9 15  1  0
 15 16  1  0
 16 17  2  0
 17 18  1  0
 18 19  1  0
 19 20  1  0
 20 21  2  0
 21 22  1  0
 22 23  1  0
 23 24  2  0
 23 25  1  0
 21 26  1  0
 26 27  1  0
 27 28  1  0
 28 29  1  6
 28 30  1  0
 25 16  1  0
 22 18  2  0
 30 20  1  0
M  CHG  1   9   1
M  END
>  <Compound_ID>  (532) 
C36161558

>  <Active>  (532) 
0.0

>  <Smiles>  (532) 
C=CCOC[C@@H](O)C[NH+](CCCOC)Cc1nc2sc3c(c2c(=O)[nH]1)CC[C@@H](C)C3

>  <canonical_smi>  (532) 
C=CCOC[C@@H](O)C[NH+](CCCOC)Cc1nc2sc3c(c2c(=O)[nH]1)CC[C@@H](C)C3

>  <Set>  (532) 
G2 inactive

>  <Set_type>  (532) 
Train

>  <MW>  (532) 
436.6

>  <HBD>  (532) 
3

>  <HBA>  (532) 
5

>  <NRB>  (532) 
12

>  <NR>  (532) 
3

>  <NAR>  (532) 
2

>  <PSA>  (532) 
88.88

>  <Standard Type>  (532) 
nan

>  <Standard Relation>  (532) 
nan

>  <Standard Units>  (532) 
nan

>  <Standard Value>  (532) 
nan

>  <Assay ChEMBL ID>  (532) 
nan

>  <Assay Description>  (532) 
nan

>  <BAO Label>  (532) 
nan

$$$$

     RDKit          2D

 36 39  0  0  0  0  0  0  0  0999 V2000
    5.7760   -2.5981    0.0000 C   0  0  0  0  0  0  0  0  0  0  0  0
    5.0260   -1.2990    0.0000 C   0  0  0  0  0  0  0  0  0  0  0  0
    3.5260   -1.2990    0.0000 C   0  0  0  0  0  0  0  0  0  0  0  0
    2.7760    0.0000    0.0000 C   0  0  0  0  0  0  0  0  0  0  0  0
    1.2760    0.0000    0.0000 C   0  0  0  0  0  0  0  0  0  0  0  0
    0.3943    1.2135    0.0000 C   0  0  0  0  0  0  0  0  0  0  0  0
   -1.0323    0.7500    0.0000 C   0  0  0  0  0  0  0  0  0  0  0  0
   -2.5241    0.5932    0.0000 C   0  0  0  0  0  0  0  0  0  0  0  0
   -1.3442    2.2172    0.0000 C   0  0  0  0  0  0  0  0  0  0  0  0
   -2.7145    2.8273    0.0000 C   0  0  0  0  0  0  0  0  0  0  0  0
   -2.5577    4.3191    0.0000 S   0  0  0  0  0  0  0  0  0  0  0  0
   -1.0905    4.6310    0.0000 C   0  0  0  0  0  0  0  0  0  0  0  0
   -0.4804    6.0013    0.0000 N   0  0  0  0  0  0  0  0  0  0  0  0
    1.0114    6.1581    0.0000 C   0  0  0  0  0  0  0  0  0  0  0  0
    1.6215    7.5284    0.0000 C   0  0  0  0  0  0  0  0  0  0  0  0
    3.1133    7.6852    0.0000 N   0  0  0  0  0  0  0  0  0  0  0  0
    3.7234    9.0555    0.0000 C   0  0  0  0  0  0  0  0  0  0  0  0
    2.9734   10.3546    0.0000 N   0  0  0  0  0  0  0  0  0  0  0  0
    3.9771   11.4693    0.0000 C   0  0  0  0  0  0  0  0  0  0  0  0
    3.6653   12.9365    0.0000 C   0  0  0  0  0  0  0  0  0  0  0  0
    2.2387   12.4730    0.0000 C   0  0  0  0  0  0  0  0  0  0  0  0
    3.0551   14.3068    0.0000 C   0  0  0  0  0  0  0  0  0  0  0  0
    4.1699   15.3105    0.0000 C   0  0  0  0  0  0  0  0  0  0  0  0
    4.0131   16.8023    0.0000 C   0  0  0  0  0  0  0  0  0  0  0  0
    5.2266   17.6840    0.0000 C   0  0  0  0  0  0  0  0  0  0  0  0
    5.0698   19.1758    0.0000 C   0  0  0  0  0  0  0  0  0  0  0  0
    6.2833   20.0574    0.0000 C   0  0  0  0  0  0  0  0  0  0  0  0
    5.4689   14.5605    0.0000 C   0  0  0  0  0  0  0  0  0  0  0  0
    6.8392   15.1706    0.0000 O   0  0  0  0  0  0  0  0  0  0  0  0
    5.1570   13.0933    0.0000 O   0  0  0  0  0  0  0  0  0  0  0  0
    5.3474   10.8592    0.0000 C   0  0  0  0  0  0  0  0  0  0  0  0
    5.1906    9.3674    0.0000 S   0  0  0  0  0  0  0  0  0  0  0  0
   -0.3405    3.3319    0.0000 N   0  0  0  0  0  0  0  0  0  0  0  0
   -1.0323   -0.7500    0.0000 O   0  0  0  0  0  0  0  0  0  0  0  0
    0.3943   -1.2135    0.0000 C   0  0  0  0  0  0  0  0  0  0  0  0
    0.8578   -2.6401    0.0000 O   0  0  0  0  0  0  0  0  0  0  0  0
  1  2  1  0
  2  3  1  0
  3  4  1  0
  5  4  1  6
  5  6  1  0
  6  7  1  0
  7  8  1  6
  7  9  1  0
  9 10  2  0
 10 11  1  0
 11 12  1  0
 12 13  1  0
 13 14  1  0
 14 15  1  0
 15 16  1  0
 16 17  1  0
 17 18  2  0
 18 19  1  0
 19 20  1  0
 20 21  1  1
 20 22  1  0
 22 23  1  0
 23 24  1  6
 24 25  1  0
 25 26  1  0
 26 27  1  0
 23 28  1  0
 28 29  2  0
 28 30  1  0
 19 31  2  0
 31 32  1  0
 12 33  2  0
  7 34  1  0
 34 35  1  0
 35 36  2  0
 35  5  1  0
 33  9  1  0
 32 17  1  0
 30 20  1  0
M  END
>  <Compound_ID>  (533) 
C06481595

>  <Active>  (533) 
0.0

>  <Smiles>  (533) 
CCCC[C@H]1C[C@](C)(c2csc(NCCNc3nc([C@]4(C)C[C@H](CCCC)C(=O)O4)cs3)n2)OC1=O

>  <canonical_smi>  (533) 
CCCC[C@H]1C[C@@](C)(c2csc(NCCNc3nc([C@@]4(C)C[C@H](CCCC)C(=O)O4)cs3)n2)OC1=O

>  <Set>  (533) 
G2 inactive

>  <Set_type>  (533) 
Train

>  <MW>  (533) 
534.75

>  <HBD>  (533) 
2

>  <HBA>  (533) 
8

>  <NRB>  (533) 
13

>  <NR>  (533) 
4

>  <NAR>  (533) 
2

>  <PSA>  (533) 
102.44

>  <Standard Type>  (533) 
nan

>  <Standard Relation>  (533) 
nan

>  <Standard Units>  (533) 
nan

>  <Standard Value>  (533) 
nan

>  <Assay ChEMBL ID>  (533) 
nan

>  <Assay Description>  (533) 
nan

>  <BAO Label>  (533) 
nan

$$$$

     RDKit          2D

 39 41  0  0  0  0  0  0  0  0999 V2000
    3.0000    0.0000    0.0000 C   0  0  0  0  0  0  0  0  0  0  0  0
    1.5000    0.0000    0.0000 C   0  0  0  0  0  0  0  0  0  0  0  0
    0.7500   -1.2990    0.0000 C   0  0  0  0  0  0  0  0  0  0  0  0
   -0.7500   -1.2990    0.0000 C   0  0  0  0  0  0  0  0  0  0  0  0
   -1.5000   -2.5981    0.0000 N   0  0  0  0  0  0  0  0  0  0  0  0
   -0.7500   -3.8971    0.0000 N   0  0  0  0  0  0  0  0  0  0  0  0
   -1.5000   -5.1962    0.0000 C   0  0  0  0  0  0  0  0  0  0  0  0
   -0.7500   -6.4952    0.0000 N   0  0  0  0  0  0  0  0  0  0  0  0
   -3.0000   -5.1962    0.0000 O   0  0  0  0  0  0  0  0  0  0  0  0
   -1.5000    0.0000    0.0000 C   0  0  0  0  0  0  0  0  0  0  0  0
   -3.0000    0.0000    0.0000 C   0  0  0  0  0  0  0  0  0  0  0  0
   -3.7500   -1.2990    0.0000 O   0  0  0  0  0  0  0  0  0  0  0  0
   -3.7500    1.2990    0.0000 O   0  0  0  0  0  0  0  0  0  0  0  0
   -5.2500    1.2990    0.0000 C   0  0  0  0  0  0  0  0  0  0  0  0
   -6.0000    0.0000    0.0000 C   0  0  0  0  0  0  0  0  0  0  0  0
   -7.5000    0.0000    0.0000 C   0  0  0  0  0  0  0  0  0  0  0  0
   -8.2500   -1.2990    0.0000 C   0  0  0  0  0  0  0  0  0  0  0  0
   -8.2500    1.2990    0.0000 C   0  0  0  0  0  0  0  0  0  0  0  0
   -7.5000    2.5981    0.0000 C   0  0  0  0  0  0  0  0  0  0  0  0
   -6.0000    2.5981    0.0000 C   0  0  0  0  0  0  0  0  0  0  0  0
   -5.2500    3.8971    0.0000 C   0  0  0  0  0  0  0  0  0  0  0  0
   -6.0000    5.1962    0.0000 C   0  0  0  0  0  0  0  0  0  0  0  0
   -3.7500    3.8971    0.0000 C   0  0  0  0  0  0  0  0  0  0  0  0
   -0.7500    1.2990    0.0000 C   0  0  0  0  0  0  0  0  0  0  0  0
   -1.5000    2.5981    0.0000 C   0  0  0  0  0  0  0  0  0  0  0  0
    0.7500    1.2990    0.0000 C   0  0  0  0  0  0  0  0  0  0  0  0
    1.5000    2.5981    0.0000 C   0  0  0  0  0  0  0  0  0  0  0  0
    0.7500    3.8971    0.0000 O   0  0  0  0  0  0  0  0  0  0  0  0
    3.0000    2.5981    0.0000 O   0  0  0  0  0  0  0  0  0  0  0  0
    3.7500    3.8971    0.0000 C   0  0  0  0  0  0  0  0  0  0  0  0
    3.0000    5.1962    0.0000 C   0  0  0  0  0  0  0  0  0  0  0  0
    3.7500    6.4952    0.0000 C   0  0  0  0  0  0  0  0  0  0  0  0
    3.0000    7.7942    0.0000 C   0  0  0  0  0  0  0  0  0  0  0  0
    5.2500    6.4952    0.0000 C   0  0  0  0  0  0  0  0  0  0  0  0
    6.0000    5.1962    0.0000 C   0  0  0  0  0  0  0  0  0  0  0  0
    5.2500    3.8971    0.0000 C   0  0  0  0  0  0  0  0  0  0  0  0
    6.0000    2.5981    0.0000 C   0  0  0  0  0  0  0  0  0  0  0  0
    7.5000    2.5981    0.0000 C   0  0  0  0  0  0  0  0  0  0  0  0
    5.2500    1.2990    0.0000 C   0  0  0  0  0  0  0  0  0  0  0  0
  1  2  1  0
  2  3  2  0
  3  4  1  0
  4  5  2  0
  5  6  1  0
  6  7  1  0
  7  8  1  0
  7  9  2  0
  4 10  1  0
 10 11  1  1
 11 12  2  0
 11 13  1  0
 14 13  1  6
 14 15  1  0
 15 16  1  0
 16 17  1  6
 16 18  1  0
 18 19  1  0
 19 20  1  0
 20 21  1  6
 21 22  1  0
 21 23  1  0
 10 24  1  0
 24 25  1  1
 24 26  1  0
 26 27  1  1
 27 28  2  0
 27 29  1  0
 30 29  1  6
 30 31  1  0
 31 32  1  0
 32 33  1  6
 32 34  1  0
 34 35  1  0
 35 36  1  0
 36 37  1  1
 37 38  1  0
 37 39  1  0
 26  2  1  0
 36 30  1  0
 20 14  1  0
M  END
>  <Compound_ID>  (534) 
C04266929

>  <Active>  (534) 
0.0

>  <Smiles>  (534) 
CC1=C/C(=N\NC(N)=O)[C@@H](C(=O)O[C@@H]2C[C@H](C)CC[C@@H]2C(C)C)[C@@H](C)[C@H]1C(=O)O[C@@H]1C[C@H](C)CC[C@H]1C(C)C

>  <canonical_smi>  (534) 
CC1=C/C(=N\NC(N)=O)[C@@H](C(=O)O[C@@H]2C[C@H](C)CC[C@@H]2C(C)C)[C@@H](C)[C@H]1C(=O)O[C@@H]1C[C@H](C)CC[C@H]1C(C)C

>  <Set>  (534) 
G2 inactive

>  <Set_type>  (534) 
Train

>  <MW>  (534) 
545.77

>  <HBD>  (534) 
2

>  <HBA>  (534) 
5

>  <NRB>  (534) 
7

>  <NR>  (534) 
3

>  <NAR>  (534) 
0

>  <PSA>  (534) 
120.08

>  <Standard Type>  (534) 
nan

>  <Standard Relation>  (534) 
nan

>  <Standard Units>  (534) 
nan

>  <Standard Value>  (534) 
nan

>  <Assay ChEMBL ID>  (534) 
nan

>  <Assay Description>  (534) 
nan

>  <BAO Label>  (534) 
nan

$$$$

     RDKit          2D

 36 39  0  0  0  0  0  0  0  0999 V2000
    2.7760    0.0000    0.0000 C   0  0  0  0  0  0  0  0  0  0  0  0
    1.2760    0.0000    0.0000 C   0  0  0  0  0  0  0  0  0  0  0  0
    0.3943    1.2135    0.0000 C   0  0  0  0  0  0  0  0  0  0  0  0
   -1.0323    0.7500    0.0000 C   0  0  0  0  0  0  0  0  0  0  0  0
   -2.2458    1.6317    0.0000 C   0  0  0  0  0  0  0  0  0  0  0  0
   -1.0323   -0.7500    0.0000 N   0  0  0  0  0  0  0  0  0  0  0  0
    0.3943   -1.2135    0.0000 C   0  0  0  0  0  0  0  0  0  0  0  0
    0.8578   -2.6401    0.0000 C   0  0  0  0  0  0  0  0  0  0  0  0
    2.3250   -2.9520    0.0000 N   0  0  0  0  0  0  0  0  0  0  0  0
    2.7886   -4.3786    0.0000 N   0  0  0  0  0  0  0  0  0  0  0  0
    4.2558   -4.6904    0.0000 C   0  0  0  0  0  0  0  0  0  0  0  0
    5.2595   -3.5757    0.0000 S   0  0  0  0  0  0  0  0  0  0  0  0
    4.7193   -6.1170    0.0000 N   0  0  0  0  0  0  0  0  0  0  0  0
    6.1865   -6.4289    0.0000 N   0  0  0  0  0  0  0  0  0  0  0  0
    6.6501   -7.8555    0.0000 C   0  0  0  0  0  0  0  0  0  0  0  0
    8.1173   -8.1673    0.0000 C   0  0  0  0  0  0  0  0  0  0  0  0
    9.2320   -7.1636    0.0000 N   0  0  0  0  0  0  0  0  0  0  0  0
   10.5310   -7.9136    0.0000 C   0  0  0  0  0  0  0  0  0  0  0  0
   11.9014   -7.3035    0.0000 C   0  0  0  0  0  0  0  0  0  0  0  0
   10.2192   -9.3809    0.0000 C   0  0  0  0  0  0  0  0  0  0  0  0
    8.7274   -9.5377    0.0000 C   0  0  0  0  0  0  0  0  0  0  0  0
    7.9774  -10.8367    0.0000 C   0  0  0  0  0  0  0  0  0  0  0  0
    5.6464   -8.9702    0.0000 C   0  0  0  0  0  0  0  0  0  0  0  0
    5.9582  -10.4374    0.0000 N   0  0  0  0  0  0  0  0  0  0  0  0
    4.6592  -11.1874    0.0000 C   0  0  0  0  0  0  0  0  0  0  0  0
    4.5024  -12.6792    0.0000 C   0  0  0  0  0  0  0  0  0  0  0  0
    3.5445  -10.1837    0.0000 C   0  0  0  0  0  0  0  0  0  0  0  0
    4.1546   -8.8134    0.0000 C   0  0  0  0  0  0  0  0  0  0  0  0
    3.4046   -7.5144    0.0000 C   0  0  0  0  0  0  0  0  0  0  0  0
   -0.1459   -3.7548    0.0000 C   0  0  0  0  0  0  0  0  0  0  0  0
    0.1660   -5.2220    0.0000 N   0  0  0  0  0  0  0  0  0  0  0  0
   -1.1330   -5.9720    0.0000 C   0  0  0  0  0  0  0  0  0  0  0  0
   -1.2898   -7.4638    0.0000 C   0  0  0  0  0  0  0  0  0  0  0  0
   -2.2478   -4.9684    0.0000 C   0  0  0  0  0  0  0  0  0  0  0  0
   -1.6377   -3.5980    0.0000 C   0  0  0  0  0  0  0  0  0  0  0  0
   -2.3877   -2.2990    0.0000 C   0  0  0  0  0  0  0  0  0  0  0  0
  1  2  1  0
  2  3  2  0
  3  4  1  0
  4  5  1  0
  4  6  2  0
  6  7  1  0
  7  8  1  1
  8  9  2  0
  9 10  1  0
 10 11  1  0
 11 12  2  0
 11 13  1  0
 13 14  1  0
 14 15  2  0
 16 15  1  1
 16 17  1  0
 17 18  2  0
 18 19  1  0
 18 20  1  0
 20 21  2  0
 21 22  1  0
 23 15  1  1
 23 24  1  0
 24 25  2  0
 25 26  1  0
 25 27  1  0
 27 28  2  0
 28 29  1  0
 30  8  1  1
 30 31  1  0
 31 32  2  0
 32 33  1  0
 32 34  1  0
 34 35  2  0
 35 36  1  0
  7  2  1  0
 21 16  1  0
 28 23  1  0
 35 30  1  0
M  END
>  <Compound_ID>  (535) 
C39568620

>  <Active>  (535) 
0.0

>  <Smiles>  (535) 
CC1=CC(C)=N[C@@H]1C(=NNC(=S)NN=C([C@H]1N=C(C)C=C1C)[C@H]1N=C(C)C=C1C)[C@H]1N=C(C)C=C1C

>  <canonical_smi>  (535) 
CC1=CC(C)=N[C@@H]1C(=NNC(=S)NN=C([C@H]1N=C(C)C=C1C)[C@H]1N=C(C)C=C1C)[C@H]1N=C(C)C=C1C

>  <Set>  (535) 
G2 inactive

>  <Set_type>  (535) 
Train

>  <MW>  (535) 
502.69

>  <HBD>  (535) 
2

>  <HBA>  (535) 
3

>  <NRB>  (535) 
6

>  <NR>  (535) 
4

>  <NAR>  (535) 
0

>  <PSA>  (535) 
98.22

>  <Standard Type>  (535) 
nan

>  <Standard Relation>  (535) 
nan

>  <Standard Units>  (535) 
nan

>  <Standard Value>  (535) 
nan

>  <Assay ChEMBL ID>  (535) 
nan

>  <Assay Description>  (535) 
nan

>  <BAO Label>  (535) 
nan

$$$$

     RDKit          2D

 37 42  0  0  0  0  0  0  0  0999 V2000
   -5.4853   -5.8293    0.0000 C   0  0  0  0  0  0  0  0  0  0  0  0
   -4.6036   -4.6157    0.0000 C   0  0  0  0  0  0  0  0  0  0  0  0
   -3.1036   -4.6157    0.0000 C   0  0  0  0  0  0  0  0  0  0  0  0
   -2.6401   -3.1891    0.0000 C   0  0  0  0  0  0  0  0  0  0  0  0
   -1.2135   -2.7256    0.0000 C   0  0  0  0  0  0  0  0  0  0  0  0
   -0.0000   -3.6073    0.0000 C   0  0  0  0  0  0  0  0  0  0  0  0
    0.0000   -5.1073    0.0000 O   0  0  0  0  0  0  0  0  0  0  0  0
    1.2135   -2.7256    0.0000 N   0  0  0  0  0  0  0  0  0  0  0  0
    0.7500   -1.2990    0.0000 C   0  0  0  0  0  0  0  0  0  0  0  0
    1.5000    0.0000    0.0000 C   0  0  0  0  0  0  0  0  0  0  0  0
    0.7500    1.2990    0.0000 C   0  0  0  0  0  0  0  0  0  0  0  0
   -0.7500    1.2990    0.0000 C   0  0  0  0  0  0  0  0  0  0  0  0
   -1.5000    2.5981    0.0000 C   0  0  0  0  0  0  0  0  0  0  0  0
   -0.7500    3.8971    0.0000 C   0  0  0  0  0  0  0  0  0  0  0  0
   -1.5000    5.1962    0.0000 N   0  0  0  0  0  0  0  0  0  0  0  0
   -3.0000    5.1962    0.0000 C   0  0  0  0  0  0  0  0  0  0  0  0
   -3.7500    3.8971    0.0000 C   0  0  0  0  0  0  0  0  0  0  0  0
   -5.2500    3.8971    0.0000 O   0  0  0  0  0  0  0  0  0  0  0  0
   -6.0000    5.1962    0.0000 C   0  0  0  0  0  0  0  0  0  0  0  0
   -7.5000    5.1962    0.0000 C   0  0  0  0  0  0  0  0  0  0  0  0
   -8.2500    3.8971    0.0000 N   0  0  0  0  0  4  0  0  0  0  0  0
   -8.2500    6.4952    0.0000 C   0  0  0  0  0  0  0  0  0  0  0  0
   -9.7500    6.4952    0.0000 C   0  0  0  0  0  0  0  0  0  0  0  0
  -10.6317    7.7087    0.0000 C   0  0  0  0  0  0  0  0  0  0  0  0
  -10.3198    9.1759    0.0000 C   0  0  0  0  0  0  0  0  0  0  0  0
  -11.4345   10.1796    0.0000 C   0  0  0  0  0  0  0  0  0  0  0  0
  -12.8611    9.7161    0.0000 C   0  0  0  0  0  0  0  0  0  0  0  0
  -13.1730    8.2489    0.0000 C   0  0  0  0  0  0  0  0  0  0  0  0
  -12.0583    7.2452    0.0000 C   0  0  0  0  0  0  0  0  0  0  0  0
  -12.0583    5.7452    0.0000 N   0  0  0  0  0  4  0  0  0  0  0  0
  -10.6317    5.2817    0.0000 C   0  0  0  0  0  0  0  0  0  0  0  0
   -3.0000    2.5981    0.0000 C   0  0  0  0  0  0  0  0  0  0  0  0
   -1.5000    0.0000    0.0000 C   0  0  0  0  0  0  0  0  0  0  0  0
   -0.7500   -1.2990    0.0000 C   0  0  0  0  0  0  0  0  0  0  0  0
   -3.8536   -2.3075    0.0000 O   0  0  0  0  0  0  0  0  0  0  0  0
   -5.0672   -3.1891    0.0000 C   0  0  0  0  0  0  0  0  0  0  0  0
   -6.4937   -2.7256    0.0000 C   0  0  0  0  0  0  0  0  0  0  0  0
  1  2  1  0
  2  3  1  0
  3  4  2  0
  5  4  1  1
  5  6  1  0
  6  7  2  0
  6  8  1  0
  8  9  1  0
  9 10  2  0
 10 11  1  0
 11 12  2  0
 12 13  1  0
 13 14  2  0
 14 15  1  0
 15 16  2  0
 16 17  1  0
 17 18  1  0
 18 19  1  0
 19 20  1  0
 20 21  1  1
 20 22  1  0
 22 23  1  0
 23 24  2  0
 24 25  1  0
 25 26  2  0
 26 27  1  0
 27 28  2  0
 28 29  1  0
 29 30  2  0
 30 31  1  0
 17 32  2  0
 12 33  1  0
 33 34  2  0
  4 35  1  0
 35 36  1  0
 36 37  1  0
 36  2  2  0
 34  5  1  0
 34  9  1  0
 32 13  1  0
 31 23  1  0
 29 24  1  0
M  CHG  2  21   1  30   1
M  END
>  <Compound_ID>  (536) 
C52566261

>  <Active>  (536) 
0.0

>  <Smiles>  (536) 
Cc1cc([C@@H]2C(=O)Nc3ccc(-c4cncc(OC[C@@H]([NH3+])CC5=c6ccccc6=[NH+]C5)c4)cc32)oc1C

>  <canonical_smi>  (536) 
Cc1cc([C@@H]2C(=O)Nc3ccc(-c4cncc(OC[C@@H]([NH3+])CC5=c6ccccc6=[NH+]C5)c4)cc32)oc1C

>  <Set>  (536) 
G2 inactive

>  <Set_type>  (536) 
Train

>  <MW>  (536) 
494.6

>  <HBD>  (536) 
3

>  <HBA>  (536) 
4

>  <NRB>  (536) 
7

>  <NR>  (536) 
6

>  <NAR>  (536) 
4

>  <PSA>  (536) 
105.97

>  <Standard Type>  (536) 
nan

>  <Standard Relation>  (536) 
nan

>  <Standard Units>  (536) 
nan

>  <Standard Value>  (536) 
nan

>  <Assay ChEMBL ID>  (536) 
nan

>  <Assay Description>  (536) 
nan

>  <BAO Label>  (536) 
nan

$$$$

     RDKit          2D

 36 38  0  0  0  0  0  0  0  0999 V2000
  -10.2177   -7.1535    0.0000 C   0  0  0  0  0  0  0  0  0  0  0  0
   -9.0686   -8.1177    0.0000 C   0  0  0  0  0  0  0  0  0  0  0  0
   -7.6591   -7.6046    0.0000 C   0  0  0  0  0  0  0  0  0  0  0  0
   -6.5100   -8.5688    0.0000 C   0  0  0  0  0  0  0  0  0  0  0  0
   -7.3986   -6.1274    0.0000 C   0  0  0  0  0  0  0  0  0  0  0  0
   -8.5477   -5.1632    0.0000 O   0  0  0  0  0  0  0  0  0  0  0  0
   -5.9891   -5.6144    0.0000 O   0  0  0  0  0  0  0  0  0  0  0  0
   -5.7286   -4.1372    0.0000 C   0  0  0  0  0  0  0  0  0  0  0  0
   -6.8777   -3.1730    0.0000 C   0  0  0  0  0  0  0  0  0  0  0  0
   -8.2872   -3.6860    0.0000 O   0  0  0  0  0  0  0  0  0  0  0  0
   -6.6172   -1.6958    0.0000 C   0  0  0  0  0  0  0  0  0  0  0  0
   -7.7663   -0.7316    0.0000 C   0  0  0  0  0  0  0  0  0  0  0  0
   -5.2077   -1.1827    0.0000 O   0  0  0  0  0  0  0  0  0  0  0  0
   -4.0586   -2.1469    0.0000 C   0  0  0  0  0  0  0  0  0  0  0  0
   -2.6491   -1.6339    0.0000 O   0  0  0  0  0  0  0  0  0  0  0  0
   -1.5000   -2.5981    0.0000 C   0  0  0  0  0  0  0  0  0  0  0  0
   -2.6491   -3.5623    0.0000 C   0  0  0  0  0  0  0  0  0  0  0  0
   -0.7500   -3.8971    0.0000 C   0  0  0  0  0  0  0  0  0  0  0  0
    0.7500   -3.8971    0.0000 C   0  0  0  0  0  0  0  0  0  0  0  0
    1.5000   -2.5981    0.0000 C   0  0  0  0  0  0  0  0  0  0  0  0
    3.0000   -2.5981    0.0000 O   0  0  0  0  0  0  0  0  0  0  0  0
    0.7500   -1.2990    0.0000 C   0  0  0  0  0  0  0  0  0  0  0  0
    2.2500   -1.2990    0.0000 C   0  0  0  0  0  0  0  0  0  0  0  0
    1.5000    0.0000    0.0000 C   0  0  0  0  0  0  0  0  0  0  0  0
    0.7500    1.2990    0.0000 C   0  0  0  0  0  0  0  0  0  0  0  0
   -0.7500    1.2990    0.0000 C   0  0  0  0  0  0  0  0  0  0  0  0
   -1.5000    2.5981    0.0000 C   0  0  0  0  0  0  0  0  0  0  0  0
   -0.7500    3.8971    0.0000 C   0  0  0  0  0  0  0  0  0  0  0  0
   -3.0000    2.5981    0.0000 C   0  0  0  0  0  0  0  0  0  0  0  0
   -1.5000    0.0000    0.0000 C   0  0  0  0  0  0  0  0  0  0  0  0
   -0.7500   -1.2990    0.0000 C   0  0  0  0  0  0  0  0  0  0  0  0
   -4.3191   -3.6241    0.0000 C   0  0  0  0  0  0  0  0  0  0  0  0
   -3.1700   -4.5883    0.0000 O   0  0  0  0  0  0  0  0  0  0  0  0
   -3.4305   -6.0655    0.0000 C   0  0  0  0  0  0  0  0  0  0  0  0
   -2.2814   -7.0297    0.0000 C   0  0  0  0  0  0  0  0  0  0  0  0
   -4.8400   -6.5786    0.0000 O   0  0  0  0  0  0  0  0  0  0  0  0
  1  2  1  0
  2  3  2  0
  3  4  1  0
  3  5  1  0
  5  6  2  0
  5  7  1  0
  8  7  1  1
  8  9  1  0
  9 10  1  1
  9 11  1  0
 11 12  1  6
 11 13  1  0
 13 14  1  0
 14 15  1  6
 15 16  1  0
 16 17  1  6
 16 18  1  0
 18 19  1  0
 19 20  1  0
 20 21  1  1
 20 22  1  0
 22 23  1  1
 22 24  1  0
 24 25  1  0
 25 26  2  0
 26 27  1  0
 27 28  1  0
 27 29  1  0
 26 30  1  0
 31 30  1  1
 14 32  1  0
 32 33  1  6
 33 34  1  0
 34 35  1  0
 34 36  2  0
 32  8  1  0
 31 16  1  0
 31 22  1  0
M  END
>  <Compound_ID>  (537) 
C35271293

>  <Active>  (537) 
0.0

>  <Smiles>  (537) 
C/C=C(/C)C(=O)O[C@H]1[C@@H](O)[C@H](C)O[C@H](O[C@]2(C)CC[C@H](O)[C@@]3(C)CC=C(C(C)C)C[C@@H]32)[C@@H]1OC(C)=O

>  <canonical_smi>  (537) 
C/C=C(/C)C(=O)O[C@H]1[C@@H](O)[C@H](C)O[C@H](O[C@]2(C)CC[C@H](O)[C@@]3(C)CC=C(C(C)C)C[C@@H]32)[C@@H]1OC(C)=O

>  <Set>  (537) 
G2 inactive

>  <Set_type>  (537) 
Train

>  <MW>  (537) 
508.65

>  <HBD>  (537) 
2

>  <HBA>  (537) 
8

>  <NRB>  (537) 
6

>  <NR>  (537) 
3

>  <NAR>  (537) 
0

>  <PSA>  (537) 
111.52

>  <Standard Type>  (537) 
nan

>  <Standard Relation>  (537) 
nan

>  <Standard Units>  (537) 
nan

>  <Standard Value>  (537) 
nan

>  <Assay ChEMBL ID>  (537) 
nan

>  <Assay Description>  (537) 
nan

>  <BAO Label>  (537) 
nan

$$$$

     RDKit          2D

 40 43  0  0  0  0  0  0  0  0999 V2000
    9.1740   -7.4303    0.0000 C   0  0  0  0  0  0  0  0  0  0  0  0
    7.8037   -6.8202    0.0000 C   0  0  0  0  0  0  0  0  0  0  0  0
    6.5046   -7.5702    0.0000 C   0  0  0  0  0  0  0  0  0  0  0  0
    5.3899   -6.5665    0.0000 C   0  0  0  0  0  0  0  0  0  0  0  0
    6.0000   -5.1962    0.0000 C   0  0  0  0  0  0  0  0  0  0  0  0
    5.2500   -3.8971    0.0000 C   0  0  0  0  0  0  0  0  0  0  0  0
    3.7500   -3.8971    0.0000 N   0  0  0  0  0  0  0  0  0  0  0  0
    3.0000   -2.5981    0.0000 C   0  0  0  0  0  0  0  0  0  0  0  0
    1.5000   -2.5981    0.0000 O   0  0  0  0  0  0  0  0  0  0  0  0
    3.7500   -1.2990    0.0000 C   0  0  0  0  0  0  0  0  0  0  0  0
    3.0000   -0.0000    0.0000 C   0  0  0  0  0  0  0  0  0  0  0  0
    1.5000   -0.0000    0.0000 C   0  0  0  0  0  0  0  0  0  0  0  0
    0.7500    1.2990    0.0000 C   0  0  0  0  0  0  0  0  0  0  0  0
    1.5000    2.5981    0.0000 C   0  0  0  0  0  0  0  0  0  0  0  0
    3.0000    2.5981    0.0000 C   0  0  0  0  0  0  0  0  0  0  0  0
    3.7500    1.2990    0.0000 C   0  0  0  0  0  0  0  0  0  0  0  0
    5.2500   -1.2990    0.0000 C   0  0  0  0  0  0  0  0  0  0  0  0
    6.0000   -0.0000    0.0000 C   0  0  0  0  0  0  0  0  0  0  0  0
    7.5000   -0.0000    0.0000 C   0  0  0  0  0  0  0  0  0  0  0  0
    8.2500   -1.2990    0.0000 C   0  0  0  0  0  0  0  0  0  0  0  0
    7.5000   -2.5981    0.0000 C   0  0  0  0  0  0  0  0  0  0  0  0
    6.0000   -2.5981    0.0000 C   0  0  0  0  0  0  0  0  0  0  0  0
    3.0000   -5.1962    0.0000 C   0  0  0  0  0  0  0  0  0  0  0  0
    3.7500   -6.4952    0.0000 C   0  0  0  0  0  0  0  0  0  0  0  0
    4.5235   -6.6881    0.0000 O   0  0  0  0  0  0  0  0  0  0  0  0
    3.0000   -7.7942    0.0000 N   0  0  0  0  0  0  0  0  0  0  0  0
    3.7500   -9.0933    0.0000 C   0  0  0  0  0  0  0  0  0  0  0  0
    2.4510   -9.8433    0.0000 C   0  0  0  0  0  0  0  0  0  0  0  0
    5.0490   -8.3433    0.0000 C   0  0  0  0  0  0  0  0  0  0  0  0
    4.5000  -10.3923    0.0000 C   0  0  0  0  0  0  0  0  0  0  0  0
    1.5000   -5.1962    0.0000 C   0  0  0  0  0  0  0  0  0  0  0  0
    0.7500   -3.8971    0.0000 C   0  0  0  0  0  0  0  0  0  0  0  0
   -0.7500   -3.8971    0.0000 C   0  0  0  0  0  0  0  0  0  0  0  0
   -1.5000   -5.1962    0.0000 C   0  0  0  0  0  0  0  0  0  0  0  0
   -3.0000   -5.1962    0.0000 N   0  0  0  0  0  0  0  0  0  0  0  0
   -3.7500   -3.8971    0.0000 C   0  0  0  0  0  0  0  0  0  0  0  0
   -3.7500   -6.4952    0.0000 C   0  0  0  0  0  0  0  0  0  0  0  0
   -0.7500   -6.4952    0.0000 C   0  0  0  0  0  0  0  0  0  0  0  0
    0.7500   -6.4952    0.0000 C   0  0  0  0  0  0  0  0  0  0  0  0
    7.4918   -5.3529    0.0000 O   0  0  0  0  0  0  0  0  0  0  0  0
  1  2  1  0
  2  3  2  0
  3  4  1  0
  4  5  2  0
  5  6  1  0
  6  7  1  0
  7  8  1  0
  8  9  2  0
  8 10  1  0
 10 11  1  0
 11 12  2  0
 12 13  1  0
 13 14  2  0
 14 15  1  0
 15 16  2  0
 10 17  1  0
 17 18  2  0
 18 19  1  0
 19 20  2  0
 20 21  1  0
 21 22  2  0
 23  7  1  1
 23 24  1  0
 24 25  2  0
 24 26  1  0
 26 27  1  0
 27 28  1  0
 27 29  1  0
 27 30  1  0
 23 31  1  0
 31 32  2  0
 32 33  1  0
 33 34  2  0
 34 35  1  0
 35 36  1  0
 35 37  1  0
 34 38  1  0
 38 39  2  0
  5 40  1  0
 40  2  1  0
 16 11  1  0
 22 17  1  0
 39 31  1  0
M  END
>  <Compound_ID>  (538) 
C36600283

>  <Active>  (538) 
0.0

>  <Smiles>  (538) 
Cc1ccc(CN(C(=O)C(c2ccccc2)c2ccccc2)[C@@H](C(=O)NC(C)(C)C)c2ccc(N(C)C)cc2)o1

>  <canonical_smi>  (538) 
Cc1ccc(CN(C(=O)C(c2ccccc2)c2ccccc2)[C@@H](C(=O)NC(C)(C)C)c2ccc(N(C)C)cc2)o1

>  <Set>  (538) 
G2 inactive

>  <Set_type>  (538) 
Train

>  <MW>  (538) 
537.7

>  <HBD>  (538) 
1

>  <HBA>  (538) 
4

>  <NRB>  (538) 
9

>  <NR>  (538) 
4

>  <NAR>  (538) 
4

>  <PSA>  (538) 
65.79

>  <Standard Type>  (538) 
nan

>  <Standard Relation>  (538) 
nan

>  <Standard Units>  (538) 
nan

>  <Standard Value>  (538) 
nan

>  <Assay ChEMBL ID>  (538) 
nan

>  <Assay Description>  (538) 
nan

>  <BAO Label>  (538) 
nan

$$$$

     RDKit          2D

 32 35  0  0  0  0  0  0  0  0999 V2000
    4.1917    3.8668    0.0000 C   0  0  0  0  0  0  0  0  0  0  0  0
    2.9781    2.9851    0.0000 C   0  0  0  0  0  0  0  0  0  0  0  0
    1.6078    3.5952    0.0000 C   0  0  0  0  0  0  0  0  0  0  0  0
    0.3943    2.7135    0.0000 N   0  0  0  0  0  0  0  0  0  0  0  0
    0.3943    1.2135    0.0000 C   0  0  0  0  0  0  0  0  0  0  0  0
    1.2760    0.0000    0.0000 O   0  0  0  0  0  0  0  0  0  0  0  0
    0.3943   -1.2135    0.0000 C   0  0  0  0  0  0  0  0  0  0  0  0
    0.8578   -2.6401    0.0000 C   0  0  0  0  0  0  0  0  0  0  0  0
    2.2844   -3.1036    0.0000 O   0  0  0  0  0  0  0  0  0  0  0  0
    2.2844   -4.6036    0.0000 C   0  0  0  0  0  0  0  0  0  0  0  0
    0.8578   -5.0672    0.0000 C   0  0  0  0  0  0  0  0  0  0  0  0
   -0.0239   -3.8536    0.0000 O   0  0  0  0  0  0  0  0  0  0  0  0
    0.8578   -6.5672    0.0000 N   0  0  0  0  0  0  0  0  0  0  0  0
   -0.3557   -7.4488    0.0000 C   0  0  0  0  0  0  0  0  0  0  0  0
   -1.7260   -6.8387    0.0000 C   0  0  0  0  0  0  0  0  0  0  0  0
   -2.9395   -7.7204    0.0000 C   0  0  0  0  0  0  0  0  0  0  0  0
    2.2844   -7.0307    0.0000 S   0  0  0  0  0  0  0  0  0  0  0  0
    1.6743   -8.4010    0.0000 O   0  0  0  0  0  0  0  0  0  0  0  0
    3.5834   -7.7807    0.0000 O   0  0  0  0  0  0  0  0  0  0  0  0
    3.1661   -5.8172    0.0000 N   0  0  0  0  0  0  0  0  0  0  0  0
    4.6661   -5.8172    0.0000 C   0  0  0  0  0  0  0  0  0  0  0  0
    5.4161   -4.5181    0.0000 C   0  0  0  0  0  0  0  0  0  0  0  0
    6.9161   -4.5181    0.0000 C   0  0  0  0  0  0  0  0  0  0  0  0
   -1.0323   -0.7500    0.0000 O   0  0  0  0  0  0  0  0  0  0  0  0
   -1.0323    0.7500    0.0000 C   0  0  0  0  0  0  0  0  0  0  0  0
   -1.9140    1.9635    0.0000 N   0  0  0  0  0  0  0  0  0  0  0  0
   -3.4140    1.9635    0.0000 C   0  0  0  0  0  0  0  0  0  0  0  0
   -4.1640    3.2626    0.0000 C   0  0  0  0  0  0  0  0  0  0  0  0
   -5.6640    3.2626    0.0000 C   0  0  0  0  0  0  0  0  0  0  0  0
   -1.0323    3.1771    0.0000 S   0  0  0  0  0  0  0  0  0  0  0  0
   -0.4222    4.5474    0.0000 O   0  0  0  0  0  0  0  0  0  0  0  0
   -2.3313    3.9271    0.0000 O   0  0  0  0  0  0  0  0  0  0  0  0
  1  2  1  0
  2  3  1  0
  3  4  1  0
  4  5  1  0
  5  6  1  6
  6  7  1  0
  7  8  1  0
  8  9  1  0
 10  9  1  6
 10 11  1  0
 11 12  1  1
 11 13  1  0
 13 14  1  0
 14 15  1  0
 15 16  1  0
 13 17  1  0
 17 18  2  0
 17 19  2  0
 17 20  1  0
 20 21  1  0
 21 22  1  0
 22 23  1  0
  7 24  1  0
 25 24  1  1
 25 26  1  0
 26 27  1  0
 27 28  1  0
 28 29  1  0
 26 30  1  0
 30 31  2  0
 30 32  2  0
 30  4  1  0
 25  5  1  0
 12  8  1  0
 20 10  1  0
M  END
>  <Compound_ID>  (539) 
C18080467

>  <Active>  (539) 
0.0

>  <Smiles>  (539) 
CCCN1[C@@H]2OC(C3O[C@H]4[C@H](O3)N(CCC)S(=O)(=O)N4CCC)O[C@H]2N(CCC)S1(=O)=O

>  <canonical_smi>  (539) 
CCCN1[C@H]2OC(C3O[C@@H]4[C@@H](O3)N(CCC)S(=O)(=O)N4CCC)O[C@@H]2N(CCC)S1(=O)=O

>  <Set>  (539) 
G2 inactive

>  <Set_type>  (539) 
Train

>  <MW>  (539) 
498.62

>  <HBD>  (539) 
0

>  <HBA>  (539) 
8

>  <NRB>  (539) 
9

>  <NR>  (539) 
4

>  <NAR>  (539) 
0

>  <PSA>  (539) 
118.16

>  <Standard Type>  (539) 
nan

>  <Standard Relation>  (539) 
nan

>  <Standard Units>  (539) 
nan

>  <Standard Value>  (539) 
nan

>  <Assay ChEMBL ID>  (539) 
nan

>  <Assay Description>  (539) 
nan

>  <BAO Label>  (539) 
nan

$$$$

     RDKit          2D

 34 36  0  0  0  0  0  0  0  0999 V2000
   10.5000   -5.1962    0.0000 C   0  0  0  0  0  0  0  0  0  0  0  0
    9.0000   -5.1962    0.0000 C   0  0  0  0  0  0  0  0  0  0  0  0
    8.2500   -3.8971    0.0000 C   0  0  0  0  0  0  0  0  0  0  0  0
    6.7500   -3.8971    0.0000 C   0  0  0  0  0  0  0  0  0  0  0  0
    6.0000   -2.5981    0.0000 N   0  0  0  0  0  0  0  0  0  0  0  0
    6.7500   -1.2990    0.0000 C   0  0  0  0  0  0  0  0  0  0  0  0
    4.5000   -2.5981    0.0000 C   0  0  0  0  0  0  0  0  0  0  0  0
    3.7500   -1.2990    0.0000 O   0  0  0  0  0  0  0  0  0  0  0  0
    3.7500   -3.8971    0.0000 C   0  0  0  0  0  0  0  0  0  0  0  0
    4.5000   -5.1962    0.0000 C   0  0  0  0  0  0  0  0  0  0  0  0
    3.7500   -6.4952    0.0000 C   0  0  0  0  0  0  0  0  0  0  0  0
    4.5000   -7.7942    0.0000 C   0  0  0  0  0  0  0  0  0  0  0  0
    3.7500   -9.0933    0.0000 C   0  0  0  0  0  0  0  0  0  0  0  0
    2.2500   -9.0933    0.0000 C   0  0  0  0  0  0  0  0  0  0  0  0
    1.5000   -7.7942    0.0000 C   0  0  0  0  0  0  0  0  0  0  0  0
    2.2500   -6.4952    0.0000 C   0  0  0  0  0  0  0  0  0  0  0  0
    2.2500   -3.8971    0.0000 N   0  0  0  0  0  0  0  0  0  0  0  0
    1.5000   -2.5981    0.0000 S   0  0  0  0  0  0  0  0  0  0  0  0
    0.2010   -3.3481    0.0000 O   0  0  0  0  0  0  0  0  0  0  0  0
    2.7990   -1.8481    0.0000 O   0  0  0  0  0  0  0  0  0  0  0  0
    0.7500   -1.2990    0.0000 C   0  0  0  0  0  0  0  0  0  0  0  0
    1.5000    0.0000    0.0000 C   0  0  0  0  0  0  0  0  0  0  0  0
    0.7500    1.2990    0.0000 C   0  0  0  0  0  0  0  0  0  0  0  0
   -0.7500    1.2990    0.0000 C   0  0  0  0  0  0  0  0  0  0  0  0
   -1.5000    0.0000    0.0000 C   0  0  0  0  0  0  0  0  0  0  0  0
   -0.7500   -1.2990    0.0000 C   0  0  0  0  0  0  0  0  0  0  0  0
   -3.0000    0.0000    0.0000 C   0  0  0  0  0  0  0  0  0  0  0  0
   -3.7500   -1.2990    0.0000 O   0  0  0  0  0  0  0  0  0  0  0  0
   -3.7500    1.2990    0.0000 N   0  0  0  0  0  0  0  0  0  0  0  0
   -5.2500    1.2990    0.0000 C   0  0  0  0  0  0  0  0  0  0  0  0
   -3.0000    2.5981    0.0000 C   0  0  0  0  0  0  0  0  0  0  0  0
   -3.7500    3.8971    0.0000 O   0  0  0  0  0  0  0  0  0  0  0  0
   -1.5000    2.5981    0.0000 N   0  0  0  0  0  0  0  0  0  0  0  0
   -0.7500    3.8971    0.0000 C   0  0  0  0  0  0  0  0  0  0  0  0
  1  2  1  0
  2  3  1  0
  3  4  1  0
  4  5  1  0
  5  6  1  0
  5  7  1  0
  7  8  2  0
  7  9  1  0
  9 10  1  6
 10 11  1  0
 11 12  2  0
 12 13  1  0
 13 14  2  0
 14 15  1  0
 15 16  2  0
  9 17  1  0
 17 18  1  0
 18 19  2  0
 18 20  2  0
 18 21  1  0
 21 22  2  0
 22 23  1  0
 23 24  2  0
 24 25  1  0
 25 26  2  0
 25 27  1  0
 27 28  2  0
 27 29  1  0
 29 30  1  0
 29 31  1  0
 31 32  2  0
 31 33  1  0
 33 34  1  0
 16 11  1  0
 26 21  1  0
 33 24  1  0
M  END
>  <Compound_ID>  (540) 
C08599482

>  <Active>  (540) 
0.0

>  <Smiles>  (540) 
CCCCN(C)C(=O)[C@H](Cc1ccccc1)NS(=O)(=O)c1ccc2c(c1)c(=O)n(C)c(=O)n2C

>  <canonical_smi>  (540) 
CCCCN(C)C(=O)[C@H](Cc1ccccc1)NS(=O)(=O)c1ccc2c(c1)c(=O)n(C)c(=O)n2C

>  <Set>  (540) 
G2 inactive

>  <Set_type>  (540) 
Train

>  <MW>  (540) 
486.59

>  <HBD>  (540) 
1

>  <HBA>  (540) 
5

>  <NRB>  (540) 
9

>  <NR>  (540) 
3

>  <NAR>  (540) 
3

>  <PSA>  (540) 
110.48

>  <Standard Type>  (540) 
nan

>  <Standard Relation>  (540) 
nan

>  <Standard Units>  (540) 
nan

>  <Standard Value>  (540) 
nan

>  <Assay ChEMBL ID>  (540) 
nan

>  <Assay Description>  (540) 
nan

>  <BAO Label>  (540) 
nan

$$$$

     RDKit          2D

 34 36  0  0  0  0  0  0  0  0999 V2000
    0.7500   -6.4952    0.0000 C   0  0  0  0  0  0  0  0  0  0  0  0
    1.5000   -5.1962    0.0000 C   0  0  0  0  0  0  0  0  0  0  0  0
    0.7500   -3.8971    0.0000 N   0  0  0  0  0  0  0  0  0  0  0  0
   -0.7500   -3.8971    0.0000 C   0  0  0  0  0  0  0  0  0  0  0  0
   -1.5000   -5.1962    0.0000 C   0  0  0  0  0  0  0  0  0  0  0  0
   -0.7500   -6.4952    0.0000 O   0  0  0  0  0  0  0  0  0  0  0  0
   -3.0000   -5.1962    0.0000 N   0  0  0  0  0  0  0  0  0  0  0  0
   -3.7500   -6.4952    0.0000 C   0  0  0  0  0  0  0  0  0  0  0  0
   -5.2500   -6.4952    0.0000 C   0  0  0  0  0  0  0  0  0  0  0  0
   -6.0000   -5.1962    0.0000 F   0  0  0  0  0  0  0  0  0  0  0  0
   -6.0000   -7.7942    0.0000 C   0  0  0  0  0  0  0  0  0  0  0  0
   -5.2500   -9.0933    0.0000 C   0  0  0  0  0  0  0  0  0  0  0  0
   -3.7500   -9.0933    0.0000 C   0  0  0  0  0  0  0  0  0  0  0  0
   -3.0000   -7.7942    0.0000 C   0  0  0  0  0  0  0  0  0  0  0  0
   -1.5000   -7.7942    0.0000 F   0  0  0  0  0  0  0  0  0  0  0  0
    1.5000   -2.5981    0.0000 C   0  0  0  0  0  0  0  0  0  0  0  0
    0.7500   -1.2990    0.0000 C   0  0  0  0  0  0  0  0  0  0  0  0
    1.5000    0.0000    0.0000 N   0  0  0  0  0  0  0  0  0  0  0  0
    0.7500    1.2990    0.0000 C   0  0  0  0  0  0  0  0  0  0  0  0
    1.5000    2.5981    0.0000 O   0  0  0  0  0  0  0  0  0  0  0  0
   -0.7500    1.2990    0.0000 C   0  0  0  0  0  0  0  0  0  0  0  0
   -1.7537    2.4138    0.0000 C   0  0  0  0  0  0  0  0  0  0  0  0
   -1.4418    3.8810    0.0000 C   0  0  0  0  0  0  0  0  0  0  0  0
   -3.1240    1.8037    0.0000 C   0  0  0  0  0  0  0  0  0  0  0  0
   -4.4231    2.5537    0.0000 C   0  0  0  0  0  0  0  0  0  0  0  0
   -4.4231    4.0537    0.0000 O   0  0  0  0  0  0  0  0  0  0  0  0
   -5.7221    1.8037    0.0000 O   0  0  0  0  0  0  0  0  0  0  0  0
   -7.0211    2.5537    0.0000 C   0  0  0  0  0  0  0  0  0  0  0  0
   -8.3202    1.8037    0.0000 C   0  0  0  0  0  0  0  0  0  0  0  0
   -9.6192    2.5537    0.0000 O   0  0  0  0  0  0  0  0  0  0  0  0
  -10.9182    1.8037    0.0000 C   0  0  0  0  0  0  0  0  0  0  0  0
   -2.9672    0.3119    0.0000 S   0  0  0  0  0  0  0  0  0  0  0  0
   -1.5000    0.0000    0.0000 C   0  0  0  0  0  0  0  0  0  0  0  0
   -0.7500   -1.2990    0.0000 N   0  0  0  0  0  0  0  0  0  0  0  0
  1  2  1  0
  2  3  1  0
  3  4  1  0
  4  5  1  0
  5  6  2  0
  5  7  1  0
  7  8  1  0
  8  9  2  0
  9 10  1  0
  9 11  1  0
 11 12  2  0
 12 13  1  0
 13 14  2  0
 14 15  1  0
  3 16  1  0
 16 17  1  0
 17 18  2  0
 18 19  1  0
 19 20  2  0
 19 21  1  0
 21 22  2  0
 22 23  1  0
 22 24  1  0
 24 25  1  1
 25 26  2  0
 25 27  1  0
 27 28  1  0
 28 29  1  0
 29 30  1  0
 30 31  1  0
 24 32  1  0
 32 33  1  0
 33 34  2  0
 14  8  1  0
 34 17  1  0
 33 21  1  0
M  END
>  <Compound_ID>  (541) 
C39941000

>  <Active>  (541) 
0.0

>  <Smiles>  (541) 
CCN(CC(=O)Nc1c(F)cccc1F)CC1=NC(=O)C2=C(C)[C@H](C(=O)OCCOC)SC2=N1

>  <canonical_smi>  (541) 
CCN(CC(=O)Nc1c(F)cccc1F)CC1=NC(=O)C2=C(C)[C@H](C(=O)OCCOC)SC2=N1

>  <Set>  (541) 
G2 inactive

>  <Set_type>  (541) 
Train

>  <MW>  (541) 
494.52

>  <HBD>  (541) 
1

>  <HBA>  (541) 
7

>  <NRB>  (541) 
10

>  <NR>  (541) 
3

>  <NAR>  (541) 
1

>  <PSA>  (541) 
109.66

>  <Standard Type>  (541) 
nan

>  <Standard Relation>  (541) 
nan

>  <Standard Units>  (541) 
nan

>  <Standard Value>  (541) 
nan

>  <Assay ChEMBL ID>  (541) 
nan

>  <Assay Description>  (541) 
nan

>  <BAO Label>  (541) 
nan

$$$$

     RDKit          2D

 29 32  0  0  0  0  0  0  0  0999 V2000
    4.9320   -1.5439    0.0000 C   0  0  0  0  0  0  0  0  0  0  0  0
    3.8173   -0.5402    0.0000 O   0  0  0  0  0  0  0  0  0  0  0  0
    2.3907   -1.0037    0.0000 C   0  0  0  0  0  0  0  0  0  0  0  0
    2.0788   -2.4709    0.0000 O   0  0  0  0  0  0  0  0  0  0  0  0
    1.2760    0.0000    0.0000 C   0  0  0  0  0  0  0  0  0  0  0  0
    2.3907    1.0037    0.0000 C   0  0  0  0  0  0  0  0  0  0  0  0
    0.3943    1.2135    0.0000 N   0  0  0  0  0  0  0  0  0  0  0  0
   -1.0323    0.7500    0.0000 C   0  0  0  0  0  0  0  0  0  0  0  0
   -2.2458    1.6317    0.0000 C   0  0  0  0  0  0  0  0  0  0  0  0
   -2.0890    3.1235    0.0000 C   0  0  0  0  0  0  0  0  0  0  0  0
   -3.3025    4.0051    0.0000 C   0  0  0  0  0  0  0  0  0  0  0  0
   -4.6729    3.3950    0.0000 C   0  0  0  0  0  0  0  0  0  0  0  0
   -5.8864    4.2767    0.0000 C   0  0  0  0  0  0  0  0  0  0  0  0
   -4.8297    1.9033    0.0000 C   0  0  0  0  0  0  0  0  0  0  0  0
   -3.6161    1.0216    0.0000 C   0  0  0  0  0  0  0  0  0  0  0  0
   -1.0323   -0.7500    0.0000 C   0  0  0  0  0  0  0  0  0  0  0  0
   -1.9140   -1.9635    0.0000 C   0  0  0  0  0  0  0  0  0  0  0  0
   -3.4140   -1.9635    0.0000 O   0  0  0  0  0  0  0  0  0  0  0  0
   -1.0323   -3.1771    0.0000 N   0  0  0  0  0  0  0  0  0  0  0  0
   -1.4958   -4.6036    0.0000 C   0  0  0  0  0  0  0  0  0  0  0  0
   -2.9630   -4.9155    0.0000 C   0  0  0  0  0  0  0  0  0  0  0  0
   -3.4266   -6.3421    0.0000 C   0  0  0  0  0  0  0  0  0  0  0  0
   -2.4229   -7.4568    0.0000 C   0  0  0  0  0  0  0  0  0  0  0  0
   -2.8864   -8.8834    0.0000 F   0  0  0  0  0  0  0  0  0  0  0  0
   -0.9556   -7.1449    0.0000 C   0  0  0  0  0  0  0  0  0  0  0  0
   -0.4921   -5.7184    0.0000 C   0  0  0  0  0  0  0  0  0  0  0  0
    0.3943   -2.7135    0.0000 C   0  0  0  0  0  0  0  0  0  0  0  0
    1.6078   -3.5952    0.0000 O   0  0  0  0  0  0  0  0  0  0  0  0
    0.3943   -1.2135    0.0000 C   0  0  0  0  0  0  0  0  0  0  0  0
  1  2  1  0
  2  3  1  0
  3  4  2  0
  3  5  1  0
  5  6  1  1
  5  7  1  0
  7  8  1  0
  8  9  1  1
  9 10  2  0
 10 11  1  0
 11 12  2  0
 12 13  1  0
 12 14  1  0
 14 15  2  0
  8 16  1  0
 16 17  1  6
 17 18  2  0
 17 19  1  0
 19 20  1  0
 20 21  2  0
 21 22  1  0
 22 23  2  0
 23 24  1  0
 23 25  1  0
 25 26  2  0
 19 27  1  0
 27 28  2  0
 29 27  1  1
 29  5  1  0
 15  9  1  0
 29 16  1  0
 26 20  1  0
M  END
>  <Compound_ID>  (542) 
C19209100

>  <Active>  (542) 
0.0

>  <Smiles>  (542) 
COC(=O)[C@@]1(C)N[C@H](c2ccc(C)cc2)[C@H]2C(=O)N(c3ccc(F)cc3)C(=O)[C@@H]21

>  <canonical_smi>  (542) 
COC(=O)[C@@]1(C)N[C@H](c2ccc(C)cc2)[C@H]2C(=O)N(c3ccc(F)cc3)C(=O)[C@@H]21

>  <Set>  (542) 
G2 inactive

>  <Set_type>  (542) 
Train

>  <MW>  (542) 
396.42

>  <HBD>  (542) 
1

>  <HBA>  (542) 
5

>  <NRB>  (542) 
3

>  <NR>  (542) 
4

>  <NAR>  (542) 
2

>  <PSA>  (542) 
75.71

>  <Standard Type>  (542) 
nan

>  <Standard Relation>  (542) 
nan

>  <Standard Units>  (542) 
nan

>  <Standard Value>  (542) 
nan

>  <Assay ChEMBL ID>  (542) 
nan

>  <Assay Description>  (542) 
nan

>  <BAO Label>  (542) 
nan

$$$$

     RDKit          2D

 27 30  0  0  0  0  0  0  0  0999 V2000
    3.7500    1.2990    0.0000 C   0  0  0  0  0  0  0  0  0  0  0  0
    3.0000   -0.0000    0.0000 C   0  0  0  0  0  0  0  0  0  0  0  0
    3.7500   -1.2990    0.0000 C   0  0  0  0  0  0  0  0  0  0  0  0
    3.0000   -2.5981    0.0000 O   0  0  0  0  0  0  0  0  0  0  0  0
    3.7500   -3.8971    0.0000 C   0  0  0  0  0  0  0  0  0  0  0  0
    5.2500   -3.8971    0.0000 C   0  0  0  0  0  0  0  0  0  0  0  0
    6.0000   -5.1962    0.0000 C   0  0  0  0  0  0  0  0  0  0  0  0
    5.2500   -6.4952    0.0000 C   0  0  0  0  0  0  0  0  0  0  0  0
    3.7500   -6.4952    0.0000 C   0  0  0  0  0  0  0  0  0  0  0  0
    3.0000   -5.1962    0.0000 C   0  0  0  0  0  0  0  0  0  0  0  0
    1.5000   -5.1962    0.0000 C   0  0  0  0  0  0  0  0  0  0  0  0
    0.7500   -3.8971    0.0000 N   0  0  0  0  0  0  0  0  0  0  0  0
    1.5000   -2.5981    0.0000 N   0  0  0  0  0  0  0  0  0  0  0  0
    0.7500   -1.2990    0.0000 C   0  0  0  0  0  0  0  0  0  0  0  0
    1.5000    0.0000    0.0000 N   0  0  0  0  0  0  0  0  0  0  0  0
    0.7500    1.2990    0.0000 N   0  0  0  0  0  0  0  0  0  0  0  0
   -0.7500    1.2990    0.0000 C   0  0  0  0  0  0  0  0  0  0  0  0
   -1.5000    0.0000    0.0000 C   0  0  0  0  0  0  0  0  0  0  0  0
   -0.7500   -1.2990    0.0000 N   0  0  0  0  0  0  0  0  0  0  0  0
   -2.9672    0.3119    0.0000 N   0  0  0  0  0  0  0  0  0  0  0  0
   -3.1240    1.8037    0.0000 C   0  0  0  0  0  0  0  0  0  0  0  0
   -4.3375    2.6853    0.0000 C   0  0  0  0  0  0  0  0  0  0  0  0
   -5.7079    2.0752    0.0000 C   0  0  0  0  0  0  0  0  0  0  0  0
   -4.1807    4.1771    0.0000 C   0  0  0  0  0  0  0  0  0  0  0  0
   -2.8104    4.7872    0.0000 C   0  0  0  0  0  0  0  0  0  0  0  0
   -1.5969    3.9055    0.0000 C   0  0  0  0  0  0  0  0  0  0  0  0
   -1.7537    2.4138    0.0000 C   0  0  0  0  0  0  0  0  0  0  0  0
  1  2  1  0
  2  3  1  0
  3  4  1  0
  4  5  1  0
  5  6  2  0
  6  7  1  0
  7  8  2  0
  8  9  1  0
  9 10  2  0
 10 11  1  0
 11 12  2  0
 12 13  1  0
 13 14  1  0
 14 15  2  0
 15 16  1  0
 16 17  2  0
 17 18  1  0
 18 19  2  0
 18 20  1  0
 20 21  1  0
 21 22  2  0
 22 23  1  0
 22 24  1  0
 24 25  2  0
 25 26  1  0
 26 27  2  0
 10  5  1  0
 19 14  1  0
 27 21  1  0
 27 17  1  0
M  END
>  <Compound_ID>  (543) 
C33154929

>  <Active>  (543) 
0.0

>  <Smiles>  (543) 
CCCOc1ccccc1/C=N\Nc1nnc2c(n1)[nH]c1c(C)cccc12

>  <canonical_smi>  (543) 
CCCOc1ccccc1/C=N\Nc1nnc2c(n1)[nH]c1c(C)cccc12

>  <Set>  (543) 
G2 inactive

>  <Set_type>  (543) 
Train

>  <MW>  (543) 
360.42

>  <HBD>  (543) 
2

>  <HBA>  (543) 
5

>  <NRB>  (543) 
6

>  <NR>  (543) 
4

>  <NAR>  (543) 
4

>  <PSA>  (543) 
88.08

>  <Standard Type>  (543) 
nan

>  <Standard Relation>  (543) 
nan

>  <Standard Units>  (543) 
nan

>  <Standard Value>  (543) 
nan

>  <Assay ChEMBL ID>  (543) 
nan

>  <Assay Description>  (543) 
nan

>  <BAO Label>  (543) 
nan

$$$$

     RDKit          2D

 21 22  0  0  0  0  0  0  0  0999 V2000
   -4.1038  -13.3796    0.0000 C   0  0  0  0  0  0  0  0  0  0  0  0
   -2.7335  -12.7695    0.0000 C   0  0  0  0  0  0  0  0  0  0  0  0
   -2.5767  -11.2778    0.0000 C   0  0  0  0  0  0  0  0  0  0  0  0
   -1.2064  -10.6676    0.0000 C   0  0  0  0  0  0  0  0  0  0  0  0
   -1.0496   -9.1759    0.0000 O   0  0  0  0  0  0  0  0  0  0  0  0
    0.3207   -8.5658    0.0000 C   0  0  0  0  0  0  0  0  0  0  0  0
    1.5342   -9.4474    0.0000 O   0  0  0  0  0  0  0  0  0  0  0  0
    0.4775   -7.0740    0.0000 C   0  0  0  0  0  0  0  0  0  0  0  0
    1.8478   -6.4639    0.0000 S   0  0  0  0  0  0  0  0  0  0  0  0
    2.0046   -4.9721    0.0000 C   0  0  0  0  0  0  0  0  0  0  0  0
    3.3037   -4.2221    0.0000 N   0  0  0  0  0  0  0  0  0  0  0  0
    2.9918   -2.7549    0.0000 N   0  0  0  0  0  0  0  0  0  0  0  0
    1.5000   -2.5981    0.0000 C   0  0  0  0  0  0  0  0  0  0  0  0
    0.7500   -1.2990    0.0000 C   0  0  0  0  0  0  0  0  0  0  0  0
    1.5000    0.0000    0.0000 C   0  0  0  0  0  0  0  0  0  0  0  0
    0.7500    1.2990    0.0000 C   0  0  0  0  0  0  0  0  0  0  0  0
   -0.7500    1.2990    0.0000 C   0  0  0  0  0  0  0  0  0  0  0  0
   -1.5000    2.5981    0.0000 Br  0  0  0  0  0  0  0  0  0  0  0  0
   -1.5000    0.0000    0.0000 C   0  0  0  0  0  0  0  0  0  0  0  0
   -0.7500   -1.2990    0.0000 C   0  0  0  0  0  0  0  0  0  0  0  0
    0.8899   -3.9684    0.0000 O   0  0  0  0  0  0  0  0  0  0  0  0
  1  2  1  0
  2  3  1  0
  3  4  1  0
  4  5  1  0
  5  6  1  0
  6  7  2  0
  6  8  1  0
  8  9  1  0
  9 10  1  0
 10 11  2  0
 11 12  1  0
 12 13  2  0
 13 14  1  0
 14 15  2  0
 15 16  1  0
 16 17  2  0
 17 18  1  0
 17 19  1  0
 19 20  2  0
 13 21  1  0
 21 10  1  0
 20 14  1  0
M  END
>  <Compound_ID>  (544) 
C02061130

>  <Active>  (544) 
0.0

>  <Smiles>  (544) 
CCCCOC(=O)CSc1nnc(-c2ccc(Br)cc2)o1

>  <canonical_smi>  (544) 
CCCCOC(=O)CSc1nnc(-c2ccc(Br)cc2)o1

>  <Set>  (544) 
G2 inactive

>  <Set_type>  (544) 
Train

>  <MW>  (544) 
371.26

>  <HBD>  (544) 
0

>  <HBA>  (544) 
6

>  <NRB>  (544) 
7

>  <NR>  (544) 
2

>  <NAR>  (544) 
2

>  <PSA>  (544) 
65.22

>  <Standard Type>  (544) 
nan

>  <Standard Relation>  (544) 
nan

>  <Standard Units>  (544) 
nan

>  <Standard Value>  (544) 
nan

>  <Assay ChEMBL ID>  (544) 
nan

>  <Assay Description>  (544) 
nan

>  <BAO Label>  (544) 
nan

$$$$

     RDKit          2D

 37 40  0  0  0  0  0  0  0  0999 V2000
    5.7888    1.6004    0.0000 C   0  0  0  0  0  0  0  0  0  0  0  0
    4.6741    2.6041    0.0000 C   0  0  0  0  0  0  0  0  0  0  0  0
    3.2475    2.1406    0.0000 O   0  0  0  0  0  0  0  0  0  0  0  0
    2.1328    3.1443    0.0000 C   0  0  0  0  0  0  0  0  0  0  0  0
    2.4446    4.6115    0.0000 O   0  0  0  0  0  0  0  0  0  0  0  0
    0.7062    2.6807    0.0000 C   0  0  0  0  0  0  0  0  0  0  0  0
    0.3943    1.2135    0.0000 C   0  0  0  0  0  0  0  0  0  0  0  0
    1.2760    0.0000    0.0000 S   0  0  0  0  0  0  0  0  0  0  0  0
    0.3943   -1.2135    0.0000 C   0  0  0  0  0  0  0  0  0  0  0  0
    0.8578   -2.6401    0.0000 C   0  0  0  0  0  0  0  0  0  0  0  0
    2.3250   -2.9520    0.0000 C   0  0  0  0  0  0  0  0  0  0  0  0
    2.7886   -4.3786    0.0000 C   0  0  0  0  0  0  0  0  0  0  0  0
    4.2558   -4.6904    0.0000 C   0  0  0  0  0  0  0  0  0  0  0  0
    5.2595   -3.5757    0.0000 C   0  0  0  0  0  0  0  0  0  0  0  0
    6.7267   -3.8876    0.0000 N   0  0  0  0  0  0  0  0  0  0  0  0
    7.1902   -5.3142    0.0000 C   0  0  0  0  0  0  0  0  0  0  0  0
    7.7304   -2.7729    0.0000 C   0  0  0  0  0  0  0  0  0  0  0  0
    4.7960   -2.1491    0.0000 C   0  0  0  0  0  0  0  0  0  0  0  0
    3.3287   -1.8373    0.0000 C   0  0  0  0  0  0  0  0  0  0  0  0
   -1.0323   -0.7500    0.0000 C   0  0  0  0  0  0  0  0  0  0  0  0
   -2.2458   -1.6317    0.0000 O   0  0  0  0  0  0  0  0  0  0  0  0
   -1.0323    0.7500    0.0000 N   0  0  0  0  0  0  0  0  0  0  0  0
   -2.1470    1.7537    0.0000 C   0  0  0  0  0  0  0  0  0  0  0  0
   -3.5736    1.2902    0.0000 N   0  0  0  0  0  0  0  0  0  0  0  0
   -1.8351    3.2209    0.0000 C   0  0  0  0  0  0  0  0  0  0  0  0
   -2.9499    4.2246    0.0000 C   0  0  0  0  0  0  0  0  0  0  0  0
   -4.0646    5.2283    0.0000 N   0  0  0  0  0  0  0  0  0  0  0  0
   -0.4086    3.6844    0.0000 C   0  0  0  0  0  0  0  0  0  0  0  0
   -0.0967    5.1517    0.0000 C   0  0  0  0  0  0  0  0  0  0  0  0
    1.3299    5.6152    0.0000 C   0  0  0  0  0  0  0  0  0  0  0  0
    1.6418    7.0824    0.0000 C   0  0  0  0  0  0  0  0  0  0  0  0
    0.5271    8.0861    0.0000 C   0  0  0  0  0  0  0  0  0  0  0  0
    0.8389    9.5533    0.0000 N   0  0  0  0  0  0  0  0  0  0  0  0
    2.2655   10.0169    0.0000 C   0  0  0  0  0  0  0  0  0  0  0  0
   -0.2758   10.5570    0.0000 C   0  0  0  0  0  0  0  0  0  0  0  0
   -0.8995    7.6226    0.0000 C   0  0  0  0  0  0  0  0  0  0  0  0
   -1.2114    6.1554    0.0000 C   0  0  0  0  0  0  0  0  0  0  0  0
  1  2  1  0
  2  3  1  0
  3  4  1  0
  4  5  2  0
  4  6  1  0
  6  7  2  0
  7  8  1  0
  8  9  1  0
  9 10  2  0
 10 11  1  0
 11 12  2  0
 12 13  1  0
 13 14  2  0
 14 15  1  0
 15 16  1  0
 15 17  1  0
 14 18  1  0
 18 19  2  0
  9 20  1  0
 20 21  2  0
 20 22  1  0
 22 23  1  0
 23 24  1  0
 23 25  2  0
 25 26  1  0
 26 27  3  0
 25 28  1  0
 28 29  1  6
 29 30  2  0
 30 31  1  0
 31 32  2  0
 32 33  1  0
 33 34  1  0
 33 35  1  0
 32 36  1  0
 36 37  2  0
 28  6  1  0
 37 29  1  0
 22  7  1  0
 19 11  1  0
M  END
>  <Compound_ID>  (545) 
C02250782

>  <Active>  (545) 
0.0

>  <Smiles>  (545) 
CCOC(=O)C1=c2s/c(=C\c3ccc(N(C)C)cc3)c(=O)n2C(N)=C(C#N)[C@@H]1c1ccc(N(C)C)cc1

>  <canonical_smi>  (545) 
CCOC(=O)C1=c2s/c(=C\c3ccc(N(C)C)cc3)c(=O)n2C(N)=C(C#N)[C@@H]1c1ccc(N(C)C)cc1

>  <Set>  (545) 
G2 inactive

>  <Set_type>  (545) 
Train

>  <MW>  (545) 
515.64

>  <HBD>  (545) 
1

>  <HBA>  (545) 
7

>  <NRB>  (545) 
6

>  <NR>  (545) 
4

>  <NAR>  (545) 
3

>  <PSA>  (545) 
104.59

>  <Standard Type>  (545) 
nan

>  <Standard Relation>  (545) 
nan

>  <Standard Units>  (545) 
nan

>  <Standard Value>  (545) 
nan

>  <Assay ChEMBL ID>  (545) 
nan

>  <Assay Description>  (545) 
nan

>  <BAO Label>  (545) 
nan

$$$$

     RDKit          2D

 28 31  0  0  0  0  0  0  0  0999 V2000
    3.0000   -3.6962    0.0000 O   0  0  0  0  0  0  0  0  0  0  0  0
    3.0000   -5.1962    0.0000 S   0  0  0  0  0  0  0  0  0  0  0  0
    3.0000   -6.6962    0.0000 O   0  0  0  0  0  0  0  0  0  0  0  0
    1.5000   -5.1962    0.0000 N   0  0  0  0  0  0  0  0  0  0  0  0
    0.7500   -3.8971    0.0000 C   0  0  0  0  0  0  0  0  0  0  0  0
    1.5000   -2.5981    0.0000 N   0  0  0  0  0  4  0  0  0  0  0  0
    0.7500   -1.2990    0.0000 C   0  0  0  0  0  0  0  0  0  0  0  0
    1.5000    0.0000    0.0000 C   0  0  0  0  0  0  0  0  0  0  0  0
    0.7500    1.2990    0.0000 C   0  0  0  0  0  0  0  0  0  0  0  0
   -0.7500    1.2990    0.0000 C   0  0  0  0  0  0  0  0  0  0  0  0
   -1.5000    0.0000    0.0000 C   0  0  0  0  0  0  0  0  0  0  0  0
   -0.7500   -1.2990    0.0000 C   0  0  0  0  0  0  0  0  0  0  0  0
   -1.5000   -2.5981    0.0000 N   0  0  0  0  0  4  0  0  0  0  0  0
   -0.7500   -3.8971    0.0000 C   0  0  0  0  0  0  0  0  0  0  0  0
   -1.5000   -5.1962    0.0000 N   0  0  0  0  0  0  0  0  0  0  0  0
   -3.0000   -5.1962    0.0000 C   0  0  0  0  0  0  0  0  0  0  0  0
   -3.7500   -6.4952    0.0000 C   0  0  0  0  0  0  0  0  0  0  0  0
   -5.2500   -6.4952    0.0000 C   0  0  0  0  0  0  0  0  0  0  0  0
   -6.0000   -7.7942    0.0000 C   0  0  0  0  0  0  0  0  0  0  0  0
   -5.2500   -9.0933    0.0000 C   0  0  0  0  0  0  0  0  0  0  0  0
   -6.0000  -10.3923    0.0000 Cl  0  0  0  0  0  0  0  0  0  0  0  0
   -3.7500   -9.0933    0.0000 C   0  0  0  0  0  0  0  0  0  0  0  0
   -3.0000   -7.7942    0.0000 C   0  0  0  0  0  0  0  0  0  0  0  0
    4.5000   -5.1962    0.0000 C   0  0  0  0  0  0  0  0  0  0  0  0
    5.3817   -3.9826    0.0000 C   0  0  0  0  0  0  0  0  0  0  0  0
    6.8083   -4.4462    0.0000 C   0  0  0  0  0  0  0  0  0  0  0  0
    6.8083   -5.9462    0.0000 C   0  0  0  0  0  0  0  0  0  0  0  0
    5.3817   -6.4097    0.0000 S   0  0  0  0  0  0  0  0  0  0  0  0
  1  2  2  0
  2  3  2  0
  2  4  1  0
  4  5  2  0
  5  6  1  0
  6  7  2  0
  7  8  1  0
  8  9  2  0
  9 10  1  0
 10 11  2  0
 11 12  1  0
 12 13  2  0
 13 14  1  0
 14 15  1  6
 15 16  1  0
 16 17  1  0
 17 18  2  0
 18 19  1  0
 19 20  2  0
 20 21  1  0
 20 22  1  0
 22 23  2  0
  2 24  1  0
 24 25  2  0
 25 26  1  0
 26 27  2  0
 27 28  1  0
 14  5  1  0
 23 17  1  0
 28 24  1  0
 12  7  1  0
M  CHG  2   6   1  13   1
M  END
>  <Compound_ID>  (546) 
C38966571

>  <Active>  (546) 
0.0

>  <Smiles>  (546) 
O=S(=O)(/N=C1\[NH+]=c2ccccc2=[NH+][C@H]1NCc1ccc(Cl)cc1)c1cccs1

>  <canonical_smi>  (546) 
O=S(=O)(/N=C1\[NH+]=c2ccccc2=[NH+][C@H]1NCc1ccc(Cl)cc1)c1cccs1

>  <Set>  (546) 
G2 inactive

>  <Set_type>  (546) 
Train

>  <MW>  (546) 
432.96

>  <HBD>  (546) 
3

>  <HBA>  (546) 
3

>  <NRB>  (546) 
5

>  <NR>  (546) 
4

>  <NAR>  (546) 
3

>  <PSA>  (546) 
86.47

>  <Standard Type>  (546) 
nan

>  <Standard Relation>  (546) 
nan

>  <Standard Units>  (546) 
nan

>  <Standard Value>  (546) 
nan

>  <Assay ChEMBL ID>  (546) 
nan

>  <Assay Description>  (546) 
nan

>  <BAO Label>  (546) 
nan

$$$$

     RDKit          2D

 27 29  0  0  0  0  0  0  0  0999 V2000
    5.2500   -1.2990    0.0000 C   0  0  0  0  0  0  0  0  0  0  0  0
    3.7500   -1.2990    0.0000 C   0  0  0  0  0  0  0  0  0  0  0  0
    3.0000   -2.5981    0.0000 C   0  0  0  0  0  0  0  0  0  0  0  0
    3.0000    0.0000    0.0000 O   0  0  0  0  0  0  0  0  0  0  0  0
    1.5000    0.0000    0.0000 C   0  0  0  0  0  0  0  0  0  0  0  0
    0.7500   -1.2990    0.0000 C   0  0  0  0  0  0  0  0  0  0  0  0
   -0.7500   -1.2990    0.0000 C   0  0  0  0  0  0  0  0  0  0  0  0
   -1.5000    0.0000    0.0000 C   0  0  0  0  0  0  0  0  0  0  0  0
   -0.7500    1.2990    0.0000 C   0  0  0  0  0  0  0  0  0  0  0  0
   -1.5000    2.5981    0.0000 C   0  0  0  0  0  0  0  0  0  0  0  0
   -2.9918    2.7549    0.0000 N   0  0  0  0  0  0  0  0  0  0  0  0
   -3.3037    4.2221    0.0000 N   0  0  0  0  0  4  0  0  0  0  0  0
   -2.0046    4.9721    0.0000 C   0  0  0  0  0  0  0  0  0  0  0  0
   -1.8478    6.4639    0.0000 S   0  0  0  0  0  0  0  0  0  0  0  0
   -0.8899    3.9684    0.0000 N   0  0  0  0  0  0  0  0  0  0  0  0
    0.5773    4.2803    0.0000 N   0  0  0  0  0  0  0  0  0  0  0  0
    1.0409    5.7068    0.0000 C   0  0  0  0  0  0  0  0  0  0  0  0
    2.5081    6.0187    0.0000 C   0  0  0  0  0  0  0  0  0  0  0  0
    3.5118    4.9040    0.0000 C   0  0  0  0  0  0  0  0  0  0  0  0
    4.9790    5.2159    0.0000 C   0  0  0  0  0  0  0  0  0  0  0  0
    5.9827    4.1011    0.0000 Br  0  0  0  0  0  0  0  0  0  0  0  0
    5.4425    6.6424    0.0000 C   0  0  0  0  0  0  0  0  0  0  0  0
    4.4388    7.7572    0.0000 C   0  0  0  0  0  0  0  0  0  0  0  0
    4.9023    9.1838    0.0000 Br  0  0  0  0  0  0  0  0  0  0  0  0
    2.9716    7.4453    0.0000 C   0  0  0  0  0  0  0  0  0  0  0  0
    1.9679    8.5600    0.0000 O   0  0  0  0  0  0  0  0  0  0  0  0
    0.7500    1.2990    0.0000 C   0  0  0  0  0  0  0  0  0  0  0  0
  1  2  1  0
  2  3  1  0
  2  4  1  0
  4  5  1  0
  5  6  2  0
  6  7  1  0
  7  8  2  0
  8  9  1  0
 10  9  1  1
 10 11  1  0
 11 12  2  0
 12 13  1  0
 13 14  2  0
 13 15  1  0
 15 16  1  0
 16 17  2  0
 17 18  1  0
 18 19  2  0
 19 20  1  0
 20 21  1  0
 20 22  2  0
 22 23  1  0
 23 24  1  0
 23 25  2  0
 25 26  1  0
  9 27  2  0
 27  5  1  0
 15 10  1  0
 25 18  1  0
M  CHG  1  12   1
M  END
>  <Compound_ID>  (547) 
C38966303

>  <Active>  (547) 
0.0

>  <Smiles>  (547) 
CC(C)Oc1cccc([C@H]2N=[NH+]C(=S)N2/N=C/c2cc(Br)cc(Br)c2O)c1

>  <canonical_smi>  (547) 
CC(C)Oc1cccc([C@H]2N=[NH+]C(=S)N2/N=C/c2cc(Br)cc(Br)c2O)c1

>  <Set>  (547) 
G2 inactive

>  <Set_type>  (547) 
Train

>  <MW>  (547) 
513.24

>  <HBD>  (547) 
2

>  <HBA>  (547) 
4

>  <NRB>  (547) 
5

>  <NR>  (547) 
3

>  <NAR>  (547) 
2

>  <PSA>  (547) 
71.39

>  <Standard Type>  (547) 
nan

>  <Standard Relation>  (547) 
nan

>  <Standard Units>  (547) 
nan

>  <Standard Value>  (547) 
nan

>  <Assay ChEMBL ID>  (547) 
nan

>  <Assay Description>  (547) 
nan

>  <BAO Label>  (547) 
nan

$$$$

     RDKit          2D

 31 34  0  0  0  0  0  0  0  0999 V2000
    5.0490  -10.9413    0.0000 O   0  0  0  0  0  0  0  0  0  0  0  0
    3.7500  -11.6913    0.0000 S   0  0  0  0  0  0  0  0  0  0  0  0
    2.4510  -12.4413    0.0000 O   0  0  0  0  0  0  0  0  0  0  0  0
    4.5000  -12.9904    0.0000 N   0  0  0  0  0  0  0  0  0  0  0  0
    3.7500  -14.2894    0.0000 C   0  0  0  0  0  0  0  0  0  0  0  0
    4.5000  -15.5885    0.0000 C   0  0  0  0  0  0  0  0  0  0  0  0
    6.0000  -15.5885    0.0000 C   0  0  0  0  0  0  0  0  0  0  0  0
    6.7500  -14.2894    0.0000 C   0  0  0  0  0  0  0  0  0  0  0  0
    6.0000  -12.9904    0.0000 C   0  0  0  0  0  0  0  0  0  0  0  0
    3.0000  -10.3923    0.0000 N   0  0  0  0  0  0  0  0  0  0  0  0
    3.7500   -9.0933    0.0000 C   0  0  0  0  0  0  0  0  0  0  0  0
    3.0000   -7.7942    0.0000 C   0  0  0  0  0  0  0  0  0  0  0  0
    1.5000   -7.7942    0.0000 N   0  0  0  0  0  4  0  0  0  0  0  0
    0.7500   -6.4952    0.0000 C   0  0  0  0  0  0  0  0  0  0  0  0
    1.5000   -5.1962    0.0000 C   0  0  0  0  0  0  0  0  0  0  0  0
    3.0000   -5.1962    0.0000 O   0  0  0  0  0  0  0  0  0  0  0  0
    0.7500   -3.8971    0.0000 C   0  0  0  0  0  0  0  0  0  0  0  0
    1.5000   -2.5981    0.0000 O   0  0  0  0  0  0  0  0  0  0  0  0
    0.7500   -1.2990    0.0000 C   0  0  0  0  0  0  0  0  0  0  0  0
    1.5000    0.0000    0.0000 C   0  0  0  0  0  0  0  0  0  0  0  0
    0.7500    1.2990    0.0000 C   0  0  0  0  0  0  0  0  0  0  0  0
   -0.7500    1.2990    0.0000 C   0  0  0  0  0  0  0  0  0  0  0  0
   -1.5000    2.5981    0.0000 C   0  0  0  0  0  0  0  0  0  0  0  0
   -3.0000    2.5981    0.0000 C   0  0  0  0  0  0  0  0  0  0  0  0
   -3.7500    3.8971    0.0000 Br  0  0  0  0  0  0  0  0  0  0  0  0
   -3.7500    1.2990    0.0000 C   0  0  0  0  0  0  0  0  0  0  0  0
   -3.0000    0.0000    0.0000 C   0  0  0  0  0  0  0  0  0  0  0  0
   -1.5000    0.0000    0.0000 C   0  0  0  0  0  0  0  0  0  0  0  0
   -0.7500   -1.2990    0.0000 C   0  0  0  0  0  0  0  0  0  0  0  0
    0.7500   -9.0933    0.0000 C   0  0  0  0  0  0  0  0  0  0  0  0
    1.5000  -10.3923    0.0000 C   0  0  0  0  0  0  0  0  0  0  0  0
  1  2  2  0
  2  3  2  0
  2  4  1  0
  4  5  1  0
  5  6  1  0
  6  7  1  0
  7  8  1  0
  8  9  1  0
  2 10  1  0
 10 11  1  0
 11 12  1  0
 12 13  1  0
 13 14  1  0
 14 15  1  0
 15 16  1  6
 15 17  1  0
 17 18  1  0
 18 19  1  0
 19 20  2  0
 20 21  1  0
 21 22  2  0
 22 23  1  0
 23 24  2  0
 24 25  1  0
 24 26  1  0
 26 27  2  0
 27 28  1  0
 28 29  2  0
 13 30  1  0
 30 31  1  0
  9  4  1  0
 31 10  1  0
 29 19  1  0
 28 22  1  0
M  CHG  1  13   1
M  END
>  <Compound_ID>  (548) 
C02886822

>  <Active>  (548) 
0.0

>  <Smiles>  (548) 
O=S(=O)(N1CCCCC1)N1CC[NH+](C[C@@H](O)COc2ccc3cc(Br)ccc3c2)CC1

>  <canonical_smi>  (548) 
O=S(=O)(N1CCCCC1)N1CC[NH+](C[C@@H](O)COc2ccc3cc(Br)ccc3c2)CC1

>  <Set>  (548) 
G2 inactive

>  <Set_type>  (548) 
Train

>  <MW>  (548) 
513.48

>  <HBD>  (548) 
2

>  <HBA>  (548) 
4

>  <NRB>  (548) 
7

>  <NR>  (548) 
4

>  <NAR>  (548) 
2

>  <PSA>  (548) 
74.52

>  <Standard Type>  (548) 
nan

>  <Standard Relation>  (548) 
nan

>  <Standard Units>  (548) 
nan

>  <Standard Value>  (548) 
nan

>  <Assay ChEMBL ID>  (548) 
nan

>  <Assay Description>  (548) 
nan

>  <BAO Label>  (548) 
nan

$$$$

     RDKit          2D

 22 23  0  0  0  0  0  0  0  0999 V2000
    6.6172   -4.2939    0.0000 C   0  0  0  0  0  0  0  0  0  0  0  0
    5.2077   -3.7808    0.0000 C   0  0  0  0  0  0  0  0  0  0  0  0
    4.9472   -2.3036    0.0000 C   0  0  0  0  0  0  0  0  0  0  0  0
    4.0586   -4.7450    0.0000 C   0  0  0  0  0  0  0  0  0  0  0  0
    2.6491   -4.2320    0.0000 C   0  0  0  0  0  0  0  0  0  0  0  0
    1.5000   -5.1962    0.0000 C   0  0  0  0  0  0  0  0  0  0  0  0
    0.7500   -3.8971    0.0000 C   0  0  0  0  0  0  0  0  0  0  0  0
    1.5000   -2.5981    0.0000 C   0  0  0  0  0  0  0  0  0  0  0  0
    0.7500   -1.2990    0.0000 N   0  0  0  0  0  4  0  0  0  0  0  0
    1.5000    0.0000    0.0000 C   0  0  0  0  0  0  0  0  0  0  0  0
    0.7500    1.2990    0.0000 C   0  0  0  0  0  0  0  0  0  0  0  0
   -0.7500    1.2990    0.0000 O   0  0  0  0  0  0  0  0  0  0  0  0
   -1.5000    0.0000    0.0000 C   0  0  0  0  0  0  0  0  0  0  0  0
   -0.7500   -1.2990    0.0000 C   0  0  0  0  0  0  0  0  0  0  0  0
    0.0905   -5.7092    0.0000 C   0  0  0  0  0  0  0  0  0  0  0  0
   -0.1700   -7.1864    0.0000 C   0  0  0  0  0  0  0  0  0  0  0  0
    0.9791   -8.1506    0.0000 O   0  0  0  0  0  0  0  0  0  0  0  0
    2.3886   -7.6375    0.0000 C   0  0  0  0  0  0  0  0  0  0  0  0
    3.5377   -8.6017    0.0000 C   0  0  0  0  0  0  0  0  0  0  0  0
    3.2772  -10.0789    0.0000 C   0  0  0  0  0  0  0  0  0  0  0  0
    4.9472   -8.0887    0.0000 C   0  0  0  0  0  0  0  0  0  0  0  0
    2.6491   -6.1603    0.0000 C   0  0  0  0  0  0  0  0  0  0  0  0
  1  2  1  0
  2  3  1  0
  2  4  1  0
  4  5  1  0
  6  5  1  6
  6  7  1  0
  7  8  1  0
  8  9  1  0
  9 10  1  0
 10 11  1  0
 11 12  1  0
 12 13  1  0
 13 14  1  0
  6 15  1  0
 15 16  1  0
 16 17  1  0
 17 18  1  0
 18 19  1  1
 19 20  1  0
 19 21  1  0
 18 22  1  0
 22  6  1  0
 14  9  1  0
M  CHG  1   9   1
M  END
>  <Compound_ID>  (549) 
C09476932

>  <Active>  (549) 
0.0

>  <Smiles>  (549) 
CC(C)CC[C@@]1(CC[NH+]2CCOCC2)CCO[C@H](C(C)C)C1

>  <canonical_smi>  (549) 
CC(C)CC[C@@]1(CC[NH+]2CCOCC2)CCO[C@H](C(C)C)C1

>  <Set>  (549) 
G2 inactive

>  <Set_type>  (549) 
Train

>  <MW>  (549) 
312.52

>  <HBD>  (549) 
1

>  <HBA>  (549) 
2

>  <NRB>  (549) 
7

>  <NR>  (549) 
2

>  <NAR>  (549) 
0

>  <PSA>  (549) 
22.9

>  <Standard Type>  (549) 
nan

>  <Standard Relation>  (549) 
nan

>  <Standard Units>  (549) 
nan

>  <Standard Value>  (549) 
nan

>  <Assay ChEMBL ID>  (549) 
nan

>  <Assay Description>  (549) 
nan

>  <BAO Label>  (549) 
nan

$$$$

     RDKit          2D

 19 19  0  0  0  0  0  0  0  0999 V2000
    7.5000    2.5981    0.0000 C   0  0  0  0  0  0  0  0  0  0  0  0
    6.0000    2.5981    0.0000 O   0  0  0  0  0  0  0  0  0  0  0  0
    5.2500    1.2990    0.0000 C   0  0  0  0  0  0  0  0  0  0  0  0
    3.7500    1.2990    0.0000 C   0  0  0  0  0  0  0  0  0  0  0  0
    3.0000    0.0000    0.0000 N   0  0  0  0  0  0  0  0  0  0  0  0
    3.7500   -1.2990    0.0000 C   0  0  0  0  0  0  0  0  0  0  0  0
    5.2500   -1.2990    0.0000 C   0  0  0  0  0  0  0  0  0  0  0  0
    6.0000   -2.5981    0.0000 C   0  0  0  0  0  0  0  0  0  0  0  0
    6.0000    0.0000    0.0000 C   0  0  0  0  0  0  0  0  0  0  0  0
    1.5000    0.0000    0.0000 C   0  0  0  0  0  0  0  0  0  0  0  0
    0.7500   -1.2990    0.0000 N   0  0  0  0  0  4  0  0  0  0  0  0
   -0.7500   -1.2990    0.0000 C   0  0  0  0  0  0  0  0  0  0  0  0
   -1.5000   -2.5981    0.0000 C   0  0  0  0  0  0  0  0  0  0  0  0
   -1.5000    0.0000    0.0000 C   0  0  0  0  0  0  0  0  0  0  0  0
   -0.7500    1.2990    0.0000 C   0  0  0  0  0  0  0  0  0  0  0  0
   -1.5000    2.5981    0.0000 C   0  0  0  0  0  0  0  0  0  0  0  0
    0.7500    1.2990    0.0000 C   0  0  0  0  0  0  0  0  0  0  0  0
    1.5000    2.5981    0.0000 C   0  0  0  0  0  0  0  0  0  0  0  0
    3.0000    2.5981    0.0000 Cl  0  0  0  0  0  0  0  0  0  0  0  0
  1  2  1  0
  2  3  1  0
  3  4  1  0
  4  5  1  0
  5  6  1  0
  6  7  1  0
  7  8  1  0
  7  9  1  0
  5 10  1  0
 10 11  2  0
 11 12  1  0
 12 13  1  0
 12 14  2  0
 14 15  1  0
 15 16  1  0
 15 17  2  0
 17 18  1  0
 18 19  1  0
 17 10  1  0
M  CHG  1  11   1
M  END
>  <Compound_ID>  (550) 
C42370619

>  <Active>  (550) 
0.0

>  <Smiles>  (550) 
COCCN(CC(C)C)c1[nH+]c(C)cc(C)c1CCl

>  <canonical_smi>  (550) 
COCCN(CC(C)C)c1[nH+]c(C)cc(C)c1CCl

>  <Set>  (550) 
G2 inactive

>  <Set_type>  (550) 
Train

>  <MW>  (550) 
285.84

>  <HBD>  (550) 
0

>  <HBA>  (550) 
2

>  <NRB>  (550) 
7

>  <NR>  (550) 
1

>  <NAR>  (550) 
1

>  <PSA>  (550) 
26.61

>  <Standard Type>  (550) 
nan

>  <Standard Relation>  (550) 
nan

>  <Standard Units>  (550) 
nan

>  <Standard Value>  (550) 
nan

>  <Assay ChEMBL ID>  (550) 
nan

>  <Assay Description>  (550) 
nan

>  <BAO Label>  (550) 
nan

$$$$

     RDKit          2D

 20 20  0  0  0  0  0  0  0  0999 V2000
    5.2500   -1.2990    0.0000 C   0  0  0  0  0  0  0  0  0  0  0  0
    3.7500   -1.2990    0.0000 C   0  0  0  0  0  0  0  0  0  0  0  0
    3.0000    0.0000    0.0000 N   0  0  0  0  0  4  0  0  0  0  0  0
    3.7500    1.2990    0.0000 C   0  0  0  0  0  0  0  0  0  0  0  0
    5.2500    1.2990    0.0000 C   0  0  0  0  0  0  0  0  0  0  0  0
    3.0000    2.5981    0.0000 C   0  0  0  0  0  0  0  0  0  0  0  0
    3.7500    3.8971    0.0000 O   0  0  0  0  0  0  0  0  0  0  0  0
    3.0000    5.1962    0.0000 C   0  0  0  0  0  0  0  0  0  0  0  0
    1.5000    0.0000    0.0000 C   0  0  0  0  0  0  0  0  0  0  0  0
    0.7500   -1.2990    0.0000 C   0  0  0  0  0  0  0  0  0  0  0  0
   -0.7500   -1.2990    0.0000 C   0  0  0  0  0  0  0  0  0  0  0  0
   -1.5000   -2.5981    0.0000 C   0  0  0  0  0  0  0  0  0  0  0  0
   -2.7990   -1.8481    0.0000 C   0  0  0  0  0  0  0  0  0  0  0  0
   -0.2010   -3.3481    0.0000 C   0  0  0  0  0  0  0  0  0  0  0  0
   -2.2500   -3.8971    0.0000 C   0  0  0  0  0  0  0  0  0  0  0  0
   -1.5000    0.0000    0.0000 C   0  0  0  0  0  0  0  0  0  0  0  0
   -0.7500    1.2990    0.0000 C   0  0  0  0  0  0  0  0  0  0  0  0
    0.7500    1.2990    0.0000 C   0  0  0  0  0  0  0  0  0  0  0  0
    1.5000    2.5981    0.0000 C   0  0  0  0  0  0  0  0  0  0  0  0
    2.2500    3.8971    0.0000 N   0  0  0  0  0  0  0  0  0  0  0  0
  1  2  1  0
  2  3  1  0
  3  4  1  0
  4  5  1  6
  4  6  1  0
  6  7  1  0
  7  8  1  0
  9  3  1  1
  9 10  1  0
 10 11  1  0
 11 12  1  6
 12 13  1  0
 12 14  1  0
 12 15  1  0
 11 16  1  0
 16 17  1  0
 17 18  1  0
 18 19  1  6
 19 20  3  0
 18  9  1  0
M  CHG  1   3   1
M  END
>  <Compound_ID>  (551) 
C42764540

>  <Active>  (551) 
0.0

>  <Smiles>  (551) 
CC[NH+]([C@@H](C)COC)[C@H]1C[C@H](C(C)(C)C)CC[C@@H]1C#N

>  <canonical_smi>  (551) 
CC[NH+]([C@@H](C)COC)[C@H]1C[C@H](C(C)(C)C)CC[C@@H]1C#N

>  <Set>  (551) 
G2 inactive

>  <Set_type>  (551) 
Train

>  <MW>  (551) 
281.46

>  <HBD>  (551) 
1

>  <HBA>  (551) 
2

>  <NRB>  (551) 
5

>  <NR>  (551) 
1

>  <NAR>  (551) 
0

>  <PSA>  (551) 
37.46

>  <Standard Type>  (551) 
nan

>  <Standard Relation>  (551) 
nan

>  <Standard Units>  (551) 
nan

>  <Standard Value>  (551) 
nan

>  <Assay ChEMBL ID>  (551) 
nan

>  <Assay Description>  (551) 
nan

>  <BAO Label>  (551) 
nan

$$$$

     RDKit          2D

 21 22  0  0  0  0  0  0  0  0999 V2000
    6.0000   -2.5981    0.0000 C   0  0  0  0  0  0  0  0  0  0  0  0
    5.2500   -1.2990    0.0000 C   0  0  0  0  0  0  0  0  0  0  0  0
    3.7500   -1.2990    0.0000 C   0  0  0  0  0  0  0  0  0  0  0  0
    3.0000    0.0000    0.0000 O   0  0  0  0  0  0  0  0  0  0  0  0
    1.5000    0.0000    0.0000 C   0  0  0  0  0  0  0  0  0  0  0  0
    0.7500   -1.2990    0.0000 C   0  0  0  0  0  0  0  0  0  0  0  0
   -0.7500   -1.2990    0.0000 C   0  0  0  0  0  0  0  0  0  0  0  0
   -1.5000    0.0000    0.0000 C   0  0  0  0  0  0  0  0  0  0  0  0
   -0.7500    1.2990    0.0000 N   0  0  0  0  0  4  0  0  0  0  0  0
   -1.5000    2.5981    0.0000 C   0  0  0  0  0  0  0  0  0  0  0  0
   -0.7500    3.8971    0.0000 C   0  0  0  0  0  0  0  0  0  0  0  0
    0.7500    3.8971    0.0000 C   0  0  0  0  0  0  0  0  0  0  0  0
    1.5000    5.1962    0.0000 C   0  0  0  0  0  0  0  0  0  0  0  0
    3.0000    5.1962    0.0000 C   0  0  0  0  0  0  0  0  0  0  0  0
    3.7500    3.8971    0.0000 C   0  0  0  0  0  0  0  0  0  0  0  0
    5.2500    3.8971    0.0000 C   0  0  0  0  0  0  0  0  0  0  0  0
    0.7500    6.4952    0.0000 C   0  0  0  0  0  0  0  0  0  0  0  0
   -0.7500    6.4952    0.0000 C   0  0  0  0  0  0  0  0  0  0  0  0
   -1.5000    5.1962    0.0000 C   0  0  0  0  0  0  0  0  0  0  0  0
   -3.0000    5.1962    0.0000 O   0  0  0  0  0  0  0  0  0  0  0  0
    0.7500    1.2990    0.0000 C   0  0  0  0  0  0  0  0  0  0  0  0
  1  2  1  0
  2  3  1  0
  3  4  1  0
  5  4  1  1
  5  6  1  0
  6  7  1  0
  7  8  1  0
  8  9  1  0
  9 10  1  0
 11 10  1  6
 11 12  1  0
 12 13  1  0
 13 14  1  1
 14 15  1  0
 15 16  1  0
 13 17  1  0
 17 18  1  0
 18 19  1  0
 19 20  2  0
  9 21  1  0
 21  5  1  0
 19 11  1  0
M  CHG  1   9   1
M  END
>  <Compound_ID>  (552) 
C53931028

>  <Active>  (552) 
0.0

>  <Smiles>  (552) 
CCCO[C@H]1CCC[NH+](C[C@H]2C[C@H](CCC)CCC2=O)C1

>  <canonical_smi>  (552) 
CCCO[C@H]1CCC[NH+](C[C@H]2C[C@H](CCC)CCC2=O)C1

>  <Set>  (552) 
G2 inactive

>  <Set_type>  (552) 
Train

>  <MW>  (552) 
296.48

>  <HBD>  (552) 
1

>  <HBA>  (552) 
2

>  <NRB>  (552) 
7

>  <NR>  (552) 
2

>  <NAR>  (552) 
0

>  <PSA>  (552) 
30.74

>  <Standard Type>  (552) 
nan

>  <Standard Relation>  (552) 
nan

>  <Standard Units>  (552) 
nan

>  <Standard Value>  (552) 
nan

>  <Assay ChEMBL ID>  (552) 
nan

>  <Assay Description>  (552) 
nan

>  <BAO Label>  (552) 
nan

$$$$

     RDKit          2D

 34 37  0  0  0  0  0  0  0  0999 V2000
   -0.4022  -15.5571    0.0000 C   0  0  0  0  0  0  0  0  0  0  0  0
   -0.2454  -14.0654    0.0000 C   0  0  0  0  0  0  0  0  0  0  0  0
    1.0537  -13.3154    0.0000 N   0  0  0  0  0  0  0  0  0  0  0  0
    0.7418  -11.8481    0.0000 O   0  0  0  0  0  0  0  0  0  0  0  0
   -0.7500  -11.6913    0.0000 C   0  0  0  0  0  0  0  0  0  0  0  0
   -1.5000  -10.3923    0.0000 N   0  0  0  0  0  0  0  0  0  0  0  0
   -0.7500   -9.0933    0.0000 S   0  0  0  0  0  0  0  0  0  0  0  0
   -2.0490   -8.3433    0.0000 O   0  0  0  0  0  0  0  0  0  0  0  0
    0.5490   -9.8433    0.0000 O   0  0  0  0  0  0  0  0  0  0  0  0
   -0.0000   -7.7942    0.0000 C   0  0  0  0  0  0  0  0  0  0  0  0
    1.5000   -7.7942    0.0000 C   0  0  0  0  0  0  0  0  0  0  0  0
    2.2500   -6.4952    0.0000 C   0  0  0  0  0  0  0  0  0  0  0  0
    1.5000   -5.1962    0.0000 C   0  0  0  0  0  0  0  0  0  0  0  0
    2.2500   -3.8971    0.0000 N   0  0  0  0  0  0  0  0  0  0  0  0
    1.5000   -2.5981    0.0000 S   0  0  0  0  0  0  0  0  0  0  0  0
    2.7990   -1.8481    0.0000 O   0  0  0  0  0  0  0  0  0  0  0  0
    0.2010   -3.3481    0.0000 O   0  0  0  0  0  0  0  0  0  0  0  0
    0.7500   -1.2990    0.0000 C   0  0  0  0  0  0  0  0  0  0  0  0
    1.5000    0.0000    0.0000 C   0  0  0  0  0  0  0  0  0  0  0  0
    0.7500    1.2990    0.0000 C   0  0  0  0  0  0  0  0  0  0  0  0
   -0.7500    1.2990    0.0000 C   0  0  0  0  0  0  0  0  0  0  0  0
   -1.5000    0.0000    0.0000 C   0  0  0  0  0  0  0  0  0  0  0  0
   -3.0000    0.0000    0.0000 C   0  0  0  0  0  0  0  0  0  0  0  0
   -3.7500    1.2990    0.0000 N   0  0  0  0  0  0  0  0  0  0  0  0
   -5.2500    1.2990    0.0000 C   0  0  0  0  0  0  0  0  0  0  0  0
   -3.0000    2.5981    0.0000 C   0  0  0  0  0  0  0  0  0  0  0  0
   -3.7500   -1.2990    0.0000 C   0  0  0  0  0  0  0  0  0  0  0  0
   -3.0000   -2.5981    0.0000 C   0  0  0  0  0  0  0  0  0  0  0  0
   -1.5000   -2.5981    0.0000 C   0  0  0  0  0  0  0  0  0  0  0  0
   -0.7500   -1.2990    0.0000 C   0  0  0  0  0  0  0  0  0  0  0  0
   -0.0000   -5.1962    0.0000 C   0  0  0  0  0  0  0  0  0  0  0  0
   -0.7500   -6.4952    0.0000 C   0  0  0  0  0  0  0  0  0  0  0  0
   -1.3601  -13.0617    0.0000 C   0  0  0  0  0  0  0  0  0  0  0  0
   -2.8273  -13.3735    0.0000 C   0  0  0  0  0  0  0  0  0  0  0  0
  1  2  1  0
  2  3  2  0
  3  4  1  0
  4  5  1  0
  5  6  1  0
  6  7  1  0
  7  8  2  0
  7  9  2  0
  7 10  1  0
 10 11  2  0
 11 12  1  0
 12 13  2  0
 13 14  1  0
 14 15  1  0
 15 16  2  0
 15 17  2  0
 15 18  1  0
 18 19  2  0
 19 20  1  0
 20 21  2  0
 21 22  1  0
 22 23  2  0
 23 24  1  0
 24 25  1  0
 24 26  1  0
 23 27  1  0
 27 28  2  0
 28 29  1  0
 29 30  2  0
 13 31  1  0
 31 32  2  0
  5 33  2  0
 33 34  1  0
 33  2  1  0
 32 10  1  0
 30 18  1  0
 30 22  1  0
M  END
>  <Compound_ID>  (553) 
C16265791

>  <Active>  (553) 
0.0

>  <Smiles>  (553) 
Cc1noc(NS(=O)(=O)c2ccc(NS(=O)(=O)c3cccc4c(N(C)C)cccc34)cc2)c1C

>  <canonical_smi>  (553) 
Cc1noc(NS(=O)(=O)c2ccc(NS(=O)(=O)c3cccc4c(N(C)C)cccc34)cc2)c1C

>  <Set>  (553) 
G2 inactive

>  <Set_type>  (553) 
Train

>  <MW>  (553) 
500.6

>  <HBD>  (553) 
2

>  <HBA>  (553) 
7

>  <NRB>  (553) 
7

>  <NR>  (553) 
4

>  <NAR>  (553) 
4

>  <PSA>  (553) 
121.61

>  <Standard Type>  (553) 
nan

>  <Standard Relation>  (553) 
nan

>  <Standard Units>  (553) 
nan

>  <Standard Value>  (553) 
nan

>  <Assay ChEMBL ID>  (553) 
nan

>  <Assay Description>  (553) 
nan

>  <BAO Label>  (553) 
nan

$$$$

     RDKit          2D

 38 41  0  0  0  0  0  0  0  0999 V2000
   -9.7500   -3.8971    0.0000 C   0  0  0  0  0  0  0  0  0  0  0  0
   -8.2500   -3.8971    0.0000 C   0  0  0  0  0  0  0  0  0  0  0  0
   -7.5000   -2.5981    0.0000 C   0  0  0  0  0  0  0  0  0  0  0  0
   -6.0000   -2.5981    0.0000 C   0  0  0  0  0  0  0  0  0  0  0  0
   -5.2500   -3.8971    0.0000 C   0  0  0  0  0  0  0  0  0  0  0  0
   -3.7500   -3.8971    0.0000 C   0  0  0  0  0  0  0  0  0  0  0  0
   -3.0000   -5.1962    0.0000 C   0  0  0  0  0  0  0  0  0  0  0  0
   -2.2265   -5.3890    0.0000 O   0  0  0  0  0  0  0  0  0  0  0  0
   -3.7500   -6.4952    0.0000 N   0  0  0  0  0  0  0  0  0  0  0  0
   -3.0000   -7.7942    0.0000 C   0  0  0  0  0  0  0  0  0  0  0  0
   -3.7500   -9.0933    0.0000 C   0  0  0  0  0  0  0  0  0  0  0  0
   -3.0000  -10.3923    0.0000 C   0  0  0  0  0  0  0  0  0  0  0  0
   -3.7500  -11.6913    0.0000 C   0  0  0  0  0  0  0  0  0  0  0  0
   -1.5000  -10.3923    0.0000 C   0  0  0  0  0  0  0  0  0  0  0  0
   -3.0000   -2.5981    0.0000 N   0  0  0  0  0  0  0  0  0  0  0  0
   -3.7500   -1.2990    0.0000 C   0  0  0  0  0  0  0  0  0  0  0  0
   -5.2500   -1.2990    0.0000 O   0  0  0  0  0  0  0  0  0  0  0  0
   -3.0000    0.0000    0.0000 C   0  0  0  0  0  0  0  0  0  0  0  0
   -1.5082    0.1568    0.0000 S   0  0  0  0  0  0  0  0  0  0  0  0
   -1.1963    1.6240    0.0000 N   0  0  0  0  0  0  0  0  0  0  0  0
   -2.4954    2.3740    0.0000 C   0  0  0  0  0  0  0  0  0  0  0  0
   -2.6522    3.8658    0.0000 C   0  0  0  0  0  0  0  0  0  0  0  0
   -4.0225    4.4759    0.0000 N   0  0  0  0  0  0  0  0  0  0  0  0
   -1.4387    4.7475    0.0000 O   0  0  0  0  0  0  0  0  0  0  0  0
   -3.6101    1.3703    0.0000 C   0  0  0  0  0  0  0  0  0  0  0  0
   -5.0773    1.6822    0.0000 N   0  0  0  0  0  0  0  0  0  0  0  0
   -1.5000   -2.5981    0.0000 C   0  0  0  0  0  0  0  0  0  0  0  0
   -0.7500   -1.2990    0.0000 C   0  0  0  0  0  0  0  0  0  0  0  0
    0.7500   -1.2990    0.0000 C   0  0  0  0  0  0  0  0  0  0  0  0
    1.5000   -2.5981    0.0000 C   0  0  0  0  0  0  0  0  0  0  0  0
    0.7500   -3.8971    0.0000 C   0  0  0  0  0  0  0  0  0  0  0  0
    1.5000   -5.1962    0.0000 C   0  0  0  0  0  0  0  0  0  0  0  0
    0.7500   -6.4952    0.0000 C   0  0  0  0  0  0  0  0  0  0  0  0
   -0.7500   -6.4952    0.0000 C   0  0  0  0  0  0  0  0  0  0  0  0
   -1.5000   -5.1962    0.0000 C   0  0  0  0  0  0  0  0  0  0  0  0
   -0.7500   -3.8971    0.0000 C   0  0  0  0  0  0  0  0  0  0  0  0
   -6.0000   -5.1962    0.0000 C   0  0  0  0  0  0  0  0  0  0  0  0
   -7.5000   -5.1962    0.0000 C   0  0  0  0  0  0  0  0  0  0  0  0
  1  2  1  0
  2  3  2  0
  3  4  1  0
  4  5  2  0
  5  6  1  0
  6  7  1  0
  7  8  2  0
  7  9  1  0
  9 10  1  0
 10 11  1  0
 11 12  1  0
 12 13  1  0
 12 14  1  0
  6 15  1  1
 15 16  1  0
 16 17  2  0
 16 18  1  0
 18 19  1  0
 19 20  1  0
 20 21  2  0
 21 22  1  0
 22 23  1  0
 22 24  2  0
 21 25  1  0
 25 26  1  0
 15 27  1  0
 27 28  2  0
 28 29  1  0
 29 30  2  0
 30 31  1  0
 31 32  2  0
 32 33  1  0
 33 34  2  0
 34 35  1  0
 35 36  2  0
  5 37  1  0
 37 38  2  0
 38  2  1  0
 25 18  2  0
 36 27  1  0
 36 31  1  0
M  END
>  <Compound_ID>  (554) 
C12479683

>  <Active>  (554) 
0.0

>  <Smiles>  (554) 
Cc1ccc([C@H](C(=O)NCCC(C)C)N(C(=O)c2snc(C(N)=O)c2N)c2cccc3ccccc23)cc1

>  <canonical_smi>  (554) 
Cc1ccc([C@H](C(=O)NCCC(C)C)N(C(=O)c2snc(C(N)=O)c2N)c2cccc3ccccc23)cc1

>  <Set>  (554) 
G2 inactive

>  <Set_type>  (554) 
Train

>  <MW>  (554) 
529.67

>  <HBD>  (554) 
3

>  <HBA>  (554) 
5

>  <NRB>  (554) 
9

>  <NR>  (554) 
4

>  <NAR>  (554) 
4

>  <PSA>  (554) 
131.41

>  <Standard Type>  (554) 
nan

>  <Standard Relation>  (554) 
nan

>  <Standard Units>  (554) 
nan

>  <Standard Value>  (554) 
nan

>  <Assay ChEMBL ID>  (554) 
nan

>  <Assay Description>  (554) 
nan

>  <BAO Label>  (554) 
nan

$$$$

     RDKit          2D

 37 42  0  0  0  0  0  0  0  0999 V2000
   -1.8478   -9.0619    0.0000 C   0  0  0  0  0  0  0  0  0  0  0  0
   -2.0046   -7.5702    0.0000 N   0  0  0  0  0  0  0  0  0  0  0  0
   -0.8899   -6.5665    0.0000 N   0  0  0  0  0  0  0  0  0  0  0  0
   -1.5000   -5.1962    0.0000 C   0  0  0  0  0  0  0  0  0  0  0  0
   -0.7500   -3.8971    0.0000 C   0  0  0  0  0  0  0  0  0  0  0  0
    0.7500   -3.8971    0.0000 C   0  0  0  0  0  0  0  0  0  0  0  0
    1.5000   -2.5981    0.0000 C   0  0  0  0  0  0  0  0  0  0  0  0
    0.7500   -1.2990    0.0000 C   0  0  0  0  0  0  0  0  0  0  0  0
    1.5000    0.0000    0.0000 C   0  0  0  0  0  0  0  0  0  0  0  0
    0.7500    1.2990    0.0000 C   0  0  0  0  0  0  0  0  0  0  0  0
   -0.7500    1.2990    0.0000 C   0  0  0  0  0  0  0  0  0  0  0  0
   -1.5000    0.0000    0.0000 C   0  0  0  0  0  0  0  0  0  0  0  0
   -0.7500   -1.2990    0.0000 C   0  0  0  0  0  0  0  0  0  0  0  0
   -1.5000   -2.5981    0.0000 C   0  0  0  0  0  0  0  0  0  0  0  0
   -2.9918   -5.3529    0.0000 C   0  0  0  0  0  0  0  0  0  0  0  0
   -3.3037   -6.8202    0.0000 C   0  0  0  0  0  0  0  0  0  0  0  0
   -4.6740   -7.4303    0.0000 C   0  0  0  0  0  0  0  0  0  0  0  0
   -5.8875   -6.5486    0.0000 C   0  0  0  0  0  0  0  0  0  0  0  0
   -7.2578   -7.1587    0.0000 N   0  0  0  0  0  4  0  0  0  0  0  0
   -7.4146   -8.6505    0.0000 C   0  0  0  0  0  0  0  0  0  0  0  0
   -6.2011   -9.5322    0.0000 C   0  0  0  0  0  0  0  0  0  0  0  0
   -4.8308   -8.9221    0.0000 C   0  0  0  0  0  0  0  0  0  0  0  0
   -5.5253   -8.4798    0.0000 C   0  0  0  0  0  0  0  0  0  0  0  0
   -6.6226   -7.6826    0.0000 C   0  0  0  0  0  0  0  0  0  0  0  0
   -8.7849   -9.2606    0.0000 C   0  0  0  0  0  0  0  0  0  0  0  0
   -9.9984   -8.3789    0.0000 N   0  0  0  0  0  0  0  0  0  0  0  0
  -11.3688   -8.9890    0.0000 C   0  0  0  0  0  0  0  0  0  0  0  0
  -11.5256  -10.4808    0.0000 S   0  0  0  0  0  0  0  0  0  0  0  0
  -12.5823   -8.1073    0.0000 N   0  0  0  0  0  0  0  0  0  0  0  0
  -13.9526   -8.7174    0.0000 C   0  0  0  0  0  0  0  0  0  0  0  0
  -15.1661   -7.8358    0.0000 C   0  0  0  0  0  0  0  0  0  0  0  0
  -16.5365   -8.4459    0.0000 C   0  0  0  0  0  0  0  0  0  0  0  0
  -16.6932   -9.9377    0.0000 C   0  0  0  0  0  0  0  0  0  0  0  0
  -15.4797  -10.8193    0.0000 C   0  0  0  0  0  0  0  0  0  0  0  0
  -15.6365  -12.3111    0.0000 C   0  0  0  0  0  0  0  0  0  0  0  0
  -15.7933  -13.8029    0.0000 N   0  0  0  0  0  0  0  0  0  0  0  0
  -14.1094  -10.2092    0.0000 C   0  0  0  0  0  0  0  0  0  0  0  0
  1  2  1  0
  2  3  1  0
  3  4  2  0
  4  5  1  0
  5  6  2  0
  6  7  1  0
  7  8  2  0
  8  9  1  0
  9 10  2  0
 10 11  1  0
 11 12  2  0
 12 13  1  0
 13 14  2  0
  4 15  1  0
 15 16  2  0
 17 16  1  6
 17 18  1  0
 18 19  1  0
 19 20  1  0
 20 21  1  0
 22 21  1  1
 22 23  1  0
 23 24  1  0
 24 25  1  6
 25 26  1  0
 26 27  1  0
 27 28  2  0
 27 29  1  0
 29 30  1  0
 30 31  2  0
 31 32  1  0
 32 33  2  0
 33 34  1  0
 34 35  1  0
 35 36  3  0
 34 37  2  0
 16  2  1  0
 22 17  1  0
 37 30  1  0
 14  5  1  0
 24 19  1  0
 13  8  1  0
M  CHG  1  19   1
M  END
>  <Compound_ID>  (555) 
C08635482

>  <Active>  (555) 
0.0

>  <Smiles>  (555) 
Cn1nc(-c2ccc3ccccc3c2)cc1[C@H]1C[NH+]2CC[C@H]1C[C@@H]2CNC(=S)Nc1cccc(C#N)c1

>  <canonical_smi>  (555) 
Cn1nc(-c2ccc3ccccc3c2)cc1[C@H]1C[NH+]2CC[C@H]1C[C@@H]2CNC(=S)Nc1cccc(C#N)c1

>  <Set>  (555) 
G2 inactive

>  <Set_type>  (555) 
Train

>  <MW>  (555) 
507.69

>  <HBD>  (555) 
3

>  <HBA>  (555) 
5

>  <NRB>  (555) 
5

>  <NR>  (555) 
7

>  <NAR>  (555) 
4

>  <PSA>  (555) 
70.11

>  <Standard Type>  (555) 
nan

>  <Standard Relation>  (555) 
nan

>  <Standard Units>  (555) 
nan

>  <Standard Value>  (555) 
nan

>  <Assay ChEMBL ID>  (555) 
nan

>  <Assay Description>  (555) 
nan

>  <BAO Label>  (555) 
nan

$$$$

     RDKit          2D

 30 33  0  0  0  0  0  0  0  0999 V2000
    6.0000   -2.5981    0.0000 C   0  0  0  0  0  0  0  0  0  0  0  0
    5.2500   -1.2990    0.0000 C   0  0  0  0  0  0  0  0  0  0  0  0
    6.0000    0.0000    0.0000 Cl  0  0  0  0  0  0  0  0  0  0  0  0
    3.7500   -1.2990    0.0000 C   0  0  0  0  0  0  0  0  0  0  0  0
    3.0000    0.0000    0.0000 O   0  0  0  0  0  0  0  0  0  0  0  0
    1.5000    0.0000    0.0000 C   0  0  0  0  0  0  0  0  0  0  0  0
    0.7500   -1.2990    0.0000 N   0  0  0  0  0  0  0  0  0  0  0  0
   -0.7500   -1.2990    0.0000 C   0  0  0  0  0  0  0  0  0  0  0  0
   -1.5000   -2.5981    0.0000 C   0  0  0  0  0  0  0  0  0  0  0  0
   -3.0000   -2.5981    0.0000 C   0  0  0  0  0  0  0  0  0  0  0  0
   -3.7500   -3.8971    0.0000 O   0  0  0  0  0  0  0  0  0  0  0  0
   -3.0000   -5.1962    0.0000 C   0  0  0  0  0  0  0  0  0  0  0  0
   -3.7500   -1.2990    0.0000 C   0  0  0  0  0  0  0  0  0  0  0  0
   -5.2500   -1.2990    0.0000 O   0  0  0  0  0  0  0  0  0  0  0  0
   -6.0000    0.0000    0.0000 C   0  0  0  0  0  0  0  0  0  0  0  0
   -3.0000    0.0000    0.0000 C   0  0  0  0  0  0  0  0  0  0  0  0
   -1.5000    0.0000    0.0000 C   0  0  0  0  0  0  0  0  0  0  0  0
   -0.7500    1.2990    0.0000 C   0  0  0  0  0  0  0  0  0  0  0  0
    0.7500    1.2990    0.0000 C   0  0  0  0  0  0  0  0  0  0  0  0
    1.5000    2.5981    0.0000 C   0  0  0  0  0  0  0  0  0  0  0  0
    3.0000    2.5981    0.0000 N   0  0  0  0  0  4  0  0  0  0  0  0
    3.7500    3.8971    0.0000 C   0  0  0  0  0  0  0  0  0  0  0  0
    5.2500    3.8971    0.0000 C   0  0  0  0  0  0  0  0  0  0  0  0
    6.1317    5.1106    0.0000 C   0  0  0  0  0  0  0  0  0  0  0  0
    7.5583    4.6471    0.0000 N   0  0  0  0  0  0  0  0  0  0  0  0
    8.9848    5.1106    0.0000 C   0  0  0  0  0  0  0  0  0  0  0  0
    9.8665    3.8971    0.0000 C   0  0  0  0  0  0  0  0  0  0  0  0
    8.9848    2.6836    0.0000 S   0  0  0  0  0  0  0  0  0  0  0  0
    7.5583    3.1471    0.0000 C   0  0  0  0  0  0  0  0  0  0  0  0
    6.1317    2.6836    0.0000 N   0  0  0  0  0  0  0  0  0  0  0  0
  1  2  2  0
  2  3  1  0
  2  4  1  0
  4  5  1  0
  5  6  1  0
  6  7  2  0
  7  8  1  0
  8  9  2  0
  9 10  1  0
 10 11  1  0
 11 12  1  0
 10 13  2  0
 13 14  1  0
 14 15  1  0
 13 16  1  0
 16 17  2  0
 17 18  1  0
 18 19  2  0
 19 20  1  0
 20 21  1  0
 21 22  1  0
 22 23  1  0
 23 24  2  0
 24 25  1  0
 25 26  1  0
 26 27  2  0
 27 28  1  0
 28 29  1  0
 29 30  2  0
 19  6  1  0
 30 23  1  0
 17  8  1  0
 29 25  1  0
M  CHG  1  21   1
M  END
>  <Compound_ID>  (556) 
C15067870

>  <Active>  (556) 
0.0

>  <Smiles>  (556) 
C=C(Cl)COc1nc2cc(OC)c(OC)cc2cc1C[NH2+]Cc1cn2ccsc2n1

>  <canonical_smi>  (556) 
C=C(Cl)COc1nc2cc(OC)c(OC)cc2cc1C[NH2+]Cc1cn2ccsc2n1

>  <Set>  (556) 
G2 inactive

>  <Set_type>  (556) 
Train

>  <MW>  (556) 
445.95

>  <HBD>  (556) 
1

>  <HBA>  (556) 
5

>  <NRB>  (556) 
9

>  <NR>  (556) 
4

>  <NAR>  (556) 
4

>  <PSA>  (556) 
74.49

>  <Standard Type>  (556) 
nan

>  <Standard Relation>  (556) 
nan

>  <Standard Units>  (556) 
nan

>  <Standard Value>  (556) 
nan

>  <Assay ChEMBL ID>  (556) 
nan

>  <Assay Description>  (556) 
nan

>  <BAO Label>  (556) 
nan

$$$$

     RDKit          2D

 29 32  0  0  0  0  0  0  0  0999 V2000
    3.7500   -1.2990    0.0000 C   0  0  0  0  0  0  0  0  0  0  0  0
    3.0000    0.0000    0.0000 O   0  0  0  0  0  0  0  0  0  0  0  0
    1.5000    0.0000    0.0000 C   0  0  0  0  0  0  0  0  0  0  0  0
    0.7500   -1.2990    0.0000 C   0  0  0  0  0  0  0  0  0  0  0  0
   -0.7500   -1.2990    0.0000 C   0  0  0  0  0  0  0  0  0  0  0  0
   -1.5000    0.0000    0.0000 C   0  0  0  0  0  0  0  0  0  0  0  0
   -3.0000    0.0000    0.0000 C   0  0  0  0  0  0  0  0  0  0  0  0
   -3.7500    1.2990    0.0000 C   0  0  0  0  0  0  0  0  0  0  0  0
   -5.2418    1.4558    0.0000 N   0  0  0  0  0  0  0  0  0  0  0  0
   -5.5537    2.9231    0.0000 O   0  0  0  0  0  0  0  0  0  0  0  0
   -4.2546    3.6731    0.0000 C   0  0  0  0  0  0  0  0  0  0  0  0
   -4.0978    5.1648    0.0000 C   0  0  0  0  0  0  0  0  0  0  0  0
   -2.7275    5.7749    0.0000 C   0  0  0  0  0  0  0  0  0  0  0  0
   -2.5707    7.2667    0.0000 C   0  0  0  0  0  0  0  0  0  0  0  0
   -3.7842    8.1484    0.0000 C   0  0  0  0  0  0  0  0  0  0  0  0
   -3.6274    9.6402    0.0000 O   0  0  0  0  0  0  0  0  0  0  0  0
   -2.2571   10.2503    0.0000 C   0  0  0  0  0  0  0  0  0  0  0  0
   -2.1003   11.7421    0.0000 C   0  0  0  0  0  0  0  0  0  0  0  0
   -3.5967   11.6374    0.0000 C   0  0  0  0  0  0  0  0  0  0  0  0
   -0.6584   11.3286    0.0000 C   0  0  0  0  0  0  0  0  0  0  0  0
    0.4206   12.3706    0.0000 C   0  0  0  0  0  0  0  0  0  0  0  0
    0.0577   13.8260    0.0000 C   0  0  0  0  0  0  0  0  0  0  0  0
   -1.3842   14.2395    0.0000 N   0  0  0  0  0  4  0  0  0  0  0  0
   -2.4632   13.1975    0.0000 C   0  0  0  0  0  0  0  0  0  0  0  0
   -5.1546    7.5383    0.0000 N   0  0  0  0  0  0  0  0  0  0  0  0
   -5.3113    6.0465    0.0000 C   0  0  0  0  0  0  0  0  0  0  0  0
   -3.1399    2.6694    0.0000 N   0  0  0  0  0  0  0  0  0  0  0  0
   -0.7500    1.2990    0.0000 C   0  0  0  0  0  0  0  0  0  0  0  0
    0.7500    1.2990    0.0000 C   0  0  0  0  0  0  0  0  0  0  0  0
  1  2  1  0
  2  3  1  0
  3  4  2  0
  4  5  1  0
  5  6  2  0
  6  7  1  0
  7  8  1  0
  8  9  2  0
  9 10  1  0
 10 11  1  0
 11 12  1  0
 12 13  2  0
 13 14  1  0
 14 15  2  0
 15 16  1  0
 16 17  1  0
 17 18  1  0
 18 19  1  6
 18 20  1  0
 20 21  1  0
 21 22  1  0
 22 23  1  0
 23 24  1  0
 15 25  1  0
 25 26  2  0
 11 27  2  0
  6 28  1  0
 28 29  2  0
 29  3  1  0
 27  8  1  0
 26 12  1  0
 24 18  1  0
M  CHG  1  23   1
M  END
>  <Compound_ID>  (557) 
C20865729

>  <Active>  (557) 
0.0

>  <Smiles>  (557) 
COc1ccc(Cc2noc(-c3ccc(OC[C@]4(C)CCC[NH2+]C4)nc3)n2)cc1

>  <canonical_smi>  (557) 
COc1ccc(Cc2noc(-c3ccc(OC[C@]4(C)CCC[NH2+]C4)nc3)n2)cc1

>  <Set>  (557) 
G2 inactive

>  <Set_type>  (557) 
Train

>  <MW>  (557) 
395.48

>  <HBD>  (557) 
1

>  <HBA>  (557) 
6

>  <NRB>  (557) 
7

>  <NR>  (557) 
4

>  <NAR>  (557) 
3

>  <PSA>  (557) 
86.88

>  <Standard Type>  (557) 
nan

>  <Standard Relation>  (557) 
nan

>  <Standard Units>  (557) 
nan

>  <Standard Value>  (557) 
nan

>  <Assay ChEMBL ID>  (557) 
nan

>  <Assay Description>  (557) 
nan

>  <BAO Label>  (557) 
nan

$$$$

     RDKit          2D

 31 34  0  0  0  0  0  0  0  0999 V2000
    9.0140    1.3354    0.0000 C   0  0  0  0  0  0  0  0  0  0  0  0
    9.4775   -0.0912    0.0000 C   0  0  0  0  0  0  0  0  0  0  0  0
   10.9447   -0.4031    0.0000 C   0  0  0  0  0  0  0  0  0  0  0  0
   11.4082   -1.8297    0.0000 C   0  0  0  0  0  0  0  0  0  0  0  0
   12.8755   -2.1415    0.0000 C   0  0  0  0  0  0  0  0  0  0  0  0
   14.3427   -2.4534    0.0000 F   0  0  0  0  0  0  0  0  0  0  0  0
   12.5636   -3.6088    0.0000 F   0  0  0  0  0  0  0  0  0  0  0  0
   13.1873   -0.6743    0.0000 F   0  0  0  0  0  0  0  0  0  0  0  0
   10.4045   -2.9444    0.0000 N   0  0  0  0  0  0  0  0  0  0  0  0
    8.9373   -2.6325    0.0000 C   0  0  0  0  0  0  0  0  0  0  0  0
    7.9336   -3.7472    0.0000 C   0  0  0  0  0  0  0  0  0  0  0  0
    6.4664   -3.4354    0.0000 C   0  0  0  0  0  0  0  0  0  0  0  0
    5.4627   -4.5501    0.0000 N   0  0  0  0  0  4  0  0  0  0  0  0
    3.9955   -4.2382    0.0000 C   0  0  0  0  0  0  0  0  0  0  0  0
    2.9918   -5.3529    0.0000 C   0  0  0  0  0  0  0  0  0  0  0  0
    3.3037   -6.8202    0.0000 C   0  0  0  0  0  0  0  0  0  0  0  0
    2.0046   -7.5702    0.0000 N   0  0  0  0  0  0  0  0  0  0  0  0
    1.8478   -9.0619    0.0000 C   0  0  0  0  0  0  0  0  0  0  0  0
    0.8899   -6.5665    0.0000 N   0  0  0  0  0  0  0  0  0  0  0  0
    1.5000   -5.1962    0.0000 C   0  0  0  0  0  0  0  0  0  0  0  0
    0.7500   -3.8971    0.0000 C   0  0  0  0  0  0  0  0  0  0  0  0
   -0.7500   -3.8971    0.0000 C   0  0  0  0  0  0  0  0  0  0  0  0
   -1.5000   -2.5981    0.0000 C   0  0  0  0  0  0  0  0  0  0  0  0
   -0.7500   -1.2990    0.0000 C   0  0  0  0  0  0  0  0  0  0  0  0
    0.7500   -1.2990    0.0000 C   0  0  0  0  0  0  0  0  0  0  0  0
    1.5000   -2.5981    0.0000 C   0  0  0  0  0  0  0  0  0  0  0  0
    1.5000    0.0000    0.0000 O   0  0  0  0  0  0  0  0  0  0  0  0
    0.7500    1.2990    0.0000 C   0  0  0  0  0  0  0  0  0  0  0  0
   -0.7500    1.2990    0.0000 C   0  0  0  0  0  0  0  0  0  0  0  0
   -1.5000    0.0000    0.0000 O   0  0  0  0  0  0  0  0  0  0  0  0
    8.4738   -1.2059    0.0000 N   0  0  0  0  0  0  0  0  0  0  0  0
  1  2  1  0
  2  3  2  0
  3  4  1  0
  4  5  1  0
  5  6  1  0
  5  7  1  0
  5  8  1  0
  4  9  2  0
  9 10  1  0
 10 11  1  0
 11 12  1  0
 12 13  1  0
 13 14  1  0
 14 15  1  0
 15 16  2  0
 16 17  1  0
 17 18  1  0
 17 19  1  0
 19 20  2  0
 20 21  1  0
 21 22  2  0
 22 23  1  0
 23 24  2  0
 24 25  1  0
 25 26  2  0
 25 27  1  0
 27 28  1  0
 28 29  1  0
 29 30  1  0
 10 31  2  0
 31  2  1  0
 20 15  1  0
 26 21  1  0
 30 24  1  0
M  CHG  1  13   1
M  END
>  <Compound_ID>  (558) 
C11661665

>  <Active>  (558) 
0.0

>  <Smiles>  (558) 
Cc1cc(C(F)(F)F)nc(CC[NH2+]Cc2cn(C)nc2-c2ccc3c(c2)OCCO3)n1

>  <canonical_smi>  (558) 
Cc1cc(C(F)(F)F)nc(CC[NH2+]Cc2cn(C)nc2-c2ccc3c(c2)OCCO3)n1

>  <Set>  (558) 
G2 inactive

>  <Set_type>  (558) 
Train

>  <MW>  (558) 
434.44

>  <HBD>  (558) 
1

>  <HBA>  (558) 
5

>  <NRB>  (558) 
6

>  <NR>  (558) 
4

>  <NAR>  (558) 
3

>  <PSA>  (558) 
78.67

>  <Standard Type>  (558) 
nan

>  <Standard Relation>  (558) 
nan

>  <Standard Units>  (558) 
nan

>  <Standard Value>  (558) 
nan

>  <Assay ChEMBL ID>  (558) 
nan

>  <Assay Description>  (558) 
nan

>  <BAO Label>  (558) 
nan

$$$$

     RDKit          2D

 31 33  0  0  0  0  0  0  0  0999 V2000
    8.4940    0.2336    0.0000 C   0  0  0  0  0  0  0  0  0  0  0  0
    7.9460    1.6299    0.0000 O   0  0  0  0  0  0  0  0  0  0  0  0
    6.4627    1.8535    0.0000 C   0  0  0  0  0  0  0  0  0  0  0  0
    5.5275    0.6808    0.0000 C   0  0  0  0  0  0  0  0  0  0  0  0
    4.0442    0.9043    0.0000 C   0  0  0  0  0  0  0  0  0  0  0  0
    3.4962    2.3006    0.0000 C   0  0  0  0  0  0  0  0  0  0  0  0
    2.0130    2.5242    0.0000 C   0  0  0  0  0  0  0  0  0  0  0  0
    1.0777    1.3515    0.0000 N   0  0  0  0  0  0  0  0  0  0  0  0
    1.7286    0.0000    0.0000 C   0  0  0  0  0  0  0  0  0  0  0  0
    1.0777   -1.3515    0.0000 C   0  0  0  0  0  0  0  0  0  0  0  0
   -0.3846   -1.6852    0.0000 O   0  0  0  0  0  0  0  0  0  0  0  0
   -1.5574   -0.7500    0.0000 C   0  0  0  0  0  0  0  0  0  0  0  0
   -2.8564   -1.5000    0.0000 C   0  0  0  0  0  0  0  0  0  0  0  0
   -4.1555   -0.7500    0.0000 C   0  0  0  0  0  0  0  0  0  0  0  0
   -4.1555    0.7500    0.0000 C   0  0  0  0  0  0  0  0  0  0  0  0
   -5.4545    1.5000    0.0000 C   0  0  0  0  0  0  0  0  0  0  0  0
   -6.7535    2.2500    0.0000 C   0  0  0  0  0  0  0  0  0  0  0  0
   -4.7045    2.7990    0.0000 O   0  0  0  0  0  0  0  0  0  0  0  0
   -6.2045    0.2010    0.0000 C   0  0  0  0  0  0  0  0  0  0  0  0
   -7.7045    0.2010    0.0000 N   0  0  0  0  0  4  0  0  0  0  0  0
   -8.4545   -1.0981    0.0000 C   0  0  0  0  0  0  0  0  0  0  0  0
   -8.4545    1.5000    0.0000 C   0  0  0  0  0  0  0  0  0  0  0  0
   -2.8564    1.5000    0.0000 C   0  0  0  0  0  0  0  0  0  0  0  0
   -1.5574    0.7500    0.0000 C   0  0  0  0  0  0  0  0  0  0  0  0
   -0.3846    1.6852    0.0000 C   0  0  0  0  0  0  0  0  0  0  0  0
    4.4315    3.4734    0.0000 C   0  0  0  0  0  0  0  0  0  0  0  0
    3.8835    4.8697    0.0000 O   0  0  0  0  0  0  0  0  0  0  0  0
    4.8187    6.0424    0.0000 C   0  0  0  0  0  0  0  0  0  0  0  0
    5.9147    3.2498    0.0000 C   0  0  0  0  0  0  0  0  0  0  0  0
    6.8499    4.4226    0.0000 O   0  0  0  0  0  0  0  0  0  0  0  0
    8.3332    4.1990    0.0000 C   0  0  0  0  0  0  0  0  0  0  0  0
  1  2  1  0
  2  3  1  0
  3  4  2  0
  4  5  1  0
  5  6  2  0
  6  7  1  0
  7  8  1  0
  8  9  1  0
  9 10  1  0
 10 11  1  0
 11 12  1  0
 12 13  2  0
 13 14  1  0
 14 15  2  0
 15 16  1  0
 16 17  1  6
 16 18  1  0
 16 19  1  0
 19 20  1  0
 20 21  1  0
 20 22  1  0
 15 23  1  0
 23 24  2  0
 24 25  1  0
  6 26  1  0
 26 27  1  0
 27 28  1  0
 26 29  2  0
 29 30  1  0
 30 31  1  0
 29  3  1  0
 25  8  1  0
 24 12  1  0
M  CHG  1  20   1
M  END
>  <Compound_ID>  (559) 
C55211811

>  <Active>  (559) 
0.0

>  <Smiles>  (559) 
COc1ccc(CN2CCOc3ccc([C@](C)(O)C[NH+](C)C)cc3C2)c(OC)c1OC

>  <canonical_smi>  (559) 
COc1ccc(CN2CCOc3ccc([C@](C)(O)C[NH+](C)C)cc3C2)c(OC)c1OC

>  <Set>  (559) 
G2 inactive

>  <Set_type>  (559) 
Train

>  <MW>  (559) 
431.55

>  <HBD>  (559) 
2

>  <HBA>  (559) 
6

>  <NRB>  (559) 
8

>  <NR>  (559) 
3

>  <NAR>  (559) 
2

>  <PSA>  (559) 
64.83

>  <Standard Type>  (559) 
nan

>  <Standard Relation>  (559) 
nan

>  <Standard Units>  (559) 
nan

>  <Standard Value>  (559) 
nan

>  <Assay ChEMBL ID>  (559) 
nan

>  <Assay Description>  (559) 
nan

>  <BAO Label>  (559) 
nan

$$$$

     RDKit          2D

 24 27  0  0  0  0  0  0  0  0999 V2000
    3.0770    7.2437    0.0000 C   0  0  0  0  0  0  0  0  0  0  0  0
    1.6098    6.9319    0.0000 C   0  0  0  0  0  0  0  0  0  0  0  0
    0.4951    7.9356    0.0000 C   0  0  0  0  0  0  0  0  0  0  0  0
   -0.8040    7.1856    0.0000 C   0  0  0  0  0  0  0  0  0  0  0  0
   -0.4921    5.7184    0.0000 C   0  0  0  0  0  0  0  0  0  0  0  0
   -1.4958    4.6036    0.0000 C   0  0  0  0  0  0  0  0  0  0  0  0
   -1.0323    3.1771    0.0000 C   0  0  0  0  0  0  0  0  0  0  0  0
    0.3943    2.7135    0.0000 S   0  0  0  0  0  0  0  0  0  0  0  0
    0.3943    1.2135    0.0000 C   0  0  0  0  0  0  0  0  0  0  0  0
    1.2760    0.0000    0.0000 N   0  0  0  0  0  0  0  0  0  0  0  0
    0.3943   -1.2135    0.0000 C   0  0  0  0  0  0  0  0  0  0  0  0
   -1.0323   -0.7500    0.0000 N   0  0  0  0  0  0  0  0  0  0  0  0
   -1.0323    0.7500    0.0000 N   0  0  0  0  0  0  0  0  0  0  0  0
   -1.9140    1.9635    0.0000 C   0  0  0  0  0  0  0  0  0  0  0  0
   -3.4140    1.9635    0.0000 O   0  0  0  0  0  1  0  0  0  0  0  0
   -2.9630    4.9155    0.0000 N   0  0  0  0  0  4  0  0  0  0  0  0
   -3.4266    6.3421    0.0000 C   0  0  0  0  0  0  0  0  0  0  0  0
   -4.8938    6.6540    0.0000 C   0  0  0  0  0  0  0  0  0  0  0  0
   -5.3573    8.0805    0.0000 C   0  0  0  0  0  0  0  0  0  0  0  0
   -5.8975    5.5392    0.0000 C   0  0  0  0  0  0  0  0  0  0  0  0
   -5.4340    4.1127    0.0000 C   0  0  0  0  0  0  0  0  0  0  0  0
   -6.4376    2.9979    0.0000 C   0  0  0  0  0  0  0  0  0  0  0  0
   -3.9667    3.8008    0.0000 C   0  0  0  0  0  0  0  0  0  0  0  0
    0.9997    5.5616    0.0000 O   0  0  0  0  0  0  0  0  0  0  0  0
  1  2  1  0
  2  3  2  0
  3  4  1  0
  4  5  2  0
  5  6  1  0
  6  7  1  0
  7  8  1  0
  8  9  1  0
  9 10  2  0
 10 11  1  0
 11 12  2  0
 12 13  1  0
 13 14  1  0
 14 15  1  0
  6 16  1  1
 16 17  1  0
 17 18  1  0
 18 19  1  6
 18 20  1  0
 20 21  1  0
 21 22  1  1
 21 23  1  0
  5 24  1  0
 24  2  1  0
 14  7  2  0
 23 16  1  0
 13  9  1  0
M  CHG  2  15  -1  16   1
M  END
>  <Compound_ID>  (560) 
C41637572

>  <Active>  (560) 
0.0

>  <Smiles>  (560) 
Cc1ccc([C@@H](c2sc3ncnn3c2[O-])[NH+]2C[C@@H](C)C[C@H](C)C2)o1

>  <canonical_smi>  (560) 
Cc1ccc([C@@H](c2sc3ncnn3c2[O-])[NH+]2C[C@@H](C)C[C@H](C)C2)o1

>  <Set>  (560) 
G2 inactive

>  <Set_type>  (560) 
Train

>  <MW>  (560) 
346.46

>  <HBD>  (560) 
1

>  <HBA>  (560) 
4

>  <NRB>  (560) 
3

>  <NR>  (560) 
4

>  <NAR>  (560) 
3

>  <PSA>  (560) 
70.83

>  <Standard Type>  (560) 
nan

>  <Standard Relation>  (560) 
nan

>  <Standard Units>  (560) 
nan

>  <Standard Value>  (560) 
nan

>  <Assay ChEMBL ID>  (560) 
nan

>  <Assay Description>  (560) 
nan

>  <BAO Label>  (560) 
nan

$$$$

     RDKit          2D

 23 25  0  0  0  0  0  0  0  0999 V2000
   -8.5234    9.2431    0.0000 C   0  0  0  0  0  0  0  0  0  0  0  0
   -7.0969    9.7066    0.0000 C   0  0  0  0  0  0  0  0  0  0  0  0
   -5.9821    8.7029    0.0000 O   0  0  0  0  0  0  0  0  0  0  0  0
   -4.5556    9.1664    0.0000 C   0  0  0  0  0  0  0  0  0  0  0  0
   -4.2437   10.6337    0.0000 C   0  0  0  0  0  0  0  0  0  0  0  0
   -2.8171   11.0972    0.0000 C   0  0  0  0  0  0  0  0  0  0  0  0
   -1.7024   10.0935    0.0000 C   0  0  0  0  0  0  0  0  0  0  0  0
   -2.0143    8.6263    0.0000 N   0  0  0  0  0  0  0  0  0  0  0  0
   -0.8995    7.6226    0.0000 C   0  0  0  0  0  0  0  0  0  0  0  0
    0.5271    8.0861    0.0000 O   0  0  0  0  0  0  0  0  0  0  0  0
   -1.2114    6.1554    0.0000 N   0  0  0  0  0  0  0  0  0  0  0  0
   -0.0967    5.1517    0.0000 C   0  0  0  0  0  0  0  0  0  0  0  0
    1.3299    5.6152    0.0000 C   0  0  0  0  0  0  0  0  0  0  0  0
   -0.4086    3.6844    0.0000 C   0  0  0  0  0  0  0  0  0  0  0  0
   -1.8351    3.2209    0.0000 C   0  0  0  0  0  0  0  0  0  0  0  0
   -2.1470    1.7537    0.0000 C   0  0  0  0  0  0  0  0  0  0  0  0
   -1.0323    0.7500    0.0000 C   0  0  0  0  0  0  0  0  0  0  0  0
    0.3943    1.2135    0.0000 C   0  0  0  0  0  0  0  0  0  0  0  0
    0.7062    2.6807    0.0000 C   0  0  0  0  0  0  0  0  0  0  0  0
    1.2760    0.0000    0.0000 O   0  0  0  0  0  0  0  0  0  0  0  0
    0.3943   -1.2135    0.0000 C   0  0  0  0  0  0  0  0  0  0  0  0
   -1.0323   -0.7500    0.0000 O   0  0  0  0  0  0  0  0  0  0  0  0
   -3.4408    8.1628    0.0000 C   0  0  0  0  0  0  0  0  0  0  0  0
  1  2  1  0
  2  3  1  0
  4  3  1  6
  4  5  1  0
  5  6  1  0
  6  7  1  0
  7  8  1  0
  8  9  1  0
  9 10  2  0
  9 11  1  0
 11 12  1  0
 12 13  1  1
 12 14  1  0
 14 15  2  0
 15 16  1  0
 16 17  2  0
 17 18  1  0
 18 19  2  0
 18 20  1  0
 20 21  1  0
 21 22  1  0
  8 23  1  0
 23  4  1  0
 19 14  1  0
 22 17  1  0
M  END
>  <Compound_ID>  (561) 
C67591079

>  <Active>  (561) 
0.0

>  <Smiles>  (561) 
CCO[C@@H]1CCCN(C(=O)N[C@@H](C)c2ccc3c(c2)OCO3)C1

>  <canonical_smi>  (561) 
CCO[C@@H]1CCCN(C(=O)N[C@@H](C)c2ccc3c(c2)OCO3)C1

>  <Set>  (561) 
G2 inactive

>  <Set_type>  (561) 
Train

>  <MW>  (561) 
320.39

>  <HBD>  (561) 
1

>  <HBA>  (561) 
4

>  <NRB>  (561) 
4

>  <NR>  (561) 
3

>  <NAR>  (561) 
1

>  <PSA>  (561) 
60.03

>  <Standard Type>  (561) 
nan

>  <Standard Relation>  (561) 
nan

>  <Standard Units>  (561) 
nan

>  <Standard Value>  (561) 
nan

>  <Assay ChEMBL ID>  (561) 
nan

>  <Assay Description>  (561) 
nan

>  <BAO Label>  (561) 
nan

$$$$

     RDKit          2D

 24 26  0  0  0  0  0  0  0  0999 V2000
    3.7500   -1.2990    0.0000 C   0  0  0  0  0  0  0  0  0  0  0  0
    3.0000    0.0000    0.0000 C   0  0  0  0  0  0  0  0  0  0  0  0
    1.5000    0.0000    0.0000 N   0  0  0  0  0  4  0  0  0  0  0  0
    0.7500   -1.2990    0.0000 C   0  0  0  0  0  0  0  0  0  0  0  0
   -0.7500   -1.2990    0.0000 C   0  0  0  0  0  0  0  0  0  0  0  0
   -1.5000    0.0000    0.0000 N   0  0  0  0  0  0  0  0  0  0  0  0
   -3.0000    0.0000    0.0000 C   0  0  0  0  0  0  0  0  0  0  0  0
   -3.7500    1.2990    0.0000 C   0  0  0  0  0  0  0  0  0  0  0  0
   -5.2500    1.2990    0.0000 C   0  0  0  0  0  0  0  0  0  0  0  0
   -6.0000    0.0000    0.0000 C   0  0  0  0  0  0  0  0  0  0  0  0
   -7.5000    0.0000    0.0000 N   0  0  0  0  0  0  0  0  0  0  0  0
   -8.2500    1.2990    0.0000 C   0  0  0  0  0  0  0  0  0  0  0  0
   -9.7500    1.2990    0.0000 C   0  0  0  0  0  0  0  0  0  0  0  0
  -10.5000    2.5981    0.0000 C   0  0  0  0  0  0  0  0  0  0  0  0
  -12.0000    2.5981    0.0000 C   0  0  0  0  0  0  0  0  0  0  0  0
  -12.7500    1.2990    0.0000 C   0  0  0  0  0  0  0  0  0  0  0  0
  -14.2500    1.2990    0.0000 O   0  0  0  0  0  0  0  0  0  0  0  0
  -12.0000    0.0000    0.0000 C   0  0  0  0  0  0  0  0  0  0  0  0
  -10.5000    0.0000    0.0000 C   0  0  0  0  0  0  0  0  0  0  0  0
   -9.7500   -1.2990    0.0000 O   0  0  0  0  0  0  0  0  0  0  0  0
   -5.2500   -1.2990    0.0000 C   0  0  0  0  0  0  0  0  0  0  0  0
   -3.7500   -1.2990    0.0000 C   0  0  0  0  0  0  0  0  0  0  0  0
   -0.7500    1.2990    0.0000 C   0  0  0  0  0  0  0  0  0  0  0  0
    0.7500    1.2990    0.0000 C   0  0  0  0  0  0  0  0  0  0  0  0
  1  2  1  0
  2  3  1  0
  3  4  1  0
  4  5  1  0
  5  6  1  0
  6  7  1  0
  7  8  2  0
  8  9  1  0
  9 10  2  0
 10 11  1  0
 11 12  2  0
 12 13  1  0
 13 14  2  0
 14 15  1  0
 15 16  2  0
 16 17  1  0
 16 18  1  0
 18 19  2  0
 19 20  1  0
 10 21  1  0
 21 22  2  0
  6 23  1  0
 23 24  1  0
 24  3  1  0
 22  7  1  0
 19 13  1  0
M  CHG  1   3   1
M  END
>  <Compound_ID>  (562) 
C00353118

>  <Active>  (562) 
0.0

>  <Smiles>  (562) 
CC[NH+]1CCN(c2ccc(/N=C/c3ccc(O)cc3O)cc2)CC1

>  <canonical_smi>  (562) 
CC[NH+]1CCN(c2ccc(/N=C/c3ccc(O)cc3O)cc2)CC1

>  <Set>  (562) 
G2 inactive

>  <Set_type>  (562) 
Train

>  <MW>  (562) 
326.42

>  <HBD>  (562) 
3

>  <HBA>  (562) 
3

>  <NRB>  (562) 
4

>  <NR>  (562) 
3

>  <NAR>  (562) 
2

>  <PSA>  (562) 
60.5

>  <Standard Type>  (562) 
nan

>  <Standard Relation>  (562) 
nan

>  <Standard Units>  (562) 
nan

>  <Standard Value>  (562) 
nan

>  <Assay ChEMBL ID>  (562) 
nan

>  <Assay Description>  (562) 
nan

>  <BAO Label>  (562) 
nan

$$$$

     RDKit          2D

 24 26  0  0  0  0  0  0  0  0999 V2000
    3.0000    0.0000    0.0000 C   0  0  0  0  0  0  0  0  0  0  0  0
    1.5000    0.0000    0.0000 C   0  0  0  0  0  0  0  0  0  0  0  0
    0.7500   -1.2990    0.0000 C   0  0  0  0  0  0  0  0  0  0  0  0
   -0.7500   -1.2990    0.0000 C   0  0  0  0  0  0  0  0  0  0  0  0
   -1.5000   -2.5981    0.0000 O   0  0  0  0  0  0  0  0  0  0  0  0
   -1.5000    0.0000    0.0000 C   0  0  0  0  0  0  0  0  0  0  0  0
   -3.0000    0.0000    0.0000 C   0  0  0  0  0  0  0  0  0  0  0  0
   -3.8817   -1.2135    0.0000 N   0  0  0  0  0  4  0  0  0  0  0  0
   -5.3083   -0.7500    0.0000 N   0  0  0  0  0  0  0  0  0  0  0  0
   -5.3083    0.7500    0.0000 C   0  0  0  0  0  0  0  0  0  0  0  0
   -6.5218    1.6317    0.0000 C   0  0  0  0  0  0  0  0  0  0  0  0
   -7.7353    2.5134    0.0000 F   0  0  0  0  0  0  0  0  0  0  0  0
   -5.6401    2.8452    0.0000 F   0  0  0  0  0  0  0  0  0  0  0  0
   -7.4035    0.4182    0.0000 F   0  0  0  0  0  0  0  0  0  0  0  0
   -3.8817    1.2135    0.0000 C   0  0  0  0  0  0  0  0  0  0  0  0
   -3.4182    2.6401    0.0000 C   0  0  0  0  0  0  0  0  0  0  0  0
   -1.9916    3.1036    0.0000 C   0  0  0  0  0  0  0  0  0  0  0  0
   -1.9916    4.6036    0.0000 S   0  0  0  0  0  0  0  0  0  0  0  0
   -3.4182    5.0672    0.0000 C   0  0  0  0  0  0  0  0  0  0  0  0
   -3.8817    6.4937    0.0000 C   0  0  0  0  0  0  0  0  0  0  0  0
   -4.2998    3.8536    0.0000 N   0  0  0  0  0  0  0  0  0  0  0  0
   -0.7500    1.2990    0.0000 C   0  0  0  0  0  0  0  0  0  0  0  0
   -1.1634    2.7410    0.0000 O   0  0  0  0  0  0  0  0  0  0  0  0
    0.7500    1.2990    0.0000 C   0  0  0  0  0  0  0  0  0  0  0  0
  1  2  1  0
  2  3  2  0
  3  4  1  0
  4  5  1  0
  4  6  2  0
  7  6  1  6
  7  8  1  0
  8  9  2  0
  9 10  1  0
 10 11  1  0
 11 12  1  0
 11 13  1  0
 11 14  1  0
 10 15  2  0
 15 16  1  0
 16 17  2  0
 17 18  1  0
 18 19  1  0
 19 20  1  0
 19 21  2  0
  6 22  1  0
 22 23  1  0
 22 24  2  0
 24  2  1  0
 15  7  1  0
 21 16  1  0
M  CHG  1   8   1
M  END
>  <Compound_ID>  (563) 
C39551190

>  <Active>  (563) 
0.0

>  <Smiles>  (563) 
Cc1cc(O)c([C@@H]2[NH+]=NC(C(F)(F)F)=C2c2csc(C)n2)c(O)c1

>  <canonical_smi>  (563) 
Cc1cc(O)c([C@@H]2[NH+]=NC(C(F)(F)F)=C2c2csc(C)n2)c(O)c1

>  <Set>  (563) 
G2 inactive

>  <Set_type>  (563) 
Train

>  <MW>  (563) 
356.35

>  <HBD>  (563) 
3

>  <HBA>  (563) 
3

>  <NRB>  (563) 
2

>  <NR>  (563) 
3

>  <NAR>  (563) 
2

>  <PSA>  (563) 
79.68

>  <Standard Type>  (563) 
nan

>  <Standard Relation>  (563) 
nan

>  <Standard Units>  (563) 
nan

>  <Standard Value>  (563) 
nan

>  <Assay ChEMBL ID>  (563) 
nan

>  <Assay Description>  (563) 
nan

>  <BAO Label>  (563) 
nan

$$$$

     RDKit          2D

 24 27  0  0  0  0  0  0  0  0999 V2000
    6.8516   -6.6578    0.0000 O   0  0  0  0  0  0  0  0  0  0  0  0
    5.6381   -7.5395    0.0000 C   0  0  0  0  0  0  0  0  0  0  0  0
    5.7949   -9.0313    0.0000 C   0  0  0  0  0  0  0  0  0  0  0  0
    7.1652   -9.6414    0.0000 C   0  0  0  0  0  0  0  0  0  0  0  0
    8.4642   -8.8914    0.0000 C   0  0  0  0  0  0  0  0  0  0  0  0
    9.5789   -9.8951    0.0000 C   0  0  0  0  0  0  0  0  0  0  0  0
    8.9688  -11.2654    0.0000 C   0  0  0  0  0  0  0  0  0  0  0  0
    9.7188  -12.5644    0.0000 O   0  0  0  0  0  0  0  0  0  0  0  0
    7.4770  -11.1086    0.0000 N   0  0  0  0  0  0  0  0  0  0  0  0
    4.2677   -6.9294    0.0000 N   0  0  0  0  0  0  0  0  0  0  0  0
    4.1110   -5.4376    0.0000 C   0  0  0  0  0  0  0  0  0  0  0  0
    2.7406   -4.8275    0.0000 C   0  0  0  0  0  0  0  0  0  0  0  0
    1.5271   -5.7092    0.0000 C   0  0  0  0  0  0  0  0  0  0  0  0
    0.1568   -5.0991    0.0000 C   0  0  0  0  0  0  0  0  0  0  0  0
    0.0000   -3.6073    0.0000 C   0  0  0  0  0  0  0  0  0  0  0  0
    1.2135   -2.7256    0.0000 C   0  0  0  0  0  0  0  0  0  0  0  0
    2.5838   -3.3357    0.0000 C   0  0  0  0  0  0  0  0  0  0  0  0
    0.7500   -1.2990    0.0000 C   0  0  0  0  0  0  0  0  0  0  0  0
    1.5000    0.0000    0.0000 C   0  0  0  0  0  0  0  0  0  0  0  0
    0.7500    1.2990    0.0000 C   0  0  0  0  0  0  0  0  0  0  0  0
   -0.7500    1.2990    0.0000 C   0  0  0  0  0  0  0  0  0  0  0  0
   -1.5000    0.0000    0.0000 C   0  0  0  0  0  0  0  0  0  0  0  0
   -0.7500   -1.2990    0.0000 C   0  0  0  0  0  0  0  0  0  0  0  0
   -1.2135   -2.7256    0.0000 N   0  0  0  0  0  4  0  0  0  0  0  0
  1  2  2  0
  2  3  1  0
  4  3  1  6
  4  5  1  0
  5  6  1  0
  6  7  1  0
  7  8  2  0
  7  9  1  0
  2 10  1  0
 10 11  1  0
 11 12  1  0
 12 13  1  0
 13 14  2  0
 14 15  1  0
 15 16  1  0
 16 17  1  0
 16 18  2  0
 18 19  1  0
 19 20  1  0
 20 21  1  0
 21 22  1  0
 23 22  1  6
 23 24  1  0
  9  4  1  0
 17 12  2  0
 23 18  1  0
 24 15  2  0
M  CHG  1  24   1
M  END
>  <Compound_ID>  (564) 
C64061636

>  <Active>  (564) 
0.0

>  <Smiles>  (564) 
O=C(C[C@@H]1CCC(=O)N1)NCc1ccc2c(c1)=C1CCCC[C@H]1[NH+]=2

>  <canonical_smi>  (564) 
O=C(C[C@@H]1CCC(=O)N1)NCc1ccc2c(c1)=C1CCCC[C@H]1[NH+]=2

>  <Set>  (564) 
G2 inactive

>  <Set_type>  (564) 
Train

>  <MW>  (564) 
326.42

>  <HBD>  (564) 
3

>  <HBA>  (564) 
2

>  <NRB>  (564) 
4

>  <NR>  (564) 
4

>  <NAR>  (564) 
1

>  <PSA>  (564) 
72.17

>  <Standard Type>  (564) 
nan

>  <Standard Relation>  (564) 
nan

>  <Standard Units>  (564) 
nan

>  <Standard Value>  (564) 
nan

>  <Assay ChEMBL ID>  (564) 
nan

>  <Assay Description>  (564) 
nan

>  <BAO Label>  (564) 
nan

$$$$

     RDKit          2D

 28 30  0  0  0  0  0  0  0  0999 V2000
   -1.2135   -7.3421    0.0000 C   0  0  0  0  0  0  0  0  0  0  0  0
   -0.7500   -5.9156    0.0000 C   0  0  0  0  0  0  0  0  0  0  0  0
    0.7500   -5.9156    0.0000 C   0  0  0  0  0  0  0  0  0  0  0  0
    1.9635   -5.0339    0.0000 C   0  0  0  0  0  0  0  0  0  0  0  0
    2.4271   -3.6073    0.0000 C   0  0  0  0  0  0  0  0  0  0  0  0
    1.9635   -2.1807    0.0000 C   0  0  0  0  0  0  0  0  0  0  0  0
    0.7500   -1.2990    0.0000 C   0  0  0  0  0  0  0  0  0  0  0  0
    1.5000    0.0000    0.0000 C   0  0  0  0  0  0  0  0  0  0  0  0
    3.0000    0.0000    0.0000 O   0  0  0  0  0  0  0  0  0  0  0  0
    0.7500    1.2990    0.0000 C   0  0  0  0  0  0  0  0  0  0  0  0
   -0.7500    1.2990    0.0000 C   0  0  0  0  0  0  0  0  0  0  0  0
   -1.5000    0.0000    0.0000 C   0  0  0  0  0  0  0  0  0  0  0  0
   -2.9918   -0.1568    0.0000 O   0  0  0  0  0  0  0  0  0  0  0  0
   -3.3037   -1.6240    0.0000 C   0  0  0  0  0  0  0  0  0  0  0  0
   -4.6740   -2.2341    0.0000 C   0  0  0  0  0  0  0  0  0  0  0  0
   -5.8875   -1.3524    0.0000 C   0  0  0  0  0  0  0  0  0  0  0  0
   -7.2578   -1.9625    0.0000 C   0  0  0  0  0  0  0  0  0  0  0  0
   -8.4713   -1.0809    0.0000 C   0  0  0  0  0  0  0  0  0  0  0  0
   -9.8417   -1.6910    0.0000 C   0  0  0  0  0  0  0  0  0  0  0  0
  -11.0552   -0.8093    0.0000 C   0  0  0  0  0  0  0  0  0  0  0  0
  -12.4255   -1.4194    0.0000 C   0  0  0  0  0  0  0  0  0  0  0  0
  -12.5823   -2.9112    0.0000 O   0  0  0  0  0  0  0  0  0  0  0  0
  -13.6390   -0.5377    0.0000 O   0  0  0  0  0  1  0  0  0  0  0  0
   -1.9635   -2.1807    0.0000 C   0  0  0  0  0  0  0  0  0  0  0  0
   -2.4271   -3.6073    0.0000 C   0  0  0  0  0  0  0  0  0  0  0  0
   -3.9271   -3.6073    0.0000 O   0  0  0  0  0  0  0  0  0  0  0  0
   -1.9635   -5.0339    0.0000 O   0  0  0  0  0  0  0  0  0  0  0  0
   -0.7500   -1.2990    0.0000 C   0  0  0  0  0  0  0  0  0  0  0  0
  2  1  1  6
  2  3  1  0
  3  4  1  0
  4  5  1  0
  5  6  1  0
  6  7  2  0
  7  8  1  0
  8  9  2  0
  8 10  1  0
 10 11  2  0
 11 12  1  0
 12 13  1  6
 13 14  1  0
 14 15  1  0
 15 16  2  0
 16 17  1  0
 17 18  2  0
 18 19  1  0
 19 20  2  0
 20 21  1  0
 21 22  2  0
 21 23  1  0
 14 24  2  0
 24 25  1  0
 25 26  2  0
 25 27  1  0
 28 24  1  1
 27  2  1  0
 28  7  1  0
 28 12  1  0
M  CHG  1  23  -1
M  END
>  <Compound_ID>  (565) 
C36374826

>  <Active>  (565) 
0.0

>  <Smiles>  (565) 
C[C@H]1CCC/C=C2/C(=O)C=C[C@H]3OC(/C=C/C=C/C=C/C(=O)[O-])=C(C(=O)O1)[C@H]23

>  <canonical_smi>  (565) 
C[C@H]1CCC/C=C2/C(=O)C=C[C@H]3OC(/C=C/C=C/C=C/C(=O)[O-])=C(C(=O)O1)[C@H]23

>  <Set>  (565) 
G2 inactive

>  <Set_type>  (565) 
Train

>  <MW>  (565) 
381.4

>  <HBD>  (565) 
0

>  <HBA>  (565) 
6

>  <NRB>  (565) 
4

>  <NR>  (565) 
3

>  <NAR>  (565) 
0

>  <PSA>  (565) 
92.73

>  <Standard Type>  (565) 
nan

>  <Standard Relation>  (565) 
nan

>  <Standard Units>  (565) 
nan

>  <Standard Value>  (565) 
nan

>  <Assay ChEMBL ID>  (565) 
nan

>  <Assay Description>  (565) 
nan

>  <BAO Label>  (565) 
nan

$$$$

     RDKit          2D

 35 39  0  0  0  0  0  0  0  0999 V2000
    5.4933   -4.1162    0.0000 O   0  0  0  0  0  0  0  0  0  0  0  0
    4.3786   -5.1199    0.0000 C   0  0  0  0  0  0  0  0  0  0  0  0
    4.6904   -6.5871    0.0000 N   0  0  0  0  0  0  0  0  0  0  0  0
    6.1170   -7.0506    0.0000 C   0  0  0  0  0  0  0  0  0  0  0  0
    6.4289   -8.5179    0.0000 C   0  0  0  0  0  0  0  0  0  0  0  0
    7.8555   -8.9814    0.0000 C   0  0  0  0  0  0  0  0  0  0  0  0
    9.0690   -8.0997    0.0000 C   0  0  0  0  0  0  0  0  0  0  0  0
   10.2825   -8.9814    0.0000 C   0  0  0  0  0  0  0  0  0  0  0  0
    9.8190  -10.4080    0.0000 C   0  0  0  0  0  0  0  0  0  0  0  0
    8.3190  -10.4080    0.0000 N   0  0  0  0  0  0  0  0  0  0  0  0
    7.4373  -11.6215    0.0000 C   0  0  0  0  0  0  0  0  0  0  0  0
    5.9455  -11.4647    0.0000 C   0  0  0  0  0  0  0  0  0  0  0  0
    5.0639  -12.6782    0.0000 C   0  0  0  0  0  0  0  0  0  0  0  0
    5.6740  -14.0486    0.0000 C   0  0  0  0  0  0  0  0  0  0  0  0
    4.7923  -15.2621    0.0000 O   0  0  0  0  0  0  0  0  0  0  0  0
    7.1657  -14.2053    0.0000 C   0  0  0  0  0  0  0  0  0  0  0  0
    8.0474  -12.9918    0.0000 C   0  0  0  0  0  0  0  0  0  0  0  0
    7.2317   -6.0469    0.0000 C   0  0  0  0  0  0  0  0  0  0  0  0
    6.9199   -4.5797    0.0000 O   0  0  0  0  0  0  0  0  0  0  0  0
    8.6583   -6.5105    0.0000 O   0  0  0  0  0  1  0  0  0  0  0  0
    2.9520   -4.6564    0.0000 O   0  0  0  0  0  0  0  0  0  0  0  0
    2.6401   -3.1891    0.0000 C   0  0  0  0  0  0  0  0  0  0  0  0
    1.2135   -2.7256    0.0000 C   0  0  0  0  0  0  0  0  0  0  0  0
    0.7500   -1.2990    0.0000 C   0  0  0  0  0  0  0  0  0  0  0  0
    1.5000    0.0000    0.0000 C   0  0  0  0  0  0  0  0  0  0  0  0
    0.7500    1.2990    0.0000 C   0  0  0  0  0  0  0  0  0  0  0  0
   -0.7500    1.2990    0.0000 C   0  0  0  0  0  0  0  0  0  0  0  0
   -1.5000    0.0000    0.0000 C   0  0  0  0  0  0  0  0  0  0  0  0
   -0.7500   -1.2990    0.0000 C   0  0  0  0  0  0  0  0  0  0  0  0
   -1.2135   -2.7256    0.0000 C   0  0  0  0  0  0  0  0  0  0  0  0
   -2.5838   -3.3357    0.0000 C   0  0  0  0  0  0  0  0  0  0  0  0
   -2.7406   -4.8275    0.0000 C   0  0  0  0  0  0  0  0  0  0  0  0
   -1.5271   -5.7092    0.0000 C   0  0  0  0  0  0  0  0  0  0  0  0
   -0.1568   -5.0991    0.0000 C   0  0  0  0  0  0  0  0  0  0  0  0
   -0.0000   -3.6073    0.0000 C   0  0  0  0  0  0  0  0  0  0  0  0
  1  2  2  0
  2  3  1  0
  3  4  1  0
  4  5  1  1
  5  6  1  0
  6  7  2  0
  7  8  1  0
  8  9  2  0
  9 10  1  0
 10 11  1  0
 11 12  2  0
 12 13  1  0
 13 14  2  0
 14 15  1  0
 14 16  1  0
 16 17  2  0
  4 18  1  0
 18 19  2  0
 18 20  1  0
  2 21  1  0
 21 22  1  0
 22 23  1  0
 23 24  1  0
 24 25  2  0
 25 26  1  0
 26 27  2  0
 27 28  1  0
 28 29  2  0
 29 30  1  0
 30 31  2  0
 31 32  1  0
 32 33  2  0
 33 34  1  0
 34 35  2  0
 10  6  1  0
 17 11  1  0
 35 23  1  0
 29 24  1  0
 35 30  1  0
M  CHG  1  20  -1
M  END
>  <Compound_ID>  (566) 
C44325287

>  <Active>  (566) 
0.0

>  <Smiles>  (566) 
O=C(N[C@H](Cc1cccn1-c1ccc(O)cc1)C(=O)[O-])OCC1c2ccccc2-c2ccccc21

>  <canonical_smi>  (566) 
O=C(N[C@H](Cc1cccn1-c1ccc(O)cc1)C(=O)[O-])OCC1c2ccccc2-c2ccccc21

>  <Set>  (566) 
G2 inactive

>  <Set_type>  (566) 
Train

>  <MW>  (566) 
467.5

>  <HBD>  (566) 
2

>  <HBA>  (566) 
5

>  <NRB>  (566) 
7

>  <NR>  (566) 
5

>  <NAR>  (566) 
4

>  <PSA>  (566) 
103.62

>  <Standard Type>  (566) 
nan

>  <Standard Relation>  (566) 
nan

>  <Standard Units>  (566) 
nan

>  <Standard Value>  (566) 
nan

>  <Assay ChEMBL ID>  (566) 
nan

>  <Assay Description>  (566) 
nan

>  <BAO Label>  (566) 
nan

$$$$

     RDKit          2D

 21 21  0  0  0  0  0  0  0  0999 V2000
    5.2077    1.4153    0.0000 C   0  0  0  0  0  0  0  0  0  0  0  0
    4.0586    0.4512    0.0000 C   0  0  0  0  0  0  0  0  0  0  0  0
    2.6491    0.9642    0.0000 C   0  0  0  0  0  0  0  0  0  0  0  0
    1.5000    0.0000    0.0000 C   0  0  0  0  0  0  0  0  0  0  0  0
    2.6491   -0.9642    0.0000 N   0  0  0  0  0  4  0  0  0  0  0  0
    4.0586   -0.4512    0.0000 O   0  0  0  0  0  0  0  0  0  0  0  0
    2.3886   -2.4414    0.0000 O   0  0  0  0  0  1  0  0  0  0  0  0
    0.7500   -1.2990    0.0000 C   0  0  0  0  0  0  0  0  0  0  0  0
   -0.7500   -1.2990    0.0000 C   0  0  0  0  0  0  0  0  0  0  0  0
   -1.5000    0.0000    0.0000 C   0  0  0  0  0  0  0  0  0  0  0  0
   -2.6491   -0.9642    0.0000 C   0  0  0  0  0  0  0  0  0  0  0  0
   -2.6491    0.9642    0.0000 O   0  0  0  0  0  0  0  0  0  0  0  0
   -0.7500    1.2990    0.0000 C   0  0  0  0  0  0  0  0  0  0  0  0
   -1.5000    2.5981    0.0000 C   0  0  0  0  0  0  0  0  0  0  0  0
   -3.0000    2.5981    0.0000 C   0  0  0  0  0  0  0  0  0  0  0  0
   -0.7500    3.8971    0.0000 N   0  0  0  0  0  0  0  0  0  0  0  0
   -1.5000    5.1962    0.0000 N   0  0  0  0  0  0  0  0  0  0  0  0
   -0.7500    6.4952    0.0000 C   0  0  0  0  0  0  0  0  0  0  0  0
   -1.5000    7.7942    0.0000 N   0  0  0  0  0  0  0  0  0  0  0  0
    0.7500    6.4952    0.0000 O   0  0  0  0  0  0  0  0  0  0  0  0
    0.7500    1.2990    0.0000 C   0  0  0  0  0  0  0  0  0  0  0  0
  1  2  1  0
  2  3  1  0
  4  3  1  6
  4  5  1  0
  5  6  2  0
  5  7  1  0
  4  8  1  0
  8  9  1  0
  9 10  1  0
 10 11  1  1
 10 12  1  0
 10 13  1  0
 13 14  1  6
 14 15  1  0
 14 16  2  0
 16 17  1  0
 17 18  1  0
 18 19  1  0
 18 20  2  0
 13 21  1  0
 21  4  1  0
M  CHG  2   5   1   7  -1
M  END
>  <Compound_ID>  (567) 
C16951453

>  <Active>  (567) 
0.0

>  <Smiles>  (567) 
CCC[C@]1([N+](=O)[O-])CC[C@](C)(O)[C@H](/C(C)=N/NC(N)=O)C1

>  <canonical_smi>  (567) 
CCC[C@]1([N+](=O)[O-])CC[C@](C)(O)[C@H](/C(C)=N/NC(N)=O)C1

>  <Set>  (567) 
G2 inactive

>  <Set_type>  (567) 
Train

>  <MW>  (567) 
300.36

>  <HBD>  (567) 
3

>  <HBA>  (567) 
4

>  <NRB>  (567) 
5

>  <NR>  (567) 
1

>  <NAR>  (567) 
0

>  <PSA>  (567) 
130.85

>  <Standard Type>  (567) 
nan

>  <Standard Relation>  (567) 
nan

>  <Standard Units>  (567) 
nan

>  <Standard Value>  (567) 
nan

>  <Assay ChEMBL ID>  (567) 
nan

>  <Assay Description>  (567) 
nan

>  <BAO Label>  (567) 
nan

$$$$

     RDKit          2D

 20 20  0  0  0  0  0  0  0  0999 V2000
    3.7500   -6.4952    0.0000 C   0  0  0  0  0  0  0  0  0  0  0  0
    3.0000   -5.1962    0.0000 C   0  0  0  0  0  0  0  0  0  0  0  0
    1.5000   -5.1962    0.0000 C   0  0  0  0  0  0  0  0  0  0  0  0
    3.7500   -3.8971    0.0000 N   0  0  0  0  0  0  0  0  0  0  0  0
    3.0000   -2.5981    0.0000 C   0  0  0  0  0  0  0  0  0  0  0  0
    1.5000   -2.5981    0.0000 O   0  0  0  0  0  0  0  0  0  0  0  0
    3.7500   -1.2990    0.0000 C   0  0  0  0  0  0  0  0  0  0  0  0
    5.2500   -1.2990    0.0000 C   0  0  0  0  0  0  0  0  0  0  0  0
    3.0000    0.0000    0.0000 S   0  0  0  0  0  0  0  0  0  0  0  0
    1.5000    0.0000    0.0000 C   0  0  0  0  0  0  0  0  0  0  0  0
    0.7500   -1.2990    0.0000 N   0  0  0  0  0  0  0  0  0  0  0  0
   -0.7500   -1.2990    0.0000 C   0  0  0  0  0  0  0  0  0  0  0  0
   -1.5000   -2.5981    0.0000 N   0  0  0  0  0  0  0  0  0  0  0  0
   -1.5000    0.0000    0.0000 N   0  0  0  0  0  0  0  0  0  0  0  0
   -0.7500    1.2990    0.0000 C   0  0  0  0  0  0  0  0  0  0  0  0
   -1.5000    2.5981    0.0000 N   0  0  0  0  0  0  0  0  0  0  0  0
    0.7500    1.2990    0.0000 N   0  0  0  0  0  0  0  0  0  0  0  0
    5.2500   -3.8971    0.0000 C   0  0  0  0  0  0  0  0  0  0  0  0
    6.0000   -5.1962    0.0000 C   0  0  0  0  0  0  0  0  0  0  0  0
    6.0000   -2.5981    0.0000 C   0  0  0  0  0  0  0  0  0  0  0  0
  1  2  1  0
  2  3  1  0
  2  4  1  0
  4  5  1  0
  5  6  2  0
  5  7  1  0
  7  8  1  1
  7  9  1  0
  9 10  1  0
 10 11  2  0
 11 12  1  0
 12 13  1  0
 12 14  2  0
 14 15  1  0
 15 16  1  0
 15 17  2  0
  4 18  1  0
 18 19  1  0
 18 20  1  0
 17 10  1  0
M  END
>  <Compound_ID>  (568) 
C16945136

>  <Active>  (568) 
0.0

>  <Smiles>  (568) 
CC(C)N(C(=O)[C@H](C)Sc1nc(N)nc(N)n1)C(C)C

>  <canonical_smi>  (568) 
CC(C)N(C(=O)[C@H](C)Sc1nc(N)nc(N)n1)C(C)C

>  <Set>  (568) 
G2 inactive

>  <Set_type>  (568) 
Train

>  <MW>  (568) 
298.42

>  <HBD>  (568) 
2

>  <HBA>  (568) 
7

>  <NRB>  (568) 
5

>  <NR>  (568) 
1

>  <NAR>  (568) 
1

>  <PSA>  (568) 
111.02

>  <Standard Type>  (568) 
nan

>  <Standard Relation>  (568) 
nan

>  <Standard Units>  (568) 
nan

>  <Standard Value>  (568) 
nan

>  <Assay ChEMBL ID>  (568) 
nan

>  <Assay Description>  (568) 
nan

>  <BAO Label>  (568) 
nan

$$$$

     RDKit          2D

 18 19  0  0  0  0  0  0  0  0999 V2000
   -9.4590    4.8414    0.0000 N   0  0  0  0  0  0  0  0  0  0  0  0
   -9.7709    3.3742    0.0000 C   0  0  0  0  0  0  0  0  0  0  0  0
   -8.6562    2.3705    0.0000 C   0  0  0  0  0  0  0  0  0  0  0  0
   -7.2296    2.8340    0.0000 C   0  0  0  0  0  0  0  0  0  0  0  0
   -6.1149    1.8303    0.0000 C   0  0  0  0  0  0  0  0  0  0  0  0
   -4.6883    2.2939    0.0000 C   0  0  0  0  0  0  0  0  0  0  0  0
   -3.5736    1.2902    0.0000 S   0  0  0  0  0  0  0  0  0  0  0  0
   -2.1470    1.7537    0.0000 C   0  0  0  0  0  0  0  0  0  0  0  0
   -1.8351    3.2209    0.0000 N   0  0  0  0  0  0  0  0  0  0  0  0
   -0.4086    3.6844    0.0000 C   0  0  0  0  0  0  0  0  0  0  0  0
    0.7062    2.6807    0.0000 N   0  0  0  0  0  0  0  0  0  0  0  0
    0.3943    1.2135    0.0000 C   0  0  0  0  0  0  0  0  0  0  0  0
    1.2760    0.0000    0.0000 N   0  0  0  0  0  0  0  0  0  0  0  0
    0.3943   -1.2135    0.0000 C   0  0  0  0  0  0  0  0  0  0  0  0
   -1.0323   -0.7500    0.0000 N   0  0  0  0  0  0  0  0  0  0  0  0
   -1.0323    0.7500    0.0000 C   0  0  0  0  0  0  0  0  0  0  0  0
  -11.1975    2.9107    0.0000 N   0  0  0  0  0  0  0  0  0  0  0  0
  -11.5094    1.4435    0.0000 O   0  0  0  0  0  0  0  0  0  0  0  0
  1  2  1  0
  2  3  1  0
  3  4  1  0
  4  5  1  0
  5  6  1  0
  6  7  1  0
  7  8  1  0
  8  9  2  0
  9 10  1  0
 10 11  2  0
 11 12  1  0
 12 13  1  0
 13 14  2  0
 14 15  1  0
 15 16  1  0
  2 17  2  0
 17 18  1  0
 16  8  1  0
 16 12  2  0
M  END
>  <Compound_ID>  (569) 
C51036553

>  <Active>  (569) 
0.0

>  <Smiles>  (569) 
N/C(CCCCSc1ncnc2nc[nH]c12)=N/O

>  <canonical_smi>  (569) 
N/C(CCCCSc1ncnc2nc[nH]c12)=N/O

>  <Set>  (569) 
G2 inactive

>  <Set_type>  (569) 
Train

>  <MW>  (569) 
266.33

>  <HBD>  (569) 
3

>  <HBA>  (569) 
6

>  <NRB>  (569) 
6

>  <NR>  (569) 
2

>  <NAR>  (569) 
2

>  <PSA>  (569) 
113.07

>  <Standard Type>  (569) 
nan

>  <Standard Relation>  (569) 
nan

>  <Standard Units>  (569) 
nan

>  <Standard Value>  (569) 
nan

>  <Assay ChEMBL ID>  (569) 
nan

>  <Assay Description>  (569) 
nan

>  <BAO Label>  (569) 
nan

$$$$

     RDKit          2D

 19 19  0  0  0  0  0  0  0  0999 V2000
    7.5000    2.5981    0.0000 C   0  0  0  0  0  0  0  0  0  0  0  0
    6.7500    1.2990    0.0000 C   0  0  0  0  0  0  0  0  0  0  0  0
    5.2500    1.2990    0.0000 C   0  0  0  0  0  0  0  0  0  0  0  0
    4.5000    2.5981    0.0000 C   0  0  0  0  0  0  0  0  0  0  0  0
    5.2500    3.8971    0.0000 C   0  0  0  0  0  0  0  0  0  0  0  0
    6.7500    3.8971    0.0000 N   0  0  0  0  0  0  0  0  0  0  0  0
    4.5000    5.1962    0.0000 N   0  0  0  0  0  0  0  0  0  0  0  0
    5.2500    6.4952    0.0000 O   0  0  0  0  0  0  0  0  0  0  0  0
    4.5000    0.0000    0.0000 N   0  0  0  0  0  0  0  0  0  0  0  0
    3.0000    0.0000    0.0000 S   0  0  0  0  0  0  0  0  0  0  0  0
    3.0000    1.5000    0.0000 O   0  0  0  0  0  0  0  0  0  0  0  0
    3.0000   -1.5000    0.0000 O   0  0  0  0  0  0  0  0  0  0  0  0
    1.5000    0.0000    0.0000 N   0  0  0  0  0  0  0  0  0  0  0  0
    0.7500   -1.2990    0.0000 C   0  0  0  0  0  0  0  0  0  0  0  0
   -0.7500   -1.2990    0.0000 C   0  0  0  0  0  0  0  0  0  0  0  0
   -1.5000    0.0000    0.0000 C   0  0  0  0  0  0  0  0  0  0  0  0
   -0.7500    1.2990    0.0000 C   0  0  0  0  0  0  0  0  0  0  0  0
   -1.5000    2.5981    0.0000 C   0  0  0  0  0  0  0  0  0  0  0  0
    0.7500    1.2990    0.0000 C   0  0  0  0  0  0  0  0  0  0  0  0
  1  2  1  0
  3  2  1  6
  3  4  1  0
  4  5  1  0
  5  6  1  0
  5  7  2  0
  7  8  1  0
  3  9  1  0
  9 10  1  0
 10 11  2  0
 10 12  2  0
 10 13  1  0
 13 14  1  0
 14 15  1  0
 15 16  1  0
 16 17  1  0
 17 18  1  6
 17 19  1  0
 19 13  1  0
M  END
>  <Compound_ID>  (570) 
C54163449

>  <Active>  (570) 
0.0

>  <Smiles>  (570) 
CC[C@@H](C/C(N)=N/O)NS(=O)(=O)N1CCC[C@H](C)C1

>  <canonical_smi>  (570) 
CC[C@@H](C/C(N)=N/O)NS(=O)(=O)N1CCC[C@H](C)C1

>  <Set>  (570) 
G2 inactive

>  <Set_type>  (570) 
Train

>  <MW>  (570) 
292.41

>  <HBD>  (570) 
3

>  <HBA>  (570) 
4

>  <NRB>  (570) 
6

>  <NR>  (570) 
1

>  <NAR>  (570) 
0

>  <PSA>  (570) 
108.02

>  <Standard Type>  (570) 
nan

>  <Standard Relation>  (570) 
nan

>  <Standard Units>  (570) 
nan

>  <Standard Value>  (570) 
nan

>  <Assay ChEMBL ID>  (570) 
nan

>  <Assay Description>  (570) 
nan

>  <BAO Label>  (570) 
nan

$$$$

     RDKit          2D

 12 13  0  0  0  0  0  0  0  0999 V2000
    2.7760    0.0000    0.0000 C   0  0  0  0  0  0  0  0  0  0  0  0
    1.2760    0.0000    0.0000 C   0  0  0  0  0  0  0  0  0  0  0  0
    0.3943    1.2135    0.0000 C   0  0  0  0  0  0  0  0  0  0  0  0
   -1.0323    0.7500    0.0000 S   0  0  0  0  0  0  0  0  0  0  0  0
   -1.0323   -0.7500    0.0000 C   0  0  0  0  0  0  0  0  0  0  0  0
   -2.1470   -1.7537    0.0000 N   0  0  0  0  0  0  0  0  0  0  0  0
   -1.8351   -3.2209    0.0000 C   0  0  0  0  0  0  0  0  0  0  0  0
   -2.9499   -4.2246    0.0000 O   0  0  0  0  0  0  0  0  0  0  0  0
   -0.4086   -3.6844    0.0000 N   0  0  0  0  0  0  0  0  0  0  0  0
    0.7062   -2.6807    0.0000 C   0  0  0  0  0  0  0  0  0  0  0  0
    2.1328   -3.1443    0.0000 O   0  0  0  0  0  0  0  0  0  0  0  0
    0.3943   -1.2135    0.0000 C   0  0  0  0  0  0  0  0  0  0  0  0
  1  2  1  0
  2  3  2  0
  3  4  1  0
  4  5  1  0
  5  6  1  6
  6  7  1  0
  7  8  2  0
  7  9  1  0
  9 10  1  0
 10 11  2  0
 12 10  1  6
 12  2  1  0
 12  5  1  0
M  END
>  <Compound_ID>  (571) 
C11919407

>  <Active>  (571) 
0.0

>  <Smiles>  (571) 
CC1=CS[C@H]2NC(=O)NC(=O)[C@@H]12

>  <canonical_smi>  (571) 
CC1=CS[C@H]2NC(=O)NC(=O)[C@@H]12

>  <Set>  (571) 
G2 inactive

>  <Set_type>  (571) 
Train

>  <MW>  (571) 
184.22

>  <HBD>  (571) 
2

>  <HBA>  (571) 
3

>  <NRB>  (571) 
0

>  <NR>  (571) 
2

>  <NAR>  (571) 
0

>  <PSA>  (571) 
58.2

>  <Standard Type>  (571) 
nan

>  <Standard Relation>  (571) 
nan

>  <Standard Units>  (571) 
nan

>  <Standard Value>  (571) 
nan

>  <Assay ChEMBL ID>  (571) 
nan

>  <Assay Description>  (571) 
nan

>  <BAO Label>  (571) 
nan

$$$$

     RDKit          2D

 13 14  0  0  0  0  0  0  0  0999 V2000
    0.1975    6.8482    0.0000 N   0  0  0  0  0  0  0  0  0  0  0  0
    0.7594    5.4575    0.0000 C   0  0  0  0  0  0  0  0  0  0  0  0
    1.3213    4.0667    0.0000 C   0  0  0  0  0  0  0  0  0  0  0  0
    2.5934    4.8616    0.0000 N   0  0  0  0  0  0  0  0  0  0  0  0
    2.3250    2.9520    0.0000 C   0  0  0  0  0  0  0  0  0  0  0  0
    1.8615    1.5254    0.0000 C   0  0  0  0  0  0  0  0  0  0  0  0
    0.3943    1.2135    0.0000 C   0  0  0  0  0  0  0  0  0  0  0  0
   -0.6094    2.3282    0.0000 C   0  0  0  0  0  0  0  0  0  0  0  0
   -0.1459    3.7548    0.0000 C   0  0  0  0  0  0  0  0  0  0  0  0
    1.2760    0.0000    0.0000 O   0  0  0  0  0  0  0  0  0  0  0  0
    0.3943   -1.2135    0.0000 C   0  0  0  0  0  0  0  0  0  0  0  0
   -1.0323   -0.7500    0.0000 C   0  0  0  0  0  0  0  0  0  0  0  0
   -1.0323    0.7500    0.0000 O   0  0  0  0  0  0  0  0  0  0  0  0
  1  2  3  0
  2  3  1  0
  3  4  1  0
  3  5  1  0
  5  6  1  0
  6  7  1  0
  7  8  1  0
  8  9  1  0
  7 10  1  0
 10 11  1  0
 11 12  1  0
 12 13  1  0
  9  3  1  0
 13  7  1  0
M  END
>  <Compound_ID>  (572) 
C22214912

>  <Active>  (572) 
0.0

>  <Smiles>  (572) 
N#CC1(N)CCC2(CC1)OCCO2

>  <canonical_smi>  (572) 
N#CC1(N)CCC2(CC1)OCCO2

>  <Set>  (572) 
G2 inactive

>  <Set_type>  (572) 
Train

>  <MW>  (572) 
182.22

>  <HBD>  (572) 
1

>  <HBA>  (572) 
4

>  <NRB>  (572) 
0

>  <NR>  (572) 
2

>  <NAR>  (572) 
0

>  <PSA>  (572) 
68.27

>  <Standard Type>  (572) 
nan

>  <Standard Relation>  (572) 
nan

>  <Standard Units>  (572) 
nan

>  <Standard Value>  (572) 
nan

>  <Assay ChEMBL ID>  (572) 
nan

>  <Assay Description>  (572) 
nan

>  <BAO Label>  (572) 
nan

$$$$

     RDKit          2D

 14 15  0  0  0  0  0  0  0  0999 V2000
   -0.0967    5.1517    0.0000 C   0  0  0  0  0  0  0  0  0  0  0  0
   -0.4086    3.6844    0.0000 C   0  0  0  0  0  0  0  0  0  0  0  0
    0.7062    2.6807    0.0000 C   0  0  0  0  0  0  0  0  0  0  0  0
    0.3943    1.2135    0.0000 C   0  0  0  0  0  0  0  0  0  0  0  0
    1.2760    0.0000    0.0000 N   0  0  0  0  0  0  0  0  0  0  0  0
    0.3943   -1.2135    0.0000 N   0  0  0  0  0  0  0  0  0  0  0  0
   -1.0323   -0.7500    0.0000 C   0  0  0  0  0  0  0  0  0  0  0  0
   -2.2458   -1.6317    0.0000 C   0  0  0  0  0  0  0  0  0  0  0  0
   -2.0890   -3.1235    0.0000 C   0  0  0  0  0  0  0  0  0  0  0  0
   -3.6161   -1.0216    0.0000 C   0  0  0  0  0  0  0  0  0  0  0  0
   -1.0323    0.7500    0.0000 N   0  0  0  0  0  0  0  0  0  0  0  0
   -2.1470    1.7537    0.0000 C   0  0  0  0  0  0  0  0  0  0  0  0
   -1.8351    3.2209    0.0000 C   0  0  0  0  0  0  0  0  0  0  0  0
   -2.9499    4.2246    0.0000 N   0  0  0  0  0  0  0  0  0  0  0  0
  1  2  1  0
  2  3  2  0
  3  4  1  0
  4  5  2  0
  5  6  1  0
  6  7  2  0
  7  8  1  0
  8  9  1  0
  8 10  1  0
  7 11  1  0
 11 12  1  0
 12 13  2  0
 13 14  1  0
 13  2  1  0
 11  4  1  0
M  END
>  <Compound_ID>  (573) 
C36252149

>  <Active>  (573) 
0.0

>  <Smiles>  (573) 
Cc1cc2nnc(C(C)C)n2cc1N

>  <canonical_smi>  (573) 
Cc1cc2nnc(C(C)C)n2cc1N

>  <Set>  (573) 
G2 inactive

>  <Set_type>  (573) 
Train

>  <MW>  (573) 
190.25

>  <HBD>  (573) 
1

>  <HBA>  (573) 
3

>  <NRB>  (573) 
1

>  <NR>  (573) 
2

>  <NAR>  (573) 
2

>  <PSA>  (573) 
56.21

>  <Standard Type>  (573) 
nan

>  <Standard Relation>  (573) 
nan

>  <Standard Units>  (573) 
nan

>  <Standard Value>  (573) 
nan

>  <Assay ChEMBL ID>  (573) 
nan

>  <Assay Description>  (573) 
nan

>  <BAO Label>  (573) 
nan

$$$$

     RDKit          2D

 13 13  0  0  0  0  0  0  0  0999 V2000
    2.7760    0.0000    0.0000 C   0  0  0  0  0  0  0  0  0  0  0  0
    1.2760    0.0000    0.0000 N   0  0  0  0  0  0  0  0  0  0  0  0
    0.3943    1.2135    0.0000 C   0  0  0  0  0  0  0  0  0  0  0  0
    0.8578    2.6401    0.0000 C   0  0  0  0  0  0  0  0  0  0  0  0
    2.2844    2.1766    0.0000 C   0  0  0  0  0  0  0  0  0  0  0  0
   -0.5688    3.1036    0.0000 C   0  0  0  0  0  0  0  0  0  0  0  0
    1.3213    4.0667    0.0000 C   0  0  0  0  0  0  0  0  0  0  0  0
   -1.0323    0.7500    0.0000 C   0  0  0  0  0  0  0  0  0  0  0  0
   -2.2458    1.6317    0.0000 N   0  0  0  0  0  0  0  0  0  0  0  0
   -1.0323   -0.7500    0.0000 C   0  0  0  0  0  0  0  0  0  0  0  0
   -2.2458   -1.6317    0.0000 O   0  0  0  0  0  0  0  0  0  0  0  0
    0.3943   -1.2135    0.0000 N   0  0  0  0  0  0  0  0  0  0  0  0
    0.8578   -2.6401    0.0000 C   0  0  0  0  0  0  0  0  0  0  0  0
  1  2  1  0
  2  3  1  0
  3  4  1  0
  4  5  1  0
  4  6  1  0
  4  7  1  0
  3  8  2  0
  8  9  1  0
  8 10  1  0
 10 11  2  0
 10 12  1  0
 12 13  1  0
 12  2  1  0
M  END
>  <Compound_ID>  (574) 
C36947746

>  <Active>  (574) 
0.0

>  <Smiles>  (574) 
Cn1c(C(C)(C)C)c(N)c(=O)n1C

>  <canonical_smi>  (574) 
Cn1c(C(C)(C)C)c(N)c(=O)n1C

>  <Set>  (574) 
G2 inactive

>  <Set_type>  (574) 
Train

>  <MW>  (574) 
183.25

>  <HBD>  (574) 
1

>  <HBA>  (574) 
2

>  <NRB>  (574) 
0

>  <NR>  (574) 
1

>  <NAR>  (574) 
1

>  <PSA>  (574) 
52.95

>  <Standard Type>  (574) 
nan

>  <Standard Relation>  (574) 
nan

>  <Standard Units>  (574) 
nan

>  <Standard Value>  (574) 
nan

>  <Assay ChEMBL ID>  (574) 
nan

>  <Assay Description>  (574) 
nan

>  <BAO Label>  (574) 
nan

$$$$

     RDKit          2D

 12 12  0  0  0  0  0  0  0  0999 V2000
    2.6491    0.9642    0.0000 C   0  0  0  0  0  0  0  0  0  0  0  0
    1.5000    0.0000    0.0000 C   0  0  0  0  0  0  0  0  0  0  0  0
    2.6491   -0.9642    0.0000 C   0  0  0  0  0  0  0  0  0  0  0  0
    0.7500   -1.2990    0.0000 C   0  0  0  0  0  0  0  0  0  0  0  0
   -0.7500   -1.2990    0.0000 C   0  0  0  0  0  0  0  0  0  0  0  0
   -1.5000    0.0000    0.0000 N   0  0  0  0  0  0  0  0  0  0  0  0
   -3.0000    0.0000    0.0000 S   0  0  0  0  0  0  0  0  0  0  0  0
   -4.5000    0.0000    0.0000 N   0  0  0  0  0  0  0  0  0  0  0  0
   -3.0000   -1.5000    0.0000 O   0  0  0  0  0  0  0  0  0  0  0  0
   -3.0000    1.5000    0.0000 O   0  0  0  0  0  0  0  0  0  0  0  0
   -0.7500    1.2990    0.0000 C   0  0  0  0  0  0  0  0  0  0  0  0
    0.7500    1.2990    0.0000 C   0  0  0  0  0  0  0  0  0  0  0  0
  1  2  1  0
  2  3  1  0
  2  4  1  0
  4  5  1  0
  5  6  1  0
  6  7  1  0
  7  8  1  0
  7  9  2  0
  7 10  2  0
  6 11  1  0
 11 12  1  0
 12  2  1  0
M  END
>  <Compound_ID>  (575) 
C39054549

>  <Active>  (575) 
0.0

>  <Smiles>  (575) 
CC1(C)CCN(S(N)(=O)=O)CC1

>  <canonical_smi>  (575) 
CC1(C)CCN(S(N)(=O)=O)CC1

>  <Set>  (575) 
G2 inactive

>  <Set_type>  (575) 
Train

>  <MW>  (575) 
192.28

>  <HBD>  (575) 
1

>  <HBA>  (575) 
2

>  <NRB>  (575) 
1

>  <NR>  (575) 
1

>  <NAR>  (575) 
0

>  <PSA>  (575) 
63.4

>  <Standard Type>  (575) 
nan

>  <Standard Relation>  (575) 
nan

>  <Standard Units>  (575) 
nan

>  <Standard Value>  (575) 
nan

>  <Assay ChEMBL ID>  (575) 
nan

>  <Assay Description>  (575) 
nan

>  <BAO Label>  (575) 
nan

$$$$

     RDKit          2D

 12 12  0  0  0  0  0  0  0  0999 V2000
    3.0000    0.0000    0.0000 C   0  0  0  0  0  0  0  0  0  0  0  0
    1.5000    0.0000    0.0000 C   0  0  0  0  0  0  0  0  0  0  0  0
    0.7500   -1.2990    0.0000 C   0  0  0  0  0  0  0  0  0  0  0  0
   -0.7500   -1.2990    0.0000 C   0  0  0  0  0  0  0  0  0  0  0  0
   -1.5000   -2.5981    0.0000 C   0  0  0  0  0  0  0  0  0  0  0  0
   -3.0000   -2.5981    0.0000 O   0  0  0  0  0  0  0  0  0  0  0  0
   -0.7500   -3.8971    0.0000 O   0  0  0  0  0  0  0  0  0  0  0  0
   -1.5000   -5.1962    0.0000 N   0  0  0  0  0  0  0  0  0  0  0  0
   -1.5000    0.0000    0.0000 C   0  0  0  0  0  0  0  0  0  0  0  0
   -0.7500    1.2990    0.0000 C   0  0  0  0  0  0  0  0  0  0  0  0
   -1.5000    2.5981    0.0000 C   0  0  0  0  0  0  0  0  0  0  0  0
    0.7500    1.2990    0.0000 S   0  0  0  0  0  0  0  0  0  0  0  0
  2  1  1  6
  2  3  1  0
  3  4  1  0
  4  5  1  0
  5  6  2  0
  5  7  1  0
  7  8  1  0
  4  9  1  0
  9 10  1  0
 10 11  1  1
 10 12  1  0
 12  2  1  0
M  END
>  <Compound_ID>  (576) 
C39083513

>  <Active>  (576) 
0.0

>  <Smiles>  (576) 
C[C@@H]1CC(C(=O)ON)C[C@@H](C)S1

>  <canonical_smi>  (576) 
C[C@@H]1CC(C(=O)ON)C[C@@H](C)S1

>  <Set>  (576) 
G2 inactive

>  <Set_type>  (576) 
Train

>  <MW>  (576) 
189.28

>  <HBD>  (576) 
1

>  <HBA>  (576) 
4

>  <NRB>  (576) 
1

>  <NR>  (576) 
1

>  <NAR>  (576) 
0

>  <PSA>  (576) 
52.32

>  <Standard Type>  (576) 
nan

>  <Standard Relation>  (576) 
nan

>  <Standard Units>  (576) 
nan

>  <Standard Value>  (576) 
nan

>  <Assay ChEMBL ID>  (576) 
nan

>  <Assay Description>  (576) 
nan

>  <BAO Label>  (576) 
nan

$$$$

     RDKit          2D

 12 13  0  0  0  0  0  0  0  0999 V2000
   -0.0967    5.1517    0.0000 C   0  0  0  0  0  0  0  0  0  0  0  0
   -0.4086    3.6844    0.0000 C   0  0  0  0  0  0  0  0  0  0  0  0
    0.7062    2.6807    0.0000 C   0  0  0  0  0  0  0  0  0  0  0  0
    0.3943    1.2135    0.0000 C   0  0  0  0  0  0  0  0  0  0  0  0
    1.2760    0.0000    0.0000 C   0  0  0  0  0  0  0  0  0  0  0  0
    0.3943   -1.2135    0.0000 C   0  0  0  0  0  0  0  0  0  0  0  0
    0.8578   -2.6401    0.0000 C   0  0  0  0  0  0  0  0  0  0  0  0
   -1.0323   -0.7500    0.0000 N   0  0  0  0  0  0  0  0  0  0  0  0
   -1.0323    0.7500    0.0000 N   0  0  0  0  0  0  0  0  0  0  0  0
   -2.1470    1.7537    0.0000 C   0  0  0  0  0  0  0  0  0  0  0  0
   -3.5736    1.2902    0.0000 S   0  0  0  0  0  1  0  0  0  0  0  0
   -1.8351    3.2209    0.0000 N   0  0  0  0  0  4  0  0  0  0  0  0
  1  2  1  0
  2  3  2  0
  3  4  1  0
  4  5  2  0
  5  6  1  0
  6  7  1  1
  6  8  1  0
  8  9  1  0
  9 10  1  0
 10 11  1  0
 10 12  2  0
 12  2  1  0
  9  4  1  0
M  CHG  2  11  -1  12   1
M  END
>  <Compound_ID>  (577) 
C36644033

>  <Active>  (577) 
0.0

>  <Smiles>  (577) 
CC1=CC2=C[C@@H](C)NN2C([S-])=[NH+]1

>  <canonical_smi>  (577) 
CC1=CC2=C[C@@H](C)NN2C([S-])=[NH+]1

>  <Set>  (577) 
G2 inactive

>  <Set_type>  (577) 
Train

>  <MW>  (577) 
181.26

>  <HBD>  (577) 
2

>  <HBA>  (577) 
3

>  <NRB>  (577) 
0

>  <NR>  (577) 
2

>  <NAR>  (577) 
0

>  <PSA>  (577) 
29.24

>  <Standard Type>  (577) 
nan

>  <Standard Relation>  (577) 
nan

>  <Standard Units>  (577) 
nan

>  <Standard Value>  (577) 
nan

>  <Assay ChEMBL ID>  (577) 
nan

>  <Assay Description>  (577) 
nan

>  <BAO Label>  (577) 
nan

$$$$

     RDKit          2D

 13 14  0  0  0  0  0  0  0  0999 V2000
    2.7760    0.0000    0.0000 O   0  0  0  0  0  0  0  0  0  0  0  0
    1.2760    0.0000    0.0000 C   0  0  0  0  0  0  0  0  0  0  0  0
    0.3943    1.2135    0.0000 C   0  0  0  0  0  0  0  0  0  0  0  0
   -1.0323    0.7500    0.0000 C   0  0  0  0  0  0  0  0  0  0  0  0
   -1.0323   -0.7500    0.0000 C   0  0  0  0  0  0  0  0  0  0  0  0
    0.3943   -1.2135    0.0000 C   0  0  0  0  0  0  0  0  0  0  0  0
   -2.4026   -0.1399    0.0000 C   0  0  0  0  0  0  0  0  0  0  0  0
   -2.5594    1.3519    0.0000 O   0  0  0  0  0  0  0  0  0  0  0  0
   -3.6161   -1.0216    0.0000 C   0  0  0  0  0  0  0  0  0  0  0  0
   -3.4593   -2.5134    0.0000 C   0  0  0  0  0  0  0  0  0  0  0  0
   -2.0890   -3.1235    0.0000 C   0  0  0  0  0  0  0  0  0  0  0  0
   -0.8755   -2.2418    0.0000 N   0  0  0  0  0  0  0  0  0  0  0  0
    0.4948   -2.8519    0.0000 F   0  0  0  0  0  0  0  0  0  0  0  0
  2  1  1  6
  2  3  1  0
  3  4  1  0
  5  4  1  1
  5  6  1  0
  5  7  1  0
  7  8  1  1
  7  9  1  0
  9 10  1  0
 10 11  1  0
 11 12  1  0
 12 13  1  0
  6  2  1  0
 12  5  1  0
M  END
>  <Compound_ID>  (578) 
C39511917

>  <Active>  (578) 
0.0

>  <Smiles>  (578) 
O[C@H]1CC[C@]2(C1)[C@H](O)CCCN2F

>  <canonical_smi>  (578) 
O[C@H]1CC[C@]2(C1)[C@H](O)CCCN2F

>  <Set>  (578) 
G2 inactive

>  <Set_type>  (578) 
Train

>  <MW>  (578) 
189.23

>  <HBD>  (578) 
2

>  <HBA>  (578) 
3

>  <NRB>  (578) 
0

>  <NR>  (578) 
2

>  <NAR>  (578) 
0

>  <PSA>  (578) 
43.7

>  <Standard Type>  (578) 
nan

>  <Standard Relation>  (578) 
nan

>  <Standard Units>  (578) 
nan

>  <Standard Value>  (578) 
nan

>  <Assay ChEMBL ID>  (578) 
nan

>  <Assay Description>  (578) 
nan

>  <BAO Label>  (578) 
nan

$$$$

     RDKit          2D

 14 15  0  0  0  0  0  0  0  0999 V2000
   -0.4921    5.7184    0.0000 H   0  0  0  0  0  0  0  0  0  0  0  0
   -1.4958    4.6036    0.0000 N   0  0  0  0  0  0  0  0  0  0  0  0
   -1.0323    3.1771    0.0000 C   0  0  0  0  0  0  0  0  0  0  0  0
    0.3943    2.7135    0.0000 S   0  0  0  0  0  0  0  0  0  0  0  0
    0.3943    1.2135    0.0000 C   0  0  0  0  0  0  0  0  0  0  0  0
    1.2760    0.0000    0.0000 C   0  0  0  0  0  0  0  0  0  0  0  0
    0.3943   -1.2135    0.0000 C   0  0  0  0  0  0  0  0  0  0  0  0
   -1.0323   -0.7500    0.0000 C   0  0  0  0  0  0  0  0  0  0  0  0
   -1.0323    0.7500    0.0000 C   0  0  0  0  0  0  0  0  0  0  0  0
   -1.9140    1.9635    0.0000 C   0  0  0  0  0  0  0  0  0  0  0  0
   -3.4140    1.9635    0.0000 C   0  0  0  0  0  0  0  0  0  0  0  0
   -4.1640    3.2626    0.0000 O   0  0  0  0  0  0  0  0  0  0  0  0
   -4.1640    0.6645    0.0000 N   0  0  0  0  0  0  0  0  0  0  0  0
   -5.6640    0.6645    0.0000 C   0  0  0  0  0  0  0  0  0  0  0  0
  1  2  1  0
  2  3  2  0
  3  4  1  0
  4  5  1  0
  5  6  1  1
  6  7  1  0
  7  8  1  0
  8  9  1  0
  9 10  2  0
 10 11  1  0
 11 12  2  0
 11 13  1  0
 13 14  1  0
 10  3  1  0
  9  5  1  0
M  END
>  <Compound_ID>  (579) 
C36673651

>  <Active>  (579) 
0.0

>  <Smiles>  (579) 
[H]/N=C1\S[C@H]2CCCC2=C1C(=O)NC

>  <canonical_smi>  (579) 
[H]/N=C1\S[C@H]2CCCC2=C1C(=O)NC

>  <Set>  (579) 
G2 inactive

>  <Set_type>  (579) 
Train

>  <MW>  (579) 
196.28

>  <HBD>  (579) 
2

>  <HBA>  (579) 
2

>  <NRB>  (579) 
1

>  <NR>  (579) 
2

>  <NAR>  (579) 
0

>  <PSA>  (579) 
52.95

>  <Standard Type>  (579) 
nan

>  <Standard Relation>  (579) 
nan

>  <Standard Units>  (579) 
nan

>  <Standard Value>  (579) 
nan

>  <Assay ChEMBL ID>  (579) 
nan

>  <Assay Description>  (579) 
nan

>  <BAO Label>  (579) 
nan

$$$$

     RDKit          2D

 14 15  0  0  0  0  0  0  0  0999 V2000
    3.0000    0.0000    0.0000 C   0  0  0  0  0  0  0  0  0  0  0  0
    1.5000    0.0000    0.0000 C   0  0  0  0  0  0  0  0  0  0  0  0
    0.7500   -1.2990    0.0000 C   0  0  0  0  0  0  0  0  0  0  0  0
   -0.7500   -1.2990    0.0000 N   0  0  0  0  0  0  0  0  0  0  0  0
   -1.5000   -2.5981    0.0000 C   0  0  0  0  0  0  0  0  0  0  0  0
   -3.0000   -2.5981    0.0000 C   0  0  0  0  0  0  0  0  0  0  0  0
   -3.7500   -3.8971    0.0000 C   0  0  0  0  0  0  0  0  0  0  0  0
   -3.0000   -5.1962    0.0000 C   0  0  0  0  0  0  0  0  0  0  0  0
   -1.5000   -5.1962    0.0000 C   0  0  0  0  0  0  0  0  0  0  0  0
   -0.7500   -3.8971    0.0000 C   0  0  0  0  0  0  0  0  0  0  0  0
    0.7500   -3.8971    0.0000 N   0  0  0  0  0  0  0  0  0  0  0  0
   -1.5000    0.0000    0.0000 C   0  0  0  0  0  0  0  0  0  0  0  0
   -0.7500    1.2990    0.0000 C   0  0  0  0  0  0  0  0  0  0  0  0
    0.7500    1.2990    0.0000 O   0  0  0  0  0  0  0  0  0  0  0  0
  2  1  1  1
  2  3  1  0
  3  4  1  0
  5  4  1  1
  5  6  1  0
  6  7  1  0
  7  8  1  0
  8  9  1  0
  9 10  1  0
 10 11  1  1
  4 12  1  0
 12 13  1  0
 13 14  1  0
 14  2  1  0
 10  5  1  0
M  END
>  <Compound_ID>  (580) 
C19274664

>  <Active>  (580) 
0.0

>  <Smiles>  (580) 
C[C@H]1CN([C@@H]2CCCC[C@@H]2N)CCO1

>  <canonical_smi>  (580) 
C[C@H]1CN([C@@H]2CCCC[C@@H]2N)CCO1

>  <Set>  (580) 
G2 inactive

>  <Set_type>  (580) 
Train

>  <MW>  (580) 
198.31

>  <HBD>  (580) 
1

>  <HBA>  (580) 
3

>  <NRB>  (580) 
1

>  <NR>  (580) 
2

>  <NAR>  (580) 
0

>  <PSA>  (580) 
38.49

>  <Standard Type>  (580) 
nan

>  <Standard Relation>  (580) 
nan

>  <Standard Units>  (580) 
nan

>  <Standard Value>  (580) 
nan

>  <Assay ChEMBL ID>  (580) 
nan

>  <Assay Description>  (580) 
nan

>  <BAO Label>  (580) 
nan

$$$$

     RDKit          2D

 13 14  0  0  0  0  0  0  0  0999 V2000
    1.8478   -6.4639    0.0000 C   0  0  0  0  0  0  0  0  0  0  0  0
    2.0046   -4.9721    0.0000 C   0  0  0  0  0  0  0  0  0  0  0  0
    3.3037   -4.2221    0.0000 C   0  0  0  0  0  0  0  0  0  0  0  0
    2.9918   -2.7549    0.0000 C   0  0  0  0  0  0  0  0  0  0  0  0
    1.5000   -2.5981    0.0000 C   0  0  0  0  0  0  0  0  0  0  0  0
    0.7500   -1.2990    0.0000 C   0  0  0  0  0  0  0  0  0  0  0  0
    1.5000    0.0000    0.0000 C   0  0  0  0  0  0  0  0  0  0  0  0
    0.7500    1.2990    0.0000 N   0  0  0  0  0  0  0  0  0  0  0  0
   -0.7500    1.2990    0.0000 N   0  0  0  0  0  0  0  0  0  0  0  0
   -1.5000    0.0000    0.0000 C   0  0  0  0  0  0  0  0  0  0  0  0
   -3.0000    0.0000    0.0000 N   0  0  0  0  0  0  0  0  0  0  0  0
   -0.7500   -1.2990    0.0000 N   0  0  0  0  0  0  0  0  0  0  0  0
    0.8899   -3.9684    0.0000 S   0  0  0  0  0  0  0  0  0  0  0  0
  2  1  1  6
  2  3  1  0
  3  4  1  0
  4  5  2  0
  5  6  1  0
  6  7  2  0
  7  8  1  0
  8  9  2  0
  9 10  1  0
 10 11  1  0
 10 12  2  0
  5 13  1  0
 13  2  1  0
 12  6  1  0
M  END
>  <Compound_ID>  (581) 
C63913772

>  <Active>  (581) 
0.0

>  <Smiles>  (581) 
C[C@H]1CC=C(c2cnnc(N)n2)S1

>  <canonical_smi>  (581) 
C[C@H]1CC=C(c2cnnc(N)n2)S1

>  <Set>  (581) 
G2 inactive

>  <Set_type>  (581) 
Train

>  <MW>  (581) 
194.26

>  <HBD>  (581) 
1

>  <HBA>  (581) 
5

>  <NRB>  (581) 
1

>  <NR>  (581) 
2

>  <NAR>  (581) 
1

>  <PSA>  (581) 
64.69

>  <Standard Type>  (581) 
nan

>  <Standard Relation>  (581) 
nan

>  <Standard Units>  (581) 
nan

>  <Standard Value>  (581) 
nan

>  <Assay ChEMBL ID>  (581) 
nan

>  <Assay Description>  (581) 
nan

>  <BAO Label>  (581) 
nan

$$$$

     RDKit          2D

 27 30  0  0  0  0  0  0  0  0999 V2000
    3.0000    0.0000    0.0000 C   0  0  0  0  0  0  0  0  0  0  0  0
    1.5000    0.0000    0.0000 C   0  0  0  0  0  0  0  0  0  0  0  0
    0.7500   -1.2990    0.0000 C   0  0  0  0  0  0  0  0  0  0  0  0
   -0.7500   -1.2990    0.0000 C   0  0  0  0  0  0  0  0  0  0  0  0
   -1.5000    0.0000    0.0000 C   0  0  0  0  0  0  0  0  0  0  0  0
   -0.7500    1.2990    0.0000 C   0  0  0  0  0  0  0  0  0  0  0  0
    0.7500    1.2990    0.0000 C   0  0  0  0  0  0  0  0  0  0  0  0
   -1.2980    2.6953    0.0000 C   0  0  0  0  0  0  0  0  0  0  0  0
   -0.2778    3.7949    0.0000 N   0  0  0  0  0  0  0  0  0  0  0  0
    1.1846    3.4611    0.0000 C   0  0  0  0  0  0  0  0  0  0  0  0
    2.2049    4.5607    0.0000 C   0  0  0  0  0  0  0  0  0  0  0  0
    1.7628    5.9941    0.0000 N   0  0  0  0  0  4  0  0  0  0  0  0
    0.3004    6.3279    0.0000 C   0  0  0  0  0  0  0  0  0  0  0  0
   -0.1418    7.7612    0.0000 C   0  0  0  0  0  0  0  0  0  0  0  0
   -0.7199    5.2283    0.0000 C   0  0  0  0  0  0  0  0  0  0  0  0
   -2.7314    3.1375    0.0000 N   0  0  0  0  0  0  0  0  0  0  0  0
   -3.9707    2.2925    0.0000 C   0  0  0  0  0  0  0  0  0  0  0  0
   -5.2101    3.1375    0.0000 C   0  0  0  0  0  0  0  0  0  0  0  0
   -6.5615    2.4867    0.0000 C   0  0  0  0  0  0  0  0  0  0  0  0
   -7.8009    3.3316    0.0000 C   0  0  0  0  0  0  0  0  0  0  0  0
   -9.0403    4.1766    0.0000 F   0  0  0  0  0  0  0  0  0  0  0  0
   -6.9559    4.5710    0.0000 F   0  0  0  0  0  0  0  0  0  0  0  0
   -8.6459    2.0923    0.0000 F   0  0  0  0  0  0  0  0  0  0  0  0
   -6.6736    0.9909    0.0000 C   0  0  0  0  0  0  0  0  0  0  0  0
   -5.4343    0.1459    0.0000 C   0  0  0  0  0  0  0  0  0  0  0  0
   -4.0828    0.7967    0.0000 C   0  0  0  0  0  0  0  0  0  0  0  0
   -2.9832   -0.2236    0.0000 O   0  0  0  0  0  0  0  0  0  0  0  0
  1  2  1  0
  2  3  2  0
  3  4  1  0
  4  5  2  0
  5  6  1  0
  6  7  2  0
  6  8  1  0
  8  9  1  0
  9 10  1  0
 10 11  1  0
 11 12  1  0
 12 13  1  0
 13 14  1  6
 13 15  1  0
  8 16  2  0
 16 17  1  0
 17 18  2  0
 18 19  1  0
 19 20  1  0
 20 21  1  0
 20 22  1  0
 20 23  1  0
 19 24  2  0
 24 25  1  0
 25 26  2  0
 26 27  1  0
  7  2  1  0
 15  9  1  0
 26 17  1  0
 27  5  1  0
M  CHG  1  12   1
M  END
>  <Compound_ID>  (582) 
C34812515

>  <Active>  (582) 
0.0

>  <Smiles>  (582) 
Cc1ccc2c(c1)C(N1CC[NH2+][C@@H](C)C1)=Nc1cc(C(F)(F)F)ccc1O2

>  <canonical_smi>  (582) 
Cc1ccc2c(c1)C(N1CC[NH2+][C@@H](C)C1)=Nc1cc(C(F)(F)F)ccc1O2

>  <Set>  (582) 
G2 inactive

>  <Set_type>  (582) 
Train

>  <MW>  (582) 
376.4

>  <HBD>  (582) 
1

>  <HBA>  (582) 
2

>  <NRB>  (582) 
0

>  <NR>  (582) 
4

>  <NAR>  (582) 
2

>  <PSA>  (582) 
41.44

>  <Standard Type>  (582) 
nan

>  <Standard Relation>  (582) 
nan

>  <Standard Units>  (582) 
nan

>  <Standard Value>  (582) 
nan

>  <Assay ChEMBL ID>  (582) 
nan

>  <Assay Description>  (582) 
nan

>  <BAO Label>  (582) 
nan

$$$$

     RDKit          2D

 21 22  0  0  0  0  0  0  0  0999 V2000
    4.5000   -2.5981    0.0000 C   0  0  0  0  0  0  0  0  0  0  0  0
    3.7500   -1.2990    0.0000 C   0  0  0  0  0  0  0  0  0  0  0  0
    3.0000    0.0000    0.0000 C   0  0  0  0  0  0  0  0  0  0  0  0
    1.5000    0.0000    0.0000 N   0  0  0  0  0  4  0  0  0  0  0  0
    0.7500   -1.2990    0.0000 C   0  0  0  0  0  0  0  0  0  0  0  0
   -0.7500   -1.2990    0.0000 C   0  0  0  0  0  0  0  0  0  0  0  0
   -1.5000    0.0000    0.0000 C   0  0  0  0  0  0  0  0  0  0  0  0
   -3.0000    0.0000    0.0000 N   0  0  0  0  0  0  0  0  0  0  0  0
   -3.7500    1.2990    0.0000 C   0  0  0  0  0  0  0  0  0  0  0  0
   -3.0000    2.5981    0.0000 C   0  0  0  0  0  0  0  0  0  0  0  0
   -3.7500    3.8971    0.0000 C   0  0  0  0  0  0  0  0  0  0  0  0
   -3.0000    5.1962    0.0000 Cl  0  0  0  0  0  0  0  0  0  0  0  0
   -5.2500    3.8971    0.0000 C   0  0  0  0  0  0  0  0  0  0  0  0
   -6.0000    2.5981    0.0000 C   0  0  0  0  0  0  0  0  0  0  0  0
   -7.5000    2.5981    0.0000 Br  0  0  0  0  0  0  0  0  0  0  0  0
   -5.2500    1.2990    0.0000 C   0  0  0  0  0  0  0  0  0  0  0  0
   -6.0000    0.0000    0.0000 O   0  0  0  0  0  0  0  0  0  0  0  0
   -7.5000    0.0000    0.0000 C   0  0  0  0  0  0  0  0  0  0  0  0
   -8.2500   -1.2990    0.0000 C   0  0  0  0  0  0  0  0  0  0  0  0
   -0.7500    1.2990    0.0000 C   0  0  0  0  0  0  0  0  0  0  0  0
    0.7500    1.2990    0.0000 C   0  0  0  0  0  0  0  0  0  0  0  0
  1  2  3  0
  2  3  1  0
  3  4  1  0
  4  5  1  0
  5  6  1  0
  6  7  1  0
  7  8  1  0
  8  9  1  0
  9 10  2  0
 10 11  1  0
 11 12  1  0
 11 13  2  0
 13 14  1  0
 14 15  1  0
 14 16  2  0
 16 17  1  0
 17 18  1  0
 18 19  1  0
  7 20  1  0
 20 21  1  0
 21  4  1  0
 16  9  1  0
M  CHG  1   4   1
M  END
>  <Compound_ID>  (583) 
C37283962

>  <Active>  (583) 
0.0

>  <Smiles>  (583) 
C#CC[NH+]1CCC(Nc2cc(Cl)cc(Br)c2OCC)CC1

>  <canonical_smi>  (583) 
C#CC[NH+]1CCC(Nc2cc(Cl)cc(Br)c2OCC)CC1

>  <Set>  (583) 
G2 inactive

>  <Set_type>  (583) 
Train

>  <MW>  (583) 
372.71

>  <HBD>  (583) 
2

>  <HBA>  (583) 
2

>  <NRB>  (583) 
5

>  <NR>  (583) 
2

>  <NAR>  (583) 
1

>  <PSA>  (583) 
25.7

>  <Standard Type>  (583) 
nan

>  <Standard Relation>  (583) 
nan

>  <Standard Units>  (583) 
nan

>  <Standard Value>  (583) 
nan

>  <Assay ChEMBL ID>  (583) 
nan

>  <Assay Description>  (583) 
nan

>  <BAO Label>  (583) 
nan

$$$$

     RDKit          2D

 30 34  0  0  0  0  0  0  0  0999 V2000
   -0.6272   -9.5744    0.0000 C   0  0  0  0  0  0  0  0  0  0  0  0
   -1.9975  -10.1845    0.0000 C   0  0  0  0  0  0  0  0  0  0  0  0
   -2.1543  -11.6763    0.0000 C   0  0  0  0  0  0  0  0  0  0  0  0
   -3.5246  -12.2864    0.0000 C   0  0  0  0  0  0  0  0  0  0  0  0
   -4.7381  -11.4047    0.0000 C   0  0  0  0  0  0  0  0  0  0  0  0
   -4.5813   -9.9130    0.0000 C   0  0  0  0  0  0  0  0  0  0  0  0
   -3.2110   -9.3029    0.0000 C   0  0  0  0  0  0  0  0  0  0  0  0
   -3.0542   -7.8111    0.0000 C   0  0  0  0  0  0  0  0  0  0  0  0
   -1.6839   -7.2010    0.0000 N   0  0  0  0  0  0  0  0  0  0  0  0
   -1.5271   -5.7092    0.0000 N   0  0  0  0  0  0  0  0  0  0  0  0
   -2.7406   -4.8275    0.0000 C   0  0  0  0  0  0  0  0  0  0  0  0
   -2.5838   -3.3357    0.0000 N   0  0  0  0  0  0  0  0  0  0  0  0
   -1.2135   -2.7256    0.0000 C   0  0  0  0  0  0  0  0  0  0  0  0
   -0.0000   -3.6073    0.0000 C   0  0  0  0  0  0  0  0  0  0  0  0
    1.2135   -2.7256    0.0000 N   0  0  0  0  0  0  0  0  0  0  0  0
    0.7500   -1.2990    0.0000 C   0  0  0  0  0  0  0  0  0  0  0  0
    1.5000    0.0000    0.0000 C   0  0  0  0  0  0  0  0  0  0  0  0
    0.7500    1.2990    0.0000 C   0  0  0  0  0  0  0  0  0  0  0  0
   -0.7500    1.2990    0.0000 C   0  0  0  0  0  0  0  0  0  0  0  0
   -1.5000    2.5981    0.0000 F   0  0  0  0  0  0  0  0  0  0  0  0
   -1.5000    0.0000    0.0000 C   0  0  0  0  0  0  0  0  0  0  0  0
   -0.7500   -1.2990    0.0000 C   0  0  0  0  0  0  0  0  0  0  0  0
   -0.1568   -5.0991    0.0000 C   0  0  0  0  0  0  0  0  0  0  0  0
    1.0567   -5.9808    0.0000 O   0  0  0  0  0  0  0  0  0  0  0  0
   -6.1084  -12.0149    0.0000 C   0  0  0  0  0  0  0  0  0  0  0  0
   -7.6048  -12.1195    0.0000 C   0  0  0  0  0  0  0  0  0  0  0  0
   -6.4713  -10.5594    0.0000 C   0  0  0  0  0  0  0  0  0  0  0  0
   -6.2652  -13.5066    0.0000 C   0  0  0  0  0  0  0  0  0  0  0  0
   -5.0517  -14.3883    0.0000 C   0  0  0  0  0  0  0  0  0  0  0  0
   -3.6814  -13.7782    0.0000 C   0  0  0  0  0  0  0  0  0  0  0  0
  2  1  1  6
  2  3  1  0
  3  4  1  0
  4  5  2  0
  5  6  1  0
  6  7  1  0
  7  8  1  1
  8  9  2  0
  9 10  1  0
 10 11  1  0
 11 12  2  0
 12 13  1  0
 13 14  2  0
 14 15  1  0
 15 16  1  0
 16 17  2  0
 17 18  1  0
 18 19  2  0
 19 20  1  0
 19 21  1  0
 21 22  2  0
 14 23  1  0
 23 24  2  0
  5 25  1  0
 25 26  1  0
 25 27  1  0
 25 28  1  0
 28 29  1  0
 29 30  1  0
  7  2  1  0
 23 10  1  0
 30  4  1  0
 22 13  1  0
 22 16  1  0
M  END
>  <Compound_ID>  (584) 
C05024993

>  <Active>  (584) 
0.0

>  <Smiles>  (584) 
C[C@@H]1CC2=C(C[C@H]1/C=N/n1cnc3c([nH]c4ccc(F)cc43)c1=O)C(C)(C)CCC2

>  <canonical_smi>  (584) 
C[C@@H]1CC2=C(C[C@H]1/C=N/n1cnc3c([nH]c4ccc(F)cc43)c1=O)C(C)(C)CCC2

>  <Set>  (584) 
G2 inactive

>  <Set_type>  (584) 
Train

>  <MW>  (584) 
406.51

>  <HBD>  (584) 
1

>  <HBA>  (584) 
2

>  <NRB>  (584) 
2

>  <NR>  (584) 
5

>  <NAR>  (584) 
3

>  <PSA>  (584) 
63.04

>  <Standard Type>  (584) 
nan

>  <Standard Relation>  (584) 
nan

>  <Standard Units>  (584) 
nan

>  <Standard Value>  (584) 
nan

>  <Assay ChEMBL ID>  (584) 
nan

>  <Assay Description>  (584) 
nan

>  <BAO Label>  (584) 
nan

$$$$

     RDKit          2D

 28 31  0  0  0  0  0  0  0  0999 V2000
    3.3802    9.0132    0.0000 O   0  0  0  0  0  0  0  0  0  0  0  0
    3.0684    7.5459    0.0000 C   0  0  0  0  0  0  0  0  0  0  0  0
    4.1831    6.5422    0.0000 C   0  0  0  0  0  0  0  0  0  0  0  0
    3.8712    5.0750    0.0000 C   0  0  0  0  0  0  0  0  0  0  0  0
    2.4446    4.6115    0.0000 C   0  0  0  0  0  0  0  0  0  0  0  0
    1.3299    5.6152    0.0000 C   0  0  0  0  0  0  0  0  0  0  0  0
   -0.0967    5.1517    0.0000 C   0  0  0  0  0  0  0  0  0  0  0  0
   -0.4086    3.6844    0.0000 C   0  0  0  0  0  0  0  0  0  0  0  0
    0.7062    2.6807    0.0000 S   0  0  0  0  0  0  0  0  0  0  0  0
    0.3943    1.2135    0.0000 C   0  0  0  0  0  0  0  0  0  0  0  0
    1.2760    0.0000    0.0000 N   0  0  0  0  0  0  0  0  0  0  0  0
    0.3943   -1.2135    0.0000 N   0  0  0  0  0  0  0  0  0  0  0  0
   -1.0323   -0.7500    0.0000 C   0  0  0  0  0  0  0  0  0  0  0  0
   -2.2458   -1.6317    0.0000 C   0  0  0  0  0  0  0  0  0  0  0  0
   -2.0890   -3.1235    0.0000 F   0  0  0  0  0  0  0  0  0  0  0  0
   -3.6161   -1.0216    0.0000 F   0  0  0  0  0  0  0  0  0  0  0  0
   -1.0323    0.7500    0.0000 N   0  0  0  0  0  0  0  0  0  0  0  0
   -2.1470    1.7537    0.0000 N   0  0  0  0  0  0  0  0  0  0  0  0
   -1.8351    3.2209    0.0000 C   0  0  0  0  0  0  0  0  0  0  0  0
   -2.9499    4.2246    0.0000 C   0  0  0  0  0  0  0  0  0  0  0  0
   -2.6380    5.6918    0.0000 C   0  0  0  0  0  0  0  0  0  0  0  0
   -3.7527    6.6955    0.0000 C   0  0  0  0  0  0  0  0  0  0  0  0
   -5.1793    6.2320    0.0000 C   0  0  0  0  0  0  0  0  0  0  0  0
   -6.2940    7.2357    0.0000 F   0  0  0  0  0  0  0  0  0  0  0  0
   -5.4912    4.7648    0.0000 C   0  0  0  0  0  0  0  0  0  0  0  0
   -4.3764    3.7611    0.0000 C   0  0  0  0  0  0  0  0  0  0  0  0
   -4.6883    2.2939    0.0000 F   0  0  0  0  0  0  0  0  0  0  0  0
    1.6418    7.0824    0.0000 C   0  0  0  0  0  0  0  0  0  0  0  0
  1  2  1  0
  2  3  2  0
  3  4  1  0
  4  5  2  0
  5  6  1  0
  6  7  1  0
  7  8  2  0
  8  9  1  0
  9 10  1  0
 10 11  2  0
 11 12  1  0
 12 13  2  0
 13 14  1  0
 14 15  1  0
 14 16  1  0
 13 17  1  0
 17 18  1  0
 18 19  2  0
 19 20  1  0
 20 21  2  0
 21 22  1  0
 22 23  2  0
 23 24  1  0
 23 25  1  0
 25 26  2  0
 26 27  1  0
  6 28  2  0
 28  2  1  0
 19  8  1  0
 26 20  1  0
 17 10  1  0
M  END
>  <Compound_ID>  (585) 
C02766721

>  <Active>  (585) 
0.0

>  <Smiles>  (585) 
Oc1cccc(/C=C2\Sc3nnc(C(F)F)n3N=C2c2ccc(F)cc2F)c1

>  <canonical_smi>  (585) 
Oc1cccc(/C=C2\Sc3nnc(C(F)F)n3N=C2c2ccc(F)cc2F)c1

>  <Set>  (585) 
G2 inactive

>  <Set_type>  (585) 
Train

>  <MW>  (585) 
406.36

>  <HBD>  (585) 
1

>  <HBA>  (585) 
4

>  <NRB>  (585) 
3

>  <NR>  (585) 
4

>  <NAR>  (585) 
3

>  <PSA>  (585) 
63.3

>  <Standard Type>  (585) 
nan

>  <Standard Relation>  (585) 
nan

>  <Standard Units>  (585) 
nan

>  <Standard Value>  (585) 
nan

>  <Assay ChEMBL ID>  (585) 
nan

>  <Assay Description>  (585) 
nan

>  <BAO Label>  (585) 
nan

$$$$

     RDKit          2D

 29 33  0  0  0  0  0  0  0  0999 V2000
    3.0000    0.0000    0.0000 C   0  0  0  0  0  0  0  0  0  0  0  0
    1.5000    0.0000    0.0000 C   0  0  0  0  0  0  0  0  0  0  0  0
    0.7500   -1.2990    0.0000 C   0  0  0  0  0  0  0  0  0  0  0  0
   -0.7500   -1.2990    0.0000 C   0  0  0  0  0  0  0  0  0  0  0  0
   -1.5000    0.0000    0.0000 C   0  0  0  0  0  0  0  0  0  0  0  0
   -0.7500    1.2990    0.0000 C   0  0  0  0  0  0  0  0  0  0  0  0
    0.7500    1.2990    0.0000 C   0  0  0  0  0  0  0  0  0  0  0  0
   -2.2500    1.2990    0.0000 N   0  0  0  0  0  0  0  0  0  0  0  0
   -3.7500    1.2990    0.0000 C   0  0  0  0  0  0  0  0  0  0  0  0
   -4.5000    2.5981    0.0000 C   0  0  0  0  0  0  0  0  0  0  0  0
   -6.0000    2.5981    0.0000 C   0  0  0  0  0  0  0  0  0  0  0  0
   -6.7500    1.2990    0.0000 C   0  0  0  0  0  0  0  0  0  0  0  0
   -6.0000   -0.0000    0.0000 C   0  0  0  0  0  0  0  0  0  0  0  0
   -4.5000   -0.0000    0.0000 C   0  0  0  0  0  0  0  0  0  0  0  0
   -3.7500   -1.2990    0.0000 C   0  0  0  0  0  0  0  0  0  0  0  0
   -4.5000   -2.5981    0.0000 O   0  0  0  0  0  0  0  0  0  0  0  0
   -2.2500   -1.2990    0.0000 N   0  0  0  0  0  0  0  0  0  0  0  0
   -1.5000   -2.5981    0.0000 C   0  0  0  0  0  0  0  0  0  0  0  0
   -2.2500   -3.8971    0.0000 C   0  0  0  0  0  0  0  0  0  0  0  0
   -1.5000   -5.1962    0.0000 C   0  0  0  0  0  0  0  0  0  0  0  0
   -0.0000   -5.1962    0.0000 C   0  0  0  0  0  0  0  0  0  0  0  0
    0.7500   -6.4952    0.0000 N   0  0  0  0  0  0  0  0  0  0  0  0
   -0.0000   -7.7942    0.0000 C   0  0  0  0  0  0  0  0  0  0  0  0
    0.7500   -9.0933    0.0000 C   0  0  0  0  0  0  0  0  0  0  0  0
    2.2500   -9.0933    0.0000 O   0  0  0  0  0  0  0  0  0  0  0  0
    3.0000   -7.7942    0.0000 C   0  0  0  0  0  0  0  0  0  0  0  0
    2.2500   -6.4952    0.0000 C   0  0  0  0  0  0  0  0  0  0  0  0
    0.7500   -3.8971    0.0000 C   0  0  0  0  0  0  0  0  0  0  0  0
    0.0000   -2.5981    0.0000 C   0  0  0  0  0  0  0  0  0  0  0  0
  1  2  1  0
  2  3  1  0
  3  4  1  0
  4  5  1  0
  5  6  1  0
  6  7  1  0
  5  8  1  0
  8  9  1  0
  9 10  2  0
 10 11  1  0
 11 12  2  0
 12 13  1  0
 13 14  2  0
 14 15  1  0
 15 16  2  0
 15 17  1  0
 17 18  1  0
 18 19  2  0
 19 20  1  0
 20 21  2  0
 21 22  1  0
 22 23  1  0
 23 24  1  0
 24 25  1  0
 25 26  1  0
 26 27  1  0
 21 28  1  0
 28 29  2  0
  7  2  1  0
 14  9  1  0
 29 18  1  0
 17  5  1  0
 27 22  1  0
M  END
>  <Compound_ID>  (586) 
C08993070

>  <Active>  (586) 
0.0

>  <Smiles>  (586) 
CC1CCC2(CC1)Nc1ccccc1C(=O)N2c1ccc(N2CCOCC2)cc1

>  <canonical_smi>  (586) 
CC1CCC2(CC1)Nc1ccccc1C(=O)N2c1ccc(N2CCOCC2)cc1

>  <Set>  (586) 
G2 inactive

>  <Set_type>  (586) 
Train

>  <MW>  (586) 
391.52

>  <HBD>  (586) 
1

>  <HBA>  (586) 
4

>  <NRB>  (586) 
2

>  <NR>  (586) 
5

>  <NAR>  (586) 
2

>  <PSA>  (586) 
44.81

>  <Standard Type>  (586) 
nan

>  <Standard Relation>  (586) 
nan

>  <Standard Units>  (586) 
nan

>  <Standard Value>  (586) 
nan

>  <Assay ChEMBL ID>  (586) 
nan

>  <Assay Description>  (586) 
nan

>  <BAO Label>  (586) 
nan

$$$$

     RDKit          2D

 28 30  0  0  0  0  0  0  0  0999 V2000
    2.6491    0.9642    0.0000 C   0  0  0  0  0  0  0  0  0  0  0  0
    1.5000    0.0000    0.0000 C   0  0  0  0  0  0  0  0  0  0  0  0
    2.6491   -0.9642    0.0000 C   0  0  0  0  0  0  0  0  0  0  0  0
    0.7500   -1.2990    0.0000 C   0  0  0  0  0  0  0  0  0  0  0  0
   -0.7500   -1.2990    0.0000 C   0  0  0  0  0  0  0  0  0  0  0  0
   -1.5000   -2.5981    0.0000 N   0  0  0  0  0  0  0  0  0  0  0  0
   -3.0000   -2.5981    0.0000 C   0  0  0  0  0  0  0  0  0  0  0  0
   -3.7500   -1.2990    0.0000 O   0  0  0  0  0  0  0  0  0  0  0  0
   -3.7500   -3.8971    0.0000 C   0  0  0  0  0  0  0  0  0  0  0  0
   -5.2500   -3.8971    0.0000 C   0  0  0  0  0  0  0  0  0  0  0  0
   -6.0000   -5.1962    0.0000 C   0  0  0  0  0  0  0  0  0  0  0  0
   -5.2500   -6.4952    0.0000 C   0  0  0  0  0  0  0  0  0  0  0  0
   -6.0000   -7.7942    0.0000 C   0  0  0  0  0  0  0  0  0  0  0  0
   -7.5000   -7.7942    0.0000 N   0  0  0  0  0  0  0  0  0  0  0  0
   -8.2500   -9.0933    0.0000 C   0  0  0  0  0  0  0  0  0  0  0  0
   -7.5000  -10.3923    0.0000 O   0  0  0  0  0  0  0  0  0  0  0  0
   -9.7500   -9.0933    0.0000 C   0  0  0  0  0  0  0  0  0  0  0  0
  -10.6317  -10.3068    0.0000 C   0  0  0  0  0  0  0  0  0  0  0  0
  -12.0583   -9.8433    0.0000 C   0  0  0  0  0  0  0  0  0  0  0  0
  -12.0583   -8.3433    0.0000 C   0  0  0  0  0  0  0  0  0  0  0  0
  -10.6317   -7.8797    0.0000 S   0  0  0  0  0  0  0  0  0  0  0  0
   -3.7500   -6.4952    0.0000 C   0  0  0  0  0  0  0  0  0  0  0  0
   -3.0000   -5.1962    0.0000 C   0  0  0  0  0  0  0  0  0  0  0  0
   -1.5000    0.0000    0.0000 C   0  0  0  0  0  0  0  0  0  0  0  0
   -0.7500    1.2990    0.0000 C   0  0  0  0  0  0  0  0  0  0  0  0
   -2.1595    1.8121    0.0000 C   0  0  0  0  0  0  0  0  0  0  0  0
   -0.4895    2.7762    0.0000 C   0  0  0  0  0  0  0  0  0  0  0  0
    0.7500    1.2990    0.0000 N   0  0  0  0  0  4  0  0  0  0  0  0
  1  2  1  0
  2  3  1  0
  2  4  1  0
  4  5  1  0
  5  6  1  0
  6  7  1  0
  7  8  2  0
  7  9  1  0
  9 10  2  0
 10 11  1  0
 11 12  2  0
 12 13  1  0
 13 14  1  0
 14 15  1  0
 15 16  2  0
 15 17  1  0
 17 18  2  0
 18 19  1  0
 19 20  2  0
 20 21  1  0
 12 22  1  0
 22 23  2  0
  5 24  1  0
 24 25  1  0
 25 26  1  0
 25 27  1  0
 25 28  1  0
 28  2  1  0
 23  9  1  0
 21 17  1  0
M  CHG  1  28   1
M  END
>  <Compound_ID>  (587) 
C42196762

>  <Active>  (587) 
0.0

>  <Smiles>  (587) 
CC1(C)CC(NC(=O)c2ccc(CNC(=O)c3cccs3)cc2)CC(C)(C)[NH2+]1

>  <canonical_smi>  (587) 
CC1(C)CC(NC(=O)c2ccc(CNC(=O)c3cccs3)cc2)CC(C)(C)[NH2+]1

>  <Set>  (587) 
G2 inactive

>  <Set_type>  (587) 
Train

>  <MW>  (587) 
400.57

>  <HBD>  (587) 
3

>  <HBA>  (587) 
2

>  <NRB>  (587) 
5

>  <NR>  (587) 
3

>  <NAR>  (587) 
2

>  <PSA>  (587) 
74.81

>  <Standard Type>  (587) 
nan

>  <Standard Relation>  (587) 
nan

>  <Standard Units>  (587) 
nan

>  <Standard Value>  (587) 
nan

>  <Assay ChEMBL ID>  (587) 
nan

>  <Assay Description>  (587) 
nan

>  <BAO Label>  (587) 
nan

$$$$

     RDKit          2D

 16 17  0  0  0  0  0  0  0  0999 V2000
    3.0000    0.0000    0.0000 N   0  0  0  0  0  0  0  0  0  0  0  0
    1.5000    0.0000    0.0000 C   0  0  0  0  0  0  0  0  0  0  0  0
    0.7500   -1.2990    0.0000 C   0  0  0  0  0  0  0  0  0  0  0  0
   -0.7500   -1.2990    0.0000 C   0  0  0  0  0  0  0  0  0  0  0  0
   -1.5000    0.0000    0.0000 C   0  0  0  0  0  0  0  0  0  0  0  0
   -3.0000    0.0000    0.0000 N   0  0  0  0  0  0  0  0  0  0  0  0
   -3.7500    1.2990    0.0000 N   0  0  0  0  0  0  0  0  0  0  0  0
   -5.2500    1.2990    0.0000 C   0  0  0  0  0  0  0  0  0  0  0  0
   -6.1317    0.0855    0.0000 N   0  0  0  0  0  0  0  0  0  0  0  0
   -7.5583    0.5490    0.0000 C   0  0  0  0  0  0  0  0  0  0  0  0
   -7.5583    2.0490    0.0000 C   0  0  0  0  0  0  0  0  0  0  0  0
   -6.1317    2.5126    0.0000 S   0  0  0  0  0  0  0  0  0  0  0  0
   -0.7500    1.2990    0.0000 C   0  0  0  0  0  0  0  0  0  0  0  0
   -1.5000    2.5981    0.0000 Cl  0  0  0  0  0  0  0  0  0  0  0  0
    0.7500    1.2990    0.0000 C   0  0  0  0  0  0  0  0  0  0  0  0
    1.5000    2.5981    0.0000 Cl  0  0  0  0  0  0  0  0  0  0  0  0
  1  2  1  0
  2  3  2  0
  3  4  1  0
  4  5  2  0
  5  6  1  0
  6  7  2  0
  7  8  1  0
  8  9  2  0
  9 10  1  0
 10 11  2  0
 11 12  1  0
  5 13  1  0
 13 14  1  0
 13 15  2  0
 15 16  1  0
 15  2  1  0
 12  8  1  0
M  END
>  <Compound_ID>  (588) 
C16384174

>  <Active>  (588) 
0.0

>  <Smiles>  (588) 
Nc1ccc(/N=N/c2nccs2)c(Cl)c1Cl

>  <canonical_smi>  (588) 
Nc1ccc(/N=N/c2nccs2)c(Cl)c1Cl

>  <Set>  (588) 
G2 inactive

>  <Set_type>  (588) 
Train

>  <MW>  (588) 
273.15

>  <HBD>  (588) 
1

>  <HBA>  (588) 
2

>  <NRB>  (588) 
2

>  <NR>  (588) 
2

>  <NAR>  (588) 
2

>  <PSA>  (588) 
63.63

>  <Standard Type>  (588) 
nan

>  <Standard Relation>  (588) 
nan

>  <Standard Units>  (588) 
nan

>  <Standard Value>  (588) 
nan

>  <Assay ChEMBL ID>  (588) 
nan

>  <Assay Description>  (588) 
nan

>  <BAO Label>  (588) 
nan

$$$$

     RDKit          2D

 21 24  0  0  0  0  0  0  0  0999 V2000
   -4.0978   -7.7629    0.0000 N   0  0  0  0  0  0  0  0  0  0  0  0
   -4.2546   -6.2711    0.0000 C   0  0  0  0  0  0  0  0  0  0  0  0
   -3.1399   -5.2674    0.0000 N   0  0  0  0  0  0  0  0  0  0  0  0
   -3.7500   -3.8971    0.0000 C   0  0  0  0  0  0  0  0  0  0  0  0
   -3.0000   -2.5981    0.0000 N   0  0  0  0  0  0  0  0  0  0  0  0
   -1.5000   -2.5981    0.0000 C   0  0  0  0  0  0  0  0  0  0  0  0
   -0.7500   -3.8971    0.0000 C   0  0  0  0  0  0  0  0  0  0  0  0
    0.7500   -3.8971    0.0000 C   0  0  0  0  0  0  0  0  0  0  0  0
    1.5000   -2.5981    0.0000 C   0  0  0  0  0  0  0  0  0  0  0  0
    0.7500   -1.2990    0.0000 C   0  0  0  0  0  0  0  0  0  0  0  0
    1.5000    0.0000    0.0000 C   0  0  0  0  0  0  0  0  0  0  0  0
    0.7500    1.2990    0.0000 C   0  0  0  0  0  0  0  0  0  0  0  0
   -0.7500    1.2990    0.0000 C   0  0  0  0  0  0  0  0  0  0  0  0
   -1.5000    0.0000    0.0000 N   0  0  0  0  0  0  0  0  0  0  0  0
   -0.7500   -1.2990    0.0000 C   0  0  0  0  0  0  0  0  0  0  0  0
   -5.2418   -4.0539    0.0000 C   0  0  0  0  0  0  0  0  0  0  0  0
   -6.3565   -3.0502    0.0000 C   0  0  0  0  0  0  0  0  0  0  0  0
   -7.7831   -3.5137    0.0000 C   0  0  0  0  0  0  0  0  0  0  0  0
   -8.0950   -4.9810    0.0000 C   0  0  0  0  0  0  0  0  0  0  0  0
   -6.9802   -5.9847    0.0000 C   0  0  0  0  0  0  0  0  0  0  0  0
   -5.5537   -5.5211    0.0000 C   0  0  0  0  0  0  0  0  0  0  0  0
  1  2  1  0
  2  3  2  0
  3  4  1  0
  4  5  2  0
  5  6  1  0
  6  7  2  0
  7  8  1  0
  8  9  2  0
  9 10  1  0
 10 11  2  0
 11 12  1  0
 12 13  2  0
 13 14  1  0
 14 15  2  0
  4 16  1  0
 16 17  2  0
 17 18  1  0
 18 19  2  0
 19 20  1  0
 20 21  2  0
 21  2  1  0
 15  6  1  0
 21 16  1  0
 15 10  1  0
M  END
>  <Compound_ID>  (589) 
C40802567

>  <Active>  (589) 
0.0

>  <Smiles>  (589) 
NC1=N/C(=N\c2cccc3cccnc23)c2ccccc21

>  <canonical_smi>  (589) 
NC1=N/C(=N\c2cccc3cccnc23)c2ccccc21

>  <Set>  (589) 
G2 inactive

>  <Set_type>  (589) 
Train

>  <MW>  (589) 
272.31

>  <HBD>  (589) 
1

>  <HBA>  (589) 
2

>  <NRB>  (589) 
1

>  <NR>  (589) 
4

>  <NAR>  (589) 
3

>  <PSA>  (589) 
63.63

>  <Standard Type>  (589) 
nan

>  <Standard Relation>  (589) 
nan

>  <Standard Units>  (589) 
nan

>  <Standard Value>  (589) 
nan

>  <Assay ChEMBL ID>  (589) 
nan

>  <Assay Description>  (589) 
nan

>  <BAO Label>  (589) 
nan

$$$$

     RDKit          2D

 21 23  0  0  0  0  0  0  0  0999 V2000
    3.0000    0.0000    0.0000 C   0  0  0  0  0  0  0  0  0  0  0  0
    1.5000    0.0000    0.0000 C   0  0  0  0  0  0  0  0  0  0  0  0
    0.7500   -1.2990    0.0000 C   0  0  0  0  0  0  0  0  0  0  0  0
   -0.7500   -1.2990    0.0000 C   0  0  0  0  0  0  0  0  0  0  0  0
   -1.5000    0.0000    0.0000 C   0  0  0  0  0  0  0  0  0  0  0  0
   -3.0000    0.0000    0.0000 O   0  0  0  0  0  0  0  0  0  0  0  0
   -0.7500    1.2990    0.0000 C   0  0  0  0  0  0  0  0  0  0  0  0
    0.7500    1.2990    0.0000 C   0  0  0  0  0  0  0  0  0  0  0  0
    1.2135    2.7256    0.0000 C   0  0  0  0  0  0  0  0  0  0  0  0
    2.6401    3.1891    0.0000 C   0  0  0  0  0  0  0  0  0  0  0  0
    0.0000    3.6073    0.0000 C   0  0  0  0  0  0  0  0  0  0  0  0
   -1.2135    2.7256    0.0000 C   0  0  0  0  0  0  0  0  0  0  0  0
   -2.6401    3.1891    0.0000 N   0  0  0  0  0  0  0  0  0  0  0  0
   -2.9520    4.6564    0.0000 C   0  0  0  0  0  0  0  0  0  0  0  0
   -4.3223    5.2665    0.0000 C   0  0  0  0  0  0  0  0  0  0  0  0
   -4.1655    6.7583    0.0000 N   0  0  0  0  0  0  0  0  0  0  0  0
   -2.6983    7.0701    0.0000 N   0  0  0  0  0  0  0  0  0  0  0  0
   -2.0882    8.4404    0.0000 C   0  0  0  0  0  0  0  0  0  0  0  0
   -0.5964    8.5972    0.0000 C   0  0  0  0  0  0  0  0  0  0  0  0
   -2.9699    9.6540    0.0000 C   0  0  0  0  0  0  0  0  0  0  0  0
   -1.9483    5.7711    0.0000 C   0  0  0  0  0  0  0  0  0  0  0  0
  1  2  1  0
  2  3  2  0
  3  4  1  0
  4  5  2  0
  5  6  1  0
  5  7  1  0
  7  8  2  0
  8  9  1  0
  9 10  1  6
  9 11  1  0
 11 12  1  0
 12 13  1  6
 13 14  1  0
 14 15  1  0
 15 16  2  0
 16 17  1  0
 17 18  1  0
 18 19  1  0
 18 20  1  0
 17 21  1  0
  8  2  1  0
 21 14  2  0
 12  7  1  0
M  END
>  <Compound_ID>  (590) 
C61682680

>  <Active>  (590) 
0.0

>  <Smiles>  (590) 
Cc1ccc(O)c2c1[C@@H](C)C[C@H]2Nc1cnn(C(C)C)c1

>  <canonical_smi>  (590) 
Cc1ccc(O)c2c1[C@@H](C)C[C@H]2Nc1cnn(C(C)C)c1

>  <Set>  (590) 
G2 inactive

>  <Set_type>  (590) 
Train

>  <MW>  (590) 
285.39

>  <HBD>  (590) 
2

>  <HBA>  (590) 
3

>  <NRB>  (590) 
3

>  <NR>  (590) 
3

>  <NAR>  (590) 
2

>  <PSA>  (590) 
50.08

>  <Standard Type>  (590) 
nan

>  <Standard Relation>  (590) 
nan

>  <Standard Units>  (590) 
nan

>  <Standard Value>  (590) 
nan

>  <Assay ChEMBL ID>  (590) 
nan

>  <Assay Description>  (590) 
nan

>  <BAO Label>  (590) 
nan

$$$$

     RDKit          2D

 10 10  0  0  0  0  0  0  0  0999 V2000
    3.7500   -1.2990    0.0000 C   0  0  0  0  0  0  0  0  0  0  0  0
    3.0000    0.0000    0.0000 C   0  0  0  0  0  0  0  0  0  0  0  0
    1.5000    0.0000    0.0000 C   0  0  0  0  0  0  0  0  0  0  0  0
    0.7500   -1.2990    0.0000 C   0  0  0  0  0  0  0  0  0  0  0  0
   -0.7500   -1.2990    0.0000 C   0  0  0  0  0  0  0  0  0  0  0  0
   -1.5000    0.0000    0.0000 C   0  0  0  0  0  0  0  0  0  0  0  0
   -3.0000    0.0000    0.0000 O   0  0  0  0  0  0  0  0  0  0  0  0
   -0.7500    1.2990    0.0000 C   0  0  0  0  0  0  0  0  0  0  0  0
   -1.5000    2.5981    0.0000 O   0  0  0  0  0  0  0  0  0  0  0  0
    0.7500    1.2990    0.0000 C   0  0  0  0  0  0  0  0  0  0  0  0
  1  2  2  0
  3  2  1  6
  3  4  1  0
  4  5  1  0
  5  6  1  0
  6  7  1  1
  6  8  1  0
  8  9  1  1
  8 10  1  0
 10  3  1  0
M  END
>  <Compound_ID>  (591) 
C00410134

>  <Active>  (591) 
0.0

>  <Smiles>  (591) 
C=C[C@@H]1CC[C@@H](O)[C@@H](O)C1

>  <canonical_smi>  (591) 
C=C[C@@H]1CC[C@@H](O)[C@@H](O)C1

>  <Set>  (591) 
G2 inactive

>  <Set_type>  (591) 
Train

>  <MW>  (591) 
142.2

>  <HBD>  (591) 
2

>  <HBA>  (591) 
2

>  <NRB>  (591) 
1

>  <NR>  (591) 
1

>  <NAR>  (591) 
0

>  <PSA>  (591) 
40.46

>  <Standard Type>  (591) 
nan

>  <Standard Relation>  (591) 
nan

>  <Standard Units>  (591) 
nan

>  <Standard Value>  (591) 
nan

>  <Assay ChEMBL ID>  (591) 
nan

>  <Assay Description>  (591) 
nan

>  <BAO Label>  (591) 
nan

$$$$

     RDKit          2D

 10 10  0  0  0  0  0  0  0  0999 V2000
    5.0260   -1.2990    0.0000 C   0  0  0  0  0  0  0  0  0  0  0  0
    3.5260   -1.2990    0.0000 S   0  0  0  0  0  0  0  0  0  0  0  0
    2.7760    0.0000    0.0000 C   0  0  0  0  0  0  0  0  0  0  0  0
    1.2760    0.0000    0.0000 C   0  0  0  0  0  0  0  0  0  0  0  0
    0.3943    1.2135    0.0000 C   0  0  0  0  0  0  0  0  0  0  0  0
   -1.0323    0.7500    0.0000 N   0  0  0  0  0  0  0  0  0  0  0  0
   -2.2458    1.6317    0.0000 N   0  0  0  0  0  0  0  0  0  0  0  0
   -1.0323   -0.7500    0.0000 C   0  0  0  0  0  0  0  0  0  0  0  0
   -2.2458   -1.6317    0.0000 O   0  0  0  0  0  0  0  0  0  0  0  0
    0.3943   -1.2135    0.0000 O   0  0  0  0  0  0  0  0  0  0  0  0
  1  2  1  0
  2  3  1  0
  4  3  1  6
  4  5  1  0
  5  6  1  0
  6  7  1  0
  6  8  1  0
  8  9  2  0
  8 10  1  0
 10  4  1  0
M  END
>  <Compound_ID>  (592) 
C06019768

>  <Active>  (592) 
0.0

>  <Smiles>  (592) 
CSC[C@H]1CN(N)C(=O)O1

>  <canonical_smi>  (592) 
CSC[C@H]1CN(N)C(=O)O1

>  <Set>  (592) 
G2 inactive

>  <Set_type>  (592) 
Train

>  <MW>  (592) 
162.21

>  <HBD>  (592) 
1

>  <HBA>  (592) 
4

>  <NRB>  (592) 
2

>  <NR>  (592) 
1

>  <NAR>  (592) 
0

>  <PSA>  (592) 
55.56

>  <Standard Type>  (592) 
nan

>  <Standard Relation>  (592) 
nan

>  <Standard Units>  (592) 
nan

>  <Standard Value>  (592) 
nan

>  <Assay ChEMBL ID>  (592) 
nan

>  <Assay Description>  (592) 
nan

>  <BAO Label>  (592) 
nan

$$$$

     RDKit          2D

 11 11  0  0  0  0  0  0  0  0999 V2000
    2.3907    1.0037    0.0000 C   0  0  0  0  0  0  0  0  0  0  0  0
    1.2760    0.0000    0.0000 C   0  0  0  0  0  0  0  0  0  0  0  0
    2.3907   -1.0037    0.0000 C   0  0  0  0  0  0  0  0  0  0  0  0
    0.3943    1.2135    0.0000 C   0  0  0  0  0  0  0  0  0  0  0  0
    0.8578    2.6401    0.0000 O   0  0  0  0  0  0  0  0  0  0  0  0
   -1.0323    0.7500    0.0000 O   0  0  0  0  0  0  0  0  0  0  0  0
   -1.0323   -0.7500    0.0000 C   0  0  0  0  0  0  0  0  0  0  0  0
   -2.2458   -1.6317    0.0000 O   0  0  0  0  0  0  0  0  0  0  0  0
    0.3943   -1.2135    0.0000 C   0  0  0  0  0  0  0  0  0  0  0  0
    1.6933   -1.9635    0.0000 C   0  0  0  0  0  0  0  0  0  0  0  0
   -0.2158   -2.5838    0.0000 C   0  0  0  0  0  0  0  0  0  0  0  0
  1  2  1  0
  2  3  1  0
  2  4  1  0
  4  5  1  1
  4  6  1  0
  6  7  1  0
  7  8  1  6
  7  9  1  0
  9 10  1  0
  9 11  1  0
  9  2  1  0
M  END
>  <Compound_ID>  (593) 
C01612673

>  <Active>  (593) 
0.0

>  <Smiles>  (593) 
CC1(C)[C@H](O)O[C@@H](O)C1(C)C

>  <canonical_smi>  (593) 
CC1(C)[C@H](O)O[C@@H](O)C1(C)C

>  <Set>  (593) 
G2 inactive

>  <Set_type>  (593) 
Train

>  <MW>  (593) 
160.21

>  <HBD>  (593) 
2

>  <HBA>  (593) 
3

>  <NRB>  (593) 
0

>  <NR>  (593) 
1

>  <NAR>  (593) 
0

>  <PSA>  (593) 
49.69

>  <Standard Type>  (593) 
nan

>  <Standard Relation>  (593) 
nan

>  <Standard Units>  (593) 
nan

>  <Standard Value>  (593) 
nan

>  <Assay ChEMBL ID>  (593) 
nan

>  <Assay Description>  (593) 
nan

>  <BAO Label>  (593) 
nan

$$$$

     RDKit          2D

  7  6  0  0  0  0  0  0  0  0999 V2000
    0.0000    0.0000    0.0000 C   0  0  0  0  0  0  0  0  0  0  0  0
    1.2990    0.7500    0.0000 C   0  0  0  0  0  0  0  0  0  0  0  0
    2.5981   -0.0000    0.0000 C   0  0  0  0  0  0  0  0  0  0  0  0
    2.5981   -1.5000    0.0000 Br  0  0  0  0  0  0  0  0  0  0  0  0
    3.8971    0.7500    0.0000 C   0  0  0  0  0  0  0  0  0  0  0  0
    5.1962   -0.0000    0.0000 N   0  0  0  0  0  0  0  0  0  0  0  0
    3.8971    2.2500    0.0000 O   0  0  0  0  0  0  0  0  0  0  0  0
  1  2  1  0
  2  3  1  0
  3  4  1  6
  3  5  1  0
  5  6  1  0
  5  7  2  0
M  END
>  <Compound_ID>  (594) 
C01679991

>  <Active>  (594) 
0.0

>  <Smiles>  (594) 
CC[C@@H](Br)C(N)=O

>  <canonical_smi>  (594) 
CC[C@@H](Br)C(N)=O

>  <Set>  (594) 
G2 inactive

>  <Set_type>  (594) 
Train

>  <MW>  (594) 
166.02

>  <HBD>  (594) 
1

>  <HBA>  (594) 
1

>  <NRB>  (594) 
2

>  <NR>  (594) 
0

>  <NAR>  (594) 
0

>  <PSA>  (594) 
43.09

>  <Standard Type>  (594) 
nan

>  <Standard Relation>  (594) 
nan

>  <Standard Units>  (594) 
nan

>  <Standard Value>  (594) 
nan

>  <Assay ChEMBL ID>  (594) 
nan

>  <Assay Description>  (594) 
nan

>  <BAO Label>  (594) 
nan

$$$$

     RDKit          2D

  7  6  0  0  0  0  0  0  0  0999 V2000
   -1.2990    0.7500    0.0000 O   0  0  0  0  0  0  0  0  0  0  0  0
    0.0000    0.0000    0.0000 C   0  0  0  0  0  0  0  0  0  0  0  0
   -0.0000   -1.5000    0.0000 O   0  0  0  0  0  0  0  0  0  0  0  0
    1.2990    0.7500    0.0000 C   0  0  0  0  0  0  0  0  0  0  0  0
    2.5981    1.5000    0.0000 F   0  0  0  0  0  0  0  0  0  0  0  0
    2.0490   -0.5490    0.0000 F   0  0  0  0  0  0  0  0  0  0  0  0
    0.5490    2.0490    0.0000 F   0  0  0  0  0  0  0  0  0  0  0  0
  1  2  1  0
  2  3  1  0
  2  4  1  0
  4  5  1  0
  4  6  1  0
  4  7  1  0
M  END
>  <Compound_ID>  (595) 
C05086661

>  <Active>  (595) 
0.0

>  <Smiles>  (595) 
OC(O)C(F)(F)F

>  <canonical_smi>  (595) 
OC(O)C(F)(F)F

>  <Set>  (595) 
G2 inactive

>  <Set_type>  (595) 
Train

>  <MW>  (595) 
116.04

>  <HBD>  (595) 
2

>  <HBA>  (595) 
2

>  <NRB>  (595) 
0

>  <NR>  (595) 
0

>  <NAR>  (595) 
0

>  <PSA>  (595) 
40.46

>  <Standard Type>  (595) 
nan

>  <Standard Relation>  (595) 
nan

>  <Standard Units>  (595) 
nan

>  <Standard Value>  (595) 
nan

>  <Assay ChEMBL ID>  (595) 
nan

>  <Assay Description>  (595) 
nan

>  <BAO Label>  (595) 
nan

$$$$

     RDKit          2D

 10 11  0  0  0  0  0  0  0  0999 V2000
    2.7760    0.0000    0.0000 O   0  0  0  0  0  0  0  0  0  0  0  0
    1.2760    0.0000    0.0000 C   0  0  0  0  0  0  0  0  0  0  0  0
    0.3943    1.2135    0.0000 C   0  0  0  0  0  0  0  0  0  0  0  0
   -1.0323    0.7500    0.0000 C   0  0  0  0  0  0  0  0  0  0  0  0
   -1.0323   -0.7500    0.0000 C   0  0  0  0  0  0  0  0  0  0  0  0
    0.3943   -1.2135    0.0000 C   0  0  0  0  0  0  0  0  0  0  0  0
    0.3943   -2.7135    0.0000 C   0  0  0  0  0  0  0  0  0  0  0  0
   -1.0323   -3.1771    0.0000 C   0  0  0  0  0  0  0  0  0  0  0  0
   -1.9140   -1.9635    0.0000 C   0  0  0  0  0  0  0  0  0  0  0  0
   -3.4140   -1.9635    0.0000 O   0  0  0  0  0  0  0  0  0  0  0  0
  2  1  1  6
  2  3  1  0
  3  4  1  0
  5  4  1  1
  5  6  1  0
  6  7  1  6
  7  8  1  0
  8  9  1  0
  9 10  1  6
  6  2  1  0
  9  5  1  0
M  END
>  <Compound_ID>  (596) 
C18716183

>  <Active>  (596) 
0.0

>  <Smiles>  (596) 
O[C@H]1CC[C@H]2[C@H]1CC[C@@H]2O

>  <canonical_smi>  (596) 
O[C@H]1CC[C@H]2[C@@H](O)CC[C@H]12

>  <Set>  (596) 
G2 inactive

>  <Set_type>  (596) 
Train

>  <MW>  (596) 
142.2

>  <HBD>  (596) 
2

>  <HBA>  (596) 
2

>  <NRB>  (596) 
0

>  <NR>  (596) 
2

>  <NAR>  (596) 
0

>  <PSA>  (596) 
40.46

>  <Standard Type>  (596) 
nan

>  <Standard Relation>  (596) 
nan

>  <Standard Units>  (596) 
nan

>  <Standard Value>  (596) 
nan

>  <Assay ChEMBL ID>  (596) 
nan

>  <Assay Description>  (596) 
nan

>  <BAO Label>  (596) 
nan

$$$$

     RDKit          2D

 10 10  0  0  0  0  0  0  0  0999 V2000
    3.0000    0.0000    0.0000 C   0  0  0  0  0  0  0  0  0  0  0  0
    1.5000    0.0000    0.0000 C   0  0  0  0  0  0  0  0  0  0  0  0
    0.7500   -1.2990    0.0000 N   0  0  0  0  0  0  0  0  0  0  0  0
   -0.7500   -1.2990    0.0000 C   0  0  0  0  0  0  0  0  0  0  0  0
   -1.5000   -2.5981    0.0000 S   0  0  0  0  0  0  0  0  0  0  0  0
   -1.5000    0.0000    0.0000 N   0  0  0  0  0  0  0  0  0  0  0  0
   -0.7500    1.2990    0.0000 C   0  0  0  0  0  0  0  0  0  0  0  0
   -1.5000    2.5981    0.0000 O   0  0  0  0  0  0  0  0  0  0  0  0
    0.7500    1.2990    0.0000 C   0  0  0  0  0  0  0  0  0  0  0  0
    1.5000    2.5981    0.0000 C   0  0  0  0  0  0  0  0  0  0  0  0
  1  2  1  0
  2  3  1  0
  3  4  1  0
  4  5  2  0
  4  6  1  0
  6  7  1  0
  7  8  2  0
  7  9  1  0
  9 10  1  0
  9  2  2  0
M  END
>  <Compound_ID>  (597) 
C16124820

>  <Active>  (597) 
0.0

>  <Smiles>  (597) 
Cc1[nH]c(=S)[nH]c(=O)c1C

>  <canonical_smi>  (597) 
Cc1[nH]c(=S)[nH]c(=O)c1C

>  <Set>  (597) 
G2 inactive

>  <Set_type>  (597) 
Train

>  <MW>  (597) 
156.21

>  <HBD>  (597) 
2

>  <HBA>  (597) 
2

>  <NRB>  (597) 
0

>  <NR>  (597) 
1

>  <NAR>  (597) 
1

>  <PSA>  (597) 
48.65

>  <Standard Type>  (597) 
nan

>  <Standard Relation>  (597) 
nan

>  <Standard Units>  (597) 
nan

>  <Standard Value>  (597) 
nan

>  <Assay ChEMBL ID>  (597) 
nan

>  <Assay Description>  (597) 
nan

>  <BAO Label>  (597) 
nan

$$$$

     RDKit          2D

 11 11  0  0  0  0  0  0  0  0999 V2000
    5.2500   -1.2990    0.0000 C   0  0  0  0  0  0  0  0  0  0  0  0
    3.7500   -1.2990    0.0000 C   0  0  0  0  0  0  0  0  0  0  0  0
    3.0000   -2.5981    0.0000 C   0  0  0  0  0  0  0  0  0  0  0  0
    3.0000    0.0000    0.0000 C   0  0  0  0  0  0  0  0  0  0  0  0
    1.5000    0.0000    0.0000 N   0  0  0  0  0  0  0  0  0  0  0  0
    0.7500   -1.2990    0.0000 C   0  0  0  0  0  0  0  0  0  0  0  0
   -0.7500   -1.2990    0.0000 N   0  0  0  0  0  0  0  0  0  0  0  0
   -1.5000    0.0000    0.0000 C   0  0  0  0  0  0  0  0  0  0  0  0
   -3.0000    0.0000    0.0000 S   0  0  0  0  0  0  0  0  0  0  0  0
   -0.7500    1.2990    0.0000 N   0  0  0  0  0  0  0  0  0  0  0  0
    0.7500    1.2990    0.0000 C   0  0  0  0  0  0  0  0  0  0  0  0
  1  2  1  0
  2  3  1  0
  2  4  1  0
  4  5  1  0
  5  6  1  0
  6  7  1  0
  7  8  1  0
  8  9  2  0
  8 10  1  0
 10 11  1  0
 11  5  1  0
M  END
>  <Compound_ID>  (598) 
C26330380

>  <Active>  (598) 
0.0

>  <Smiles>  (598) 
CC(C)CN1CNC(=S)NC1

>  <canonical_smi>  (598) 
CC(C)CN1CNC(=S)NC1

>  <Set>  (598) 
G2 inactive

>  <Set_type>  (598) 
Train

>  <MW>  (598) 
173.28

>  <HBD>  (598) 
2

>  <HBA>  (598) 
4

>  <NRB>  (598) 
2

>  <NR>  (598) 
1

>  <NAR>  (598) 
0

>  <PSA>  (598) 
27.3

>  <Standard Type>  (598) 
nan

>  <Standard Relation>  (598) 
nan

>  <Standard Units>  (598) 
nan

>  <Standard Value>  (598) 
nan

>  <Assay ChEMBL ID>  (598) 
nan

>  <Assay Description>  (598) 
nan

>  <BAO Label>  (598) 
nan

$$$$

     RDKit          2D

 11 12  0  0  0  0  0  0  0  0999 V2000
   -1.4958    4.6036    0.0000 C   0  0  0  0  0  0  0  0  0  0  0  0
   -1.0323    3.1771    0.0000 C   0  0  0  0  0  0  0  0  0  0  0  0
    0.3943    2.7135    0.0000 N   0  0  0  0  0  0  0  0  0  0  0  0
    0.3943    1.2135    0.0000 C   0  0  0  0  0  0  0  0  0  0  0  0
    1.2760    0.0000    0.0000 S   0  0  0  0  0  0  0  0  0  0  0  0
    0.3943   -1.2135    0.0000 C   0  0  0  0  0  0  0  0  0  0  0  0
   -1.0323   -0.7500    0.0000 C   0  0  0  0  0  0  0  0  0  0  0  0
   -2.2458   -1.6317    0.0000 C   0  0  0  0  0  0  0  0  0  0  0  0
   -1.0323    0.7500    0.0000 N   0  0  0  0  0  0  0  0  0  0  0  0
   -1.9140    1.9635    0.0000 C   0  0  0  0  0  0  0  0  0  0  0  0
   -3.4140    1.9635    0.0000 N   0  0  0  0  0  0  0  0  0  0  0  0
  1  2  1  0
  2  3  1  0
  3  4  2  0
  4  5  1  0
  5  6  1  0
  6  7  2  0
  7  8  1  0
  7  9  1  0
  9 10  1  0
 10 11  1  0
 10  2  2  0
  9  4  1  0
M  END
>  <Compound_ID>  (599) 
C36290365

>  <Active>  (599) 
0.0

>  <Smiles>  (599) 
Cc1nc2scc(C)n2c1N

>  <canonical_smi>  (599) 
Cc1nc2scc(C)n2c1N

>  <Set>  (599) 
G2 inactive

>  <Set_type>  (599) 
Train

>  <MW>  (599) 
167.24

>  <HBD>  (599) 
1

>  <HBA>  (599) 
2

>  <NRB>  (599) 
0

>  <NR>  (599) 
2

>  <NAR>  (599) 
2

>  <PSA>  (599) 
43.32

>  <Standard Type>  (599) 
nan

>  <Standard Relation>  (599) 
nan

>  <Standard Units>  (599) 
nan

>  <Standard Value>  (599) 
nan

>  <Assay ChEMBL ID>  (599) 
nan

>  <Assay Description>  (599) 
nan

>  <BAO Label>  (599) 
nan

$$$$

     RDKit          2D

 10 10  0  0  0  0  0  0  0  0999 V2000
    3.7500   -1.2990    0.0000 O   0  0  0  0  0  0  0  0  0  0  0  0
    3.0000    0.0000    0.0000 N   0  0  0  0  0  0  0  0  0  0  0  0
    1.5000    0.0000    0.0000 C   0  0  0  0  0  0  0  0  0  0  0  0
    0.7500   -1.2990    0.0000 C   0  0  0  0  0  0  0  0  0  0  0  0
   -0.7500   -1.2990    0.0000 C   0  0  0  0  0  0  0  0  0  0  0  0
   -1.5000    0.0000    0.0000 C   0  0  0  0  0  0  0  0  0  0  0  0
   -3.0000    0.0000    0.0000 N   0  0  0  0  0  0  0  0  0  0  0  0
   -3.7500    1.2990    0.0000 O   0  0  0  0  0  0  0  0  0  0  0  0
   -0.7500    1.2990    0.0000 C   0  0  0  0  0  0  0  0  0  0  0  0
    0.7500    1.2990    0.0000 C   0  0  0  0  0  0  0  0  0  0  0  0
  1  2  1  0
  2  3  2  0
  3  4  1  0
  4  5  2  0
  5  6  1  0
  6  7  2  0
  7  8  1  0
  6  9  1  0
  9 10  2  0
 10  3  1  0
M  END
>  <Compound_ID>  (600) 
C03875735

>  <Active>  (600) 
0.0

>  <Smiles>  (600) 
ON=C1C=CC(=NO)C=C1

>  <canonical_smi>  (600) 
ON=C1C=CC(=NO)C=C1

>  <Set>  (600) 
G2 inactive

>  <Set_type>  (600) 
Train

>  <MW>  (600) 
138.13

>  <HBD>  (600) 
2

>  <HBA>  (600) 
2

>  <NRB>  (600) 
0

>  <NR>  (600) 
1

>  <NAR>  (600) 
0

>  <PSA>  (600) 
65.18

>  <Standard Type>  (600) 
nan

>  <Standard Relation>  (600) 
nan

>  <Standard Units>  (600) 
nan

>  <Standard Value>  (600) 
nan

>  <Assay ChEMBL ID>  (600) 
nan

>  <Assay Description>  (600) 
nan

>  <BAO Label>  (600) 
nan

$$$$

     RDKit          2D

  9  8  0  0  0  0  0  0  0  0999 V2000
   -0.7500    1.2990    0.0000 C   0  0  0  0  0  0  0  0  0  0  0  0
    0.0000    0.0000    0.0000 C   0  0  0  0  0  0  0  0  0  0  0  0
    1.5000    0.0000    0.0000 N   0  0  0  0  0  0  0  0  0  0  0  0
    2.2500   -1.2990    0.0000 O   0  0  0  0  0  0  0  0  0  0  0  0
   -0.7500   -1.2990    0.0000 C   0  0  0  0  0  0  0  0  0  0  0  0
   -2.2500   -1.2990    0.0000 C   0  0  0  0  0  0  0  0  0  0  0  0
   -3.0000   -2.5981    0.0000 Cl  0  0  0  0  0  0  0  0  0  0  0  0
    0.0000   -2.5981    0.0000 N   0  0  0  0  0  0  0  0  0  0  0  0
   -0.7500   -3.8971    0.0000 O   0  0  0  0  0  0  0  0  0  0  0  0
  1  2  1  0
  2  3  2  0
  3  4  1  0
  2  5  1  0
  5  6  1  0
  6  7  1  0
  5  8  2  0
  8  9  1  0
M  END
>  <Compound_ID>  (601) 
C38635244

>  <Active>  (601) 
0.0

>  <Smiles>  (601) 
CC(=N/O)/C(CCl)=N/O

>  <canonical_smi>  (601) 
CC(=N/O)/C(CCl)=N/O

>  <Set>  (601) 
G2 inactive

>  <Set_type>  (601) 
Train

>  <MW>  (601) 
150.56

>  <HBD>  (601) 
2

>  <HBA>  (601) 
2

>  <NRB>  (601) 
2

>  <NR>  (601) 
0

>  <NAR>  (601) 
0

>  <PSA>  (601) 
65.18

>  <Standard Type>  (601) 
nan

>  <Standard Relation>  (601) 
nan

>  <Standard Units>  (601) 
nan

>  <Standard Value>  (601) 
nan

>  <Assay ChEMBL ID>  (601) 
nan

>  <Assay Description>  (601) 
nan

>  <BAO Label>  (601) 
nan

$$$$

     RDKit          2D

 10 10  0  0  0  0  0  0  0  0999 V2000
    3.5054    2.0074    0.0000 C   0  0  0  0  0  0  0  0  0  0  0  0
    2.3907    1.0037    0.0000 C   0  0  0  0  0  0  0  0  0  0  0  0
    1.2760    0.0000    0.0000 C   0  0  0  0  0  0  0  0  0  0  0  0
    2.3907   -1.0037    0.0000 O   0  0  0  0  0  0  0  0  0  0  0  0
    0.3943    1.2135    0.0000 C   0  0  0  0  0  0  0  0  0  0  0  0
   -1.0323    0.7500    0.0000 C   0  0  0  0  0  0  0  0  0  0  0  0
   -1.0323   -0.7500    0.0000 C   0  0  0  0  0  0  0  0  0  0  0  0
   -2.2458   -1.6317    0.0000 C   0  0  0  0  0  0  0  0  0  0  0  0
    0.3943   -1.2135    0.0000 C   0  0  0  0  0  0  0  0  0  0  0  0
    0.8578   -2.6401    0.0000 O   0  0  0  0  0  0  0  0  0  0  0  0
  1  2  3  0
  2  3  1  0
  3  4  1  1
  3  5  1  0
  5  6  1  0
  6  7  2  0
  7  8  1  0
  7  9  1  0
  9 10  1  1
  9  3  1  0
M  END
>  <Compound_ID>  (602) 
C39049407

>  <Active>  (602) 
0.0

>  <Smiles>  (602) 
C#C[C@@]1(O)CC=C(C)[C@@H]1O

>  <canonical_smi>  (602) 
C#C[C@@]1(O)CC=C(C)[C@@H]1O

>  <Set>  (602) 
G2 inactive

>  <Set_type>  (602) 
Train

>  <MW>  (602) 
138.17

>  <HBD>  (602) 
2

>  <HBA>  (602) 
2

>  <NRB>  (602) 
0

>  <NR>  (602) 
1

>  <NAR>  (602) 
0

>  <PSA>  (602) 
40.46

>  <Standard Type>  (602) 
nan

>  <Standard Relation>  (602) 
nan

>  <Standard Units>  (602) 
nan

>  <Standard Value>  (602) 
nan

>  <Assay ChEMBL ID>  (602) 
nan

>  <Assay Description>  (602) 
nan

>  <BAO Label>  (602) 
nan

$$$$

     RDKit          2D

 11 11  0  0  0  0  0  0  0  0999 V2000
    5.4786    1.2990    0.0000 O   0  0  0  0  0  0  0  0  0  0  0  0
    3.9786    1.2990    0.0000 C   0  0  0  0  0  0  0  0  0  0  0  0
    3.2286   -0.0000    0.0000 C   0  0  0  0  0  0  0  0  0  0  0  0
    1.7286    0.0000    0.0000 C   0  0  0  0  0  0  0  0  0  0  0  0
    1.0777    1.3515    0.0000 O   0  0  0  0  0  0  0  0  0  0  0  0
   -0.3846    1.6852    0.0000 C   0  0  0  0  0  0  0  0  0  0  0  0
   -1.5574    0.7500    0.0000 C   0  0  0  0  0  0  0  0  0  0  0  0
   -1.5574   -0.7500    0.0000 C   0  0  0  0  0  0  0  0  0  0  0  0
   -0.3846   -1.6852    0.0000 C   0  0  0  0  0  0  0  0  0  0  0  0
    1.0777   -1.3515    0.0000 C   0  0  0  0  0  0  0  0  0  0  0  0
    2.0130   -2.5242    0.0000 O   0  0  0  0  0  0  0  0  0  0  0  0
  1  2  1  0
  2  3  1  0
  4  3  1  1
  4  5  1  0
  5  6  1  0
  6  7  1  0
  7  8  1  0
  8  9  1  0
  9 10  1  0
 10 11  1  1
 10  4  1  0
M  END
>  <Compound_ID>  (603) 
C39060370

>  <Active>  (603) 
0.0

>  <Smiles>  (603) 
OCC[C@@H]1OCCCC[C@@H]1O

>  <canonical_smi>  (603) 
OCC[C@@H]1OCCCC[C@@H]1O

>  <Set>  (603) 
G2 inactive

>  <Set_type>  (603) 
Train

>  <MW>  (603) 
160.21

>  <HBD>  (603) 
2

>  <HBA>  (603) 
3

>  <NRB>  (603) 
2

>  <NR>  (603) 
1

>  <NAR>  (603) 
0

>  <PSA>  (603) 
49.69

>  <Standard Type>  (603) 
nan

>  <Standard Relation>  (603) 
nan

>  <Standard Units>  (603) 
nan

>  <Standard Value>  (603) 
nan

>  <Assay ChEMBL ID>  (603) 
nan

>  <Assay Description>  (603) 
nan

>  <BAO Label>  (603) 
nan

$$$$

     RDKit          2D

 11 15  0  0  0  0  0  0  0  0999 V2000
    2.1651   -2.2500    0.0000 N   0  0  0  0  0  0  0  0  0  0  0  0
    2.1651   -0.7500    0.0000 C   0  0  0  0  0  0  0  0  0  0  0  0
    3.4641    0.0000    0.0000 O   0  0  0  0  0  0  0  0  0  0  0  0
    0.8660    0.0000    0.0000 C   0  0  0  0  0  0  0  0  0  0  0  0
   -0.4330    0.7500    0.0000 C   0  0  0  0  0  0  0  0  0  0  0  0
   -0.4330   -0.7500    0.0000 C   0  0  0  0  0  0  0  0  0  0  0  0
   -1.7321   -0.0000    0.0000 C   0  0  0  0  0  0  0  0  0  0  0  0
   -3.0311    0.7500    0.0000 C   0  0  0  0  0  0  0  0  0  0  0  0
   -1.7321    1.5000    0.0000 C   0  0  0  0  0  0  0  0  0  0  0  0
   -0.4330    2.2500    0.0000 C   0  0  0  0  0  0  0  0  0  0  0  0
    0.8660    1.5000    0.0000 C   0  0  0  0  0  0  0  0  0  0  0  0
  1  2  1  0
  2  3  2  0
  2  4  1  0
  4  5  1  0
  6  5  1  1
  6  7  1  0
  7  8  1  0
  8  9  1  0
  9 10  1  0
 10 11  1  0
  6  4  1  0
  9  7  1  0
 11  4  1  0
 11  5  1  1
 10  8  1  0
M  END
>  <Compound_ID>  (604) 
C34446351

>  <Active>  (604) 
0.0

>  <Smiles>  (604) 
NC(=O)C12C3[C@H]1C1C4C1C4[C@@H]32

>  <canonical_smi>  (604) 
NC(=O)C12C3[C@@H]1C1C4C1C4[C@H]32

>  <Set>  (604) 
G2 inactive

>  <Set_type>  (604) 
Train

>  <MW>  (604) 
147.18

>  <HBD>  (604) 
1

>  <HBA>  (604) 
1

>  <NRB>  (604) 
1

>  <NR>  (604) 
8

>  <NAR>  (604) 
0

>  <PSA>  (604) 
43.09

>  <Standard Type>  (604) 
nan

>  <Standard Relation>  (604) 
nan

>  <Standard Units>  (604) 
nan

>  <Standard Value>  (604) 
nan

>  <Assay ChEMBL ID>  (604) 
nan

>  <Assay Description>  (604) 
nan

>  <BAO Label>  (604) 
nan

$$$$

     RDKit          2D

 11 12  0  0  0  0  0  0  0  0999 V2000
   -4.1640   -0.8355    0.0000 O   0  0  0  0  0  0  0  0  0  0  0  0
   -3.4140    0.4635    0.0000 C   0  0  0  0  0  0  0  0  0  0  0  0
   -4.1640    1.7626    0.0000 N   0  0  0  0  0  0  0  0  0  0  0  0
   -5.6640    1.7626    0.0000 O   0  0  0  0  0  0  0  0  0  0  0  0
   -1.9140    0.4635    0.0000 C   0  0  0  0  0  0  0  0  0  0  0  0
   -1.0323    1.6771    0.0000 C   0  0  0  0  0  0  0  0  0  0  0  0
    0.3943    1.2135    0.0000 C   0  0  0  0  0  0  0  0  0  0  0  0
    1.2760    0.0000    0.0000 C   0  0  0  0  0  0  0  0  0  0  0  0
    0.3943   -1.2135    0.0000 C   0  0  0  0  0  0  0  0  0  0  0  0
   -1.0323   -0.7500    0.0000 C   0  0  0  0  0  0  0  0  0  0  0  0
   -1.0323    0.7500    0.0000 C   0  0  0  0  0  0  0  0  0  0  0  0
  1  2  2  0
  2  3  1  0
  3  4  1  0
  5  2  1  1
  5  6  1  0
  7  6  1  1
  7  8  1  0
  8  9  1  0
 10  9  1  1
 10 11  1  0
 10  5  1  0
 11  7  1  0
M  END
>  <Compound_ID>  (605) 
C39064994

>  <Active>  (605) 
0.0

>  <Smiles>  (605) 
O=C(NO)[C@H]1C[C@H]2CC[C@@H]1C2

>  <canonical_smi>  (605) 
O=C(NO)[C@H]1C[C@H]2CC[C@@H]1C2

>  <Set>  (605) 
G2 inactive

>  <Set_type>  (605) 
Train

>  <MW>  (605) 
155.2

>  <HBD>  (605) 
2

>  <HBA>  (605) 
2

>  <NRB>  (605) 
1

>  <NR>  (605) 
2

>  <NAR>  (605) 
0

>  <PSA>  (605) 
49.33

>  <Standard Type>  (605) 
nan

>  <Standard Relation>  (605) 
nan

>  <Standard Units>  (605) 
nan

>  <Standard Value>  (605) 
nan

>  <Assay ChEMBL ID>  (605) 
nan

>  <Assay Description>  (605) 
nan

>  <BAO Label>  (605) 
nan

$$$$

     RDKit          2D

 11 12  0  0  0  0  0  0  0  0999 V2000
   -1.9593    6.0302    0.0000 N   0  0  0  0  0  0  0  0  0  0  0  0
   -1.4958    4.6036    0.0000 C   0  0  0  0  0  0  0  0  0  0  0  0
   -1.0323    3.1771    0.0000 C   0  0  0  0  0  0  0  0  0  0  0  0
    0.3943    2.7135    0.0000 C   0  0  0  0  0  0  0  0  0  0  0  0
    1.6078    3.5952    0.0000 N   0  0  0  0  0  0  0  0  0  0  0  0
    0.3943    1.2135    0.0000 N   0  0  0  0  0  0  0  0  0  0  0  0
    1.2760    0.0000    0.0000 C   0  0  0  0  0  0  0  0  0  0  0  0
    0.3943   -1.2135    0.0000 C   0  0  0  0  0  0  0  0  0  0  0  0
   -1.0323   -0.7500    0.0000 N   0  0  0  0  0  0  0  0  0  0  0  0
   -1.0323    0.7500    0.0000 C   0  0  0  0  0  0  0  0  0  0  0  0
   -1.9140    1.9635    0.0000 S   0  0  0  0  0  0  0  0  0  0  0  0
  1  2  3  0
  2  3  1  0
  3  4  2  0
  4  5  1  0
  4  6  1  0
  6  7  1  0
  7  8  1  0
  8  9  1  0
  9 10  2  0
 10 11  1  0
 11  3  1  0
 10  6  1  0
M  END
>  <Compound_ID>  (606) 
C39082208

>  <Active>  (606) 
0.0

>  <Smiles>  (606) 
N#CC1=C(N)N2CCN=C2S1

>  <canonical_smi>  (606) 
N#CC1=C(N)N2CCN=C2S1

>  <Set>  (606) 
G2 inactive

>  <Set_type>  (606) 
Train

>  <MW>  (606) 
166.21

>  <HBD>  (606) 
1

>  <HBA>  (606) 
4

>  <NRB>  (606) 
0

>  <NR>  (606) 
2

>  <NAR>  (606) 
0

>  <PSA>  (606) 
65.41

>  <Standard Type>  (606) 
nan

>  <Standard Relation>  (606) 
nan

>  <Standard Units>  (606) 
nan

>  <Standard Value>  (606) 
nan

>  <Assay ChEMBL ID>  (606) 
nan

>  <Assay Description>  (606) 
nan

>  <BAO Label>  (606) 
nan

$$$$

     RDKit          2D

  9  9  0  0  0  0  0  0  0  0999 V2000
    3.5260   -1.2990    0.0000 C   0  0  0  0  0  0  0  0  0  0  0  0
    2.7760    0.0000    0.0000 C   0  0  0  0  0  0  0  0  0  0  0  0
    3.5260    1.2990    0.0000 C   0  0  0  0  0  0  0  0  0  0  0  0
    1.2760    0.0000    0.0000 C   0  0  0  0  0  0  0  0  0  0  0  0
    0.3943    1.2135    0.0000 C   0  0  0  0  0  0  0  0  0  0  0  0
   -1.0323    0.7500    0.0000 C   0  0  0  0  0  0  0  0  0  0  0  0
   -2.2458    1.6317    0.0000 O   0  0  0  0  0  0  0  0  0  0  0  0
   -1.0323   -0.7500    0.0000 N   0  0  0  0  0  0  0  0  0  0  0  0
    0.3943   -1.2135    0.0000 N   0  0  0  0  0  0  0  0  0  0  0  0
  1  2  1  0
  2  3  1  0
  4  2  1  1
  4  5  1  0
  5  6  1  0
  6  7  2  0
  6  8  1  0
  8  9  1  0
  9  4  1  0
M  END
>  <Compound_ID>  (607) 
C39095924

>  <Active>  (607) 
0.0

>  <Smiles>  (607) 
CC(C)[C@@H]1CC(=O)NN1

>  <canonical_smi>  (607) 
CC(C)[C@@H]1CC(=O)NN1

>  <Set>  (607) 
G2 inactive

>  <Set_type>  (607) 
Train

>  <MW>  (607) 
128.18

>  <HBD>  (607) 
2

>  <HBA>  (607) 
2

>  <NRB>  (607) 
1

>  <NR>  (607) 
1

>  <NAR>  (607) 
0

>  <PSA>  (607) 
41.13

>  <Standard Type>  (607) 
nan

>  <Standard Relation>  (607) 
nan

>  <Standard Units>  (607) 
nan

>  <Standard Value>  (607) 
nan

>  <Assay ChEMBL ID>  (607) 
nan

>  <Assay Description>  (607) 
nan

>  <BAO Label>  (607) 
nan

$$$$

     RDKit          2D

 12 12  0  0  0  0  0  0  0  0999 V2000
    2.7760   -2.5981    0.0000 O   0  0  0  0  0  0  0  0  0  0  0  0
    3.5260   -1.2990    0.0000 C   0  0  0  0  0  0  0  0  0  0  0  0
    2.7760    0.0000    0.0000 N   0  0  0  0  0  0  0  0  0  0  0  0
    1.2760    0.0000    0.0000 C   0  0  0  0  0  0  0  0  0  0  0  0
    0.3943    1.2135    0.0000 N   0  0  0  0  0  0  0  0  0  0  0  0
   -1.0323    0.7500    0.0000 C   0  0  0  0  0  0  0  0  0  0  0  0
   -1.0323   -0.7500    0.0000 C   0  0  0  0  0  0  0  0  0  0  0  0
    0.3943   -1.2135    0.0000 N   0  0  0  0  0  0  0  0  0  0  0  0
    5.0260   -1.2990    0.0000 C   0  0  0  0  0  0  0  0  0  0  0  0
    6.5260   -1.2990    0.0000 F   0  0  0  0  0  0  0  0  0  0  0  0
    5.0260   -2.7990    0.0000 F   0  0  0  0  0  0  0  0  0  0  0  0
    5.0260    0.2010    0.0000 F   0  0  0  0  0  0  0  0  0  0  0  0
  1  2  2  0
  2  3  1  0
  3  4  2  0
  4  5  1  0
  5  6  1  0
  6  7  2  0
  7  8  1  0
  2  9  1  0
  9 10  1  0
  9 11  1  0
  9 12  1  0
  8  4  1  0
M  END
>  <Compound_ID>  (608) 
C39133296

>  <Active>  (608) 
0.0

>  <Smiles>  (608) 
O=C(N=c1[nH]cc[nH]1)C(F)(F)F

>  <canonical_smi>  (608) 
O=C(N=c1[nH]cc[nH]1)C(F)(F)F

>  <Set>  (608) 
G2 inactive

>  <Set_type>  (608) 
Train

>  <MW>  (608) 
179.1

>  <HBD>  (608) 
2

>  <HBA>  (608) 
1

>  <NRB>  (608) 
0

>  <NR>  (608) 
1

>  <NAR>  (608) 
1

>  <PSA>  (608) 
61.01

>  <Standard Type>  (608) 
nan

>  <Standard Relation>  (608) 
nan

>  <Standard Units>  (608) 
nan

>  <Standard Value>  (608) 
nan

>  <Assay ChEMBL ID>  (608) 
nan

>  <Assay Description>  (608) 
nan

>  <BAO Label>  (608) 
nan

$$$$

     RDKit          2D

 12 13  0  0  0  0  0  0  0  0999 V2000
    2.7760    0.0000    0.0000 O   0  0  0  0  0  1  0  0  0  0  0  0
    1.2760    0.0000    0.0000 C   0  0  0  0  0  0  0  0  0  0  0  0
    0.3943    1.2135    0.0000 C   0  0  0  0  0  0  0  0  0  0  0  0
   -1.0323    0.7500    0.0000 N   0  0  0  0  0  4  0  0  0  0  0  0
   -1.0323   -0.7500    0.0000 C   0  0  0  0  0  0  0  0  0  0  0  0
   -2.1470   -1.7537    0.0000 C   0  0  0  0  0  0  0  0  0  0  0  0
   -1.8351   -3.2209    0.0000 C   0  0  0  0  0  0  0  0  0  0  0  0
   -2.9499   -4.2246    0.0000 O   0  0  0  0  0  0  0  0  0  0  0  0
   -0.4086   -3.6844    0.0000 C   0  0  0  0  0  0  0  0  0  0  0  0
    0.7062   -2.6807    0.0000 C   0  0  0  0  0  0  0  0  0  0  0  0
    2.1328   -3.1443    0.0000 F   0  0  0  0  0  0  0  0  0  0  0  0
    0.3943   -1.2135    0.0000 N   0  0  0  0  0  0  0  0  0  0  0  0
  1  2  1  0
  2  3  2  0
  3  4  1  0
  4  5  2  0
  5  6  1  0
  6  7  2  0
  7  8  1  0
  7  9  1  0
  9 10  2  0
 10 11  1  0
 10 12  1  0
 12  2  1  0
 12  5  1  0
M  CHG  2   1  -1   4   1
M  END
>  <Compound_ID>  (609) 
C39462848

>  <Active>  (609) 
0.0

>  <Smiles>  (609) 
[O-]c1c[nH+]c2cc(O)cc(F)n12

>  <canonical_smi>  (609) 
[O-]c1c[nH+]c2cc(O)cc(F)n12

>  <Set>  (609) 
G2 inactive

>  <Set_type>  (609) 
Train

>  <MW>  (609) 
168.13

>  <HBD>  (609) 
1

>  <HBA>  (609) 
2

>  <NRB>  (609) 
0

>  <NR>  (609) 
2

>  <NAR>  (609) 
2

>  <PSA>  (609) 
61.84

>  <Standard Type>  (609) 
nan

>  <Standard Relation>  (609) 
nan

>  <Standard Units>  (609) 
nan

>  <Standard Value>  (609) 
nan

>  <Assay ChEMBL ID>  (609) 
nan

>  <Assay Description>  (609) 
nan

>  <BAO Label>  (609) 
nan

$$$$

     RDKit          2D

 10 10  0  0  0  0  0  0  0  0999 V2000
    2.7760    0.0000    0.0000 N   0  0  0  0  0  0  0  0  0  0  0  0
    1.2760    0.0000    0.0000 C   0  0  0  0  0  0  0  0  0  0  0  0
    0.3943    1.2135    0.0000 N   0  0  0  0  0  0  0  0  0  0  0  0
   -1.0323    0.7500    0.0000 N   0  0  0  0  0  0  0  0  0  0  0  0
   -1.0323   -0.7500    0.0000 C   0  0  0  0  0  0  0  0  0  0  0  0
   -2.2458   -1.6317    0.0000 C   0  0  0  0  0  0  0  0  0  0  0  0
   -3.4593   -2.5134    0.0000 F   0  0  0  0  0  0  0  0  0  0  0  0
   -3.1275   -0.4182    0.0000 F   0  0  0  0  0  0  0  0  0  0  0  0
   -1.3641   -2.8452    0.0000 Cl  0  0  0  0  0  0  0  0  0  0  0  0
    0.3943   -1.2135    0.0000 O   0  0  0  0  0  0  0  0  0  0  0  0
  1  2  1  0
  2  3  2  0
  3  4  1  0
  4  5  2  0
  5  6  1  0
  6  7  1  0
  6  8  1  0
  6  9  1  0
  5 10  1  0
 10  2  1  0
M  END
>  <Compound_ID>  (610) 
C49474559

>  <Active>  (610) 
0.0

>  <Smiles>  (610) 
Nc1nnc(C(F)(F)Cl)o1

>  <canonical_smi>  (610) 
Nc1nnc(C(F)(F)Cl)o1

>  <Set>  (610) 
G2 inactive

>  <Set_type>  (610) 
Train

>  <MW>  (610) 
169.52

>  <HBD>  (610) 
1

>  <HBA>  (610) 
4

>  <NRB>  (610) 
1

>  <NR>  (610) 
1

>  <NAR>  (610) 
1

>  <PSA>  (610) 
64.94

>  <Standard Type>  (610) 
nan

>  <Standard Relation>  (610) 
nan

>  <Standard Units>  (610) 
nan

>  <Standard Value>  (610) 
nan

>  <Assay ChEMBL ID>  (610) 
nan

>  <Assay Description>  (610) 
nan

>  <BAO Label>  (610) 
nan

$$$$

     RDKit          2D

 10 10  0  0  0  0  0  0  0  0999 V2000
    3.8173    0.5402    0.0000 C   0  0  0  0  0  0  0  0  0  0  0  0
    2.3907    1.0037    0.0000 C   0  0  0  0  0  0  0  0  0  0  0  0
    1.2760    0.0000    0.0000 C   0  0  0  0  0  0  0  0  0  0  0  0
    2.3907   -1.0037    0.0000 O   0  0  0  0  0  0  0  0  0  0  0  0
    0.3943    1.2135    0.0000 C   0  0  0  0  0  0  0  0  0  0  0  0
    0.8578    2.6401    0.0000 O   0  0  0  0  0  0  0  0  0  0  0  0
   -1.0323    0.7500    0.0000 N   0  0  0  0  0  0  0  0  0  0  0  0
   -1.0323   -0.7500    0.0000 N   0  0  0  0  0  0  0  0  0  0  0  0
    0.3943   -1.2135    0.0000 C   0  0  0  0  0  0  0  0  0  0  0  0
    0.8578   -2.6401    0.0000 C   0  0  0  0  0  0  0  0  0  0  0  0
  1  2  1  0
  2  3  1  0
  3  4  1  6
  3  5  1  0
  5  6  2  0
  5  7  1  0
  7  8  1  0
  8  9  2  0
  9 10  1  0
  9  3  1  0
M  END
>  <Compound_ID>  (611) 
C62715469

>  <Active>  (611) 
0.0

>  <Smiles>  (611) 
CC[C@]1(O)C(=O)NN=C1C

>  <canonical_smi>  (611) 
CC[C@]1(O)C(=O)NN=C1C

>  <Set>  (611) 
G2 inactive

>  <Set_type>  (611) 
Train

>  <MW>  (611) 
142.16

>  <HBD>  (611) 
2

>  <HBA>  (611) 
2

>  <NRB>  (611) 
1

>  <NR>  (611) 
1

>  <NAR>  (611) 
0

>  <PSA>  (611) 
61.69

>  <Standard Type>  (611) 
nan

>  <Standard Relation>  (611) 
nan

>  <Standard Units>  (611) 
nan

>  <Standard Value>  (611) 
nan

>  <Assay ChEMBL ID>  (611) 
nan

>  <Assay Description>  (611) 
nan

>  <BAO Label>  (611) 
nan

$$$$

     RDKit          2D

 20 22  0  0  0  0  0  0  0  0999 V2000
   -4.5556    9.1664    0.0000 C   0  0  0  0  0  0  0  0  0  0  0  0
   -3.4408    8.1628    0.0000 C   0  0  0  0  0  0  0  0  0  0  0  0
   -2.0143    8.6263    0.0000 C   0  0  0  0  0  0  0  0  0  0  0  0
   -0.8995    7.6226    0.0000 C   0  0  0  0  0  0  0  0  0  0  0  0
   -1.2114    6.1554    0.0000 C   0  0  0  0  0  0  0  0  0  0  0  0
   -0.0967    5.1517    0.0000 C   0  0  0  0  0  0  0  0  0  0  0  0
   -2.6380    5.6918    0.0000 C   0  0  0  0  0  0  0  0  0  0  0  0
   -2.9499    4.2246    0.0000 O   0  0  0  0  0  0  0  0  0  0  0  0
   -1.8351    3.2209    0.0000 C   0  0  0  0  0  0  0  0  0  0  0  0
   -0.4086    3.6844    0.0000 C   0  0  0  0  0  0  0  0  0  0  0  0
    0.7062    2.6807    0.0000 C   0  0  0  0  0  0  0  0  0  0  0  0
    0.3943    1.2135    0.0000 C   0  0  0  0  0  0  0  0  0  0  0  0
    1.2760    0.0000    0.0000 S   0  0  0  0  0  0  0  0  0  0  0  0
    0.3943   -1.2135    0.0000 C   0  0  0  0  0  0  0  0  0  0  0  0
   -1.0323   -0.7500    0.0000 N   0  0  0  0  0  0  0  0  0  0  0  0
   -1.0323    0.7500    0.0000 C   0  0  0  0  0  0  0  0  0  0  0  0
   -2.1470    1.7537    0.0000 C   0  0  0  0  0  0  0  0  0  0  0  0
   -3.5736    1.2902    0.0000 N   0  0  0  0  0  0  0  0  0  0  0  0
   -3.7527    6.6955    0.0000 C   0  0  0  0  0  0  0  0  0  0  0  0
   -5.1793    6.2320    0.0000 C   0  0  0  0  0  0  0  0  0  0  0  0
  1  2  1  0
  2  3  2  0
  3  4  1  0
  4  5  2  0
  5  6  1  0
  5  7  1  0
  7  8  1  0
  8  9  1  0
  9 10  2  0
 10 11  1  0
 11 12  2  0
 12 13  1  0
 13 14  1  0
 14 15  2  0
 15 16  1  0
 16 17  2  0
 17 18  1  0
  7 19  2  0
 19 20  1  0
 19  2  1  0
 17  9  1  0
 16 12  1  0
M  END
>  <Compound_ID>  (612) 
C35344979

>  <Active>  (612) 
0.0

>  <Smiles>  (612) 
Cc1ccc(C)c(Oc2ccc3scnc3c2N)c1C

>  <canonical_smi>  (612) 
Cc1ccc(C)c(Oc2ccc3scnc3c2N)c1C

>  <Set>  (612) 
G2 inactive

>  <Set_type>  (612) 
Train

>  <MW>  (612) 
284.38

>  <HBD>  (612) 
1

>  <HBA>  (612) 
3

>  <NRB>  (612) 
2

>  <NR>  (612) 
3

>  <NAR>  (612) 
3

>  <PSA>  (612) 
48.14

>  <Standard Type>  (612) 
nan

>  <Standard Relation>  (612) 
nan

>  <Standard Units>  (612) 
nan

>  <Standard Value>  (612) 
nan

>  <Assay ChEMBL ID>  (612) 
nan

>  <Assay Description>  (612) 
nan

>  <BAO Label>  (612) 
nan

$$$$

     RDKit          2D

 20 23  0  0  0  0  0  0  0  0999 V2000
    5.9017   -6.8202    0.0000 F   0  0  0  0  0  0  0  0  0  0  0  0
    4.6027   -7.5702    0.0000 C   0  0  0  0  0  0  0  0  0  0  0  0
    4.6027   -9.0702    0.0000 C   0  0  0  0  0  0  0  0  0  0  0  0
    3.3037   -9.8202    0.0000 C   0  0  0  0  0  0  0  0  0  0  0  0
    2.0046   -9.0702    0.0000 C   0  0  0  0  0  0  0  0  0  0  0  0
    2.0046   -7.5702    0.0000 C   0  0  0  0  0  0  0  0  0  0  0  0
    0.8899   -6.5665    0.0000 N   0  0  0  0  0  0  0  0  0  0  0  0
    1.5000   -5.1962    0.0000 C   0  0  0  0  0  0  0  0  0  0  0  0
    0.7500   -3.8971    0.0000 C   0  0  0  0  0  0  0  0  0  0  0  0
   -0.7500   -3.8971    0.0000 C   0  0  0  0  0  0  0  0  0  0  0  0
   -1.5000   -2.5981    0.0000 C   0  0  0  0  0  0  0  0  0  0  0  0
   -0.7500   -1.2990    0.0000 C   0  0  0  0  0  0  0  0  0  0  0  0
    0.7500   -1.2990    0.0000 C   0  0  0  0  0  0  0  0  0  0  0  0
    1.5000   -2.5981    0.0000 C   0  0  0  0  0  0  0  0  0  0  0  0
    1.5000    0.0000    0.0000 C   0  0  0  0  0  0  0  0  0  0  0  0
    0.7500    1.2990    0.0000 C   0  0  0  0  0  0  0  0  0  0  0  0
   -0.7500    1.2990    0.0000 C   0  0  0  0  0  0  0  0  0  0  0  0
   -1.5000    0.0000    0.0000 N   0  0  0  0  0  0  0  0  0  0  0  0
    2.9918   -5.3529    0.0000 N   0  0  0  0  0  0  0  0  0  0  0  0
    3.3037   -6.8202    0.0000 C   0  0  0  0  0  0  0  0  0  0  0  0
  1  2  1  0
  2  3  2  0
  3  4  1  0
  4  5  2  0
  5  6  1  0
  6  7  1  0
  7  8  1  0
  8  9  1  0
  9 10  2  0
 10 11  1  0
 11 12  2  0
 12 13  1  0
 13 14  2  0
 13 15  1  0
 15 16  1  0
 16 17  1  0
 17 18  1  0
  8 19  2  0
 19 20  1  0
 20  2  1  0
 20  6  2  0
 14  9  1  0
 18 12  1  0
M  END
>  <Compound_ID>  (613) 
C37442333

>  <Active>  (613) 
0.0

>  <Smiles>  (613) 
Fc1cccc2[nH]c(-c3ccc4c(c3)CCCN4)nc12

>  <canonical_smi>  (613) 
Fc1cccc2[nH]c(-c3ccc4c(c3)CCCN4)nc12

>  <Set>  (613) 
G2 inactive

>  <Set_type>  (613) 
Train

>  <MW>  (613) 
267.31

>  <HBD>  (613) 
2

>  <HBA>  (613) 
2

>  <NRB>  (613) 
1

>  <NR>  (613) 
4

>  <NAR>  (613) 
3

>  <PSA>  (613) 
40.71

>  <Standard Type>  (613) 
nan

>  <Standard Relation>  (613) 
nan

>  <Standard Units>  (613) 
nan

>  <Standard Value>  (613) 
nan

>  <Assay ChEMBL ID>  (613) 
nan

>  <Assay Description>  (613) 
nan

>  <BAO Label>  (613) 
nan

$$$$

     RDKit          2D

 22 26  0  0  0  0  0  0  0  0999 V2000
   -3.9995    4.2184    0.0000 N   0  0  0  0  0  0  0  0  0  0  0  0
   -2.5729    3.7548    0.0000 C   0  0  0  0  0  0  0  0  0  0  0  0
   -1.3594    4.6365    0.0000 N   0  0  0  0  0  0  0  0  0  0  0  0
   -0.1459    3.7548    0.0000 C   0  0  0  0  0  0  0  0  0  0  0  0
   -0.6094    2.3282    0.0000 C   0  0  0  0  0  0  0  0  0  0  0  0
   -2.1094    2.3282    0.0000 S   0  0  0  0  0  0  0  0  0  0  0  0
    0.3943    1.2135    0.0000 C   0  0  0  0  0  0  0  0  0  0  0  0
    1.2760    0.0000    0.0000 C   0  0  0  0  0  0  0  0  0  0  0  0
    0.3943   -1.2135    0.0000 C   0  0  0  0  0  0  0  0  0  0  0  0
   -1.0323   -0.7500    0.0000 C   0  0  0  0  0  0  0  0  0  0  0  0
   -1.0323    0.7500    0.0000 C   0  0  0  0  0  0  0  0  0  0  0  0
    1.8615    1.5254    0.0000 O   0  0  0  0  0  0  0  0  0  0  0  0
    2.3250    2.9520    0.0000 C   0  0  0  0  0  0  0  0  0  0  0  0
    3.7923    3.2638    0.0000 C   0  0  0  0  0  0  0  0  0  0  0  0
    4.2558    4.6904    0.0000 C   0  0  0  0  0  0  0  0  0  0  0  0
    3.2521    5.8051    0.0000 C   0  0  0  0  0  0  0  0  0  0  0  0
    3.7156    7.2317    0.0000 C   0  0  0  0  0  0  0  0  0  0  0  0
    2.7119    8.3464    0.0000 C   0  0  0  0  0  0  0  0  0  0  0  0
    1.2447    8.0346    0.0000 C   0  0  0  0  0  0  0  0  0  0  0  0
    0.7812    6.6080    0.0000 C   0  0  0  0  0  0  0  0  0  0  0  0
    1.7849    5.4933    0.0000 C   0  0  0  0  0  0  0  0  0  0  0  0
    1.3213    4.0667    0.0000 C   0  0  0  0  0  0  0  0  0  0  0  0
  1  2  1  0
  2  3  2  0
  3  4  1  0
  4  5  2  0
  5  6  1  0
  5  7  1  0
  7  8  1  0
  8  9  1  0
  9 10  1  0
 10 11  1  0
  7 12  1  0
 12 13  1  0
 13 14  2  0
 14 15  1  0
 15 16  2  0
 16 17  1  0
 17 18  2  0
 18 19  1  0
 19 20  2  0
 20 21  1  0
 21 22  2  0
  6  2  1  0
 11  7  1  0
 22 13  1  0
 22  4  1  0
 21 16  1  0
M  END
>  <Compound_ID>  (614) 
C11730265

>  <Active>  (614) 
0.0

>  <Smiles>  (614) 
Nc1nc2c(s1)C1(CCCC1)Oc1ccc3ccccc3c1-2

>  <canonical_smi>  (614) 
Nc1nc2c(s1)C1(CCCC1)Oc1ccc3ccccc3c1-2

>  <Set>  (614) 
G2 inactive

>  <Set_type>  (614) 
Train

>  <MW>  (614) 
308.41

>  <HBD>  (614) 
1

>  <HBA>  (614) 
3

>  <NRB>  (614) 
0

>  <NR>  (614) 
5

>  <NAR>  (614) 
3

>  <PSA>  (614) 
48.14

>  <Standard Type>  (614) 
nan

>  <Standard Relation>  (614) 
nan

>  <Standard Units>  (614) 
nan

>  <Standard Value>  (614) 
nan

>  <Assay ChEMBL ID>  (614) 
nan

>  <Assay Description>  (614) 
nan

>  <BAO Label>  (614) 
nan

$$$$

     RDKit          2D

 19 21  0  0  0  0  0  0  0  0999 V2000
   -0.0000   -5.1073    0.0000 N   0  0  0  0  0  0  0  0  0  0  0  0
   -0.0000   -3.6073    0.0000 C   0  0  0  0  0  0  0  0  0  0  0  0
    1.2135   -2.7256    0.0000 N   0  0  0  0  0  0  0  0  0  0  0  0
    0.7500   -1.2990    0.0000 C   0  0  0  0  0  0  0  0  0  0  0  0
    1.5000    0.0000    0.0000 C   0  0  0  0  0  0  0  0  0  0  0  0
    0.7500    1.2990    0.0000 C   0  0  0  0  0  0  0  0  0  0  0  0
   -0.7500    1.2990    0.0000 C   0  0  0  0  0  0  0  0  0  0  0  0
   -1.5000    2.5981    0.0000 F   0  0  0  0  0  0  0  0  0  0  0  0
   -1.5000    0.0000    0.0000 C   0  0  0  0  0  0  0  0  0  0  0  0
   -3.0000    0.0000    0.0000 F   0  0  0  0  0  0  0  0  0  0  0  0
   -0.7500   -1.2990    0.0000 C   0  0  0  0  0  0  0  0  0  0  0  0
   -1.2135   -2.7256    0.0000 N   0  0  0  0  0  0  0  0  0  0  0  0
   -2.6401   -3.1891    0.0000 C   0  0  0  0  0  0  0  0  0  0  0  0
   -3.7548   -2.1855    0.0000 C   0  0  0  0  0  0  0  0  0  0  0  0
   -5.1814   -2.6490    0.0000 C   0  0  0  0  0  0  0  0  0  0  0  0
   -5.4933   -4.1162    0.0000 C   0  0  0  0  0  0  0  0  0  0  0  0
   -4.3786   -5.1199    0.0000 C   0  0  0  0  0  0  0  0  0  0  0  0
   -2.9520   -4.6564    0.0000 C   0  0  0  0  0  0  0  0  0  0  0  0
   -1.8373   -5.6601    0.0000 I   0  0  0  0  0  0  0  0  0  0  0  0
  1  2  1  0
  2  3  2  0
  3  4  1  0
  4  5  2  0
  5  6  1  0
  6  7  2  0
  7  8  1  0
  7  9  1  0
  9 10  1  0
  9 11  2  0
 11 12  1  0
 12 13  1  0
 13 14  2  0
 14 15  1  0
 15 16  2  0
 16 17  1  0
 17 18  2  0
 18 19  1  0
 12  2  1  0
 18 13  1  0
 11  4  1  0
M  END
>  <Compound_ID>  (615) 
C53169745

>  <Active>  (615) 
0.0

>  <Smiles>  (615) 
Nc1nc2ccc(F)c(F)c2n1-c1ccccc1I

>  <canonical_smi>  (615) 
Nc1nc2ccc(F)c(F)c2n1-c1ccccc1I

>  <Set>  (615) 
G2 inactive

>  <Set_type>  (615) 
Train

>  <MW>  (615) 
371.13

>  <HBD>  (615) 
1

>  <HBA>  (615) 
2

>  <NRB>  (615) 
1

>  <NR>  (615) 
3

>  <NAR>  (615) 
3

>  <PSA>  (615) 
43.84

>  <Standard Type>  (615) 
nan

>  <Standard Relation>  (615) 
nan

>  <Standard Units>  (615) 
nan

>  <Standard Value>  (615) 
nan

>  <Assay ChEMBL ID>  (615) 
nan

>  <Assay Description>  (615) 
nan

>  <BAO Label>  (615) 
nan

$$$$

     RDKit          2D

 24 27  0  0  0  0  0  0  0  0999 V2000
    0.0000   -8.1073    0.0000 C   0  0  0  0  0  0  0  0  0  0  0  0
    1.2990   -7.3573    0.0000 C   0  0  0  0  0  0  0  0  0  0  0  0
    2.5981   -8.1073    0.0000 C   0  0  0  0  0  0  0  0  0  0  0  0
    3.8971   -7.3573    0.0000 C   0  0  0  0  0  0  0  0  0  0  0  0
    3.8971   -5.8573    0.0000 C   0  0  0  0  0  0  0  0  0  0  0  0
    2.5981   -5.1073    0.0000 C   0  0  0  0  0  0  0  0  0  0  0  0
    1.2990   -5.8573    0.0000 C   0  0  0  0  0  0  0  0  0  0  0  0
   -0.0000   -5.1073    0.0000 C   0  0  0  0  0  0  0  0  0  0  0  0
   -1.2990   -5.8573    0.0000 N   0  0  0  0  0  0  0  0  0  0  0  0
   -0.0000   -3.6073    0.0000 C   0  0  0  0  0  0  0  0  0  0  0  0
    1.2135   -2.7256    0.0000 N   0  0  0  0  0  0  0  0  0  0  0  0
    0.7500   -1.2990    0.0000 C   0  0  0  0  0  0  0  0  0  0  0  0
    1.5000    0.0000    0.0000 C   0  0  0  0  0  0  0  0  0  0  0  0
    0.7500    1.2990    0.0000 C   0  0  0  0  0  0  0  0  0  0  0  0
   -0.7500    1.2990    0.0000 C   0  0  0  0  0  0  0  0  0  0  0  0
   -1.5000    0.0000    0.0000 C   0  0  0  0  0  0  0  0  0  0  0  0
   -0.7500   -1.2990    0.0000 C   0  0  0  0  0  0  0  0  0  0  0  0
   -1.2135   -2.7256    0.0000 N   0  0  0  0  0  0  0  0  0  0  0  0
   -2.6401   -3.1891    0.0000 C   0  0  0  0  0  0  0  0  0  0  0  0
   -3.7548   -2.1855    0.0000 C   0  0  0  0  0  0  0  0  0  0  0  0
   -5.1814   -2.6490    0.0000 C   0  0  0  0  0  0  0  0  0  0  0  0
   -5.4933   -4.1162    0.0000 C   0  0  0  0  0  0  0  0  0  0  0  0
   -4.3786   -5.1199    0.0000 C   0  0  0  0  0  0  0  0  0  0  0  0
   -2.9520   -4.6564    0.0000 C   0  0  0  0  0  0  0  0  0  0  0  0
  1  2  1  0
  2  3  2  0
  3  4  1  0
  4  5  2  0
  5  6  1  0
  6  7  2  0
  7  8  1  0
  8  9  1  6
  8 10  1  0
 10 11  2  0
 11 12  1  0
 12 13  2  0
 13 14  1  0
 14 15  2  0
 15 16  1  0
 16 17  2  0
 17 18  1  0
 18 19  1  0
 19 20  2  0
 20 21  1  0
 21 22  2  0
 22 23  1  0
 23 24  2  0
  7  2  1  0
 18 10  1  0
 24 19  1  0
 17 12  1  0
M  END
>  <Compound_ID>  (616) 
C58432679

>  <Active>  (616) 
0.0

>  <Smiles>  (616) 
Cc1ccccc1[C@H](N)c1nc2ccccc2n1-c1ccccc1

>  <canonical_smi>  (616) 
Cc1ccccc1[C@H](N)c1nc2ccccc2n1-c1ccccc1

>  <Set>  (616) 
G2 inactive

>  <Set_type>  (616) 
Train

>  <MW>  (616) 
313.4

>  <HBD>  (616) 
1

>  <HBA>  (616) 
2

>  <NRB>  (616) 
3

>  <NR>  (616) 
4

>  <NAR>  (616) 
4

>  <PSA>  (616) 
43.84

>  <Standard Type>  (616) 
nan

>  <Standard Relation>  (616) 
nan

>  <Standard Units>  (616) 
nan

>  <Standard Value>  (616) 
nan

>  <Assay ChEMBL ID>  (616) 
nan

>  <Assay Description>  (616) 
nan

>  <BAO Label>  (616) 
nan

$$$$

     RDKit          2D

 21 24  0  0  0  0  0  0  0  0999 V2000
   -6.9358    2.0952    0.0000 N   0  0  0  0  0  0  0  0  0  0  0  0
   -5.7222    1.2135    0.0000 C   0  0  0  0  0  0  0  0  0  0  0  0
   -5.7222   -0.2865    0.0000 O   0  0  0  0  0  0  0  0  0  0  0  0
   -4.2956   -0.7500    0.0000 N   0  0  0  0  0  0  0  0  0  0  0  0
   -3.4140    0.4635    0.0000 C   0  0  0  0  0  0  0  0  0  0  0  0
   -1.9140    0.4635    0.0000 C   0  0  0  0  0  0  0  0  0  0  0  0
   -1.0323    1.6771    0.0000 C   0  0  0  0  0  0  0  0  0  0  0  0
    0.3943    1.2135    0.0000 C   0  0  0  0  0  0  0  0  0  0  0  0
    1.2760    0.0000    0.0000 C   0  0  0  0  0  0  0  0  0  0  0  0
    0.3943   -1.2135    0.0000 C   0  0  0  0  0  0  0  0  0  0  0  0
   -1.0323   -0.7500    0.0000 C   0  0  0  0  0  0  0  0  0  0  0  0
   -1.0323    0.7500    0.0000 C   0  0  0  0  0  0  0  0  0  0  0  0
   -4.2956    1.6771    0.0000 C   0  0  0  0  0  0  0  0  0  0  0  0
   -3.8321    3.1036    0.0000 C   0  0  0  0  0  0  0  0  0  0  0  0
   -2.3649    3.4155    0.0000 C   0  0  0  0  0  0  0  0  0  0  0  0
   -1.9014    4.8421    0.0000 C   0  0  0  0  0  0  0  0  0  0  0  0
   -2.9051    5.9568    0.0000 C   0  0  0  0  0  0  0  0  0  0  0  0
   -2.4415    7.3834    0.0000 F   0  0  0  0  0  0  0  0  0  0  0  0
   -4.3723    5.6449    0.0000 C   0  0  0  0  0  0  0  0  0  0  0  0
   -4.8358    4.2184    0.0000 C   0  0  0  0  0  0  0  0  0  0  0  0
   -6.3030    3.9065    0.0000 Cl  0  0  0  0  0  0  0  0  0  0  0  0
  1  2  1  0
  2  3  1  0
  3  4  1  0
  4  5  2  0
  6  5  1  6
  6  7  1  0
  8  7  1  1
  8  9  1  0
  9 10  1  0
 11 10  1  1
 11 12  1  0
  5 13  1  0
 13 14  1  0
 14 15  2  0
 15 16  1  0
 16 17  2  0
 17 18  1  0
 17 19  1  0
 19 20  2  0
 20 21  1  0
 13  2  2  0
 20 14  1  0
 11  6  1  0
 12  8  1  0
M  END
>  <Compound_ID>  (617) 
C62610018

>  <Active>  (617) 
0.0

>  <Smiles>  (617) 
Nc1onc([C@@H]2C[C@H]3CC[C@@H]2C3)c1-c1ccc(F)cc1Cl

>  <canonical_smi>  (617) 
Nc1onc([C@@H]2C[C@H]3CC[C@@H]2C3)c1-c1ccc(F)cc1Cl

>  <Set>  (617) 
G2 inactive

>  <Set_type>  (617) 
Train

>  <MW>  (617) 
306.77

>  <HBD>  (617) 
1

>  <HBA>  (617) 
3

>  <NRB>  (617) 
2

>  <NR>  (617) 
4

>  <NAR>  (617) 
2

>  <PSA>  (617) 
52.05

>  <Standard Type>  (617) 
nan

>  <Standard Relation>  (617) 
nan

>  <Standard Units>  (617) 
nan

>  <Standard Value>  (617) 
nan

>  <Assay ChEMBL ID>  (617) 
nan

>  <Assay Description>  (617) 
nan

>  <BAO Label>  (617) 
nan

$$$$

     RDKit          2D

 34 39  0  0  0  0  0  0  0  0999 V2000
    8.5634  -11.9957    0.0000 C   0  0  0  0  0  0  0  0  0  0  0  0
    7.3241  -11.1507    0.0000 C   0  0  0  0  0  0  0  0  0  0  0  0
    7.4361   -9.6549    0.0000 O   0  0  0  0  0  0  0  0  0  0  0  0
    6.1968   -8.8099    0.0000 C   0  0  0  0  0  0  0  0  0  0  0  0
    4.8453   -9.4607    0.0000 C   0  0  0  0  0  0  0  0  0  0  0  0
    3.6060   -8.6157    0.0000 C   0  0  0  0  0  0  0  0  0  0  0  0
    3.7181   -7.1199    0.0000 C   0  0  0  0  0  0  0  0  0  0  0  0
    2.4787   -6.2750    0.0000 C   0  0  0  0  0  0  0  0  0  0  0  0
    1.1273   -6.9258    0.0000 C   0  0  0  0  0  0  0  0  0  0  0  0
   -0.1121   -6.0808    0.0000 C   0  0  0  0  0  0  0  0  0  0  0  0
   -1.4635   -6.7316    0.0000 O   0  0  0  0  0  0  0  0  0  0  0  0
    0.0000   -4.5850    0.0000 C   0  0  0  0  0  0  0  0  0  0  0  0
    1.3515   -3.9342    0.0000 C   0  0  0  0  0  0  0  0  0  0  0  0
    2.5908   -4.7792    0.0000 C   0  0  0  0  0  0  0  0  0  0  0  0
    1.6852   -2.4718    0.0000 N   0  0  0  0  0  0  0  0  0  0  0  0
    0.7500   -1.2990    0.0000 C   0  0  0  0  0  0  0  0  0  0  0  0
    1.5000    0.0000    0.0000 C   0  0  0  0  0  0  0  0  0  0  0  0
    0.7500    1.2990    0.0000 C   0  0  0  0  0  0  0  0  0  0  0  0
   -0.7500    1.2990    0.0000 C   0  0  0  0  0  0  0  0  0  0  0  0
   -1.5000    0.0000    0.0000 C   0  0  0  0  0  0  0  0  0  0  0  0
   -0.7500   -1.2990    0.0000 C   0  0  0  0  0  0  0  0  0  0  0  0
   -1.6852   -2.4718    0.0000 N   0  0  0  0  0  0  0  0  0  0  0  0
   -1.3515   -3.9342    0.0000 C   0  0  0  0  0  0  0  0  0  0  0  0
   -2.5242   -4.8694    0.0000 C   0  0  0  0  0  0  0  0  0  0  0  0
   -2.4569   -6.3679    0.0000 C   0  0  0  0  0  0  0  0  0  0  0  0
   -3.8613   -6.8950    0.0000 N   0  0  0  0  0  0  0  0  0  0  0  0
   -4.7965   -5.7222    0.0000 C   0  0  0  0  0  0  0  0  0  0  0  0
   -6.2938   -5.6325    0.0000 C   0  0  0  0  0  0  0  0  0  0  0  0
   -6.9648   -4.2909    0.0000 C   0  0  0  0  0  0  0  0  0  0  0  0
   -6.1384   -3.0391    0.0000 C   0  0  0  0  0  0  0  0  0  0  0  0
   -4.6411   -3.1288    0.0000 C   0  0  0  0  0  0  0  0  0  0  0  0
   -3.9701   -4.4704    0.0000 C   0  0  0  0  0  0  0  0  0  0  0  0
    5.0695   -6.4691    0.0000 C   0  0  0  0  0  0  0  0  0  0  0  0
    6.3089   -7.3141    0.0000 C   0  0  0  0  0  0  0  0  0  0  0  0
  1  2  1  0
  2  3  1  0
  3  4  1  0
  4  5  2  0
  5  6  1  0
  6  7  2  0
  8  7  1  6
  8  9  1  0
  9 10  1  0
 10 11  2  0
 10 12  1  0
 12 13  2  0
 13 14  1  0
 13 15  1  0
 15 16  1  0
 16 17  2  0
 17 18  1  0
 18 19  2  0
 19 20  1  0
 20 21  2  0
 21 22  1  0
 22 23  1  0
 23 24  1  1
 24 25  2  0
 25 26  1  0
 26 27  1  0
 27 28  2  0
 28 29  1  0
 29 30  2  0
 30 31  1  0
 31 32  2  0
  7 33  1  0
 33 34  2  0
 34  4  1  0
 14  8  1  0
 21 16  1  0
 32 24  1  0
 23 12  1  0
 32 27  1  0
M  END
>  <Compound_ID>  (618) 
C21220117

>  <Active>  (618) 
0.0

>  <Smiles>  (618) 
CCOc1ccc([C@@H]2CC(=O)C3=C(C2)Nc2ccccc2N[C@@H]3c2c[nH]c3ccccc23)cc1

>  <canonical_smi>  (618) 
CCOc1ccc([C@@H]2CC(=O)C3=C(C2)Nc2ccccc2N[C@@H]3c2c[nH]c3ccccc23)cc1

>  <Set>  (618) 
G2 inactive

>  <Set_type>  (618) 
Train

>  <MW>  (618) 
449.55

>  <HBD>  (618) 
3

>  <HBA>  (618) 
4

>  <NRB>  (618) 
4

>  <NR>  (618) 
6

>  <NAR>  (618) 
4

>  <PSA>  (618) 
66.15

>  <Standard Type>  (618) 
nan

>  <Standard Relation>  (618) 
nan

>  <Standard Units>  (618) 
nan

>  <Standard Value>  (618) 
nan

>  <Assay ChEMBL ID>  (618) 
nan

>  <Assay Description>  (618) 
nan

>  <BAO Label>  (618) 
nan

$$$$

     RDKit          2D

 29 31  0  0  0  0  0  0  0  0999 V2000
    4.5000   -5.1962    0.0000 F   0  0  0  0  0  0  0  0  0  0  0  0
    3.7500   -3.8971    0.0000 C   0  0  0  0  0  0  0  0  0  0  0  0
    2.4510   -4.6471    0.0000 F   0  0  0  0  0  0  0  0  0  0  0  0
    4.8012   -3.5958    0.0000 F   0  0  0  0  0  0  0  0  0  0  0  0
    3.0000   -2.5981    0.0000 C   0  0  0  0  0  0  0  0  0  0  0  0
    1.5000   -2.5981    0.0000 N   0  0  0  0  0  0  0  0  0  0  0  0
    0.7500   -1.2990    0.0000 C   0  0  0  0  0  0  0  0  0  0  0  0
    1.5000   -0.0000    0.0000 C   0  0  0  0  0  0  0  0  0  0  0  0
    0.7500    1.2990    0.0000 C   0  0  0  0  0  0  0  0  0  0  0  0
   -0.7500    1.2990    0.0000 C   0  0  0  0  0  0  0  0  0  0  0  0
   -1.5000    0.0000    0.0000 C   0  0  0  0  0  0  0  0  0  0  0  0
   -0.7500   -1.2990    0.0000 C   0  0  0  0  0  0  0  0  0  0  0  0
    3.7500   -1.2990    0.0000 N   0  0  0  0  0  0  0  0  0  0  0  0
    5.2500   -1.2990    0.0000 P   0  0  0  0  0  0  0  0  0  0  0  0
    6.7500   -1.2990    0.0000 S   0  0  0  0  0  0  0  0  0  0  0  0
    5.2500   -2.7990    0.0000 N   0  0  0  0  0  0  0  0  0  0  0  0
    6.5490   -3.5490    0.0000 C   0  0  0  0  0  0  0  0  0  0  0  0
    6.5490   -5.0490    0.0000 C   0  0  0  0  0  0  0  0  0  0  0  0
    7.8481   -5.7990    0.0000 C   0  0  0  0  0  0  0  0  0  0  0  0
    9.1471   -5.0490    0.0000 C   0  0  0  0  0  0  0  0  0  0  0  0
    9.1471   -3.5490    0.0000 C   0  0  0  0  0  0  0  0  0  0  0  0
    7.8481   -2.7990    0.0000 C   0  0  0  0  0  0  0  0  0  0  0  0
    5.2500    0.2010    0.0000 N   0  0  0  0  0  0  0  0  0  0  0  0
    6.5490    0.9510    0.0000 C   0  0  0  0  0  0  0  0  0  0  0  0
    7.8481    0.2010    0.0000 C   0  0  0  0  0  0  0  0  0  0  0  0
    9.1471    0.9510    0.0000 C   0  0  0  0  0  0  0  0  0  0  0  0
    9.1471    2.4510    0.0000 C   0  0  0  0  0  0  0  0  0  0  0  0
    7.8481    3.2010    0.0000 C   0  0  0  0  0  0  0  0  0  0  0  0
    6.5490    2.4510    0.0000 C   0  0  0  0  0  0  0  0  0  0  0  0
  1  2  1  0
  2  3  1  0
  2  4  1  0
  2  5  1  0
  5  6  2  0
  6  7  1  0
  7  8  2  0
  8  9  1  0
  9 10  2  0
 10 11  1  0
 11 12  2  0
  5 13  1  0
 13 14  1  0
 14 15  2  0
 14 16  1  0
 16 17  1  0
 17 18  2  0
 18 19  1  0
 19 20  2  0
 20 21  1  0
 21 22  2  0
 14 23  1  0
 23 24  1  0
 24 25  2  0
 25 26  1  0
 26 27  2  0
 27 28  1  0
 28 29  2  0
 12  7  1  0
 22 17  1  0
 29 24  1  0
M  END
>  <Compound_ID>  (619) 
C04398498

>  <Active>  (619) 
0.0

>  <Smiles>  (619) 
FC(F)(F)/C(=N/c1ccccc1)NP(=S)(Nc1ccccc1)Nc1ccccc1

>  <canonical_smi>  (619) 
FC(F)(F)/C(=N/c1ccccc1)NP(=S)(Nc1ccccc1)Nc1ccccc1

>  <Set>  (619) 
G2 inactive

>  <Set_type>  (619) 
Train

>  <MW>  (619) 
434.43

>  <HBD>  (619) 
3

>  <HBA>  (619) 
4

>  <NRB>  (619) 
6

>  <NR>  (619) 
3

>  <NAR>  (619) 
3

>  <PSA>  (619) 
48.45

>  <Standard Type>  (619) 
nan

>  <Standard Relation>  (619) 
nan

>  <Standard Units>  (619) 
nan

>  <Standard Value>  (619) 
nan

>  <Assay ChEMBL ID>  (619) 
nan

>  <Assay Description>  (619) 
nan

>  <BAO Label>  (619) 
nan

$$$$

     RDKit          2D

 28 31  0  0  0  0  0  0  0  0999 V2000
  -11.9139    0.8048    0.0000 C   0  0  0  0  0  0  0  0  0  0  0  0
  -10.4199    0.6703    0.0000 C   0  0  0  0  0  0  0  0  0  0  0  0
   -9.5565    1.8969    0.0000 C   0  0  0  0  0  0  0  0  0  0  0  0
   -8.0625    1.7624    0.0000 C   0  0  0  0  0  0  0  0  0  0  0  0
   -7.4320    0.4014    0.0000 C   0  0  0  0  0  0  0  0  0  0  0  0
   -5.9380    0.2669    0.0000 C   0  0  0  0  0  0  0  0  0  0  0  0
   -4.9511    1.3965    0.0000 N   0  0  0  0  0  0  0  0  0  0  0  0
   -3.5718    0.8070    0.0000 N   0  0  0  0  0  0  0  0  0  0  0  0
   -2.2841    1.5763    0.0000 C   0  0  0  0  0  0  0  0  0  0  0  0
   -1.0323    0.7500    0.0000 N   0  0  0  0  0  0  0  0  0  0  0  0
    0.3943    1.2135    0.0000 N   0  0  0  0  0  0  0  0  0  0  0  0
    0.9214    2.6179    0.0000 C   0  0  0  0  0  0  0  0  0  0  0  0
    2.4153    2.7523    0.0000 N   0  0  0  0  0  4  0  0  0  0  0  0
    0.1520    3.9056    0.0000 C   0  0  0  0  0  0  0  0  0  0  0  0
   -1.3344    4.1069    0.0000 C   0  0  0  0  0  0  0  0  0  0  0  0
   -1.9852    5.4584    0.0000 N   0  0  0  0  0  0  0  0  0  0  0  0
   -3.4717    5.2570    0.0000 N   0  0  0  0  0  0  0  0  0  0  0  0
   -3.7395    3.7811    0.0000 C   0  0  0  0  0  0  0  0  0  0  0  0
   -2.4186    3.0703    0.0000 N   0  0  0  0  0  0  0  0  0  0  0  0
   -3.7063   -0.6870    0.0000 C   0  0  0  0  0  0  0  0  0  0  0  0
   -3.5272   -2.1762    0.0000 O   0  0  0  0  0  0  0  0  0  0  0  0
   -2.2064   -0.6645    0.0000 C   0  0  0  0  0  0  0  0  0  0  0  0
   -0.7066   -0.6421    0.0000 F   0  0  0  0  0  0  0  0  0  0  0  0
   -1.9301    0.5186    0.0000 F   0  0  0  0  0  0  0  0  0  0  0  0
   -2.1840   -2.1644    0.0000 F   0  0  0  0  0  0  0  0  0  0  0  0
   -5.1687   -1.0207    0.0000 C   0  0  0  0  0  0  0  0  0  0  0  0
   -8.2954   -0.8252    0.0000 C   0  0  0  0  0  0  0  0  0  0  0  0
   -9.7894   -0.6907    0.0000 C   0  0  0  0  0  0  0  0  0  0  0  0
  1  2  1  0
  2  3  2  0
  3  4  1  0
  4  5  2  0
  5  6  1  0
  6  7  2  0
  7  8  1  0
  8  9  1  0
  9 10  2  0
 10 11  1  0
 11 12  1  0
 12 13  1  0
 12 14  2  0
 14 15  1  0
 15 16  2  0
 16 17  1  0
 17 18  2  0
 18 19  1  0
  8 20  1  0
 20 21  1  1
 20 22  1  0
 22 23  1  0
 22 24  1  0
 22 25  1  0
 20 26  1  0
  5 27  1  0
 27 28  2  0
 28  2  1  0
 26  6  1  0
 19  9  1  0
 19 15  1  0
M  CHG  1  13   1
M  END
>  <Compound_ID>  (620) 
C15226870

>  <Active>  (620) 
0.0

>  <Smiles>  (620) 
Cc1ccc(C2=NN(C3=NNC([NH3+])=Cc4nncn43)[C@](O)(C(F)(F)F)C2)cc1

>  <canonical_smi>  (620) 
Cc1ccc(C2=NN(C3=NNC([NH3+])=Cc4nncn43)[C@](O)(C(F)(F)F)C2)cc1

>  <Set>  (620) 
G2 inactive

>  <Set_type>  (620) 
Train

>  <MW>  (620) 
393.35

>  <HBD>  (620) 
3

>  <HBA>  (620) 
5

>  <NRB>  (620) 
1

>  <NR>  (620) 
4

>  <NAR>  (620) 
2

>  <PSA>  (620) 
118.57

>  <Standard Type>  (620) 
nan

>  <Standard Relation>  (620) 
nan

>  <Standard Units>  (620) 
nan

>  <Standard Value>  (620) 
nan

>  <Assay ChEMBL ID>  (620) 
nan

>  <Assay Description>  (620) 
nan

>  <BAO Label>  (620) 
nan

$$$$

     RDKit          2D

 24 26  0  0  0  0  0  0  0  0999 V2000
    0.3560   -6.3071    0.0000 C   0  0  0  0  0  0  0  0  0  0  0  0
    1.8478   -6.4639    0.0000 C   0  0  0  0  0  0  0  0  0  0  0  0
    3.3396   -6.6207    0.0000 C   0  0  0  0  0  0  0  0  0  0  0  0
    1.6910   -7.9557    0.0000 C   0  0  0  0  0  0  0  0  0  0  0  0
    2.0046   -4.9721    0.0000 C   0  0  0  0  0  0  0  0  0  0  0  0
    3.3037   -4.2221    0.0000 C   0  0  0  0  0  0  0  0  0  0  0  0
    2.9918   -2.7549    0.0000 S   0  0  0  0  0  0  0  0  0  0  0  0
    1.5000   -2.5981    0.0000 C   0  0  0  0  0  0  0  0  0  0  0  0
    0.7500   -1.2990    0.0000 C   0  0  0  0  0  0  0  0  0  0  0  0
    1.5000    0.0000    0.0000 C   0  0  0  0  0  0  0  0  0  0  0  0
    0.7500    1.2990    0.0000 C   0  0  0  0  0  0  0  0  0  0  0  0
   -0.7500    1.2990    0.0000 C   0  0  0  0  0  0  0  0  0  0  0  0
   -1.5000    2.5981    0.0000 C   0  0  0  0  0  0  0  0  0  0  0  0
   -0.7500    3.8971    0.0000 N   0  0  0  0  0  0  0  0  0  0  0  0
   -1.5000    5.1962    0.0000 N   0  0  0  0  0  0  0  0  0  0  0  0
   -0.7500    6.4952    0.0000 C   0  0  0  0  0  0  0  0  0  0  0  0
    0.7500    6.4952    0.0000 C   0  0  0  0  0  0  0  0  0  0  0  0
    1.5000    7.7942    0.0000 C   0  0  0  0  0  0  0  0  0  0  0  0
    0.7500    9.0933    0.0000 C   0  0  0  0  0  0  0  0  0  0  0  0
   -0.7500    9.0933    0.0000 C   0  0  0  0  0  0  0  0  0  0  0  0
   -1.5000    7.7942    0.0000 N   0  0  0  0  0  0  0  0  0  0  0  0
   -1.5000    0.0000    0.0000 C   0  0  0  0  0  0  0  0  0  0  0  0
   -0.7500   -1.2990    0.0000 C   0  0  0  0  0  0  0  0  0  0  0  0
    0.8899   -3.9684    0.0000 N   0  0  0  0  0  0  0  0  0  0  0  0
  1  2  1  0
  2  3  1  0
  2  4  1  0
  2  5  1  0
  5  6  2  0
  6  7  1  0
  7  8  1  0
  8  9  1  0
  9 10  2  0
 10 11  1  0
 11 12  2  0
 12 13  1  0
 13 14  2  0
 14 15  1  0
 15 16  1  0
 16 17  2  0
 17 18  1  0
 18 19  2  0
 19 20  1  0
 20 21  2  0
 12 22  1  0
 22 23  2  0
  8 24  2  0
 24  5  1  0
 23  9  1  0
 21 16  1  0
M  END
>  <Compound_ID>  (621) 
C04347530

>  <Active>  (621) 
0.0

>  <Smiles>  (621) 
CC(C)(C)c1csc(-c2ccc(/C=N/Nc3ccccn3)cc2)n1

>  <canonical_smi>  (621) 
CC(C)(C)c1csc(-c2ccc(/C=N/Nc3ccccn3)cc2)n1

>  <Set>  (621) 
G2 inactive

>  <Set_type>  (621) 
Train

>  <MW>  (621) 
336.46

>  <HBD>  (621) 
1

>  <HBA>  (621) 
3

>  <NRB>  (621) 
4

>  <NR>  (621) 
3

>  <NAR>  (621) 
3

>  <PSA>  (621) 
50.17

>  <Standard Type>  (621) 
nan

>  <Standard Relation>  (621) 
nan

>  <Standard Units>  (621) 
nan

>  <Standard Value>  (621) 
nan

>  <Assay ChEMBL ID>  (621) 
nan

>  <Assay Description>  (621) 
nan

>  <BAO Label>  (621) 
nan

$$$$

     RDKit          2D

 31 34  0  0  0  0  0  0  0  0999 V2000
   -7.7227   -2.1088    0.0000 C   0  0  0  0  0  0  0  0  0  0  0  0
   -6.2961   -1.6453    0.0000 C   0  0  0  0  0  0  0  0  0  0  0  0
   -5.1814   -2.6490    0.0000 O   0  0  0  0  0  0  0  0  0  0  0  0
   -3.7548   -2.1855    0.0000 C   0  0  0  0  0  0  0  0  0  0  0  0
   -2.6401   -3.1891    0.0000 C   0  0  0  0  0  0  0  0  0  0  0  0
   -1.2135   -2.7256    0.0000 N   0  0  0  0  0  0  0  0  0  0  0  0
   -0.0000   -3.6073    0.0000 C   0  0  0  0  0  0  0  0  0  0  0  0
   -0.0000   -5.1073    0.0000 N   0  0  0  0  0  0  0  0  0  0  0  0
    1.2990   -5.8573    0.0000 C   0  0  0  0  0  0  0  0  0  0  0  0
    2.5981   -5.1073    0.0000 O   0  0  0  0  0  0  0  0  0  0  0  0
    1.2990   -7.3573    0.0000 C   0  0  0  0  0  0  0  0  0  0  0  0
    0.0855   -8.2390    0.0000 S   0  0  0  0  0  0  0  0  0  0  0  0
    0.5490   -9.6656    0.0000 C   0  0  0  0  0  0  0  0  0  0  0  0
   -0.2010  -10.9646    0.0000 C   0  0  0  0  0  0  0  0  0  0  0  0
    0.5490  -12.2636    0.0000 C   0  0  0  0  0  0  0  0  0  0  0  0
    2.0490  -12.2636    0.0000 C   0  0  0  0  0  0  0  0  0  0  0  0
    2.7990  -10.9646    0.0000 C   0  0  0  0  0  0  0  0  0  0  0  0
    2.0490   -9.6656    0.0000 C   0  0  0  0  0  0  0  0  0  0  0  0
    2.5126   -8.2390    0.0000 C   0  0  0  0  0  0  0  0  0  0  0  0
    3.9391   -7.7755    0.0000 Cl  0  0  0  0  0  0  0  0  0  0  0  0
    1.2135   -2.7256    0.0000 S   0  0  0  0  0  0  0  0  0  0  0  0
    0.7500   -1.2990    0.0000 C   0  0  0  0  0  0  0  0  0  0  0  0
    1.5000    0.0000    0.0000 C   0  0  0  0  0  0  0  0  0  0  0  0
    0.7500    1.2990    0.0000 C   0  0  0  0  0  0  0  0  0  0  0  0
    1.5000    2.5981    0.0000 S   0  0  0  0  0  0  0  0  0  0  0  0
    2.2500    3.8971    0.0000 N   0  0  0  0  0  0  0  0  0  0  0  0
    2.7990    1.8481    0.0000 O   0  0  0  0  0  0  0  0  0  0  0  0
    0.2010    3.3481    0.0000 O   0  0  0  0  0  0  0  0  0  0  0  0
   -0.7500    1.2990    0.0000 C   0  0  0  0  0  0  0  0  0  0  0  0
   -1.5000    0.0000    0.0000 C   0  0  0  0  0  0  0  0  0  0  0  0
   -0.7500   -1.2990    0.0000 C   0  0  0  0  0  0  0  0  0  0  0  0
  1  2  1  0
  2  3  1  0
  3  4  1  0
  4  5  1  0
  5  6  1  0
  6  7  1  0
  7  8  2  0
  8  9  1  0
  9 10  2  0
  9 11  1  0
 11 12  1  0
 12 13  1  0
 13 14  2  0
 14 15  1  0
 15 16  2  0
 16 17  1  0
 17 18  2  0
 18 19  1  0
 19 20  1  0
  7 21  1  0
 21 22  1  0
 22 23  2  0
 23 24  1  0
 24 25  1  0
 25 26  1  0
 25 27  2  0
 25 28  2  0
 24 29  2  0
 29 30  1  0
 30 31  2  0
 31  6  1  0
 19 11  2  0
 31 22  1  0
 18 13  1  0
M  END
>  <Compound_ID>  (622) 
C08998604

>  <Active>  (622) 
0.0

>  <Smiles>  (622) 
CCOCCn1/c(=N/C(=O)c2sc3ccccc3c2Cl)sc2cc(S(N)(=O)=O)ccc21

>  <canonical_smi>  (622) 
CCOCCn1/c(=N/C(=O)c2sc3ccccc3c2Cl)sc2cc(S(N)(=O)=O)ccc21

>  <Set>  (622) 
G2 inactive

>  <Set_type>  (622) 
Train

>  <MW>  (622) 
496.04

>  <HBD>  (622) 
1

>  <HBA>  (622) 
4

>  <NRB>  (622) 
6

>  <NR>  (622) 
4

>  <NAR>  (622) 
4

>  <PSA>  (622) 
103.75

>  <Standard Type>  (622) 
nan

>  <Standard Relation>  (622) 
nan

>  <Standard Units>  (622) 
nan

>  <Standard Value>  (622) 
nan

>  <Assay ChEMBL ID>  (622) 
nan

>  <Assay Description>  (622) 
nan

>  <BAO Label>  (622) 
nan

$$$$

     RDKit          2D

 37 42  0  0  0  0  0  0  0  0999 V2000
   11.0030   -8.7236    0.0000 C   0  0  0  0  0  0  0  0  0  0  0  0
   11.4665   -7.2970    0.0000 O   0  0  0  0  0  0  0  0  0  0  0  0
   10.4628   -6.1823    0.0000 C   0  0  0  0  0  0  0  0  0  0  0  0
    8.9956   -6.4942    0.0000 C   0  0  0  0  0  0  0  0  0  0  0  0
    7.9919   -5.3794    0.0000 C   0  0  0  0  0  0  0  0  0  0  0  0
    6.5247   -5.6913    0.0000 C   0  0  0  0  0  0  0  0  0  0  0  0
    5.9146   -7.0616    0.0000 N   0  0  0  0  0  0  0  0  0  0  0  0
    4.4228   -6.9048    0.0000 C   0  0  0  0  0  0  0  0  0  0  0  0
    3.4191   -8.0196    0.0000 C   0  0  0  0  0  0  0  0  0  0  0  0
    1.9519   -7.7077    0.0000 C   0  0  0  0  0  0  0  0  0  0  0  0
    0.9482   -8.8224    0.0000 C   0  0  0  0  0  0  0  0  0  0  0  0
    1.4117  -10.2490    0.0000 C   0  0  0  0  0  0  0  0  0  0  0  0
    2.8790  -10.5609    0.0000 C   0  0  0  0  0  0  0  0  0  0  0  0
    3.8827   -9.4461    0.0000 C   0  0  0  0  0  0  0  0  0  0  0  0
    4.1110   -5.4376    0.0000 C   0  0  0  0  0  0  0  0  0  0  0  0
    2.7406   -4.8275    0.0000 C   0  0  0  0  0  0  0  0  0  0  0  0
    1.5271   -5.7092    0.0000 C   0  0  0  0  0  0  0  0  0  0  0  0
    0.1568   -5.0991    0.0000 C   0  0  0  0  0  0  0  0  0  0  0  0
    0.0000   -3.6073    0.0000 C   0  0  0  0  0  0  0  0  0  0  0  0
    1.2135   -2.7256    0.0000 C   0  0  0  0  0  0  0  0  0  0  0  0
    2.5838   -3.3357    0.0000 C   0  0  0  0  0  0  0  0  0  0  0  0
    0.7500   -1.2990    0.0000 C   0  0  0  0  0  0  0  0  0  0  0  0
    1.5000    0.0000    0.0000 C   0  0  0  0  0  0  0  0  0  0  0  0
    0.7500    1.2990    0.0000 C   0  0  0  0  0  0  0  0  0  0  0  0
   -0.7500    1.2990    0.0000 C   0  0  0  0  0  0  0  0  0  0  0  0
   -1.5000    0.0000    0.0000 C   0  0  0  0  0  0  0  0  0  0  0  0
   -0.7500   -1.2990    0.0000 C   0  0  0  0  0  0  0  0  0  0  0  0
   -1.2135   -2.7256    0.0000 S   0  0  0  0  0  0  0  0  0  0  0  0
   -2.5838   -2.1155    0.0000 O   0  0  0  0  0  0  0  0  0  0  0  0
   -1.9635   -4.0247    0.0000 O   0  0  0  0  0  0  0  0  0  0  0  0
    5.4100   -4.6876    0.0000 N   0  0  0  0  0  0  0  0  0  0  0  0
    8.4555   -3.9529    0.0000 C   0  0  0  0  0  0  0  0  0  0  0  0
    9.9227   -3.6410    0.0000 C   0  0  0  0  0  0  0  0  0  0  0  0
   10.3862   -2.2144    0.0000 O   0  0  0  0  0  0  0  0  0  0  0  0
   11.8534   -1.9025    0.0000 C   0  0  0  0  0  0  0  0  0  0  0  0
   10.9264   -4.7557    0.0000 C   0  0  0  0  0  0  0  0  0  0  0  0
   12.3936   -4.4438    0.0000 O   0  0  0  0  0  0  0  0  0  0  0  0
  1  2  1  0
  2  3  1  0
  3  4  2  0
  4  5  1  0
  5  6  2  0
  6  7  1  0
  7  8  1  0
  8  9  1  0
  9 10  2  0
 10 11  1  0
 11 12  2  0
 12 13  1  0
 13 14  2  0
  8 15  2  0
 15 16  1  0
 16 17  2  0
 17 18  1  0
 18 19  2  0
 19 20  1  0
 20 21  2  0
 20 22  1  0
 22 23  2  0
 23 24  1  0
 24 25  2  0
 25 26  1  0
 26 27  2  0
 27 28  1  0
 28 29  2  0
 28 30  2  0
 15 31  1  0
  5 32  1  0
 32 33  2  0
 33 34  1  0
 34 35  1  0
 33 36  1  0
 36 37  2  0
 36  3  1  0
 31  6  1  0
 14  9  1  0
 21 16  1  0
 27 22  1  0
 28 19  1  0
M  END
>  <Compound_ID>  (623) 
C13124174

>  <Active>  (623) 
0.0

>  <Smiles>  (623) 
COC1=CC(=C2NC(c3ccccc3)=C(c3ccc4c(c3)-c3ccccc3S4(=O)=O)N2)C=C(OC)C1=O

>  <canonical_smi>  (623) 
COC1=CC(=C2NC(c3ccccc3)=C(c3ccc4c(c3)-c3ccccc3S4(=O)=O)N2)C=C(OC)C1=O

>  <Set>  (623) 
G2 inactive

>  <Set_type>  (623) 
Train

>  <MW>  (623) 
510.57

>  <HBD>  (623) 
2

>  <HBA>  (623) 
7

>  <NRB>  (623) 
4

>  <NR>  (623) 
6

>  <NAR>  (623) 
4

>  <PSA>  (623) 
93.73

>  <Standard Type>  (623) 
nan

>  <Standard Relation>  (623) 
nan

>  <Standard Units>  (623) 
nan

>  <Standard Value>  (623) 
nan

>  <Assay ChEMBL ID>  (623) 
nan

>  <Assay Description>  (623) 
nan

>  <BAO Label>  (623) 
nan

$$$$

     RDKit          2D

 26 29  0  0  0  0  0  0  0  0999 V2000
   -7.2812   -8.8974    0.0000 C   0  0  0  0  0  0  0  0  0  0  0  0
   -5.9108   -9.5075    0.0000 S   0  0  0  0  0  0  0  0  0  0  0  0
   -4.6973   -8.6258    0.0000 C   0  0  0  0  0  0  0  0  0  0  0  0
   -4.8541   -7.1340    0.0000 C   0  0  0  0  0  0  0  0  0  0  0  0
   -3.6406   -6.2523    0.0000 C   0  0  0  0  0  0  0  0  0  0  0  0
   -2.2703   -6.8624    0.0000 C   0  0  0  0  0  0  0  0  0  0  0  0
   -1.0567   -5.9808    0.0000 C   0  0  0  0  0  0  0  0  0  0  0  0
   -1.2135   -4.4890    0.0000 C   0  0  0  0  0  0  0  0  0  0  0  0
    0.0000   -3.6073    0.0000 C   0  0  0  0  0  0  0  0  0  0  0  0
    0.4635   -5.0339    0.0000 N   0  0  0  0  0  0  0  0  0  0  0  0
    1.9635   -5.0339    0.0000 C   0  0  0  0  0  0  0  0  0  0  0  0
    2.8452   -6.2474    0.0000 O   0  0  0  0  0  0  0  0  0  0  0  0
    2.4271   -3.6073    0.0000 C   0  0  0  0  0  0  0  0  0  0  0  0
    1.2135   -2.7256    0.0000 N   0  0  0  0  0  0  0  0  0  0  0  0
    0.7500   -1.2990    0.0000 C   0  0  0  0  0  0  0  0  0  0  0  0
    1.5000    0.0000    0.0000 C   0  0  0  0  0  0  0  0  0  0  0  0
    0.7500    1.2990    0.0000 C   0  0  0  0  0  0  0  0  0  0  0  0
   -0.7500    1.2990    0.0000 C   0  0  0  0  0  0  0  0  0  0  0  0
   -1.5000    2.5981    0.0000 C   0  0  0  0  0  0  0  0  0  0  0  0
   -1.5000    0.0000    0.0000 C   0  0  0  0  0  0  0  0  0  0  0  0
   -0.7500   -1.2990    0.0000 C   0  0  0  0  0  0  0  0  0  0  0  0
   -1.2135   -2.7256    0.0000 C   0  0  0  0  0  0  0  0  0  0  0  0
   -2.5838   -2.1155    0.0000 C   0  0  0  0  0  0  0  0  0  0  0  0
   -1.9635   -4.0247    0.0000 C   0  0  0  0  0  0  0  0  0  0  0  0
   -2.1135   -8.3542    0.0000 C   0  0  0  0  0  0  0  0  0  0  0  0
   -3.3270   -9.2359    0.0000 C   0  0  0  0  0  0  0  0  0  0  0  0
  1  2  1  0
  2  3  1  0
  3  4  2  0
  4  5  1  0
  5  6  2  0
  6  7  1  0
  7  8  2  0
  9  8  1  1
  9 10  1  0
 10 11  1  0
 11 12  2  0
 11 13  1  0
 13 14  1  0
 14 15  1  0
 15 16  2  0
 16 17  1  0
 17 18  2  0
 18 19  1  0
 18 20  1  0
 20 21  2  0
 21 22  1  0
 22 23  1  0
 22 24  1  0
  6 25  1  0
 25 26  2  0
 26  3  1  0
 14  9  1  0
 21 15  1  0
 22  9  1  0
M  END
>  <Compound_ID>  (624) 
C04000148

>  <Active>  (624) 
0.0

>  <Smiles>  (624) 
CSc1ccc(/C=C/[C@]23NC(=O)CN2c2ccc(C)cc2C3(C)C)cc1

>  <canonical_smi>  (624) 
CSc1ccc(/C=C/[C@]23NC(=O)CN2c2ccc(C)cc2C3(C)C)cc1

>  <Set>  (624) 
G2 inactive

>  <Set_type>  (624) 
Train

>  <MW>  (624) 
364.51

>  <HBD>  (624) 
1

>  <HBA>  (624) 
3

>  <NRB>  (624) 
3

>  <NR>  (624) 
4

>  <NAR>  (624) 
2

>  <PSA>  (624) 
32.34

>  <Standard Type>  (624) 
nan

>  <Standard Relation>  (624) 
nan

>  <Standard Units>  (624) 
nan

>  <Standard Value>  (624) 
nan

>  <Assay ChEMBL ID>  (624) 
nan

>  <Assay Description>  (624) 
nan

>  <BAO Label>  (624) 
nan

$$$$

     RDKit          2D

 24 27  0  0  0  0  0  0  0  0999 V2000
   -1.5000   -5.1962    0.0000 O   0  0  0  0  0  0  0  0  0  0  0  0
   -0.7500   -3.8971    0.0000 C   0  0  0  0  0  0  0  0  0  0  0  0
    0.7500   -3.8971    0.0000 C   0  0  0  0  0  0  0  0  0  0  0  0
    1.5000   -2.5981    0.0000 C   0  0  0  0  0  0  0  0  0  0  0  0
    0.7500   -1.2990    0.0000 C   0  0  0  0  0  0  0  0  0  0  0  0
    1.5000    0.0000    0.0000 C   0  0  0  0  0  0  0  0  0  0  0  0
    0.7500    1.2990    0.0000 C   0  0  0  0  0  0  0  0  0  0  0  0
   -0.7500    1.2990    0.0000 C   0  0  0  0  0  0  0  0  0  0  0  0
   -1.5000    0.0000    0.0000 C   0  0  0  0  0  0  0  0  0  0  0  0
   -0.7500   -1.2990    0.0000 C   0  0  0  0  0  0  0  0  0  0  0  0
   -1.5000   -2.5981    0.0000 C   0  0  0  0  0  0  0  0  0  0  0  0
   -3.0000   -2.5981    0.0000 N   0  0  0  0  0  0  0  0  0  0  0  0
   -3.7500   -1.2990    0.0000 N   0  0  0  0  0  0  0  0  0  0  0  0
   -5.2500   -1.2990    0.0000 C   0  0  0  0  0  0  0  0  0  0  0  0
   -6.0000   -2.5981    0.0000 C   0  0  0  0  0  0  0  0  0  0  0  0
   -7.5000   -2.5981    0.0000 C   0  0  0  0  0  0  0  0  0  0  0  0
   -8.2500   -1.2990    0.0000 C   0  0  0  0  0  0  0  0  0  0  0  0
   -9.7500   -1.2990    0.0000 C   0  0  0  0  0  0  0  0  0  0  0  0
  -10.5000   -0.0000    0.0000 C   0  0  0  0  0  0  0  0  0  0  0  0
   -9.7500    1.2990    0.0000 C   0  0  0  0  0  0  0  0  0  0  0  0
   -8.2500    1.2990    0.0000 C   0  0  0  0  0  0  0  0  0  0  0  0
   -7.5000   -0.0000    0.0000 C   0  0  0  0  0  0  0  0  0  0  0  0
   -6.0000   -0.0000    0.0000 C   0  0  0  0  0  0  0  0  0  0  0  0
   -5.2500    1.2990    0.0000 Cl  0  0  0  0  0  0  0  0  0  0  0  0
  1  2  2  0
  2  3  1  0
  3  4  2  0
  4  5  1  0
  5  6  2  0
  6  7  1  0
  7  8  2  0
  8  9  1  0
  9 10  2  0
 10 11  1  0
 11 12  2  0
 12 13  1  0
 13 14  1  0
 14 15  2  0
 15 16  1  0
 16 17  2  0
 17 18  1  0
 18 19  2  0
 19 20  1  0
 20 21  2  0
 21 22  1  0
 22 23  2  0
 23 24  1  0
 11  2  1  0
 23 14  1  0
 10  5  1  0
 22 17  1  0
M  END
>  <Compound_ID>  (625) 
C04798523

>  <Active>  (625) 
0.0

>  <Smiles>  (625) 
O=C1C=Cc2ccccc2/C1=N\Nc1ccc2ccccc2c1Cl

>  <canonical_smi>  (625) 
O=C1C=Cc2ccccc2/C1=N\Nc1ccc2ccccc2c1Cl

>  <Set>  (625) 
G2 inactive

>  <Set_type>  (625) 
Train

>  <MW>  (625) 
332.79

>  <HBD>  (625) 
1

>  <HBA>  (625) 
2

>  <NRB>  (625) 
2

>  <NR>  (625) 
4

>  <NAR>  (625) 
3

>  <PSA>  (625) 
41.46

>  <Standard Type>  (625) 
nan

>  <Standard Relation>  (625) 
nan

>  <Standard Units>  (625) 
nan

>  <Standard Value>  (625) 
nan

>  <Assay ChEMBL ID>  (625) 
nan

>  <Assay Description>  (625) 
nan

>  <BAO Label>  (625) 
nan

$$$$

     RDKit          2D

 18 20  0  0  0  0  0  0  0  0999 V2000
   -4.3786   -5.1199    0.0000 C   0  0  0  0  0  0  0  0  0  0  0  0
   -2.9520   -4.6564    0.0000 C   0  0  0  0  0  0  0  0  0  0  0  0
   -2.6401   -3.1891    0.0000 N   0  0  0  0  0  4  0  0  0  0  0  0
   -1.2135   -2.7256    0.0000 C   0  0  0  0  0  0  0  0  0  0  0  0
   -0.0000   -3.6073    0.0000 C   0  0  0  0  0  0  0  0  0  0  0  0
    1.2135   -2.7256    0.0000 C   0  0  0  0  0  0  0  0  0  0  0  0
    0.7500   -1.2990    0.0000 C   0  0  0  0  0  0  0  0  0  0  0  0
    1.5000    0.0000    0.0000 C   0  0  0  0  0  0  0  0  0  0  0  0
    0.7500    1.2990    0.0000 C   0  0  0  0  0  0  0  0  0  0  0  0
    1.5000    2.5981    0.0000 Br  0  0  0  0  0  0  0  0  0  0  0  0
   -0.7500    1.2990    0.0000 C   0  0  0  0  0  0  0  0  0  0  0  0
   -1.5000    0.0000    0.0000 C   0  0  0  0  0  0  0  0  0  0  0  0
   -0.7500   -1.2990    0.0000 C   0  0  0  0  0  0  0  0  0  0  0  0
   -1.8373   -5.6601    0.0000 C   0  0  0  0  0  0  0  0  0  0  0  0
   -0.3700   -5.3482    0.0000 N   0  0  0  0  0  0  0  0  0  0  0  0
    0.3800   -6.6472    0.0000 N   0  0  0  0  0  0  0  0  0  0  0  0
   -0.6237   -7.7620    0.0000 N   0  0  0  0  0  0  0  0  0  0  0  0
   -1.9941   -7.1518    0.0000 N   0  0  0  0  0  2  0  0  0  0  0  0
  2  1  1  1
  2  3  1  0
  4  3  1  1
  4  5  1  0
  5  6  1  0
  6  7  1  0
  7  8  2  0
  8  9  1  0
  9 10  1  0
  9 11  2  0
 11 12  1  0
 12 13  2  0
  2 14  1  0
 14 15  2  0
 15 16  1  0
 16 17  2  0
 17 18  1  0
 13  4  1  0
 18 14  1  0
 13  7  1  0
M  CHG  2   3   1  18  -1
M  END
>  <Compound_ID>  (626) 
C44926623

>  <Active>  (626) 
0.0

>  <Smiles>  (626) 
C[C@@H]([NH2+][C@@H]1CCc2cc(Br)ccc21)c1nnn[n-]1

>  <canonical_smi>  (626) 
C[C@@H]([NH2+][C@@H]1CCc2cc(Br)ccc21)c1nnn[n-]1

>  <Set>  (626) 
G2 inactive

>  <Set_type>  (626) 
Train

>  <MW>  (626) 
308.18

>  <HBD>  (626) 
1

>  <HBA>  (626) 
4

>  <NRB>  (626) 
3

>  <NR>  (626) 
3

>  <NAR>  (626) 
2

>  <PSA>  (626) 
69.38

>  <Standard Type>  (626) 
nan

>  <Standard Relation>  (626) 
nan

>  <Standard Units>  (626) 
nan

>  <Standard Value>  (626) 
nan

>  <Assay ChEMBL ID>  (626) 
nan

>  <Assay Description>  (626) 
nan

>  <BAO Label>  (626) 
nan

$$$$

     RDKit          2D

 26 29  0  0  0  0  0  0  0  0999 V2000
   -7.9635  -11.8189    0.0000 C   0  0  0  0  0  0  0  0  0  0  0  0
   -7.2135  -10.5199    0.0000 N   0  0  0  0  0  4  0  0  0  0  0  0
   -7.9635   -9.2208    0.0000 C   0  0  0  0  0  0  0  0  0  0  0  0
   -5.7135  -10.5199    0.0000 C   0  0  0  0  0  0  0  0  0  0  0  0
   -4.9635   -9.2208    0.0000 C   0  0  0  0  0  0  0  0  0  0  0  0
   -4.2135   -7.9218    0.0000 C   0  0  0  0  0  0  0  0  0  0  0  0
   -3.4635   -6.6227    0.0000 C   0  0  0  0  0  0  0  0  0  0  0  0
   -4.8980   -6.1842    0.0000 O   0  0  0  0  0  0  0  0  0  0  0  0
   -2.2500   -7.5044    0.0000 C   0  0  0  0  0  0  0  0  0  0  0  0
   -1.0365   -6.6227    0.0000 C   0  0  0  0  0  0  0  0  0  0  0  0
   -1.5000   -5.1962    0.0000 C   0  0  0  0  0  0  0  0  0  0  0  0
   -0.7500   -3.8971    0.0000 C   0  0  0  0  0  0  0  0  0  0  0  0
    0.7500   -3.8971    0.0000 C   0  0  0  0  0  0  0  0  0  0  0  0
    1.5000   -2.5981    0.0000 C   0  0  0  0  0  0  0  0  0  0  0  0
    0.7500   -1.2990    0.0000 C   0  0  0  0  0  0  0  0  0  0  0  0
    1.5000    0.0000    0.0000 C   0  0  0  0  0  0  0  0  0  0  0  0
    0.7500    1.2990    0.0000 C   0  0  0  0  0  0  0  0  0  0  0  0
    1.5000    2.5981    0.0000 O   0  0  0  0  0  0  0  0  0  0  0  0
   -0.7500    1.2990    0.0000 C   0  0  0  0  0  0  0  0  0  0  0  0
   -1.5000    0.0000    0.0000 C   0  0  0  0  0  0  0  0  0  0  0  0
   -0.7500   -1.2990    0.0000 C   0  0  0  0  0  0  0  0  0  0  0  0
   -1.5000   -2.5981    0.0000 C   0  0  0  0  0  0  0  0  0  0  0  0
   -3.0000   -2.5981    0.0000 C   0  0  0  0  0  0  0  0  0  0  0  0
   -3.7500   -3.8971    0.0000 C   0  0  0  0  0  0  0  0  0  0  0  0
   -3.0000   -5.1962    0.0000 C   0  0  0  0  0  0  0  0  0  0  0  0
   -4.4998   -5.1699    0.0000 C   0  0  0  0  0  0  0  0  0  0  0  0
  1  2  1  0
  2  3  1  0
  2  4  1  0
  4  5  1  0
  5  6  3  0
  6  7  1  0
  7  8  1  1
  7  9  1  0
  9 10  1  0
 11 10  1  6
 11 12  1  0
 12 13  1  6
 13 14  1  0
 14 15  1  0
 15 16  2  0
 16 17  1  0
 17 18  1  1
 17 19  1  0
 19 20  1  0
 21 20  1  6
 21 22  1  0
 22 23  1  1
 23 24  1  0
 24 25  1  0
 25 26  1  6
 25  7  1  0
 25 11  1  0
 22 12  1  0
 21 15  1  0
M  CHG  1   2   1
M  END
>  <Compound_ID>  (627) 
C04760026

>  <Active>  (627) 
0.0

>  <Smiles>  (627) 
C[NH+](C)CC#C[C@@]1(O)CC[C@H]2[C@H]3CCC4=C[C@H](O)CC[C@H]4[C@@H]3CC[C@@]21C

>  <canonical_smi>  (627) 
C[NH+](C)CC#C[C@@]1(O)CC[C@H]2[C@H]3CCC4=C[C@H](O)CC[C@H]4[C@@H]3CC[C@@]21C

>  <Set>  (627) 
G2 inactive

>  <Set_type>  (627) 
Train

>  <MW>  (627) 
358.55

>  <HBD>  (627) 
3

>  <HBA>  (627) 
2

>  <NRB>  (627) 
1

>  <NR>  (627) 
4

>  <NAR>  (627) 
0

>  <PSA>  (627) 
44.9

>  <Standard Type>  (627) 
nan

>  <Standard Relation>  (627) 
nan

>  <Standard Units>  (627) 
nan

>  <Standard Value>  (627) 
nan

>  <Assay ChEMBL ID>  (627) 
nan

>  <Assay Description>  (627) 
nan

>  <BAO Label>  (627) 
nan

$$$$

     RDKit          2D

 20 22  0  0  0  0  0  0  0  0999 V2000
   -3.7500   -3.8971    0.0000 C   0  0  0  0  0  0  0  0  0  0  0  0
   -3.0000   -2.5981    0.0000 N   0  0  0  0  0  0  0  0  0  0  0  0
   -3.7500   -1.2990    0.0000 C   0  0  0  0  0  0  0  0  0  0  0  0
   -5.2500   -1.2990    0.0000 C   0  0  0  0  0  0  0  0  0  0  0  0
   -6.1317   -2.5126    0.0000 C   0  0  0  0  0  0  0  0  0  0  0  0
   -7.5583   -2.0490    0.0000 C   0  0  0  0  0  0  0  0  0  0  0  0
   -7.5583   -0.5490    0.0000 C   0  0  0  0  0  0  0  0  0  0  0  0
   -8.7718    0.3326    0.0000 Cl  0  0  0  0  0  0  0  0  0  0  0  0
   -6.1317   -0.0855    0.0000 S   0  0  0  0  0  0  0  0  0  0  0  0
   -1.5000   -2.5981    0.0000 C   0  0  0  0  0  0  0  0  0  0  0  0
   -0.7500   -3.8971    0.0000 C   0  0  0  0  0  0  0  0  0  0  0  0
    0.7500   -3.8971    0.0000 C   0  0  0  0  0  0  0  0  0  0  0  0
    1.5000   -2.5981    0.0000 C   0  0  0  0  0  0  0  0  0  0  0  0
    3.0000   -2.5981    0.0000 N   0  0  0  0  0  0  0  0  0  0  0  0
    0.7500   -1.2990    0.0000 C   0  0  0  0  0  0  0  0  0  0  0  0
    1.5000    0.0000    0.0000 C   0  0  0  0  0  0  0  0  0  0  0  0
    0.7500    1.2990    0.0000 N   0  0  0  0  0  4  0  0  0  0  0  0
   -0.7500    1.2990    0.0000 C   0  0  0  0  0  0  0  0  0  0  0  0
   -1.5000    0.0000    0.0000 C   0  0  0  0  0  0  0  0  0  0  0  0
   -0.7500   -1.2990    0.0000 C   0  0  0  0  0  0  0  0  0  0  0  0
  1  2  1  0
  2  3  1  0
  3  4  1  0
  4  5  2  0
  5  6  1  0
  6  7  2  0
  7  8  1  0
  7  9  1  0
  2 10  1  0
 10 11  2  0
 11 12  1  0
 12 13  2  0
 13 14  1  0
 13 15  1  0
 15 16  2  0
 16 17  1  0
 17 18  2  0
 18 19  1  0
 19 20  2  0
  9  4  1  0
 20 10  1  0
 20 15  1  0
M  CHG  1  17   1
M  END
>  <Compound_ID>  (628) 
C48971523

>  <Active>  (628) 
0.0

>  <Smiles>  (628) 
CN(Cc1ccc(Cl)s1)c1ccc(N)c2c[nH+]ccc12

>  <canonical_smi>  (628) 
CN(Cc1ccc(Cl)s1)c1ccc(N)c2c[nH+]ccc12

>  <Set>  (628) 
G2 inactive

>  <Set_type>  (628) 
Train

>  <MW>  (628) 
304.83

>  <HBD>  (628) 
1

>  <HBA>  (628) 
2

>  <NRB>  (628) 
3

>  <NR>  (628) 
3

>  <NAR>  (628) 
3

>  <PSA>  (628) 
43.4

>  <Standard Type>  (628) 
nan

>  <Standard Relation>  (628) 
nan

>  <Standard Units>  (628) 
nan

>  <Standard Value>  (628) 
nan

>  <Assay ChEMBL ID>  (628) 
nan

>  <Assay Description>  (628) 
nan

>  <BAO Label>  (628) 
nan

$$$$

     RDKit          2D

 20 22  0  0  0  0  0  0  0  0999 V2000
   -0.0000   -5.1073    0.0000 O   0  0  0  0  0  0  0  0  0  0  0  0
   -0.0000   -3.6073    0.0000 C   0  0  0  0  0  0  0  0  0  0  0  0
    1.2135   -2.7256    0.0000 N   0  0  0  0  0  0  0  0  0  0  0  0
    0.7500   -1.2990    0.0000 C   0  0  0  0  0  0  0  0  0  0  0  0
    1.5000    0.0000    0.0000 C   0  0  0  0  0  0  0  0  0  0  0  0
    3.0000    0.0000    0.0000 Cl  0  0  0  0  0  0  0  0  0  0  0  0
    0.7500    1.2990    0.0000 C   0  0  0  0  0  0  0  0  0  0  0  0
   -0.7500    1.2990    0.0000 C   0  0  0  0  0  0  0  0  0  0  0  0
   -1.5000    0.0000    0.0000 C   0  0  0  0  0  0  0  0  0  0  0  0
   -0.7500   -1.2990    0.0000 C   0  0  0  0  0  0  0  0  0  0  0  0
   -1.2135   -2.7256    0.0000 C   0  0  0  0  0  0  0  0  0  0  0  0
   -2.6401   -3.1891    0.0000 N   0  0  0  0  0  4  0  0  0  0  0  0
   -2.9520   -4.6564    0.0000 C   0  0  0  0  0  0  0  0  0  0  0  0
   -4.4269   -4.9297    0.0000 C   0  0  0  0  0  0  0  0  0  0  0  0
   -5.2765   -6.1659    0.0000 C   0  0  0  0  0  0  0  0  0  0  0  0
   -5.0031   -7.6408    0.0000 C   0  0  0  0  0  0  0  0  0  0  0  0
   -3.7669   -8.4904    0.0000 C   0  0  0  0  0  0  0  0  0  0  0  0
   -2.2920   -8.2171    0.0000 C   0  0  0  0  0  0  0  0  0  0  0  0
   -1.4424   -6.9809    0.0000 C   0  0  0  0  0  0  0  0  0  0  0  0
   -1.7158   -5.5060    0.0000 C   0  0  0  0  0  0  0  0  0  0  0  0
  1  2  2  0
  2  3  1  0
  3  4  1  0
  4  5  2  0
  5  6  1  0
  5  7  1  0
  7  8  2  0
  8  9  1  0
  9 10  2  0
 10 11  1  0
 11 12  1  6
 12 13  1  0
 13 14  1  0
 14 15  1  0
 15 16  1  0
 16 17  1  0
 17 18  1  0
 18 19  1  0
 19 20  1  0
 11  2  1  0
 20 13  1  0
 10  4  1  0
M  CHG  1  12   1
M  END
>  <Compound_ID>  (629) 
C42109193

>  <Active>  (629) 
0.0

>  <Smiles>  (629) 
O=C1Nc2c(Cl)cccc2[C@H]1[NH2+]C1CCCCCCC1

>  <canonical_smi>  (629) 
O=C1Nc2c(Cl)cccc2[C@H]1[NH2+]C1CCCCCCC1

>  <Set>  (629) 
G2 inactive

>  <Set_type>  (629) 
Train

>  <MW>  (629) 
293.82

>  <HBD>  (629) 
2

>  <HBA>  (629) 
1

>  <NRB>  (629) 
2

>  <NR>  (629) 
3

>  <NAR>  (629) 
1

>  <PSA>  (629) 
45.71

>  <Standard Type>  (629) 
nan

>  <Standard Relation>  (629) 
nan

>  <Standard Units>  (629) 
nan

>  <Standard Value>  (629) 
nan

>  <Assay ChEMBL ID>  (629) 
nan

>  <Assay Description>  (629) 
nan

>  <BAO Label>  (629) 
nan

$$$$

     RDKit          2D

 34 38  0  0  0  0  0  0  0  0999 V2000
    4.3786   -5.1199    0.0000 C   0  0  0  0  0  0  0  0  0  0  0  0
    2.9520   -4.6564    0.0000 N   0  0  0  0  0  0  0  0  0  0  0  0
    2.6401   -3.1891    0.0000 C   0  0  0  0  0  0  0  0  0  0  0  0
    3.7548   -2.1855    0.0000 O   0  0  0  0  0  0  0  0  0  0  0  0
    1.2135   -2.7256    0.0000 C   0  0  0  0  0  0  0  0  0  0  0  0
   -0.0000   -3.6073    0.0000 N   0  0  0  0  0  0  0  0  0  0  0  0
   -1.2135   -2.7256    0.0000 N   0  0  0  0  0  0  0  0  0  0  0  0
   -2.6401   -3.1891    0.0000 C   0  0  0  0  0  0  0  0  0  0  0  0
   -2.9520   -4.6564    0.0000 C   0  0  0  0  0  0  0  0  0  0  0  0
   -4.3786   -5.1199    0.0000 C   0  0  0  0  0  0  0  0  0  0  0  0
   -4.6904   -6.5871    0.0000 C   0  0  0  0  0  0  0  0  0  0  0  0
   -3.5757   -7.5908    0.0000 C   0  0  0  0  0  0  0  0  0  0  0  0
   -2.1491   -7.1273    0.0000 C   0  0  0  0  0  0  0  0  0  0  0  0
   -1.8373   -5.6601    0.0000 C   0  0  0  0  0  0  0  0  0  0  0  0
   -0.7500   -1.2990    0.0000 C   0  0  0  0  0  0  0  0  0  0  0  0
    0.7500   -1.2990    0.0000 C   0  0  0  0  0  0  0  0  0  0  0  0
    1.5000    0.0000    0.0000 C   0  0  0  0  0  0  0  0  0  0  0  0
    0.7500    1.2990    0.0000 C   0  0  0  0  0  0  0  0  0  0  0  0
    1.5000    2.5981    0.0000 N   0  0  0  0  0  4  0  0  0  0  0  0
    3.0000    2.5981    0.0000 C   0  0  0  0  0  0  0  0  0  0  0  0
    3.7500    3.8971    0.0000 C   0  0  0  0  0  0  0  0  0  0  0  0
    3.0000    5.1962    0.0000 C   0  0  0  0  0  0  0  0  0  0  0  0
    3.7500    6.4952    0.0000 N   0  0  0  0  0  0  0  0  0  0  0  0
    5.2500    6.4952    0.0000 C   0  0  0  0  0  0  0  0  0  0  0  0
    6.0000    7.7942    0.0000 C   0  0  0  0  0  0  0  0  0  0  0  0
    7.5000    7.7942    0.0000 C   0  0  0  0  0  0  0  0  0  0  0  0
    5.2500    9.0933    0.0000 O   0  0  0  0  0  0  0  0  0  0  0  0
    3.7500    9.0933    0.0000 C   0  0  0  0  0  0  0  0  0  0  0  0
    3.0000   10.3923    0.0000 C   0  0  0  0  0  0  0  0  0  0  0  0
    3.0000    7.7942    0.0000 C   0  0  0  0  0  0  0  0  0  0  0  0
    1.5000    5.1962    0.0000 C   0  0  0  0  0  0  0  0  0  0  0  0
    0.7500    3.8971    0.0000 C   0  0  0  0  0  0  0  0  0  0  0  0
   -0.7500    1.2990    0.0000 C   0  0  0  0  0  0  0  0  0  0  0  0
   -1.5000    0.0000    0.0000 C   0  0  0  0  0  0  0  0  0  0  0  0
  1  2  1  0
  2  3  1  0
  3  4  2  0
  3  5  1  0
  5  6  2  0
  6  7  1  0
  7  8  1  0
  8  9  1  0
  9 10  1  0
 10 11  1  0
 11 12  1  0
 12 13  1  0
 13 14  1  0
  7 15  1  0
 15 16  2  0
 16 17  1  0
 17 18  1  0
 18 19  1  1
 19 20  1  0
 20 21  1  0
 21 22  1  0
 22 23  1  0
 23 24  1  0
 24 25  1  0
 25 26  1  6
 25 27  1  0
 27 28  1  0
 28 29  1  6
 28 30  1  0
 22 31  1  0
 31 32  1  0
 18 33  1  0
 33 34  1  0
 16  5  1  0
 32 19  1  0
 14  9  1  0
 34 15  1  0
 30 23  1  0
M  CHG  1  19   1
M  END
>  <Compound_ID>  (630) 
C14750970

>  <Active>  (630) 
0.0

>  <Smiles>  (630) 
CNC(=O)c1nn(CC2CCCCC2)c2c1C[C@H]([NH+]1CCC(N3C[C@@H](C)O[C@@H](C)C3)CC1)CC2

>  <canonical_smi>  (630) 
CNC(=O)c1nn(CC2CCCCC2)c2c1C[C@H]([NH+]1CCC(N3C[C@H](C)O[C@H](C)C3)CC1)CC2

>  <Set>  (630) 
G2 inactive

>  <Set_type>  (630) 
Train

>  <MW>  (630) 
472.7

>  <HBD>  (630) 
2

>  <HBA>  (630) 
4

>  <NRB>  (630) 
5

>  <NR>  (630) 
5

>  <NAR>  (630) 
1

>  <PSA>  (630) 
63.83

>  <Standard Type>  (630) 
nan

>  <Standard Relation>  (630) 
nan

>  <Standard Units>  (630) 
nan

>  <Standard Value>  (630) 
nan

>  <Assay ChEMBL ID>  (630) 
nan

>  <Assay Description>  (630) 
nan

>  <BAO Label>  (630) 
nan

$$$$

     RDKit          2D

 33 37  0  0  0  0  0  0  0  0999 V2000
    0.4775   -7.0740    0.0000 C   0  0  0  0  0  0  0  0  0  0  0  0
    1.8478   -6.4639    0.0000 C   0  0  0  0  0  0  0  0  0  0  0  0
    3.0613   -7.3456    0.0000 O   0  0  0  0  0  0  0  0  0  0  0  0
    2.0046   -4.9721    0.0000 C   0  0  0  0  0  0  0  0  0  0  0  0
    3.3037   -4.2221    0.0000 C   0  0  0  0  0  0  0  0  0  0  0  0
    2.9918   -2.7549    0.0000 C   0  0  0  0  0  0  0  0  0  0  0  0
    1.5000   -2.5981    0.0000 C   0  0  0  0  0  0  0  0  0  0  0  0
    0.7500   -1.2990    0.0000 C   0  0  0  0  0  0  0  0  0  0  0  0
    1.5000    0.0000    0.0000 C   0  0  0  0  0  0  0  0  0  0  0  0
    0.7500    1.2990    0.0000 C   0  0  0  0  0  0  0  0  0  0  0  0
   -0.7500    1.2990    0.0000 C   0  0  0  0  0  0  0  0  0  0  0  0
   -1.5000    2.5981    0.0000 C   0  0  0  0  0  0  0  0  0  0  0  0
   -3.0000    2.5981    0.0000 C   0  0  0  0  0  0  0  0  0  0  0  0
   -3.7500    1.2990    0.0000 C   0  0  0  0  0  0  0  0  0  0  0  0
   -3.0000    0.0000    0.0000 C   0  0  0  0  0  0  0  0  0  0  0  0
   -1.5000    0.0000    0.0000 C   0  0  0  0  0  0  0  0  0  0  0  0
   -0.7500   -1.2990    0.0000 C   0  0  0  0  0  0  0  0  0  0  0  0
   -3.4635    4.0247    0.0000 O   0  0  0  0  0  0  0  0  0  0  0  0
   -2.2500    4.9063    0.0000 C   0  0  0  0  0  0  0  0  0  0  0  0
   -2.2500    6.4063    0.0000 C   0  0  0  0  0  0  0  0  0  0  0  0
   -0.9510    7.1563    0.0000 N   0  0  0  0  0  0  0  0  0  0  0  0
   -0.9510    8.6563    0.0000 C   0  0  0  0  0  0  0  0  0  0  0  0
   -2.2500    9.4063    0.0000 O   0  0  0  0  0  0  0  0  0  0  0  0
    0.3481    9.4063    0.0000 C   0  0  0  0  0  0  0  0  0  0  0  0
    0.3481   10.9063    0.0000 C   0  0  0  0  0  0  0  0  0  0  0  0
    1.6471    8.6563    0.0000 N   0  0  0  0  0  4  0  0  0  0  0  0
    1.6471    7.1563    0.0000 C   0  0  0  0  0  0  0  0  0  0  0  0
    2.9462    6.4063    0.0000 C   0  0  0  0  0  0  0  0  0  0  0  0
    4.2452    7.1563    0.0000 O   0  0  0  0  0  0  0  0  0  0  0  0
    4.2452    8.6563    0.0000 C   0  0  0  0  0  0  0  0  0  0  0  0
    2.9462    9.4063    0.0000 C   0  0  0  0  0  0  0  0  0  0  0  0
   -1.0365    4.0247    0.0000 C   0  0  0  0  0  0  0  0  0  0  0  0
    0.8899   -3.9684    0.0000 S   0  0  0  0  0  0  0  0  0  0  0  0
  1  2  1  0
  2  3  2  0
  2  4  1  0
  4  5  2  0
  5  6  1  0
  6  7  2  0
  7  8  1  0
  8  9  2  0
  9 10  1  0
 10 11  2  0
 11 12  1  0
 12 13  2  0
 13 14  1  0
 14 15  2  0
 15 16  1  0
 16 17  2  0
 13 18  1  0
 18 19  1  0
 19 20  1  1
 20 21  1  0
 21 22  1  0
 22 23  2  0
 22 24  1  0
 24 25  1  6
 24 26  1  0
 26 27  1  0
 27 28  1  0
 28 29  1  0
 29 30  1  0
 30 31  1  0
 19 32  1  0
  7 33  1  0
 33  4  1  0
 17  8  1  0
 31 26  1  0
 16 11  1  0
 32 12  1  0
M  CHG  1  26   1
M  END
>  <Compound_ID>  (631) 
C12048896

>  <Active>  (631) 
0.0

>  <Smiles>  (631) 
CC(=O)c1ccc(-c2ccc3c4c(ccc3c2)O[C@@H](CNC(=O)[C@H](C)[NH+]2CCOCC2)C4)s1

>  <canonical_smi>  (631) 
CC(=O)c1ccc(-c2ccc3c4c(ccc3c2)O[C@@H](CNC(=O)[C@H](C)[NH+]2CCOCC2)C4)s1

>  <Set>  (631) 
G2 inactive

>  <Set_type>  (631) 
Train

>  <MW>  (631) 
465.6

>  <HBD>  (631) 
2

>  <HBA>  (631) 
4

>  <NRB>  (631) 
6

>  <NR>  (631) 
5

>  <NAR>  (631) 
3

>  <PSA>  (631) 
69.07

>  <Standard Type>  (631) 
nan

>  <Standard Relation>  (631) 
nan

>  <Standard Units>  (631) 
nan

>  <Standard Value>  (631) 
nan

>  <Assay ChEMBL ID>  (631) 
nan

>  <Assay Description>  (631) 
nan

>  <BAO Label>  (631) 
nan

$$$$

     RDKit          2D

 31 34  0  0  0  0  0  0  0  0999 V2000
   -3.0000   -2.5981    0.0000 C   0  0  0  0  0  0  0  0  0  0  0  0
   -1.5000   -2.5981    0.0000 C   0  0  0  0  0  0  0  0  0  0  0  0
   -0.7500   -3.8971    0.0000 N   0  0  0  0  0  0  0  0  0  0  0  0
    0.7500   -3.8971    0.0000 C   0  0  0  0  0  0  0  0  0  0  0  0
    1.5000   -5.1962    0.0000 N   0  0  0  0  0  0  0  0  0  0  0  0
    2.9958   -5.0841    0.0000 C   0  0  0  0  0  0  0  0  0  0  0  0
    4.0161   -6.1836    0.0000 C   0  0  0  0  0  0  0  0  0  0  0  0
    3.7925   -7.6669    0.0000 C   0  0  0  0  0  0  0  0  0  0  0  0
    2.4935   -8.4169    0.0000 C   0  0  0  0  0  0  0  0  0  0  0  0
    2.6056   -9.9127    0.0000 N   0  0  0  0  0  4  0  0  0  0  0  0
    1.3662  -10.7577    0.0000 C   0  0  0  0  0  0  0  0  0  0  0  0
    1.4783  -12.2535    0.0000 C   0  0  0  0  0  0  0  0  0  0  0  0
    0.0147  -10.1068    0.0000 C   0  0  0  0  0  0  0  0  0  0  0  0
   -1.2246  -10.9518    0.0000 C   0  0  0  0  0  0  0  0  0  0  0  0
   -1.2695  -12.4512    0.0000 C   0  0  0  0  0  0  0  0  0  0  0  0
   -2.7093  -12.8718    0.0000 C   0  0  0  0  0  0  0  0  0  0  0  0
   -3.5543  -11.6324    0.0000 S   0  0  0  0  0  0  0  0  0  0  0  0
   -2.6367  -10.4458    0.0000 C   0  0  0  0  0  0  0  0  0  0  0  0
    1.0972   -7.8689    0.0000 C   0  0  0  0  0  0  0  0  0  0  0  0
    0.6550   -6.4355    0.0000 C   0  0  0  0  0  0  0  0  0  0  0  0
    1.5000   -2.5981    0.0000 N   0  0  0  0  0  0  0  0  0  0  0  0
    0.7500   -1.2990    0.0000 C   0  0  0  0  0  0  0  0  0  0  0  0
    1.5000    0.0000    0.0000 C   0  0  0  0  0  0  0  0  0  0  0  0
    0.7500    1.2990    0.0000 C   0  0  0  0  0  0  0  0  0  0  0  0
    1.5000    2.5981    0.0000 S   0  0  0  0  0  0  0  0  0  0  0  0
    2.2500    3.8971    0.0000 C   0  0  0  0  0  0  0  0  0  0  0  0
    0.2010    3.3481    0.0000 O   0  0  0  0  0  0  0  0  0  0  0  0
    2.7990    1.8481    0.0000 O   0  0  0  0  0  0  0  0  0  0  0  0
   -0.7500    1.2990    0.0000 C   0  0  0  0  0  0  0  0  0  0  0  0
   -1.5000    0.0000    0.0000 C   0  0  0  0  0  0  0  0  0  0  0  0
   -0.7500   -1.2990    0.0000 C   0  0  0  0  0  0  0  0  0  0  0  0
  1  2  1  0
  2  3  2  0
  3  4  1  0
  4  5  1  0
  5  6  1  0
  6  7  1  0
  7  8  1  0
  8  9  1  0
  9 10  1  1
 10 11  1  0
 11 12  1  1
 11 13  1  0
 13 14  1  0
 14 15  1  0
 15 16  2  0
 16 17  1  0
 17 18  1  0
  9 19  1  0
 19 20  1  0
  4 21  2  0
 21 22  1  0
 22 23  2  0
 23 24  1  0
 24 25  1  0
 25 26  1  0
 25 27  2  0
 25 28  2  0
 24 29  2  0
 29 30  1  0
 30 31  2  0
 31  2  1  0
 20  5  1  0
 31 22  1  0
 18 14  2  0
M  CHG  1  10   1
M  END
>  <Compound_ID>  (632) 
C12451236

>  <Active>  (632) 
0.0

>  <Smiles>  (632) 
Cc1nc(N2CCC[C@@H]([NH2+][C@@H](C)Cc3ccsc3)CC2)nc2cc(S(C)(=O)=O)ccc12

>  <canonical_smi>  (632) 
Cc1nc(N2CCC[C@@H]([NH2+][C@@H](C)Cc3ccsc3)CC2)nc2cc(S(C)(=O)=O)ccc12

>  <Set>  (632) 
G2 inactive

>  <Set_type>  (632) 
Train

>  <MW>  (632) 
459.66

>  <HBD>  (632) 
1

>  <HBA>  (632) 
5

>  <NRB>  (632) 
6

>  <NR>  (632) 
4

>  <NAR>  (632) 
3

>  <PSA>  (632) 
79.77

>  <Standard Type>  (632) 
nan

>  <Standard Relation>  (632) 
nan

>  <Standard Units>  (632) 
nan

>  <Standard Value>  (632) 
nan

>  <Assay ChEMBL ID>  (632) 
nan

>  <Assay Description>  (632) 
nan

>  <BAO Label>  (632) 
nan

$$$$

     RDKit          2D

 24 27  0  0  0  0  0  0  0  0999 V2000
    3.7500   -1.2990    0.0000 C   0  0  0  0  0  0  0  0  0  0  0  0
    3.0000    0.0000    0.0000 O   0  0  0  0  0  0  0  0  0  0  0  0
    1.5000    0.0000    0.0000 C   0  0  0  0  0  0  0  0  0  0  0  0
    0.7500   -1.2990    0.0000 C   0  0  0  0  0  0  0  0  0  0  0  0
   -0.7500   -1.2990    0.0000 C   0  0  0  0  0  0  0  0  0  0  0  0
   -1.5000    0.0000    0.0000 C   0  0  0  0  0  0  0  0  0  0  0  0
   -0.7500    1.2990    0.0000 C   0  0  0  0  0  0  0  0  0  0  0  0
    0.7500    1.2990    0.0000 C   0  0  0  0  0  0  0  0  0  0  0  0
    1.5000    2.5981    0.0000 O   0  0  0  0  0  0  0  0  0  0  0  0
    0.7500    3.8971    0.0000 C   0  0  0  0  0  0  0  0  0  0  0  0
    1.5000    5.1962    0.0000 C   0  0  0  0  0  0  0  0  0  0  0  0
   -0.7500    3.8971    0.0000 C   0  0  0  0  0  0  0  0  0  0  0  0
   -0.9697    4.6634    0.0000 C   0  0  0  0  0  0  0  0  0  0  0  0
   -1.5000    2.5981    0.0000 C   0  0  0  0  0  0  0  0  0  0  0  0
   -2.2500    3.8971    0.0000 N   0  0  0  0  0  0  0  0  0  0  0  0
   -1.5000    5.1962    0.0000 C   0  0  0  0  0  0  0  0  0  0  0  0
   -2.2500    6.4952    0.0000 S   0  0  0  0  0  0  0  0  0  0  0  0
    0.0000    5.1962    0.0000 N   0  0  0  0  0  0  0  0  0  0  0  0
    0.7500    6.4952    0.0000 C   0  0  0  0  0  0  0  0  0  0  0  0
    2.2500    6.4952    0.0000 C   0  0  0  0  0  0  0  0  0  0  0  0
    3.0000    7.7942    0.0000 C   0  0  0  0  0  0  0  0  0  0  0  0
    2.2500    9.0933    0.0000 C   0  0  0  0  0  0  0  0  0  0  0  0
    0.7500    9.0933    0.0000 C   0  0  0  0  0  0  0  0  0  0  0  0
    0.0000    7.7942    0.0000 C   0  0  0  0  0  0  0  0  0  0  0  0
  1  2  1  0
  2  3  1  0
  3  4  2  0
  4  5  1  0
  5  6  2  0
  6  7  1  0
  7  8  2  0
  8  9  1  0
  9 10  1  0
 10 11  1  6
 10 12  1  0
 12 13  1  1
 12 14  1  0
 14 15  1  1
 15 16  1  0
 16 17  2  0
 16 18  1  0
 18 19  1  0
 19 20  2  0
 20 21  1  0
 21 22  2  0
 22 23  1  0
 23 24  2  0
  8  3  1  0
 18 10  1  0
 24 19  1  0
 14  7  1  0
M  END
>  <Compound_ID>  (633) 
C04905211

>  <Active>  (633) 
0.0

>  <Smiles>  (633) 
COc1cccc2c1O[C@@]1(C)[C@H](C)[C@@H]2NC(=S)N1c1ccccc1

>  <canonical_smi>  (633) 
COc1cccc2c1O[C@@]1(C)[C@H](C)[C@@H]2NC(=S)N1c1ccccc1

>  <Set>  (633) 
G2 inactive

>  <Set_type>  (633) 
Train

>  <MW>  (633) 
340.45

>  <HBD>  (633) 
1

>  <HBA>  (633) 
5

>  <NRB>  (633) 
2

>  <NR>  (633) 
4

>  <NAR>  (633) 
2

>  <PSA>  (633) 
33.73

>  <Standard Type>  (633) 
nan

>  <Standard Relation>  (633) 
nan

>  <Standard Units>  (633) 
nan

>  <Standard Value>  (633) 
nan

>  <Assay ChEMBL ID>  (633) 
nan

>  <Assay Description>  (633) 
nan

>  <BAO Label>  (633) 
nan

$$$$

     RDKit          2D

 22 25  0  0  0  0  0  0  0  0999 V2000
   -3.5736    1.2902    0.0000 O   0  0  0  0  0  0  0  0  0  0  0  0
   -2.1470    1.7537    0.0000 C   0  0  0  0  0  0  0  0  0  0  0  0
   -1.8351    3.2209    0.0000 N   0  0  0  0  0  0  0  0  0  0  0  0
   -0.4086    3.6844    0.0000 C   0  0  0  0  0  0  0  0  0  0  0  0
   -0.0967    5.1517    0.0000 C   0  0  0  0  0  0  0  0  0  0  0  0
    1.3299    5.6152    0.0000 S   0  0  0  0  0  0  0  0  0  0  0  0
    1.6418    7.0824    0.0000 C   0  0  0  0  0  0  0  0  0  0  0  0
    3.0121    7.6925    0.0000 N   0  0  0  0  0  0  0  0  0  0  0  0
    2.8553    9.1843    0.0000 C   0  0  0  0  0  0  0  0  0  0  0  0
    3.8590   10.2990    0.0000 C   0  0  0  0  0  0  0  0  0  0  0  0
    3.3955   11.7256    0.0000 C   0  0  0  0  0  0  0  0  0  0  0  0
    1.9282   12.0375    0.0000 C   0  0  0  0  0  0  0  0  0  0  0  0
    1.4647   13.4641    0.0000 Cl  0  0  0  0  0  0  0  0  0  0  0  0
    0.9245   10.9228    0.0000 C   0  0  0  0  0  0  0  0  0  0  0  0
    1.3881    9.4962    0.0000 C   0  0  0  0  0  0  0  0  0  0  0  0
    0.6381    8.1971    0.0000 N   0  0  0  0  0  0  0  0  0  0  0  0
    0.7062    2.6807    0.0000 N   0  0  0  0  0  0  0  0  0  0  0  0
    0.3943    1.2135    0.0000 C   0  0  0  0  0  0  0  0  0  0  0  0
    1.2760    0.0000    0.0000 C   0  0  0  0  0  0  0  0  0  0  0  0
    0.3943   -1.2135    0.0000 C   0  0  0  0  0  0  0  0  0  0  0  0
   -1.0323   -0.7500    0.0000 S   0  0  0  0  0  0  0  0  0  0  0  0
   -1.0323    0.7500    0.0000 C   0  0  0  0  0  0  0  0  0  0  0  0
  1  2  2  0
  2  3  1  0
  3  4  1  0
  4  5  1  0
  5  6  1  0
  6  7  1  0
  7  8  2  0
  8  9  1  0
  9 10  2  0
 10 11  1  0
 11 12  2  0
 12 13  1  0
 12 14  1  0
 14 15  2  0
 15 16  1  0
  4 17  2  0
 17 18  1  0
 18 19  1  0
 19 20  2  0
 20 21  1  0
 21 22  1  0
 22  2  1  0
 16  7  1  0
 22 18  2  0
 15  9  1  0
M  END
>  <Compound_ID>  (634) 
C05173947

>  <Active>  (634) 
0.0

>  <Smiles>  (634) 
O=c1[nH]c(CSc2nc3ccc(Cl)cc3[nH]2)nc2ccsc12

>  <canonical_smi>  (634) 
O=c1[nH]c(CSc2nc3ccc(Cl)cc3[nH]2)nc2ccsc12

>  <Set>  (634) 
G2 inactive

>  <Set_type>  (634) 
Train

>  <MW>  (634) 
348.84

>  <HBD>  (634) 
2

>  <HBA>  (634) 
4

>  <NRB>  (634) 
3

>  <NR>  (634) 
4

>  <NAR>  (634) 
4

>  <PSA>  (634) 
74.43

>  <Standard Type>  (634) 
nan

>  <Standard Relation>  (634) 
nan

>  <Standard Units>  (634) 
nan

>  <Standard Value>  (634) 
nan

>  <Assay ChEMBL ID>  (634) 
nan

>  <Assay Description>  (634) 
nan

>  <BAO Label>  (634) 
nan

$$$$

     RDKit          2D

 22 25  0  0  0  0  0  0  0  0999 V2000
   -6.9199   -8.0368    0.0000 C   0  0  0  0  0  0  0  0  0  0  0  0
   -6.3097   -6.6665    0.0000 C   0  0  0  0  0  0  0  0  0  0  0  0
   -7.1914   -5.4530    0.0000 C   0  0  0  0  0  0  0  0  0  0  0  0
   -4.8180   -6.5097    0.0000 S   0  0  0  0  0  0  0  0  0  0  0  0
   -4.2079   -5.1394    0.0000 C   0  0  0  0  0  0  0  0  0  0  0  0
   -4.9579   -3.8403    0.0000 N   0  0  0  0  0  0  0  0  0  0  0  0
   -3.9542   -2.7256    0.0000 N   0  0  0  0  0  0  0  0  0  0  0  0
   -2.5838   -3.3357    0.0000 C   0  0  0  0  0  0  0  0  0  0  0  0
   -1.2135   -2.7256    0.0000 C   0  0  0  0  0  0  0  0  0  0  0  0
   -0.7500   -1.2990    0.0000 C   0  0  0  0  0  0  0  0  0  0  0  0
    0.7500   -1.2990    0.0000 C   0  0  0  0  0  0  0  0  0  0  0  0
    1.2135   -2.7256    0.0000 S   0  0  0  0  0  0  0  0  0  0  0  0
   -0.0000   -3.6073    0.0000 C   0  0  0  0  0  0  0  0  0  0  0  0
   -0.1568   -5.0991    0.0000 N   0  0  0  0  0  0  0  0  0  0  0  0
   -1.5271   -5.7092    0.0000 C   0  0  0  0  0  0  0  0  0  0  0  0
   -1.6839   -7.2010    0.0000 N   0  0  0  0  0  0  0  0  0  0  0  0
   -2.7406   -4.8275    0.0000 N   0  0  0  0  0  0  0  0  0  0  0  0
    1.5000    0.0000    0.0000 C   0  0  0  0  0  0  0  0  0  0  0  0
    0.7500    1.2990    0.0000 C   0  0  0  0  0  0  0  0  0  0  0  0
   -0.7500    1.2990    0.0000 C   0  0  0  0  0  0  0  0  0  0  0  0
   -1.5000    2.5981    0.0000 C   0  0  0  0  0  0  0  0  0  0  0  0
   -1.5000    0.0000    0.0000 C   0  0  0  0  0  0  0  0  0  0  0  0
  1  2  1  0
  2  3  1  0
  2  4  1  0
  4  5  1  0
  5  6  2  0
  6  7  1  0
  7  8  2  0
  8  9  1  0
  9 10  1  0
 10 11  2  0
 11 12  1  0
 12 13  1  0
 13 14  1  0
 14 15  2  0
 15 16  1  0
 15 17  1  0
 11 18  1  0
 18 19  1  0
 19 20  1  0
 20 21  1  1
 20 22  1  0
 17  5  1  0
 17  8  1  0
 13  9  2  0
 22 10  1  0
M  END
>  <Compound_ID>  (635) 
C16845684

>  <Active>  (635) 
0.0

>  <Smiles>  (635) 
CC(C)Sc1nnc2c3c4c(sc3nc(N)n12)CC[C@H](C)C4

>  <canonical_smi>  (635) 
CC(C)Sc1nnc2c3c4c(sc3nc(N)n12)CC[C@H](C)C4

>  <Set>  (635) 
G2 inactive

>  <Set_type>  (635) 
Train

>  <MW>  (635) 
333.49

>  <HBD>  (635) 
1

>  <HBA>  (635) 
5

>  <NRB>  (635) 
2

>  <NR>  (635) 
4

>  <NAR>  (635) 
3

>  <PSA>  (635) 
69.1

>  <Standard Type>  (635) 
nan

>  <Standard Relation>  (635) 
nan

>  <Standard Units>  (635) 
nan

>  <Standard Value>  (635) 
nan

>  <Assay ChEMBL ID>  (635) 
nan

>  <Assay Description>  (635) 
nan

>  <BAO Label>  (635) 
nan

$$$$

     RDKit          2D

 24 27  0  0  0  0  0  0  0  0999 V2000
   -1.5809   11.6105    0.0000 C   0  0  0  0  0  0  0  0  0  0  0  0
   -0.9301   10.2590    0.0000 C   0  0  0  0  0  0  0  0  0  0  0  0
    0.5657   10.1469    0.0000 C   0  0  0  0  0  0  0  0  0  0  0  0
    1.2165    8.7955    0.0000 C   0  0  0  0  0  0  0  0  0  0  0  0
    2.7123    8.6834    0.0000 C   0  0  0  0  0  0  0  0  0  0  0  0
    0.3716    7.5561    0.0000 C   0  0  0  0  0  0  0  0  0  0  0  0
    1.0224    6.2047    0.0000 C   0  0  0  0  0  0  0  0  0  0  0  0
    0.1774    4.9653    0.0000 N   0  0  0  0  0  0  0  0  0  0  0  0
    0.8282    3.6139    0.0000 C   0  0  0  0  0  0  0  0  0  0  0  0
    2.3240    3.5018    0.0000 O   0  0  0  0  0  0  0  0  0  0  0  0
   -0.4113    1.7963    0.0000 N   0  0  0  0  0  0  0  0  0  0  0  0
    0.3391    0.4970    0.0000 C   0  0  0  0  0  0  0  0  0  0  0  0
    0.7500   -1.2990    0.0000 C   0  0  0  0  0  0  0  0  0  0  0  0
    1.5000    0.0000    0.0000 C   0  0  0  0  0  0  0  0  0  0  0  0
    0.7500    1.2990    0.0000 C   0  0  0  0  0  0  0  0  0  0  0  0
   -0.0000    2.5981    0.0000 C   0  0  0  0  0  0  0  0  0  0  0  0
   -1.5000    2.5981    0.0000 C   0  0  0  0  0  0  0  0  0  0  0  0
   -2.2500    1.2990    0.0000 C   0  0  0  0  0  0  0  0  0  0  0  0
   -1.5000    0.0000    0.0000 C   0  0  0  0  0  0  0  0  0  0  0  0
   -0.7500   -1.2990    0.0000 C   0  0  0  0  0  0  0  0  0  0  0  0
   -0.7500    1.2990    0.0000 C   0  0  0  0  0  0  0  0  0  0  0  0
   -1.1243    7.6682    0.0000 C   0  0  0  0  0  0  0  0  0  0  0  0
   -1.9692    6.4289    0.0000 O   0  0  0  0  0  0  0  0  0  0  0  0
   -1.7751    9.0197    0.0000 N   0  0  0  0  0  0  0  0  0  0  0  0
  1  2  1  0
  2  3  2  0
  3  4  1  0
  4  5  1  0
  4  6  2  0
  6  7  1  0
  7  8  1  0
  8  9  1  0
  9 10  2  0
  9 11  1  0
 11 12  1  0
 12 13  1  0
 13 14  1  0
 15 14  1  1
 15 16  1  0
 16 17  1  0
 17 18  1  0
 19 18  1  1
 19 20  1  0
 19 21  1  0
  6 22  1  0
 22 23  2  0
 22 24  1  0
 24  2  1  0
 17 11  1  0
 20 13  1  0
 21 15  1  0
M  END
>  <Compound_ID>  (636) 
C62476436

>  <Active>  (636) 
0.0

>  <Smiles>  (636) 
Cc1cc(C)c(CNC(=O)N2CC3C[C@@H]4CC2C[C@H](C3)C4)c(=O)[nH]1

>  <canonical_smi>  (636) 
Cc1cc(C)c(CNC(=O)N2CC3C[C@H]4CC2C[C@@H](C3)C4)c(=O)[nH]1

>  <Set>  (636) 
G2 inactive

>  <Set_type>  (636) 
Train

>  <MW>  (636) 
329.44

>  <HBD>  (636) 
2

>  <HBA>  (636) 
2

>  <NRB>  (636) 
2

>  <NR>  (636) 
5

>  <NAR>  (636) 
1

>  <PSA>  (636) 
65.2

>  <Standard Type>  (636) 
nan

>  <Standard Relation>  (636) 
nan

>  <Standard Units>  (636) 
nan

>  <Standard Value>  (636) 
nan

>  <Assay ChEMBL ID>  (636) 
nan

>  <Assay Description>  (636) 
nan

>  <BAO Label>  (636) 
nan

$$$$

     RDKit          2D

 21 23  0  0  0  0  0  0  0  0999 V2000
    3.0000   -2.5981    0.0000 O   0  0  0  0  0  0  0  0  0  0  0  0
    1.5000   -2.5981    0.0000 C   0  0  0  0  0  0  0  0  0  0  0  0
    0.7500   -3.8971    0.0000 N   0  0  0  0  0  0  0  0  0  0  0  0
    1.5000   -5.1962    0.0000 C   0  0  0  0  0  0  0  0  0  0  0  0
    2.9918   -5.3529    0.0000 N   0  0  0  0  0  0  0  0  0  0  0  0
    3.3037   -6.8202    0.0000 N   0  0  0  0  0  0  0  0  0  0  0  0
    2.0046   -7.5702    0.0000 C   0  0  0  0  0  0  0  0  0  0  0  0
    1.8478   -9.0619    0.0000 C   0  0  0  0  0  0  0  0  0  0  0  0
    2.9625  -10.0656    0.0000 C   0  0  0  0  0  0  0  0  0  0  0  0
    2.3524  -11.4360    0.0000 C   0  0  0  0  0  0  0  0  0  0  0  0
    3.1024  -12.7350    0.0000 Cl  0  0  0  0  0  0  0  0  0  0  0  0
    0.8606  -11.2792    0.0000 S   0  0  0  0  0  0  0  0  0  0  0  0
    0.5488   -9.8119    0.0000 C   0  0  0  0  0  0  0  0  0  0  0  0
   -0.8215   -9.2018    0.0000 Cl  0  0  0  0  0  0  0  0  0  0  0  0
    0.8899   -6.5665    0.0000 O   0  0  0  0  0  0  0  0  0  0  0  0
    0.7500   -1.2990    0.0000 C   0  0  0  0  0  0  0  0  0  0  0  0
    1.5000    0.0000    0.0000 C   0  0  0  0  0  0  0  0  0  0  0  0
    0.7500    1.2990    0.0000 C   0  0  0  0  0  0  0  0  0  0  0  0
   -0.7500    1.2990    0.0000 C   0  0  0  0  0  0  0  0  0  0  0  0
   -1.5000    0.0000    0.0000 C   0  0  0  0  0  0  0  0  0  0  0  0
   -0.7500   -1.2990    0.0000 C   0  0  0  0  0  0  0  0  0  0  0  0
  1  2  2  0
  2  3  1  0
  3  4  1  0
  4  5  2  0
  5  6  1  0
  6  7  2  0
  7  8  1  0
  8  9  1  0
  9 10  2  0
 10 11  1  0
 10 12  1  0
 12 13  1  0
 13 14  1  0
  7 15  1  0
  2 16  1  0
 16 17  1  0
 17 18  1  0
 18 19  1  0
 19 20  1  0
 20 21  1  0
 15  4  1  0
 21 16  1  0
 13  8  2  0
M  END
>  <Compound_ID>  (637) 
C36629971

>  <Active>  (637) 
0.0

>  <Smiles>  (637) 
O=C(Nc1nnc(-c2cc(Cl)sc2Cl)o1)C1CCCCC1

>  <canonical_smi>  (637) 
O=C(Nc1nnc(-c2cc(Cl)sc2Cl)o1)C1CCCCC1

>  <Set>  (637) 
G2 inactive

>  <Set_type>  (637) 
Train

>  <MW>  (637) 
346.24

>  <HBD>  (637) 
1

>  <HBA>  (637) 
4

>  <NRB>  (637) 
3

>  <NR>  (637) 
3

>  <NAR>  (637) 
2

>  <PSA>  (637) 
68.02

>  <Standard Type>  (637) 
nan

>  <Standard Relation>  (637) 
nan

>  <Standard Units>  (637) 
nan

>  <Standard Value>  (637) 
nan

>  <Assay ChEMBL ID>  (637) 
nan

>  <Assay Description>  (637) 
nan

>  <BAO Label>  (637) 
nan

$$$$

     RDKit          2D

 28 32  0  0  0  0  0  0  0  0999 V2000
   -2.0766    2.0164    0.0000 C   0  0  0  0  0  0  0  0  0  0  0  0
   -0.6094    2.3282    0.0000 C   0  0  0  0  0  0  0  0  0  0  0  0
   -0.1459    3.7548    0.0000 C   0  0  0  0  0  0  0  0  0  0  0  0
    1.3213    4.0667    0.0000 C   0  0  0  0  0  0  0  0  0  0  0  0
    2.3250    2.9520    0.0000 C   0  0  0  0  0  0  0  0  0  0  0  0
    3.7923    3.2638    0.0000 C   0  0  0  0  0  0  0  0  0  0  0  0
    5.0643    4.0587    0.0000 C   0  0  0  0  0  0  0  0  0  0  0  0
    3.2304    4.6546    0.0000 C   0  0  0  0  0  0  0  0  0  0  0  0
    4.7960    2.1491    0.0000 C   0  0  0  0  0  0  0  0  0  0  0  0
    6.2632    2.4610    0.0000 O   0  0  0  0  0  0  0  0  0  0  0  0
    4.3324    0.7225    0.0000 C   0  0  0  0  0  0  0  0  0  0  0  0
    2.8652    0.4107    0.0000 C   0  0  0  0  0  0  0  0  0  0  0  0
    1.8615    1.5254    0.0000 C   0  0  0  0  0  0  0  0  0  0  0  0
    3.3287    1.8373    0.0000 C   0  0  0  0  0  0  0  0  0  0  0  0
    0.3943    1.2135    0.0000 C   0  0  0  0  0  0  0  0  0  0  0  0
    1.2760    0.0000    0.0000 C   0  0  0  0  0  0  0  0  0  0  0  0
    0.3943   -1.2135    0.0000 C   0  0  0  0  0  0  0  0  0  0  0  0
    0.7062   -2.6807    0.0000 C   0  0  0  0  0  0  0  0  0  0  0  0
    2.1328   -3.1443    0.0000 O   0  0  0  0  0  0  0  0  0  0  0  0
   -0.4086   -3.6844    0.0000 C   0  0  0  0  0  0  0  0  0  0  0  0
   -1.8351   -3.2209    0.0000 C   0  0  0  0  0  0  0  0  0  0  0  0
   -2.1470   -1.7537    0.0000 C   0  0  0  0  0  0  0  0  0  0  0  0
   -1.0323   -0.7500    0.0000 C   0  0  0  0  0  0  0  0  0  0  0  0
   -1.0323    0.7500    0.0000 O   0  0  0  0  0  0  0  0  0  0  0  0
   -3.6388   -1.5969    0.0000 C   0  0  0  0  0  0  0  0  0  0  0  0
   -4.2489   -2.9672    0.0000 O   0  0  0  0  0  0  0  0  0  0  0  0
   -3.1342   -3.9709    0.0000 C   0  0  0  0  0  0  0  0  0  0  0  0
   -3.2910   -5.4627    0.0000 O   0  0  0  0  0  0  0  0  0  0  0  0
  2  1  1  6
  2  3  1  0
  3  4  1  0
  5  4  1  6
  5  6  1  0
  6  7  1  0
  6  8  1  0
  6  9  1  0
  9 10  1  6
  9 11  1  0
 11 12  1  0
 12 13  1  0
 13 14  1  6
 13 15  1  0
 15 16  1  6
 16 17  1  0
 17 18  2  0
 18 19  1  0
 18 20  1  0
 20 21  2  0
 21 22  1  0
 22 23  2  0
 23 24  1  0
 22 25  1  0
 25 26  1  0
 26 27  1  0
 27 28  1  6
 15  2  1  0
 23 17  1  0
 13  5  1  0
 24 15  1  0
 27 21  1  0
M  END
>  <Compound_ID>  (638) 
C43509596

>  <Active>  (638) 
0.0

>  <Smiles>  (638) 
C[C@@H]1CC[C@@H]2C(C)(C)[C@H](O)CC[C@@]2(C)[C@]12Cc1c(O)cc3c(c1O2)CO[C@H]3O

>  <canonical_smi>  (638) 
C[C@@H]1CC[C@@H]2C(C)(C)[C@H](O)CC[C@@]2(C)[C@]12Cc1c(O)cc3c(c1O2)CO[C@H]3O

>  <Set>  (638) 
G2 inactive

>  <Set_type>  (638) 
Train

>  <MW>  (638) 
388.5

>  <HBD>  (638) 
3

>  <HBA>  (638) 
5

>  <NRB>  (638) 
0

>  <NR>  (638) 
5

>  <NAR>  (638) 
1

>  <PSA>  (638) 
79.15

>  <Standard Type>  (638) 
nan

>  <Standard Relation>  (638) 
nan

>  <Standard Units>  (638) 
nan

>  <Standard Value>  (638) 
nan

>  <Assay ChEMBL ID>  (638) 
nan

>  <Assay Description>  (638) 
nan

>  <BAO Label>  (638) 
nan

$$$$

     RDKit          2D

 30 33  0  0  0  0  0  0  0  0999 V2000
   -6.9199   -4.5797    0.0000 C   0  0  0  0  0  0  0  0  0  0  0  0
   -5.4933   -4.1162    0.0000 C   0  0  0  0  0  0  0  0  0  0  0  0
   -5.1814   -2.6490    0.0000 C   0  0  0  0  0  0  0  0  0  0  0  0
   -3.7548   -2.1855    0.0000 C   0  0  0  0  0  0  0  0  0  0  0  0
   -2.6401   -3.1891    0.0000 C   0  0  0  0  0  0  0  0  0  0  0  0
   -1.2135   -2.7256    0.0000 C   0  0  0  0  0  0  0  0  0  0  0  0
   -0.0000   -3.6073    0.0000 C   0  0  0  0  0  0  0  0  0  0  0  0
    0.0000   -5.1073    0.0000 C   0  0  0  0  0  0  0  0  0  0  0  0
    1.2135   -2.7256    0.0000 S   0  0  0  0  0  0  0  0  0  0  0  0
    0.7500   -1.2990    0.0000 C   0  0  0  0  0  0  0  0  0  0  0  0
    1.5000    0.0000    0.0000 N   0  0  0  0  0  0  0  0  0  0  0  0
    0.7500    1.2990    0.0000 C   0  0  0  0  0  0  0  0  0  0  0  0
    1.5000    2.5981    0.0000 C   0  0  0  0  0  0  0  0  0  0  0  0
    3.0000    2.5981    0.0000 C   0  0  0  0  0  0  0  0  0  0  0  0
    3.7500    3.8971    0.0000 C   0  0  0  0  0  0  0  0  0  0  0  0
    3.0000    5.1962    0.0000 C   0  0  0  0  0  0  0  0  0  0  0  0
    3.7500    6.4952    0.0000 S   0  0  0  0  0  0  0  0  0  0  0  0
    5.0490    5.7452    0.0000 O   0  0  0  0  0  0  0  0  0  0  0  0
    2.4510    7.2452    0.0000 O   0  0  0  0  0  0  0  0  0  0  0  0
    4.5000    7.7942    0.0000 N   0  0  0  0  0  0  0  0  0  0  0  0
    3.7500    9.0933    0.0000 C   0  0  0  0  0  0  0  0  0  0  0  0
    6.0000    7.7942    0.0000 C   0  0  0  0  0  0  0  0  0  0  0  0
    1.5000    5.1962    0.0000 C   0  0  0  0  0  0  0  0  0  0  0  0
    0.7500    3.8971    0.0000 C   0  0  0  0  0  0  0  0  0  0  0  0
   -0.7500    1.2990    0.0000 N   0  0  0  0  0  0  0  0  0  0  0  0
   -1.5000    0.0000    0.0000 C   0  0  0  0  0  0  0  0  0  0  0  0
   -3.0000    0.0000    0.0000 O   0  0  0  0  0  0  0  0  0  0  0  0
   -0.7500   -1.2990    0.0000 C   0  0  0  0  0  0  0  0  0  0  0  0
   -2.9520   -4.6564    0.0000 C   0  0  0  0  0  0  0  0  0  0  0  0
   -4.3786   -5.1199    0.0000 C   0  0  0  0  0  0  0  0  0  0  0  0
  1  2  1  0
  2  3  2  0
  3  4  1  0
  4  5  2  0
  5  6  1  0
  6  7  2  0
  7  8  1  0
  7  9  1  0
  9 10  1  0
 10 11  1  0
 11 12  2  0
 12 13  1  0
 13 14  2  0
 14 15  1  0
 15 16  2  0
 16 17  1  0
 17 18  2  0
 17 19  2  0
 17 20  1  0
 20 21  1  0
 20 22  1  0
 16 23  1  0
 23 24  2  0
 12 25  1  0
 25 26  1  0
 26 27  2  0
 26 28  1  0
  5 29  1  0
 29 30  2  0
 30  2  1  0
 28  6  1  0
 28 10  2  0
 24 13  1  0
M  END
>  <Compound_ID>  (639) 
C59590590

>  <Active>  (639) 
0.0

>  <Smiles>  (639) 
Cc1ccc(-c2c(C)sc3nc(-c4ccc(S(=O)(=O)N(C)C)cc4)[nH]c(=O)c23)cc1

>  <canonical_smi>  (639) 
Cc1ccc(-c2c(C)sc3nc(-c4ccc(S(=O)(=O)N(C)C)cc4)[nH]c(=O)c23)cc1

>  <Set>  (639) 
G2 inactive

>  <Set_type>  (639) 
Train

>  <MW>  (639) 
439.56

>  <HBD>  (639) 
1

>  <HBA>  (639) 
4

>  <NRB>  (639) 
4

>  <NR>  (639) 
4

>  <NAR>  (639) 
4

>  <PSA>  (639) 
83.13

>  <Standard Type>  (639) 
nan

>  <Standard Relation>  (639) 
nan

>  <Standard Units>  (639) 
nan

>  <Standard Value>  (639) 
nan

>  <Assay ChEMBL ID>  (639) 
nan

>  <Assay Description>  (639) 
nan

>  <BAO Label>  (639) 
nan

$$$$

     RDKit          2D

 27 31  0  0  0  0  0  0  0  0999 V2000
   -2.2500   -3.8971    0.0000 O   0  0  0  0  0  0  0  0  0  0  0  0
   -1.5000   -5.1962    0.0000 C   0  0  0  0  0  0  0  0  0  0  0  0
   -0.0000   -5.1962    0.0000 N   0  0  0  0  0  0  0  0  0  0  0  0
    0.7500   -3.8971    0.0000 C   0  0  0  0  0  0  0  0  0  0  0  0
    2.2500   -3.8971    0.0000 N   0  0  0  0  0  0  0  0  0  0  0  0
    3.0000   -2.5981    0.0000 C   0  0  0  0  0  0  0  0  0  0  0  0
    2.2500   -1.2990    0.0000 C   0  0  0  0  0  0  0  0  0  0  0  0
    3.0000   -0.0000    0.0000 C   0  0  0  0  0  0  0  0  0  0  0  0
    4.5000   -0.0000    0.0000 C   0  0  0  0  0  0  0  0  0  0  0  0
    5.2500   -1.2990    0.0000 C   0  0  0  0  0  0  0  0  0  0  0  0
    4.5000   -2.5981    0.0000 C   0  0  0  0  0  0  0  0  0  0  0  0
    0.7500   -1.2990    0.0000 C   0  0  0  0  0  0  0  0  0  0  0  0
    1.5000    0.0000    0.0000 C   0  0  0  0  0  0  0  0  0  0  0  0
    0.7500    1.2990    0.0000 C   0  0  0  0  0  0  0  0  0  0  0  0
   -0.7500    1.2990    0.0000 C   0  0  0  0  0  0  0  0  0  0  0  0
   -1.5000    0.0000    0.0000 C   0  0  0  0  0  0  0  0  0  0  0  0
   -0.7500   -1.2990    0.0000 C   0  0  0  0  0  0  0  0  0  0  0  0
   -0.0000   -2.5981    0.0000 S   0  0  0  0  0  0  0  0  0  0  0  0
   -2.2500   -6.4952    0.0000 C   0  0  0  0  0  0  0  0  0  0  0  0
   -1.5000   -7.7942    0.0000 C   0  0  0  0  0  0  0  0  0  0  0  0
   -2.2500   -9.0933    0.0000 C   0  0  0  0  0  0  0  0  0  0  0  0
   -3.7500   -9.0933    0.0000 C   0  0  0  0  0  0  0  0  0  0  0  0
   -4.5000   -7.7942    0.0000 C   0  0  0  0  0  0  0  0  0  0  0  0
   -3.7500   -6.4952    0.0000 C   0  0  0  0  0  0  0  0  0  0  0  0
   -5.9672   -8.1061    0.0000 C   0  0  0  0  0  0  0  0  0  0  0  0
   -6.1240   -9.5979    0.0000 O   0  0  0  0  0  0  0  0  0  0  0  0
   -4.7537  -10.2080    0.0000 C   0  0  0  0  0  0  0  0  0  0  0  0
  1  2  2  0
  2  3  1  0
  3  4  1  0
  4  5  2  0
  5  6  1  0
  6  7  2  0
  7  8  1  0
  8  9  1  0
  9 10  1  0
 10 11  1  0
  7 12  1  0
 12 13  1  0
 13 14  1  0
 14 15  1  0
 15 16  1  0
 16 17  1  0
 12 18  1  0
  2 19  1  0
 19 20  2  0
 20 21  1  0
 21 22  2  0
 22 23  1  0
 23 24  2  0
 23 25  1  0
 25 26  1  0
 26 27  1  0
 18  4  1  0
 24 19  1  0
 11  6  1  0
 17 12  1  0
 27 22  1  0
M  END
>  <Compound_ID>  (640) 
C64386205

>  <Active>  (640) 
0.0

>  <Smiles>  (640) 
O=C(NC1=NC2=C(CCCC2)C2(CCCCC2)S1)c1ccc2c(c1)COC2

>  <canonical_smi>  (640) 
O=C(NC1=NC2=C(CCCC2)C2(CCCCC2)S1)c1ccc2c(c1)COC2

>  <Set>  (640) 
G2 inactive

>  <Set_type>  (640) 
Train

>  <MW>  (640) 
382.53

>  <HBD>  (640) 
1

>  <HBA>  (640) 
3

>  <NRB>  (640) 
1

>  <NR>  (640) 
5

>  <NAR>  (640) 
1

>  <PSA>  (640) 
50.69

>  <Standard Type>  (640) 
nan

>  <Standard Relation>  (640) 
nan

>  <Standard Units>  (640) 
nan

>  <Standard Value>  (640) 
nan

>  <Assay ChEMBL ID>  (640) 
nan

>  <Assay Description>  (640) 
nan

>  <BAO Label>  (640) 
nan

$$$$

     RDKit          2D

 26 29  0  0  0  0  0  0  0  0999 V2000
    0.7500   -6.4952    0.0000 C   0  0  0  0  0  0  0  0  0  0  0  0
   -0.7500   -6.4952    0.0000 C   0  0  0  0  0  0  0  0  0  0  0  0
   -1.5000   -7.7942    0.0000 C   0  0  0  0  0  0  0  0  0  0  0  0
   -0.7500   -9.0933    0.0000 C   0  0  0  0  0  0  0  0  0  0  0  0
   -1.5000  -10.3923    0.0000 C   0  0  0  0  0  0  0  0  0  0  0  0
   -3.0000  -10.3923    0.0000 C   0  0  0  0  0  0  0  0  0  0  0  0
   -3.7500   -9.0933    0.0000 C   0  0  0  0  0  0  0  0  0  0  0  0
   -3.0000   -7.7942    0.0000 C   0  0  0  0  0  0  0  0  0  0  0  0
   -1.5000   -5.1962    0.0000 C   0  0  0  0  0  0  0  0  0  0  0  0
   -3.0000   -5.1962    0.0000 C   0  0  0  0  0  0  0  0  0  0  0  0
   -3.7500   -6.4952    0.0000 C   0  0  0  0  0  0  0  0  0  0  0  0
   -4.5000   -7.7942    0.0000 N   0  0  0  0  0  0  0  0  0  0  0  0
   -3.7500   -3.8971    0.0000 C   0  0  0  0  0  0  0  0  0  0  0  0
   -5.2500   -3.8971    0.0000 N   0  0  0  0  0  0  0  0  0  0  0  0
   -3.0000   -2.5981    0.0000 O   0  0  0  0  0  0  0  0  0  0  0  0
   -1.5000   -2.5981    0.0000 C   0  0  0  0  0  0  0  0  0  0  0  0
   -0.7500   -3.8971    0.0000 C   0  0  0  0  0  0  0  0  0  0  0  0
    0.7500   -3.8971    0.0000 C   0  0  0  0  0  0  0  0  0  0  0  0
    1.5000   -5.1962    0.0000 O   0  0  0  0  0  0  0  0  0  0  0  0
    1.5000   -2.5981    0.0000 O   0  0  0  0  0  0  0  0  0  0  0  0
    0.7500   -1.2990    0.0000 C   0  0  0  0  0  0  0  0  0  0  0  0
    1.5000    0.0000    0.0000 C   0  0  0  0  0  0  0  0  0  0  0  0
    0.7500    1.2990    0.0000 C   0  0  0  0  0  0  0  0  0  0  0  0
   -0.7500    1.2990    0.0000 C   0  0  0  0  0  0  0  0  0  0  0  0
   -1.5000    0.0000    0.0000 C   0  0  0  0  0  0  0  0  0  0  0  0
   -0.7500   -1.2990    0.0000 C   0  0  0  0  0  0  0  0  0  0  0  0
  2  1  1  1
  2  3  1  0
  3  4  2  0
  4  5  1  0
  5  6  2  0
  6  7  1  0
  7  8  2  0
  2  9  1  0
  9 10  1  1
 10 11  1  0
 11 12  3  0
 10 13  2  0
 13 14  1  0
 13 15  1  0
 15 16  1  0
 16 17  2  0
 17 18  1  0
 18 19  2  0
 18 20  1  0
 20 21  1  0
 21 22  2  0
 22 23  1  0
 23 24  2  0
 24 25  1  0
 25 26  2  0
  8  3  1  0
 17  9  1  0
 26 21  1  0
 26 16  1  0
M  END
>  <Compound_ID>  (641) 
C00083354

>  <Active>  (641) 
0.0

>  <Smiles>  (641) 
C[C@@H](c1ccccc1)[C@H]1C(C#N)=C(N)Oc2c1c(=O)oc1ccccc21

>  <canonical_smi>  (641) 
C[C@@H](c1ccccc1)[C@H]1C(C#N)=C(N)Oc2c1c(=O)oc1ccccc21

>  <Set>  (641) 
G2 inactive

>  <Set_type>  (641) 
Train

>  <MW>  (641) 
344.37

>  <HBD>  (641) 
1

>  <HBA>  (641) 
5

>  <NRB>  (641) 
2

>  <NR>  (641) 
4

>  <NAR>  (641) 
3

>  <PSA>  (641) 
89.25

>  <Standard Type>  (641) 
nan

>  <Standard Relation>  (641) 
nan

>  <Standard Units>  (641) 
nan

>  <Standard Value>  (641) 
nan

>  <Assay ChEMBL ID>  (641) 
nan

>  <Assay Description>  (641) 
nan

>  <BAO Label>  (641) 
nan

$$$$

     RDKit          2D

 25 28  0  0  0  0  0  0  0  0999 V2000
    7.5000   -2.5981    0.0000 C   0  0  0  0  0  0  0  0  0  0  0  0
    6.0000   -2.5981    0.0000 C   0  0  0  0  0  0  0  0  0  0  0  0
    5.2500   -1.2990    0.0000 N   0  0  0  0  0  0  0  0  0  0  0  0
    6.0000    0.0000    0.0000 C   0  0  0  0  0  0  0  0  0  0  0  0
    7.5000   -0.0000    0.0000 C   0  0  0  0  0  0  0  0  0  0  0  0
    3.7500   -1.2990    0.0000 C   0  0  0  0  0  0  0  0  0  0  0  0
    3.0000   -2.5981    0.0000 O   0  0  0  0  0  0  0  0  0  0  0  0
    3.0000    0.0000    0.0000 N   0  0  0  0  0  0  0  0  0  0  0  0
    1.5000    0.0000    0.0000 C   0  0  0  0  0  0  0  0  0  0  0  0
    0.7500   -1.2990    0.0000 C   0  0  0  0  0  0  0  0  0  0  0  0
   -0.7500   -1.2990    0.0000 C   0  0  0  0  0  0  0  0  0  0  0  0
   -1.5000   -2.5981    0.0000 C   0  0  0  0  0  0  0  0  0  0  0  0
   -0.7500   -3.8971    0.0000 C   0  0  0  0  0  0  0  0  0  0  0  0
   -1.5000   -5.1962    0.0000 C   0  0  0  0  0  0  0  0  0  0  0  0
   -3.0000   -5.1962    0.0000 C   0  0  0  0  0  0  0  0  0  0  0  0
   -3.7500   -3.8971    0.0000 C   0  0  0  0  0  0  0  0  0  0  0  0
   -5.1766   -3.4336    0.0000 N   0  0  0  0  0  0  0  0  0  0  0  0
   -5.1766   -1.9336    0.0000 C   0  0  0  0  0  0  0  0  0  0  0  0
   -3.7500   -1.2990    0.0000 C   0  0  0  0  0  0  0  0  0  0  0  0
   -3.0000   -2.5981    0.0000 C   0  0  0  0  0  0  0  0  0  0  0  0
   -3.0000    0.0000    0.0000 N   0  0  0  0  0  0  0  0  0  0  0  0
   -3.7500    1.2990    0.0000 C   0  0  0  0  0  0  0  0  0  0  0  0
   -1.5000    0.0000    0.0000 C   0  0  0  0  0  0  0  0  0  0  0  0
   -0.7500    1.2990    0.0000 C   0  0  0  0  0  0  0  0  0  0  0  0
    0.7500    1.2990    0.0000 C   0  0  0  0  0  0  0  0  0  0  0  0
  1  2  1  0
  2  3  1  0
  3  4  1  0
  4  5  1  0
  3  6  1  0
  6  7  2  0
  6  8  1  0
  9  8  1  6
  9 10  1  0
 10 11  2  0
 11 12  1  0
 12 13  2  0
 13 14  1  0
 14 15  2  0
 15 16  1  0
 16 17  1  0
 17 18  1  0
 18 19  2  0
 19 20  1  0
 19 21  1  0
 21 22  1  0
 21 23  1  0
 23 24  1  6
 24 25  1  0
 25  9  1  0
 23 11  1  0
 20 12  1  0
 20 16  2  0
M  END
>  <Compound_ID>  (642) 
C21986231

>  <Active>  (642) 
0.0

>  <Smiles>  (642) 
CCN(CC)C(=O)N[C@@H]1C=C2c3cccc4[nH]cc(c34)N(C)[C@@H]2CC1

>  <canonical_smi>  (642) 
CCN(CC)C(=O)N[C@@H]1C=C2c3cccc4[nH]cc(c34)N(C)[C@@H]2CC1

>  <Set>  (642) 
G2 inactive

>  <Set_type>  (642) 
Train

>  <MW>  (642) 
338.46

>  <HBD>  (642) 
2

>  <HBA>  (642) 
2

>  <NRB>  (642) 
3

>  <NR>  (642) 
4

>  <NAR>  (642) 
2

>  <PSA>  (642) 
51.37

>  <Standard Type>  (642) 
nan

>  <Standard Relation>  (642) 
nan

>  <Standard Units>  (642) 
nan

>  <Standard Value>  (642) 
nan

>  <Assay ChEMBL ID>  (642) 
nan

>  <Assay Description>  (642) 
nan

>  <BAO Label>  (642) 
nan

$$$$

     RDKit          2D

 27 31  0  0  0  0  0  0  0  0999 V2000
   -3.1063   -6.7054    0.0000 C   0  0  0  0  0  0  0  0  0  0  0  0
   -1.6063   -6.7054    0.0000 C   0  0  0  0  0  0  0  0  0  0  0  0
   -0.8563   -5.4064    0.0000 C   0  0  0  0  0  0  0  0  0  0  0  0
    0.6437   -5.4064    0.0000 C   0  0  0  0  0  0  0  0  0  0  0  0
    1.5254   -6.6199    0.0000 N   0  0  0  0  0  0  0  0  0  0  0  0
    2.9520   -6.1564    0.0000 N   0  0  0  0  0  0  0  0  0  0  0  0
    2.9520   -4.6564    0.0000 C   0  0  0  0  0  0  0  0  0  0  0  0
    4.0667   -3.6527    0.0000 O   0  0  0  0  0  0  0  0  0  0  0  0
    3.7548   -2.1855    0.0000 C   0  0  0  0  0  0  0  0  0  0  0  0
    4.8695   -1.1818    0.0000 N   0  0  0  0  0  0  0  0  0  0  0  0
    2.3282   -1.7219    0.0000 C   0  0  0  0  0  0  0  0  0  0  0  0
    2.0164   -0.2547    0.0000 C   0  0  0  0  0  0  0  0  0  0  0  0
    1.7045    1.2125    0.0000 N   0  0  0  0  0  0  0  0  0  0  0  0
    1.2135   -2.7256    0.0000 C   0  0  0  0  0  0  0  0  0  0  0  0
    0.7500   -1.2990    0.0000 C   0  0  0  0  0  0  0  0  0  0  0  0
    1.5000    0.0000    0.0000 C   0  0  0  0  0  0  0  0  0  0  0  0
    0.7500    1.2990    0.0000 C   0  0  0  0  0  0  0  0  0  0  0  0
   -0.7500    1.2990    0.0000 C   0  0  0  0  0  0  0  0  0  0  0  0
   -1.5000    0.0000    0.0000 C   0  0  0  0  0  0  0  0  0  0  0  0
   -0.7500   -1.2990    0.0000 C   0  0  0  0  0  0  0  0  0  0  0  0
   -1.2135   -2.7256    0.0000 C   0  0  0  0  0  0  0  0  0  0  0  0
   -2.5838   -3.3357    0.0000 C   0  0  0  0  0  0  0  0  0  0  0  0
   -2.7406   -4.8275    0.0000 C   0  0  0  0  0  0  0  0  0  0  0  0
   -1.5271   -5.7092    0.0000 C   0  0  0  0  0  0  0  0  0  0  0  0
   -0.1568   -5.0991    0.0000 C   0  0  0  0  0  0  0  0  0  0  0  0
   -0.0000   -3.6073    0.0000 C   0  0  0  0  0  0  0  0  0  0  0  0
    1.5254   -4.1928    0.0000 C   0  0  0  0  0  0  0  0  0  0  0  0
  1  2  1  0
  2  3  1  0
  3  4  1  0
  4  5  2  0
  5  6  1  0
  6  7  2  0
  7  8  1  0
  8  9  1  0
  9 10  1  0
  9 11  2  0
 11 12  1  0
 12 13  3  0
 11 14  1  0
 14 15  1  0
 15 16  2  0
 16 17  1  0
 17 18  2  0
 18 19  1  0
 19 20  2  0
 20 21  1  0
 21 22  2  0
 22 23  1  0
 23 24  2  0
 24 25  1  0
 25 26  2  0
 27 14  1  1
 27  4  1  0
 27  7  1  0
 26 14  1  0
 20 15  1  0
 26 21  1  0
M  END
>  <Compound_ID>  (643) 
C04150187

>  <Active>  (643) 
0.0

>  <Smiles>  (643) 
CCCC1=NN=C2OC(N)=C(C#N)C3(c4ccccc4-c4ccccc43)[C@H]12

>  <canonical_smi>  (643) 
CCCC1=NN=C2OC(N)=C(C#N)C3(c4ccccc4-c4ccccc43)[C@H]12

>  <Set>  (643) 
G2 inactive

>  <Set_type>  (643) 
Train

>  <MW>  (643) 
354.41

>  <HBD>  (643) 
1

>  <HBA>  (643) 
3

>  <NRB>  (643) 
2

>  <NR>  (643) 
5

>  <NAR>  (643) 
2

>  <PSA>  (643) 
83.76

>  <Standard Type>  (643) 
nan

>  <Standard Relation>  (643) 
nan

>  <Standard Units>  (643) 
nan

>  <Standard Value>  (643) 
nan

>  <Assay ChEMBL ID>  (643) 
nan

>  <Assay Description>  (643) 
nan

>  <BAO Label>  (643) 
nan

$$$$

     RDKit          2D

 20 21  0  0  0  0  0  0  0  0999 V2000
    3.0000   -2.5981    0.0000 N   0  0  0  0  0  0  0  0  0  0  0  0
    1.5000   -2.5981    0.0000 C   0  0  0  0  0  0  0  0  0  0  0  0
    0.7500   -1.2990    0.0000 C   0  0  0  0  0  0  0  0  0  0  0  0
    1.5000    0.0000    0.0000 C   0  0  0  0  0  0  0  0  0  0  0  0
    0.7500    1.2990    0.0000 C   0  0  0  0  0  0  0  0  0  0  0  0
    1.5000    2.5981    0.0000 Cl  0  0  0  0  0  0  0  0  0  0  0  0
   -0.7500    1.2990    0.0000 C   0  0  0  0  0  0  0  0  0  0  0  0
   -1.5000    0.0000    0.0000 C   0  0  0  0  0  0  0  0  0  0  0  0
   -3.0000    0.0000    0.0000 N   0  0  0  0  0  4  0  0  0  0  0  0
   -3.7500   -1.2990    0.0000 O   0  0  0  0  0  0  0  0  0  0  0  0
   -3.7500    1.2990    0.0000 O   0  0  0  0  0  1  0  0  0  0  0  0
   -0.7500   -1.2990    0.0000 C   0  0  0  0  0  0  0  0  0  0  0  0
    0.7500   -3.8971    0.0000 C   0  0  0  0  0  0  0  0  0  0  0  0
   -0.7500   -3.8971    0.0000 C   0  0  0  0  0  0  0  0  0  0  0  0
   -1.5000   -5.1962    0.0000 C   0  0  0  0  0  0  0  0  0  0  0  0
   -0.7500   -6.4952    0.0000 C   0  0  0  0  0  0  0  0  0  0  0  0
    0.7500   -6.4952    0.0000 C   0  0  0  0  0  0  0  0  0  0  0  0
    1.5000   -7.7942    0.0000 Cl  0  0  0  0  0  0  0  0  0  0  0  0
    1.5000   -5.1962    0.0000 C   0  0  0  0  0  0  0  0  0  0  0  0
    3.0000   -5.1962    0.0000 Cl  0  0  0  0  0  0  0  0  0  0  0  0
  2  1  1  6
  2  3  1  0
  3  4  2  0
  4  5  1  0
  5  6  1  0
  5  7  2  0
  7  8  1  0
  8  9  1  0
  9 10  2  0
  9 11  1  0
  8 12  2  0
  2 13  1  0
 13 14  2  0
 14 15  1  0
 15 16  2  0
 16 17  1  0
 17 18  1  0
 17 19  2  0
 19 20  1  0
 12  3  1  0
 19 13  1  0
M  CHG  2   9   1  11  -1
M  END
>  <Compound_ID>  (644) 
C20009085

>  <Active>  (644) 
0.0

>  <Smiles>  (644) 
N[C@@H](c1cc(Cl)cc([N+](=O)[O-])c1)c1cccc(Cl)c1Cl

>  <canonical_smi>  (644) 
N[C@@H](c1cc(Cl)cc([N+](=O)[O-])c1)c1cccc(Cl)c1Cl

>  <Set>  (644) 
G2 inactive

>  <Set_type>  (644) 
Train

>  <MW>  (644) 
331.59

>  <HBD>  (644) 
1

>  <HBA>  (644) 
3

>  <NRB>  (644) 
3

>  <NR>  (644) 
2

>  <NAR>  (644) 
2

>  <PSA>  (644) 
69.16

>  <Standard Type>  (644) 
nan

>  <Standard Relation>  (644) 
nan

>  <Standard Units>  (644) 
nan

>  <Standard Value>  (644) 
nan

>  <Assay ChEMBL ID>  (644) 
nan

>  <Assay Description>  (644) 
nan

>  <BAO Label>  (644) 
nan

$$$$

     RDKit          2D

 19 20  0  0  0  0  0  0  0  0999 V2000
   -0.0967    5.1517    0.0000 C   0  0  0  0  0  0  0  0  0  0  0  0
   -0.4086    3.6844    0.0000 C   0  0  0  0  0  0  0  0  0  0  0  0
   -1.8351    3.2209    0.0000 C   0  0  0  0  0  0  0  0  0  0  0  0
   -2.9499    4.2246    0.0000 N   0  0  0  0  0  0  0  0  0  0  0  0
   -2.1470    1.7537    0.0000 C   0  0  0  0  0  0  0  0  0  0  0  0
   -3.5736    1.2902    0.0000 Br  0  0  0  0  0  0  0  0  0  0  0  0
   -1.0323    0.7500    0.0000 C   0  0  0  0  0  0  0  0  0  0  0  0
    0.3943    1.2135    0.0000 C   0  0  0  0  0  0  0  0  0  0  0  0
    0.7062    2.6807    0.0000 C   0  0  0  0  0  0  0  0  0  0  0  0
    2.1328    3.1443    0.0000 N   0  0  0  0  0  4  0  0  0  0  0  0
    3.2475    2.1406    0.0000 O   0  0  0  0  0  0  0  0  0  0  0  0
    2.4446    4.6115    0.0000 O   0  0  0  0  0  1  0  0  0  0  0  0
    1.2760    0.0000    0.0000 C   0  0  0  0  0  0  0  0  0  0  0  0
    2.3907    1.0037    0.0000 C   0  0  0  0  0  0  0  0  0  0  0  0
    2.3907   -1.0037    0.0000 C   0  0  0  0  0  0  0  0  0  0  0  0
    0.3943   -1.2135    0.0000 C   0  0  0  0  0  0  0  0  0  0  0  0
   -1.0323   -0.7500    0.0000 C   0  0  0  0  0  0  0  0  0  0  0  0
   -1.3442   -2.2172    0.0000 C   0  0  0  0  0  0  0  0  0  0  0  0
   -2.5241   -0.5932    0.0000 C   0  0  0  0  0  0  0  0  0  0  0  0
  1  2  1  0
  2  3  2  0
  3  4  1  0
  3  5  1  0
  5  6  1  0
  5  7  2  0
  7  8  1  0
  8  9  2  0
  9 10  1  0
 10 11  2  0
 10 12  1  0
  8 13  1  0
 13 14  1  0
 13 15  1  0
 13 16  1  0
 16 17  1  0
 17 18  1  0
 17 19  1  0
  9  2  1  0
 17  7  1  0
M  CHG  2  10   1  12  -1
M  END
>  <Compound_ID>  (645) 
C40448080

>  <Active>  (645) 
0.0

>  <Smiles>  (645) 
Cc1c(N)c(Br)c2c(c1[N+](=O)[O-])C(C)(C)CC2(C)C

>  <canonical_smi>  (645) 
Cc1c(N)c(Br)c2c(c1[N+](=O)[O-])C(C)(C)CC2(C)C

>  <Set>  (645) 
G2 inactive

>  <Set_type>  (645) 
Train

>  <MW>  (645) 
327.22

>  <HBD>  (645) 
1

>  <HBA>  (645) 
3

>  <NRB>  (645) 
1

>  <NR>  (645) 
2

>  <NAR>  (645) 
1

>  <PSA>  (645) 
69.16

>  <Standard Type>  (645) 
nan

>  <Standard Relation>  (645) 
nan

>  <Standard Units>  (645) 
nan

>  <Standard Value>  (645) 
nan

>  <Assay ChEMBL ID>  (645) 
nan

>  <Assay Description>  (645) 
nan

>  <BAO Label>  (645) 
nan

$$$$

     RDKit          2D

 26 27  0  0  0  0  0  0  0  0999 V2000
    3.0000   -5.1962    0.0000 O   0  0  0  0  0  0  0  0  0  0  0  0
    3.7500   -3.8971    0.0000 C   0  0  0  0  0  0  0  0  0  0  0  0
    3.0000   -2.5981    0.0000 N   0  0  0  0  0  0  0  0  0  0  0  0
    1.5000   -2.5981    0.0000 C   0  0  0  0  0  0  0  0  0  0  0  0
    0.7500   -1.2990    0.0000 N   0  0  0  0  0  0  0  0  0  0  0  0
    1.5000    0.0000    0.0000 C   0  0  0  0  0  0  0  0  0  0  0  0
    0.7500    1.2990    0.0000 C   0  0  0  0  0  0  0  0  0  0  0  0
   -0.7500    1.2990    0.0000 C   0  0  0  0  0  0  0  0  0  0  0  0
   -1.5000    0.0000    0.0000 C   0  0  0  0  0  0  0  0  0  0  0  0
   -0.7500   -1.2990    0.0000 C   0  0  0  0  0  0  0  0  0  0  0  0
    0.7500   -3.8971    0.0000 C   0  0  0  0  0  0  0  0  0  0  0  0
   -0.0000   -5.1962    0.0000 Cl  0  0  0  0  0  0  0  0  0  0  0  0
    2.0490   -4.6471    0.0000 Cl  0  0  0  0  0  0  0  0  0  0  0  0
   -0.5490   -3.1471    0.0000 Cl  0  0  0  0  0  0  0  0  0  0  0  0
    5.2500   -3.8971    0.0000 N   0  0  0  0  0  0  0  0  0  0  0  0
    6.0000   -5.1962    0.0000 C   0  0  0  0  0  0  0  0  0  0  0  0
    5.2500   -6.4952    0.0000 N   0  0  0  0  0  0  0  0  0  0  0  0
    3.7500   -6.4952    0.0000 C   0  0  0  0  0  0  0  0  0  0  0  0
    3.0000   -7.7942    0.0000 C   0  0  0  0  0  0  0  0  0  0  0  0
    3.7500   -9.0933    0.0000 C   0  0  0  0  0  0  0  0  0  0  0  0
    5.2500   -9.0933    0.0000 C   0  0  0  0  0  0  0  0  0  0  0  0
    6.0000   -7.7942    0.0000 C   0  0  0  0  0  0  0  0  0  0  0  0
    7.5000   -5.1962    0.0000 C   0  0  0  0  0  0  0  0  0  0  0  0
    9.0000   -5.1962    0.0000 Cl  0  0  0  0  0  0  0  0  0  0  0  0
    7.5000   -6.6962    0.0000 Cl  0  0  0  0  0  0  0  0  0  0  0  0
    7.5000   -3.6962    0.0000 Cl  0  0  0  0  0  0  0  0  0  0  0  0
  1  2  2  0
  2  3  1  0
  4  3  1  6
  4  5  1  0
  5  6  1  0
  6  7  1  0
  7  8  1  0
  8  9  1  0
  9 10  1  0
  4 11  1  0
 11 12  1  0
 11 13  1  0
 11 14  1  0
  2 15  1  0
 16 15  1  6
 16 17  1  0
 17 18  1  0
 18 19  1  0
 19 20  1  0
 20 21  1  0
 21 22  1  0
 16 23  1  0
 23 24  1  0
 23 25  1  0
 23 26  1  0
 10  5  1  0
 22 17  1  0
M  END
>  <Compound_ID>  (646) 
C19229140

>  <Active>  (646) 
0.0

>  <Smiles>  (646) 
O=C(N[C@@H](N1CCCCC1)C(Cl)(Cl)Cl)N[C@@H](N1CCCCC1)C(Cl)(Cl)Cl

>  <canonical_smi>  (646) 
O=C(N[C@@H](N1CCCCC1)C(Cl)(Cl)Cl)N[C@@H](N1CCCCC1)C(Cl)(Cl)Cl

>  <Set>  (646) 
G2 inactive

>  <Set_type>  (646) 
Train

>  <MW>  (646) 
489.1

>  <HBD>  (646) 
2

>  <HBA>  (646) 
3

>  <NRB>  (646) 
4

>  <NR>  (646) 
2

>  <NAR>  (646) 
0

>  <PSA>  (646) 
47.61

>  <Standard Type>  (646) 
nan

>  <Standard Relation>  (646) 
nan

>  <Standard Units>  (646) 
nan

>  <Standard Value>  (646) 
nan

>  <Assay ChEMBL ID>  (646) 
nan

>  <Assay Description>  (646) 
nan

>  <BAO Label>  (646) 
nan

$$$$

     RDKit          2D

 35 39  0  0  0  0  0  0  0  0999 V2000
   -4.9635   -9.2208    0.0000 C   0  0  0  0  0  0  0  0  0  0  0  0
   -4.2135   -7.9218    0.0000 C   0  0  0  0  0  0  0  0  0  0  0  0
   -3.4635   -6.6227    0.0000 C   0  0  0  0  0  0  0  0  0  0  0  0
   -4.8980   -6.1842    0.0000 O   0  0  0  0  0  0  0  0  0  0  0  0
   -2.2500   -7.5044    0.0000 C   0  0  0  0  0  0  0  0  0  0  0  0
   -1.0365   -6.6227    0.0000 C   0  0  0  0  0  0  0  0  0  0  0  0
   -1.5000   -5.1962    0.0000 C   0  0  0  0  0  0  0  0  0  0  0  0
   -0.7500   -3.8971    0.0000 C   0  0  0  0  0  0  0  0  0  0  0  0
    0.7500   -3.8971    0.0000 C   0  0  0  0  0  0  0  0  0  0  0  0
    1.5000   -2.5981    0.0000 C   0  0  0  0  0  0  0  0  0  0  0  0
    0.7500   -1.2990    0.0000 C   0  0  0  0  0  0  0  0  0  0  0  0
    1.5000    0.0000    0.0000 C   0  0  0  0  0  0  0  0  0  0  0  0
    0.7500    1.2990    0.0000 C   0  0  0  0  0  0  0  0  0  0  0  0
    1.5000    2.5981    0.0000 N   0  0  0  0  0  0  0  0  0  0  0  0
    0.7500    3.8971    0.0000 O   0  0  0  0  0  0  0  0  0  0  0  0
    1.5000    5.1962    0.0000 C   0  0  0  0  0  0  0  0  0  0  0  0
    0.7500    6.4952    0.0000 C   0  0  0  0  0  0  0  0  0  0  0  0
   -0.7500    6.4952    0.0000 O   0  0  0  0  0  0  0  0  0  0  0  0
    1.5000    7.7942    0.0000 N   0  0  0  0  0  0  0  0  0  0  0  0
    0.7500    9.0933    0.0000 C   0  0  0  0  0  0  0  0  0  0  0  0
    1.5000   10.3923    0.0000 C   0  0  0  0  0  0  0  0  0  0  0  0
    3.0000   10.3923    0.0000 C   0  0  0  0  0  0  0  0  0  0  0  0
    3.7500   11.6913    0.0000 C   0  0  0  0  0  0  0  0  0  0  0  0
    3.0000   12.9904    0.0000 C   0  0  0  0  0  0  0  0  0  0  0  0
    1.5000   12.9904    0.0000 C   0  0  0  0  0  0  0  0  0  0  0  0
    0.7500   11.6913    0.0000 C   0  0  0  0  0  0  0  0  0  0  0  0
   -0.7500    1.2990    0.0000 C   0  0  0  0  0  0  0  0  0  0  0  0
   -1.5000    0.0000    0.0000 C   0  0  0  0  0  0  0  0  0  0  0  0
   -0.7500   -1.2990    0.0000 C   0  0  0  0  0  0  0  0  0  0  0  0
   -2.2500   -1.2990    0.0000 C   0  0  0  0  0  0  0  0  0  0  0  0
   -1.5000   -2.5981    0.0000 C   0  0  0  0  0  0  0  0  0  0  0  0
   -3.0000   -2.5981    0.0000 C   0  0  0  0  0  0  0  0  0  0  0  0
   -3.7500   -3.8971    0.0000 C   0  0  0  0  0  0  0  0  0  0  0  0
   -3.0000   -5.1962    0.0000 C   0  0  0  0  0  0  0  0  0  0  0  0
   -4.4998   -5.1699    0.0000 C   0  0  0  0  0  0  0  0  0  0  0  0
  1  2  3  0
  2  3  1  0
  3  4  1  6
  3  5  1  0
  5  6  1  0
  7  6  1  6
  7  8  1  0
  8  9  1  1
  9 10  1  0
 10 11  1  0
 11 12  2  0
 12 13  1  0
 13 14  2  0
 14 15  1  0
 15 16  1  0
 16 17  1  0
 17 18  2  0
 17 19  1  0
 19 20  1  0
 20 21  1  0
 21 22  1  0
 22 23  1  0
 23 24  1  0
 24 25  1  0
 25 26  1  0
 13 27  1  0
 27 28  1  0
 28 29  1  0
 29 30  1  6
 29 31  1  0
 31 32  1  1
 32 33  1  0
 33 34  1  0
 34 35  1  6
 34  3  1  0
 34  7  1  0
 31  8  1  0
 29 11  1  0
 26 21  1  0
M  END
>  <Compound_ID>  (647) 
C51347712

>  <Active>  (647) 
0.0

>  <Smiles>  (647) 
C#C[C@]1(O)CC[C@H]2[C@@H]3CCC4=C/C(=N/OCC(=O)NCC5CCCCC5)CC[C@]4(C)[C@@H]3CC[C@@]21C

>  <canonical_smi>  (647) 
C#C[C@]1(O)CC[C@H]2[C@@H]3CCC4=C/C(=N/OCC(=O)NCC5CCCCC5)CC[C@]4(C)[C@@H]3CC[C@@]21C

>  <Set>  (647) 
G2 inactive

>  <Set_type>  (647) 
Train

>  <MW>  (647) 
480.69

>  <HBD>  (647) 
2

>  <HBA>  (647) 
3

>  <NRB>  (647) 
5

>  <NR>  (647) 
5

>  <NAR>  (647) 
0

>  <PSA>  (647) 
70.92

>  <Standard Type>  (647) 
nan

>  <Standard Relation>  (647) 
nan

>  <Standard Units>  (647) 
nan

>  <Standard Value>  (647) 
nan

>  <Assay ChEMBL ID>  (647) 
nan

>  <Assay Description>  (647) 
nan

>  <BAO Label>  (647) 
nan

$$$$

     RDKit          2D

 32 35  0  0  0  0  0  0  0  0999 V2000
    4.5000   -0.0000    0.0000 N   0  0  0  0  0  0  0  0  0  0  0  0
    3.7500   -1.2990    0.0000 C   0  0  0  0  0  0  0  0  0  0  0  0
    3.0000   -2.5981    0.0000 C   0  0  0  0  0  0  0  0  0  0  0  0
    1.5000   -2.5981    0.0000 C   0  0  0  0  0  0  0  0  0  0  0  0
    0.7500   -1.2990    0.0000 C   0  0  0  0  0  0  0  0  0  0  0  0
    1.5000    0.0000    0.0000 C   0  0  0  0  0  0  0  0  0  0  0  0
    0.7500    1.2990    0.0000 C   0  0  0  0  0  0  0  0  0  0  0  0
   -0.7500    1.2990    0.0000 C   0  0  0  0  0  0  0  0  0  0  0  0
   -1.7537    2.4138    0.0000 N   0  0  0  0  0  0  0  0  0  0  0  0
   -3.1240    1.8037    0.0000 C   0  0  0  0  0  0  0  0  0  0  0  0
   -4.0943    2.5349    0.0000 N   0  0  0  0  0  0  0  0  0  0  0  0
   -2.9672    0.3119    0.0000 C   0  0  0  0  0  0  0  0  0  0  0  0
   -4.0819   -0.6918    0.0000 C   0  0  0  0  0  0  0  0  0  0  0  0
   -3.7701   -2.1590    0.0000 O   0  0  0  0  0  0  0  0  0  0  0  0
   -5.5085   -0.2283    0.0000 C   0  0  0  0  0  0  0  0  0  0  0  0
   -5.8204    1.2389    0.0000 C   0  0  0  0  0  0  0  0  0  0  0  0
   -5.0233    2.1559    0.0000 F   0  0  0  0  0  0  0  0  0  0  0  0
   -7.2470    1.7024    0.0000 C   0  0  0  0  0  0  0  0  0  0  0  0
   -8.3617    0.6987    0.0000 C   0  0  0  0  0  0  0  0  0  0  0  0
   -8.0498   -0.7685    0.0000 C   0  0  0  0  0  0  0  0  0  0  0  0
   -6.6232   -1.2320    0.0000 C   0  0  0  0  0  0  0  0  0  0  0  0
   -6.3114   -2.6992    0.0000 F   0  0  0  0  0  0  0  0  0  0  0  0
   -1.5000    0.0000    0.0000 N   0  0  0  0  0  0  0  0  0  0  0  0
   -0.7500   -1.2990    0.0000 C   0  0  0  0  0  0  0  0  0  0  0  0
    0.7500   -3.8971    0.0000 C   0  0  0  0  0  0  0  0  0  0  0  0
   -0.7500   -3.8971    0.0000 C   0  0  0  0  0  0  0  0  0  0  0  0
   -1.5000   -2.5981    0.0000 F   0  0  0  0  0  0  0  0  0  0  0  0
   -1.5000   -5.1962    0.0000 C   0  0  0  0  0  0  0  0  0  0  0  0
   -0.7500   -6.4952    0.0000 C   0  0  0  0  0  0  0  0  0  0  0  0
    0.7500   -6.4952    0.0000 C   0  0  0  0  0  0  0  0  0  0  0  0
    1.5000   -5.1962    0.0000 C   0  0  0  0  0  0  0  0  0  0  0  0
    3.0000   -5.1962    0.0000 F   0  0  0  0  0  0  0  0  0  0  0  0
  1  2  3  0
  2  3  1  0
  3  4  2  0
  4  5  1  0
  5  6  1  0
  6  7  2  0
  7  8  1  0
  8  9  2  0
  9 10  1  0
 10 11  1  0
 10 12  2  0
 12 13  1  0
 13 14  2  0
 13 15  1  0
 15 16  2  0
 16 17  1  0
 16 18  1  0
 18 19  2  0
 19 20  1  0
 20 21  2  0
 21 22  1  0
 12 23  1  0
 23 24  1  0
  4 25  1  0
 25 26  2  0
 26 27  1  0
 26 28  1  0
 28 29  2  0
 29 30  1  0
 30 31  2  0
 31 32  1  0
 24  5  2  0
 31 25  1  0
 23  8  1  0
 21 15  1  0
M  END
>  <Compound_ID>  (648) 
C14945542

>  <Active>  (648) 
0.0

>  <Smiles>  (648) 
N#C/C=C(\c1ccc2nc(N)c(C(=O)c3c(F)cccc3F)n2c1)c1c(F)cccc1F

>  <canonical_smi>  (648) 
N#C/C=C(\c1ccc2nc(N)c(C(=O)c3c(F)cccc3F)n2c1)c1c(F)cccc1F

>  <Set>  (648) 
G2 inactive

>  <Set_type>  (648) 
Train

>  <MW>  (648) 
436.37

>  <HBD>  (648) 
1

>  <HBA>  (648) 
4

>  <NRB>  (648) 
4

>  <NR>  (648) 
4

>  <NAR>  (648) 
4

>  <PSA>  (648) 
84.18

>  <Standard Type>  (648) 
nan

>  <Standard Relation>  (648) 
nan

>  <Standard Units>  (648) 
nan

>  <Standard Value>  (648) 
nan

>  <Assay ChEMBL ID>  (648) 
nan

>  <Assay Description>  (648) 
nan

>  <BAO Label>  (648) 
nan

$$$$

     RDKit          2D

 32 35  0  0  0  0  0  0  0  0999 V2000
   -3.9205   -4.3214    0.0000 O   0  0  0  0  0  0  0  0  0  0  0  0
   -2.5242   -4.8694    0.0000 C   0  0  0  0  0  0  0  0  0  0  0  0
   -1.3515   -3.9342    0.0000 C   0  0  0  0  0  0  0  0  0  0  0  0
   -0.0000   -4.5850    0.0000 C   0  0  0  0  0  0  0  0  0  0  0  0
    0.0000   -6.0850    0.0000 C   0  0  0  0  0  0  0  0  0  0  0  0
    0.0000   -7.5850    0.0000 F   0  0  0  0  0  0  0  0  0  0  0  0
    1.5000   -6.0850    0.0000 F   0  0  0  0  0  0  0  0  0  0  0  0
   -1.5000   -6.0850    0.0000 F   0  0  0  0  0  0  0  0  0  0  0  0
    1.3515   -3.9342    0.0000 N   0  0  0  0  0  0  0  0  0  0  0  0
    1.6852   -2.4718    0.0000 C   0  0  0  0  0  0  0  0  0  0  0  0
    3.1476   -2.1380    0.0000 O   0  0  0  0  0  0  0  0  0  0  0  0
    0.7500   -1.2990    0.0000 C   0  0  0  0  0  0  0  0  0  0  0  0
    1.5000    0.0000    0.0000 C   0  0  0  0  0  0  0  0  0  0  0  0
    0.7500    1.2990    0.0000 C   0  0  0  0  0  0  0  0  0  0  0  0
   -0.7500    1.2990    0.0000 C   0  0  0  0  0  0  0  0  0  0  0  0
   -1.5000    2.5981    0.0000 C   0  0  0  0  0  0  0  0  0  0  0  0
   -0.7500    3.8971    0.0000 C   0  0  0  0  0  0  0  0  0  0  0  0
   -1.5000    5.1962    0.0000 C   0  0  0  0  0  0  0  0  0  0  0  0
   -3.0000    5.1962    0.0000 C   0  0  0  0  0  0  0  0  0  0  0  0
   -3.7500    6.4952    0.0000 Cl  0  0  0  0  0  0  0  0  0  0  0  0
   -3.7500    3.8971    0.0000 C   0  0  0  0  0  0  0  0  0  0  0  0
   -3.0000    2.5981    0.0000 C   0  0  0  0  0  0  0  0  0  0  0  0
   -1.5000    0.0000    0.0000 N   0  0  0  0  0  0  0  0  0  0  0  0
   -0.7500   -1.2990    0.0000 C   0  0  0  0  0  0  0  0  0  0  0  0
   -1.6852   -2.4718    0.0000 C   0  0  0  0  0  0  0  0  0  0  0  0
   -3.1476   -2.1380    0.0000 O   0  0  0  0  0  0  0  0  0  0  0  0
   -2.3006   -6.3527    0.0000 C   0  0  0  0  0  0  0  0  0  0  0  0
   -0.9043   -6.9007    0.0000 C   0  0  0  0  0  0  0  0  0  0  0  0
   -0.6808   -8.3839    0.0000 C   0  0  0  0  0  0  0  0  0  0  0  0
   -1.8535   -9.3192    0.0000 C   0  0  0  0  0  0  0  0  0  0  0  0
   -3.2498   -8.7711    0.0000 C   0  0  0  0  0  0  0  0  0  0  0  0
   -3.4734   -7.2879    0.0000 C   0  0  0  0  0  0  0  0  0  0  0  0
  1  2  2  0
  2  3  1  0
  3  4  2  0
  4  5  1  0
  5  6  1  0
  5  7  1  0
  5  8  1  0
  4  9  1  0
  9 10  1  0
 10 11  2  0
 10 12  1  0
 12 13  2  0
 13 14  1  0
 14 15  2  0
 15 16  1  0
 16 17  2  0
 17 18  1  0
 18 19  2  0
 19 20  1  0
 19 21  1  0
 21 22  2  0
 15 23  1  0
 23 24  2  0
 24 25  1  0
 25 26  1  1
  2 27  1  0
 27 28  2  0
 28 29  1  0
 29 30  2  0
 30 31  1  0
 31 32  2  0
 25  3  1  0
 32 27  1  0
 24 12  1  0
 22 16  1  0
M  END
>  <Compound_ID>  (649) 
C40569053

>  <Active>  (649) 
0.0

>  <Smiles>  (649) 
O=C(C1=C(C(F)(F)F)NC(=O)c2ccc(-c3ccc(Cl)cc3)nc2[C@@H]1O)c1ccccc1

>  <canonical_smi>  (649) 
O=C(C1=C(C(F)(F)F)NC(=O)c2ccc(-c3ccc(Cl)cc3)nc2[C@@H]1O)c1ccccc1

>  <Set>  (649) 
G2 inactive

>  <Set_type>  (649) 
Train

>  <MW>  (649) 
458.82

>  <HBD>  (649) 
2

>  <HBA>  (649) 
4

>  <NRB>  (649) 
3

>  <NR>  (649) 
4

>  <NAR>  (649) 
3

>  <PSA>  (649) 
79.29

>  <Standard Type>  (649) 
nan

>  <Standard Relation>  (649) 
nan

>  <Standard Units>  (649) 
nan

>  <Standard Value>  (649) 
nan

>  <Assay ChEMBL ID>  (649) 
nan

>  <Assay Description>  (649) 
nan

>  <BAO Label>  (649) 
nan

$$$$

     RDKit          2D

 29 31  0  0  0  0  0  0  0  0999 V2000
   -2.5981   -8.1073    0.0000 C   0  0  0  0  0  0  0  0  0  0  0  0
   -1.2990   -7.3573    0.0000 C   0  0  0  0  0  0  0  0  0  0  0  0
   -0.0000   -8.1073    0.0000 C   0  0  0  0  0  0  0  0  0  0  0  0
    1.2990   -7.3573    0.0000 C   0  0  0  0  0  0  0  0  0  0  0  0
    2.5981   -8.1073    0.0000 C   0  0  0  0  0  0  0  0  0  0  0  0
    2.5981   -9.6073    0.0000 C   0  0  0  0  0  0  0  0  0  0  0  0
    3.8971  -10.3573    0.0000 S   0  0  0  0  0  0  0  0  0  0  0  0
    5.1962  -11.1073    0.0000 N   0  0  0  0  0  0  0  0  0  0  0  0
    3.1471  -11.6563    0.0000 O   0  0  0  0  0  0  0  0  0  0  0  0
    4.6471   -9.0583    0.0000 O   0  0  0  0  0  0  0  0  0  0  0  0
    1.2990  -10.3573    0.0000 C   0  0  0  0  0  0  0  0  0  0  0  0
   -0.0000   -9.6073    0.0000 C   0  0  0  0  0  0  0  0  0  0  0  0
   -1.2990   -5.8573    0.0000 N   0  0  0  0  0  0  0  0  0  0  0  0
   -2.5981   -5.1073    0.0000 C   0  0  0  0  0  0  0  0  0  0  0  0
   -0.0000   -5.1073    0.0000 C   0  0  0  0  0  0  0  0  0  0  0  0
    1.2990   -5.8573    0.0000 O   0  0  0  0  0  0  0  0  0  0  0  0
   -0.0000   -3.6073    0.0000 C   0  0  0  0  0  0  0  0  0  0  0  0
    1.2135   -2.7256    0.0000 C   0  0  0  0  0  0  0  0  0  0  0  0
    0.7500   -1.2990    0.0000 C   0  0  0  0  0  0  0  0  0  0  0  0
   -0.7500   -1.2990    0.0000 C   0  0  0  0  0  0  0  0  0  0  0  0
   -1.2135   -2.7256    0.0000 S   0  0  0  0  0  0  0  0  0  0  0  0
   -1.5000    0.0000    0.0000 C   0  0  0  0  0  0  0  0  0  0  0  0
   -0.7500    1.2990    0.0000 C   0  0  0  0  0  0  0  0  0  0  0  0
    0.7500    1.2990    0.0000 C   0  0  0  0  0  0  0  0  0  0  0  0
    1.5000    2.5981    0.0000 C   0  0  0  0  0  0  0  0  0  0  0  0
    0.2010    3.3481    0.0000 C   0  0  0  0  0  0  0  0  0  0  0  0
    2.7990    1.8481    0.0000 C   0  0  0  0  0  0  0  0  0  0  0  0
    2.2500    3.8971    0.0000 C   0  0  0  0  0  0  0  0  0  0  0  0
    1.5000   -0.0000    0.0000 C   0  0  0  0  0  0  0  0  0  0  0  0
  2  1  1  6
  2  3  1  0
  3  4  2  0
  4  5  1  0
  5  6  2  0
  6  7  1  0
  7  8  1  0
  7  9  2  0
  7 10  2  0
  6 11  1  0
 11 12  2  0
  2 13  1  0
 13 14  1  0
 13 15  1  0
 15 16  2  0
 15 17  1  0
 17 18  2  0
 18 19  1  0
 19 20  2  0
 20 21  1  0
 20 22  1  0
 22 23  1  0
 23 24  1  0
 24 25  1  1
 25 26  1  0
 25 27  1  0
 25 28  1  0
 24 29  1  0
 12  3  1  0
 21 17  1  0
 29 19  1  0
M  END
>  <Compound_ID>  (650) 
C28312999

>  <Active>  (650) 
0.0

>  <Smiles>  (650) 
C[C@@H](c1ccc(S(N)(=O)=O)cc1)N(C)C(=O)c1cc2c(s1)CC[C@@H](C(C)(C)C)C2

>  <canonical_smi>  (650) 
C[C@@H](c1ccc(S(N)(=O)=O)cc1)N(C)C(=O)c1cc2c(s1)CC[C@@H](C(C)(C)C)C2

>  <Set>  (650) 
G2 inactive

>  <Set_type>  (650) 
Train

>  <MW>  (650) 
434.63

>  <HBD>  (650) 
1

>  <HBA>  (650) 
3

>  <NRB>  (650) 
4

>  <NR>  (650) 
3

>  <NAR>  (650) 
2

>  <PSA>  (650) 
80.47

>  <Standard Type>  (650) 
nan

>  <Standard Relation>  (650) 
nan

>  <Standard Units>  (650) 
nan

>  <Standard Value>  (650) 
nan

>  <Assay ChEMBL ID>  (650) 
nan

>  <Assay Description>  (650) 
nan

>  <BAO Label>  (650) 
nan

$$$$

     RDKit          2D

 36 41  0  0  0  0  0  0  0  0999 V2000
   -5.1793    6.2320    0.0000 O   0  0  0  0  0  0  0  0  0  0  0  0
   -3.7527    6.6955    0.0000 C   0  0  0  0  0  0  0  0  0  0  0  0
   -3.4408    8.1628    0.0000 C   0  0  0  0  0  0  0  0  0  0  0  0
   -2.0143    8.6263    0.0000 C   0  0  0  0  0  0  0  0  0  0  0  0
   -1.7024   10.0935    0.0000 C   0  0  0  0  0  0  0  0  0  0  0  0
   -2.8171   11.0972    0.0000 C   0  0  0  0  0  0  0  0  0  0  0  0
   -4.2437   10.6337    0.0000 C   0  0  0  0  0  0  0  0  0  0  0  0
   -4.5556    9.1664    0.0000 C   0  0  0  0  0  0  0  0  0  0  0  0
   -2.6380    5.6918    0.0000 C   0  0  0  0  0  0  0  0  0  0  0  0
   -2.9499    4.2246    0.0000 C   0  0  0  0  0  0  0  0  0  0  0  0
   -4.3764    3.7611    0.0000 C   0  0  0  0  0  0  0  0  0  0  0  0
   -5.4912    4.7648    0.0000 C   0  0  0  0  0  0  0  0  0  0  0  0
   -6.9177    4.3013    0.0000 C   0  0  0  0  0  0  0  0  0  0  0  0
   -7.2296    2.8340    0.0000 C   0  0  0  0  0  0  0  0  0  0  0  0
   -6.1149    1.8303    0.0000 C   0  0  0  0  0  0  0  0  0  0  0  0
   -6.4268    0.3631    0.0000 O   0  0  0  0  0  0  0  0  0  0  0  0
   -4.6883    2.2939    0.0000 C   0  0  0  0  0  0  0  0  0  0  0  0
   -1.8351    3.2209    0.0000 C   0  0  0  0  0  0  0  0  0  0  0  0
   -2.1470    1.7537    0.0000 C   0  0  0  0  0  0  0  0  0  0  0  0
   -1.0323    0.7500    0.0000 C   0  0  0  0  0  0  0  0  0  0  0  0
    0.3943    1.2135    0.0000 C   0  0  0  0  0  0  0  0  0  0  0  0
    0.7062    2.6807    0.0000 C   0  0  0  0  0  0  0  0  0  0  0  0
   -0.4086    3.6844    0.0000 C   0  0  0  0  0  0  0  0  0  0  0  0
   -0.0967    5.1517    0.0000 C   0  0  0  0  0  0  0  0  0  0  0  0
    1.3299    5.6152    0.0000 O   0  0  0  0  0  0  0  0  0  0  0  0
   -1.2114    6.1554    0.0000 C   0  0  0  0  0  0  0  0  0  0  0  0
   -0.8995    7.6226    0.0000 C   0  0  0  0  0  0  0  0  0  0  0  0
   -2.0143    8.6263    0.0000 C   0  0  0  0  0  0  0  0  0  0  0  0
   -1.7024   10.0935    0.0000 C   0  0  0  0  0  0  0  0  0  0  0  0
   -0.2758   10.5570    0.0000 C   0  0  0  0  0  0  0  0  0  0  0  0
    0.8389    9.5533    0.0000 C   0  0  0  0  0  0  0  0  0  0  0  0
    0.5271    8.0861    0.0000 C   0  0  0  0  0  0  0  0  0  0  0  0
    1.6418    7.0824    0.0000 O   0  0  0  0  0  0  0  0  0  0  0  0
    1.2760    0.0000    0.0000 O   0  0  0  0  0  0  0  0  0  0  0  0
    0.3943   -1.2135    0.0000 C   0  0  0  0  0  0  0  0  0  0  0  0
   -1.0323   -0.7500    0.0000 O   0  0  0  0  0  0  0  0  0  0  0  0
  1  2  2  0
  2  3  1  0
  3  4  2  0
  4  5  1  0
  5  6  2  0
  6  7  1  0
  7  8  2  0
  9  2  1  6
  9 10  1  0
 10 11  1  1
 11 12  2  0
 12 13  1  0
 13 14  2  0
 14 15  1  0
 15 16  1  0
 15 17  2  0
 10 18  1  0
 18 19  2  0
 19 20  1  0
 20 21  2  0
 21 22  1  0
 22 23  2  0
 23 24  1  0
 24 25  2  0
 24 26  1  0
 26 27  1  1
 27 28  2  0
 28 29  1  0
 29 30  2  0
 30 31  1  0
 31 32  2  0
 32 33  1  0
 21 34  1  0
 34 35  1  0
 35 36  1  0
  8  3  1  0
 26  9  1  0
 32 27  1  0
 17 11  1  0
 23 18  1  0
 36 20  1  0
M  END
>  <Compound_ID>  (651) 
C39484650

>  <Active>  (651) 
0.0

>  <Smiles>  (651) 
O=C(c1ccccc1)[C@H]1[C@H](c2cccc(O)c2)c2cc3c(cc2C(=O)[C@@H]1c1ccccc1O)OCO3

>  <canonical_smi>  (651) 
O=C1c2cc3c(cc2[C@@H](c2cccc(O)c2)[C@H](C(=O)c2ccccc2)[C@H]1c1ccccc1O)OCO3

>  <Set>  (651) 
G2 inactive

>  <Set_type>  (651) 
Train

>  <MW>  (651) 
478.5

>  <HBD>  (651) 
2

>  <HBA>  (651) 
6

>  <NRB>  (651) 
4

>  <NR>  (651) 
6

>  <NAR>  (651) 
4

>  <PSA>  (651) 
93.06

>  <Standard Type>  (651) 
nan

>  <Standard Relation>  (651) 
nan

>  <Standard Units>  (651) 
nan

>  <Standard Value>  (651) 
nan

>  <Assay ChEMBL ID>  (651) 
nan

>  <Assay Description>  (651) 
nan

>  <BAO Label>  (651) 
nan

$$$$

     RDKit          2D

 38 43  0  0  0  0  0  0  0  0999 V2000
    2.5838   -3.8789    0.0000 C   0  0  0  0  0  0  0  0  0  0  0  0
    2.4271   -5.3707    0.0000 C   0  0  0  0  0  0  0  0  0  0  0  0
    3.6406   -6.2523    0.0000 C   0  0  0  0  0  0  0  0  0  0  0  0
    3.4838   -7.7441    0.0000 C   0  0  0  0  0  0  0  0  0  0  0  0
    2.1135   -8.3542    0.0000 C   0  0  0  0  0  0  0  0  0  0  0  0
    0.8999   -7.4725    0.0000 C   0  0  0  0  0  0  0  0  0  0  0  0
    1.0567   -5.9808    0.0000 C   0  0  0  0  0  0  0  0  0  0  0  0
   -0.1568   -5.0991    0.0000 C   0  0  0  0  0  0  0  0  0  0  0  0
   -0.0000   -3.6073    0.0000 C   0  0  0  0  0  0  0  0  0  0  0  0
    1.2135   -2.7256    0.0000 N   0  0  0  0  0  4  0  0  0  0  0  0
    0.7500   -1.2990    0.0000 C   0  0  0  0  0  0  0  0  0  0  0  0
    1.5000    0.0000    0.0000 C   0  0  0  0  0  0  0  0  0  0  0  0
    0.7500    1.2990    0.0000 C   0  0  0  0  0  0  0  0  0  0  0  0
   -0.7500    1.2990    0.0000 C   0  0  0  0  0  0  0  0  0  0  0  0
   -1.5000    0.0000    0.0000 C   0  0  0  0  0  0  0  0  0  0  0  0
   -0.7500   -1.2990    0.0000 C   0  0  0  0  0  0  0  0  0  0  0  0
   -1.2135   -2.7256    0.0000 C   0  0  0  0  0  0  0  0  0  0  0  0
   -2.5838   -3.3357    0.0000 C   0  0  0  0  0  0  0  0  0  0  0  0
   -2.7406   -4.8275    0.0000 C   0  0  0  0  0  0  0  0  0  0  0  0
   -3.9542   -5.7092    0.0000 C   0  0  0  0  0  0  0  0  0  0  0  0
   -5.0553   -5.1957    0.0000 O   0  0  0  0  0  0  0  0  0  0  0  0
   -3.4906   -7.1358    0.0000 N   0  0  0  0  0  0  0  0  0  0  0  0
   -4.3723   -8.3493    0.0000 C   0  0  0  0  0  0  0  0  0  0  0  0
   -3.7622   -9.7196    0.0000 C   0  0  0  0  0  0  0  0  0  0  0  0
   -4.6439  -10.9331    0.0000 C   0  0  0  0  0  0  0  0  0  0  0  0
   -6.1357  -10.7763    0.0000 C   0  0  0  0  0  0  0  0  0  0  0  0
   -6.7458   -9.4060    0.0000 C   0  0  0  0  0  0  0  0  0  0  0  0
   -5.8641   -8.1925    0.0000 C   0  0  0  0  0  0  0  0  0  0  0  0
   -6.4742   -6.8222    0.0000 C   0  0  0  0  0  0  0  0  0  0  0  0
   -5.8852   -5.7595    0.0000 O   0  0  0  0  0  0  0  0  0  0  0  0
   -7.9660   -6.6654    0.0000 N   0  0  0  0  0  0  0  0  0  0  0  0
   -8.5761   -5.2951    0.0000 C   0  0  0  0  0  0  0  0  0  0  0  0
  -10.0679   -5.1383    0.0000 C   0  0  0  0  0  0  0  0  0  0  0  0
  -10.6780   -3.7680    0.0000 C   0  0  0  0  0  0  0  0  0  0  0  0
  -10.9496   -6.3518    0.0000 C   0  0  0  0  0  0  0  0  0  0  0  0
   -1.9906   -7.1358    0.0000 C   0  0  0  0  0  0  0  0  0  0  0  0
   -1.1090   -8.3493    0.0000 O   0  0  0  0  0  0  0  0  0  0  0  0
   -1.5271   -5.7092    0.0000 N   0  0  0  0  0  0  0  0  0  0  0  0
  1  2  1  0
  2  3  2  0
  3  4  1  0
  4  5  2  0
  5  6  1  0
  6  7  2  0
  8  7  1  1
  8  9  1  0
  9 10  1  1
 10 11  2  0
 11 12  1  0
 12 13  2  0
 13 14  1  0
 14 15  2  0
 15 16  1  0
 16 17  2  0
 17 18  1  0
 19 18  1  6
 19 20  1  0
 20 21  2  0
 20 22  1  0
 22 23  1  0
 23 24  2  0
 24 25  1  0
 25 26  2  0
 26 27  1  0
 27 28  2  0
 28 29  1  0
 29 30  2  0
 29 31  1  0
 31 32  1  0
 32 33  1  0
 33 34  1  0
 33 35  1  0
 22 36  1  0
 36 37  2  0
 36 38  1  0
  7  2  1  0
 38  8  1  0
 17  9  1  0
 38 19  1  0
 16 11  1  0
 28 23  1  0
M  CHG  1  10   1
M  END
>  <Compound_ID>  (652) 
C63376028

>  <Active>  (652) 
0.0

>  <Smiles>  (652) 
Cc1ccccc1[C@@H]1[C@@H]2[NH+]=c3ccccc3=C2C[C@H]2C(=O)N(c3ccccc3C(=O)NCC(C)C)C(=O)N12

>  <canonical_smi>  (652) 
Cc1ccccc1[C@@H]1[C@@H]2[NH+]=c3ccccc3=C2C[C@H]2C(=O)N(c3ccccc3C(=O)NCC(C)C)C(=O)N21

>  <Set>  (652) 
G2 inactive

>  <Set_type>  (652) 
Train

>  <MW>  (652) 
507.61

>  <HBD>  (652) 
2

>  <HBA>  (652) 
3

>  <NRB>  (652) 
5

>  <NR>  (652) 
6

>  <NAR>  (652) 
3

>  <PSA>  (652) 
83.69

>  <Standard Type>  (652) 
nan

>  <Standard Relation>  (652) 
nan

>  <Standard Units>  (652) 
nan

>  <Standard Value>  (652) 
nan

>  <Assay ChEMBL ID>  (652) 
nan

>  <Assay Description>  (652) 
nan

>  <BAO Label>  (652) 
nan

$$$$

     RDKit          2D

 34 37  0  0  0  0  0  0  0  0999 V2000
    4.7010   -8.5442    0.0000 C   0  0  0  0  0  0  0  0  0  0  0  0
    6.0000   -7.7942    0.0000 C   0  0  0  0  0  0  0  0  0  0  0  0
    7.2990   -7.0442    0.0000 C   0  0  0  0  0  0  0  0  0  0  0  0
    6.7500   -9.0933    0.0000 C   0  0  0  0  0  0  0  0  0  0  0  0
    5.2500   -6.4952    0.0000 C   0  0  0  0  0  0  0  0  0  0  0  0
    3.7500   -6.4952    0.0000 C   0  0  0  0  0  0  0  0  0  0  0  0
    3.0000   -5.1962    0.0000 C   0  0  0  0  0  0  0  0  0  0  0  0
    3.7500   -3.8971    0.0000 C   0  0  0  0  0  0  0  0  0  0  0  0
    3.0000   -2.5981    0.0000 C   0  0  0  0  0  0  0  0  0  0  0  0
    1.5000   -2.5981    0.0000 C   0  0  0  0  0  0  0  0  0  0  0  0
    0.7500   -1.2990    0.0000 C   0  0  0  0  0  0  0  0  0  0  0  0
    1.5000    0.0000    0.0000 C   0  0  0  0  0  0  0  0  0  0  0  0
    0.7500    1.2990    0.0000 C   0  0  0  0  0  0  0  0  0  0  0  0
   -0.7500    1.2990    0.0000 C   0  0  0  0  0  0  0  0  0  0  0  0
   -1.5000    0.0000    0.0000 C   0  0  0  0  0  0  0  0  0  0  0  0
   -0.7500   -1.2990    0.0000 C   0  0  0  0  0  0  0  0  0  0  0  0
   -2.9832   -0.2236    0.0000 C   0  0  0  0  0  0  0  0  0  0  0  0
   -3.4254   -1.6569    0.0000 O   0  0  0  0  0  0  0  0  0  0  0  0
   -4.0828    0.7967    0.0000 N   0  0  0  0  0  0  0  0  0  0  0  0
   -5.4343    0.1459    0.0000 C   0  0  0  0  0  0  0  0  0  0  0  0
   -6.6736    0.9909    0.0000 C   0  0  0  0  0  0  0  0  0  0  0  0
   -6.5615    2.4867    0.0000 C   0  0  0  0  0  0  0  0  0  0  0  0
   -7.8009    3.3316    0.0000 N   0  0  0  0  0  0  0  0  0  0  0  0
   -7.6888    4.8274    0.0000 S   0  0  0  0  0  0  0  0  0  0  0  0
   -7.5767    6.3232    0.0000 C   0  0  0  0  0  0  0  0  0  0  0  0
   -6.1930    4.7153    0.0000 O   0  0  0  0  0  0  0  0  0  0  0  0
   -9.1846    4.9395    0.0000 O   0  0  0  0  0  0  0  0  0  0  0  0
   -5.2101    3.1375    0.0000 C   0  0  0  0  0  0  0  0  0  0  0  0
   -3.9707    2.2925    0.0000 C   0  0  0  0  0  0  0  0  0  0  0  0
   -2.7314    3.1375    0.0000 C   0  0  0  0  0  0  0  0  0  0  0  0
   -2.9549    4.6207    0.0000 O   0  0  0  0  0  0  0  0  0  0  0  0
   -1.2980    2.6953    0.0000 N   0  0  0  0  0  0  0  0  0  0  0  0
    5.2500   -3.8971    0.0000 C   0  0  0  0  0  0  0  0  0  0  0  0
    6.0000   -5.1962    0.0000 C   0  0  0  0  0  0  0  0  0  0  0  0
  1  2  1  0
  2  3  1  0
  2  4  1  0
  2  5  1  0
  5  6  2  0
  6  7  1  0
  7  8  2  0
  8  9  1  0
  9 10  2  0
 10 11  1  0
 11 12  2  0
 12 13  1  0
 13 14  2  0
 14 15  1  0
 15 16  2  0
 15 17  1  0
 17 18  2  0
 17 19  1  0
 19 20  1  0
 20 21  1  0
 21 22  1  0
 22 23  1  6
 23 24  1  0
 24 25  1  0
 24 26  2  0
 24 27  2  0
 22 28  1  0
 29 28  1  1
 29 30  1  0
 30 31  2  0
 30 32  1  0
  8 33  1  0
 33 34  2  0
 34  5  1  0
 16 11  1  0
 29 19  1  0
 32 14  1  0
M  END
>  <Compound_ID>  (653) 
C15709382

>  <Active>  (653) 
0.0

>  <Smiles>  (653) 
CC(C)(C)c1ccc(/C=C/c2ccc3c(c2)C(=O)N2CC[C@H](NS(C)(=O)=O)C[C@H]2C(=O)N3)cc1

>  <canonical_smi>  (653) 
CC(C)(C)c1ccc(/C=C/c2ccc3c(c2)C(=O)N2CC[C@H](NS(C)(=O)=O)C[C@H]2C(=O)N3)cc1

>  <Set>  (653) 
G2 inactive

>  <Set_type>  (653) 
Train

>  <MW>  (653) 
481.62

>  <HBD>  (653) 
2

>  <HBA>  (653) 
4

>  <NRB>  (653) 
4

>  <NR>  (653) 
4

>  <NAR>  (653) 
2

>  <PSA>  (653) 
95.58

>  <Standard Type>  (653) 
nan

>  <Standard Relation>  (653) 
nan

>  <Standard Units>  (653) 
nan

>  <Standard Value>  (653) 
nan

>  <Assay ChEMBL ID>  (653) 
nan

>  <Assay Description>  (653) 
nan

>  <BAO Label>  (653) 
nan

$$$$

     RDKit          2D

 27 30  0  0  0  0  0  0  0  0999 V2000
    3.2808    0.0736    0.0000 N   0  0  0  0  0  0  0  0  0  0  0  0
    3.1240   -1.4182    0.0000 C   0  0  0  0  0  0  0  0  0  0  0  0
    2.9672   -2.9099    0.0000 C   0  0  0  0  0  0  0  0  0  0  0  0
    4.4672   -2.9099    0.0000 C   0  0  0  0  0  0  0  0  0  0  0  0
    5.9672   -2.9099    0.0000 N   0  0  0  0  0  0  0  0  0  0  0  0
    1.5000   -2.5981    0.0000 C   0  0  0  0  0  0  0  0  0  0  0  0
    0.7500   -1.2990    0.0000 C   0  0  0  0  0  0  0  0  0  0  0  0
    1.5000    0.0000    0.0000 C   0  0  0  0  0  0  0  0  0  0  0  0
    0.7500    1.2990    0.0000 C   0  0  0  0  0  0  0  0  0  0  0  0
   -0.7500    1.2990    0.0000 C   0  0  0  0  0  0  0  0  0  0  0  0
   -1.5000    0.0000    0.0000 C   0  0  0  0  0  0  0  0  0  0  0  0
   -0.7500   -1.2990    0.0000 C   0  0  0  0  0  0  0  0  0  0  0  0
   -1.5000   -2.5981    0.0000 C   0  0  0  0  0  0  0  0  0  0  0  0
   -0.7500   -3.8971    0.0000 C   0  0  0  0  0  0  0  0  0  0  0  0
    0.7500   -3.8971    0.0000 N   0  0  0  0  0  0  0  0  0  0  0  0
    1.7537   -5.0118    0.0000 C   0  0  0  0  0  0  0  0  0  0  0  0
    1.4418   -6.4791    0.0000 C   0  0  0  0  0  0  0  0  0  0  0  0
    0.0152   -6.9426    0.0000 N   0  0  0  0  0  0  0  0  0  0  0  0
    2.5565   -7.4827    0.0000 O   0  0  0  0  0  0  0  0  0  0  0  0
    3.1240   -4.4017    0.0000 C   0  0  0  0  0  0  0  0  0  0  0  0
    4.4231   -5.1517    0.0000 C   0  0  0  0  0  0  0  0  0  0  0  0
    4.4231   -6.6517    0.0000 C   0  0  0  0  0  0  0  0  0  0  0  0
    5.7221   -7.4017    0.0000 C   0  0  0  0  0  0  0  0  0  0  0  0
    7.0211   -6.6517    0.0000 C   0  0  0  0  0  0  0  0  0  0  0  0
    7.0211   -5.1517    0.0000 C   0  0  0  0  0  0  0  0  0  0  0  0
    8.3202   -4.4017    0.0000 I   0  0  0  0  0  0  0  0  0  0  0  0
    5.7221   -4.4017    0.0000 C   0  0  0  0  0  0  0  0  0  0  0  0
  1  2  3  0
  2  3  1  0
  3  4  1  0
  4  5  3  0
  6  3  1  1
  6  7  1  0
  7  8  2  0
  8  9  1  0
  9 10  2  0
 10 11  1  0
 11 12  2  0
 12 13  1  0
 13 14  2  0
 14 15  1  0
 15 16  1  0
 16 17  1  6
 17 18  1  0
 17 19  2  0
 16 20  1  0
 20 21  1  1
 21 22  2  0
 22 23  1  0
 23 24  2  0
 24 25  1  0
 25 26  1  0
 25 27  2  0
 20  3  1  0
 27 21  1  0
 15  6  1  0
 12  7  1  0
M  END
>  <Compound_ID>  (654) 
C19805014

>  <Active>  (654) 
0.0

>  <Smiles>  (654) 
N#CC1(C#N)[C@@H]2c3ccccc3C=CN2[C@@H](C(N)=O)[C@@H]1c1cccc(I)c1

>  <canonical_smi>  (654) 
N#CC1(C#N)[C@@H]2c3ccccc3C=CN2[C@@H](C(N)=O)[C@@H]1c1cccc(I)c1

>  <Set>  (654) 
G2 inactive

>  <Set_type>  (654) 
Train

>  <MW>  (654) 
466.28

>  <HBD>  (654) 
1

>  <HBA>  (654) 
4

>  <NRB>  (654) 
2

>  <NR>  (654) 
4

>  <NAR>  (654) 
2

>  <PSA>  (654) 
93.91

>  <Standard Type>  (654) 
nan

>  <Standard Relation>  (654) 
nan

>  <Standard Units>  (654) 
nan

>  <Standard Value>  (654) 
nan

>  <Assay ChEMBL ID>  (654) 
nan

>  <Assay Description>  (654) 
nan

>  <BAO Label>  (654) 
nan

$$$$

     RDKit          2D

 32 34  0  0  0  0  0  0  0  0999 V2000
  -14.2500    3.8971    0.0000 C   0  0  0  0  0  0  0  0  0  0  0  0
  -12.7500    3.8971    0.0000 O   0  0  0  0  0  0  0  0  0  0  0  0
  -12.0000    2.5981    0.0000 C   0  0  0  0  0  0  0  0  0  0  0  0
  -10.5000    2.5981    0.0000 C   0  0  0  0  0  0  0  0  0  0  0  0
   -9.7500    1.2990    0.0000 N   0  0  0  0  0  0  0  0  0  0  0  0
   -8.2500    1.2990    0.0000 C   0  0  0  0  0  0  0  0  0  0  0  0
   -7.5000    2.5981    0.0000 O   0  0  0  0  0  0  0  0  0  0  0  0
   -7.5000   -0.0000    0.0000 N   0  0  0  0  0  0  0  0  0  0  0  0
   -6.0000   -0.0000    0.0000 C   0  0  0  0  0  0  0  0  0  0  0  0
   -5.2500    1.2990    0.0000 O   0  0  0  0  0  0  0  0  0  0  0  0
   -5.2500   -1.2990    0.0000 C   0  0  0  0  0  0  0  0  0  0  0  0
   -3.7500   -1.2990    0.0000 O   0  0  0  0  0  0  0  0  0  0  0  0
   -3.0000   -2.5981    0.0000 C   0  0  0  0  0  0  0  0  0  0  0  0
   -3.7500   -3.8971    0.0000 O   0  0  0  0  0  0  0  0  0  0  0  0
   -1.5000   -2.5981    0.0000 C   0  0  0  0  0  0  0  0  0  0  0  0
   -0.7500   -3.8971    0.0000 C   0  0  0  0  0  0  0  0  0  0  0  0
    0.7500   -3.8971    0.0000 C   0  0  0  0  0  0  0  0  0  0  0  0
    1.5000   -2.5981    0.0000 N   0  0  0  0  0  0  0  0  0  0  0  0
    0.7500   -1.2990    0.0000 C   0  0  0  0  0  0  0  0  0  0  0  0
    1.5000    0.0000    0.0000 C   0  0  0  0  0  0  0  0  0  0  0  0
    0.7500    1.2990    0.0000 C   0  0  0  0  0  0  0  0  0  0  0  0
   -0.7500    1.2990    0.0000 C   0  0  0  0  0  0  0  0  0  0  0  0
   -1.5000    0.0000    0.0000 C   0  0  0  0  0  0  0  0  0  0  0  0
   -0.7500   -1.2990    0.0000 C   0  0  0  0  0  0  0  0  0  0  0  0
    1.5000   -5.1962    0.0000 C   0  0  0  0  0  0  0  0  0  0  0  0
    0.7500   -6.4952    0.0000 C   0  0  0  0  0  0  0  0  0  0  0  0
   -0.7500   -6.4952    0.0000 C   0  0  0  0  0  0  0  0  0  0  0  0
   -1.5000   -7.7942    0.0000 C   0  0  0  0  0  0  0  0  0  0  0  0
   -2.7990   -7.0442    0.0000 C   0  0  0  0  0  0  0  0  0  0  0  0
   -0.2010   -8.5442    0.0000 C   0  0  0  0  0  0  0  0  0  0  0  0
   -2.2500   -9.0933    0.0000 C   0  0  0  0  0  0  0  0  0  0  0  0
   -1.5000   -5.1962    0.0000 C   0  0  0  0  0  0  0  0  0  0  0  0
  1  2  1  0
  2  3  1  0
  3  4  1  0
  4  5  1  0
  5  6  1  0
  6  7  2  0
  6  8  1  0
  8  9  1  0
  9 10  2  0
  9 11  1  0
 11 12  1  0
 12 13  1  0
 13 14  2  0
 13 15  1  0
 15 16  2  0
 16 17  1  0
 17 18  2  0
 18 19  1  0
 19 20  2  0
 20 21  1  0
 21 22  2  0
 22 23  1  0
 23 24  2  0
 17 25  1  0
 25 26  1  0
 26 27  1  0
 27 28  1  1
 28 29  1  0
 28 30  1  0
 28 31  1  0
 27 32  1  0
 24 15  1  0
 32 16  1  0
 24 19  1  0
M  END
>  <Compound_ID>  (655) 
C15222637

>  <Active>  (655) 
0.0

>  <Smiles>  (655) 
COCCNC(=O)NC(=O)COC(=O)c1c2c(nc3ccccc13)CC[C@@H](C(C)(C)C)C2

>  <canonical_smi>  (655) 
COCCNC(=O)NC(=O)COC(=O)c1c2c(nc3ccccc13)CC[C@@H](C(C)(C)C)C2

>  <Set>  (655) 
G2 inactive

>  <Set_type>  (655) 
Train

>  <MW>  (655) 
441.53

>  <HBD>  (655) 
2

>  <HBA>  (655) 
6

>  <NRB>  (655) 
6

>  <NR>  (655) 
3

>  <NAR>  (655) 
2

>  <PSA>  (655) 
106.62

>  <Standard Type>  (655) 
nan

>  <Standard Relation>  (655) 
nan

>  <Standard Units>  (655) 
nan

>  <Standard Value>  (655) 
nan

>  <Assay ChEMBL ID>  (655) 
nan

>  <Assay Description>  (655) 
nan

>  <BAO Label>  (655) 
nan

$$$$

     RDKit          2D

 20 22  0  0  0  0  0  0  0  0999 V2000
    3.0545  -11.4035    0.0000 N   0  0  0  0  0  0  0  0  0  0  0  0
    3.2113   -9.9118    0.0000 C   0  0  0  0  0  0  0  0  0  0  0  0
    3.3681   -8.4200    0.0000 C   0  0  0  0  0  0  0  0  0  0  0  0
    2.1546   -7.5383    0.0000 C   0  0  0  0  0  0  0  0  0  0  0  0
    2.3113   -6.0465    0.0000 C   0  0  0  0  0  0  0  0  0  0  0  0
    1.0978   -5.1648    0.0000 N   0  0  0  0  0  0  0  0  0  0  0  0
    1.2546   -3.6731    0.0000 C   0  0  0  0  0  0  0  0  0  0  0  0
    0.1399   -2.6694    0.0000 N   0  0  0  0  0  0  0  0  0  0  0  0
    0.7500   -1.2990    0.0000 C   0  0  0  0  0  0  0  0  0  0  0  0
    1.5000    0.0000    0.0000 C   0  0  0  0  0  0  0  0  0  0  0  0
    0.7500    1.2990    0.0000 C   0  0  0  0  0  0  0  0  0  0  0  0
   -0.7500    1.2990    0.0000 C   0  0  0  0  0  0  0  0  0  0  0  0
   -1.5000    0.0000    0.0000 C   0  0  0  0  0  0  0  0  0  0  0  0
   -0.7500   -1.2990    0.0000 C   0  0  0  0  0  0  0  0  0  0  0  0
    2.2418   -1.4558    0.0000 C   0  0  0  0  0  0  0  0  0  0  0  0
    2.5537   -2.9231    0.0000 S   0  0  0  0  0  0  0  0  0  0  0  0
    3.6817   -5.4364    0.0000 C   0  0  0  0  0  0  0  0  0  0  0  0
    4.8952   -6.3181    0.0000 C   0  0  0  0  0  0  0  0  0  0  0  0
    4.7384   -7.8099    0.0000 C   0  0  0  0  0  0  0  0  0  0  0  0
    5.9519   -8.6915    0.0000 F   0  0  0  0  0  0  0  0  0  0  0  0
  1  2  3  0
  2  3  1  0
  3  4  2  0
  4  5  1  0
  5  6  1  0
  6  7  2  0
  7  8  1  0
  8  9  1  0
  9 10  1  0
 10 11  1  0
 11 12  1  0
 12 13  1  0
 13 14  1  0
  9 15  1  0
 15 16  1  0
  5 17  2  0
 17 18  1  0
 18 19  2  0
 19 20  1  0
 19  3  1  0
 16  7  1  0
 14  9  1  0
M  END
>  <Compound_ID>  (656) 
C53098379

>  <Active>  (656) 
0.0

>  <Smiles>  (656) 
N#Cc1cc(/N=C2/NC3(CCCCC3)CS2)ccc1F

>  <canonical_smi>  (656) 
N#Cc1cc(/N=C2/NC3(CCCCC3)CS2)ccc1F

>  <Set>  (656) 
G2 inactive

>  <Set_type>  (656) 
Train

>  <MW>  (656) 
289.38

>  <HBD>  (656) 
1

>  <HBA>  (656) 
3

>  <NRB>  (656) 
1

>  <NR>  (656) 
3

>  <NAR>  (656) 
1

>  <PSA>  (656) 
48.18

>  <Standard Type>  (656) 
nan

>  <Standard Relation>  (656) 
nan

>  <Standard Units>  (656) 
nan

>  <Standard Value>  (656) 
nan

>  <Assay ChEMBL ID>  (656) 
nan

>  <Assay Description>  (656) 
nan

>  <BAO Label>  (656) 
nan

$$$$

     RDKit          2D

 35 37  0  0  0  0  0  0  0  0999 V2000
    8.2837   13.3382    0.0000 C   0  0  0  0  0  0  0  0  0  0  0  0
    6.8571   12.8747    0.0000 C   0  0  0  0  0  0  0  0  0  0  0  0
    6.5453   11.4074    0.0000 C   0  0  0  0  0  0  0  0  0  0  0  0
    5.1187   10.9439    0.0000 C   0  0  0  0  0  0  0  0  0  0  0  0
    4.8068    9.4767    0.0000 C   0  0  0  0  0  0  0  0  0  0  0  0
    3.3802    9.0132    0.0000 C   0  0  0  0  0  0  0  0  0  0  0  0
    3.0684    7.5459    0.0000 N   0  0  0  0  0  0  0  0  0  0  0  0
    1.6418    7.0824    0.0000 C   0  0  0  0  0  0  0  0  0  0  0  0
    0.5271    8.0861    0.0000 O   0  0  0  0  0  0  0  0  0  0  0  0
    1.3299    5.6152    0.0000 C   0  0  0  0  0  0  0  0  0  0  0  0
   -0.0967    5.1517    0.0000 C   0  0  0  0  0  0  0  0  0  0  0  0
   -0.4086    3.6844    0.0000 C   0  0  0  0  0  0  0  0  0  0  0  0
   -1.8351    3.2209    0.0000 C   0  0  0  0  0  0  0  0  0  0  0  0
   -2.9499    4.2246    0.0000 C   0  0  0  0  0  0  0  0  0  0  0  0
   -2.6380    5.6918    0.0000 C   0  0  0  0  0  0  0  0  0  0  0  0
   -3.7527    6.6955    0.0000 N   0  0  0  0  0  0  0  0  0  0  0  0
   -3.4408    8.1628    0.0000 C   0  0  0  0  0  0  0  0  0  0  0  0
   -5.1793    6.2320    0.0000 C   0  0  0  0  0  0  0  0  0  0  0  0
   -5.4912    4.7648    0.0000 S   0  0  0  0  0  0  0  0  0  0  0  0
   -6.2940    7.2357    0.0000 N   0  0  0  0  0  0  0  0  0  0  0  0
   -7.7206    6.7722    0.0000 C   0  0  0  0  0  0  0  0  0  0  0  0
   -2.1470    1.7537    0.0000 C   0  0  0  0  0  0  0  0  0  0  0  0
   -1.0323    0.7500    0.0000 C   0  0  0  0  0  0  0  0  0  0  0  0
    0.3943    1.2135    0.0000 C   0  0  0  0  0  0  0  0  0  0  0  0
    0.7062    2.6807    0.0000 C   0  0  0  0  0  0  0  0  0  0  0  0
    2.1328    3.1443    0.0000 O   0  0  0  0  0  0  0  0  0  0  0  0
    3.2475    2.1406    0.0000 C   0  0  0  0  0  0  0  0  0  0  0  0
    1.2760    0.0000    0.0000 O   0  0  0  0  0  0  0  0  0  0  0  0
    0.3943   -1.2135    0.0000 C   0  0  0  0  0  0  0  0  0  0  0  0
   -1.0323   -0.7500    0.0000 O   0  0  0  0  0  0  0  0  0  0  0  0
    2.4446    4.6115    0.0000 C   0  0  0  0  0  0  0  0  0  0  0  0
    2.4725    3.8148    0.0000 O   0  0  0  0  0  0  0  0  0  0  0  0
    3.8712    5.0750    0.0000 N   0  0  0  0  0  0  0  0  0  0  0  0
    4.1831    6.5422    0.0000 C   0  0  0  0  0  0  0  0  0  0  0  0
    5.6097    7.0058    0.0000 O   0  0  0  0  0  0  0  0  0  0  0  0
  1  2  1  0
  2  3  1  0
  3  4  1  0
  4  5  1  0
  5  6  1  0
  6  7  1  0
  7  8  1  0
  8  9  2  0
  8 10  1  0
 10 11  2  0
 11 12  1  0
 12 13  2  0
 13 14  1  0
 14 15  1  0
 15 16  1  0
 16 17  1  0
 16 18  1  0
 18 19  2  0
 18 20  1  0
 20 21  1  0
 13 22  1  0
 22 23  2  0
 23 24  1  0
 24 25  2  0
 25 26  1  0
 26 27  1  0
 24 28  1  0
 28 29  1  0
 29 30  1  0
 10 31  1  0
 31 32  2  0
 31 33  1  0
 33 34  2  0
 34 35  1  0
 34  7  1  0
 25 12  1  0
 30 23  1  0
M  END
>  <Compound_ID>  (657) 
C17180953

>  <Active>  (657) 
0.0

>  <Smiles>  (657) 
CCCCCCN1C(=O)/C(=C/c2c(CCN(C)C(=S)NC)cc3c(c2OC)OCO3)C(=O)N=C1O

>  <canonical_smi>  (657) 
CCCCCCN1C(=O)/C(=C/c2c(CCN(C)C(=S)NC)cc3c(c2OC)OCO3)C(=O)N=C1O

>  <Set>  (657) 
G2 inactive

>  <Set_type>  (657) 
Train

>  <MW>  (657) 
504.61

>  <HBD>  (657) 
2

>  <HBA>  (657) 
9

>  <NRB>  (657) 
10

>  <NR>  (657) 
3

>  <NAR>  (657) 
1

>  <PSA>  (657) 
112.93

>  <Standard Type>  (657) 
nan

>  <Standard Relation>  (657) 
nan

>  <Standard Units>  (657) 
nan

>  <Standard Value>  (657) 
nan

>  <Assay ChEMBL ID>  (657) 
nan

>  <Assay Description>  (657) 
nan

>  <BAO Label>  (657) 
nan

$$$$

     RDKit          2D

 27 30  0  0  0  0  0  0  0  0999 V2000
   -1.5000   -5.1962    0.0000 O   0  0  0  0  0  0  0  0  0  0  0  0
   -0.7500   -3.8971    0.0000 C   0  0  0  0  0  0  0  0  0  0  0  0
    0.7500   -3.8971    0.0000 C   0  0  0  0  0  0  0  0  0  0  0  0
    1.7537   -5.0118    0.0000 C   0  0  0  0  0  0  0  0  0  0  0  0
    3.1240   -4.4017    0.0000 C   0  0  0  0  0  0  0  0  0  0  0  0
    2.9672   -2.9099    0.0000 C   0  0  0  0  0  0  0  0  0  0  0  0
    1.5000   -2.5981    0.0000 N   0  0  0  0  0  0  0  0  0  0  0  0
    0.7500   -1.2990    0.0000 C   0  0  0  0  0  0  0  0  0  0  0  0
    1.5000    0.0000    0.0000 N   0  0  0  0  0  0  0  0  0  0  0  0
    0.7500    1.2990    0.0000 C   0  0  0  0  0  0  0  0  0  0  0  0
   -0.7500    1.2990    0.0000 C   0  0  0  0  0  0  0  0  0  0  0  0
   -1.5000    0.0000    0.0000 C   0  0  0  0  0  0  0  0  0  0  0  0
   -0.7500   -1.2990    0.0000 C   0  0  0  0  0  0  0  0  0  0  0  0
   -1.5000   -2.5981    0.0000 N   0  0  0  0  0  0  0  0  0  0  0  0
   -3.0000   -2.5981    0.0000 C   0  0  0  0  0  0  0  0  0  0  0  0
   -3.7500   -1.2990    0.0000 C   0  0  0  0  0  0  0  0  0  0  0  0
   -5.2500   -1.2990    0.0000 N   0  0  0  0  0  0  0  0  0  0  0  0
   -6.0000   -0.0000    0.0000 C   0  0  0  0  0  0  0  0  0  0  0  0
   -5.2500    1.2990    0.0000 S   0  0  0  0  0  0  0  0  0  0  0  0
   -7.5000   -0.0000    0.0000 N   0  0  0  0  0  0  0  0  0  0  0  0
   -8.2500    1.2990    0.0000 C   0  0  0  0  0  0  0  0  0  0  0  0
   -7.5000    2.5981    0.0000 C   0  0  0  0  0  0  0  0  0  0  0  0
   -8.2500    3.8971    0.0000 C   0  0  0  0  0  0  0  0  0  0  0  0
   -9.7500    3.8971    0.0000 C   0  0  0  0  0  0  0  0  0  0  0  0
  -10.5000    5.1962    0.0000 Br  0  0  0  0  0  0  0  0  0  0  0  0
  -10.5000    2.5981    0.0000 C   0  0  0  0  0  0  0  0  0  0  0  0
   -9.7500    1.2990    0.0000 N   0  0  0  0  0  0  0  0  0  0  0  0
  1  2  2  0
  2  3  1  0
  3  4  2  0
  4  5  1  0
  5  6  2  0
  6  7  1  0
  7  8  1  0
  8  9  2  0
  9 10  1  0
 10 11  2  0
 11 12  1  0
 12 13  2  0
 13 14  1  0
 14 15  1  0
 15 16  1  0
 16 17  1  0
 17 18  1  0
 18 19  2  0
 18 20  1  0
 20 21  1  0
 21 22  2  0
 22 23  1  0
 23 24  2  0
 24 25  1  0
 24 26  1  0
 26 27  2  0
 14  2  1  0
 27 21  1  0
  7  3  1  0
 13  8  1  0
M  END
>  <Compound_ID>  (658) 
C13861549

>  <Active>  (658) 
0.0

>  <Smiles>  (658) 
O=c1c2cccn2c2ncccc2n1CCNC(=S)Nc1ccc(Br)cn1

>  <canonical_smi>  (658) 
O=c1c2cccn2c2ncccc2n1CCNC(=S)Nc1ccc(Br)cn1

>  <Set>  (658) 
G2 inactive

>  <Set_type>  (658) 
Train

>  <MW>  (658) 
443.33

>  <HBD>  (658) 
2

>  <HBA>  (658) 
6

>  <NRB>  (658) 
4

>  <NR>  (658) 
4

>  <NAR>  (658) 
4

>  <PSA>  (658) 
76.25

>  <Standard Type>  (658) 
nan

>  <Standard Relation>  (658) 
nan

>  <Standard Units>  (658) 
nan

>  <Standard Value>  (658) 
nan

>  <Assay ChEMBL ID>  (658) 
nan

>  <Assay Description>  (658) 
nan

>  <BAO Label>  (658) 
nan

$$$$

     RDKit          2D

 28 30  0  0  0  0  0  0  0  0999 V2000
    2.6491    0.9642    0.0000 C   0  0  0  0  0  0  0  0  0  0  0  0
    1.5000    0.0000    0.0000 C   0  0  0  0  0  0  0  0  0  0  0  0
    2.6491   -0.9642    0.0000 C   0  0  0  0  0  0  0  0  0  0  0  0
    0.7500   -1.2990    0.0000 C   0  0  0  0  0  0  0  0  0  0  0  0
    1.5000   -2.5981    0.0000 N   0  0  0  0  0  4  0  0  0  0  0  0
    0.7500   -3.8971    0.0000 O   0  0  0  0  0  0  0  0  0  0  0  0
    3.0000   -2.5981    0.0000 O   0  0  0  0  0  1  0  0  0  0  0  0
   -0.7500   -1.2990    0.0000 C   0  0  0  0  0  0  0  0  0  0  0  0
   -1.5000   -2.5981    0.0000 C   0  0  0  0  0  0  0  0  0  0  0  0
   -3.0000   -2.5981    0.0000 C   0  0  0  0  0  0  0  0  0  0  0  0
   -3.7500   -3.8971    0.0000 C   0  0  0  0  0  0  0  0  0  0  0  0
   -3.0000   -5.1962    0.0000 C   0  0  0  0  0  0  0  0  0  0  0  0
   -3.7500   -6.4952    0.0000 O   0  0  0  0  0  0  0  0  0  0  0  0
   -1.5000   -5.1962    0.0000 C   0  0  0  0  0  0  0  0  0  0  0  0
   -0.7500   -3.8971    0.0000 C   0  0  0  0  0  0  0  0  0  0  0  0
   -1.5000    0.0000    0.0000 N   0  0  0  0  0  4  0  0  0  0  0  0
   -0.7500    1.2990    0.0000 C   0  0  0  0  0  0  0  0  0  0  0  0
   -1.5000    2.5981    0.0000 C   0  0  0  0  0  0  0  0  0  0  0  0
   -0.7500    3.8971    0.0000 C   0  0  0  0  0  0  0  0  0  0  0  0
   -1.5000    5.1962    0.0000 C   0  0  0  0  0  0  0  0  0  0  0  0
   -3.0000    5.1962    0.0000 C   0  0  0  0  0  0  0  0  0  0  0  0
   -3.7500    6.4952    0.0000 O   0  0  0  0  0  0  0  0  0  0  0  0
   -3.7500    3.8971    0.0000 C   0  0  0  0  0  0  0  0  0  0  0  0
   -3.0000    2.5981    0.0000 C   0  0  0  0  0  0  0  0  0  0  0  0
    0.7500    1.2990    0.0000 C   0  0  0  0  0  0  0  0  0  0  0  0
    1.5000    2.5981    0.0000 N   0  0  0  0  0  4  0  0  0  0  0  0
    0.7500    3.8971    0.0000 O   0  0  0  0  0  0  0  0  0  0  0  0
    3.0000    2.5981    0.0000 O   0  0  0  0  0  1  0  0  0  0  0  0
  1  2  1  0
  2  3  1  0
  2  4  1  0
  4  5  1  1
  5  6  2  0
  5  7  1  0
  4  8  1  0
  8  9  1  1
  9 10  2  0
 10 11  1  0
 11 12  2  0
 12 13  1  0
 12 14  1  0
 14 15  2  0
  8 16  1  0
 16 17  1  0
 17 18  1  6
 18 19  2  0
 19 20  1  0
 20 21  2  0
 21 22  1  0
 21 23  1  0
 23 24  2  0
 17 25  1  0
 25 26  1  1
 26 27  2  0
 26 28  1  0
 25  2  1  0
 15  9  1  0
 24 18  1  0
M  CHG  5   5   1   7  -1  16   1  26   1  28  -1
M  END
>  <Compound_ID>  (659) 
C08686565

>  <Active>  (659) 
0.0

>  <Smiles>  (659) 
CC1(C)[C@@H]([N+](=O)[O-])[C@@H](c2ccc(O)cc2)[NH2+][C@H](c2ccc(O)cc2)[C@H]1[N+](=O)[O-]

>  <canonical_smi>  (659) 
CC1(C)[C@H]([N+](=O)[O-])[C@@H](c2ccc(O)cc2)[NH2+][C@H](c2ccc(O)cc2)[C@@H]1[N+](=O)[O-]

>  <Set>  (659) 
G2 inactive

>  <Set_type>  (659) 
Train

>  <MW>  (659) 
388.4

>  <HBD>  (659) 
3

>  <HBA>  (659) 
6

>  <NRB>  (659) 
4

>  <NR>  (659) 
3

>  <NAR>  (659) 
2

>  <PSA>  (659) 
143.35

>  <Standard Type>  (659) 
nan

>  <Standard Relation>  (659) 
nan

>  <Standard Units>  (659) 
nan

>  <Standard Value>  (659) 
nan

>  <Assay ChEMBL ID>  (659) 
nan

>  <Assay Description>  (659) 
nan

>  <BAO Label>  (659) 
nan

$$$$

     RDKit          2D

 30 33  0  0  0  0  0  0  0  0999 V2000
    3.0000    0.0000    0.0000 N   0  0  0  0  0  0  0  0  0  0  0  0
    1.5000    0.0000    0.0000 C   0  0  0  0  0  0  0  0  0  0  0  0
    0.7500   -1.2990    0.0000 N   0  0  0  0  0  0  0  0  0  0  0  0
   -0.7500   -1.2990    0.0000 C   0  0  0  0  0  0  0  0  0  0  0  0
   -1.5000   -2.5981    0.0000 C   0  0  0  0  0  0  0  0  0  0  0  0
   -3.0000   -2.5981    0.0000 C   0  0  0  0  0  0  0  0  0  0  0  0
   -3.7500   -3.8971    0.0000 C   0  0  0  0  0  0  0  0  0  0  0  0
   -3.0000   -5.1962    0.0000 C   0  0  0  0  0  0  0  0  0  0  0  0
   -3.7500   -6.4952    0.0000 Cl  0  0  0  0  0  0  0  0  0  0  0  0
   -1.5000   -5.1962    0.0000 C   0  0  0  0  0  0  0  0  0  0  0  0
   -0.7500   -6.4952    0.0000 Cl  0  0  0  0  0  0  0  0  0  0  0  0
   -0.7500   -3.8971    0.0000 C   0  0  0  0  0  0  0  0  0  0  0  0
   -1.5000    0.0000    0.0000 C   0  0  0  0  0  0  0  0  0  0  0  0
   -0.7500    1.2990    0.0000 C   0  0  0  0  0  0  0  0  0  0  0  0
   -1.5000    2.5981    0.0000 C   0  0  0  0  0  0  0  0  0  0  0  0
   -0.7500    3.8971    0.0000 C   0  0  0  0  0  0  0  0  0  0  0  0
   -1.5000    5.1962    0.0000 C   0  0  0  0  0  0  0  0  0  0  0  0
   -0.7500    6.4952    0.0000 C   0  0  0  0  0  0  0  0  0  0  0  0
    0.7500    6.4952    0.0000 C   0  0  0  0  0  0  0  0  0  0  0  0
    1.5000    7.7942    0.0000 C   0  0  0  0  0  0  0  0  0  0  0  0
    0.7500    9.0933    0.0000 C   0  0  0  0  0  0  0  0  0  0  0  0
    1.5000   10.3923    0.0000 Cl  0  0  0  0  0  0  0  0  0  0  0  0
   -0.7500    9.0933    0.0000 C   0  0  0  0  0  0  0  0  0  0  0  0
   -1.5000   10.3923    0.0000 Cl  0  0  0  0  0  0  0  0  0  0  0  0
   -1.5000    7.7942    0.0000 C   0  0  0  0  0  0  0  0  0  0  0  0
   -3.0000    5.1962    0.0000 N   0  0  0  0  0  0  0  0  0  0  0  0
   -3.7500    3.8971    0.0000 C   0  0  0  0  0  0  0  0  0  0  0  0
   -5.2500    3.8971    0.0000 N   0  0  0  0  0  0  0  0  0  0  0  0
   -3.0000    2.5981    0.0000 N   0  0  0  0  0  0  0  0  0  0  0  0
    0.7500    1.2990    0.0000 N   0  0  0  0  0  0  0  0  0  0  0  0
  1  2  1  0
  2  3  2  0
  3  4  1  0
  4  5  1  0
  5  6  2  0
  6  7  1  0
  7  8  2  0
  8  9  1  0
  8 10  1  0
 10 11  1  0
 10 12  2  0
  4 13  2  0
 13 14  1  0
 14 15  1  0
 15 16  2  0
 16 17  1  0
 17 18  1  0
 18 19  2  0
 19 20  1  0
 20 21  2  0
 21 22  1  0
 21 23  1  0
 23 24  1  0
 23 25  2  0
 17 26  2  0
 26 27  1  0
 27 28  1  0
 27 29  2  0
 14 30  2  0
 30  2  1  0
 12  5  1  0
 29 15  1  0
 25 18  1  0
M  END
>  <Compound_ID>  (660) 
C01588433

>  <Active>  (660) 
0.0

>  <Smiles>  (660) 
Nc1nc(-c2ccc(Cl)c(Cl)c2)cc(-c2cc(-c3ccc(Cl)c(Cl)c3)nc(N)n2)n1

>  <canonical_smi>  (660) 
Nc1nc(-c2ccc(Cl)c(Cl)c2)cc(-c2cc(-c3ccc(Cl)c(Cl)c3)nc(N)n2)n1

>  <Set>  (660) 
G2 inactive

>  <Set_type>  (660) 
Train

>  <MW>  (660) 
478.17

>  <HBD>  (660) 
2

>  <HBA>  (660) 
6

>  <NRB>  (660) 
3

>  <NR>  (660) 
4

>  <NAR>  (660) 
4

>  <PSA>  (660) 
103.6

>  <Standard Type>  (660) 
nan

>  <Standard Relation>  (660) 
nan

>  <Standard Units>  (660) 
nan

>  <Standard Value>  (660) 
nan

>  <Assay ChEMBL ID>  (660) 
nan

>  <Assay Description>  (660) 
nan

>  <BAO Label>  (660) 
nan

$$$$

     RDKit          2D

 33 36  0  0  0  0  0  0  0  0999 V2000
    5.3741    6.0000    0.0000 C   0  0  0  0  0  0  0  0  0  0  0  0
    5.3741    4.5000    0.0000 C   0  0  0  0  0  0  0  0  0  0  0  0
    6.6731    3.7500    0.0000 C   0  0  0  0  0  0  0  0  0  0  0  0
    4.0750    3.7500    0.0000 C   0  0  0  0  0  0  0  0  0  0  0  0
    4.0750    2.2500    0.0000 C   0  0  0  0  0  0  0  0  0  0  0  0
    2.7760    1.5000    0.0000 C   0  0  0  0  0  0  0  0  0  0  0  0
    2.7760    0.0000    0.0000 C   0  0  0  0  0  0  0  0  0  0  0  0
    2.7760   -1.5000    0.0000 C   0  0  0  0  0  0  0  0  0  0  0  0
    4.2760    0.0000    0.0000 O   0  0  0  0  0  0  0  0  0  0  0  0
    1.2760    0.0000    0.0000 C   0  0  0  0  0  0  0  0  0  0  0  0
    0.3943    1.2135    0.0000 C   0  0  0  0  0  0  0  0  0  0  0  0
   -1.0323    0.7500    0.0000 C   0  0  0  0  0  0  0  0  0  0  0  0
   -1.0323   -0.7500    0.0000 C   0  0  0  0  0  0  0  0  0  0  0  0
   -0.5688   -2.1766    0.0000 C   0  0  0  0  0  0  0  0  0  0  0  0
    0.3943   -1.2135    0.0000 C   0  0  0  0  0  0  0  0  0  0  0  0
    0.7062   -2.6807    0.0000 C   0  0  0  0  0  0  0  0  0  0  0  0
    2.1328   -3.1443    0.0000 O   0  0  0  0  0  0  0  0  0  0  0  0
   -0.4086   -3.6844    0.0000 C   0  0  0  0  0  0  0  0  0  0  0  0
   -1.8351   -3.2209    0.0000 C   0  0  0  0  0  0  0  0  0  0  0  0
   -2.9499   -4.2246    0.0000 C   0  0  0  0  0  0  0  0  0  0  0  0
   -1.5233   -4.6881    0.0000 C   0  0  0  0  0  0  0  0  0  0  0  0
   -2.6380   -5.6918    0.0000 C   0  0  0  0  0  0  0  0  0  0  0  0
   -3.7527   -6.6955    0.0000 C   0  0  0  0  0  0  0  0  0  0  0  0
   -5.1793   -6.2320    0.0000 C   0  0  0  0  0  0  0  0  0  0  0  0
   -6.2940   -7.2357    0.0000 O   0  0  0  0  0  0  0  0  0  0  0  0
   -5.4912   -4.7648    0.0000 C   0  0  0  0  0  0  0  0  0  0  0  0
   -6.2860   -3.4927    0.0000 C   0  0  0  0  0  0  0  0  0  0  0  0
   -6.8819   -5.3267    0.0000 C   0  0  0  0  0  0  0  0  0  0  0  0
   -4.3764   -3.7611    0.0000 C   0  0  0  0  0  0  0  0  0  0  0  0
   -4.6883   -2.2939    0.0000 C   0  0  0  0  0  0  0  0  0  0  0  0
   -3.5736   -1.2902    0.0000 C   0  0  0  0  0  0  0  0  0  0  0  0
   -2.1470   -1.7537    0.0000 C   0  0  0  0  0  0  0  0  0  0  0  0
   -2.4589   -0.2865    0.0000 C   0  0  0  0  0  0  0  0  0  0  0  0
  1  2  1  0
  2  3  1  0
  2  4  2  0
  4  5  1  0
  5  6  1  0
  6  7  1  0
  7  8  1  1
  7  9  1  0
  7 10  1  0
 10 11  1  1
 11 12  1  0
 12 13  1  0
 13 14  1  1
 13 15  1  0
 15 16  1  1
 16 17  1  6
 16 18  1  0
 19 18  1  1
 19 20  1  0
 20 21  1  6
 20 22  1  0
 22 23  1  0
 23 24  1  0
 24 25  1  6
 24 26  1  0
 26 27  1  0
 26 28  1  0
 26 29  1  0
 29 30  1  6
 30 31  1  0
 31 32  1  0
 32 33  1  1
 15 10  1  0
 32 19  1  0
 32 13  1  0
 29 20  1  0
M  END
>  <Compound_ID>  (661) 
C13431585

>  <Active>  (661) 
0.0

>  <Smiles>  (661) 
CC(C)=CCC[C@](C)(O)[C@@H]1CC[C@]2(C)[C@@H]1[C@H](O)C[C@H]1[C@@]3(C)CC[C@H](O)C(C)(C)[C@@H]3CC[C@@]12C

>  <canonical_smi>  (661) 
CC(C)=CCC[C@](C)(O)[C@@H]1CC[C@]2(C)[C@@H]1[C@H](O)C[C@@H]1[C@]2(C)CC[C@H]2C(C)(C)[C@@H](O)CC[C@]12C

>  <Set>  (661) 
G2 inactive

>  <Set_type>  (661) 
Train

>  <MW>  (661) 
460.74

>  <HBD>  (661) 
3

>  <HBA>  (661) 
3

>  <NRB>  (661) 
4

>  <NR>  (661) 
4

>  <NAR>  (661) 
0

>  <PSA>  (661) 
60.69

>  <Standard Type>  (661) 
nan

>  <Standard Relation>  (661) 
nan

>  <Standard Units>  (661) 
nan

>  <Standard Value>  (661) 
nan

>  <Assay ChEMBL ID>  (661) 
nan

>  <Assay Description>  (661) 
nan

>  <BAO Label>  (661) 
nan

$$$$

     RDKit          2D

 17 18  0  0  0  0  0  0  0  0999 V2000
    3.0000    0.0000    0.0000 C   0  0  0  0  0  0  0  0  0  0  0  0
    1.5000    0.0000    0.0000 C   0  0  0  0  0  0  0  0  0  0  0  0
    0.7500   -1.2990    0.0000 C   0  0  0  0  0  0  0  0  0  0  0  0
   -0.7500   -1.2990    0.0000 C   0  0  0  0  0  0  0  0  0  0  0  0
   -1.5000   -2.5981    0.0000 Br  0  0  0  0  0  0  0  0  0  0  0  0
   -1.5000    0.0000    0.0000 C   0  0  0  0  0  0  0  0  0  0  0  0
   -2.9672    0.3119    0.0000 N   0  0  0  0  0  0  0  0  0  0  0  0
   -3.1240    1.8037    0.0000 C   0  0  0  0  0  0  0  0  0  0  0  0
   -4.4231    2.5537    0.0000 C   0  0  0  0  0  0  0  0  0  0  0  0
   -3.6731    3.8527    0.0000 C   0  0  0  0  0  0  0  0  0  0  0  0
   -5.1731    1.2546    0.0000 C   0  0  0  0  0  0  0  0  0  0  0  0
   -5.7221    3.3037    0.0000 C   0  0  0  0  0  0  0  0  0  0  0  0
   -1.7537    2.4138    0.0000 C   0  0  0  0  0  0  0  0  0  0  0  0
   -1.4418    3.8810    0.0000 C   0  0  0  0  0  0  0  0  0  0  0  0
   -0.0152    4.3445    0.0000 O   0  0  0  0  0  0  0  0  0  0  0  0
   -0.7500    1.2990    0.0000 N   0  0  0  0  0  0  0  0  0  0  0  0
    0.7500    1.2990    0.0000 C   0  0  0  0  0  0  0  0  0  0  0  0
  1  2  1  0
  2  3  1  0
  3  4  2  0
  4  5  1  0
  4  6  1  0
  6  7  2  0
  7  8  1  0
  8  9  1  0
  9 10  1  0
  9 11  1  0
  9 12  1  0
  8 13  2  0
 13 14  1  0
 14 15  1  0
 13 16  1  0
 16 17  1  0
 17  2  2  0
 16  6  1  0
M  END
>  <Compound_ID>  (662) 
C36244383

>  <Active>  (662) 
0.0

>  <Smiles>  (662) 
Cc1cc(Br)c2nc(C(C)(C)C)c(CO)n2c1

>  <canonical_smi>  (662) 
Cc1cc(Br)c2nc(C(C)(C)C)c(CO)n2c1

>  <Set>  (662) 
G2 inactive

>  <Set_type>  (662) 
Train

>  <MW>  (662) 
297.2

>  <HBD>  (662) 
1

>  <HBA>  (662) 
2

>  <NRB>  (662) 
1

>  <NR>  (662) 
2

>  <NAR>  (662) 
2

>  <PSA>  (662) 
37.53

>  <Standard Type>  (662) 
nan

>  <Standard Relation>  (662) 
nan

>  <Standard Units>  (662) 
nan

>  <Standard Value>  (662) 
nan

>  <Assay ChEMBL ID>  (662) 
nan

>  <Assay Description>  (662) 
nan

>  <BAO Label>  (662) 
nan

$$$$

     RDKit          2D

 18 19  0  0  0  0  0  0  0  0999 V2000
    3.2286   -0.0000    0.0000 C   0  0  0  0  0  0  0  0  0  0  0  0
    1.7286    0.0000    0.0000 C   0  0  0  0  0  0  0  0  0  0  0  0
    1.0777    1.3515    0.0000 C   0  0  0  0  0  0  0  0  0  0  0  0
   -0.3846    1.6852    0.0000 O   0  0  0  0  0  0  0  0  0  0  0  0
   -1.5574    0.7500    0.0000 C   0  0  0  0  0  0  0  0  0  0  0  0
   -1.5574   -0.7500    0.0000 C   0  0  0  0  0  0  0  0  0  0  0  0
   -2.8564   -1.5000    0.0000 C   0  0  0  0  0  0  0  0  0  0  0  0
   -4.1555   -0.7500    0.0000 C   0  0  0  0  0  0  0  0  0  0  0  0
   -5.4545   -1.5000    0.0000 Br  0  0  0  0  0  0  0  0  0  0  0  0
   -4.1555    0.7500    0.0000 C   0  0  0  0  0  0  0  0  0  0  0  0
   -2.8564    1.5000    0.0000 C   0  0  0  0  0  0  0  0  0  0  0  0
   -2.8564    3.0000    0.0000 C   0  0  0  0  0  0  0  0  0  0  0  0
   -4.3564    3.0000    0.0000 C   0  0  0  0  0  0  0  0  0  0  0  0
   -1.3564    3.0000    0.0000 C   0  0  0  0  0  0  0  0  0  0  0  0
   -2.8564    4.5000    0.0000 C   0  0  0  0  0  0  0  0  0  0  0  0
   -0.3846   -1.6852    0.0000 N   0  0  0  0  0  0  0  0  0  0  0  0
    1.0777   -1.3515    0.0000 C   0  0  0  0  0  0  0  0  0  0  0  0
    2.0130   -2.5242    0.0000 O   0  0  0  0  0  0  0  0  0  0  0  0
  2  1  1  1
  2  3  1  0
  3  4  1  0
  4  5  1  0
  5  6  2  0
  6  7  1  0
  7  8  2  0
  8  9  1  0
  8 10  1  0
 10 11  2  0
 11 12  1  0
 12 13  1  0
 12 14  1  0
 12 15  1  0
  6 16  1  0
 16 17  1  0
 17 18  2  0
 17  2  1  0
 11  5  1  0
M  END
>  <Compound_ID>  (663) 
C62564174

>  <Active>  (663) 
0.0

>  <Smiles>  (663) 
C[C@@H]1COc2c(cc(Br)cc2C(C)(C)C)NC1=O

>  <canonical_smi>  (663) 
C[C@@H]1COc2c(cc(Br)cc2C(C)(C)C)NC1=O

>  <Set>  (663) 
G2 inactive

>  <Set_type>  (663) 
Train

>  <MW>  (663) 
312.21

>  <HBD>  (663) 
1

>  <HBA>  (663) 
2

>  <NRB>  (663) 
0

>  <NR>  (663) 
2

>  <NAR>  (663) 
1

>  <PSA>  (663) 
38.33

>  <Standard Type>  (663) 
nan

>  <Standard Relation>  (663) 
nan

>  <Standard Units>  (663) 
nan

>  <Standard Value>  (663) 
nan

>  <Assay ChEMBL ID>  (663) 
nan

>  <Assay Description>  (663) 
nan

>  <BAO Label>  (663) 
nan

$$$$

     RDKit          2D

 32 35  0  0  0  0  0  0  0  0999 V2000
   -0.7500   -6.4952    0.0000 O   0  0  0  0  0  0  0  0  0  0  0  0
    0.7500   -6.4952    0.0000 C   0  0  0  0  0  0  0  0  0  0  0  0
    1.5000   -5.1962    0.0000 C   0  0  0  0  0  0  0  0  0  0  0  0
    0.7500   -3.8971    0.0000 O   0  0  0  0  0  0  0  0  0  0  0  0
    1.5000   -2.5981    0.0000 C   0  0  0  0  0  0  0  0  0  0  0  0
    3.0000   -2.5981    0.0000 O   0  0  0  0  0  0  0  0  0  0  0  0
    0.7500   -1.2990    0.0000 C   0  0  0  0  0  0  0  0  0  0  0  0
    1.5000    0.0000    0.0000 C   0  0  0  0  0  0  0  0  0  0  0  0
    0.7500    1.2990    0.0000 C   0  0  0  0  0  0  0  0  0  0  0  0
   -0.7500    1.2990    0.0000 C   0  0  0  0  0  0  0  0  0  0  0  0
   -1.5000    0.0000    0.0000 C   0  0  0  0  0  0  0  0  0  0  0  0
   -0.7500   -1.2990    0.0000 C   0  0  0  0  0  0  0  0  0  0  0  0
   -3.0000    0.0000    0.0000 N   0  0  0  0  0  0  0  0  0  0  0  0
   -3.7500    1.2990    0.0000 C   0  0  0  0  0  0  0  0  0  0  0  0
   -5.2500    1.2990    0.0000 O   0  0  0  0  0  0  0  0  0  0  0  0
   -3.0000    2.5981    0.0000 C   0  0  0  0  0  0  0  0  0  0  0  0
   -1.5000    2.5981    0.0000 S   0  0  0  0  0  0  0  0  0  0  0  0
    1.5000   -7.7942    0.0000 N   0  0  0  0  0  0  0  0  0  0  0  0
    0.7500   -9.0933    0.0000 N   0  0  0  0  0  0  0  0  0  0  0  0
    1.5000  -10.3923    0.0000 C   0  0  0  0  0  0  0  0  0  0  0  0
    0.7500  -11.6913    0.0000 C   0  0  0  0  0  0  0  0  0  0  0  0
   -0.7500  -11.6913    0.0000 C   0  0  0  0  0  0  0  0  0  0  0  0
   -1.5000  -12.9904    0.0000 C   0  0  0  0  0  0  0  0  0  0  0  0
   -0.7500  -14.2894    0.0000 C   0  0  0  0  0  0  0  0  0  0  0  0
    0.7500  -14.2894    0.0000 C   0  0  0  0  0  0  0  0  0  0  0  0
    1.5000  -12.9904    0.0000 C   0  0  0  0  0  0  0  0  0  0  0  0
    3.0000  -10.3923    0.0000 C   0  0  0  0  0  0  0  0  0  0  0  0
    3.7500  -11.6913    0.0000 C   0  0  0  0  0  0  0  0  0  0  0  0
    5.2500  -11.6913    0.0000 C   0  0  0  0  0  0  0  0  0  0  0  0
    6.0000  -10.3923    0.0000 C   0  0  0  0  0  0  0  0  0  0  0  0
    5.2500   -9.0933    0.0000 C   0  0  0  0  0  0  0  0  0  0  0  0
    3.7500   -9.0933    0.0000 C   0  0  0  0  0  0  0  0  0  0  0  0
  1  2  2  0
  2  3  1  0
  3  4  1  0
  4  5  1  0
  5  6  2  0
  5  7  1  0
  7  8  2  0
  8  9  1  0
  9 10  2  0
 10 11  1  0
 11 12  2  0
 11 13  1  0
 13 14  1  0
 14 15  2  0
 14 16  1  0
 16 17  1  0
  2 18  1  0
 18 19  1  0
 19 20  2  0
 20 21  1  0
 21 22  2  0
 22 23  1  0
 23 24  2  0
 24 25  1  0
 25 26  2  0
 20 27  1  0
 27 28  2  0
 28 29  1  0
 29 30  2  0
 30 31  1  0
 31 32  2  0
 12  7  1  0
 26 21  1  0
 32 27  1  0
 17 10  1  0
M  END
>  <Compound_ID>  (664) 
C09448662

>  <Active>  (664) 
0.0

>  <Smiles>  (664) 
O=C(COC(=O)c1ccc2c(c1)NC(=O)CS2)NN=C(c1ccccc1)c1ccccc1

>  <canonical_smi>  (664) 
O=C(COC(=O)c1ccc2c(c1)NC(=O)CS2)NN=C(c1ccccc1)c1ccccc1

>  <Set>  (664) 
G2 inactive

>  <Set_type>  (664) 
Train

>  <MW>  (664) 
445.5

>  <HBD>  (664) 
2

>  <HBA>  (664) 
5

>  <NRB>  (664) 
6

>  <NR>  (664) 
4

>  <NAR>  (664) 
3

>  <PSA>  (664) 
96.86

>  <Standard Type>  (664) 
nan

>  <Standard Relation>  (664) 
nan

>  <Standard Units>  (664) 
nan

>  <Standard Value>  (664) 
nan

>  <Assay ChEMBL ID>  (664) 
nan

>  <Assay Description>  (664) 
nan

>  <BAO Label>  (664) 
nan

$$$$

     RDKit          2D

 29 32  0  0  0  0  0  0  0  0999 V2000
    6.0000   -2.5981    0.0000 O   0  0  0  0  0  0  0  0  0  0  0  0
    5.2500   -3.8971    0.0000 C   0  0  0  0  0  0  0  0  0  0  0  0
    6.0000   -5.1962    0.0000 N   0  0  0  0  0  0  0  0  0  0  0  0
    7.5000   -5.1962    0.0000 C   0  0  0  0  0  0  0  0  0  0  0  0
    8.2500   -6.4952    0.0000 C   0  0  0  0  0  0  0  0  0  0  0  0
    9.7500   -6.4952    0.0000 C   0  0  0  0  0  0  0  0  0  0  0  0
   10.6317   -5.2817    0.0000 C   0  0  0  0  0  0  0  0  0  0  0  0
   12.0583   -5.7452    0.0000 C   0  0  0  0  0  0  0  0  0  0  0  0
   12.0583   -7.2452    0.0000 C   0  0  0  0  0  0  0  0  0  0  0  0
   10.6317   -7.7087    0.0000 O   0  0  0  0  0  0  0  0  0  0  0  0
    7.5000   -7.7942    0.0000 N   0  0  0  0  0  4  0  0  0  0  0  0
    6.0000   -7.7942    0.0000 C   0  0  0  0  0  0  0  0  0  0  0  0
    5.2500   -9.0933    0.0000 C   0  0  0  0  0  0  0  0  0  0  0  0
    6.0000  -10.3923    0.0000 C   0  0  0  0  0  0  0  0  0  0  0  0
    7.5000  -10.3923    0.0000 C   0  0  0  0  0  0  0  0  0  0  0  0
    8.2500   -9.0933    0.0000 C   0  0  0  0  0  0  0  0  0  0  0  0
    3.7500   -3.8971    0.0000 C   0  0  0  0  0  0  0  0  0  0  0  0
    3.0000   -5.1962    0.0000 O   0  0  0  0  0  0  0  0  0  0  0  0
    3.0000   -2.5981    0.0000 N   0  0  0  0  0  0  0  0  0  0  0  0
    1.5000   -2.5981    0.0000 C   0  0  0  0  0  0  0  0  0  0  0  0
    0.7500   -3.8971    0.0000 C   0  0  0  0  0  0  0  0  0  0  0  0
   -0.7500   -3.8971    0.0000 C   0  0  0  0  0  0  0  0  0  0  0  0
   -1.5000   -2.5981    0.0000 C   0  0  0  0  0  0  0  0  0  0  0  0
   -0.7500   -1.2990    0.0000 C   0  0  0  0  0  0  0  0  0  0  0  0
    0.7500   -1.2990    0.0000 C   0  0  0  0  0  0  0  0  0  0  0  0
    1.5000    0.0000    0.0000 C   0  0  0  0  0  0  0  0  0  0  0  0
    0.7500    1.2990    0.0000 C   0  0  0  0  0  0  0  0  0  0  0  0
   -0.7500    1.2990    0.0000 C   0  0  0  0  0  0  0  0  0  0  0  0
   -1.5000    0.0000    0.0000 C   0  0  0  0  0  0  0  0  0  0  0  0
  1  2  2  0
  2  3  1  0
  3  4  1  0
  5  4  1  1
  5  6  1  0
  6  7  2  0
  7  8  1  0
  8  9  2  0
  9 10  1  0
  5 11  1  0
 11 12  1  0
 12 13  1  0
 13 14  1  0
 14 15  1  0
 15 16  1  0
  2 17  1  0
 17 18  2  0
 17 19  1  0
 19 20  1  0
 20 21  2  0
 21 22  1  0
 22 23  2  0
 23 24  1  0
 24 25  2  0
 25 26  1  0
 26 27  1  0
 27 28  1  0
 28 29  1  0
 10  6  1  0
 16 11  1  0
 25 20  1  0
 29 24  1  0
M  CHG  1  11   1
M  END
>  <Compound_ID>  (665) 
C48731213

>  <Active>  (665) 
0.0

>  <Smiles>  (665) 
O=C(NC[C@@H](c1ccco1)[NH+]1CCCCC1)C(=O)Nc1cccc2c1CCCC2

>  <canonical_smi>  (665) 
O=C(NC[C@@H](c1ccco1)[NH+]1CCCCC1)C(=O)Nc1cccc2c1CCCC2

>  <Set>  (665) 
G2 inactive

>  <Set_type>  (665) 
Train

>  <MW>  (665) 
396.51

>  <HBD>  (665) 
3

>  <HBA>  (665) 
3

>  <NRB>  (665) 
5

>  <NR>  (665) 
4

>  <NAR>  (665) 
2

>  <PSA>  (665) 
75.78

>  <Standard Type>  (665) 
nan

>  <Standard Relation>  (665) 
nan

>  <Standard Units>  (665) 
nan

>  <Standard Value>  (665) 
nan

>  <Assay ChEMBL ID>  (665) 
nan

>  <Assay Description>  (665) 
nan

>  <BAO Label>  (665) 
nan

$$$$

     RDKit          2D

 25 27  0  0  0  0  0  0  0  0999 V2000
    6.4664   -0.8373    0.0000 C   0  0  0  0  0  0  0  0  0  0  0  0
    5.4627   -1.9520    0.0000 C   0  0  0  0  0  0  0  0  0  0  0  0
    3.9955   -1.6402    0.0000 S   0  0  0  0  0  0  0  0  0  0  0  0
    2.9918   -2.7549    0.0000 C   0  0  0  0  0  0  0  0  0  0  0  0
    3.3037   -4.2221    0.0000 N   0  0  0  0  0  0  0  0  0  0  0  0
    2.0046   -4.9721    0.0000 C   0  0  0  0  0  0  0  0  0  0  0  0
    0.8899   -3.9684    0.0000 C   0  0  0  0  0  0  0  0  0  0  0  0
    1.5000   -2.5981    0.0000 N   0  0  0  0  0  0  0  0  0  0  0  0
    0.7500   -1.2990    0.0000 C   0  0  0  0  0  0  0  0  0  0  0  0
    1.5000    0.0000    0.0000 C   0  0  0  0  0  0  0  0  0  0  0  0
    0.7500    1.2990    0.0000 C   0  0  0  0  0  0  0  0  0  0  0  0
   -0.7500    1.2990    0.0000 C   0  0  0  0  0  0  0  0  0  0  0  0
   -1.5000    2.5981    0.0000 Br  0  0  0  0  0  0  0  0  0  0  0  0
   -1.5000    0.0000    0.0000 C   0  0  0  0  0  0  0  0  0  0  0  0
   -0.7500   -1.2990    0.0000 C   0  0  0  0  0  0  0  0  0  0  0  0
    5.9262   -3.3786    0.0000 C   0  0  0  0  0  0  0  0  0  0  0  0
    4.9225   -4.4933    0.0000 N   0  0  0  0  0  0  0  0  0  0  0  0
    5.3861   -5.9199    0.0000 C   0  0  0  0  0  0  0  0  0  0  0  0
    4.3824   -7.0346    0.0000 N   0  0  0  0  0  0  0  0  0  0  0  0
    6.8533   -6.2318    0.0000 N   0  0  0  0  0  0  0  0  0  0  0  0
    7.8570   -5.1171    0.0000 C   0  0  0  0  0  0  0  0  0  0  0  0
    9.3242   -5.4289    0.0000 N   0  0  0  0  0  0  0  0  0  0  0  0
    9.7877   -6.8555    0.0000 C   0  0  0  0  0  0  0  0  0  0  0  0
   10.3279   -4.3142    0.0000 C   0  0  0  0  0  0  0  0  0  0  0  0
    7.3934   -3.6905    0.0000 N   0  0  0  0  0  0  0  0  0  0  0  0
  2  1  1  6
  2  3  1  0
  3  4  1  0
  4  5  2  0
  5  6  1  0
  6  7  2  0
  7  8  1  0
  8  9  1  0
  9 10  2  0
 10 11  1  0
 11 12  2  0
 12 13  1  0
 12 14  1  0
 14 15  2  0
  2 16  1  0
 16 17  2  0
 17 18  1  0
 18 19  1  0
 18 20  2  0
 20 21  1  0
 21 22  1  0
 22 23  1  0
 22 24  1  0
 21 25  2  0
  8  4  1  0
 15  9  1  0
 25 16  1  0
M  END
>  <Compound_ID>  (666) 
C25034723

>  <Active>  (666) 
0.0

>  <Smiles>  (666) 
C[C@@H](Sc1nccn1-c1ccc(Br)cc1)c1nc(N)nc(N(C)C)n1

>  <canonical_smi>  (666) 
C[C@@H](Sc1nccn1-c1ccc(Br)cc1)c1nc(N)nc(N(C)C)n1

>  <Set>  (666) 
G2 inactive

>  <Set_type>  (666) 
Train

>  <MW>  (666) 
420.34

>  <HBD>  (666) 
1

>  <HBA>  (666) 
7

>  <NRB>  (666) 
5

>  <NR>  (666) 
3

>  <NAR>  (666) 
3

>  <PSA>  (666) 
85.75

>  <Standard Type>  (666) 
nan

>  <Standard Relation>  (666) 
nan

>  <Standard Units>  (666) 
nan

>  <Standard Value>  (666) 
nan

>  <Assay ChEMBL ID>  (666) 
nan

>  <Assay Description>  (666) 
nan

>  <BAO Label>  (666) 
nan

$$$$

     RDKit          2D

 35 38  0  0  0  0  0  0  0  0999 V2000
    5.2974   -1.4448    0.0000 C   0  0  0  0  0  0  0  0  0  0  0  0
    4.0838   -2.3265    0.0000 C   0  0  0  0  0  0  0  0  0  0  0  0
    2.7135   -1.7164    0.0000 C   0  0  0  0  0  0  0  0  0  0  0  0
    1.5000   -2.5981    0.0000 C   0  0  0  0  0  0  0  0  0  0  0  0
    0.7500   -1.2990    0.0000 C   0  0  0  0  0  0  0  0  0  0  0  0
    1.5000    0.0000    0.0000 C   0  0  0  0  0  0  0  0  0  0  0  0
    0.7500    1.2990    0.0000 C   0  0  0  0  0  0  0  0  0  0  0  0
   -0.7500    1.2990    0.0000 N   0  0  0  0  0  4  0  0  0  0  0  0
   -1.5000    2.5981    0.0000 C   0  0  0  0  0  0  0  0  0  0  0  0
   -0.7500    3.8971    0.0000 C   0  0  0  0  0  0  0  0  0  0  0  0
    0.7500    3.8971    0.0000 C   0  0  0  0  0  0  0  0  0  0  0  0
    1.5000    5.1962    0.0000 C   0  0  0  0  0  0  0  0  0  0  0  0
    0.7500    6.4952    0.0000 C   0  0  0  0  0  0  0  0  0  0  0  0
   -0.7500    6.4952    0.0000 C   0  0  0  0  0  0  0  0  0  0  0  0
   -1.5000    7.7942    0.0000 C   0  0  0  0  0  0  0  0  0  0  0  0
   -2.2500    9.0933    0.0000 F   0  0  0  0  0  0  0  0  0  0  0  0
   -0.2010    8.5442    0.0000 F   0  0  0  0  0  0  0  0  0  0  0  0
   -2.7990    7.0442    0.0000 F   0  0  0  0  0  0  0  0  0  0  0  0
   -1.5000    5.1962    0.0000 C   0  0  0  0  0  0  0  0  0  0  0  0
   -1.5000    0.0000    0.0000 C   0  0  0  0  0  0  0  0  0  0  0  0
   -0.7500   -1.2990    0.0000 C   0  0  0  0  0  0  0  0  0  0  0  0
    2.5037   -3.7128    0.0000 N   0  0  0  0  0  0  0  0  0  0  0  0
    1.7537   -5.0118    0.0000 C   0  0  0  0  0  0  0  0  0  0  0  0
    2.3638   -6.3821    0.0000 O   0  0  0  0  0  0  0  0  0  0  0  0
    0.2865   -4.7000    0.0000 N   0  0  0  0  0  0  0  0  0  0  0  0
   -0.8282   -5.7037    0.0000 C   0  0  0  0  0  0  0  0  0  0  0  0
   -2.2548   -5.2401    0.0000 C   0  0  0  0  0  0  0  0  0  0  0  0
   -3.3695   -6.2438    0.0000 C   0  0  0  0  0  0  0  0  0  0  0  0
   -3.2128   -7.7356    0.0000 C   0  0  0  0  0  0  0  0  0  0  0  0
   -4.5831   -8.3457    0.0000 C   0  0  0  0  0  0  0  0  0  0  0  0
   -5.5868   -7.2310    0.0000 C   0  0  0  0  0  0  0  0  0  0  0  0
   -4.8368   -5.9320    0.0000 N   0  0  0  0  0  4  0  0  0  0  0  0
   -5.4469   -4.5616    0.0000 C   0  0  0  0  0  0  0  0  0  0  0  0
    0.1297   -3.2082    0.0000 C   0  0  0  0  0  0  0  0  0  0  0  0
   -1.1694   -2.4582    0.0000 O   0  0  0  0  0  0  0  0  0  0  0  0
  1  2  1  0
  2  3  1  0
  4  3  1  1
  4  5  1  0
  5  6  1  0
  6  7  1  0
  7  8  1  0
  8  9  1  0
  9 10  1  0
 10 11  2  0
 11 12  1  0
 12 13  2  0
 13 14  1  0
 14 15  1  0
 15 16  1  0
 15 17  1  0
 15 18  1  0
 14 19  2  0
  8 20  1  0
 20 21  1  0
  4 22  1  0
 22 23  1  0
 23 24  2  0
 23 25  1  0
 25 26  1  0
 26 27  1  0
 28 27  1  6
 28 29  1  0
 29 30  1  0
 30 31  1  0
 31 32  1  0
 32 33  1  0
 25 34  1  0
 34 35  2  0
 34  4  1  0
 21  5  1  0
 32 28  1  0
 19 10  1  0
M  CHG  2   8   1  32   1
M  END
>  <Compound_ID>  (667) 
C12150495

>  <Active>  (667) 
0.0

>  <Smiles>  (667) 
CCC[C@@]1(C2CC[NH+](Cc3cccc(C(F)(F)F)c3)CC2)NC(=O)N(CC[C@@H]2CCC[NH+]2C)C1=O

>  <canonical_smi>  (667) 
CCC[C@@]1(C2CC[NH+](Cc3cccc(C(F)(F)F)c3)CC2)NC(=O)N(CC[C@@H]2CCC[NH+]2C)C1=O

>  <Set>  (667) 
G2 inactive

>  <Set_type>  (667) 
Train

>  <MW>  (667) 
496.62

>  <HBD>  (667) 
3

>  <HBA>  (667) 
2

>  <NRB>  (667) 
8

>  <NR>  (667) 
4

>  <NAR>  (667) 
1

>  <PSA>  (667) 
58.29

>  <Standard Type>  (667) 
nan

>  <Standard Relation>  (667) 
nan

>  <Standard Units>  (667) 
nan

>  <Standard Value>  (667) 
nan

>  <Assay ChEMBL ID>  (667) 
nan

>  <Assay Description>  (667) 
nan

>  <BAO Label>  (667) 
nan

$$$$

     RDKit          2D

 37 41  0  0  0  0  0  0  0  0999 V2000
    3.0000   -0.0000    0.0000 C   0  0  0  0  0  0  0  0  0  0  0  0
    1.5000   -0.0000    0.0000 C   0  0  0  0  0  0  0  0  0  0  0  0
    0.7500   -1.2990    0.0000 C   0  0  0  0  0  0  0  0  0  0  0  0
   -0.7500   -1.2990    0.0000 C   0  0  0  0  0  0  0  0  0  0  0  0
   -1.5000   -2.5981    0.0000 C   0  0  0  0  0  0  0  0  0  0  0  0
   -1.5000    0.0000    0.0000 C   0  0  0  0  0  0  0  0  0  0  0  0
   -0.7500    1.2990    0.0000 C   0  0  0  0  0  0  0  0  0  0  0  0
    0.7500    1.2990    0.0000 C   0  0  0  0  0  0  0  0  0  0  0  0
   -1.5000    2.5981    0.0000 C   0  0  0  0  0  0  0  0  0  0  0  0
   -3.0000    2.5981    0.0000 C   0  0  0  0  0  0  0  0  0  0  0  0
   -3.7500    3.8971    0.0000 C   0  0  0  0  0  0  0  0  0  0  0  0
   -3.0000    5.1962    0.0000 C   0  0  0  0  0  0  0  0  0  0  0  0
   -3.6101    6.5665    0.0000 N   0  0  0  0  0  0  0  0  0  0  0  0
   -2.4954    7.5702    0.0000 N   0  0  0  0  0  0  0  0  0  0  0  0
   -1.1963    6.8202    0.0000 N   0  0  0  0  0  0  0  0  0  0  0  0
   -1.5082    5.3529    0.0000 N   0  0  0  0  0  0  0  0  0  0  0  0
   -0.5045    4.2382    0.0000 C   0  0  0  0  0  0  0  0  0  0  0  0
    0.6102    5.2419    0.0000 C   0  0  0  0  0  0  0  0  0  0  0  0
   -1.1839    3.2309    0.0000 C   0  0  0  0  0  0  0  0  0  0  0  0
    0.4992    3.1235    0.0000 C   0  0  0  0  0  0  0  0  0  0  0  0
   -5.2500    3.8971    0.0000 N   0  0  0  0  0  4  0  0  0  0  0  0
   -6.0000    5.1962    0.0000 C   0  0  0  0  0  0  0  0  0  0  0  0
   -7.5000    5.1962    0.0000 C   0  0  0  0  0  0  0  0  0  0  0  0
   -8.2500    6.4952    0.0000 C   0  0  0  0  0  0  0  0  0  0  0  0
   -9.7500    6.4952    0.0000 C   0  0  0  0  0  0  0  0  0  0  0  0
  -10.5000    5.1962    0.0000 C   0  0  0  0  0  0  0  0  0  0  0  0
   -9.7500    3.8971    0.0000 C   0  0  0  0  0  0  0  0  0  0  0  0
   -8.2500    3.8971    0.0000 C   0  0  0  0  0  0  0  0  0  0  0  0
   -6.0000    2.5981    0.0000 C   0  0  0  0  0  0  0  0  0  0  0  0
   -7.5000    2.5981    0.0000 C   0  0  0  0  0  0  0  0  0  0  0  0
   -8.3817    1.3846    0.0000 C   0  0  0  0  0  0  0  0  0  0  0  0
   -9.8083    1.8481    0.0000 C   0  0  0  0  0  0  0  0  0  0  0  0
   -9.8083    3.3481    0.0000 C   0  0  0  0  0  0  0  0  0  0  0  0
   -8.3817    3.8116    0.0000 O   0  0  0  0  0  0  0  0  0  0  0  0
   -3.7500    1.2990    0.0000 C   0  0  0  0  0  0  0  0  0  0  0  0
   -5.2500    1.2990    0.0000 O   0  0  0  0  0  0  0  0  0  0  0  0
   -3.0000    0.0000    0.0000 N   0  0  0  0  0  4  0  0  0  0  0  0
  1  2  1  0
  2  3  1  0
  3  4  2  0
  4  5  1  0
  4  6  1  0
  6  7  1  0
  7  8  1  0
  7  9  2  0
 10  9  1  1
 10 11  1  0
 11 12  1  0
 12 13  1  6
 13 14  1  0
 14 15  2  0
 15 16  1  0
 16 17  1  0
 17 18  1  0
 17 19  1  0
 17 20  1  0
 11 21  1  1
 21 22  1  0
 22 23  1  0
 23 24  2  0
 24 25  1  0
 25 26  2  0
 26 27  1  0
 27 28  2  0
 21 29  1  0
 29 30  1  0
 30 31  2  0
 31 32  1  0
 32 33  2  0
 33 34  1  0
 10 35  1  0
 35 36  2  0
 35 37  1  0
  8  2  2  0
 16 12  1  0
 28 23  1  0
 34 30  1  0
 37  6  2  0
M  CHG  2  21   1  37   1
M  END
>  <Compound_ID>  (668) 
C39711056

>  <Active>  (668) 
0.0

>  <Smiles>  (668) 
Cc1cc(C)c2c(c1)=C[C@H]([C@H]([C@@H]1NN=NN1C(C)(C)C)[NH+](Cc1ccccc1)Cc1ccco1)C(=O)[NH+]=2

>  <canonical_smi>  (668) 
Cc1cc(C)c2c(c1)=C[C@H]([C@H]([C@@H]1NN=NN1C(C)(C)C)[NH+](Cc1ccccc1)Cc1ccco1)C(=O)[NH+]=2

>  <Set>  (668) 
G2 inactive

>  <Set_type>  (668) 
Train

>  <MW>  (668) 
500.65

>  <HBD>  (668) 
3

>  <HBA>  (668) 
4

>  <NRB>  (668) 
7

>  <NR>  (668) 
5

>  <NAR>  (668) 
3

>  <PSA>  (668) 
88.61

>  <Standard Type>  (668) 
nan

>  <Standard Relation>  (668) 
nan

>  <Standard Units>  (668) 
nan

>  <Standard Value>  (668) 
nan

>  <Assay ChEMBL ID>  (668) 
nan

>  <Assay Description>  (668) 
nan

>  <BAO Label>  (668) 
nan

$$$$

     RDKit          2D

 25 28  0  0  0  0  0  0  0  0999 V2000
    3.7500   -1.2990    0.0000 C   0  0  0  0  0  0  0  0  0  0  0  0
    3.0000    0.0000    0.0000 C   0  0  0  0  0  0  0  0  0  0  0  0
    1.5000    0.0000    0.0000 C   0  0  0  0  0  0  0  0  0  0  0  0
    0.7500   -1.2990    0.0000 C   0  0  0  0  0  0  0  0  0  0  0  0
   -0.7500   -1.2990    0.0000 C   0  0  0  0  0  0  0  0  0  0  0  0
   -1.5000    0.0000    0.0000 C   0  0  0  0  0  0  0  0  0  0  0  0
   -3.0000    0.0000    0.0000 N   0  0  0  0  0  0  0  0  0  0  0  0
   -3.7500    1.2990    0.0000 C   0  0  0  0  0  0  0  0  0  0  0  0
   -5.2172    1.6109    0.0000 S   0  0  0  0  0  0  0  0  0  0  0  0
   -5.3740    3.1027    0.0000 C   0  0  0  0  0  0  0  0  0  0  0  0
   -6.6731    3.8527    0.0000 C   0  0  0  0  0  0  0  0  0  0  0  0
   -6.6731    5.3527    0.0000 O   0  0  0  0  0  0  0  0  0  0  0  0
   -7.9721    3.1027    0.0000 C   0  0  0  0  0  0  0  0  0  0  0  0
   -9.2711    3.8527    0.0000 C   0  0  0  0  0  0  0  0  0  0  0  0
  -10.5702    3.1027    0.0000 C   0  0  0  0  0  0  0  0  0  0  0  0
  -10.5702    1.6027    0.0000 C   0  0  0  0  0  0  0  0  0  0  0  0
  -11.8692    0.8527    0.0000 Br  0  0  0  0  0  0  0  0  0  0  0  0
   -9.2711    0.8527    0.0000 C   0  0  0  0  0  0  0  0  0  0  0  0
   -7.9721    1.6027    0.0000 C   0  0  0  0  0  0  0  0  0  0  0  0
   -4.0037    3.7128    0.0000 C   0  0  0  0  0  0  0  0  0  0  0  0
   -3.6918    5.1800    0.0000 N   0  0  0  0  0  0  0  0  0  0  0  0
   -3.0000    2.5981    0.0000 C   0  0  0  0  0  0  0  0  0  0  0  0
   -1.5000    2.5981    0.0000 C   0  0  0  0  0  0  0  0  0  0  0  0
   -0.7500    1.2990    0.0000 C   0  0  0  0  0  0  0  0  0  0  0  0
    0.7500    1.2990    0.0000 C   0  0  0  0  0  0  0  0  0  0  0  0
  1  2  1  0
  3  2  1  6
  3  4  1  0
  4  5  1  0
  5  6  1  0
  6  7  2  0
  7  8  1  0
  8  9  1  0
  9 10  1  0
 10 11  1  0
 11 12  2  0
 11 13  1  0
 13 14  2  0
 14 15  1  0
 15 16  2  0
 16 17  1  0
 16 18  1  0
 18 19  2  0
 10 20  2  0
 20 21  1  0
 20 22  1  0
 22 23  1  0
 23 24  2  0
 24 25  1  0
 25  3  1  0
 24  6  1  0
 22  8  2  0
 19 13  1  0
M  END
>  <Compound_ID>  (669) 
C00661977

>  <Active>  (669) 
0.0

>  <Smiles>  (669) 
CC[C@@H]1CCc2nc3sc(C(=O)c4ccc(Br)cc4)c(N)c3cc2C1

>  <canonical_smi>  (669) 
CC[C@@H]1CCc2nc3sc(C(=O)c4ccc(Br)cc4)c(N)c3cc2C1

>  <Set>  (669) 
G2 inactive

>  <Set_type>  (669) 
Train

>  <MW>  (669) 
415.36

>  <HBD>  (669) 
1

>  <HBA>  (669) 
3

>  <NRB>  (669) 
3

>  <NR>  (669) 
4

>  <NAR>  (669) 
3

>  <PSA>  (669) 
55.98

>  <Standard Type>  (669) 
nan

>  <Standard Relation>  (669) 
nan

>  <Standard Units>  (669) 
nan

>  <Standard Value>  (669) 
nan

>  <Assay ChEMBL ID>  (669) 
nan

>  <Assay Description>  (669) 
nan

>  <BAO Label>  (669) 
nan

$$$$

     RDKit          2D

 28 31  0  0  0  0  0  0  0  0999 V2000
   -4.5000   -5.1962    0.0000 N   0  0  0  0  0  0  0  0  0  0  0  0
   -3.0000   -5.1962    0.0000 C   0  0  0  0  0  0  0  0  0  0  0  0
   -1.5000   -5.1962    0.0000 N   0  0  0  0  0  0  0  0  0  0  0  0
   -0.7500   -3.8971    0.0000 C   0  0  0  0  0  0  0  0  0  0  0  0
   -1.5000   -2.5981    0.0000 N   0  0  0  0  0  0  0  0  0  0  0  0
   -0.7500   -1.2990    0.0000 C   0  0  0  0  0  0  0  0  0  0  0  0
    0.7500   -1.2990    0.0000 C   0  0  0  0  0  0  0  0  0  0  0  0
    1.5000    0.0000    0.0000 C   0  0  0  0  0  0  0  0  0  0  0  0
    0.7500    1.2990    0.0000 C   0  0  0  0  0  0  0  0  0  0  0  0
   -0.7500    1.2990    0.0000 C   0  0  0  0  0  0  0  0  0  0  0  0
   -1.5000    0.0000    0.0000 C   0  0  0  0  0  0  0  0  0  0  0  0
   -3.0000    0.0000    0.0000 C   0  0  0  0  0  0  0  0  0  0  0  0
   -3.7500    1.2990    0.0000 C   0  0  0  0  0  0  0  0  0  0  0  0
   -3.0000    2.5981    0.0000 C   0  0  0  0  0  0  0  0  0  0  0  0
   -3.7500    3.8971    0.0000 C   0  0  0  0  0  0  0  0  0  0  0  0
   -5.2500    3.8971    0.0000 C   0  0  0  0  0  0  0  0  0  0  0  0
   -6.0000    5.1962    0.0000 Cl  0  0  0  0  0  0  0  0  0  0  0  0
   -6.0000    2.5981    0.0000 C   0  0  0  0  0  0  0  0  0  0  0  0
   -5.2500    1.2990    0.0000 C   0  0  0  0  0  0  0  0  0  0  0  0
    1.5000   -2.5981    0.0000 C   0  0  0  0  0  0  0  0  0  0  0  0
    3.0000   -2.5981    0.0000 C   0  0  0  0  0  0  0  0  0  0  0  0
    3.7500   -3.8971    0.0000 C   0  0  0  0  0  0  0  0  0  0  0  0
    5.2500   -3.8971    0.0000 C   0  0  0  0  0  0  0  0  0  0  0  0
    6.0000   -2.5981    0.0000 C   0  0  0  0  0  0  0  0  0  0  0  0
    7.5000   -2.5981    0.0000 Cl  0  0  0  0  0  0  0  0  0  0  0  0
    5.2500   -1.2990    0.0000 C   0  0  0  0  0  0  0  0  0  0  0  0
    3.7500   -1.2990    0.0000 C   0  0  0  0  0  0  0  0  0  0  0  0
    0.7500   -3.8971    0.0000 N   0  0  0  0  0  0  0  0  0  0  0  0
  1  2  3  0
  2  3  1  0
  3  4  2  0
  4  5  1  0
  5  6  1  0
  6  7  2  0
  7  8  1  0
  8  9  1  0
  9 10  1  0
 10 11  1  0
 11 12  2  0
 12 13  1  0
 13 14  2  0
 14 15  1  0
 15 16  2  0
 16 17  1  0
 16 18  1  0
 18 19  2  0
  7 20  1  0
 20 21  1  6
 21 22  2  0
 22 23  1  0
 23 24  2  0
 24 25  1  0
 24 26  1  0
 26 27  2  0
 20 28  1  0
 28  4  1  0
 11  6  1  0
 19 13  1  0
 27 21  1  0
M  END
>  <Compound_ID>  (670) 
C05444992

>  <Active>  (670) 
0.0

>  <Smiles>  (670) 
N#C/N=C1\NC2=C(CCC/C2=C\c2ccc(Cl)cc2)[C@H](c2ccc(Cl)cc2)N1

>  <canonical_smi>  (670) 
N#C/N=C1\NC2=C(CCC/C2=C\c2ccc(Cl)cc2)[C@H](c2ccc(Cl)cc2)N1

>  <Set>  (670) 
G2 inactive

>  <Set_type>  (670) 
Train

>  <MW>  (670) 
409.32

>  <HBD>  (670) 
2

>  <HBA>  (670) 
3

>  <NRB>  (670) 
2

>  <NR>  (670) 
4

>  <NAR>  (670) 
2

>  <PSA>  (670) 
60.21

>  <Standard Type>  (670) 
nan

>  <Standard Relation>  (670) 
nan

>  <Standard Units>  (670) 
nan

>  <Standard Value>  (670) 
nan

>  <Assay ChEMBL ID>  (670) 
nan

>  <Assay Description>  (670) 
nan

>  <BAO Label>  (670) 
nan

$$$$

     RDKit          2D

 29 33  0  0  0  0  0  0  0  0999 V2000
   -4.2437   10.6337    0.0000 C   0  0  0  0  0  0  0  0  0  0  0  0
   -4.5556    9.1664    0.0000 C   0  0  0  0  0  0  0  0  0  0  0  0
   -3.4408    8.1628    0.0000 C   0  0  0  0  0  0  0  0  0  0  0  0
   -3.7527    6.6955    0.0000 C   0  0  0  0  0  0  0  0  0  0  0  0
   -2.6380    5.6918    0.0000 O   0  0  0  0  0  0  0  0  0  0  0  0
   -2.9499    4.2246    0.0000 C   0  0  0  0  0  0  0  0  0  0  0  0
   -4.3764    3.7611    0.0000 C   0  0  0  0  0  0  0  0  0  0  0  0
   -4.6883    2.2939    0.0000 C   0  0  0  0  0  0  0  0  0  0  0  0
   -3.5736    1.2902    0.0000 C   0  0  0  0  0  0  0  0  0  0  0  0
   -2.1470    1.7537    0.0000 C   0  0  0  0  0  0  0  0  0  0  0  0
   -1.8351    3.2209    0.0000 C   0  0  0  0  0  0  0  0  0  0  0  0
   -0.4086    3.6844    0.0000 N   0  0  0  0  0  0  0  0  0  0  0  0
    0.7062    2.6807    0.0000 C   0  0  0  0  0  0  0  0  0  0  0  0
    2.1328    3.1443    0.0000 C   0  0  0  0  0  0  0  0  0  0  0  0
    3.2475    2.1406    0.0000 C   0  0  0  0  0  0  0  0  0  0  0  0
    2.9356    0.6734    0.0000 O   0  0  0  0  0  0  0  0  0  0  0  0
    4.6741    2.6041    0.0000 C   0  0  0  0  0  0  0  0  0  0  0  0
    4.9859    4.0713    0.0000 C   0  0  0  0  0  0  0  0  0  0  0  0
    3.8712    5.0750    0.0000 C   0  0  0  0  0  0  0  0  0  0  0  0
    4.1831    6.5422    0.0000 C   0  0  0  0  0  0  0  0  0  0  0  0
    3.0684    7.5459    0.0000 C   0  0  0  0  0  0  0  0  0  0  0  0
    1.6418    7.0824    0.0000 C   0  0  0  0  0  0  0  0  0  0  0  0
    1.3299    5.6152    0.0000 C   0  0  0  0  0  0  0  0  0  0  0  0
    2.4446    4.6115    0.0000 C   0  0  0  0  0  0  0  0  0  0  0  0
    0.3943    1.2135    0.0000 C   0  0  0  0  0  0  0  0  0  0  0  0
    1.2760    0.0000    0.0000 C   0  0  0  0  0  0  0  0  0  0  0  0
    0.3943   -1.2135    0.0000 C   0  0  0  0  0  0  0  0  0  0  0  0
   -1.0323   -0.7500    0.0000 C   0  0  0  0  0  0  0  0  0  0  0  0
   -1.0323    0.7500    0.0000 C   0  0  0  0  0  0  0  0  0  0  0  0
  1  2  1  0
  2  3  1  0
  3  4  1  0
  4  5  1  0
  5  6  1  0
  6  7  2  0
  7  8  1  0
  8  9  2  0
  9 10  1  0
 10 11  2  0
 11 12  1  0
 12 13  1  0
 13 14  1  6
 14 15  2  0
 15 16  1  0
 15 17  1  0
 17 18  2  0
 18 19  1  0
 19 20  2  0
 20 21  1  0
 21 22  2  0
 22 23  1  0
 23 24  2  0
 13 25  1  0
 25 26  1  6
 26 27  1  0
 27 28  2  0
 29 28  1  6
 11  6  1  0
 24 14  1  0
 29 25  1  0
 29 10  1  0
 24 19  1  0
M  END
>  <Compound_ID>  (671) 
C14548214

>  <Active>  (671) 
0.0

>  <Smiles>  (671) 
CCCCOc1cccc2c1N[C@H](c1c(O)ccc3ccccc13)[C@@H]1CC=C[C@H]21

>  <canonical_smi>  (671) 
CCCCOc1cccc2c1N[C@H](c1c(O)ccc3ccccc13)[C@@H]1CC=C[C@H]21

>  <Set>  (671) 
G2 inactive

>  <Set_type>  (671) 
Train

>  <MW>  (671) 
385.51

>  <HBD>  (671) 
2

>  <HBA>  (671) 
3

>  <NRB>  (671) 
5

>  <NR>  (671) 
5

>  <NAR>  (671) 
3

>  <PSA>  (671) 
41.49

>  <Standard Type>  (671) 
nan

>  <Standard Relation>  (671) 
nan

>  <Standard Units>  (671) 
nan

>  <Standard Value>  (671) 
nan

>  <Assay ChEMBL ID>  (671) 
nan

>  <Assay Description>  (671) 
nan

>  <BAO Label>  (671) 
nan

$$$$

     RDKit          2D

 30 33  0  0  0  0  0  0  0  0999 V2000
    3.7500    1.2990    0.0000 C   0  0  0  0  0  0  0  0  0  0  0  0
    3.0000    0.0000    0.0000 C   0  0  0  0  0  0  0  0  0  0  0  0
    1.5000    0.0000    0.0000 C   0  0  0  0  0  0  0  0  0  0  0  0
    0.7500   -1.2990    0.0000 C   0  0  0  0  0  0  0  0  0  0  0  0
    0.4895   -2.7762    0.0000 O   0  0  0  0  0  0  0  0  0  0  0  0
    2.1595   -1.8121    0.0000 C   0  0  0  0  0  0  0  0  0  0  0  0
    2.4200   -3.2893    0.0000 C   0  0  0  0  0  0  0  0  0  0  0  0
    3.8296   -3.8023    0.0000 C   0  0  0  0  0  0  0  0  0  0  0  0
    4.9786   -2.8381    0.0000 C   0  0  0  0  0  0  0  0  0  0  0  0
    4.7181   -1.3609    0.0000 C   0  0  0  0  0  0  0  0  0  0  0  0
    3.3086   -0.8479    0.0000 C   0  0  0  0  0  0  0  0  0  0  0  0
   -0.7500   -1.2990    0.0000 C   0  0  0  0  0  0  0  0  0  0  0  0
   -1.5000   -2.5981    0.0000 C   0  0  0  0  0  0  0  0  0  0  0  0
   -3.0000   -2.5981    0.0000 C   0  0  0  0  0  0  0  0  0  0  0  0
   -1.5000    0.0000    0.0000 C   0  0  0  0  0  0  0  0  0  0  0  0
   -3.0000    0.0000    0.0000 C   0  0  0  0  0  0  0  0  0  0  0  0
   -3.7500    1.2990    0.0000 C   0  0  0  0  0  0  0  0  0  0  0  0
   -5.2500    1.2990    0.0000 C   0  0  0  0  0  0  0  0  0  0  0  0
   -6.0000    0.0000    0.0000 C   0  0  0  0  0  0  0  0  0  0  0  0
   -5.2500   -1.2990    0.0000 C   0  0  0  0  0  0  0  0  0  0  0  0
   -3.7500   -1.2990    0.0000 C   0  0  0  0  0  0  0  0  0  0  0  0
   -0.7500    1.2990    0.0000 O   0  0  0  0  0  0  0  0  0  0  0  0
    0.7500    1.2990    0.0000 C   0  0  0  0  0  0  0  0  0  0  0  0
    2.1595    1.8121    0.0000 O   0  0  0  0  0  0  0  0  0  0  0  0
    0.4895    2.7762    0.0000 C   0  0  0  0  0  0  0  0  0  0  0  0
    1.6386    3.7404    0.0000 C   0  0  0  0  0  0  0  0  0  0  0  0
    1.3781    5.2176    0.0000 C   0  0  0  0  0  0  0  0  0  0  0  0
   -0.0314    5.7307    0.0000 C   0  0  0  0  0  0  0  0  0  0  0  0
   -1.1805    4.7665    0.0000 C   0  0  0  0  0  0  0  0  0  0  0  0
   -0.9200    3.2893    0.0000 C   0  0  0  0  0  0  0  0  0  0  0  0
  1  2  1  0
  3  2  1  6
  3  4  1  0
  4  5  1  1
  4  6  1  0
  6  7  2  0
  7  8  1  0
  8  9  2  0
  9 10  1  0
 10 11  2  0
  4 12  1  0
 12 13  1  1
 13 14  1  0
 12 15  1  0
 15 16  1  6
 16 17  2  0
 17 18  1  0
 18 19  2  0
 19 20  1  0
 20 21  2  0
 15 22  1  0
 22 23  1  0
 23 24  1  1
 23 25  1  0
 25 26  2  0
 26 27  1  0
 27 28  2  0
 28 29  1  0
 29 30  2  0
 23  3  1  0
 30 25  1  0
 11  6  1  0
 21 16  1  0
M  END
>  <Compound_ID>  (672) 
C35995951

>  <Active>  (672) 
0.0

>  <Smiles>  (672) 
CC[C@@H]1[C@](O)(c2ccccc2)[C@@H](CC)[C@H](c2ccccc2)O[C@]1(O)c1ccccc1

>  <canonical_smi>  (672) 
CC[C@H]1[C@H](c2ccccc2)O[C@](O)(c2ccccc2)[C@H](CC)[C@]1(O)c1ccccc1

>  <Set>  (672) 
G2 inactive

>  <Set_type>  (672) 
Train

>  <MW>  (672) 
402.53

>  <HBD>  (672) 
2

>  <HBA>  (672) 
3

>  <NRB>  (672) 
5

>  <NR>  (672) 
4

>  <NAR>  (672) 
3

>  <PSA>  (672) 
49.69

>  <Standard Type>  (672) 
nan

>  <Standard Relation>  (672) 
nan

>  <Standard Units>  (672) 
nan

>  <Standard Value>  (672) 
nan

>  <Assay ChEMBL ID>  (672) 
nan

>  <Assay Description>  (672) 
nan

>  <BAO Label>  (672) 
nan

$$$$

     RDKit          2D

 29 31  0  0  0  0  0  0  0  0999 V2000
    3.0000    0.0000    0.0000 C   0  0  0  0  0  0  0  0  0  0  0  0
    1.5000    0.0000    0.0000 C   0  0  0  0  0  0  0  0  0  0  0  0
    0.7500   -1.2990    0.0000 C   0  0  0  0  0  0  0  0  0  0  0  0
   -0.7500   -1.2990    0.0000 C   0  0  0  0  0  0  0  0  0  0  0  0
   -1.5000    0.0000    0.0000 C   0  0  0  0  0  0  0  0  0  0  0  0
   -3.0000    0.0000    0.0000 C   0  0  0  0  0  0  0  0  0  0  0  0
   -0.7500    1.2990    0.0000 C   0  0  0  0  0  0  0  0  0  0  0  0
   -1.5000    2.5981    0.0000 N   0  0  0  0  0  0  0  0  0  0  0  0
   -0.7500    3.8971    0.0000 C   0  0  0  0  0  0  0  0  0  0  0  0
   -1.5000    5.1962    0.0000 O   0  0  0  0  0  0  0  0  0  0  0  0
    0.7500    3.8971    0.0000 C   0  0  0  0  0  0  0  0  0  0  0  0
    1.5000    5.1962    0.0000 C   0  0  0  0  0  0  0  0  0  0  0  0
    3.0000    5.1962    0.0000 C   0  0  0  0  0  0  0  0  0  0  0  0
    3.7500    6.4952    0.0000 N   0  0  0  0  0  0  0  0  0  0  0  0
    5.2500    6.4952    0.0000 C   0  0  0  0  0  0  0  0  0  0  0  0
    6.0000    5.1962    0.0000 S   0  0  0  0  0  0  0  0  0  0  0  0
    6.0000    7.7942    0.0000 N   0  0  0  0  0  0  0  0  0  0  0  0
    7.5000    7.7942    0.0000 C   0  0  0  0  0  0  0  0  0  0  0  0
    8.2500    6.4952    0.0000 C   0  0  0  0  0  0  0  0  0  0  0  0
    9.7500    6.4952    0.0000 C   0  0  0  0  0  0  0  0  0  0  0  0
   10.5000    7.7942    0.0000 C   0  0  0  0  0  0  0  0  0  0  0  0
   12.0000    7.7942    0.0000 C   0  0  0  0  0  0  0  0  0  0  0  0
   13.5000    7.7942    0.0000 F   0  0  0  0  0  0  0  0  0  0  0  0
   12.0000    6.2942    0.0000 F   0  0  0  0  0  0  0  0  0  0  0  0
   12.0000    9.2942    0.0000 F   0  0  0  0  0  0  0  0  0  0  0  0
    9.7500    9.0933    0.0000 C   0  0  0  0  0  0  0  0  0  0  0  0
    8.2500    9.0933    0.0000 C   0  0  0  0  0  0  0  0  0  0  0  0
    1.5000    2.5981    0.0000 C   0  0  0  0  0  0  0  0  0  0  0  0
    0.7500    1.2990    0.0000 C   0  0  0  0  0  0  0  0  0  0  0  0
  1  2  1  0
  2  3  2  0
  3  4  1  0
  4  5  2  0
  5  6  1  0
  5  7  1  0
  7  8  1  0
  8  9  1  0
  9 10  2  0
  9 11  1  0
 11 12  1  0
 12 13  1  0
 13 14  1  0
 14 15  1  0
 15 16  2  0
 15 17  1  0
 17 18  1  0
 18 19  2  0
 19 20  1  0
 20 21  2  0
 21 22  1  0
 22 23  1  0
 22 24  1  0
 22 25  1  0
 21 26  1  0
 26 27  2  0
 11 28  2  0
 28 29  1  0
 29  2  1  0
 29  7  2  0
 27 18  1  0
M  END
>  <Compound_ID>  (673) 
C04225392

>  <Active>  (673) 
0.0

>  <Smiles>  (673) 
Cc1ccc(C)c2[nH]c(=O)c(CCNC(=S)Nc3ccc(C(F)(F)F)cc3)cc12

>  <canonical_smi>  (673) 
Cc1ccc(C)c2[nH]c(=O)c(CCNC(=S)Nc3ccc(C(F)(F)F)cc3)cc12

>  <Set>  (673) 
G2 inactive

>  <Set_type>  (673) 
Train

>  <MW>  (673) 
419.47

>  <HBD>  (673) 
3

>  <HBA>  (673) 
4

>  <NRB>  (673) 
4

>  <NR>  (673) 
3

>  <NAR>  (673) 
3

>  <PSA>  (673) 
56.92

>  <Standard Type>  (673) 
nan

>  <Standard Relation>  (673) 
nan

>  <Standard Units>  (673) 
nan

>  <Standard Value>  (673) 
nan

>  <Assay ChEMBL ID>  (673) 
nan

>  <Assay Description>  (673) 
nan

>  <BAO Label>  (673) 
nan

$$$$

     RDKit          2D

 30 32  0  0  0  0  0  0  0  0999 V2000
    1.5000   -5.1962    0.0000 C   0  0  0  0  0  0  0  0  0  0  0  0
    3.0000   -5.1962    0.0000 C   0  0  0  0  0  0  0  0  0  0  0  0
    3.7500   -3.8971    0.0000 C   0  0  0  0  0  0  0  0  0  0  0  0
    3.0000   -2.5981    0.0000 C   0  0  0  0  0  0  0  0  0  0  0  0
    1.5000   -2.5981    0.0000 C   0  0  0  0  0  0  0  0  0  0  0  0
    0.7500   -1.2990    0.0000 C   0  0  0  0  0  0  0  0  0  0  0  0
    1.5000    0.0000    0.0000 C   0  0  0  0  0  0  0  0  0  0  0  0
    0.7500    1.2990    0.0000 C   0  0  0  0  0  0  0  0  0  0  0  0
   -0.7500    1.2990    0.0000 C   0  0  0  0  0  0  0  0  0  0  0  0
   -1.5000    0.0000    0.0000 C   0  0  0  0  0  0  0  0  0  0  0  0
   -2.3817    1.2135    0.0000 C   0  0  0  0  0  0  0  0  0  0  0  0
   -0.7500   -1.2990    0.0000 C   0  0  0  0  0  0  0  0  0  0  0  0
   -1.7537   -2.4138    0.0000 C   0  0  0  0  0  0  0  0  0  0  0  0
   -3.1240   -1.8037    0.0000 C   0  0  0  0  0  0  0  0  0  0  0  0
   -2.9672   -0.3119    0.0000 C   0  0  0  0  0  0  0  0  0  0  0  0
   -4.0819    0.6918    0.0000 C   0  0  0  0  0  0  0  0  0  0  0  0
   -5.5085    0.2283    0.0000 C   0  0  0  0  0  0  0  0  0  0  0  0
   -3.7701    2.1590    0.0000 C   0  0  0  0  0  0  0  0  0  0  0  0
   -4.8848    3.1627    0.0000 C   0  0  0  0  0  0  0  0  0  0  0  0
   -4.5729    4.6300    0.0000 C   0  0  0  0  0  0  0  0  0  0  0  0
   -5.6876    5.6337    0.0000 C   0  0  0  0  0  0  0  0  0  0  0  0
   -6.6913    4.5189    0.0000 C   0  0  0  0  0  0  0  0  0  0  0  0
   -4.6839    6.7484    0.0000 C   0  0  0  0  0  0  0  0  0  0  0  0
   -6.8024    6.6374    0.0000 O   0  0  0  0  0  0  0  0  0  0  0  0
    5.2500   -3.8971    0.0000 C   0  0  0  0  0  0  0  0  0  0  0  0
    6.0000   -5.1962    0.0000 C   0  0  0  0  0  0  0  0  0  0  0  0
    7.5000   -5.1962    0.0000 O   0  0  0  0  0  0  0  0  0  0  0  0
    5.2500   -6.4952    0.0000 C   0  0  0  0  0  0  0  0  0  0  0  0
    3.7500   -6.4952    0.0000 C   0  0  0  0  0  0  0  0  0  0  0  0
    3.0000   -7.7942    0.0000 O   0  0  0  0  0  0  0  0  0  0  0  0
  1  2  2  0
  2  3  1  0
  3  4  2  0
  4  5  1  0
  5  6  2  0
  6  7  1  0
  7  8  1  0
  8  9  1  0
  9 10  1  0
 10 11  1  1
 10 12  1  0
 12 13  1  6
 13 14  1  0
 15 14  1  1
 15 16  1  0
 16 17  1  6
 16 18  1  0
 18 19  1  0
 19 20  1  0
 20 21  1  0
 21 22  1  0
 21 23  1  0
 21 24  1  0
  3 25  1  0
 25 26  1  0
 26 27  1  6
 26 28  1  0
 28 29  1  0
 29 30  1  6
 29  2  1  0
 12  6  1  0
 15 10  1  0
M  END
>  <Compound_ID>  (674) 
C43772526

>  <Active>  (674) 
0.0

>  <Smiles>  (674) 
C=C1/C(=C\C=C2/CCC[C@]3(C)[C@H]2CC[C@H]3[C@H](C)CCCC(C)(C)O)C[C@H](O)C[C@@H]1O

>  <canonical_smi>  (674) 
C=C1/C(=C\C=C2/CCC[C@@]3(C)[C@H]([C@H](C)CCCC(C)(C)O)CC[C@@H]23)C[C@H](O)C[C@@H]1O

>  <Set>  (674) 
G2 inactive

>  <Set_type>  (674) 
Train

>  <MW>  (674) 
416.65

>  <HBD>  (674) 
3

>  <HBA>  (674) 
3

>  <NRB>  (674) 
6

>  <NR>  (674) 
3

>  <NAR>  (674) 
0

>  <PSA>  (674) 
60.69

>  <Standard Type>  (674) 
nan

>  <Standard Relation>  (674) 
nan

>  <Standard Units>  (674) 
nan

>  <Standard Value>  (674) 
nan

>  <Assay ChEMBL ID>  (674) 
nan

>  <Assay Description>  (674) 
nan

>  <BAO Label>  (674) 
nan

$$$$

     RDKit          2D

 28 32  0  0  0  0  0  0  0  0999 V2000
    5.2500   -6.4952    0.0000 O   0  0  0  0  0  0  0  0  0  0  0  0
    6.0000   -5.1962    0.0000 C   0  0  0  0  0  0  0  0  0  0  0  0
    5.2500   -3.8971    0.0000 N   0  0  0  0  0  0  0  0  0  0  0  0
    3.7500   -3.8971    0.0000 N   0  0  0  0  0  0  0  0  0  0  0  0
    3.0000   -2.5981    0.0000 C   0  0  0  0  0  0  0  0  0  0  0  0
    1.5000   -2.5981    0.0000 C   0  0  0  0  0  0  0  0  0  0  0  0
    0.7500   -1.2990    0.0000 C   0  0  0  0  0  0  0  0  0  0  0  0
    1.5000    0.0000    0.0000 C   0  0  0  0  0  0  0  0  0  0  0  0
    0.7500    1.2990    0.0000 C   0  0  0  0  0  0  0  0  0  0  0  0
   -0.7500    1.2990    0.0000 C   0  0  0  0  0  0  0  0  0  0  0  0
   -1.5000    0.0000    0.0000 C   0  0  0  0  0  0  0  0  0  0  0  0
   -0.7500   -1.2990    0.0000 C   0  0  0  0  0  0  0  0  0  0  0  0
   -1.5000   -2.5981    0.0000 C   0  0  0  0  0  0  0  0  0  0  0  0
   -0.7500   -3.8971    0.0000 C   0  0  0  0  0  0  0  0  0  0  0  0
   -1.5000   -5.1962    0.0000 C   0  0  0  0  0  0  0  0  0  0  0  0
   -0.7500   -6.4952    0.0000 C   0  0  0  0  0  0  0  0  0  0  0  0
    0.7500   -6.4952    0.0000 C   0  0  0  0  0  0  0  0  0  0  0  0
    1.5000   -5.1962    0.0000 C   0  0  0  0  0  0  0  0  0  0  0  0
    0.7500   -3.8971    0.0000 C   0  0  0  0  0  0  0  0  0  0  0  0
    7.5000   -5.1962    0.0000 C   0  0  0  0  0  0  0  0  0  0  0  0
    8.3817   -3.9826    0.0000 C   0  0  0  0  0  0  0  0  0  0  0  0
    9.8083   -4.4462    0.0000 S   0  0  0  0  0  0  0  0  0  0  0  0
    9.8083   -5.9462    0.0000 C   0  0  0  0  0  0  0  0  0  0  0  0
    8.3817   -6.4097    0.0000 C   0  0  0  0  0  0  0  0  0  0  0  0
    8.0698   -7.8769    0.0000 C   0  0  0  0  0  0  0  0  0  0  0  0
    9.1845   -8.8806    0.0000 C   0  0  0  0  0  0  0  0  0  0  0  0
   10.6111   -8.4171    0.0000 C   0  0  0  0  0  0  0  0  0  0  0  0
   10.9230   -6.9498    0.0000 C   0  0  0  0  0  0  0  0  0  0  0  0
  1  2  2  0
  2  3  1  0
  3  4  1  0
  4  5  2  0
  5  6  1  0
  6  7  1  0
  7  8  2  0
  8  9  1  0
  9 10  2  0
 10 11  1  0
 11 12  2  0
 12 13  1  0
 13 14  2  0
 14 15  1  0
 15 16  2  0
 16 17  1  0
 17 18  2  0
 18 19  1  0
  2 20  1  0
 20 21  2  0
 21 22  1  0
 22 23  1  0
 23 24  2  0
 24 25  1  0
 25 26  1  0
 26 27  1  0
 27 28  1  0
 19  6  2  0
 24 20  1  0
 12  7  1  0
 19 14  1  0
 28 23  1  0
M  END
>  <Compound_ID>  (675) 
C40147181

>  <Active>  (675) 
0.0

>  <Smiles>  (675) 
O=C(N/N=C/c1c2ccccc2cc2ccccc12)c1csc2c1CCCC2

>  <canonical_smi>  (675) 
O=C(N/N=C/c1c2ccccc2cc2ccccc12)c1csc2c1CCCC2

>  <Set>  (675) 
G2 inactive

>  <Set_type>  (675) 
Train

>  <MW>  (675) 
384.5

>  <HBD>  (675) 
1

>  <HBA>  (675) 
1

>  <NRB>  (675) 
3

>  <NR>  (675) 
5

>  <NAR>  (675) 
4

>  <PSA>  (675) 
41.46

>  <Standard Type>  (675) 
nan

>  <Standard Relation>  (675) 
nan

>  <Standard Units>  (675) 
nan

>  <Standard Value>  (675) 
nan

>  <Assay ChEMBL ID>  (675) 
nan

>  <Assay Description>  (675) 
nan

>  <BAO Label>  (675) 
nan

$$$$

     RDKit          2D

 31 33  0  0  0  0  0  0  0  0999 V2000
    5.2500   -1.2990    0.0000 C   0  0  0  0  0  0  0  0  0  0  0  0
    3.7500   -1.2990    0.0000 C   0  0  0  0  0  0  0  0  0  0  0  0
    3.0000   -2.5981    0.0000 C   0  0  0  0  0  0  0  0  0  0  0  0
    3.0000    0.0000    0.0000 O   0  0  0  0  0  0  0  0  0  0  0  0
    1.5000    0.0000    0.0000 C   0  0  0  0  0  0  0  0  0  0  0  0
    0.7500   -1.2990    0.0000 C   0  0  0  0  0  0  0  0  0  0  0  0
   -0.7500   -1.2990    0.0000 C   0  0  0  0  0  0  0  0  0  0  0  0
   -1.5000    0.0000    0.0000 C   0  0  0  0  0  0  0  0  0  0  0  0
   -3.0000    0.0000    0.0000 C   0  0  0  0  0  0  0  0  0  0  0  0
   -3.7500    1.2990    0.0000 N   0  0  0  0  0  4  0  0  0  0  0  0
   -5.2500    1.2990    0.0000 C   0  0  0  0  0  0  0  0  0  0  0  0
   -6.0000    2.5981    0.0000 C   0  0  0  0  0  0  0  0  0  0  0  0
   -5.2500    3.8971    0.0000 C   0  0  0  0  0  0  0  0  0  0  0  0
   -3.7500    3.8971    0.0000 O   0  0  0  0  0  0  0  0  0  0  0  0
   -7.5000    2.5981    0.0000 C   0  0  0  0  0  0  0  0  0  0  0  0
   -7.2395    1.1209    0.0000 C   0  0  0  0  0  0  0  0  0  0  0  0
   -8.3886    0.1567    0.0000 C   0  0  0  0  0  0  0  0  0  0  0  0
   -9.7981    0.6697    0.0000 C   0  0  0  0  0  0  0  0  0  0  0  0
  -10.9472   -0.2945    0.0000 C   0  0  0  0  0  0  0  0  0  0  0  0
  -10.6867   -1.7717    0.0000 C   0  0  0  0  0  0  0  0  0  0  0  0
   -9.2772   -2.2847    0.0000 C   0  0  0  0  0  0  0  0  0  0  0  0
   -8.1281   -1.3205    0.0000 C   0  0  0  0  0  0  0  0  0  0  0  0
   -7.2395    4.0753    0.0000 C   0  0  0  0  0  0  0  0  0  0  0  0
   -8.3886    5.0395    0.0000 C   0  0  0  0  0  0  0  0  0  0  0  0
   -9.7981    4.5264    0.0000 O   0  0  0  0  0  0  0  0  0  0  0  0
  -10.0586    3.0492    0.0000 C   0  0  0  0  0  0  0  0  0  0  0  0
  -10.8086    1.7502    0.0000 C   0  0  0  0  0  0  0  0  0  0  0  0
  -11.4681    3.5623    0.0000 C   0  0  0  0  0  0  0  0  0  0  0  0
   -8.9095    2.0850    0.0000 C   0  0  0  0  0  0  0  0  0  0  0  0
   -0.7500    1.2990    0.0000 C   0  0  0  0  0  0  0  0  0  0  0  0
    0.7500    1.2990    0.0000 C   0  0  0  0  0  0  0  0  0  0  0  0
  1  2  1  0
  2  3  1  0
  2  4  1  0
  4  5  1  0
  5  6  2  0
  6  7  1  0
  7  8  2  0
  8  9  1  0
  9 10  1  0
 10 11  1  0
 12 11  1  6
 12 13  1  0
 13 14  1  0
 12 15  1  0
 15 16  1  1
 16 17  1  0
 17 18  2  0
 18 19  1  0
 19 20  2  0
 20 21  1  0
 21 22  2  0
 15 23  1  0
 23 24  1  0
 24 25  1  0
 25 26  1  0
 26 27  1  0
 26 28  1  0
 26 29  1  0
  8 30  1  0
 30 31  2  0
 31  5  1  0
 29 15  1  0
 22 17  1  0
M  CHG  1  10   1
M  END
>  <Compound_ID>  (676) 
C05230899

>  <Active>  (676) 
0.0

>  <Smiles>  (676) 
CC(C)Oc1ccc(C[NH2+]C[C@@H](CO)[C@@]2(Cc3ccccc3)CCOC(C)(C)C2)cc1

>  <canonical_smi>  (676) 
CC(C)Oc1ccc(C[NH2+]C[C@@H](CO)[C@@]2(Cc3ccccc3)CCOC(C)(C)C2)cc1

>  <Set>  (676) 
G2 inactive

>  <Set_type>  (676) 
Train

>  <MW>  (676) 
426.62

>  <HBD>  (676) 
2

>  <HBA>  (676) 
3

>  <NRB>  (676) 
10

>  <NR>  (676) 
3

>  <NAR>  (676) 
2

>  <PSA>  (676) 
55.3

>  <Standard Type>  (676) 
nan

>  <Standard Relation>  (676) 
nan

>  <Standard Units>  (676) 
nan

>  <Standard Value>  (676) 
nan

>  <Assay ChEMBL ID>  (676) 
nan

>  <Assay Description>  (676) 
nan

>  <BAO Label>  (676) 
nan

$$$$

     RDKit          2D

 30 33  0  0  0  0  0  0  0  0999 V2000
  -12.0000   -5.1962    0.0000 C   0  0  0  0  0  0  0  0  0  0  0  0
  -10.5000   -5.1962    0.0000 C   0  0  0  0  0  0  0  0  0  0  0  0
   -9.7500   -6.4952    0.0000 C   0  0  0  0  0  0  0  0  0  0  0  0
   -8.2500   -6.4952    0.0000 C   0  0  0  0  0  0  0  0  0  0  0  0
   -7.5000   -7.7942    0.0000 C   0  0  0  0  0  0  0  0  0  0  0  0
   -6.0000   -7.7942    0.0000 C   0  0  0  0  0  0  0  0  0  0  0  0
   -5.2500   -6.4952    0.0000 C   0  0  0  0  0  0  0  0  0  0  0  0
   -3.7500   -6.4952    0.0000 C   0  0  0  0  0  0  0  0  0  0  0  0
   -3.0000   -7.7942    0.0000 C   0  0  0  0  0  0  0  0  0  0  0  0
   -1.5000   -7.7942    0.0000 C   0  0  0  0  0  0  0  0  0  0  0  0
   -0.7500   -9.0933    0.0000 C   0  0  0  0  0  0  0  0  0  0  0  0
    0.7500   -9.0933    0.0000 S   0  0  0  0  0  0  0  0  0  0  0  0
    1.5000   -7.7942    0.0000 C   0  0  0  0  0  0  0  0  0  0  0  0
    0.7500   -6.4952    0.0000 C   0  0  0  0  0  0  0  0  0  0  0  0
    1.5000   -5.1962    0.0000 C   0  0  0  0  0  0  0  0  0  0  0  0
    3.0000   -5.1962    0.0000 O   0  0  0  0  0  0  0  0  0  0  0  0
    0.7500   -3.8971    0.0000 N   0  0  0  0  0  0  0  0  0  0  0  0
    1.5000   -2.5981    0.0000 C   0  0  0  0  0  0  0  0  0  0  0  0
    0.7500   -1.2990    0.0000 C   0  0  0  0  0  0  0  0  0  0  0  0
    1.5000    0.0000    0.0000 C   0  0  0  0  0  0  0  0  0  0  0  0
    0.7500    1.2990    0.0000 C   0  0  0  0  0  0  0  0  0  0  0  0
   -0.7500    1.2990    0.0000 C   0  0  0  0  0  0  0  0  0  0  0  0
   -1.5000    0.0000    0.0000 C   0  0  0  0  0  0  0  0  0  0  0  0
   -0.7500   -1.2990    0.0000 C   0  0  0  0  0  0  0  0  0  0  0  0
   -0.0000   -0.0000    0.0000 C   0  0  0  0  0  0  0  0  0  0  0  0
    0.9829   -0.4793    0.0000 C   0  0  0  0  0  0  0  0  0  0  0  0
    0.9829    0.4793    0.0000 C   0  0  0  0  0  0  0  0  0  0  0  0
   -0.7500   -6.4952    0.0000 N   0  0  0  0  0  4  0  0  0  0  0  0
   -3.7500   -9.0933    0.0000 C   0  0  0  0  0  0  0  0  0  0  0  0
   -5.2500   -9.0933    0.0000 C   0  0  0  0  0  0  0  0  0  0  0  0
  1  2  1  0
  2  3  1  0
  3  4  1  0
  4  5  1  0
  5  6  1  0
  6  7  2  0
  7  8  1  0
  8  9  2  0
 10  9  1  6
 10 11  1  0
 11 12  1  0
 12 13  1  0
 13 14  1  0
 14 15  1  6
 15 16  2  0
 15 17  1  0
 17 18  1  0
 19 18  1  1
 19 20  1  0
 20 21  1  0
 22 21  1  6
 22 23  1  0
 24 23  1  6
 24 25  1  0
 25 26  1  0
 25 27  1  0
 14 28  1  0
  9 29  1  0
 29 30  2  0
 30  6  1  0
 28 10  1  0
 24 19  1  0
 25 22  1  0
M  CHG  1  28   1
M  END
>  <Compound_ID>  (677) 
C43261674

>  <Active>  (677) 
0.0

>  <Smiles>  (677) 
CCCCCc1ccc([C@H]2CSC[C@@H](C(=O)NC[C@@H]3CC[C@H]4C[C@@H]3C4(C)C)[NH2+]2)cc1

>  <canonical_smi>  (677) 
CCCCCc1ccc([C@H]2CSC[C@@H](C(=O)NC[C@@H]3CC[C@H]4C[C@@H]3C4(C)C)[NH2+]2)cc1

>  <Set>  (677) 
G2 inactive

>  <Set_type>  (677) 
Train

>  <MW>  (677) 
429.69

>  <HBD>  (677) 
2

>  <HBA>  (677) 
2

>  <NRB>  (677) 
8

>  <NR>  (677) 
5

>  <NAR>  (677) 
1

>  <PSA>  (677) 
45.71

>  <Standard Type>  (677) 
nan

>  <Standard Relation>  (677) 
nan

>  <Standard Units>  (677) 
nan

>  <Standard Value>  (677) 
nan

>  <Assay ChEMBL ID>  (677) 
nan

>  <Assay Description>  (677) 
nan

>  <BAO Label>  (677) 
nan

$$$$

     RDKit          2D

 17 18  0  0  0  0  0  0  0  0999 V2000
    4.5000    0.0000    0.0000 N   0  0  0  0  0  0  0  0  0  0  0  0
    3.0000    0.0000    0.0000 C   0  0  0  0  0  0  0  0  0  0  0  0
    1.5000    0.0000    0.0000 C   0  0  0  0  0  0  0  0  0  0  0  0
    0.7500   -1.2990    0.0000 C   0  0  0  0  0  0  0  0  0  0  0  0
   -0.7500   -1.2990    0.0000 C   0  0  0  0  0  0  0  0  0  0  0  0
   -1.5000    0.0000    0.0000 C   0  0  0  0  0  0  0  0  0  0  0  0
   -3.0000    0.0000    0.0000 N   0  0  0  0  0  0  0  0  0  0  0  0
   -3.7500   -1.2990    0.0000 C   0  0  0  0  0  0  0  0  0  0  0  0
   -3.1399   -2.6694    0.0000 C   0  0  0  0  0  0  0  0  0  0  0  0
   -4.2546   -3.6731    0.0000 C   0  0  0  0  0  0  0  0  0  0  0  0
   -5.5537   -2.9231    0.0000 S   0  0  0  0  0  0  0  0  0  0  0  0
   -6.1638   -4.2934    0.0000 O   0  0  0  0  0  0  0  0  0  0  0  0
   -6.9802   -2.4595    0.0000 O   0  0  0  0  0  0  0  0  0  0  0  0
   -5.2418   -1.4558    0.0000 C   0  0  0  0  0  0  0  0  0  0  0  0
   -0.7500    1.2990    0.0000 C   0  0  0  0  0  0  0  0  0  0  0  0
   -1.5000    2.5981    0.0000 N   0  0  0  0  0  0  0  0  0  0  0  0
    0.7500    1.2990    0.0000 C   0  0  0  0  0  0  0  0  0  0  0  0
  1  2  3  0
  2  3  1  0
  3  4  2  0
  4  5  1  0
  5  6  2  0
  6  7  1  0
  8  7  1  1
  8  9  1  0
  9 10  1  0
 10 11  1  0
 11 12  2  0
 11 13  2  0
 11 14  1  0
  6 15  1  0
 15 16  1  0
 15 17  2  0
 17  3  1  0
 14  8  1  0
M  END
>  <Compound_ID>  (678) 
C35674366

>  <Active>  (678) 
0.0

>  <Smiles>  (678) 
N#Cc1ccc(N[C@H]2CCS(=O)(=O)C2)c(N)c1

>  <canonical_smi>  (678) 
N#Cc1ccc(N[C@H]2CCS(=O)(=O)C2)c(N)c1

>  <Set>  (678) 
G2 inactive

>  <Set_type>  (678) 
Train

>  <MW>  (678) 
251.31

>  <HBD>  (678) 
2

>  <HBA>  (678) 
5

>  <NRB>  (678) 
2

>  <NR>  (678) 
2

>  <NAR>  (678) 
1

>  <PSA>  (678) 
95.98

>  <Standard Type>  (678) 
nan

>  <Standard Relation>  (678) 
nan

>  <Standard Units>  (678) 
nan

>  <Standard Value>  (678) 
nan

>  <Assay ChEMBL ID>  (678) 
nan

>  <Assay Description>  (678) 
nan

>  <BAO Label>  (678) 
nan

$$$$

     RDKit          2D

 17 19  0  0  0  0  0  0  0  0999 V2000
    3.0000    0.0000    0.0000 C   0  0  0  0  0  0  0  0  0  0  0  0
    1.5000    0.0000    0.0000 C   0  0  0  0  0  0  0  0  0  0  0  0
    0.7500   -1.2990    0.0000 C   0  0  0  0  0  0  0  0  0  0  0  0
   -0.7500   -1.2990    0.0000 C   0  0  0  0  0  0  0  0  0  0  0  0
   -1.5000    0.0000    0.0000 C   0  0  0  0  0  0  0  0  0  0  0  0
   -2.9672    0.3119    0.0000 C   0  0  0  0  0  0  0  0  0  0  0  0
   -4.1807   -0.5698    0.0000 C   0  0  0  0  0  0  0  0  0  0  0  0
   -4.0240   -2.0616    0.0000 O   0  0  0  0  0  0  0  0  0  0  0  0
   -5.5511    0.0403    0.0000 N   0  0  0  0  0  0  0  0  0  0  0  0
   -5.7079    1.5321    0.0000 C   0  0  0  0  0  0  0  0  0  0  0  0
   -7.0782    2.1422    0.0000 N   0  0  0  0  0  2  0  0  0  0  0  0
   -7.2350    3.6340    0.0000 N   0  0  0  0  0  4  0  0  0  0  0  0
   -4.4943    2.4138    0.0000 N   0  0  0  0  0  0  0  0  0  0  0  0
   -3.1240    1.8037    0.0000 C   0  0  0  0  0  0  0  0  0  0  0  0
   -1.7537    2.4138    0.0000 S   0  0  0  0  0  0  0  0  0  0  0  0
   -0.7500    1.2990    0.0000 C   0  0  0  0  0  0  0  0  0  0  0  0
    0.7500    1.2990    0.0000 C   0  0  0  0  0  0  0  0  0  0  0  0
  2  1  1  1
  2  3  1  0
  3  4  1  0
  4  5  1  0
  5  6  2  0
  6  7  1  0
  7  8  2  0
  7  9  1  0
  9 10  2  0
 10 11  1  0
 11 12  1  0
 10 13  1  0
 13 14  2  0
 14 15  1  0
 15 16  1  0
 16 17  1  6
 17  2  1  0
 16  5  1  0
 14  6  1  0
M  CHG  2  11  -1  12   1
M  END
>  <Compound_ID>  (679) 
C38780473

>  <Active>  (679) 
0.0

>  <Smiles>  (679) 
C[C@H]1CCC2=C3C(=O)N=C([N-][NH3+])N=C3S[C@@H]2C1

>  <canonical_smi>  (679) 
C[C@H]1CCC2=C3C(=O)N=C([N-][NH3+])N=C3S[C@@H]2C1

>  <Set>  (679) 
G2 inactive

>  <Set_type>  (679) 
Train

>  <MW>  (679) 
250.33

>  <HBD>  (679) 
1

>  <HBA>  (679) 
2

>  <NRB>  (679) 
0

>  <NR>  (679) 
3

>  <NAR>  (679) 
0

>  <PSA>  (679) 
83.53

>  <Standard Type>  (679) 
nan

>  <Standard Relation>  (679) 
nan

>  <Standard Units>  (679) 
nan

>  <Standard Value>  (679) 
nan

>  <Assay ChEMBL ID>  (679) 
nan

>  <Assay Description>  (679) 
nan

>  <BAO Label>  (679) 
nan

$$$$

     RDKit          2D

 17 18  0  0  0  0  0  0  0  0999 V2000
    3.0000    0.0000    0.0000 N   0  0  0  0  0  0  0  0  0  0  0  0
    1.5000    0.0000    0.0000 C   0  0  0  0  0  0  0  0  0  0  0  0
    0.7500   -1.2990    0.0000 N   0  0  0  0  0  0  0  0  0  0  0  0
   -0.7500   -1.2990    0.0000 C   0  0  0  0  0  0  0  0  0  0  0  0
   -1.5000    0.0000    0.0000 C   0  0  0  0  0  0  0  0  0  0  0  0
   -0.7500    1.2990    0.0000 N   0  0  0  0  0  0  0  0  0  0  0  0
    0.7500    1.2990    0.0000 C   0  0  0  0  0  0  0  0  0  0  0  0
    1.5000    2.5981    0.0000 C   0  0  0  0  0  0  0  0  0  0  0  0
    0.7500    3.8971    0.0000 O   0  0  0  0  0  0  0  0  0  0  0  0
    3.0000    2.5981    0.0000 N   0  0  0  0  0  0  0  0  0  0  0  0
    3.7500    3.8971    0.0000 C   0  0  0  0  0  0  0  0  0  0  0  0
    5.2500    3.8971    0.0000 C   0  0  0  0  0  0  0  0  0  0  0  0
    6.0000    2.5981    0.0000 C   0  0  0  0  0  0  0  0  0  0  0  0
    7.5000    2.5981    0.0000 C   0  0  0  0  0  0  0  0  0  0  0  0
    8.2500    3.8971    0.0000 C   0  0  0  0  0  0  0  0  0  0  0  0
    7.5000    5.1962    0.0000 C   0  0  0  0  0  0  0  0  0  0  0  0
    6.0000    5.1962    0.0000 C   0  0  0  0  0  0  0  0  0  0  0  0
  1  2  1  0
  2  3  2  0
  3  4  1  0
  4  5  2  0
  5  6  1  0
  6  7  2  0
  7  8  1  0
  8  9  2  0
  8 10  1  0
 10 11  1  0
 12 11  1  1
 12 13  1  0
 13 14  1  0
 14 15  2  0
 15 16  1  0
 16 17  1  0
  7  2  1  0
 17 12  1  0
M  END
>  <Compound_ID>  (680) 
C49295314

>  <Active>  (680) 
0.0

>  <Smiles>  (680) 
Nc1nccnc1C(=O)NC[C@@H]1CC=CCC1

>  <canonical_smi>  (680) 
Nc1nccnc1C(=O)NC[C@@H]1CC=CCC1

>  <Set>  (680) 
G2 inactive

>  <Set_type>  (680) 
Train

>  <MW>  (680) 
232.29

>  <HBD>  (680) 
2

>  <HBA>  (680) 
4

>  <NRB>  (680) 
3

>  <NR>  (680) 
2

>  <NAR>  (680) 
1

>  <PSA>  (680) 
80.9

>  <Standard Type>  (680) 
nan

>  <Standard Relation>  (680) 
nan

>  <Standard Units>  (680) 
nan

>  <Standard Value>  (680) 
nan

>  <Assay ChEMBL ID>  (680) 
nan

>  <Assay Description>  (680) 
nan

>  <BAO Label>  (680) 
nan

$$$$

     RDKit          2D

 20 22  0  0  0  0  0  0  0  0999 V2000
    3.7500   -1.2990    0.0000 C   0  0  0  0  0  0  0  0  0  0  0  0
    3.0000    0.0000    0.0000 C   0  0  0  0  0  0  0  0  0  0  0  0
    1.5000    0.0000    0.0000 C   0  0  0  0  0  0  0  0  0  0  0  0
    0.7500   -1.2990    0.0000 C   0  0  0  0  0  0  0  0  0  0  0  0
   -0.7500   -1.2990    0.0000 C   0  0  0  0  0  0  0  0  0  0  0  0
   -1.5000    0.0000    0.0000 C   0  0  0  0  0  0  0  0  0  0  0  0
   -3.0000    0.0000    0.0000 C   0  0  0  0  0  0  0  0  0  0  0  0
   -3.8817   -1.2135    0.0000 C   0  0  0  0  0  0  0  0  0  0  0  0
   -5.3083   -0.7500    0.0000 C   0  0  0  0  0  0  0  0  0  0  0  0
   -6.5218   -1.6317    0.0000 C   0  0  0  0  0  0  0  0  0  0  0  0
   -6.5218   -3.1317    0.0000 N   0  0  0  0  0  0  0  0  0  0  0  0
   -7.9484   -3.5952    0.0000 N   0  0  0  0  0  0  0  0  0  0  0  0
   -8.8301   -2.3817    0.0000 C   0  0  0  0  0  0  0  0  0  0  0  0
  -10.3301   -2.3817    0.0000 S   0  0  0  0  0  0  0  0  0  0  0  0
   -7.9484   -1.1682    0.0000 N   0  0  0  0  0  0  0  0  0  0  0  0
   -8.4119    0.2584    0.0000 N   0  0  0  0  0  0  0  0  0  0  0  0
   -5.3083    0.7500    0.0000 N   0  0  0  0  0  0  0  0  0  0  0  0
   -3.8817    1.2135    0.0000 N   0  0  0  0  0  0  0  0  0  0  0  0
   -0.7500    1.2990    0.0000 C   0  0  0  0  0  0  0  0  0  0  0  0
    0.7500    1.2990    0.0000 C   0  0  0  0  0  0  0  0  0  0  0  0
  1  2  1  0
  2  3  1  0
  3  4  2  0
  4  5  1  0
  5  6  2  0
  6  7  1  0
  7  8  2  0
  9  8  1  1
  9 10  1  0
 10 11  1  6
 11 12  1  0
 12 13  1  0
 13 14  1  6
 13 15  1  0
 15 16  1  0
  9 17  1  0
 17 18  2  0
  6 19  1  0
 19 20  2  0
 20  3  1  0
 18  7  1  0
 15 10  1  0
M  END
>  <Compound_ID>  (681) 
C39280347

>  <Active>  (681) 
0.0

>  <Smiles>  (681) 
CCc1ccc(C2=C[C@@H]([C@@H]3NN[C@H](S)N3N)N=N2)cc1

>  <canonical_smi>  (681) 
CCc1ccc(C2=C[C@@H]([C@@H]3NN[C@H](S)N3N)N=N2)cc1

>  <Set>  (681) 
G2 inactive

>  <Set_type>  (681) 
Train

>  <MW>  (681) 
290.4

>  <HBD>  (681) 
4

>  <HBA>  (681) 
4

>  <NRB>  (681) 
3

>  <NR>  (681) 
3

>  <NAR>  (681) 
1

>  <PSA>  (681) 
78.04

>  <Standard Type>  (681) 
nan

>  <Standard Relation>  (681) 
nan

>  <Standard Units>  (681) 
nan

>  <Standard Value>  (681) 
nan

>  <Assay ChEMBL ID>  (681) 
nan

>  <Assay Description>  (681) 
nan

>  <BAO Label>  (681) 
nan

$$$$

     RDKit          2D

 18 19  0  0  0  0  0  0  0  0999 V2000
    0.7812    6.6080    0.0000 C   0  0  0  0  0  0  0  0  0  0  0  0
    0.3177    5.1814    0.0000 C   0  0  0  0  0  0  0  0  0  0  0  0
    1.3213    4.0667    0.0000 N   0  0  0  0  0  0  0  0  0  0  0  0
    0.8578    2.6401    0.0000 S   0  0  0  0  0  0  0  0  0  0  0  0
    2.2844    2.1766    0.0000 O   0  0  0  0  0  0  0  0  0  0  0  0
   -0.5688    3.1036    0.0000 O   0  0  0  0  0  0  0  0  0  0  0  0
    0.3943    1.2135    0.0000 C   0  0  0  0  0  0  0  0  0  0  0  0
    1.2760    0.0000    0.0000 C   0  0  0  0  0  0  0  0  0  0  0  0
    0.3943   -1.2135    0.0000 N   0  0  0  0  0  0  0  0  0  0  0  0
   -1.0323   -0.7500    0.0000 N   0  0  0  0  0  0  0  0  0  0  0  0
   -1.0323    0.7500    0.0000 C   0  0  0  0  0  0  0  0  0  0  0  0
   -2.2458    1.6317    0.0000 N   0  0  0  0  0  0  0  0  0  0  0  0
   -1.1496    4.8695    0.0000 C   0  0  0  0  0  0  0  0  0  0  0  0
   -1.7597    3.4992    0.0000 C   0  0  0  0  0  0  0  0  0  0  0  0
   -3.2515    3.6560    0.0000 C   0  0  0  0  0  0  0  0  0  0  0  0
   -3.5633    5.1232    0.0000 C   0  0  0  0  0  0  0  0  0  0  0  0
   -4.9336    5.7333    0.0000 Cl  0  0  0  0  0  0  0  0  0  0  0  0
   -2.2643    5.8732    0.0000 S   0  0  0  0  0  0  0  0  0  0  0  0
  2  1  1  1
  2  3  1  0
  3  4  1  0
  4  5  2  0
  4  6  2  0
  4  7  1  0
  7  8  2  0
  8  9  1  0
  9 10  1  0
 10 11  2  0
 11 12  1  0
  2 13  1  0
 13 14  2  0
 14 15  1  0
 15 16  2  0
 16 17  1  0
 16 18  1  0
 11  7  1  0
 18 13  1  0
M  END
>  <Compound_ID>  (682) 
C42585156

>  <Active>  (682) 
0.0

>  <Smiles>  (682) 
C[C@@H](NS(=O)(=O)c1c[nH]nc1N)c1ccc(Cl)s1

>  <canonical_smi>  (682) 
C[C@@H](NS(=O)(=O)c1c[nH]nc1N)c1ccc(Cl)s1

>  <Set>  (682) 
G2 inactive

>  <Set_type>  (682) 
Train

>  <MW>  (682) 
306.8

>  <HBD>  (682) 
3

>  <HBA>  (682) 
4

>  <NRB>  (682) 
4

>  <NR>  (682) 
2

>  <NAR>  (682) 
2

>  <PSA>  (682) 
100.87

>  <Standard Type>  (682) 
nan

>  <Standard Relation>  (682) 
nan

>  <Standard Units>  (682) 
nan

>  <Standard Value>  (682) 
nan

>  <Assay ChEMBL ID>  (682) 
nan

>  <Assay Description>  (682) 
nan

>  <BAO Label>  (682) 
nan

$$$$

     RDKit          2D

 22 23  0  0  0  0  0  0  0  0999 V2000
    7.4217   -8.0950    0.0000 C   0  0  0  0  0  0  0  0  0  0  0  0
    7.5785   -6.6032    0.0000 C   0  0  0  0  0  0  0  0  0  0  0  0
    6.3650   -5.7215    0.0000 C   0  0  0  0  0  0  0  0  0  0  0  0
    6.5218   -4.2298    0.0000 N   0  0  0  0  0  0  0  0  0  0  0  0
    5.3083   -3.3481    0.0000 C   0  0  0  0  0  0  0  0  0  0  0  0
    5.3083   -1.8481    0.0000 N   0  0  0  0  0  0  0  0  0  0  0  0
    3.8817   -1.3846    0.0000 C   0  0  0  0  0  0  0  0  0  0  0  0
    3.4182    0.0420    0.0000 N   0  0  0  0  0  0  0  0  0  0  0  0
    3.0000   -2.5981    0.0000 C   0  0  0  0  0  0  0  0  0  0  0  0
    1.5000   -2.5981    0.0000 C   0  0  0  0  0  0  0  0  0  0  0  0
    0.7500   -3.8971    0.0000 C   0  0  0  0  0  0  0  0  0  0  0  0
    1.5000   -5.1962    0.0000 C   0  0  0  0  0  0  0  0  0  0  0  0
    2.2500   -6.4952    0.0000 N   0  0  0  0  0  0  0  0  0  0  0  0
   -0.7500   -3.8971    0.0000 C   0  0  0  0  0  0  0  0  0  0  0  0
   -2.2500   -3.8971    0.0000 N   0  0  0  0  0  0  0  0  0  0  0  0
    0.7500   -1.2990    0.0000 C   0  0  0  0  0  0  0  0  0  0  0  0
    1.5000    0.0000    0.0000 C   0  0  0  0  0  0  0  0  0  0  0  0
    0.7500    1.2990    0.0000 C   0  0  0  0  0  0  0  0  0  0  0  0
   -0.7500    1.2990    0.0000 C   0  0  0  0  0  0  0  0  0  0  0  0
   -1.5000    0.0000    0.0000 C   0  0  0  0  0  0  0  0  0  0  0  0
   -0.7500   -1.2990    0.0000 C   0  0  0  0  0  0  0  0  0  0  0  0
    3.8817   -3.8116    0.0000 S   0  0  0  0  0  0  0  0  0  0  0  0
  1  2  2  0
  2  3  1  0
  3  4  1  0
  4  5  1  0
  5  6  2  0
  6  7  1  0
  7  8  1  0
  7  9  2  0
  9 10  1  0
 10 11  2  0
 11 12  1  0
 12 13  3  0
 11 14  1  0
 14 15  3  0
 10 16  1  0
 16 17  2  0
 17 18  1  0
 18 19  2  0
 19 20  1  0
 20 21  2  0
  9 22  1  0
 22  5  1  0
 21 16  1  0
M  END
>  <Compound_ID>  (683) 
C02070661

>  <Active>  (683) 
0.0

>  <Smiles>  (683) 
C=CCNc1nc(N)c(C(=C(C#N)C#N)c2ccccc2)s1

>  <canonical_smi>  (683) 
C=CCNc1nc(N)c(C(=C(C#N)C#N)c2ccccc2)s1

>  <Set>  (683) 
G2 inactive

>  <Set_type>  (683) 
Train

>  <MW>  (683) 
307.38

>  <HBD>  (683) 
2

>  <HBA>  (683) 
5

>  <NRB>  (683) 
5

>  <NR>  (683) 
2

>  <NAR>  (683) 
2

>  <PSA>  (683) 
98.52

>  <Standard Type>  (683) 
nan

>  <Standard Relation>  (683) 
nan

>  <Standard Units>  (683) 
nan

>  <Standard Value>  (683) 
nan

>  <Assay ChEMBL ID>  (683) 
nan

>  <Assay Description>  (683) 
nan

>  <BAO Label>  (683) 
nan

$$$$

     RDKit          2D

 26 28  0  0  0  0  0  0  0  0999 V2000
    5.5714    2.1085    0.0000 C   0  0  0  0  0  0  0  0  0  0  0  0
    5.2595    3.5757    0.0000 C   0  0  0  0  0  0  0  0  0  0  0  0
    4.9476    5.0429    0.0000 C   0  0  0  0  0  0  0  0  0  0  0  0
    3.7923    3.2638    0.0000 C   0  0  0  0  0  0  0  0  0  0  0  0
    6.7267    3.8876    0.0000 C   0  0  0  0  0  0  0  0  0  0  0  0
    7.7304    2.7729    0.0000 C   0  0  0  0  0  0  0  0  0  0  0  0
    9.1976    3.0847    0.0000 C   0  0  0  0  0  0  0  0  0  0  0  0
    9.6612    4.5113    0.0000 C   0  0  0  0  0  0  0  0  0  0  0  0
    8.6575    5.6260    0.0000 C   0  0  0  0  0  0  0  0  0  0  0  0
    7.1902    5.3142    0.0000 C   0  0  0  0  0  0  0  0  0  0  0  0
    6.1865    6.4289    0.0000 N   0  0  0  0  0  0  0  0  0  0  0  0
    4.7193    6.1170    0.0000 C   0  0  0  0  0  0  0  0  0  0  0  0
    3.7156    7.2317    0.0000 O   0  0  0  0  0  0  0  0  0  0  0  0
    4.2558    4.6904    0.0000 C   0  0  0  0  0  0  0  0  0  0  0  0
    2.7886    4.3786    0.0000 C   0  0  0  0  0  0  0  0  0  0  0  0
    2.3250    2.9520    0.0000 C   0  0  0  0  0  0  0  0  0  0  0  0
    0.8578    2.6401    0.0000 C   0  0  0  0  0  0  0  0  0  0  0  0
    0.3943    1.2135    0.0000 C   0  0  0  0  0  0  0  0  0  0  0  0
    1.2760    0.0000    0.0000 S   0  0  0  0  0  0  0  0  0  0  0  0
    0.3943   -1.2135    0.0000 C   0  0  0  0  0  0  0  0  0  0  0  0
   -1.0323   -0.7500    0.0000 C   0  0  0  0  0  0  0  0  0  0  0  0
   -2.4589   -1.2135    0.0000 N   0  0  0  0  0  0  0  0  0  0  0  0
   -3.3405    0.0000    0.0000 C   0  0  0  0  0  0  0  0  0  0  0  0
   -4.8405    0.0000    0.0000 O   0  0  0  0  0  0  0  0  0  0  0  0
   -2.4589    1.2135    0.0000 N   0  0  0  0  0  0  0  0  0  0  0  0
   -1.0323    0.7500    0.0000 C   0  0  0  0  0  0  0  0  0  0  0  0
  1  2  1  0
  2  3  1  0
  2  4  1  0
  5  2  1  1
  5  6  1  0
  6  7  1  0
  7  8  1  0
  8  9  1  0
  9 10  1  0
 10 11  1  1
 11 12  1  0
 12 13  2  0
 12 14  1  0
 14 15  1  0
 15 16  1  0
 16 17  1  0
 18 17  1  1
 18 19  1  0
 19 20  1  0
 21 20  1  1
 21 22  1  0
 22 23  1  0
 23 24  2  0
 23 25  1  0
 26 25  1  6
 10  5  1  0
 26 18  1  0
 26 21  1  0
M  END
>  <Compound_ID>  (684) 
C67160542

>  <Active>  (684) 
0.0

>  <Smiles>  (684) 
CC(C)(C)[C@@H]1CCCC[C@@H]1NC(=O)CCCC[C@H]1SC[C@H]2NC(=O)N[C@@H]21

>  <canonical_smi>  (684) 
CC(C)(C)[C@@H]1CCCC[C@@H]1NC(=O)CCCC[C@H]1SC[C@H]2NC(=O)N[C@@H]21

>  <Set>  (684) 
G2 inactive

>  <Set_type>  (684) 
Train

>  <MW>  (684) 
381.59

>  <HBD>  (684) 
3

>  <HBA>  (684) 
3

>  <NRB>  (684) 
6

>  <NR>  (684) 
3

>  <NAR>  (684) 
0

>  <PSA>  (684) 
70.23

>  <Standard Type>  (684) 
nan

>  <Standard Relation>  (684) 
nan

>  <Standard Units>  (684) 
nan

>  <Standard Value>  (684) 
nan

>  <Assay ChEMBL ID>  (684) 
nan

>  <Assay Description>  (684) 
nan

>  <BAO Label>  (684) 
nan

$$$$

     RDKit          2D

 21 23  0  0  0  0  0  0  0  0999 V2000
    4.0667   -3.6527    0.0000 N   0  0  0  0  0  0  0  0  0  0  0  0
    2.6401   -3.1891    0.0000 C   0  0  0  0  0  0  0  0  0  0  0  0
    1.2135   -2.7256    0.0000 C   0  0  0  0  0  0  0  0  0  0  0  0
   -0.0000   -3.6073    0.0000 C   0  0  0  0  0  0  0  0  0  0  0  0
   -0.0000   -5.1073    0.0000 N   0  0  0  0  0  2  0  0  0  0  0  0
   -1.2990   -5.8573    0.0000 S   0  0  0  0  0  0  0  0  0  0  0  0
   -2.0490   -4.5583    0.0000 O   0  0  0  0  0  0  0  0  0  0  0  0
   -0.5490   -7.1563    0.0000 O   0  0  0  0  0  0  0  0  0  0  0  0
   -2.5981   -6.6073    0.0000 C   0  0  0  0  0  0  0  0  0  0  0  0
   -3.8971   -5.8573    0.0000 C   0  0  0  0  0  0  0  0  0  0  0  0
   -5.1962   -6.6073    0.0000 C   0  0  0  0  0  0  0  0  0  0  0  0
   -5.1962   -8.1073    0.0000 C   0  0  0  0  0  0  0  0  0  0  0  0
   -3.8971   -8.8573    0.0000 C   0  0  0  0  0  0  0  0  0  0  0  0
   -2.5981   -8.1073    0.0000 C   0  0  0  0  0  0  0  0  0  0  0  0
   -1.2135   -2.7256    0.0000 S   0  0  0  0  0  0  0  0  0  0  0  0
   -0.7500   -1.2990    0.0000 C   0  0  0  0  0  0  0  0  0  0  0  0
    0.7500   -1.2990    0.0000 C   0  0  0  0  0  0  0  0  0  0  0  0
    1.5000    0.0000    0.0000 C   0  0  0  0  0  0  0  0  0  0  0  0
    0.7500    1.2990    0.0000 C   0  0  0  0  0  0  0  0  0  0  0  0
   -0.7500    1.2990    0.0000 N   0  0  0  0  0  4  0  0  0  0  0  0
   -1.5000    0.0000    0.0000 C   0  0  0  0  0  0  0  0  0  0  0  0
  1  2  3  0
  2  3  1  0
  3  4  2  0
  4  5  1  0
  5  6  1  0
  6  7  2  0
  6  8  2  0
  6  9  1  0
  9 10  2  0
 10 11  1  0
 11 12  2  0
 12 13  1  0
 13 14  2  0
  4 15  1  0
 15 16  1  0
 16 17  2  0
 17 18  1  0
 18 19  1  0
 19 20  1  0
 20 21  1  0
 17  3  1  0
 14  9  1  0
 21 16  1  0
M  CHG  2   5  -1  20   1
M  END
>  <Compound_ID>  (685) 
C36288360

>  <Active>  (685) 
0.0

>  <Smiles>  (685) 
N#Cc1c([N-]S(=O)(=O)c2ccccc2)sc2c1CC[NH2+]C2

>  <canonical_smi>  (685) 
N#Cc1c([N-]S(=O)(=O)c2ccccc2)sc2c1CC[NH2+]C2

>  <Set>  (685) 
G2 inactive

>  <Set_type>  (685) 
Train

>  <MW>  (685) 
319.41

>  <HBD>  (685) 
1

>  <HBA>  (685) 
3

>  <NRB>  (685) 
3

>  <NR>  (685) 
3

>  <NAR>  (685) 
2

>  <PSA>  (685) 
88.64

>  <Standard Type>  (685) 
nan

>  <Standard Relation>  (685) 
nan

>  <Standard Units>  (685) 
nan

>  <Standard Value>  (685) 
nan

>  <Assay ChEMBL ID>  (685) 
nan

>  <Assay Description>  (685) 
nan

>  <BAO Label>  (685) 
nan

$$$$

     RDKit          2D

 23 25  0  0  0  0  0  0  0  0999 V2000
   -4.9294   -1.5000    0.0000 C   0  0  0  0  0  0  0  0  0  0  0  0
   -3.6304   -0.7500    0.0000 C   0  0  0  0  0  0  0  0  0  0  0  0
   -3.6304    0.7500    0.0000 C   0  0  0  0  0  0  0  0  0  0  0  0
   -2.3313    1.5000    0.0000 C   0  0  0  0  0  0  0  0  0  0  0  0
   -1.0323    0.7500    0.0000 C   0  0  0  0  0  0  0  0  0  0  0  0
    0.3943    1.2135    0.0000 C   0  0  0  0  0  0  0  0  0  0  0  0
    0.8578    2.6401    0.0000 C   0  0  0  0  0  0  0  0  0  0  0  0
    2.3250    2.9520    0.0000 C   0  0  0  0  0  0  0  0  0  0  0  0
    3.3287    1.8373    0.0000 O   0  0  0  0  0  0  0  0  0  0  0  0
    2.7886    4.3786    0.0000 N   0  0  0  0  0  0  0  0  0  0  0  0
    4.2558    4.6904    0.0000 C   0  0  0  0  0  0  0  0  0  0  0  0
    4.6114    6.1477    0.0000 C   0  0  0  0  0  0  0  0  0  0  0  0
    5.9725    6.7782    0.0000 C   0  0  0  0  0  0  0  0  0  0  0  0
    7.3140    6.1072    0.0000 C   0  0  0  0  0  0  0  0  0  0  0  0
    7.6259    4.6400    0.0000 C   0  0  0  0  0  0  0  0  0  0  0  0
    6.6732    3.4814    0.0000 N   0  0  0  0  0  0  0  0  0  0  0  0
    5.1734    3.5038    0.0000 C   0  0  0  0  0  0  0  0  0  0  0  0
    4.5024    2.1623    0.0000 O   0  0  0  0  0  0  0  0  0  0  0  0
    1.2760    0.0000    0.0000 C   0  0  0  0  0  0  0  0  0  0  0  0
    0.3943   -1.2135    0.0000 O   0  0  0  0  0  0  0  0  0  0  0  0
   -1.0323   -0.7500    0.0000 C   0  0  0  0  0  0  0  0  0  0  0  0
   -2.3313   -1.5000    0.0000 C   0  0  0  0  0  0  0  0  0  0  0  0
   -2.3313   -3.0000    0.0000 C   0  0  0  0  0  0  0  0  0  0  0  0
  1  2  1  0
  2  3  2  0
  3  4  1  0
  4  5  2  0
  5  6  1  0
  6  7  1  0
  7  8  1  0
  8  9  2  0
  8 10  1  0
 11 10  1  6
 11 12  1  0
 12 13  1  0
 13 14  1  0
 14 15  1  0
 15 16  1  0
 16 17  1  0
 17 18  2  0
  6 19  2  0
 19 20  1  0
 20 21  1  0
 21 22  2  0
 22 23  1  0
 22  2  1  0
 21  5  1  0
 17 11  1  0
M  END
>  <Compound_ID>  (686) 
C47173160

>  <Active>  (686) 
0.0

>  <Smiles>  (686) 
Cc1ccc2c(CC(=O)N[C@@H]3CCCCNC3=O)coc2c1C

>  <canonical_smi>  (686) 
Cc1ccc2c(CC(=O)N[C@@H]3CCCCNC3=O)coc2c1C

>  <Set>  (686) 
G2 inactive

>  <Set_type>  (686) 
Train

>  <MW>  (686) 
314.39

>  <HBD>  (686) 
2

>  <HBA>  (686) 
3

>  <NRB>  (686) 
3

>  <NR>  (686) 
3

>  <NAR>  (686) 
2

>  <PSA>  (686) 
71.34

>  <Standard Type>  (686) 
nan

>  <Standard Relation>  (686) 
nan

>  <Standard Units>  (686) 
nan

>  <Standard Value>  (686) 
nan

>  <Assay ChEMBL ID>  (686) 
nan

>  <Assay Description>  (686) 
nan

>  <BAO Label>  (686) 
nan

$$$$

     RDKit          2D

 20 21  0  0  0  0  0  0  0  0999 V2000
    6.7500    1.2990    0.0000 C   0  0  0  0  0  0  0  0  0  0  0  0
    5.2500    1.2990    0.0000 C   0  0  0  0  0  0  0  0  0  0  0  0
    4.5000    0.0000    0.0000 N   0  0  0  0  0  0  0  0  0  0  0  0
    3.0000    0.0000    0.0000 S   0  0  0  0  0  0  0  0  0  0  0  0
    3.0000   -1.5000    0.0000 O   0  0  0  0  0  0  0  0  0  0  0  0
    3.0000    1.5000    0.0000 O   0  0  0  0  0  0  0  0  0  0  0  0
    1.5000    0.0000    0.0000 C   0  0  0  0  0  0  0  0  0  0  0  0
    0.7500   -1.2990    0.0000 C   0  0  0  0  0  0  0  0  0  0  0  0
   -0.7500   -1.2990    0.0000 C   0  0  0  0  0  0  0  0  0  0  0  0
   -1.5000    0.0000    0.0000 C   0  0  0  0  0  0  0  0  0  0  0  0
   -3.0000    0.0000    0.0000 N   0  0  0  0  0  0  0  0  0  0  0  0
   -3.7500    1.2990    0.0000 C   0  0  0  0  0  0  0  0  0  0  0  0
   -3.0000    2.5981    0.0000 C   0  0  0  0  0  0  0  0  0  0  0  0
   -3.7500    3.8971    0.0000 C   0  0  0  0  0  0  0  0  0  0  0  0
   -5.2500    3.8971    0.0000 C   0  0  0  0  0  0  0  0  0  0  0  0
   -6.0000    2.5981    0.0000 C   0  0  0  0  0  0  0  0  0  0  0  0
   -5.2500    1.2990    0.0000 C   0  0  0  0  0  0  0  0  0  0  0  0
   -6.0000    0.0000    0.0000 O   0  0  0  0  0  0  0  0  0  0  0  0
   -0.7500    1.2990    0.0000 C   0  0  0  0  0  0  0  0  0  0  0  0
    0.7500    1.2990    0.0000 C   0  0  0  0  0  0  0  0  0  0  0  0
  1  2  1  0
  2  3  1  0
  3  4  1  0
  4  5  2  0
  4  6  2  0
  4  7  1  0
  7  8  2  0
  8  9  1  0
  9 10  2  0
 10 11  1  0
 12 11  1  1
 12 13  1  0
 13 14  1  0
 14 15  1  0
 15 16  1  0
 16 17  1  0
 17 18  1  6
 10 19  1  0
 19 20  2  0
 20  7  1  0
 17 12  1  0
M  END
>  <Compound_ID>  (687) 
C52006570

>  <Active>  (687) 
0.0

>  <Smiles>  (687) 
CCNS(=O)(=O)c1ccc(N[C@@H]2CCCC[C@H]2O)cc1

>  <canonical_smi>  (687) 
CCNS(=O)(=O)c1ccc(N[C@@H]2CCCC[C@H]2O)cc1

>  <Set>  (687) 
G2 inactive

>  <Set_type>  (687) 
Train

>  <MW>  (687) 
298.41

>  <HBD>  (687) 
3

>  <HBA>  (687) 
4

>  <NRB>  (687) 
5

>  <NR>  (687) 
2

>  <NAR>  (687) 
1

>  <PSA>  (687) 
78.43

>  <Standard Type>  (687) 
nan

>  <Standard Relation>  (687) 
nan

>  <Standard Units>  (687) 
nan

>  <Standard Value>  (687) 
nan

>  <Assay ChEMBL ID>  (687) 
nan

>  <Assay Description>  (687) 
nan

>  <BAO Label>  (687) 
nan

$$$$

     RDKit          2D

 33 36  0  0  0  0  0  0  0  0999 V2000
   -4.5556    9.1664    0.0000 C   0  0  0  0  0  0  0  0  0  0  0  0
   -3.4408    8.1628    0.0000 C   0  0  0  0  0  0  0  0  0  0  0  0
   -3.7527    6.6955    0.0000 C   0  0  0  0  0  0  0  0  0  0  0  0
   -2.6380    5.6918    0.0000 C   0  0  0  0  0  0  0  0  0  0  0  0
   -1.2114    6.1554    0.0000 O   0  0  0  0  0  0  0  0  0  0  0  0
   -2.9499    4.2246    0.0000 N   0  0  0  0  0  0  0  0  0  0  0  0
   -1.8351    3.2209    0.0000 C   0  0  0  0  0  0  0  0  0  0  0  0
   -2.1470    1.7537    0.0000 N   0  0  0  0  0  0  0  0  0  0  0  0
   -1.0323    0.7500    0.0000 C   0  0  0  0  0  0  0  0  0  0  0  0
    0.3943    1.2135    0.0000 C   0  0  0  0  0  0  0  0  0  0  0  0
    1.2760    0.0000    0.0000 N   0  0  0  0  0  0  0  0  0  0  0  0
    0.3943   -1.2135    0.0000 C   0  0  0  0  0  0  0  0  0  0  0  0
   -1.0323   -0.7500    0.0000 N   0  0  0  0  0  0  0  0  0  0  0  0
   -2.2458   -1.6317    0.0000 C   0  0  0  0  0  0  0  0  0  0  0  0
   -3.6724   -1.1682    0.0000 O   0  0  0  0  0  0  0  0  0  0  0  0
   -4.5541   -2.3817    0.0000 C   0  0  0  0  0  0  0  0  0  0  0  0
   -6.0459   -2.5385    0.0000 C   0  0  0  0  0  0  0  0  0  0  0  0
   -6.6560   -3.9088    0.0000 O   0  0  0  0  0  0  0  0  0  0  0  0
   -5.7743   -5.1223    0.0000 P   0  0  0  0  0  5  0  0  0  0  0  0
   -5.3608   -6.5642    0.0000 O   0  0  0  0  0  0  0  0  0  0  0  0
   -7.1225   -5.7799    0.0000 O   0  0  0  0  0  1  0  0  0  0  0  0
   -4.2825   -4.9655    0.0000 O   0  0  0  0  0  0  0  0  0  0  0  0
   -3.6724   -3.5952    0.0000 C   0  0  0  0  0  0  0  0  0  0  0  0
   -2.2458   -3.1317    0.0000 C   0  0  0  0  0  0  0  0  0  0  0  0
   -1.0323   -4.0134    0.0000 O   0  0  0  0  0  0  0  0  0  0  0  0
   -1.1891   -5.5051    0.0000 C   0  0  0  0  0  0  0  0  0  0  0  0
   -2.5594   -6.1152    0.0000 O   0  0  0  0  0  0  0  0  0  0  0  0
    0.0244   -6.3868    0.0000 C   0  0  0  0  0  0  0  0  0  0  0  0
   -0.1323   -7.8786    0.0000 C   0  0  0  0  0  0  0  0  0  0  0  0
    1.0812   -8.7603    0.0000 C   0  0  0  0  0  0  0  0  0  0  0  0
    0.7062    2.6807    0.0000 C   0  0  0  0  0  0  0  0  0  0  0  0
    2.1328    3.1443    0.0000 O   0  0  0  0  0  0  0  0  0  0  0  0
   -0.4086    3.6844    0.0000 N   0  0  0  0  0  0  0  0  0  0  0  0
  1  2  1  0
  2  3  1  0
  3  4  1  0
  4  5  2  0
  4  6  1  0
  6  7  1  0
  7  8  2  0
  8  9  1  0
  9 10  2  0
 10 11  1  0
 11 12  2  0
 12 13  1  0
 14 13  1  1
 14 15  1  0
 15 16  1  0
 16 17  1  1
 17 18  1  0
 18 19  1  0
 19 20  2  0
 19 21  1  1
 19 22  1  0
 23 22  1  6
 23 24  1  0
 24 25  1  6
 25 26  1  0
 26 27  2  0
 26 28  1  0
 28 29  1  0
 29 30  1  0
 10 31  1  0
 31 32  2  0
 31 33  1  0
 33  7  1  0
 13  9  1  0
 24 14  1  0
 23 16  1  0
M  CHG  1  21  -1
M  END
>  <Compound_ID>  (688) 
C13515952

>  <Active>  (688) 
0.0

>  <Smiles>  (688) 
CCCC(=O)Nc1nc2c(ncn2[C@@H]2O[C@@H]3CO[P@](=O)([O-])O[C@H]3[C@H]2OC(=O)CCC)c(=O)[nH]1

>  <canonical_smi>  (688) 
CCCC(=O)Nc1nc2c(ncn2[C@@H]2O[C@@H]3CO[P@](=O)([O-])O[C@H]3[C@H]2OC(=O)CCC)c(=O)[nH]1

>  <Set>  (688) 
G2 inactive

>  <Set_type>  (688) 
Train

>  <MW>  (688) 
484.38

>  <HBD>  (688) 
2

>  <HBA>  (688) 
11

>  <NRB>  (688) 
7

>  <NR>  (688) 
4

>  <NAR>  (688) 
2

>  <PSA>  (688) 
186.79

>  <Standard Type>  (688) 
nan

>  <Standard Relation>  (688) 
nan

>  <Standard Units>  (688) 
nan

>  <Standard Value>  (688) 
nan

>  <Assay ChEMBL ID>  (688) 
nan

>  <Assay Description>  (688) 
nan

>  <BAO Label>  (688) 
nan

$$$$

     RDKit          2D

 35 36  0  0  0  0  0  0  0  0999 V2000
   -5.2500   -6.4952    0.0000 C   0  0  0  0  0  0  0  0  0  0  0  0
   -6.0000   -5.1962    0.0000 S   0  0  0  0  0  0  0  0  0  0  0  0
   -5.2500   -3.8971    0.0000 C   0  0  0  0  0  0  0  0  0  0  0  0
   -3.7500   -3.8971    0.0000 N   0  0  0  0  0  0  0  0  0  0  0  0
   -3.0000   -2.5981    0.0000 C   0  0  0  0  0  0  0  0  0  0  0  0
   -1.5000   -2.5981    0.0000 N   0  0  0  0  0  0  0  0  0  0  0  0
   -0.7500   -3.8971    0.0000 C   0  0  0  0  0  0  0  0  0  0  0  0
   -1.5000   -5.1962    0.0000 O   0  0  0  0  0  0  0  0  0  0  0  0
   -0.7500   -6.4952    0.0000 C   0  0  0  0  0  0  0  0  0  0  0  0
    0.7500   -6.4952    0.0000 C   0  0  0  0  0  0  0  0  0  0  0  0
    1.5000   -7.7942    0.0000 O   0  0  0  0  0  0  0  0  0  0  0  0
    0.7500   -9.0933    0.0000 C   0  0  0  0  0  0  0  0  0  0  0  0
    1.5000  -10.3923    0.0000 C   0  0  0  0  0  0  0  0  0  0  0  0
   -0.7500   -9.0933    0.0000 O   0  0  0  0  0  0  0  0  0  0  0  0
    1.5000   -5.1962    0.0000 C   0  0  0  0  0  0  0  0  0  0  0  0
    3.0000   -5.1962    0.0000 O   0  0  0  0  0  0  0  0  0  0  0  0
    3.7500   -6.4952    0.0000 C   0  0  0  0  0  0  0  0  0  0  0  0
    5.2500   -6.4952    0.0000 C   0  0  0  0  0  0  0  0  0  0  0  0
    3.0000   -7.7942    0.0000 O   0  0  0  0  0  0  0  0  0  0  0  0
    0.7500   -3.8971    0.0000 C   0  0  0  0  0  0  0  0  0  0  0  0
    1.5000   -2.5981    0.0000 O   0  0  0  0  0  0  0  0  0  0  0  0
    3.0000   -2.5981    0.0000 C   0  0  0  0  0  0  0  0  0  0  0  0
    3.7500   -1.2990    0.0000 C   0  0  0  0  0  0  0  0  0  0  0  0
    3.7500   -3.8971    0.0000 O   0  0  0  0  0  0  0  0  0  0  0  0
   -3.7500   -1.2990    0.0000 C   0  0  0  0  0  0  0  0  0  0  0  0
   -3.0000   -0.0000    0.0000 N   0  0  0  0  0  0  0  0  0  0  0  0
   -3.7500    1.2990    0.0000 C   0  0  0  0  0  0  0  0  0  0  0  0
   -5.2500    1.2990    0.0000 C   0  0  0  0  0  0  0  0  0  0  0  0
   -3.0000    2.5981    0.0000 C   0  0  0  0  0  0  0  0  0  0  0  0
   -3.7500    3.8971    0.0000 C   0  0  0  0  0  0  0  0  0  0  0  0
   -1.5000    2.5981    0.0000 O   0  0  0  0  0  0  0  0  0  0  0  0
   -5.2500   -1.2990    0.0000 C   0  0  0  0  0  0  0  0  0  0  0  0
   -6.0000   -0.0000    0.0000 O   0  0  0  0  0  0  0  0  0  0  0  0
   -6.0000   -2.5981    0.0000 N   0  0  0  0  0  0  0  0  0  0  0  0
   -7.5000   -2.5981    0.0000 C   0  0  0  0  0  0  0  0  0  0  0  0
  1  2  1  0
  2  3  1  0
  3  4  2  0
  4  5  1  0
  5  6  1  0
  7  6  1  1
  7  8  1  0
  8  9  1  0
  9 10  1  0
 10 11  1  6
 11 12  1  0
 12 13  1  0
 12 14  2  0
 10 15  1  0
 15 16  1  1
 16 17  1  0
 17 18  1  0
 17 19  2  0
 15 20  1  0
 20 21  1  6
 21 22  1  0
 22 23  1  0
 22 24  2  0
  5 25  2  0
 25 26  1  0
 26 27  2  0
 27 28  1  0
 27 29  1  0
 29 30  1  0
 29 31  2  0
 25 32  1  0
 32 33  2  0
 32 34  1  0
 34 35  1  0
 34  3  1  0
 20  7  1  0
M  END
>  <Compound_ID>  (689) 
C16953040

>  <Active>  (689) 
0.0

>  <Smiles>  (689) 
CSc1nc(N[C@@H]2OC[C@@H](OC(C)=O)[C@H](OC(C)=O)[C@H]2OC(C)=O)c(/N=C(\C)C(C)=O)c(=O)n1C

>  <canonical_smi>  (689) 
CSc1nc(N[C@@H]2OC[C@@H](OC(C)=O)[C@H](OC(C)=O)[C@H]2OC(C)=O)c(/N=C(\C)C(C)=O)c(=O)n1C

>  <Set>  (689) 
G2 inactive

>  <Set_type>  (689) 
Train

>  <MW>  (689) 
512.54

>  <HBD>  (689) 
1

>  <HBA>  (689) 
12

>  <NRB>  (689) 
8

>  <NR>  (689) 
2

>  <NAR>  (689) 
1

>  <PSA>  (689) 
164.48

>  <Standard Type>  (689) 
nan

>  <Standard Relation>  (689) 
nan

>  <Standard Units>  (689) 
nan

>  <Standard Value>  (689) 
nan

>  <Assay ChEMBL ID>  (689) 
nan

>  <Assay Description>  (689) 
nan

>  <BAO Label>  (689) 
nan

$$$$

     RDKit          2D

 33 37  0  0  0  0  0  0  0  0999 V2000
   -3.3283   11.0701    0.0000 C   0  0  0  0  0  0  0  0  0  0  0  0
   -3.9384   12.4404    0.0000 C   0  0  0  0  0  0  0  0  0  0  0  0
   -5.4302   12.5972    0.0000 C   0  0  0  0  0  0  0  0  0  0  0  0
   -6.0403   13.9676    0.0000 N   0  0  0  0  0  0  0  0  0  0  0  0
   -5.2903   15.2666    0.0000 C   0  0  0  0  0  0  0  0  0  0  0  0
   -3.7985   15.4234    0.0000 S   0  0  0  0  0  1  0  0  0  0  0  0
   -6.2940   16.3813    0.0000 N   0  0  0  0  0  0  0  0  0  0  0  0
   -7.6643   15.7712    0.0000 N   0  0  0  0  0  0  0  0  0  0  0  0
   -7.5075   14.2794    0.0000 C   0  0  0  0  0  0  0  0  0  0  0  0
   -8.6222   13.2757    0.0000 C   0  0  0  0  0  0  0  0  0  0  0  0
   -8.3104   11.8085    0.0000 C   0  0  0  0  0  0  0  0  0  0  0  0
   -6.9401   11.1984    0.0000 N   0  0  0  0  0  0  0  0  0  0  0  0
   -7.0969    9.7066    0.0000 C   0  0  0  0  0  0  0  0  0  0  0  0
   -5.9821    8.7029    0.0000 N   0  0  0  0  0  0  0  0  0  0  0  0
   -6.2940    7.2357    0.0000 C   0  0  0  0  0  0  0  0  0  0  0  0
   -7.7206    6.7722    0.0000 O   0  0  0  0  0  0  0  0  0  0  0  0
   -5.1793    6.2320    0.0000 C   0  0  0  0  0  0  0  0  0  0  0  0
   -5.4912    4.7648    0.0000 C   0  0  0  0  0  0  0  0  0  0  0  0
   -4.3764    3.7611    0.0000 C   0  0  0  0  0  0  0  0  0  0  0  0
   -2.9499    4.2246    0.0000 N   0  0  0  0  0  0  0  0  0  0  0  0
   -1.8351    3.2209    0.0000 C   0  0  0  0  0  0  0  0  0  0  0  0
   -0.4086    3.6844    0.0000 C   0  0  0  0  0  0  0  0  0  0  0  0
    0.7062    2.6807    0.0000 C   0  0  0  0  0  0  0  0  0  0  0  0
    0.3943    1.2135    0.0000 C   0  0  0  0  0  0  0  0  0  0  0  0
    1.2760    0.0000    0.0000 N   0  0  0  0  0  0  0  0  0  0  0  0
    0.3943   -1.2135    0.0000 N   0  0  0  0  0  0  0  0  0  0  0  0
   -1.0323   -0.7500    0.0000 N   0  0  0  0  0  0  0  0  0  0  0  0
   -1.0323    0.7500    0.0000 N   0  0  0  0  0  0  0  0  0  0  0  0
   -2.1470    1.7537    0.0000 N   0  0  0  0  0  0  0  0  0  0  0  0
   -2.6380    5.6918    0.0000 C   0  0  0  0  0  0  0  0  0  0  0  0
   -3.7527    6.6955    0.0000 C   0  0  0  0  0  0  0  0  0  0  0  0
   -8.5641    9.3948    0.0000 S   0  0  0  0  0  0  0  0  0  0  0  0
   -9.3141   10.6938    0.0000 C   0  0  0  0  0  0  0  0  0  0  0  0
  1  2  2  0
  2  3  1  0
  3  4  1  0
  4  5  1  0
  5  6  1  0
  5  7  2  0
  7  8  1  0
  8  9  2  0
  9 10  1  0
 10 11  1  0
 11 12  2  0
 12 13  1  0
 13 14  1  6
 14 15  1  0
 15 16  2  0
 15 17  1  0
 17 18  1  0
 18 19  1  0
 19 20  1  0
 20 21  1  0
 21 22  1  0
 22 23  2  0
 23 24  1  0
 24 25  2  0
 25 26  1  0
 26 27  2  0
 27 28  1  0
 28 29  1  0
 20 30  1  0
 30 31  1  0
 13 32  1  0
 32 33  1  0
  9  4  1  0
 33 11  1  0
 31 17  1  0
 29 21  2  0
 28 24  1  0
M  CHG  1   6  -1
M  END
>  <Compound_ID>  (690) 
C38798903

>  <Active>  (690) 
0.0

>  <Smiles>  (690) 
C=CCn1c([S-])nnc1CC1=N[C@H](NC(=O)C2CCN(c3ccc4nnnn4n3)CC2)SC1

>  <canonical_smi>  (690) 
C=CCn1c([S-])nnc1CC1=N[C@H](NC(=O)C2CCN(c3ccc4nnnn4n3)CC2)SC1

>  <Set>  (690) 
G2 inactive

>  <Set_type>  (690) 
Train

>  <MW>  (690) 
484.6

>  <HBD>  (690) 
1

>  <HBA>  (690) 
10

>  <NRB>  (690) 
7

>  <NR>  (690) 
5

>  <NAR>  (690) 
3

>  <PSA>  (690) 
131.38

>  <Standard Type>  (690) 
nan

>  <Standard Relation>  (690) 
nan

>  <Standard Units>  (690) 
nan

>  <Standard Value>  (690) 
nan

>  <Assay ChEMBL ID>  (690) 
nan

>  <Assay Description>  (690) 
nan

>  <BAO Label>  (690) 
nan

$$$$

     RDKit          2D

 35 36  0  0  0  0  0  0  0  0999 V2000
    5.2500   -1.2990    0.0000 C   0  0  0  0  0  0  0  0  0  0  0  0
    3.7500   -1.2990    0.0000 C   0  0  0  0  0  0  0  0  0  0  0  0
    3.0000   -2.5981    0.0000 O   0  0  0  0  0  0  0  0  0  0  0  0
    3.0000    0.0000    0.0000 N   0  0  0  0  0  0  0  0  0  0  0  0
    1.5000    0.0000    0.0000 C   0  0  0  0  0  0  0  0  0  0  0  0
    0.7500   -1.2990    0.0000 C   0  0  0  0  0  0  0  0  0  0  0  0
    1.5000   -2.5981    0.0000 O   0  0  0  0  0  0  0  0  0  0  0  0
    0.7500   -3.8971    0.0000 C   0  0  0  0  0  0  0  0  0  0  0  0
   -0.7500   -3.8971    0.0000 O   0  0  0  0  0  0  0  0  0  0  0  0
    1.5000   -5.1962    0.0000 C   0  0  0  0  0  0  0  0  0  0  0  0
    0.7500   -6.4952    0.0000 O   0  0  0  0  0  0  0  0  0  0  0  0
    1.5000   -7.7942    0.0000 C   0  0  0  0  0  0  0  0  0  0  0  0
    0.7500   -9.0933    0.0000 C   0  0  0  0  0  0  0  0  0  0  0  0
    1.5000  -10.3923    0.0000 C   0  0  0  0  0  0  0  0  0  0  0  0
    3.0000  -10.3923    0.0000 C   0  0  0  0  0  0  0  0  0  0  0  0
    3.7500   -9.0933    0.0000 C   0  0  0  0  0  0  0  0  0  0  0  0
    3.0000   -7.7942    0.0000 C   0  0  0  0  0  0  0  0  0  0  0  0
    3.7500   -6.4952    0.0000 C   0  0  0  0  0  0  0  0  0  0  0  0
   -0.7500   -1.2990    0.0000 O   0  0  0  0  0  0  0  0  0  0  0  0
   -1.5000    0.0000    0.0000 C   0  0  0  0  0  0  0  0  0  0  0  0
   -3.0000    0.0000    0.0000 C   0  0  0  0  0  0  0  0  0  0  0  0
   -3.7500    1.2990    0.0000 O   0  0  0  0  0  0  0  0  0  0  0  0
   -5.2500    1.2990    0.0000 C   0  0  0  0  0  0  0  0  0  0  0  0
   -6.0000    2.5981    0.0000 C   0  0  0  0  0  0  0  0  0  0  0  0
   -6.0000    0.0000    0.0000 O   0  0  0  0  0  0  0  0  0  0  0  0
   -0.7500    1.2990    0.0000 C   0  0  0  0  0  0  0  0  0  0  0  0
   -1.5000    2.5981    0.0000 O   0  0  0  0  0  0  0  0  0  0  0  0
   -0.7500    3.8971    0.0000 C   0  0  0  0  0  0  0  0  0  0  0  0
   -1.5000    5.1962    0.0000 C   0  0  0  0  0  0  0  0  0  0  0  0
    0.7500    3.8971    0.0000 O   0  0  0  0  0  0  0  0  0  0  0  0
    0.7500    1.2990    0.0000 C   0  0  0  0  0  0  0  0  0  0  0  0
    1.5000    2.5981    0.0000 O   0  0  0  0  0  0  0  0  0  0  0  0
    3.0000    2.5981    0.0000 C   0  0  0  0  0  0  0  0  0  0  0  0
    3.7500    3.8971    0.0000 C   0  0  0  0  0  0  0  0  0  0  0  0
    3.7500    1.2990    0.0000 O   0  0  0  0  0  0  0  0  0  0  0  0
  1  2  1  0
  2  3  2  0
  2  4  1  0
  5  4  1  1
  5  6  1  0
  6  7  1  6
  7  8  1  0
  8  9  2  0
  8 10  1  0
 10 11  1  0
 11 12  1  0
 12 13  2  0
 13 14  1  0
 14 15  2  0
 15 16  1  0
 16 17  2  0
 17 18  1  0
  6 19  1  0
 19 20  1  0
 20 21  1  1
 21 22  1  0
 22 23  1  0
 23 24  1  0
 23 25  2  0
 20 26  1  0
 26 27  1  1
 27 28  1  0
 28 29  1  0
 28 30  2  0
 26 31  1  0
 31 32  1  1
 32 33  1  0
 33 34  1  0
 33 35  2  0
 31  5  1  0
 17 12  1  0
M  END
>  <Compound_ID>  (691) 
C39842079

>  <Active>  (691) 
0.0

>  <Smiles>  (691) 
CC(=O)N[C@H]1[C@H](OC(=O)COc2ccccc2C)O[C@@H](COC(C)=O)[C@@H](OC(C)=O)[C@H]1OC(C)=O

>  <canonical_smi>  (691) 
CC(=O)N[C@H]1[C@H](OC(=O)COc2ccccc2C)O[C@@H](COC(C)=O)[C@@H](OC(C)=O)[C@H]1OC(C)=O

>  <Set>  (691) 
G2 inactive

>  <Set_type>  (691) 
Train

>  <MW>  (691) 
495.48

>  <HBD>  (691) 
1

>  <HBA>  (691) 
11

>  <NRB>  (691) 
9

>  <NR>  (691) 
2

>  <NAR>  (691) 
1

>  <PSA>  (691) 
152.76

>  <Standard Type>  (691) 
nan

>  <Standard Relation>  (691) 
nan

>  <Standard Units>  (691) 
nan

>  <Standard Value>  (691) 
nan

>  <Assay ChEMBL ID>  (691) 
nan

>  <Assay Description>  (691) 
nan

>  <BAO Label>  (691) 
nan

$$$$

     RDKit          2D

 34 36  0  0  0  0  0  0  0  0999 V2000
   -8.2786   -4.8163    0.0000 C   0  0  0  0  0  0  0  0  0  0  0  0
   -6.8298   -5.2046    0.0000 O   0  0  0  0  0  0  0  0  0  0  0  0
   -5.7691   -4.1439    0.0000 N   0  0  0  0  0  0  0  0  0  0  0  0
   -4.3202   -4.5321    0.0000 C   0  0  0  0  0  0  0  0  0  0  0  0
   -3.2595   -3.4715    0.0000 C   0  0  0  0  0  0  0  0  0  0  0  0
   -3.6478   -2.0226    0.0000 O   0  0  0  0  0  0  0  0  0  0  0  0
   -1.8107   -3.8597    0.0000 N   0  0  0  0  0  0  0  0  0  0  0  0
   -0.7500   -2.7990    0.0000 C   0  0  0  0  0  0  0  0  0  0  0  0
    0.7500   -2.7990    0.0000 C   0  0  0  0  0  0  0  0  0  0  0  0
    1.8107   -3.8597    0.0000 O   0  0  0  0  0  0  0  0  0  0  0  0
    0.7500   -1.2990    0.0000 N   0  0  0  0  0  0  0  0  0  0  0  0
    1.5000    0.0000    0.0000 C   0  0  0  0  0  0  0  0  0  0  0  0
    3.0000    0.0000    0.0000 C   0  0  0  0  0  0  0  0  0  0  0  0
    3.7500    1.2990    0.0000 O   0  0  0  0  0  0  0  0  0  0  0  0
    3.7500   -1.2990    0.0000 O   0  0  0  0  0  0  0  0  0  0  0  0
    5.2500   -1.2990    0.0000 C   0  0  0  0  0  0  0  0  0  0  0  0
    6.0000   -2.5981    0.0000 O   0  0  0  0  0  0  0  0  0  0  0  0
    7.5000   -2.5981    0.0000 C   0  0  0  0  0  0  0  0  0  0  0  0
    8.2500   -1.2990    0.0000 O   0  0  0  0  0  0  0  0  0  0  0  0
    8.2500   -3.8971    0.0000 C   0  0  0  0  0  0  0  0  0  0  0  0
    9.5490   -3.1471    0.0000 C   0  0  0  0  0  0  0  0  0  0  0  0
    6.9510   -4.6471    0.0000 C   0  0  0  0  0  0  0  0  0  0  0  0
    9.0000   -5.1962    0.0000 C   0  0  0  0  0  0  0  0  0  0  0  0
    0.7500    1.2990    0.0000 C   0  0  0  0  0  0  0  0  0  0  0  0
    1.5000    2.5981    0.0000 C   0  0  0  0  0  0  0  0  0  0  0  0
   -0.7500    1.2990    0.0000 C   0  0  0  0  0  0  0  0  0  0  0  0
   -1.5000    0.0000    0.0000 S   0  0  0  0  0  0  0  0  0  0  0  0
   -0.7500   -1.2990    0.0000 C   0  0  0  0  0  0  0  0  0  0  0  0
   -3.9320   -5.9810    0.0000 C   0  0  0  0  0  0  0  0  0  0  0  0
   -2.5316   -6.5186    0.0000 C   0  0  0  0  0  0  0  0  0  0  0  0
   -2.6101   -8.0165    0.0000 S   0  0  0  0  0  0  0  0  0  0  0  0
   -4.0590   -8.4047    0.0000 C   0  0  0  0  0  0  0  0  0  0  0  0
   -4.5966   -9.8051    0.0000 N   0  0  0  0  0  0  0  0  0  0  0  0
   -4.8760   -7.1467    0.0000 N   0  0  0  0  0  0  0  0  0  0  0  0
  1  2  1  0
  2  3  1  0
  3  4  2  0
  4  5  1  0
  5  6  2  0
  5  7  1  0
  8  7  1  1
  8  9  1  0
  9 10  2  0
  9 11  1  0
 11 12  1  0
 12 13  1  0
 13 14  2  0
 13 15  1  0
 15 16  1  0
 16 17  1  0
 17 18  1  0
 18 19  2  0
 18 20  1  0
 20 21  1  0
 20 22  1  0
 20 23  1  0
 12 24  2  0
 24 25  1  0
 24 26  1  0
 26 27  1  0
 28 27  1  1
  4 29  1  0
 29 30  2  0
 30 31  1  0
 31 32  1  0
 32 33  1  0
 32 34  2  0
 28  8  1  0
 34 29  1  0
 28 11  1  0
M  END
>  <Compound_ID>  (692) 
C34027229

>  <Active>  (692) 
0.0

>  <Smiles>  (692) 
CO/N=C(/C(=O)N[C@@H]1C(=O)N2C(C(=O)OCOC(=O)C(C)(C)C)=C(C)CS[C@H]12)c1csc(N)n1

>  <canonical_smi>  (692) 
CO/N=C(/C(=O)N[C@@H]1C(=O)N2C(C(=O)OCOC(=O)C(C)(C)C)=C(C)CS[C@H]12)c1csc(N)n1

>  <Set>  (692) 
G2 inactive

>  <Set_type>  (692) 
Train

>  <MW>  (692) 
511.58

>  <HBD>  (692) 
2

>  <HBA>  (692) 
10

>  <NRB>  (692) 
7

>  <NR>  (692) 
3

>  <NAR>  (692) 
1

>  <PSA>  (692) 
162.51

>  <Standard Type>  (692) 
nan

>  <Standard Relation>  (692) 
nan

>  <Standard Units>  (692) 
nan

>  <Standard Value>  (692) 
nan

>  <Assay ChEMBL ID>  (692) 
nan

>  <Assay Description>  (692) 
nan

>  <BAO Label>  (692) 
nan

$$$$

     RDKit          2D

 26 29  0  0  0  0  0  0  0  0999 V2000
   -5.8301    8.8935    0.0000 C   0  0  0  0  0  0  0  0  0  0  0  0
   -4.6166    8.0118    0.0000 O   0  0  0  0  0  0  0  0  0  0  0  0
   -3.2463    8.6219    0.0000 C   0  0  0  0  0  0  0  0  0  0  0  0
   -3.0895   10.1137    0.0000 C   0  0  0  0  0  0  0  0  0  0  0  0
   -1.7192   10.7238    0.0000 C   0  0  0  0  0  0  0  0  0  0  0  0
   -0.5056    9.8421    0.0000 C   0  0  0  0  0  0  0  0  0  0  0  0
   -0.6624    8.3503    0.0000 C   0  0  0  0  0  0  0  0  0  0  0  0
    0.5511    7.4687    0.0000 C   0  0  0  0  0  0  0  0  0  0  0  0
    0.3943    5.9769    0.0000 N   0  0  0  0  0  0  0  0  0  0  0  0
    1.6078    5.0952    0.0000 N   0  0  0  0  0  0  0  0  0  0  0  0
    3.0344    5.5587    0.0000 C   0  0  0  0  0  0  0  0  0  0  0  0
    3.4979    6.9853    0.0000 S   0  0  0  0  0  1  0  0  0  0  0  0
    3.9161    4.3452    0.0000 N   0  0  0  0  0  0  0  0  0  0  0  0
    3.0344    3.1317    0.0000 N   0  0  0  0  0  0  0  0  0  0  0  0
    1.6078    3.5952    0.0000 C   0  0  0  0  0  0  0  0  0  0  0  0
    0.3943    2.7135    0.0000 C   0  0  0  0  0  0  0  0  0  0  0  0
   -1.0323    3.1771    0.0000 N   0  0  0  0  0  0  0  0  0  0  0  0
   -1.9140    1.9635    0.0000 N   0  0  0  0  0  0  0  0  0  0  0  0
   -1.0323    0.7500    0.0000 C   0  0  0  0  0  0  0  0  0  0  0  0
    0.3943    1.2135    0.0000 C   0  0  0  0  0  0  0  0  0  0  0  0
    1.2760    0.0000    0.0000 C   0  0  0  0  0  0  0  0  0  0  0  0
    0.3943   -1.2135    0.0000 C   0  0  0  0  0  0  0  0  0  0  0  0
   -1.0323   -0.7500    0.0000 C   0  0  0  0  0  0  0  0  0  0  0  0
   -2.0328    7.7402    0.0000 C   0  0  0  0  0  0  0  0  0  0  0  0
   -2.1895    6.2485    0.0000 O   0  0  0  0  0  0  0  0  0  0  0  0
   -3.5599    5.6383    0.0000 C   0  0  0  0  0  0  0  0  0  0  0  0
  1  2  1  0
  2  3  1  0
  3  4  2  0
  4  5  1  0
  5  6  2  0
  6  7  1  0
  7  8  1  0
  8  9  2  0
  9 10  1  0
 10 11  1  0
 11 12  1  0
 11 13  2  0
 13 14  1  0
 15 14  1  1
 15 16  1  0
 16 17  1  1
 17 18  2  0
 18 19  1  0
 19 20  2  0
 20 21  1  0
 21 22  1  0
 22 23  1  0
  7 24  2  0
 24 25  1  0
 25 26  1  0
 24  3  1  0
 15 10  1  0
 20 16  1  0
 23 19  1  0
M  CHG  1  12  -1
M  END
>  <Compound_ID>  (693) 
C38980514

>  <Active>  (693) 
0.0

>  <Smiles>  (693) 
COc1cccc(/C=N/N2C([S-])=NN[C@H]2[C@@H]2N=NC3=C2CCC3)c1OC

>  <canonical_smi>  (693) 
COc1cccc(/C=N/N2C([S-])=NN[C@H]2[C@@H]2N=NC3=C2CCC3)c1OC

>  <Set>  (693) 
G2 inactive

>  <Set_type>  (693) 
Train

>  <MW>  (693) 
371.45

>  <HBD>  (693) 
1

>  <HBA>  (693) 
5

>  <NRB>  (693) 
5

>  <NR>  (693) 
4

>  <NAR>  (693) 
1

>  <PSA>  (693) 
83.17

>  <Standard Type>  (693) 
nan

>  <Standard Relation>  (693) 
nan

>  <Standard Units>  (693) 
nan

>  <Standard Value>  (693) 
nan

>  <Assay ChEMBL ID>  (693) 
nan

>  <Assay Description>  (693) 
nan

>  <BAO Label>  (693) 
nan

$$$$

     RDKit          2D

 26 28  0  0  0  0  0  0  0  0999 V2000
   -3.3342    3.2733    0.0000 C   0  0  0  0  0  0  0  0  0  0  0  0
   -1.8351    3.2209    0.0000 C   0  0  0  0  0  0  0  0  0  0  0  0
   -2.0439    4.7063    0.0000 C   0  0  0  0  0  0  0  0  0  0  0  0
   -0.4086    3.6844    0.0000 C   0  0  0  0  0  0  0  0  0  0  0  0
    0.7062    2.6807    0.0000 C   0  0  0  0  0  0  0  0  0  0  0  0
    2.1328    3.1443    0.0000 O   0  0  0  0  0  0  0  0  0  0  0  0
    0.3943    1.2135    0.0000 C   0  0  0  0  0  0  0  0  0  0  0  0
    1.2760    0.0000    0.0000 S   0  0  0  0  0  0  0  0  0  0  0  0
    0.3943   -1.2135    0.0000 C   0  0  0  0  0  0  0  0  0  0  0  0
    0.8578   -2.6401    0.0000 N   0  0  0  0  0  2  0  0  0  0  0  0
   -0.1459   -3.7548    0.0000 S   0  0  0  0  0  0  0  0  0  0  0  0
   -1.2606   -2.7511    0.0000 O   0  0  0  0  0  0  0  0  0  0  0  0
    0.9688   -4.7585    0.0000 O   0  0  0  0  0  0  0  0  0  0  0  0
   -1.1496   -4.8695    0.0000 C   0  0  0  0  0  0  0  0  0  0  0  0
   -2.6168   -4.5577    0.0000 C   0  0  0  0  0  0  0  0  0  0  0  0
   -3.6205   -5.6724    0.0000 C   0  0  0  0  0  0  0  0  0  0  0  0
   -3.1570   -7.0990    0.0000 C   0  0  0  0  0  0  0  0  0  0  0  0
   -4.1607   -8.2137    0.0000 O   0  0  0  0  0  0  0  0  0  0  0  0
   -1.6897   -7.4108    0.0000 C   0  0  0  0  0  0  0  0  0  0  0  0
   -1.2262   -8.8374    0.0000 N   0  0  0  0  0  4  0  0  0  0  0  0
   -2.2299   -9.9521    0.0000 O   0  0  0  0  0  0  0  0  0  0  0  0
    0.2410   -9.1493    0.0000 O   0  0  0  0  0  1  0  0  0  0  0  0
   -0.6860   -6.2961    0.0000 C   0  0  0  0  0  0  0  0  0  0  0  0
   -1.0323   -0.7500    0.0000 N   0  0  0  0  0  0  0  0  0  0  0  0
   -1.0323    0.7500    0.0000 C   0  0  0  0  0  0  0  0  0  0  0  0
   -2.1470    1.7537    0.0000 C   0  0  0  0  0  0  0  0  0  0  0  0
  1  2  1  0
  2  3  1  0
  2  4  1  0
  4  5  1  0
  5  6  2  0
  5  7  1  0
  7  8  1  0
  8  9  1  0
  9 10  1  0
 10 11  1  0
 11 12  2  0
 11 13  2  0
 11 14  1  0
 14 15  2  0
 15 16  1  0
 16 17  2  0
 17 18  1  0
 17 19  1  0
 19 20  1  0
 20 21  2  0
 20 22  1  0
 19 23  2  0
  9 24  2  0
 24 25  1  0
 25 26  1  0
 26  2  1  0
 25  7  2  0
 23 14  1  0
M  CHG  3  10  -1  20   1  22  -1
M  END
>  <Compound_ID>  (694) 
C66247062

>  <Active>  (694) 
0.0

>  <Smiles>  (694) 
CC1(C)CC(=O)c2sc([N-]S(=O)(=O)c3ccc(O)c([N+](=O)[O-])c3)nc2C1

>  <canonical_smi>  (694) 
CC1(C)CC(=O)c2sc([N-]S(=O)(=O)c3ccc(O)c([N+](=O)[O-])c3)nc2C1

>  <Set>  (694) 
G2 inactive

>  <Set_type>  (694) 
Train

>  <MW>  (694) 
396.43

>  <HBD>  (694) 
1

>  <HBA>  (694) 
7

>  <NRB>  (694) 
4

>  <NR>  (694) 
3

>  <NAR>  (694) 
2

>  <PSA>  (694) 
141.57

>  <Standard Type>  (694) 
nan

>  <Standard Relation>  (694) 
nan

>  <Standard Units>  (694) 
nan

>  <Standard Value>  (694) 
nan

>  <Assay ChEMBL ID>  (694) 
nan

>  <Assay Description>  (694) 
nan

>  <BAO Label>  (694) 
nan

$$$$

     RDKit          2D

 27 28  0  0  0  0  0  0  0  0999 V2000
    1.5000  -15.5885    0.0000 C   0  0  0  0  0  0  0  0  0  0  0  0
    0.7500  -14.2894    0.0000 C   0  0  0  0  0  0  0  0  0  0  0  0
   -0.7500  -14.2894    0.0000 C   0  0  0  0  0  0  0  0  0  0  0  0
    1.5000  -12.9904    0.0000 C   0  0  0  0  0  0  0  0  0  0  0  0
    0.7500  -11.6913    0.0000 C   0  0  0  0  0  0  0  0  0  0  0  0
    1.5000  -10.3923    0.0000 N   0  0  0  0  0  0  0  0  0  0  0  0
    0.7500   -9.0933    0.0000 C   0  0  0  0  0  0  0  0  0  0  0  0
   -0.7500   -9.0933    0.0000 O   0  0  0  0  0  0  0  0  0  0  0  0
    1.5000   -7.7942    0.0000 N   0  0  0  0  0  0  0  0  0  0  0  0
    0.7500   -6.4952    0.0000 C   0  0  0  0  0  0  0  0  0  0  0  0
    1.5000   -5.1962    0.0000 C   0  0  0  0  0  0  0  0  0  0  0  0
    3.0000   -5.1962    0.0000 O   0  0  0  0  0  0  0  0  0  0  0  0
    0.7500   -3.8971    0.0000 C   0  0  0  0  0  0  0  0  0  0  0  0
    1.5000   -2.5981    0.0000 O   0  0  0  0  0  0  0  0  0  0  0  0
    0.7500   -1.2990    0.0000 C   0  0  0  0  0  0  0  0  0  0  0  0
    1.5000    0.0000    0.0000 C   0  0  0  0  0  0  0  0  0  0  0  0
    0.7500    1.2990    0.0000 C   0  0  0  0  0  0  0  0  0  0  0  0
   -0.7500    1.2990    0.0000 C   0  0  0  0  0  0  0  0  0  0  0  0
   -1.5000    0.0000    0.0000 C   0  0  0  0  0  0  0  0  0  0  0  0
   -0.7500   -1.2990    0.0000 C   0  0  0  0  0  0  0  0  0  0  0  0
    3.0000  -12.9904    0.0000 N   0  0  0  0  0  0  0  0  0  0  0  0
    3.7500  -14.2894    0.0000 C   0  0  0  0  0  0  0  0  0  0  0  0
    3.0000  -15.5885    0.0000 C   0  0  0  0  0  0  0  0  0  0  0  0
    3.7500  -16.8875    0.0000 C   0  0  0  0  0  0  0  0  0  0  0  0
    5.2500  -16.8875    0.0000 C   0  0  0  0  0  0  0  0  0  0  0  0
    6.0000  -15.5885    0.0000 C   0  0  0  0  0  0  0  0  0  0  0  0
    5.2500  -14.2894    0.0000 C   0  0  0  0  0  0  0  0  0  0  0  0
  1  2  1  0
  2  3  1  0
  2  4  1  0
  4  5  1  6
  5  6  1  0
  6  7  1  0
  7  8  2  0
  7  9  1  0
  9 10  1  0
 10 11  1  0
 11 12  1  1
 11 13  1  0
 13 14  1  0
 14 15  1  0
 15 16  2  0
 16 17  1  0
 17 18  2  0
 18 19  1  0
 19 20  2  0
  4 21  1  0
 21 22  1  0
 22 23  2  0
 23 24  1  0
 24 25  2  0
 25 26  1  0
 26 27  2  0
 20 15  1  0
 27 22  1  0
M  END
>  <Compound_ID>  (695) 
C45485109

>  <Active>  (695) 
0.0

>  <Smiles>  (695) 
CC(C)[C@H](CNC(=O)NC[C@H](O)COc1ccccc1)Nc1ccccc1

>  <canonical_smi>  (695) 
CC(C)[C@H](CNC(=O)NC[C@H](O)COc1ccccc1)Nc1ccccc1

>  <Set>  (695) 
G2 inactive

>  <Set_type>  (695) 
Train

>  <MW>  (695) 
371.48

>  <HBD>  (695) 
4

>  <HBA>  (695) 
4

>  <NRB>  (695) 
10

>  <NR>  (695) 
2

>  <NAR>  (695) 
2

>  <PSA>  (695) 
82.62

>  <Standard Type>  (695) 
nan

>  <Standard Relation>  (695) 
nan

>  <Standard Units>  (695) 
nan

>  <Standard Value>  (695) 
nan

>  <Assay ChEMBL ID>  (695) 
nan

>  <Assay Description>  (695) 
nan

>  <BAO Label>  (695) 
nan

$$$$

     RDKit          2D

 18 19  0  0  0  0  0  0  0  0999 V2000
   -1.1682   -1.2570    0.0000 C   0  0  0  0  0  0  0  0  0  0  0  0
   -1.6317   -2.6836    0.0000 C   0  0  0  0  0  0  0  0  0  0  0  0
   -3.0583   -3.1471    0.0000 C   0  0  0  0  0  0  0  0  0  0  0  0
   -3.0583   -4.6471    0.0000 C   0  0  0  0  0  0  0  0  0  0  0  0
   -1.6317   -5.1106    0.0000 S   0  0  0  0  0  0  0  0  0  0  0  0
   -0.7500   -3.8971    0.0000 C   0  0  0  0  0  0  0  0  0  0  0  0
    0.7500   -3.8971    0.0000 C   0  0  0  0  0  0  0  0  0  0  0  0
    1.5000   -2.5981    0.0000 O   0  0  0  0  0  0  0  0  0  0  0  0
    3.0000   -2.5981    0.0000 C   0  0  0  0  0  0  0  0  0  0  0  0
    3.7500   -3.8971    0.0000 C   0  0  0  0  0  0  0  0  0  0  0  0
    5.2500   -3.8971    0.0000 C   0  0  0  0  0  0  0  0  0  0  0  0
    6.0000   -2.5981    0.0000 C   0  0  0  0  0  0  0  0  0  0  0  0
    5.2500   -1.2990    0.0000 C   0  0  0  0  0  0  0  0  0  0  0  0
    3.7500   -1.2990    0.0000 C   0  0  0  0  0  0  0  0  0  0  0  0
    3.0000   -0.0000    0.0000 I   0  0  0  0  0  0  0  0  0  0  0  0
    1.5000   -5.1962    0.0000 C   0  0  0  0  0  0  0  0  0  0  0  0
    0.7500   -6.4952    0.0000 C   0  0  0  0  0  0  0  0  0  0  0  0
    3.0000   -5.1962    0.0000 N   0  0  0  0  0  4  0  0  0  0  0  0
  1  2  1  0
  2  3  1  0
  3  4  2  0
  4  5  1  0
  5  6  1  0
  6  7  1  0
  7  8  1  1
  8  9  1  0
  9 10  2  0
 10 11  1  0
 11 12  2  0
 12 13  1  0
 13 14  2  0
 14 15  1  0
  7 16  1  0
 16 17  1  6
 16 18  1  0
  6  2  2  0
 14  9  1  0
M  CHG  1  18   1
M  END
>  <Compound_ID>  (696) 
C43250339

>  <Active>  (696) 
0.0

>  <Smiles>  (696) 
Cc1ccsc1[C@@H](Oc1ccccc1I)[C@@H](C)[NH3+]

>  <canonical_smi>  (696) 
Cc1ccsc1[C@@H](Oc1ccccc1I)[C@@H](C)[NH3+]

>  <Set>  (696) 
G2 inactive

>  <Set_type>  (696) 
Train

>  <MW>  (696) 
374.27

>  <HBD>  (696) 
1

>  <HBA>  (696) 
1

>  <NRB>  (696) 
4

>  <NR>  (696) 
2

>  <NAR>  (696) 
2

>  <PSA>  (696) 
36.87

>  <Standard Type>  (696) 
nan

>  <Standard Relation>  (696) 
nan

>  <Standard Units>  (696) 
nan

>  <Standard Value>  (696) 
nan

>  <Assay ChEMBL ID>  (696) 
nan

>  <Assay Description>  (696) 
nan

>  <BAO Label>  (696) 
nan

$$$$

     RDKit          2D

 30 33  0  0  0  0  0  0  0  0999 V2000
    1.5000   -5.1962    0.0000 C   0  0  0  0  0  0  0  0  0  0  0  0
    0.7500   -3.8971    0.0000 C   0  0  0  0  0  0  0  0  0  0  0  0
   -0.7500   -3.8971    0.0000 C   0  0  0  0  0  0  0  0  0  0  0  0
   -1.5000   -5.1962    0.0000 C   0  0  0  0  0  0  0  0  0  0  0  0
   -3.0000   -5.1962    0.0000 O   0  0  0  0  0  0  0  0  0  0  0  0
   -0.7500   -6.4952    0.0000 O   0  0  0  0  0  0  0  0  0  0  0  0
   -1.5000   -7.7942    0.0000 C   0  0  0  0  0  0  0  0  0  0  0  0
   -0.7500   -9.0933    0.0000 C   0  0  0  0  0  0  0  0  0  0  0  0
    0.7418   -9.2501    0.0000 C   0  0  0  0  0  0  0  0  0  0  0  0
    1.0537  -10.7173    0.0000 C   0  0  0  0  0  0  0  0  0  0  0  0
   -0.2454  -11.4673    0.0000 C   0  0  0  0  0  0  0  0  0  0  0  0
   -1.3601  -10.4636    0.0000 O   0  0  0  0  0  0  0  0  0  0  0  0
   -1.5000   -2.5981    0.0000 C   0  0  0  0  0  0  0  0  0  0  0  0
   -3.0000   -2.5981    0.0000 C   0  0  0  0  0  0  0  0  0  0  0  0
   -3.7500   -3.8971    0.0000 C   0  0  0  0  0  0  0  0  0  0  0  0
   -5.2500   -3.8971    0.0000 C   0  0  0  0  0  0  0  0  0  0  0  0
   -6.0000   -2.5981    0.0000 C   0  0  0  0  0  0  0  0  0  0  0  0
   -5.2500   -1.2990    0.0000 C   0  0  0  0  0  0  0  0  0  0  0  0
   -3.7500   -1.2990    0.0000 C   0  0  0  0  0  0  0  0  0  0  0  0
   -3.3655   -0.3931    0.0000 Br  0  0  0  0  0  0  0  0  0  0  0  0
   -0.7500   -1.2990    0.0000 C   0  0  0  0  0  0  0  0  0  0  0  0
    0.7500   -1.2990    0.0000 C   0  0  0  0  0  0  0  0  0  0  0  0
    1.5000    0.0000    0.0000 C   0  0  0  0  0  0  0  0  0  0  0  0
    0.7500    1.2990    0.0000 C   0  0  0  0  0  0  0  0  0  0  0  0
    0.4895    2.7762    0.0000 C   0  0  0  0  0  0  0  0  0  0  0  0
    2.1595    1.8121    0.0000 C   0  0  0  0  0  0  0  0  0  0  0  0
   -0.7500    1.2990    0.0000 C   0  0  0  0  0  0  0  0  0  0  0  0
   -1.5000    0.0000    0.0000 C   0  0  0  0  0  0  0  0  0  0  0  0
   -2.4768    0.1200    0.0000 O   0  0  0  0  0  0  0  0  0  0  0  0
    1.5000   -2.5981    0.0000 N   0  0  0  0  0  0  0  0  0  0  0  0
  1  2  1  0
  2  3  2  0
  3  4  1  0
  4  5  2  0
  4  6  1  0
  6  7  1  0
  8  7  1  6
  8  9  1  0
  9 10  1  0
 10 11  1  0
 11 12  1  0
  3 13  1  0
 13 14  1  1
 14 15  2  0
 15 16  1  0
 16 17  2  0
 17 18  1  0
 18 19  2  0
 19 20  1  0
 13 21  1  0
 21 22  2  0
 22 23  1  0
 23 24  1  0
 24 25  1  0
 24 26  1  0
 24 27  1  0
 27 28  1  0
 28 29  2  0
 22 30  1  0
 30  2  1  0
 12  8  1  0
 19 14  1  0
 28 21  1  0
M  END
>  <Compound_ID>  (697) 
C19761791

>  <Active>  (697) 
0.0

>  <Smiles>  (697) 
CC1=C(C(=O)OC[C@@H]2CCCO2)[C@@H](c2ccccc2Br)C2=C(CC(C)(C)CC2=O)N1

>  <canonical_smi>  (697) 
CC1=C(C(=O)OC[C@@H]2CCCO2)[C@@H](c2ccccc2Br)C2=C(CC(C)(C)CC2=O)N1

>  <Set>  (697) 
G2 inactive

>  <Set_type>  (697) 
Train

>  <MW>  (697) 
474.4

>  <HBD>  (697) 
1

>  <HBA>  (697) 
5

>  <NRB>  (697) 
4

>  <NR>  (697) 
4

>  <NAR>  (697) 
1

>  <PSA>  (697) 
64.63

>  <Standard Type>  (697) 
nan

>  <Standard Relation>  (697) 
nan

>  <Standard Units>  (697) 
nan

>  <Standard Value>  (697) 
nan

>  <Assay ChEMBL ID>  (697) 
nan

>  <Assay Description>  (697) 
nan

>  <BAO Label>  (697) 
nan

$$$$

     RDKit          2D

 19 20  0  0  0  0  0  0  0  0999 V2000
   -2.6401   -3.1891    0.0000 C   0  0  0  0  0  0  0  0  0  0  0  0
   -1.2135   -2.7256    0.0000 N   0  0  0  0  0  0  0  0  0  0  0  0
   -0.0000   -3.6073    0.0000 C   0  0  0  0  0  0  0  0  0  0  0  0
   -0.0000   -5.1073    0.0000 C   0  0  0  0  0  0  0  0  0  0  0  0
    1.2990   -5.8573    0.0000 C   0  0  0  0  0  0  0  0  0  0  0  0
    1.2990   -7.3573    0.0000 N   0  0  0  0  0  0  0  0  0  0  0  0
    2.5981   -8.1073    0.0000 N   0  0  0  0  0  0  0  0  0  0  0  0
    2.5981   -9.6073    0.0000 C   0  0  0  0  0  0  0  0  0  0  0  0
    1.2990  -10.3573    0.0000 N   0  0  0  0  0  0  0  0  0  0  0  0
    3.8971  -10.3573    0.0000 S   0  0  0  0  0  0  0  0  0  0  0  0
    1.2135   -2.7256    0.0000 C   0  0  0  0  0  0  0  0  0  0  0  0
    2.5838   -2.1155    0.0000 C   0  0  0  0  0  0  0  0  0  0  0  0
    1.9635   -4.0247    0.0000 C   0  0  0  0  0  0  0  0  0  0  0  0
    0.7500   -1.2990    0.0000 C   0  0  0  0  0  0  0  0  0  0  0  0
    1.5000    0.0000    0.0000 C   0  0  0  0  0  0  0  0  0  0  0  0
    0.7500    1.2990    0.0000 C   0  0  0  0  0  0  0  0  0  0  0  0
   -0.7500    1.2990    0.0000 C   0  0  0  0  0  0  0  0  0  0  0  0
   -1.5000    0.0000    0.0000 C   0  0  0  0  0  0  0  0  0  0  0  0
   -0.7500   -1.2990    0.0000 C   0  0  0  0  0  0  0  0  0  0  0  0
  1  2  1  0
  2  3  1  0
  3  4  2  0
  4  5  1  0
  5  6  2  0
  6  7  1  0
  7  8  2  0
  8  9  1  0
  8 10  1  0
  3 11  1  0
 11 12  1  0
 11 13  1  0
 11 14  1  0
 14 15  2  0
 15 16  1  0
 16 17  2  0
 17 18  1  0
 18 19  2  0
 19  2  1  0
 19 14  1  0
M  END
>  <Compound_ID>  (698) 
C05422820

>  <Active>  (698) 
0.0

>  <Smiles>  (698) 
CN1/C(=C/C=N/N=C(\N)S)C(C)(C)c2ccccc21

>  <canonical_smi>  (698) 
CN1/C(=C/C=N/N=C(\N)S)C(C)(C)c2ccccc21

>  <Set>  (698) 
G2 inactive

>  <Set_type>  (698) 
Train

>  <MW>  (698) 
274.39

>  <HBD>  (698) 
2

>  <HBA>  (698) 
2

>  <NRB>  (698) 
2

>  <NR>  (698) 
2

>  <NAR>  (698) 
1

>  <PSA>  (698) 
53.98

>  <Standard Type>  (698) 
nan

>  <Standard Relation>  (698) 
nan

>  <Standard Units>  (698) 
nan

>  <Standard Value>  (698) 
nan

>  <Assay ChEMBL ID>  (698) 
nan

>  <Assay Description>  (698) 
nan

>  <BAO Label>  (698) 
nan

$$$$

     RDKit          2D

 21 24  0  0  0  0  0  0  0  0999 V2000
    2.2500   -9.0933    0.0000 C   0  0  0  0  0  0  0  0  0  0  0  0
    3.0000   -7.7942    0.0000 C   0  0  0  0  0  0  0  0  0  0  0  0
    2.2500   -6.4952    0.0000 N   0  0  0  0  0  4  0  0  0  0  0  0
    0.7500   -6.4952    0.0000 C   0  0  0  0  0  0  0  0  0  0  0  0
   -0.0000   -5.1962    0.0000 C   0  0  0  0  0  0  0  0  0  0  0  0
   -0.7500   -3.8971    0.0000 C   0  0  0  0  0  0  0  0  0  0  0  0
   -0.0000   -2.5981    0.0000 C   0  0  0  0  0  0  0  0  0  0  0  0
    1.5000   -2.5981    0.0000 C   0  0  0  0  0  0  0  0  0  0  0  0
    2.2500   -3.8971    0.0000 C   0  0  0  0  0  0  0  0  0  0  0  0
    3.0000   -5.1962    0.0000 C   0  0  0  0  0  0  0  0  0  0  0  0
    3.0000   -2.5981    0.0000 C   0  0  0  0  0  0  0  0  0  0  0  0
    4.5000   -2.5981    0.0000 O   0  0  0  0  0  0  0  0  0  0  0  0
    2.2500   -1.2990    0.0000 N   0  0  0  0  0  0  0  0  0  0  0  0
    0.7500   -1.2990    0.0000 C   0  0  0  0  0  0  0  0  0  0  0  0
    1.5000    0.0000    0.0000 C   0  0  0  0  0  0  0  0  0  0  0  0
    0.7500    1.2990    0.0000 C   0  0  0  0  0  0  0  0  0  0  0  0
   -0.7500    1.2990    0.0000 C   0  0  0  0  0  0  0  0  0  0  0  0
   -1.5000    0.0000    0.0000 C   0  0  0  0  0  0  0  0  0  0  0  0
   -0.7500   -1.2990    0.0000 C   0  0  0  0  0  0  0  0  0  0  0  0
    0.7000   -2.5981    0.0000 N   0  0  0  0  0  0  0  0  0  0  0  0
    0.7500   -3.8971    0.0000 C   0  0  0  0  0  0  0  0  0  0  0  0
  1  2  1  0
  2  3  1  0
  3  4  1  0
  5  4  1  6
  5  6  1  0
  6  7  1  0
  7  8  1  0
  9  8  1  6
  9 10  1  0
  9 11  1  0
 11 12  2  0
 11 13  1  0
 13 14  1  0
 14 15  1  0
 15 16  1  0
 16 17  1  0
 17 18  1  0
 18 19  1  0
 14 20  1  0
 20 21  2  0
 10  3  1  0
 19 14  1  0
 21  5  1  0
 21  9  1  0
M  CHG  1   3   1
M  END
>  <Compound_ID>  (699) 
C19527033

>  <Active>  (699) 
0.0

>  <Smiles>  (699) 
CC[NH+]1C[C@@H]2CCC[C@@]3(C1)C(=O)NC1(CCCCC1)N=C23

>  <canonical_smi>  (699) 
CC[NH+]1C[C@@H]2CCC[C@@]3(C1)C(=O)NC1(CCCCC1)N=C23

>  <Set>  (699) 
G2 inactive

>  <Set_type>  (699) 
Train

>  <MW>  (699) 
290.43

>  <HBD>  (699) 
2

>  <HBA>  (699) 
1

>  <NRB>  (699) 
1

>  <NR>  (699) 
4

>  <NAR>  (699) 
0

>  <PSA>  (699) 
45.9

>  <Standard Type>  (699) 
nan

>  <Standard Relation>  (699) 
nan

>  <Standard Units>  (699) 
nan

>  <Standard Value>  (699) 
nan

>  <Assay ChEMBL ID>  (699) 
nan

>  <Assay Description>  (699) 
nan

>  <BAO Label>  (699) 
nan

$$$$

     RDKit          2D

 21 23  0  0  0  0  0  0  0  0999 V2000
    4.5000   -7.7942    0.0000 C   0  0  0  0  0  0  0  0  0  0  0  0
    3.7500   -6.4952    0.0000 C   0  0  0  0  0  0  0  0  0  0  0  0
    2.2500   -6.4952    0.0000 C   0  0  0  0  0  0  0  0  0  0  0  0
    1.5000   -5.1962    0.0000 C   0  0  0  0  0  0  0  0  0  0  0  0
    2.2500   -3.8971    0.0000 C   0  0  0  0  0  0  0  0  0  0  0  0
    1.5000   -2.5981    0.0000 S   0  0  0  0  0  0  0  0  0  0  0  0
    0.2010   -3.3481    0.0000 O   0  0  0  0  0  0  0  0  0  0  0  0
    2.7990   -1.8481    0.0000 O   0  0  0  0  0  0  0  0  0  0  0  0
    0.7500   -1.2990    0.0000 N   0  0  0  0  0  0  0  0  0  0  0  0
    1.5000    0.0000    0.0000 C   0  0  0  0  0  0  0  0  0  0  0  0
    0.7500    1.2990    0.0000 C   0  0  0  0  0  0  0  0  0  0  0  0
   -0.7500    1.2990    0.0000 C   0  0  0  0  0  0  0  0  0  0  0  0
   -1.5000    0.0000    0.0000 C   0  0  0  0  0  0  0  0  0  0  0  0
   -3.0000    0.0000    0.0000 C   0  0  0  0  0  0  0  0  0  0  0  0
   -3.7500    1.2990    0.0000 N   0  0  0  0  0  0  0  0  0  0  0  0
   -3.7500   -1.2990    0.0000 C   0  0  0  0  0  0  0  0  0  0  0  0
   -3.0000   -2.5981    0.0000 C   0  0  0  0  0  0  0  0  0  0  0  0
   -1.5000   -2.5981    0.0000 C   0  0  0  0  0  0  0  0  0  0  0  0
   -0.7500   -1.2990    0.0000 C   0  0  0  0  0  0  0  0  0  0  0  0
    3.7500   -3.8971    0.0000 C   0  0  0  0  0  0  0  0  0  0  0  0
    4.5000   -5.1962    0.0000 C   0  0  0  0  0  0  0  0  0  0  0  0
  1  2  1  0
  2  3  2  0
  3  4  1  0
  4  5  2  0
  5  6  1  0
  6  7  2  0
  6  8  2  0
  6  9  1  0
  9 10  1  0
 10 11  1  0
 11 12  1  0
 12 13  1  0
 13 14  2  0
 14 15  1  0
 14 16  1  0
 16 17  2  0
 17 18  1  0
 18 19  2  0
  5 20  1  0
 20 21  2  0
 21  2  1  0
 19  9  1  0
 19 13  1  0
M  END
>  <Compound_ID>  (700) 
C37905452

>  <Active>  (700) 
0.0

>  <Smiles>  (700) 
Cc1ccc(S(=O)(=O)N2CCCc3c(N)cccc32)cc1

>  <canonical_smi>  (700) 
Cc1ccc(S(=O)(=O)N2CCCc3c(N)cccc32)cc1

>  <Set>  (700) 
G2 inactive

>  <Set_type>  (700) 
Train

>  <MW>  (700) 
302.4

>  <HBD>  (700) 
1

>  <HBA>  (700) 
3

>  <NRB>  (700) 
2

>  <NR>  (700) 
3

>  <NAR>  (700) 
2

>  <PSA>  (700) 
63.4

>  <Standard Type>  (700) 
nan

>  <Standard Relation>  (700) 
nan

>  <Standard Units>  (700) 
nan

>  <Standard Value>  (700) 
nan

>  <Assay ChEMBL ID>  (700) 
nan

>  <Assay Description>  (700) 
nan

>  <BAO Label>  (700) 
nan

$$$$

     RDKit          2D

 19 22  0  0  0  0  0  0  0  0999 V2000
   -0.0000   -5.1962    0.0000 O   0  0  0  0  0  0  0  0  0  0  0  0
    0.7500   -3.8971    0.0000 C   0  0  0  0  0  0  0  0  0  0  0  0
   -0.0000   -2.5981    0.0000 N   0  0  0  0  0  0  0  0  0  0  0  0
    0.7500   -1.2990    0.0000 C   0  0  0  0  0  0  0  0  0  0  0  0
    1.5000    0.0000    0.0000 C   0  0  0  0  0  0  0  0  0  0  0  0
    0.7500    1.2990    0.0000 C   0  0  0  0  0  0  0  0  0  0  0  0
   -0.7500    1.2990    0.0000 C   0  0  0  0  0  0  0  0  0  0  0  0
   -1.5000    0.0000    0.0000 C   0  0  0  0  0  0  0  0  0  0  0  0
   -0.7500   -1.2990    0.0000 C   0  0  0  0  0  0  0  0  0  0  0  0
    2.2500   -1.2990    0.0000 N   0  0  0  0  0  0  0  0  0  0  0  0
    3.0000   -2.5981    0.0000 C   0  0  0  0  0  0  0  0  0  0  0  0
    4.4672   -2.9099    0.0000 S   0  0  0  0  0  0  0  0  0  0  0  0
    4.6240   -4.4017    0.0000 C   0  0  0  0  0  0  0  0  0  0  0  0
    3.2537   -5.0118    0.0000 C   0  0  0  0  0  0  0  0  0  0  0  0
    2.2500   -3.8971    0.0000 C   0  0  0  0  0  0  0  0  0  0  0  0
    3.0969   -6.5036    0.0000 C   0  0  0  0  0  0  0  0  0  0  0  0
    4.3104   -7.3853    0.0000 C   0  0  0  0  0  0  0  0  0  0  0  0
    5.6807   -6.7752    0.0000 C   0  0  0  0  0  0  0  0  0  0  0  0
    5.8375   -5.2834    0.0000 C   0  0  0  0  0  0  0  0  0  0  0  0
  1  2  2  0
  2  3  1  0
  3  4  1  0
  4  5  1  0
  5  6  1  0
  6  7  1  0
  7  8  1  0
  8  9  1  0
  4 10  1  0
 10 11  1  0
 11 12  1  0
 12 13  1  0
 13 14  2  0
 14 15  1  0
 14 16  1  0
 16 17  1  0
 17 18  1  0
 18 19  1  0
 15  2  1  0
  9  4  1  0
 15 11  2  0
 19 13  1  0
M  END
>  <Compound_ID>  (701) 
C03157379

>  <Active>  (701) 
0.0

>  <Smiles>  (701) 
O=C1NC2(CCCCC2)Nc2sc3c(c21)CCCC3

>  <canonical_smi>  (701) 
O=C1NC2(CCCCC2)Nc2sc3c(c21)CCCC3

>  <Set>  (701) 
G2 inactive

>  <Set_type>  (701) 
Train

>  <MW>  (701) 
276.4

>  <HBD>  (701) 
2

>  <HBA>  (701) 
2

>  <NRB>  (701) 
0

>  <NR>  (701) 
4

>  <NAR>  (701) 
1

>  <PSA>  (701) 
41.13

>  <Standard Type>  (701) 
nan

>  <Standard Relation>  (701) 
nan

>  <Standard Units>  (701) 
nan

>  <Standard Value>  (701) 
nan

>  <Assay ChEMBL ID>  (701) 
nan

>  <Assay Description>  (701) 
nan

>  <BAO Label>  (701) 
nan

$$$$

     RDKit          2D

 18 19  0  0  0  0  0  0  0  0999 V2000
    3.0000   -1.5000    0.0000 C   0  0  0  0  0  0  0  0  0  0  0  0
    3.0000    0.0000    0.0000 C   0  0  0  0  0  0  0  0  0  0  0  0
    3.0000    1.5000    0.0000 C   0  0  0  0  0  0  0  0  0  0  0  0
    4.5000    0.0000    0.0000 C   0  0  0  0  0  0  0  0  0  0  0  0
    1.5000    0.0000    0.0000 C   0  0  0  0  0  0  0  0  0  0  0  0
    0.7500   -1.2990    0.0000 C   0  0  0  0  0  0  0  0  0  0  0  0
   -0.7500   -1.2990    0.0000 C   0  0  0  0  0  0  0  0  0  0  0  0
   -1.5000    0.0000    0.0000 C   0  0  0  0  0  0  0  0  0  0  0  0
   -0.7500    1.2990    0.0000 C   0  0  0  0  0  0  0  0  0  0  0  0
    0.7500    1.2990    0.0000 C   0  0  0  0  0  0  0  0  0  0  0  0
   -1.7537    2.4138    0.0000 O   0  0  0  0  0  0  0  0  0  0  0  0
   -3.1240    1.8037    0.0000 C   0  0  0  0  0  0  0  0  0  0  0  0
   -4.5912    1.4918    0.0000 N   0  0  0  0  0  0  0  0  0  0  0  0
   -3.5875    3.2302    0.0000 C   0  0  0  0  0  0  0  0  0  0  0  0
   -4.0511    4.6568    0.0000 Cl  0  0  0  0  0  0  0  0  0  0  0  0
   -5.0141    2.7667    0.0000 Cl  0  0  0  0  0  0  0  0  0  0  0  0
   -2.1610    3.6938    0.0000 Cl  0  0  0  0  0  0  0  0  0  0  0  0
   -2.9672    0.3119    0.0000 O   0  0  0  0  0  0  0  0  0  0  0  0
  1  2  1  0
  2  3  1  0
  2  4  1  0
  2  5  1  0
  5  6  2  0
  6  7  1  0
  7  8  2  0
  8  9  1  0
  9 10  2  0
  9 11  1  0
 11 12  1  0
 12 13  1  6
 12 14  1  0
 14 15  1  0
 14 16  1  0
 14 17  1  0
 12 18  1  0
 10  5  1  0
 18  8  1  0
M  END
>  <Compound_ID>  (702) 
C19314145

>  <Active>  (702) 
0.0

>  <Smiles>  (702) 
CC(C)(C)c1ccc2c(c1)O[C@](N)(C(Cl)(Cl)Cl)O2

>  <canonical_smi>  (702) 
CC(C)(C)c1ccc2c(c1)O[C@](N)(C(Cl)(Cl)Cl)O2

>  <Set>  (702) 
G2 inactive

>  <Set_type>  (702) 
Train

>  <MW>  (702) 
310.61

>  <HBD>  (702) 
1

>  <HBA>  (702) 
3

>  <NRB>  (702) 
0

>  <NR>  (702) 
2

>  <NAR>  (702) 
1

>  <PSA>  (702) 
44.48

>  <Standard Type>  (702) 
nan

>  <Standard Relation>  (702) 
nan

>  <Standard Units>  (702) 
nan

>  <Standard Value>  (702) 
nan

>  <Assay ChEMBL ID>  (702) 
nan

>  <Assay Description>  (702) 
nan

>  <BAO Label>  (702) 
nan

$$$$

     RDKit          2D

 18 20  0  0  0  0  0  0  0  0999 V2000
    3.0000   -5.1962    0.0000 N   0  0  0  0  0  0  0  0  0  0  0  0
    1.5000   -5.1962    0.0000 C   0  0  0  0  0  0  0  0  0  0  0  0
    0.7500   -6.4952    0.0000 C   0  0  0  0  0  0  0  0  0  0  0  0
   -0.7500   -6.4952    0.0000 C   0  0  0  0  0  0  0  0  0  0  0  0
   -1.5000   -5.1962    0.0000 C   0  0  0  0  0  0  0  0  0  0  0  0
   -3.0000   -5.1962    0.0000 Br  0  0  0  0  0  0  0  0  0  0  0  0
   -0.7500   -3.8971    0.0000 C   0  0  0  0  0  0  0  0  0  0  0  0
    0.7500   -3.8971    0.0000 C   0  0  0  0  0  0  0  0  0  0  0  0
    1.5000   -2.5981    0.0000 C   0  0  0  0  0  0  0  0  0  0  0  0
    3.0000   -2.5981    0.0000 O   0  0  0  0  0  0  0  0  0  0  0  0
    0.7500   -1.2990    0.0000 C   0  0  0  0  0  0  0  0  0  0  0  0
    1.5000    0.0000    0.0000 C   0  0  0  0  0  0  0  0  0  0  0  0
    0.7500    1.2990    0.0000 C   0  0  0  0  0  0  0  0  0  0  0  0
   -0.7500    1.2990    0.0000 C   0  0  0  0  0  0  0  0  0  0  0  0
   -1.5000    0.0000    0.0000 C   0  0  0  0  0  0  0  0  0  0  0  0
   -0.7500   -1.2990    0.0000 C   0  0  0  0  0  0  0  0  0  0  0  0
   -1.5000   -2.5981    0.0000 C   0  0  0  0  0  0  0  0  0  0  0  0
   -3.0000   -2.5981    0.0000 O   0  0  0  0  0  0  0  0  0  0  0  0
  1  2  1  0
  2  3  2  0
  3  4  1  0
  4  5  2  0
  5  6  1  0
  5  7  1  0
  7  8  2  0
  8  9  1  0
  9 10  2  0
  9 11  1  0
 11 12  2  0
 12 13  1  0
 13 14  2  0
 14 15  1  0
 15 16  2  0
 16 17  1  0
 17 18  2  0
  8  2  1  0
 16 11  1  0
 17  7  1  0
M  END
>  <Compound_ID>  (703) 
C04712896

>  <Active>  (703) 
0.0

>  <Smiles>  (703) 
Nc1ccc(Br)c2c1C(=O)c1ccccc1C2=O

>  <canonical_smi>  (703) 
Nc1ccc(Br)c2c1C(=O)c1ccccc1C2=O

>  <Set>  (703) 
G2 inactive

>  <Set_type>  (703) 
Train

>  <MW>  (703) 
302.13

>  <HBD>  (703) 
1

>  <HBA>  (703) 
3

>  <NRB>  (703) 
0

>  <NR>  (703) 
3

>  <NAR>  (703) 
3

>  <PSA>  (703) 
60.16

>  <Standard Type>  (703) 
nan

>  <Standard Relation>  (703) 
nan

>  <Standard Units>  (703) 
nan

>  <Standard Value>  (703) 
nan

>  <Assay ChEMBL ID>  (703) 
nan

>  <Assay Description>  (703) 
nan

>  <BAO Label>  (703) 
nan

$$$$

     RDKit          2D

 20 21  0  0  0  0  0  0  0  0999 V2000
   -0.0967    5.1517    0.0000 C   0  0  0  0  0  0  0  0  0  0  0  0
   -0.4086    3.6844    0.0000 C   0  0  0  0  0  0  0  0  0  0  0  0
   -1.8351    3.2209    0.0000 C   0  0  0  0  0  0  0  0  0  0  0  0
   -2.9499    4.2246    0.0000 C   0  0  0  0  0  0  0  0  0  0  0  0
   -2.6380    5.6918    0.0000 O   0  0  0  0  0  0  0  0  0  0  0  0
   -4.3764    3.7611    0.0000 C   0  0  0  0  0  0  0  0  0  0  0  0
   -4.8400    5.1877    0.0000 C   0  0  0  0  0  0  0  0  0  0  0  0
   -3.9129    2.3345    0.0000 C   0  0  0  0  0  0  0  0  0  0  0  0
   -5.8030    3.2976    0.0000 C   0  0  0  0  0  0  0  0  0  0  0  0
   -2.1470    1.7537    0.0000 C   0  0  0  0  0  0  0  0  0  0  0  0
   -1.0323    0.7500    0.0000 C   0  0  0  0  0  0  0  0  0  0  0  0
    0.3943    1.2135    0.0000 C   0  0  0  0  0  0  0  0  0  0  0  0
    0.7062    2.6807    0.0000 C   0  0  0  0  0  0  0  0  0  0  0  0
    2.1328    3.1443    0.0000 C   0  0  0  0  0  0  0  0  0  0  0  0
    1.2760    0.0000    0.0000 N   0  0  0  0  0  0  0  0  0  0  0  0
    0.3943   -1.2135    0.0000 C   0  0  0  0  0  0  0  0  0  0  0  0
    0.8578   -2.6401    0.0000 O   0  0  0  0  0  0  0  0  0  0  0  0
   -1.0323   -0.7500    0.0000 C   0  0  0  0  0  0  0  0  0  0  0  0
   -1.3442   -2.2172    0.0000 C   0  0  0  0  0  0  0  0  0  0  0  0
   -2.5241   -0.5932    0.0000 C   0  0  0  0  0  0  0  0  0  0  0  0
  1  2  1  0
  2  3  2  0
  3  4  1  0
  4  5  1  1
  4  6  1  0
  6  7  1  0
  6  8  1  0
  6  9  1  0
  3 10  1  0
 10 11  2  0
 11 12  1  0
 12 13  2  0
 13 14  1  0
 12 15  1  0
 15 16  1  0
 16 17  2  0
 16 18  1  0
 18 19  1  0
 18 20  1  0
 13  2  1  0
 18 11  1  0
M  END
>  <Compound_ID>  (704) 
C58100944

>  <Active>  (704) 
0.0

>  <Smiles>  (704) 
Cc1c([C@H](O)C(C)(C)C)cc2c(c1C)NC(=O)C2(C)C

>  <canonical_smi>  (704) 
Cc1c([C@H](O)C(C)(C)C)cc2c(c1C)NC(=O)C2(C)C

>  <Set>  (704) 
G2 inactive

>  <Set_type>  (704) 
Train

>  <MW>  (704) 
275.39

>  <HBD>  (704) 
2

>  <HBA>  (704) 
2

>  <NRB>  (704) 
1

>  <NR>  (704) 
2

>  <NAR>  (704) 
1

>  <PSA>  (704) 
49.33

>  <Standard Type>  (704) 
nan

>  <Standard Relation>  (704) 
nan

>  <Standard Units>  (704) 
nan

>  <Standard Value>  (704) 
nan

>  <Assay ChEMBL ID>  (704) 
nan

>  <Assay Description>  (704) 
nan

>  <BAO Label>  (704) 
nan

$$$$

     RDKit          2D

 26 27  0  0  0  0  0  0  0  0999 V2000
    5.2216  -11.3424    0.0000 C   0  0  0  0  0  0  0  0  0  0  0  0
    4.7581   -9.9158    0.0000 N   0  0  0  0  0  0  0  0  0  0  0  0
    3.2909   -9.6040    0.0000 C   0  0  0  0  0  0  0  0  0  0  0  0
    2.2872  -10.7187    0.0000 O   0  0  0  0  0  0  0  0  0  0  0  0
    2.8273   -8.1774    0.0000 N   0  0  0  0  0  0  0  0  0  0  0  0
    3.8310   -7.0627    0.0000 O   0  0  0  0  0  0  0  0  0  0  0  0
    1.3601   -7.8655    0.0000 C   0  0  0  0  0  0  0  0  0  0  0  0
    0.7500   -6.4952    0.0000 N   0  0  0  0  0  0  0  0  0  0  0  0
    1.5000   -5.1962    0.0000 N   0  0  0  0  0  0  0  0  0  0  0  0
    0.7500   -3.8971    0.0000 C   0  0  0  0  0  0  0  0  0  0  0  0
   -0.7500   -3.8971    0.0000 O   0  0  0  0  0  0  0  0  0  0  0  0
    1.5000   -2.5981    0.0000 N   0  0  0  0  0  0  0  0  0  0  0  0
    0.7500   -1.2990    0.0000 C   0  0  0  0  0  0  0  0  0  0  0  0
    1.5000    0.0000    0.0000 C   0  0  0  0  0  0  0  0  0  0  0  0
    0.7500    1.2990    0.0000 C   0  0  0  0  0  0  0  0  0  0  0  0
   -0.7500    1.2990    0.0000 C   0  0  0  0  0  0  0  0  0  0  0  0
   -1.5000    2.5981    0.0000 Cl  0  0  0  0  0  0  0  0  0  0  0  0
   -1.5000    0.0000    0.0000 C   0  0  0  0  0  0  0  0  0  0  0  0
   -3.0000    0.0000    0.0000 Cl  0  0  0  0  0  0  0  0  0  0  0  0
   -0.7500   -1.2990    0.0000 C   0  0  0  0  0  0  0  0  0  0  0  0
   -0.7418   -6.6520    0.0000 C   0  0  0  0  0  0  0  0  0  0  0  0
   -1.7455   -5.5373    0.0000 S   0  0  0  0  0  0  0  0  0  0  0  0
   -1.0537   -8.1192    0.0000 S   0  0  0  0  0  0  0  0  0  0  0  0
    0.2454   -8.8692    0.0000 C   0  0  0  0  0  0  0  0  0  0  0  0
    1.3601   -9.8729    0.0000 C   0  0  0  0  0  0  0  0  0  0  0  0
   -0.6363  -10.0827    0.0000 C   0  0  0  0  0  0  0  0  0  0  0  0
  1  2  1  0
  2  3  1  0
  3  4  2  0
  3  5  1  0
  5  6  1  0
  7  5  1  1
  7  8  1  0
  8  9  1  0
  9 10  1  0
 10 11  2  0
 10 12  1  0
 12 13  1  0
 13 14  2  0
 14 15  1  0
 15 16  2  0
 16 17  1  0
 16 18  1  0
 18 19  1  0
 18 20  2  0
  8 21  1  0
 21 22  2  0
 21 23  1  0
 23 24  1  0
 24 25  1  0
 24 26  1  0
 24  7  1  0
 20 13  1  0
M  END
>  <Compound_ID>  (705) 
C03876673

>  <Active>  (705) 
0.0

>  <Smiles>  (705) 
CNC(=O)N(O)[C@@H]1N(NC(=O)Nc2ccc(Cl)c(Cl)c2)C(=S)SC1(C)C

>  <canonical_smi>  (705) 
CNC(=O)N(O)[C@@H]1N(NC(=O)Nc2ccc(Cl)c(Cl)c2)C(=S)SC1(C)C

>  <Set>  (705) 
G2 inactive

>  <Set_type>  (705) 
Train

>  <MW>  (705) 
438.36

>  <HBD>  (705) 
4

>  <HBA>  (705) 
6

>  <NRB>  (705) 
3

>  <NR>  (705) 
2

>  <NAR>  (705) 
1

>  <PSA>  (705) 
96.94

>  <Standard Type>  (705) 
nan

>  <Standard Relation>  (705) 
nan

>  <Standard Units>  (705) 
nan

>  <Standard Value>  (705) 
nan

>  <Assay ChEMBL ID>  (705) 
nan

>  <Assay Description>  (705) 
nan

>  <BAO Label>  (705) 
nan

$$$$

     RDKit          2D

 33 37  0  0  0  0  0  0  0  0999 V2000
    3.7156    7.2317    0.0000 C   0  0  0  0  0  0  0  0  0  0  0  0
    2.2484    6.9199    0.0000 C   0  0  0  0  0  0  0  0  0  0  0  0
    1.2447    8.0346    0.0000 C   0  0  0  0  0  0  0  0  0  0  0  0
    1.7849    5.4933    0.0000 C   0  0  0  0  0  0  0  0  0  0  0  0
    2.7886    4.3786    0.0000 C   0  0  0  0  0  0  0  0  0  0  0  0
    2.3250    2.9520    0.0000 C   0  0  0  0  0  0  0  0  0  0  0  0
    0.8578    2.6401    0.0000 C   0  0  0  0  0  0  0  0  0  0  0  0
    0.3943    1.2135    0.0000 N   0  0  0  0  0  0  0  0  0  0  0  0
    1.2760    0.0000    0.0000 C   0  0  0  0  0  0  0  0  0  0  0  0
    2.7760    0.0000    0.0000 O   0  0  0  0  0  0  0  0  0  0  0  0
    0.3943   -1.2135    0.0000 C   0  0  0  0  0  0  0  0  0  0  0  0
   -1.0323   -0.7500    0.0000 C   0  0  0  0  0  0  0  0  0  0  0  0
   -1.0323    0.7500    0.0000 C   0  0  0  0  0  0  0  0  0  0  0  0
   -2.3313    1.5000    0.0000 N   0  0  0  0  0  0  0  0  0  0  0  0
   -3.6304    0.7500    0.0000 C   0  0  0  0  0  0  0  0  0  0  0  0
   -4.9294    1.5000    0.0000 N   0  0  0  0  0  0  0  0  0  0  0  0
   -3.6304   -0.7500    0.0000 C   0  0  0  0  0  0  0  0  0  0  0  0
   -4.9294   -1.5000    0.0000 C   0  0  0  0  0  0  0  0  0  0  0  0
   -6.2284   -0.7500    0.0000 N   0  0  0  0  0  0  0  0  0  0  0  0
   -4.9294   -3.0000    0.0000 N   0  0  0  0  0  0  0  0  0  0  0  0
   -3.6304   -3.7500    0.0000 C   0  0  0  0  0  0  0  0  0  0  0  0
   -3.6304   -5.2500    0.0000 N   0  0  0  0  0  0  0  0  0  0  0  0
   -4.9294   -6.0000    0.0000 C   0  0  0  0  0  0  0  0  0  0  0  0
   -4.9294   -7.5000    0.0000 C   0  0  0  0  0  0  0  0  0  0  0  0
   -3.6304   -8.2500    0.0000 C   0  0  0  0  0  0  0  0  0  0  0  0
   -2.3313   -7.5000    0.0000 C   0  0  0  0  0  0  0  0  0  0  0  0
   -2.3313   -6.0000    0.0000 C   0  0  0  0  0  0  0  0  0  0  0  0
   -2.3313   -3.0000    0.0000 C   0  0  0  0  0  0  0  0  0  0  0  0
   -1.0323   -3.7500    0.0000 C   0  0  0  0  0  0  0  0  0  0  0  0
    0.2668   -4.5000    0.0000 N   0  0  0  0  0  0  0  0  0  0  0  0
   -2.3313   -1.5000    0.0000 C   0  0  0  0  0  0  0  0  0  0  0  0
   -0.1459    3.7548    0.0000 C   0  0  0  0  0  0  0  0  0  0  0  0
    0.3177    5.1814    0.0000 C   0  0  0  0  0  0  0  0  0  0  0  0
  1  2  1  0
  2  3  1  0
  2  4  1  0
  4  5  2  0
  5  6  1  0
  6  7  2  0
  7  8  1  0
  8  9  1  0
  9 10  2  0
  9 11  1  0
 11 12  1  0
 12 13  2  0
 13 14  1  0
 14 15  2  0
 15 16  1  0
 15 17  1  0
 17 18  2  0
 18 19  1  0
 18 20  1  0
 20 21  2  0
 21 22  1  0
 22 23  1  0
 23 24  1  0
 24 25  1  0
 25 26  1  0
 26 27  1  0
 21 28  1  0
 28 29  1  0
 29 30  3  0
 28 31  2  0
  7 32  1  0
 32 33  2  0
 33  4  1  0
 13  8  1  0
 31 17  1  0
 31 12  1  0
 27 22  1  0
M  END
>  <Compound_ID>  (706) 
C25228158

>  <Active>  (706) 
0.0

>  <Smiles>  (706) 
CC(C)c1ccc(N2C(=O)Cc3c2nc(N)c2c(N)nc(N4CCCCC4)c(C#N)c32)cc1

>  <canonical_smi>  (706) 
CC(C)c1ccc(N2C(=O)Cc3c2nc(N)c2c(N)nc(N4CCCCC4)c(C#N)c32)cc1

>  <Set>  (706) 
G2 inactive

>  <Set_type>  (706) 
Train

>  <MW>  (706) 
441.54

>  <HBD>  (706) 
2

>  <HBA>  (706) 
7

>  <NRB>  (706) 
3

>  <NR>  (706) 
5

>  <NAR>  (706) 
3

>  <PSA>  (706) 
125.16

>  <Standard Type>  (706) 
nan

>  <Standard Relation>  (706) 
nan

>  <Standard Units>  (706) 
nan

>  <Standard Value>  (706) 
nan

>  <Assay ChEMBL ID>  (706) 
nan

>  <Assay Description>  (706) 
nan

>  <BAO Label>  (706) 
nan

$$$$

     RDKit          2D

 29 31  0  0  0  0  0  0  0  0999 V2000
   -8.2500   -6.4952    0.0000 C   0  0  0  0  0  0  0  0  0  0  0  0
   -7.5000   -5.1962    0.0000 C   0  0  0  0  0  0  0  0  0  0  0  0
   -6.0000   -5.1962    0.0000 C   0  0  0  0  0  0  0  0  0  0  0  0
   -5.2500   -3.8971    0.0000 C   0  0  0  0  0  0  0  0  0  0  0  0
   -6.0000   -2.5981    0.0000 C   0  0  0  0  0  0  0  0  0  0  0  0
   -5.2500   -1.2990    0.0000 N   0  0  0  0  0  0  0  0  0  0  0  0
   -3.7500   -1.2990    0.0000 N   0  0  0  0  0  0  0  0  0  0  0  0
   -3.0000   -2.5981    0.0000 C   0  0  0  0  0  0  0  0  0  0  0  0
   -3.7500   -3.8971    0.0000 C   0  0  0  0  0  0  0  0  0  0  0  0
   -3.0000   -5.1962    0.0000 C   0  0  0  0  0  0  0  0  0  0  0  0
   -3.7500   -6.4952    0.0000 C   0  0  0  0  0  0  0  0  0  0  0  0
   -1.5000   -5.1962    0.0000 C   0  0  0  0  0  0  0  0  0  0  0  0
   -0.7500   -6.4952    0.0000 C   0  0  0  0  0  0  0  0  0  0  0  0
   -0.7500   -3.8971    0.0000 C   0  0  0  0  0  0  0  0  0  0  0  0
   -1.5000   -2.5981    0.0000 C   0  0  0  0  0  0  0  0  0  0  0  0
   -0.7500   -1.2990    0.0000 N   0  0  0  0  0  0  0  0  0  0  0  0
    0.7500   -1.2990    0.0000 C   0  0  0  0  0  0  0  0  0  0  0  0
    1.5000   -2.5981    0.0000 O   0  0  0  0  0  0  0  0  0  0  0  0
    3.0000   -2.5981    0.0000 C   0  0  0  0  0  0  0  0  0  0  0  0
    3.7500   -3.8971    0.0000 C   0  0  0  0  0  0  0  0  0  0  0  0
    3.7500   -1.2990    0.0000 C   0  0  0  0  0  0  0  0  0  0  0  0
    5.2500   -1.2990    0.0000 O   0  0  0  0  0  0  0  0  0  0  0  0
    3.0000   -0.0000    0.0000 C   0  0  0  0  0  0  0  0  0  0  0  0
    3.7500    1.2990    0.0000 O   0  0  0  0  0  0  0  0  0  0  0  0
    1.5000   -0.0000    0.0000 C   0  0  0  0  0  0  0  0  0  0  0  0
    0.7500    1.2990    0.0000 O   0  0  0  0  0  0  0  0  0  0  0  0
   -7.5000   -2.5981    0.0000 C   0  0  0  0  0  0  0  0  0  0  0  0
   -8.2500   -3.8971    0.0000 C   0  0  0  0  0  0  0  0  0  0  0  0
   -9.7500   -3.8971    0.0000 C   0  0  0  0  0  0  0  0  0  0  0  0
  1  2  1  0
  2  3  2  0
  3  4  1  0
  4  5  2  0
  5  6  1  0
  6  7  2  0
  7  8  1  0
  8  9  2  0
  9 10  1  0
 10 11  1  0
 10 12  2  0
 12 13  1  0
 12 14  1  0
 14 15  2  0
 15 16  1  0
 17 16  1  1
 17 18  1  0
 18 19  1  0
 19 20  1  6
 19 21  1  0
 21 22  1  6
 21 23  1  0
 23 24  1  6
 23 25  1  0
 25 26  1  1
  5 27  1  0
 27 28  2  0
 28 29  1  0
 28  2  1  0
 15  8  1  0
 25 17  1  0
M  END
>  <Compound_ID>  (707) 
C18163615

>  <Active>  (707) 
0.0

>  <Smiles>  (707) 
Cc1ccc(/N=N\c2cc(C)c(C)cc2N[C@@H]2O[C@@H](C)[C@@H](O)[C@@H](O)[C@@H]2O)cc1C

>  <canonical_smi>  (707) 
Cc1ccc(/N=N\c2cc(C)c(C)cc2N[C@@H]2O[C@@H](C)[C@@H](O)[C@@H](O)[C@@H]2O)cc1C

>  <Set>  (707) 
G2 inactive

>  <Set_type>  (707) 
Train

>  <MW>  (707) 
399.49

>  <HBD>  (707) 
4

>  <HBA>  (707) 
5

>  <NRB>  (707) 
4

>  <NR>  (707) 
3

>  <NAR>  (707) 
2

>  <PSA>  (707) 
106.67

>  <Standard Type>  (707) 
nan

>  <Standard Relation>  (707) 
nan

>  <Standard Units>  (707) 
nan

>  <Standard Value>  (707) 
nan

>  <Assay ChEMBL ID>  (707) 
nan

>  <Assay Description>  (707) 
nan

>  <BAO Label>  (707) 
nan

$$$$

     RDKit          2D

 33 37  0  0  0  0  0  0  0  0999 V2000
    3.0000    0.0000    0.0000 C   0  0  0  0  0  0  0  0  0  0  0  0
    1.5000    0.0000    0.0000 C   0  0  0  0  0  0  0  0  0  0  0  0
    0.7500   -1.2990    0.0000 C   0  0  0  0  0  0  0  0  0  0  0  0
   -0.7500   -1.2990    0.0000 C   0  0  0  0  0  0  0  0  0  0  0  0
   -1.5000    0.0000    0.0000 C   0  0  0  0  0  0  0  0  0  0  0  0
   -0.7500    1.2990    0.0000 C   0  0  0  0  0  0  0  0  0  0  0  0
   -2.2500    1.2990    0.0000 C   0  0  0  0  0  0  0  0  0  0  0  0
   -1.5000    2.5981    0.0000 C   0  0  0  0  0  0  0  0  0  0  0  0
   -0.7500    3.8971    0.0000 C   0  0  0  0  0  0  0  0  0  0  0  0
   -1.2135    5.3237    0.0000 O   0  0  0  0  0  0  0  0  0  0  0  0
   -0.0000    6.2054    0.0000 C   0  0  0  0  0  0  0  0  0  0  0  0
   -0.0000    7.7054    0.0000 O   0  0  0  0  0  0  0  0  0  0  0  0
    1.2135    5.3237    0.0000 C   0  0  0  0  0  0  0  0  0  0  0  0
    2.6401    5.7872    0.0000 C   0  0  0  0  0  0  0  0  0  0  0  0
    2.9520    7.2544    0.0000 N   0  0  0  0  0  4  0  0  0  0  0  0
    4.3786    7.7180    0.0000 C   0  0  0  0  0  0  0  0  0  0  0  0
    4.6904    9.1852    0.0000 C   0  0  0  0  0  0  0  0  0  0  0  0
    6.1170    9.6487    0.0000 C   0  0  0  0  0  0  0  0  0  0  0  0
    6.4289   11.1159    0.0000 C   0  0  0  0  0  0  0  0  0  0  0  0
    7.8555   11.5795    0.0000 C   0  0  0  0  0  0  0  0  0  0  0  0
    8.1673   13.0467    0.0000 C   0  0  0  0  0  0  0  0  0  0  0  0
    7.0526   14.0504    0.0000 C   0  0  0  0  0  0  0  0  0  0  0  0
    7.3645   15.5176    0.0000 C   0  0  0  0  0  0  0  0  0  0  0  0
    5.6260   13.5869    0.0000 C   0  0  0  0  0  0  0  0  0  0  0  0
    5.3142   12.1196    0.0000 C   0  0  0  0  0  0  0  0  0  0  0  0
    7.2317    8.6450    0.0000 C   0  0  0  0  0  0  0  0  0  0  0  0
    8.6990    8.9569    0.0000 C   0  0  0  0  0  0  0  0  0  0  0  0
    9.4490    7.6579    0.0000 C   0  0  0  0  0  0  0  0  0  0  0  0
    8.4453    6.5431    0.0000 C   0  0  0  0  0  0  0  0  0  0  0  0
    7.0749    7.1532    0.0000 O   0  0  0  0  0  0  0  0  0  0  0  0
    0.7500    3.8971    0.0000 C   0  0  0  0  0  0  0  0  0  0  0  0
    1.5000    2.5981    0.0000 C   0  0  0  0  0  0  0  0  0  0  0  0
    0.7500    1.2990    0.0000 C   0  0  0  0  0  0  0  0  0  0  0  0
  1  2  2  0
  2  3  1  0
  3  4  1  0
  4  5  1  0
  5  6  1  0
  6  7  1  6
  6  8  1  0
  9  8  1  1
  9 10  1  0
 10 11  1  0
 11 12  2  0
 11 13  1  0
 13 14  1  6
 14 15  1  0
 15 16  1  0
 16 17  1  0
 18 17  1  6
 18 19  1  0
 19 20  2  0
 20 21  1  0
 21 22  2  0
 22 23  1  0
 22 24  1  0
 24 25  2  0
 18 26  1  0
 26 27  2  0
 27 28  1  0
 28 29  2  0
 29 30  1  0
 13 31  1  0
 31 32  1  1
 33 32  1  6
 33  2  1  0
 33  6  1  0
 31  9  1  0
 25 19  1  0
 30 26  1  0
M  CHG  1  15   1
M  END
>  <Compound_ID>  (708) 
C43742686

>  <Active>  (708) 
0.0

>  <Smiles>  (708) 
C=C1CCC[C@@]2(C)C[C@H]3OC(=O)[C@H](C[NH2+]CC[C@H](c4ccc(C)cc4)c4ccco4)[C@H]3C[C@H]12

>  <canonical_smi>  (708) 
C=C1CCC[C@@]2(C)C[C@H]3OC(=O)[C@H](C[NH2+]CC[C@H](c4ccc(C)cc4)c4ccco4)[C@H]3C[C@H]12

>  <Set>  (708) 
G2 inactive

>  <Set_type>  (708) 
Train

>  <MW>  (708) 
448.63

>  <HBD>  (708) 
1

>  <HBA>  (708) 
3

>  <NRB>  (708) 
7

>  <NR>  (708) 
5

>  <NAR>  (708) 
2

>  <PSA>  (708) 
56.05

>  <Standard Type>  (708) 
nan

>  <Standard Relation>  (708) 
nan

>  <Standard Units>  (708) 
nan

>  <Standard Value>  (708) 
nan

>  <Assay ChEMBL ID>  (708) 
nan

>  <Assay Description>  (708) 
nan

>  <BAO Label>  (708) 
nan

$$$$

     RDKit          2D

 30 33  0  0  0  0  0  0  0  0999 V2000
    6.0000   -2.5981    0.0000 C   0  0  0  0  0  0  0  0  0  0  0  0
    5.2500   -1.2990    0.0000 C   0  0  0  0  0  0  0  0  0  0  0  0
    3.7500   -1.2990    0.0000 C   0  0  0  0  0  0  0  0  0  0  0  0
    3.0000    0.0000    0.0000 S   0  0  0  0  0  0  0  0  0  0  0  0
    1.5000    0.0000    0.0000 C   0  0  0  0  0  0  0  0  0  0  0  0
    0.7500   -1.2990    0.0000 N   0  0  0  0  0  4  0  0  0  0  0  0
   -0.7500   -1.2990    0.0000 C   0  0  0  0  0  0  0  0  0  0  0  0
   -2.2500   -1.2990    0.0000 C   0  0  0  0  0  0  0  0  0  0  0  0
   -3.0000   -2.5981    0.0000 C   0  0  0  0  0  0  0  0  0  0  0  0
   -4.5000   -2.5981    0.0000 C   0  0  0  0  0  0  0  0  0  0  0  0
   -5.2500   -1.2990    0.0000 C   0  0  0  0  0  0  0  0  0  0  0  0
   -6.7500   -1.2990    0.0000 C   0  0  0  0  0  0  0  0  0  0  0  0
   -7.5000   -2.5981    0.0000 C   0  0  0  0  0  0  0  0  0  0  0  0
   -6.7500   -3.8971    0.0000 C   0  0  0  0  0  0  0  0  0  0  0  0
   -7.5000   -5.1962    0.0000 C   0  0  0  0  0  0  0  0  0  0  0  0
   -5.2500   -3.8971    0.0000 C   0  0  0  0  0  0  0  0  0  0  0  0
   -2.2500   -3.8971    0.0000 C   0  0  0  0  0  0  0  0  0  0  0  0
   -3.0000   -5.1962    0.0000 C   0  0  0  0  0  0  0  0  0  0  0  0
   -2.2500   -6.4952    0.0000 C   0  0  0  0  0  0  0  0  0  0  0  0
   -0.7500   -6.4952    0.0000 C   0  0  0  0  0  0  0  0  0  0  0  0
    0.0000   -7.7942    0.0000 O   0  0  0  0  0  0  0  0  0  0  0  0
    0.0000   -5.1962    0.0000 C   0  0  0  0  0  0  0  0  0  0  0  0
    1.5000   -5.1962    0.0000 O   0  0  0  0  0  0  0  0  0  0  0  0
   -0.7500   -3.8971    0.0000 C   0  0  0  0  0  0  0  0  0  0  0  0
    0.0000   -2.5981    0.0000 O   0  0  0  0  0  0  0  0  0  0  0  0
   -1.5000    0.0000    0.0000 C   0  0  0  0  0  0  0  0  0  0  0  0
   -0.7500    1.2990    0.0000 C   0  0  0  0  0  0  0  0  0  0  0  0
   -2.1595    1.8121    0.0000 C   0  0  0  0  0  0  0  0  0  0  0  0
   -0.4895    2.7762    0.0000 C   0  0  0  0  0  0  0  0  0  0  0  0
    0.7500    1.2990    0.0000 N   0  0  0  0  0  0  0  0  0  0  0  0
  1  2  2  0
  2  3  1  0
  3  4  1  0
  4  5  1  0
  5  6  2  0
  6  7  1  0
  7  8  1  1
  8  9  1  0
  9 10  1  6
 10 11  2  0
 11 12  1  0
 12 13  2  0
 13 14  1  0
 14 15  1  0
 14 16  2  0
  9 17  1  0
 17 18  2  0
 18 19  1  0
 19 20  2  0
 20 21  1  0
 20 22  1  0
 22 23  1  0
 22 24  2  0
 24 25  1  0
  7 26  1  0
 26 27  1  0
 27 28  1  0
 27 29  1  0
 27 30  1  0
 30  5  1  0
 25  7  1  0
 16 10  1  0
 24 17  1  0
M  CHG  1   6   1
M  END
>  <Compound_ID>  (709) 
C04160195

>  <Active>  (709) 
0.0

>  <Smiles>  (709) 
C=CCSC1=[NH+][C@@]2(C[C@@H](c3cccc(C)c3)c3ccc(O)c(O)c3O2)CC(C)(C)N1

>  <canonical_smi>  (709) 
C=CCSC1=[NH+][C@@]2(C[C@@H](c3cccc(C)c3)c3ccc(O)c(O)c3O2)CC(C)(C)N1

>  <Set>  (709) 
G2 inactive

>  <Set_type>  (709) 
Train

>  <MW>  (709) 
425.57

>  <HBD>  (709) 
4

>  <HBA>  (709) 
5

>  <NRB>  (709) 
3

>  <NR>  (709) 
4

>  <NAR>  (709) 
2

>  <PSA>  (709) 
75.69

>  <Standard Type>  (709) 
nan

>  <Standard Relation>  (709) 
nan

>  <Standard Units>  (709) 
nan

>  <Standard Value>  (709) 
nan

>  <Assay ChEMBL ID>  (709) 
nan

>  <Assay Description>  (709) 
nan

>  <BAO Label>  (709) 
nan

$$$$

     RDKit          2D

 31 34  0  0  0  0  0  0  0  0999 V2000
    8.1510    6.4656    0.0000 C   0  0  0  0  0  0  0  0  0  0  0  0
    6.7244    6.0021    0.0000 C   0  0  0  0  0  0  0  0  0  0  0  0
    6.4125    4.5348    0.0000 C   0  0  0  0  0  0  0  0  0  0  0  0
    7.5272    3.5312    0.0000 C   0  0  0  0  0  0  0  0  0  0  0  0
    7.2154    2.0639    0.0000 C   0  0  0  0  0  0  0  0  0  0  0  0
    5.7888    1.6004    0.0000 C   0  0  0  0  0  0  0  0  0  0  0  0
    4.6741    2.6041    0.0000 C   0  0  0  0  0  0  0  0  0  0  0  0
    3.2475    2.1406    0.0000 C   0  0  0  0  0  0  0  0  0  0  0  0
    4.9859    4.0713    0.0000 C   0  0  0  0  0  0  0  0  0  0  0  0
    3.8712    5.0750    0.0000 N   0  0  0  0  0  0  0  0  0  0  0  0
    2.4446    4.6115    0.0000 C   0  0  0  0  0  0  0  0  0  0  0  0
    2.1328    3.1443    0.0000 O   0  0  0  0  0  0  0  0  0  0  0  0
    1.3299    5.6152    0.0000 C   0  0  0  0  0  0  0  0  0  0  0  0
    1.6418    7.0824    0.0000 C   0  0  0  0  0  0  0  0  0  0  0  0
   -0.0967    5.1517    0.0000 S   0  0  0  0  0  0  0  0  0  0  0  0
   -0.4086    3.6844    0.0000 C   0  0  0  0  0  0  0  0  0  0  0  0
    0.7062    2.6807    0.0000 N   0  0  0  0  0  0  0  0  0  0  0  0
    0.3943    1.2135    0.0000 C   0  0  0  0  0  0  0  0  0  0  0  0
    1.2760    0.0000    0.0000 S   0  0  0  0  0  0  0  0  0  0  0  0
    0.3943   -1.2135    0.0000 C   0  0  0  0  0  0  0  0  0  0  0  0
   -1.0323   -0.7500    0.0000 C   0  0  0  0  0  0  0  0  0  0  0  0
   -2.2458   -1.6317    0.0000 C   0  0  0  0  0  0  0  0  0  0  0  0
   -3.6161   -1.0216    0.0000 C   0  0  0  0  0  0  0  0  0  0  0  0
   -4.8297   -1.9033    0.0000 C   0  0  0  0  0  0  0  0  0  0  0  0
   -4.6729   -3.3950    0.0000 C   0  0  0  0  0  0  0  0  0  0  0  0
   -3.3025   -4.0051    0.0000 C   0  0  0  0  0  0  0  0  0  0  0  0
   -2.0890   -3.1235    0.0000 C   0  0  0  0  0  0  0  0  0  0  0  0
   -1.0323    0.7500    0.0000 C   0  0  0  0  0  0  0  0  0  0  0  0
   -2.1470    1.7537    0.0000 C   0  0  0  0  0  0  0  0  0  0  0  0
   -3.5736    1.2902    0.0000 O   0  0  0  0  0  0  0  0  0  0  0  0
   -1.8351    3.2209    0.0000 N   0  0  0  0  0  0  0  0  0  0  0  0
  1  2  1  0
  2  3  1  0
  3  4  2  0
  4  5  1  0
  5  6  2  0
  6  7  1  0
  7  8  1  0
  7  9  2  0
  9 10  1  0
 10 11  1  0
 11 12  2  0
 11 13  1  0
 13 14  1  1
 13 15  1  0
 15 16  1  0
 16 17  2  0
 17 18  1  0
 18 19  1  0
 19 20  1  0
 20 21  2  0
 21 22  1  0
 22 23  2  0
 23 24  1  0
 24 25  2  0
 25 26  1  0
 26 27  2  0
 21 28  1  0
 28 29  1  0
 29 30  2  0
 29 31  1  0
  9  3  1  0
 31 16  1  0
 28 18  2  0
 27 22  1  0
M  END
>  <Compound_ID>  (710) 
C02613811

>  <Active>  (710) 
0.0

>  <Smiles>  (710) 
CCc1cccc(C)c1NC(=O)[C@H](C)Sc1nc2scc(-c3ccccc3)c2c(=O)[nH]1

>  <canonical_smi>  (710) 
CCc1cccc(C)c1NC(=O)[C@H](C)Sc1nc2scc(-c3ccccc3)c2c(=O)[nH]1

>  <Set>  (710) 
G2 inactive

>  <Set_type>  (710) 
Train

>  <MW>  (710) 
449.6

>  <HBD>  (710) 
2

>  <HBA>  (710) 
4

>  <NRB>  (710) 
6

>  <NR>  (710) 
4

>  <NAR>  (710) 
4

>  <PSA>  (710) 
74.85

>  <Standard Type>  (710) 
nan

>  <Standard Relation>  (710) 
nan

>  <Standard Units>  (710) 
nan

>  <Standard Value>  (710) 
nan

>  <Assay ChEMBL ID>  (710) 
nan

>  <Assay Description>  (710) 
nan

>  <BAO Label>  (710) 
nan

$$$$

     RDKit          2D

 19 20  0  0  0  0  0  0  0  0999 V2000
    3.0000    0.0000    0.0000 C   0  0  0  0  0  0  0  0  0  0  0  0
    1.5000    0.0000    0.0000 C   0  0  0  0  0  0  0  0  0  0  0  0
    0.7500   -1.2990    0.0000 C   0  0  0  0  0  0  0  0  0  0  0  0
   -0.7500   -1.2990    0.0000 C   0  0  0  0  0  0  0  0  0  0  0  0
   -1.5000    0.0000    0.0000 C   0  0  0  0  0  0  0  0  0  0  0  0
   -3.0000    0.0000    0.0000 N   0  0  0  0  0  0  0  0  0  0  0  0
   -3.7500   -1.2990    0.0000 C   0  0  0  0  0  0  0  0  0  0  0  0
   -3.7500    1.2990    0.0000 C   0  0  0  0  0  0  0  0  0  0  0  0
   -5.2418    1.4558    0.0000 N   0  0  0  0  0  0  0  0  0  0  0  0
   -5.5537    2.9231    0.0000 C   0  0  0  0  0  0  0  0  0  0  0  0
   -6.9240    3.5332    0.0000 C   0  0  0  0  0  0  0  0  0  0  0  0
   -4.2546    3.6731    0.0000 C   0  0  0  0  0  0  0  0  0  0  0  0
   -4.0978    5.1648    0.0000 C   0  0  0  0  0  0  0  0  0  0  0  0
   -2.7275    5.7749    0.0000 C   0  0  0  0  0  0  0  0  0  0  0  0
   -5.3113    6.0465    0.0000 O   0  0  0  0  0  0  0  0  0  0  0  0
   -3.1399    2.6694    0.0000 S   0  0  0  0  0  0  0  0  0  0  0  0
   -0.7500    1.2990    0.0000 C   0  0  0  0  0  0  0  0  0  0  0  0
   -1.5000    2.5981    0.0000 C   0  0  0  0  0  0  0  0  0  0  0  0
    0.7500    1.2990    0.0000 C   0  0  0  0  0  0  0  0  0  0  0  0
  1  2  1  0
  2  3  2  0
  3  4  1  0
  4  5  2  0
  5  6  1  0
  6  7  1  0
  6  8  1  0
  8  9  2  0
  9 10  1  0
 10 11  1  0
 10 12  2  0
 12 13  1  0
 13 14  1  6
 13 15  1  0
 12 16  1  0
  5 17  1  0
 17 18  1  0
 17 19  2  0
 19  2  1  0
 16  8  1  0
M  END
>  <Compound_ID>  (711) 
C54927987

>  <Active>  (711) 
0.0

>  <Smiles>  (711) 
Cc1ccc(N(C)c2nc(C)c([C@@H](C)O)s2)c(C)c1

>  <canonical_smi>  (711) 
Cc1ccc(N(C)c2nc(C)c([C@@H](C)O)s2)c(C)c1

>  <Set>  (711) 
G2 inactive

>  <Set_type>  (711) 
Train

>  <MW>  (711) 
276.41

>  <HBD>  (711) 
1

>  <HBA>  (711) 
3

>  <NRB>  (711) 
3

>  <NR>  (711) 
2

>  <NAR>  (711) 
2

>  <PSA>  (711) 
36.36

>  <Standard Type>  (711) 
nan

>  <Standard Relation>  (711) 
nan

>  <Standard Units>  (711) 
nan

>  <Standard Value>  (711) 
nan

>  <Assay ChEMBL ID>  (711) 
nan

>  <Assay Description>  (711) 
nan

>  <BAO Label>  (711) 
nan

$$$$

     RDKit          2D

 17 17  0  0  0  0  0  0  0  0999 V2000
    3.7500   -1.2990    0.0000 C   0  0  0  0  0  0  0  0  0  0  0  0
    3.0000    0.0000    0.0000 C   0  0  0  0  0  0  0  0  0  0  0  0
    3.7500    1.2990    0.0000 C   0  0  0  0  0  0  0  0  0  0  0  0
    1.5000    0.0000    0.0000 C   0  0  0  0  0  0  0  0  0  0  0  0
    0.7500   -1.2990    0.0000 C   0  0  0  0  0  0  0  0  0  0  0  0
   -0.7500   -1.2990    0.0000 C   0  0  0  0  0  0  0  0  0  0  0  0
   -1.5000   -2.5981    0.0000 N   0  0  0  0  0  0  0  0  0  0  0  0
   -3.0000   -2.5981    0.0000 N   0  0  0  0  0  0  0  0  0  0  0  0
   -3.7500   -3.8971    0.0000 C   0  0  0  0  0  0  0  0  0  0  0  0
   -5.2500   -3.8971    0.0000 O   0  0  0  0  0  0  0  0  0  0  0  0
   -1.5000    0.0000    0.0000 C   0  0  0  0  0  0  0  0  0  0  0  0
   -0.7500    1.2990    0.0000 C   0  0  0  0  0  0  0  0  0  0  0  0
   -1.5000    2.5981    0.0000 C   0  0  0  0  0  0  0  0  0  0  0  0
   -0.7500    3.8971    0.0000 C   0  0  0  0  0  0  0  0  0  0  0  0
   -3.0000    2.5981    0.0000 C   0  0  0  0  0  0  0  0  0  0  0  0
    0.7500    1.2990    0.0000 C   0  0  0  0  0  0  0  0  0  0  0  0
    1.5000    2.5981    0.0000 O   0  0  0  0  0  0  0  0  0  0  0  0
  1  2  1  0
  2  3  1  0
  2  4  1  0
  4  5  2  0
  5  6  1  0
  6  7  2  0
  7  8  1  0
  8  9  1  0
  9 10  2  0
  6 11  1  0
 11 12  2  0
 12 13  1  0
 13 14  1  0
 13 15  1  0
 12 16  1  0
 16 17  2  0
 16  4  1  0
M  END
>  <Compound_ID>  (712) 
C01922634

>  <Active>  (712) 
0.0

>  <Smiles>  (712) 
CC(C)C1=CC(=NNC=O)C=C(C(C)C)C1=O

>  <canonical_smi>  (712) 
CC(C)C1=CC(=NNC=O)C=C(C(C)C)C1=O

>  <Set>  (712) 
G2 inactive

>  <Set_type>  (712) 
Train

>  <MW>  (712) 
234.3

>  <HBD>  (712) 
1

>  <HBA>  (712) 
2

>  <NRB>  (712) 
4

>  <NR>  (712) 
1

>  <NAR>  (712) 
0

>  <PSA>  (712) 
58.53

>  <Standard Type>  (712) 
nan

>  <Standard Relation>  (712) 
nan

>  <Standard Units>  (712) 
nan

>  <Standard Value>  (712) 
nan

>  <Assay ChEMBL ID>  (712) 
nan

>  <Assay Description>  (712) 
nan

>  <BAO Label>  (712) 
nan

$$$$

     RDKit          2D

 17 19  0  0  0  0  0  0  0  0999 V2000
   -8.0999    4.0836    0.0000 C   0  0  0  0  0  0  0  0  0  0  0  0
   -6.8419    4.9005    0.0000 C   0  0  0  0  0  0  0  0  0  0  0  0
   -6.9204    6.3985    0.0000 C   0  0  0  0  0  0  0  0  0  0  0  0
   -5.6623    7.2154    0.0000 C   0  0  0  0  0  0  0  0  0  0  0  0
   -5.7409    8.7134    0.0000 C   0  0  0  0  0  0  0  0  0  0  0  0
   -4.3258    6.5344    0.0000 N   0  0  0  0  0  0  0  0  0  0  0  0
   -4.2473    5.0365    0.0000 C   0  0  0  0  0  0  0  0  0  0  0  0
   -2.9108    4.3555    0.0000 N   0  0  0  0  0  0  0  0  0  0  0  0
   -2.8323    2.8576    0.0000 N   0  0  0  0  0  0  0  0  0  0  0  0
   -1.4958    2.1766    0.0000 C   0  0  0  0  0  0  0  0  0  0  0  0
   -0.0692    2.6401    0.0000 C   0  0  0  0  0  0  0  0  0  0  0  0
    0.3943    1.2135    0.0000 C   0  0  0  0  0  0  0  0  0  0  0  0
    1.2760    0.0000    0.0000 C   0  0  0  0  0  0  0  0  0  0  0  0
    0.3943   -1.2135    0.0000 C   0  0  0  0  0  0  0  0  0  0  0  0
   -1.0323   -0.7500    0.0000 C   0  0  0  0  0  0  0  0  0  0  0  0
   -1.0323    0.7500    0.0000 C   0  0  0  0  0  0  0  0  0  0  0  0
   -5.5053    4.2195    0.0000 N   0  0  0  0  0  0  0  0  0  0  0  0
  1  2  1  0
  2  3  2  0
  3  4  1  0
  4  5  1  0
  4  6  2  0
  6  7  1  0
  7  8  1  0
  8  9  1  0
  9 10  2  0
 10 11  1  0
 12 11  1  1
 12 13  1  0
 13 14  2  0
 14 15  1  0
 16 15  1  1
  7 17  2  0
 17  2  1  0
 16 10  1  0
 16 12  1  0
M  END
>  <Compound_ID>  (713) 
C07891166

>  <Active>  (713) 
0.0

>  <Smiles>  (713) 
Cc1cc(C)nc(N/N=C2\C[C@H]3C=CC[C@@H]23)n1

>  <canonical_smi>  (713) 
Cc1cc(C)nc(N/N=C2\C[C@H]3C=CC[C@@H]23)n1

>  <Set>  (713) 
G2 inactive

>  <Set_type>  (713) 
Train

>  <MW>  (713) 
228.3

>  <HBD>  (713) 
1

>  <HBA>  (713) 
3

>  <NRB>  (713) 
2

>  <NR>  (713) 
3

>  <NAR>  (713) 
1

>  <PSA>  (713) 
50.17

>  <Standard Type>  (713) 
nan

>  <Standard Relation>  (713) 
nan

>  <Standard Units>  (713) 
nan

>  <Standard Value>  (713) 
nan

>  <Assay ChEMBL ID>  (713) 
nan

>  <Assay Description>  (713) 
nan

>  <BAO Label>  (713) 
nan

$$$$

     RDKit          2D

 14 15  0  0  0  0  0  0  0  0999 V2000
    3.7500   -1.2990    0.0000 O   0  0  0  0  0  0  0  0  0  0  0  0
    3.0000    0.0000    0.0000 C   0  0  0  0  0  0  0  0  0  0  0  0
    1.5000    0.0000    0.0000 C   0  0  0  0  0  0  0  0  0  0  0  0
    0.7500   -1.2990    0.0000 C   0  0  0  0  0  0  0  0  0  0  0  0
   -0.7500   -1.2990    0.0000 C   0  0  0  0  0  0  0  0  0  0  0  0
   -1.5000    0.0000    0.0000 C   0  0  0  0  0  0  0  0  0  0  0  0
   -0.7500    1.2990    0.0000 N   0  0  0  0  0  0  0  0  0  0  0  0
   -1.5000    2.5981    0.0000 C   0  0  0  0  0  0  0  0  0  0  0  0
   -2.9918    2.7549    0.0000 N   0  0  0  0  0  0  0  0  0  0  0  0
   -3.3037    4.2221    0.0000 S   0  0  0  0  0  0  0  0  0  0  0  0
   -2.0046    4.9721    0.0000 N   0  0  0  0  0  0  0  0  0  0  0  0
   -0.8899    3.9684    0.0000 C   0  0  0  0  0  0  0  0  0  0  0  0
    0.5773    4.2803    0.0000 Cl  0  0  0  0  0  0  0  0  0  0  0  0
    0.7500    1.2990    0.0000 C   0  0  0  0  0  0  0  0  0  0  0  0
  1  2  1  0
  3  2  1  6
  3  4  1  0
  4  5  1  0
  5  6  1  0
  6  7  1  0
  7  8  1  0
  8  9  2  0
  9 10  1  0
 10 11  1  0
 11 12  2  0
 12 13  1  0
  7 14  1  0
 14  3  1  0
 12  8  1  0
M  END
>  <Compound_ID>  (714) 
C35232245

>  <Active>  (714) 
0.0

>  <Smiles>  (714) 
OC[C@@H]1CCCN(c2nsnc2Cl)C1

>  <canonical_smi>  (714) 
OC[C@@H]1CCCN(c2nsnc2Cl)C1

>  <Set>  (714) 
G2 inactive

>  <Set_type>  (714) 
Train

>  <MW>  (714) 
233.72

>  <HBD>  (714) 
1

>  <HBA>  (714) 
4

>  <NRB>  (714) 
2

>  <NR>  (714) 
2

>  <NAR>  (714) 
1

>  <PSA>  (714) 
49.25

>  <Standard Type>  (714) 
nan

>  <Standard Relation>  (714) 
nan

>  <Standard Units>  (714) 
nan

>  <Standard Value>  (714) 
nan

>  <Assay ChEMBL ID>  (714) 
nan

>  <Assay Description>  (714) 
nan

>  <BAO Label>  (714) 
nan

$$$$

     RDKit          2D

 38 43  0  0  0  0  0  0  0  0999 V2000
    8.7849  -11.8587    0.0000 F   0  0  0  0  0  0  0  0  0  0  0  0
    7.4146  -11.2486    0.0000 C   0  0  0  0  0  0  0  0  0  0  0  0
    6.2011  -12.1302    0.0000 C   0  0  0  0  0  0  0  0  0  0  0  0
    4.8308  -11.5201    0.0000 C   0  0  0  0  0  0  0  0  0  0  0  0
    4.6740  -10.0283    0.0000 C   0  0  0  0  0  0  0  0  0  0  0  0
    3.3037   -9.4182    0.0000 N   0  0  0  0  0  0  0  0  0  0  0  0
    2.9918   -7.9510    0.0000 C   0  0  0  0  0  0  0  0  0  0  0  0
    1.5000   -7.7942    0.0000 C   0  0  0  0  0  0  0  0  0  0  0  0
    0.7500   -6.4952    0.0000 C   0  0  0  0  0  0  0  0  0  0  0  0
    1.5000   -5.1962    0.0000 C   0  0  0  0  0  0  0  0  0  0  0  0
    0.7500   -3.8971    0.0000 C   0  0  0  0  0  0  0  0  0  0  0  0
    1.5000   -2.5981    0.0000 C   0  0  0  0  0  0  0  0  0  0  0  0
    0.7500   -1.2990    0.0000 N   0  0  0  0  0  4  0  0  0  0  0  0
    1.5000    0.0000    0.0000 C   0  0  0  0  0  0  0  0  0  0  0  0
    0.7500    1.2990    0.0000 C   0  0  0  0  0  0  0  0  0  0  0  0
   -0.7500    1.2990    0.0000 C   0  0  0  0  0  0  0  0  0  0  0  0
   -1.5000    0.0000    0.0000 C   0  0  0  0  0  0  0  0  0  0  0  0
   -0.7500   -1.2990    0.0000 C   0  0  0  0  0  0  0  0  0  0  0  0
   -2.2418    1.4558    0.0000 O   0  0  0  0  0  0  0  0  0  0  0  0
   -2.5537    2.9231    0.0000 C   0  0  0  0  0  0  0  0  0  0  0  0
   -1.2546    3.6731    0.0000 C   0  0  0  0  0  0  0  0  0  0  0  0
   -0.9427    5.1403    0.0000 C   0  0  0  0  0  0  0  0  0  0  0  0
   -2.0575    6.1440    0.0000 C   0  0  0  0  0  0  0  0  0  0  0  0
   -3.1722    7.1477    0.0000 F   0  0  0  0  0  0  0  0  0  0  0  0
   -1.0538    7.2587    0.0000 F   0  0  0  0  0  0  0  0  0  0  0  0
   -3.0612    5.0293    0.0000 F   0  0  0  0  0  0  0  0  0  0  0  0
    0.4838    5.6038    0.0000 C   0  0  0  0  0  0  0  0  0  0  0  0
    1.5986    4.6001    0.0000 C   0  0  0  0  0  0  0  0  0  0  0  0
    1.2867    3.1329    0.0000 C   0  0  0  0  0  0  0  0  0  0  0  0
   -0.1399    2.6694    0.0000 C   0  0  0  0  0  0  0  0  0  0  0  0
    0.8899   -9.1645    0.0000 C   0  0  0  0  0  0  0  0  0  0  0  0
   -0.5367   -9.6281    0.0000 C   0  0  0  0  0  0  0  0  0  0  0  0
   -0.8486  -11.0953    0.0000 C   0  0  0  0  0  0  0  0  0  0  0  0
    0.2662  -12.0990    0.0000 C   0  0  0  0  0  0  0  0  0  0  0  0
    1.6927  -11.6355    0.0000 C   0  0  0  0  0  0  0  0  0  0  0  0
    2.0046  -10.1682    0.0000 C   0  0  0  0  0  0  0  0  0  0  0  0
    5.8875   -9.1467    0.0000 C   0  0  0  0  0  0  0  0  0  0  0  0
    7.2578   -9.7568    0.0000 C   0  0  0  0  0  0  0  0  0  0  0  0
  1  2  1  0
  2  3  2  0
  3  4  1  0
  4  5  2  0
  5  6  1  0
  6  7  1  0
  7  8  2  0
  8  9  1  0
  9 10  1  0
 10 11  1  0
 11 12  1  0
 12 13  1  0
 13 14  1  0
 14 15  1  0
 15 16  1  0
 16 17  1  0
 17 18  1  0
 16 19  1  0
 19 20  1  0
 20 21  1  0
 21 22  2  0
 22 23  1  0
 23 24  1  0
 23 25  1  0
 23 26  1  0
 22 27  1  0
 27 28  2  0
 28 29  1  0
 29 30  2  0
  8 31  1  0
 31 32  2  0
 32 33  1  0
 33 34  2  0
 34 35  1  0
 35 36  2  0
  5 37  1  0
 37 38  2  0
 38  2  1  0
 36  6  1  0
 18 13  1  0
 30 21  1  0
 36 31  1  0
 30 16  1  0
M  CHG  1  13   1
M  END
>  <Compound_ID>  (715) 
C13741543

>  <Active>  (715) 
0.0

>  <Smiles>  (715) 
Fc1ccc(-n2cc(CCCC[NH+]3CCC4(CC3)OCc3c(C(F)(F)F)cccc34)c3ccccc32)cc1

>  <canonical_smi>  (715) 
Fc1ccc(-n2cc(CCCC[NH+]3CCC4(CC3)OCc3c(C(F)(F)F)cccc34)c3ccccc32)cc1

>  <Set>  (715) 
G2 inactive

>  <Set_type>  (715) 
Train

>  <MW>  (715) 
523.59

>  <HBD>  (715) 
1

>  <HBA>  (715) 
1

>  <NRB>  (715) 
6

>  <NR>  (715) 
6

>  <NAR>  (715) 
4

>  <PSA>  (715) 
18.6

>  <Standard Type>  (715) 
nan

>  <Standard Relation>  (715) 
nan

>  <Standard Units>  (715) 
nan

>  <Standard Value>  (715) 
nan

>  <Assay ChEMBL ID>  (715) 
nan

>  <Assay Description>  (715) 
nan

>  <BAO Label>  (715) 
nan

$$$$

     RDKit          2D

 35 38  0  0  0  0  0  0  0  0999 V2000
   -8.8374   -1.1051    0.0000 C   0  0  0  0  0  0  0  0  0  0  0  0
   -7.7227   -2.1088    0.0000 C   0  0  0  0  0  0  0  0  0  0  0  0
   -6.2961   -1.6453    0.0000 N   0  0  0  0  0  4  0  0  0  0  0  0
   -5.9843   -0.1781    0.0000 C   0  0  0  0  0  0  0  0  0  0  0  0
   -7.0990    0.8256    0.0000 C   0  0  0  0  0  0  0  0  0  0  0  0
   -5.1814   -2.6490    0.0000 C   0  0  0  0  0  0  0  0  0  0  0  0
   -3.7548   -2.1855    0.0000 C   0  0  0  0  0  0  0  0  0  0  0  0
   -2.6401   -3.1891    0.0000 C   0  0  0  0  0  0  0  0  0  0  0  0
   -1.2135   -2.7256    0.0000 N   0  0  0  0  0  0  0  0  0  0  0  0
   -0.0000   -3.6073    0.0000 C   0  0  0  0  0  0  0  0  0  0  0  0
   -0.0000   -5.1073    0.0000 C   0  0  0  0  0  0  0  0  0  0  0  0
    1.2990   -5.8573    0.0000 S   0  0  0  0  0  0  0  0  0  0  0  0
    1.2990   -7.3573    0.0000 C   0  0  0  0  0  0  0  0  0  0  0  0
   -0.0000   -8.1073    0.0000 C   0  0  0  0  0  0  0  0  0  0  0  0
   -0.0000   -9.6073    0.0000 C   0  0  0  0  0  0  0  0  0  0  0  0
    1.2990  -10.3573    0.0000 C   0  0  0  0  0  0  0  0  0  0  0  0
    2.5981   -9.6073    0.0000 C   0  0  0  0  0  0  0  0  0  0  0  0
    2.5981   -8.1073    0.0000 C   0  0  0  0  0  0  0  0  0  0  0  0
   -1.2990   -5.8573    0.0000 C   0  0  0  0  0  0  0  0  0  0  0  0
   -2.5981   -5.1073    0.0000 C   0  0  0  0  0  0  0  0  0  0  0  0
   -3.8971   -5.8573    0.0000 C   0  0  0  0  0  0  0  0  0  0  0  0
   -3.8971   -7.3573    0.0000 C   0  0  0  0  0  0  0  0  0  0  0  0
   -2.5981   -8.1073    0.0000 C   0  0  0  0  0  0  0  0  0  0  0  0
   -1.2990   -7.3573    0.0000 C   0  0  0  0  0  0  0  0  0  0  0  0
    1.2135   -2.7256    0.0000 N   0  0  0  0  0  0  0  0  0  0  0  0
    0.7500   -1.2990    0.0000 C   0  0  0  0  0  0  0  0  0  0  0  0
    1.5000    0.0000    0.0000 C   0  0  0  0  0  0  0  0  0  0  0  0
    0.7500    1.2990    0.0000 C   0  0  0  0  0  0  0  0  0  0  0  0
    1.5000    2.5981    0.0000 C   0  0  0  0  0  0  0  0  0  0  0  0
    2.2500    3.8971    0.0000 F   0  0  0  0  0  0  0  0  0  0  0  0
    2.7990    1.8481    0.0000 F   0  0  0  0  0  0  0  0  0  0  0  0
    0.2010    3.3481    0.0000 F   0  0  0  0  0  0  0  0  0  0  0  0
   -0.7500    1.2990    0.0000 C   0  0  0  0  0  0  0  0  0  0  0  0
   -1.5000    0.0000    0.0000 C   0  0  0  0  0  0  0  0  0  0  0  0
   -0.7500   -1.2990    0.0000 C   0  0  0  0  0  0  0  0  0  0  0  0
  1  2  1  0
  2  3  1  0
  3  4  1  0
  4  5  1  0
  3  6  1  0
  6  7  1  0
  7  8  1  0
  8  9  1  0
  9 10  1  0
 10 11  1  0
 11 12  1  6
 12 13  1  0
 13 14  2  0
 14 15  1  0
 15 16  2  0
 16 17  1  0
 17 18  2  0
 11 19  1  0
 19 20  2  0
 20 21  1  0
 21 22  2  0
 22 23  1  0
 23 24  2  0
 10 25  2  0
 25 26  1  0
 26 27  2  0
 27 28  1  0
 28 29  1  0
 29 30  1  0
 29 31  1  0
 29 32  1  0
 28 33  2  0
 33 34  1  0
 34 35  2  0
 35  9  1  0
 18 13  1  0
 24 19  1  0
 35 26  1  0
M  CHG  1   3   1
M  END
>  <Compound_ID>  (716) 
C40403584

>  <Active>  (716) 
0.0

>  <Smiles>  (716) 
CC[NH+](CC)CCCn1c([C@H](Sc2ccccc2)c2ccccc2)nc2cc(C(F)(F)F)ccc21

>  <canonical_smi>  (716) 
CC[NH+](CC)CCCn1c([C@H](Sc2ccccc2)c2ccccc2)nc2cc(C(F)(F)F)ccc21

>  <Set>  (716) 
G2 inactive

>  <Set_type>  (716) 
Train

>  <MW>  (716) 
498.64

>  <HBD>  (716) 
1

>  <HBA>  (716) 
2

>  <NRB>  (716) 
10

>  <NR>  (716) 
4

>  <NAR>  (716) 
4

>  <PSA>  (716) 
22.26

>  <Standard Type>  (716) 
nan

>  <Standard Relation>  (716) 
nan

>  <Standard Units>  (716) 
nan

>  <Standard Value>  (716) 
nan

>  <Assay ChEMBL ID>  (716) 
nan

>  <Assay Description>  (716) 
nan

>  <BAO Label>  (716) 
nan

$$$$

     RDKit          2D

 20 21  0  0  0  0  0  0  0  0999 V2000
    5.2500    1.2990    0.0000 C   0  0  0  0  0  0  0  0  0  0  0  0
    3.7500    1.2990    0.0000 C   0  0  0  0  0  0  0  0  0  0  0  0
    3.0000    0.0000    0.0000 C   0  0  0  0  0  0  0  0  0  0  0  0
    3.7500   -1.2990    0.0000 C   0  0  0  0  0  0  0  0  0  0  0  0
    1.5000    0.0000    0.0000 N   0  0  0  0  0  4  0  0  0  0  0  0
    0.7500   -1.2990    0.0000 C   0  0  0  0  0  0  0  0  0  0  0  0
   -0.7500   -1.2990    0.0000 C   0  0  0  0  0  0  0  0  0  0  0  0
   -1.5000    0.0000    0.0000 N   0  0  0  0  0  0  0  0  0  0  0  0
   -3.0000    0.0000    0.0000 C   0  0  0  0  0  0  0  0  0  0  0  0
   -3.7500    1.2990    0.0000 C   0  0  0  0  0  0  0  0  0  0  0  0
   -5.2500    1.2990    0.0000 N   0  0  0  0  0  4  0  0  0  0  0  0
   -3.7500   -1.2990    0.0000 C   0  0  0  0  0  0  0  0  0  0  0  0
   -3.1399   -2.6694    0.0000 C   0  0  0  0  0  0  0  0  0  0  0  0
   -4.2546   -3.6731    0.0000 C   0  0  0  0  0  0  0  0  0  0  0  0
   -4.0978   -5.1648    0.0000 Br  0  0  0  0  0  0  0  0  0  0  0  0
   -5.5537   -2.9231    0.0000 C   0  0  0  0  0  0  0  0  0  0  0  0
   -6.9240   -3.5332    0.0000 Br  0  0  0  0  0  0  0  0  0  0  0  0
   -5.2418   -1.4558    0.0000 O   0  0  0  0  0  0  0  0  0  0  0  0
   -0.7500    1.2990    0.0000 C   0  0  0  0  0  0  0  0  0  0  0  0
    0.7500    1.2990    0.0000 C   0  0  0  0  0  0  0  0  0  0  0  0
  1  2  1  0
  2  3  1  0
  3  4  1  6
  3  5  1  0
  5  6  1  0
  6  7  1  0
  7  8  1  0
  8  9  1  0
  9 10  1  1
 10 11  1  0
  9 12  1  0
 12 13  2  0
 13 14  1  0
 14 15  1  0
 14 16  2  0
 16 17  1  0
 16 18  1  0
  8 19  1  0
 19 20  1  0
 20  5  1  0
 18 12  1  0
M  CHG  2   5   1  11   1
M  END
>  <Compound_ID>  (717) 
C55064374

>  <Active>  (717) 
0.0

>  <Smiles>  (717) 
CC[C@H](C)[NH+]1CCN([C@H](C[NH3+])c2cc(Br)c(Br)o2)CC1

>  <canonical_smi>  (717) 
CC[C@H](C)[NH+]1CCN([C@H](C[NH3+])c2cc(Br)c(Br)o2)CC1

>  <Set>  (717) 
G2 inactive

>  <Set_type>  (717) 
Train

>  <MW>  (717) 
411.18

>  <HBD>  (717) 
2

>  <HBA>  (717) 
2

>  <NRB>  (717) 
5

>  <NR>  (717) 
2

>  <NAR>  (717) 
1

>  <PSA>  (717) 
48.46

>  <Standard Type>  (717) 
nan

>  <Standard Relation>  (717) 
nan

>  <Standard Units>  (717) 
nan

>  <Standard Value>  (717) 
nan

>  <Assay ChEMBL ID>  (717) 
nan

>  <Assay Description>  (717) 
nan

>  <BAO Label>  (717) 
nan

$$$$

     RDKit          2D

 38 41  0  0  0  0  0  0  0  0999 V2000
   -3.0000   -5.1962    0.0000 C   0  0  0  0  0  0  0  0  0  0  0  0
   -1.5000   -5.1962    0.0000 O   0  0  0  0  0  0  0  0  0  0  0  0
   -0.7500   -3.8971    0.0000 C   0  0  0  0  0  0  0  0  0  0  0  0
    0.7500   -3.8971    0.0000 C   0  0  0  0  0  0  0  0  0  0  0  0
    1.5000   -2.5981    0.0000 C   0  0  0  0  0  0  0  0  0  0  0  0
    3.0000   -2.5981    0.0000 N   0  0  0  0  0  0  0  0  0  0  0  0
    3.7500   -3.8971    0.0000 C   0  0  0  0  0  0  0  0  0  0  0  0
    5.2500   -3.8971    0.0000 C   0  0  0  0  0  0  0  0  0  0  0  0
    3.0000   -5.1962    0.0000 C   0  0  0  0  0  0  0  0  0  0  0  0
    3.7500   -6.4952    0.0000 C   0  0  0  0  0  0  0  0  0  0  0  0
    3.0000   -7.7942    0.0000 C   0  0  0  0  0  0  0  0  0  0  0  0
    3.7500   -9.0933    0.0000 N   0  0  0  0  0  0  0  0  0  0  0  0
    3.0000  -10.3923    0.0000 C   0  0  0  0  0  0  0  0  0  0  0  0
    3.7500  -11.6913    0.0000 C   0  0  0  0  0  0  0  0  0  0  0  0
    3.0000  -12.9904    0.0000 C   0  0  0  0  0  0  0  0  0  0  0  0
    3.7500  -14.2894    0.0000 C   0  0  0  0  0  0  0  0  0  0  0  0
    5.2500  -14.2894    0.0000 C   0  0  0  0  0  0  0  0  0  0  0  0
    6.0000  -15.5885    0.0000 F   0  0  0  0  0  0  0  0  0  0  0  0
    6.0000  -12.9904    0.0000 C   0  0  0  0  0  0  0  0  0  0  0  0
    5.2500  -11.6913    0.0000 C   0  0  0  0  0  0  0  0  0  0  0  0
    5.2500   -9.0933    0.0000 C   0  0  0  0  0  0  0  0  0  0  0  0
    6.0000   -7.7942    0.0000 O   0  0  0  0  0  0  0  0  0  0  0  0
    6.0000  -10.3923    0.0000 N   0  0  0  0  0  0  0  0  0  0  0  0
    7.5000  -10.3923    0.0000 C   0  0  0  0  0  0  0  0  0  0  0  0
    8.2500  -11.6913    0.0000 C   0  0  0  0  0  0  0  0  0  0  0  0
    9.7500  -11.6913    0.0000 C   0  0  0  0  0  0  0  0  0  0  0  0
   10.5000  -10.3923    0.0000 C   0  0  0  0  0  0  0  0  0  0  0  0
   12.0000  -10.3923    0.0000 F   0  0  0  0  0  0  0  0  0  0  0  0
    9.7500   -9.0933    0.0000 C   0  0  0  0  0  0  0  0  0  0  0  0
    8.2500   -9.0933    0.0000 C   0  0  0  0  0  0  0  0  0  0  0  0
    7.5000   -7.7942    0.0000 F   0  0  0  0  0  0  0  0  0  0  0  0
    0.7500   -1.2990    0.0000 C   0  0  0  0  0  0  0  0  0  0  0  0
    1.5000    0.0000    0.0000 N   0  0  0  0  0  0  0  0  0  0  0  0
    0.7500    1.2990    0.0000 C   0  0  0  0  0  0  0  0  0  0  0  0
   -0.7500    1.2990    0.0000 C   0  0  0  0  0  0  0  0  0  0  0  0
   -1.5000    0.0000    0.0000 C   0  0  0  0  0  0  0  0  0  0  0  0
   -0.7500   -1.2990    0.0000 C   0  0  0  0  0  0  0  0  0  0  0  0
   -1.5000   -2.5981    0.0000 C   0  0  0  0  0  0  0  0  0  0  0  0
  1  2  1  0
  2  3  1  0
  3  4  2  0
  4  5  1  0
  5  6  1  0
  6  7  1  0
  7  8  1  1
  7  9  1  0
  9 10  1  0
 10 11  1  0
 11 12  1  0
 12 13  1  0
 13 14  1  0
 14 15  2  0
 15 16  1  0
 16 17  2  0
 17 18  1  0
 17 19  1  0
 19 20  2  0
 12 21  1  0
 21 22  2  0
 21 23  1  0
 23 24  1  0
 24 25  2  0
 25 26  1  0
 26 27  2  0
 27 28  1  0
 27 29  1  0
 29 30  2  0
 30 31  1  0
  5 32  2  0
 32 33  1  0
 33 34  2  0
 34 35  1  0
 35 36  2  0
 36 37  1  0
 37 38  2  0
 38  3  1  0
 20 14  1  0
 30 24  1  0
 37 32  1  0
M  END
>  <Compound_ID>  (718) 
C35003062

>  <Active>  (718) 
0.0

>  <Smiles>  (718) 
COc1cc(N[C@@H](C)CCCN(Cc2ccc(F)cc2)C(=O)Nc2ccc(F)cc2F)c2ncccc2c1

>  <canonical_smi>  (718) 
COc1cc(N[C@@H](C)CCCN(Cc2ccc(F)cc2)C(=O)Nc2ccc(F)cc2F)c2ncccc2c1

>  <Set>  (718) 
G2 inactive

>  <Set_type>  (718) 
Train

>  <MW>  (718) 
522.57

>  <HBD>  (718) 
2

>  <HBA>  (718) 
4

>  <NRB>  (718) 
10

>  <NR>  (718) 
4

>  <NAR>  (718) 
4

>  <PSA>  (718) 
66.49

>  <Standard Type>  (718) 
nan

>  <Standard Relation>  (718) 
nan

>  <Standard Units>  (718) 
nan

>  <Standard Value>  (718) 
nan

>  <Assay ChEMBL ID>  (718) 
nan

>  <Assay Description>  (718) 
nan

>  <BAO Label>  (718) 
nan

$$$$

     RDKit          2D

 27 29  0  0  0  0  0  0  0  0999 V2000
    5.2500   -1.2990    0.0000 C   0  0  0  0  0  0  0  0  0  0  0  0
    3.7500   -1.2990    0.0000 C   0  0  0  0  0  0  0  0  0  0  0  0
    3.0000   -2.5981    0.0000 C   0  0  0  0  0  0  0  0  0  0  0  0
    3.0000    0.0000    0.0000 C   0  0  0  0  0  0  0  0  0  0  0  0
    1.5000    0.0000    0.0000 C   0  0  0  0  0  0  0  0  0  0  0  0
    0.7500   -1.2990    0.0000 C   0  0  0  0  0  0  0  0  0  0  0  0
   -0.7500   -1.2990    0.0000 C   0  0  0  0  0  0  0  0  0  0  0  0
   -1.5000    0.0000    0.0000 C   0  0  0  0  0  0  0  0  0  0  0  0
   -3.0000    0.0000    0.0000 C   0  0  0  0  0  0  0  0  0  0  0  0
   -3.7500    1.2990    0.0000 C   0  0  0  0  0  0  0  0  0  0  0  0
   -5.2500    1.2990    0.0000 N   0  0  0  0  0  0  0  0  0  0  0  0
   -6.0000    2.5981    0.0000 O   0  0  0  0  0  0  0  0  0  0  0  0
   -3.7500   -1.2990    0.0000 N   0  0  0  0  0  0  0  0  0  0  0  0
   -5.2500   -1.2990    0.0000 C   0  0  0  0  0  0  0  0  0  0  0  0
   -6.0000   -2.5981    0.0000 C   0  0  0  0  0  0  0  0  0  0  0  0
   -5.2500   -3.8971    0.0000 N   0  0  0  0  0  4  0  0  0  0  0  0
   -3.7500   -3.8971    0.0000 C   0  0  0  0  0  0  0  0  0  0  0  0
   -3.0000   -5.1962    0.0000 C   0  0  0  0  0  0  0  0  0  0  0  0
   -3.7500   -6.4952    0.0000 C   0  0  0  0  0  0  0  0  0  0  0  0
   -3.0000   -7.7942    0.0000 C   0  0  0  0  0  0  0  0  0  0  0  0
   -1.5000   -7.7942    0.0000 C   0  0  0  0  0  0  0  0  0  0  0  0
   -0.7500   -6.4952    0.0000 C   0  0  0  0  0  0  0  0  0  0  0  0
   -1.5000   -5.1962    0.0000 C   0  0  0  0  0  0  0  0  0  0  0  0
   -0.7500   -3.8971    0.0000 O   0  0  0  0  0  0  0  0  0  0  0  0
   -3.0000   -2.5981    0.0000 C   0  0  0  0  0  0  0  0  0  0  0  0
   -0.7500    1.2990    0.0000 C   0  0  0  0  0  0  0  0  0  0  0  0
    0.7500    1.2990    0.0000 C   0  0  0  0  0  0  0  0  0  0  0  0
  1  2  1  0
  2  3  1  0
  2  4  1  0
  4  5  1  0
  5  6  2  0
  6  7  1  0
  7  8  2  0
  8  9  1  0
  9 10  1  6
 10 11  1  0
 11 12  1  0
  9 13  1  0
 13 14  1  0
 14 15  1  0
 15 16  1  0
 16 17  1  0
 17 18  1  1
 18 19  2  0
 19 20  1  0
 20 21  2  0
 21 22  1  0
 22 23  2  0
 23 24  1  0
 17 25  1  0
  8 26  1  0
 26 27  2  0
 27  5  1  0
 25 13  1  0
 23 18  1  0
M  CHG  1  16   1
M  END
>  <Compound_ID>  (719) 
C39533334

>  <Active>  (719) 
0.0

>  <Smiles>  (719) 
CC(C)Cc1ccc([C@@H](CNO)N2CC[NH2+][C@H](c3ccccc3O)C2)cc1

>  <canonical_smi>  (719) 
CC(C)Cc1ccc([C@@H](CNO)N2CC[NH2+][C@H](c3ccccc3O)C2)cc1

>  <Set>  (719) 
G2 inactive

>  <Set_type>  (719) 
Train

>  <MW>  (719) 
370.52

>  <HBD>  (719) 
4

>  <HBA>  (719) 
4

>  <NRB>  (719) 
7

>  <NR>  (719) 
3

>  <NAR>  (719) 
2

>  <PSA>  (719) 
72.34

>  <Standard Type>  (719) 
nan

>  <Standard Relation>  (719) 
nan

>  <Standard Units>  (719) 
nan

>  <Standard Value>  (719) 
nan

>  <Assay ChEMBL ID>  (719) 
nan

>  <Assay Description>  (719) 
nan

>  <BAO Label>  (719) 
nan

$$$$

     RDKit          2D

 21 22  0  0  0  0  0  0  0  0999 V2000
    6.0000   -5.1962    0.0000 C   0  0  0  0  0  0  0  0  0  0  0  0
    5.2500   -3.8971    0.0000 C   0  0  0  0  0  0  0  0  0  0  0  0
    3.7500   -3.8971    0.0000 C   0  0  0  0  0  0  0  0  0  0  0  0
    3.0000   -5.1962    0.0000 N   0  0  0  0  0  0  0  0  0  0  0  0
    3.0000   -2.5981    0.0000 C   0  0  0  0  0  0  0  0  0  0  0  0
    3.7500   -1.2990    0.0000 C   0  0  0  0  0  0  0  0  0  0  0  0
    3.1399    0.0713    0.0000 C   0  0  0  0  0  0  0  0  0  0  0  0
    4.2546    1.0750    0.0000 C   0  0  0  0  0  0  0  0  0  0  0  0
    5.5537    0.3250    0.0000 C   0  0  0  0  0  0  0  0  0  0  0  0
    6.9240    0.9351    0.0000 Br  0  0  0  0  0  0  0  0  0  0  0  0
    5.2418   -1.1422    0.0000 S   0  0  0  0  0  0  0  0  0  0  0  0
    1.5000   -2.5981    0.0000 N   0  0  0  0  0  4  0  0  0  0  0  0
    0.7500   -3.8971    0.0000 C   0  0  0  0  0  0  0  0  0  0  0  0
    1.5000   -5.1962    0.0000 C   0  0  0  0  0  0  0  0  0  0  0  0
    0.7500   -6.4952    0.0000 O   0  0  0  0  0  0  0  0  0  0  0  0
    0.7500   -1.2990    0.0000 C   0  0  0  0  0  0  0  0  0  0  0  0
    1.5000    0.0000    0.0000 C   0  0  0  0  0  0  0  0  0  0  0  0
    0.7500    1.2990    0.0000 C   0  0  0  0  0  0  0  0  0  0  0  0
   -0.7500    1.2990    0.0000 C   0  0  0  0  0  0  0  0  0  0  0  0
   -1.5000    0.0000    0.0000 C   0  0  0  0  0  0  0  0  0  0  0  0
   -0.7500   -1.2990    0.0000 C   0  0  0  0  0  0  0  0  0  0  0  0
  1  2  1  0
  2  3  1  0
  3  4  1  1
  3  5  1  0
  5  6  1  0
  6  7  2  0
  7  8  1  0
  8  9  2  0
  9 10  1  0
  9 11  1  0
  5 12  1  1
 12 13  1  0
 13 14  1  0
 14 15  1  0
 12 16  1  0
 16 17  1  0
 17 18  1  0
 18 19  1  0
 19 20  1  0
 20 21  1  0
 11  6  1  0
 21 16  1  0
M  CHG  1  12   1
M  END
>  <Compound_ID>  (720) 
C43262815

>  <Active>  (720) 
0.0

>  <Smiles>  (720) 
CC[C@@H](N)[C@H](c1ccc(Br)s1)[NH+](CCO)C1CCCCC1

>  <canonical_smi>  (720) 
CC[C@@H](N)[C@H](c1ccc(Br)s1)[NH+](CCO)C1CCCCC1

>  <Set>  (720) 
G2 inactive

>  <Set_type>  (720) 
Train

>  <MW>  (720) 
376.38

>  <HBD>  (720) 
3

>  <HBA>  (720) 
2

>  <NRB>  (720) 
7

>  <NR>  (720) 
2

>  <NAR>  (720) 
1

>  <PSA>  (720) 
50.69

>  <Standard Type>  (720) 
nan

>  <Standard Relation>  (720) 
nan

>  <Standard Units>  (720) 
nan

>  <Standard Value>  (720) 
nan

>  <Assay ChEMBL ID>  (720) 
nan

>  <Assay Description>  (720) 
nan

>  <BAO Label>  (720) 
nan

$$$$

     RDKit          2D

 27 30  0  0  0  0  0  0  0  0999 V2000
    0.4022   -7.7629    0.0000 N   0  0  0  0  0  0  0  0  0  0  0  0
    0.2454   -6.2711    0.0000 C   0  0  0  0  0  0  0  0  0  0  0  0
    1.3601   -5.2674    0.0000 N   0  0  0  0  0  4  0  0  0  0  0  0
    0.7500   -3.8971    0.0000 C   0  0  0  0  0  0  0  0  0  0  0  0
    1.5000   -2.5981    0.0000 C   0  0  0  0  0  0  0  0  0  0  0  0
    0.7500   -1.2990    0.0000 O   0  0  0  0  0  0  0  0  0  0  0  0
    3.0000   -2.5981    0.0000 C   0  0  0  0  0  0  0  0  0  0  0  0
    3.7500   -1.2990    0.0000 C   0  0  0  0  0  0  0  0  0  0  0  0
    5.2500   -1.2990    0.0000 C   0  0  0  0  0  0  0  0  0  0  0  0
    6.0000   -2.5981    0.0000 C   0  0  0  0  0  0  0  0  0  0  0  0
    5.2500   -3.8971    0.0000 C   0  0  0  0  0  0  0  0  0  0  0  0
    3.7500   -3.8971    0.0000 C   0  0  0  0  0  0  0  0  0  0  0  0
   -0.7418   -4.0539    0.0000 C   0  0  0  0  0  0  0  0  0  0  0  0
   -1.7455   -2.9392    0.0000 C   0  0  0  0  0  0  0  0  0  0  0  0
   -3.2127   -3.2511    0.0000 C   0  0  0  0  0  0  0  0  0  0  0  0
   -4.2164   -2.1363    0.0000 C   0  0  0  0  0  0  0  0  0  0  0  0
   -3.7529   -0.7098    0.0000 C   0  0  0  0  0  0  0  0  0  0  0  0
   -4.7566    0.4050    0.0000 C   0  0  0  0  0  0  0  0  0  0  0  0
   -6.2238    0.0931    0.0000 C   0  0  0  0  0  0  0  0  0  0  0  0
   -6.6873   -1.3335    0.0000 C   0  0  0  0  0  0  0  0  0  0  0  0
   -8.1545   -1.6454    0.0000 C   0  0  0  0  0  0  0  0  0  0  0  0
   -9.1582   -0.5306    0.0000 C   0  0  0  0  0  0  0  0  0  0  0  0
   -8.6947    0.8959    0.0000 C   0  0  0  0  0  0  0  0  0  0  0  0
   -7.2275    1.2078    0.0000 C   0  0  0  0  0  0  0  0  0  0  0  0
   -2.2856   -0.3979    0.0000 C   0  0  0  0  0  0  0  0  0  0  0  0
   -1.2820   -1.5126    0.0000 C   0  0  0  0  0  0  0  0  0  0  0  0
   -1.0537   -5.5211    0.0000 S   0  0  0  0  0  0  0  0  0  0  0  0
  1  2  1  0
  2  3  2  0
  4  3  1  1
  4  5  1  0
  5  6  1  6
  5  7  1  0
  7  8  2  0
  8  9  1  0
  9 10  2  0
 10 11  1  0
 11 12  2  0
  4 13  1  0
 13 14  1  1
 14 15  2  0
 15 16  1  0
 16 17  2  0
 17 18  1  0
 18 19  1  0
 19 20  2  0
 20 21  1  0
 21 22  2  0
 22 23  1  0
 23 24  2  0
 17 25  1  0
 25 26  2  0
 13 27  1  0
 27  2  1  0
 12  7  1  0
 26 14  1  0
 24 19  1  0
M  CHG  1   3   1
M  END
>  <Compound_ID>  (721) 
C59500962

>  <Active>  (721) 
0.0

>  <Smiles>  (721) 
NC1=[NH+][C@H]([C@H](O)c2ccccc2)[C@H](c2ccc(Cc3ccccc3)cc2)S1

>  <canonical_smi>  (721) 
NC1=[NH+][C@H]([C@H](O)c2ccccc2)[C@H](c2ccc(Cc3ccccc3)cc2)S1

>  <Set>  (721) 
G2 inactive

>  <Set_type>  (721) 
Train

>  <MW>  (721) 
375.52

>  <HBD>  (721) 
3

>  <HBA>  (721) 
3

>  <NRB>  (721) 
5

>  <NR>  (721) 
4

>  <NAR>  (721) 
3

>  <PSA>  (721) 
60.22

>  <Standard Type>  (721) 
nan

>  <Standard Relation>  (721) 
nan

>  <Standard Units>  (721) 
nan

>  <Standard Value>  (721) 
nan

>  <Assay ChEMBL ID>  (721) 
nan

>  <Assay Description>  (721) 
nan

>  <BAO Label>  (721) 
nan

$$$$

     RDKit          2D

 19 20  0  0  0  0  0  0  0  0999 V2000
    0.4022   -7.7629    0.0000 C   0  0  0  0  0  0  0  0  0  0  0  0
    0.2454   -6.2711    0.0000 C   0  0  0  0  0  0  0  0  0  0  0  0
    1.3601   -5.2674    0.0000 C   0  0  0  0  0  0  0  0  0  0  0  0
    0.7500   -3.8971    0.0000 C   0  0  0  0  0  0  0  0  0  0  0  0
    1.5000   -2.5981    0.0000 S   0  0  0  0  0  0  0  0  0  0  0  0
    0.7500   -1.2990    0.0000 C   0  0  0  0  0  0  0  0  0  0  0  0
    1.5000    0.0000    0.0000 C   0  0  0  0  0  0  0  0  0  0  0  0
    0.7500    1.2990    0.0000 C   0  0  0  0  0  0  0  0  0  0  0  0
   -0.7500    1.2990    0.0000 C   0  0  0  0  0  0  0  0  0  0  0  0
   -1.5000    2.5981    0.0000 C   0  0  0  0  0  0  0  0  0  0  0  0
   -0.7500    3.8971    0.0000 N   0  0  0  0  0  0  0  0  0  0  0  0
   -3.0000    2.5981    0.0000 N   0  0  0  0  0  0  0  0  0  0  0  0
   -3.7500    3.8971    0.0000 O   0  0  0  0  0  0  0  0  0  0  0  0
   -1.5000    0.0000    0.0000 C   0  0  0  0  0  0  0  0  0  0  0  0
   -3.0000    0.0000    0.0000 Cl  0  0  0  0  0  0  0  0  0  0  0  0
   -0.7500   -1.2990    0.0000 C   0  0  0  0  0  0  0  0  0  0  0  0
   -0.7418   -4.0539    0.0000 N   0  0  0  0  0  0  0  0  0  0  0  0
   -1.7455   -2.9392    0.0000 C   0  0  0  0  0  0  0  0  0  0  0  0
   -1.0537   -5.5211    0.0000 N   0  0  0  0  0  0  0  0  0  0  0  0
  1  2  1  0
  2  3  1  0
  3  4  2  0
  4  5  1  0
  5  6  1  0
  6  7  2  0
  7  8  1  0
  8  9  2  0
  9 10  1  0
 10 11  1  0
 10 12  2  0
 12 13  1  0
  9 14  1  0
 14 15  1  0
 14 16  2  0
  4 17  1  0
 17 18  1  0
 17 19  1  0
 19  2  2  0
 16  6  1  0
M  END
>  <Compound_ID>  (722) 
C61856652

>  <Active>  (722) 
0.0

>  <Smiles>  (722) 
Cc1cc(Sc2ccc(/C(N)=N/O)c(Cl)c2)n(C)n1

>  <canonical_smi>  (722) 
Cc1cc(Sc2ccc(/C(N)=N/O)c(Cl)c2)n(C)n1

>  <Set>  (722) 
G2 inactive

>  <Set_type>  (722) 
Train

>  <MW>  (722) 
296.78

>  <HBD>  (722) 
2

>  <HBA>  (722) 
4

>  <NRB>  (722) 
3

>  <NR>  (722) 
2

>  <NAR>  (722) 
2

>  <PSA>  (722) 
76.43

>  <Standard Type>  (722) 
nan

>  <Standard Relation>  (722) 
nan

>  <Standard Units>  (722) 
nan

>  <Standard Value>  (722) 
nan

>  <Assay ChEMBL ID>  (722) 
nan

>  <Assay Description>  (722) 
nan

>  <BAO Label>  (722) 
nan

$$$$

     RDKit          2D

 27 29  0  0  0  0  0  0  0  0999 V2000
    2.0490   -7.2452    0.0000 C   0  0  0  0  0  0  0  0  0  0  0  0
    0.7500   -6.4952    0.0000 C   0  0  0  0  0  0  0  0  0  0  0  0
   -0.5490   -5.7452    0.0000 C   0  0  0  0  0  0  0  0  0  0  0  0
   -0.0000   -7.7942    0.0000 C   0  0  0  0  0  0  0  0  0  0  0  0
    1.5000   -5.1962    0.0000 C   0  0  0  0  0  0  0  0  0  0  0  0
    0.7500   -3.8971    0.0000 C   0  0  0  0  0  0  0  0  0  0  0  0
    1.5000   -2.5981    0.0000 C   0  0  0  0  0  0  0  0  0  0  0  0
    0.7500   -1.2990    0.0000 C   0  0  0  0  0  0  0  0  0  0  0  0
    1.5000    0.0000    0.0000 C   0  0  0  0  0  0  0  0  0  0  0  0
    0.7500    1.2990    0.0000 C   0  0  0  0  0  0  0  0  0  0  0  0
   -0.7500    1.2990    0.0000 C   0  0  0  0  0  0  0  0  0  0  0  0
   -1.5000    2.5981    0.0000 Cl  0  0  0  0  0  0  0  0  0  0  0  0
   -1.5000    0.0000    0.0000 C   0  0  0  0  0  0  0  0  0  0  0  0
   -0.7500   -1.2990    0.0000 C   0  0  0  0  0  0  0  0  0  0  0  0
   -1.5000   -2.5981    0.0000 Cl  0  0  0  0  0  0  0  0  0  0  0  0
    3.0000   -5.1962    0.0000 N   0  0  0  0  0  0  0  0  0  0  0  0
    3.8817   -6.4097    0.0000 N   0  0  0  0  0  0  0  0  0  0  0  0
    5.3083   -5.9462    0.0000 N   0  0  0  0  0  0  0  0  0  0  0  0
    5.3083   -4.4462    0.0000 N   0  0  0  0  0  0  0  0  0  0  0  0
    3.8817   -3.9826    0.0000 C   0  0  0  0  0  0  0  0  0  0  0  0
    3.4182   -2.5560    0.0000 C   0  0  0  0  0  0  0  0  0  0  0  0
    2.0937   -3.2602    0.0000 N   0  0  0  0  0  4  0  0  0  0  0  0
    4.9036   -2.3473    0.0000 C   0  0  0  0  0  0  0  0  0  0  0  0
    5.4655   -0.9565    0.0000 C   0  0  0  0  0  0  0  0  0  0  0  0
    4.5420    0.2255    0.0000 C   0  0  0  0  0  0  0  0  0  0  0  0
    3.0566    0.0167    0.0000 C   0  0  0  0  0  0  0  0  0  0  0  0
    2.4947   -1.3740    0.0000 C   0  0  0  0  0  0  0  0  0  0  0  0
  1  2  1  0
  2  3  1  0
  2  4  1  0
  5  2  1  1
  5  6  1  0
  6  7  2  0
  7  8  1  0
  8  9  2  0
  9 10  1  0
 10 11  2  0
 11 12  1  0
 11 13  1  0
 13 14  2  0
 14 15  1  0
  5 16  1  0
 16 17  1  0
 17 18  2  0
 18 19  1  0
 19 20  2  0
 20 21  1  0
 21 22  1  0
 21 23  1  0
 23 24  1  0
 24 25  1  0
 25 26  1  0
 26 27  1  0
 14  8  1  0
 20 16  1  0
 27 21  1  0
M  CHG  1  22   1
M  END
>  <Compound_ID>  (723) 
C03097886

>  <Active>  (723) 
0.0

>  <Smiles>  (723) 
CC(C)(C)[C@@H](/C=C/c1ccc(Cl)cc1Cl)n1nnnc1C1([NH3+])CCCCC1

>  <canonical_smi>  (723) 
CC(C)(C)[C@@H](/C=C/c1ccc(Cl)cc1Cl)n1nnnc1C1([NH3+])CCCCC1

>  <Set>  (723) 
G2 inactive

>  <Set_type>  (723) 
Train

>  <MW>  (723) 
409.39

>  <HBD>  (723) 
1

>  <HBA>  (723) 
3

>  <NRB>  (723) 
4

>  <NR>  (723) 
3

>  <NAR>  (723) 
2

>  <PSA>  (723) 
71.24

>  <Standard Type>  (723) 
nan

>  <Standard Relation>  (723) 
nan

>  <Standard Units>  (723) 
nan

>  <Standard Value>  (723) 
nan

>  <Assay ChEMBL ID>  (723) 
nan

>  <Assay Description>  (723) 
nan

>  <BAO Label>  (723) 
nan

$$$$

     RDKit          2D

 30 33  0  0  0  0  0  0  0  0999 V2000
    3.0000    0.0000    0.0000 C   0  0  0  0  0  0  0  0  0  0  0  0
    1.5000    0.0000    0.0000 C   0  0  0  0  0  0  0  0  0  0  0  0
    0.7500   -1.2990    0.0000 C   0  0  0  0  0  0  0  0  0  0  0  0
   -0.7500   -1.2990    0.0000 C   0  0  0  0  0  0  0  0  0  0  0  0
   -1.5000   -2.5981    0.0000 O   0  0  0  0  0  0  0  0  0  0  0  0
   -1.5000    0.0000    0.0000 N   0  0  0  0  0  0  0  0  0  0  0  0
   -0.7500    1.2990    0.0000 C   0  0  0  0  0  0  0  0  0  0  0  0
    0.7500    1.2990    0.0000 N   0  0  0  0  0  0  0  0  0  0  0  0
   -1.5000    2.5981    0.0000 N   0  0  0  0  0  0  0  0  0  0  0  0
   -3.0000    2.5981    0.0000 C   0  0  0  0  0  0  0  0  0  0  0  0
   -3.7500    3.8971    0.0000 N   0  0  0  0  0  0  0  0  0  0  0  0
   -3.0000    5.1962    0.0000 C   0  0  0  0  0  0  0  0  0  0  0  0
   -1.5000    5.1962    0.0000 C   0  0  0  0  0  0  0  0  0  0  0  0
   -0.7500    6.4952    0.0000 C   0  0  0  0  0  0  0  0  0  0  0  0
   -1.5000    7.7942    0.0000 C   0  0  0  0  0  0  0  0  0  0  0  0
   -3.0000    7.7942    0.0000 C   0  0  0  0  0  0  0  0  0  0  0  0
   -3.7500    9.0933    0.0000 C   0  0  0  0  0  0  0  0  0  0  0  0
   -3.7500    6.4952    0.0000 C   0  0  0  0  0  0  0  0  0  0  0  0
   -5.2500    6.4952    0.0000 C   0  0  0  0  0  0  0  0  0  0  0  0
   -3.7500    1.2990    0.0000 N   0  0  0  0  0  4  0  0  0  0  0  0
   -3.0000    0.0000    0.0000 C   0  0  0  0  0  0  0  0  0  0  0  0
   -3.7500   -1.2990    0.0000 C   0  0  0  0  0  0  0  0  0  0  0  0
   -5.2500   -1.2990    0.0000 C   0  0  0  0  0  0  0  0  0  0  0  0
   -6.0000   -2.5981    0.0000 C   0  0  0  0  0  0  0  0  0  0  0  0
   -5.2500   -3.8971    0.0000 C   0  0  0  0  0  0  0  0  0  0  0  0
   -6.0000   -5.1962    0.0000 C   0  0  0  0  0  0  0  0  0  0  0  0
   -7.5000   -5.1962    0.0000 C   0  0  0  0  0  0  0  0  0  0  0  0
   -5.2500   -6.4952    0.0000 C   0  0  0  0  0  0  0  0  0  0  0  0
   -3.7500   -3.8971    0.0000 C   0  0  0  0  0  0  0  0  0  0  0  0
   -3.0000   -2.5981    0.0000 C   0  0  0  0  0  0  0  0  0  0  0  0
  1  2  1  0
  2  3  2  0
  3  4  1  0
  4  5  2  0
  4  6  1  0
  6  7  1  0
  7  8  2  0
  7  9  1  0
  9 10  1  0
 10 11  1  0
 11 12  1  0
 12 13  2  0
 13 14  1  0
 14 15  2  0
 15 16  1  0
 16 17  1  0
 16 18  2  0
 18 19  1  0
 10 20  2  0
 20 21  1  0
 21 22  1  1
 22 23  2  0
 23 24  1  0
 24 25  2  0
 25 26  1  0
 26 27  1  0
 26 28  1  0
 25 29  1  0
 29 30  2  0
  8  2  1  0
 18 12  1  0
 30 22  1  0
 21  6  1  0
M  CHG  1  20   1
M  END
>  <Compound_ID>  (724) 
C04748820

>  <Active>  (724) 
0.0

>  <Smiles>  (724) 
Cc1cc(=O)n2c(n1)NC(Nc1cccc(C)c1C)=[NH+][C@@H]2c1ccc(C(C)C)cc1

>  <canonical_smi>  (724) 
Cc1cc(=O)n2c(n1)NC(Nc1cccc(C)c1C)=[NH+][C@@H]2c1ccc(C(C)C)cc1

>  <Set>  (724) 
G2 inactive

>  <Set_type>  (724) 
Train

>  <MW>  (724) 
402.52

>  <HBD>  (724) 
3

>  <HBA>  (724) 
4

>  <NRB>  (724) 
3

>  <NR>  (724) 
4

>  <NAR>  (724) 
3

>  <PSA>  (724) 
72.92

>  <Standard Type>  (724) 
nan

>  <Standard Relation>  (724) 
nan

>  <Standard Units>  (724) 
nan

>  <Standard Value>  (724) 
nan

>  <Assay ChEMBL ID>  (724) 
nan

>  <Assay Description>  (724) 
nan

>  <BAO Label>  (724) 
nan

$$$$

     RDKit          2D

 28 31  0  0  0  0  0  0  0  0999 V2000
    3.0000    0.0000    0.0000 C   0  0  0  0  0  0  0  0  0  0  0  0
    1.5000    0.0000    0.0000 C   0  0  0  0  0  0  0  0  0  0  0  0
    0.7500   -1.2990    0.0000 C   0  0  0  0  0  0  0  0  0  0  0  0
   -0.7500   -1.2990    0.0000 C   0  0  0  0  0  0  0  0  0  0  0  0
   -1.5000   -2.5981    0.0000 C   0  0  0  0  0  0  0  0  0  0  0  0
   -1.5000    0.0000    0.0000 C   0  0  0  0  0  0  0  0  0  0  0  0
   -3.0000    0.0000    0.0000 C   0  0  0  0  0  0  0  0  0  0  0  0
   -3.7500   -1.2990    0.0000 O   0  0  0  0  0  0  0  0  0  0  0  0
   -3.7500    1.2990    0.0000 C   0  0  0  0  0  0  0  0  0  0  0  0
   -3.0000    2.5981    0.0000 C   0  0  0  0  0  0  0  0  0  0  0  0
   -3.7500    3.8971    0.0000 C   0  0  0  0  0  0  0  0  0  0  0  0
   -3.0000    5.1962    0.0000 S   0  0  0  0  0  0  0  0  0  0  0  0
   -3.7500    6.4952    0.0000 C   0  0  0  0  0  0  0  0  0  0  0  0
   -5.2418    6.6520    0.0000 N   0  0  0  0  0  0  0  0  0  0  0  0
   -5.5537    8.1192    0.0000 N   0  0  0  0  0  0  0  0  0  0  0  0
   -4.2546    8.8692    0.0000 C   0  0  0  0  0  0  0  0  0  0  0  0
   -4.0978   10.3610    0.0000 C   0  0  0  0  0  0  0  0  0  0  0  0
   -2.7275   10.9711    0.0000 C   0  0  0  0  0  0  0  0  0  0  0  0
   -2.5707   12.4629    0.0000 C   0  0  0  0  0  0  0  0  0  0  0  0
   -3.7842   13.3446    0.0000 C   0  0  0  0  0  0  0  0  0  0  0  0
   -5.1546   12.7344    0.0000 C   0  0  0  0  0  0  0  0  0  0  0  0
   -6.3681   13.6161    0.0000 F   0  0  0  0  0  0  0  0  0  0  0  0
   -5.3113   11.2427    0.0000 C   0  0  0  0  0  0  0  0  0  0  0  0
   -3.1399    7.8655    0.0000 N   0  0  0  0  0  0  0  0  0  0  0  0
   -1.6727    8.1774    0.0000 C   0  0  0  0  0  0  0  0  0  0  0  0
   -1.5000    2.5981    0.0000 N   0  0  0  0  0  0  0  0  0  0  0  0
   -0.7500    1.2990    0.0000 C   0  0  0  0  0  0  0  0  0  0  0  0
    0.7500    1.2990    0.0000 C   0  0  0  0  0  0  0  0  0  0  0  0
  1  2  1  0
  2  3  2  0
  3  4  1  0
  4  5  1  0
  4  6  2  0
  6  7  1  0
  7  8  2  0
  7  9  1  0
  9 10  2  0
 10 11  1  0
 11 12  1  0
 13 12  1  6
 13 14  1  0
 14 15  1  0
 15 16  1  0
 16 17  1  1
 17 18  2  0
 18 19  1  0
 19 20  2  0
 20 21  1  0
 21 22  1  0
 21 23  2  0
 16 24  1  0
 24 25  1  0
 10 26  1  0
 26 27  1  0
 27 28  2  0
 28  2  1  0
 27  6  1  0
 24 13  1  0
 23 17  1  0
M  END
>  <Compound_ID>  (725) 
C63686404

>  <Active>  (725) 
0.0

>  <Smiles>  (725) 
Cc1cc(C)c2c(=O)cc(CS[C@@H]3NN[C@@H](c4cccc(F)c4)N3C)[nH]c2c1

>  <canonical_smi>  (725) 
Cc1cc(C)c2c(=O)cc(CS[C@@H]3NN[C@@H](c4cccc(F)c4)N3C)[nH]c2c1

>  <Set>  (725) 
G2 inactive

>  <Set_type>  (725) 
Train

>  <MW>  (725) 
398.51

>  <HBD>  (725) 
3

>  <HBA>  (725) 
5

>  <NRB>  (725) 
4

>  <NR>  (725) 
4

>  <NAR>  (725) 
3

>  <PSA>  (725) 
60.16

>  <Standard Type>  (725) 
nan

>  <Standard Relation>  (725) 
nan

>  <Standard Units>  (725) 
nan

>  <Standard Value>  (725) 
nan

>  <Assay ChEMBL ID>  (725) 
nan

>  <Assay Description>  (725) 
nan

>  <BAO Label>  (725) 
nan

$$$$

     RDKit          2D

 27 29  0  0  0  0  0  0  0  0999 V2000
    5.2500    1.2990    0.0000 C   0  0  0  0  0  0  0  0  0  0  0  0
    3.7500    1.2990    0.0000 C   0  0  0  0  0  0  0  0  0  0  0  0
    3.0000    0.0000    0.0000 O   0  0  0  0  0  0  0  0  0  0  0  0
    1.5000    0.0000    0.0000 C   0  0  0  0  0  0  0  0  0  0  0  0
    0.7500   -1.2990    0.0000 C   0  0  0  0  0  0  0  0  0  0  0  0
    1.5000   -2.5981    0.0000 C   0  0  0  0  0  0  0  0  0  0  0  0
   -0.7500   -1.2990    0.0000 C   0  0  0  0  0  0  0  0  0  0  0  0
   -1.5000   -2.5981    0.0000 O   0  0  0  0  0  0  0  0  0  0  0  0
   -1.5000    0.0000    0.0000 C   0  0  0  0  0  0  0  0  0  0  0  0
   -3.0000    0.0000    0.0000 C   0  0  0  0  0  0  0  0  0  0  0  0
   -3.8817    1.2135    0.0000 N   0  0  0  0  0  0  0  0  0  0  0  0
   -5.3083    0.7500    0.0000 N   0  0  0  0  0  0  0  0  0  0  0  0
   -5.3083   -0.7500    0.0000 C   0  0  0  0  0  0  0  0  0  0  0  0
   -6.5218   -1.6317    0.0000 C   0  0  0  0  0  0  0  0  0  0  0  0
   -7.7353   -2.5134    0.0000 F   0  0  0  0  0  0  0  0  0  0  0  0
   -7.4035   -0.4182    0.0000 F   0  0  0  0  0  0  0  0  0  0  0  0
   -6.1122   -2.6456    0.0000 F   0  0  0  0  0  0  0  0  0  0  0  0
   -3.8817   -1.2135    0.0000 C   0  0  0  0  0  0  0  0  0  0  0  0
   -3.4182   -2.6401    0.0000 O   0  0  0  0  0  0  0  0  0  0  0  0
   -4.4218   -3.7548    0.0000 C   0  0  0  0  0  0  0  0  0  0  0  0
   -3.9583   -5.1814    0.0000 C   0  0  0  0  0  0  0  0  0  0  0  0
   -4.9620   -6.2961    0.0000 C   0  0  0  0  0  0  0  0  0  0  0  0
   -6.4292   -5.9843    0.0000 C   0  0  0  0  0  0  0  0  0  0  0  0
   -6.8928   -4.5577    0.0000 C   0  0  0  0  0  0  0  0  0  0  0  0
   -5.8891   -3.4430    0.0000 C   0  0  0  0  0  0  0  0  0  0  0  0
   -0.7500    1.2990    0.0000 C   0  0  0  0  0  0  0  0  0  0  0  0
    0.7500    1.2990    0.0000 C   0  0  0  0  0  0  0  0  0  0  0  0
  1  2  1  0
  2  3  1  0
  3  4  1  0
  4  5  2  0
  5  6  1  0
  5  7  1  0
  7  8  2  0
  7  9  1  0
  9 10  2  0
 10 11  1  0
 11 12  1  0
 12 13  1  0
 13 14  1  0
 14 15  1  0
 14 16  1  0
 14 17  1  0
 13 18  2  0
 18 19  1  0
 19 20  1  0
 20 21  2  0
 21 22  1  0
 22 23  2  0
 23 24  1  0
 24 25  2  0
  9 26  1  0
 26 27  2  0
 27  4  1  0
 18 10  1  0
 25 20  1  0
M  END
>  <Compound_ID>  (726) 
C01159136

>  <Active>  (726) 
0.0

>  <Smiles>  (726) 
CCOC1=C(C)C(=O)/C(=C2/NNC(C(F)(F)F)=C2Oc2ccccc2)C=C1

>  <canonical_smi>  (726) 
CCOC1=C(C)C(=O)/C(=C2/NNC(C(F)(F)F)=C2Oc2ccccc2)C=C1

>  <Set>  (726) 
G2 inactive

>  <Set_type>  (726) 
Train

>  <MW>  (726) 
378.35

>  <HBD>  (726) 
2

>  <HBA>  (726) 
5

>  <NRB>  (726) 
4

>  <NR>  (726) 
3

>  <NAR>  (726) 
1

>  <PSA>  (726) 
59.59

>  <Standard Type>  (726) 
nan

>  <Standard Relation>  (726) 
nan

>  <Standard Units>  (726) 
nan

>  <Standard Value>  (726) 
nan

>  <Assay ChEMBL ID>  (726) 
nan

>  <Assay Description>  (726) 
nan

>  <BAO Label>  (726) 
nan

$$$$

     RDKit          2D

 36 40  0  0  0  0  0  0  0  0999 V2000
    3.6420    2.5468    0.0000 C   0  0  0  0  0  0  0  0  0  0  0  0
    4.8148    1.6116    0.0000 N   0  0  0  0  0  4  0  0  0  0  0  0
    6.2111    2.1596    0.0000 C   0  0  0  0  0  0  0  0  0  0  0  0
    4.5912    0.1283    0.0000 C   0  0  0  0  0  0  0  0  0  0  0  0
    5.7639   -0.8069    0.0000 C   0  0  0  0  0  0  0  0  0  0  0  0
    5.5404   -2.2901    0.0000 O   0  0  0  0  0  0  0  0  0  0  0  0
    6.7131   -3.2254    0.0000 C   0  0  0  0  0  0  0  0  0  0  0  0
    8.1094   -2.6774    0.0000 C   0  0  0  0  0  0  0  0  0  0  0  0
    9.2822   -3.6126    0.0000 C   0  0  0  0  0  0  0  0  0  0  0  0
    9.0586   -5.0958    0.0000 C   0  0  0  0  0  0  0  0  0  0  0  0
    7.6623   -5.6439    0.0000 C   0  0  0  0  0  0  0  0  0  0  0  0
    7.4388   -7.1271    0.0000 C   0  0  0  0  0  0  0  0  0  0  0  0
    6.0424   -7.6751    0.0000 N   0  0  0  0  0  0  0  0  0  0  0  0
    4.8697   -6.7399    0.0000 N   0  0  0  0  0  0  0  0  0  0  0  0
    5.0933   -5.2566    0.0000 C   0  0  0  0  0  0  0  0  0  0  0  0
    3.9205   -4.3214    0.0000 C   0  0  0  0  0  0  0  0  0  0  0  0
    2.5242   -4.8694    0.0000 N   0  0  0  0  0  0  0  0  0  0  0  0
    1.3515   -3.9342    0.0000 C   0  0  0  0  0  0  0  0  0  0  0  0
    1.6852   -2.4718    0.0000 C   0  0  0  0  0  0  0  0  0  0  0  0
    0.7500   -1.2990    0.0000 C   0  0  0  0  0  0  0  0  0  0  0  0
    1.5000    0.0000    0.0000 C   0  0  0  0  0  0  0  0  0  0  0  0
    0.7500    1.2990    0.0000 C   0  0  0  0  0  0  0  0  0  0  0  0
   -0.7500    1.2990    0.0000 C   0  0  0  0  0  0  0  0  0  0  0  0
   -1.5000    0.0000    0.0000 C   0  0  0  0  0  0  0  0  0  0  0  0
   -0.7500   -1.2990    0.0000 C   0  0  0  0  0  0  0  0  0  0  0  0
   -1.6852   -2.4718    0.0000 S   0  0  0  0  0  0  0  0  0  0  0  0
   -1.3515   -3.9342    0.0000 C   0  0  0  0  0  0  0  0  0  0  0  0
   -2.5908   -4.7792    0.0000 C   0  0  0  0  0  0  0  0  0  0  0  0
   -2.4787   -6.2750    0.0000 C   0  0  0  0  0  0  0  0  0  0  0  0
   -1.1273   -6.9258    0.0000 C   0  0  0  0  0  0  0  0  0  0  0  0
   -1.0152   -8.4216    0.0000 Cl  0  0  0  0  0  0  0  0  0  0  0  0
    0.1121   -6.0808    0.0000 C   0  0  0  0  0  0  0  0  0  0  0  0
    0.0000   -4.5850    0.0000 C   0  0  0  0  0  0  0  0  0  0  0  0
    2.3006   -6.3527    0.0000 C   0  0  0  0  0  0  0  0  0  0  0  0
    3.4734   -7.2879    0.0000 C   0  0  0  0  0  0  0  0  0  0  0  0
    6.4896   -4.7086    0.0000 C   0  0  0  0  0  0  0  0  0  0  0  0
  1  2  1  0
  2  3  1  0
  2  4  1  0
  4  5  1  0
  5  6  1  0
  6  7  1  0
  7  8  2  0
  8  9  1  0
  9 10  2  0
 10 11  1  0
 11 12  1  0
 12 13  2  0
 13 14  1  0
 14 15  1  0
 15 16  1  0
 16 17  1  0
 18 17  1  1
 18 19  1  0
 19 20  1  0
 20 21  2  0
 21 22  1  0
 22 23  2  0
 23 24  1  0
 24 25  2  0
 25 26  1  0
 26 27  1  0
 27 28  2  0
 28 29  1  0
 29 30  2  0
 30 31  1  0
 30 32  1  0
 32 33  2  0
 17 34  1  0
 34 35  1  0
 11 36  2  0
 36  7  1  0
 35 14  1  0
 33 18  1  0
 25 20  1  0
 33 27  1  0
M  CHG  1   2   1
M  END
>  <Compound_ID>  (727) 
C19802148

>  <Active>  (727) 
0.0

>  <Smiles>  (727) 
C[NH+](C)CCOc1cccc(/C=N\N2CCN([C@@H]3Cc4ccccc4Sc4ccc(Cl)cc43)CC2)c1

>  <canonical_smi>  (727) 
C[NH+](C)CCOc1cccc(/C=N\N2CCN([C@@H]3Cc4ccccc4Sc4ccc(Cl)cc43)CC2)c1

>  <Set>  (727) 
G2 inactive

>  <Set_type>  (727) 
Train

>  <MW>  (727) 
522.14

>  <HBD>  (727) 
1

>  <HBA>  (727) 
4

>  <NRB>  (727) 
7

>  <NR>  (727) 
5

>  <NAR>  (727) 
3

>  <PSA>  (727) 
32.51

>  <Standard Type>  (727) 
nan

>  <Standard Relation>  (727) 
nan

>  <Standard Units>  (727) 
nan

>  <Standard Value>  (727) 
nan

>  <Assay ChEMBL ID>  (727) 
nan

>  <Assay Description>  (727) 
nan

>  <BAO Label>  (727) 
nan

$$$$

     RDKit          2D

 34 39  0  0  0  0  0  0  0  0999 V2000
   -8.0346   -3.5760    0.0000 C   0  0  0  0  0  0  0  0  0  0  0  0
   -6.6080   -3.1125    0.0000 C   0  0  0  0  0  0  0  0  0  0  0  0
   -5.4933   -4.1162    0.0000 C   0  0  0  0  0  0  0  0  0  0  0  0
   -4.0667   -3.6527    0.0000 C   0  0  0  0  0  0  0  0  0  0  0  0
   -2.9520   -4.6564    0.0000 C   0  0  0  0  0  0  0  0  0  0  0  0
   -1.5254   -4.1928    0.0000 N   0  0  0  0  0  0  0  0  0  0  0  0
   -1.8373   -5.6601    0.0000 C   0  0  0  0  0  0  0  0  0  0  0  0
   -3.2638   -6.1236    0.0000 C   0  0  0  0  0  0  0  0  0  0  0  0
   -3.5757   -7.5908    0.0000 C   0  0  0  0  0  0  0  0  0  0  0  0
   -5.0023   -8.0543    0.0000 C   0  0  0  0  0  0  0  0  0  0  0  0
   -5.3142   -9.5216    0.0000 C   0  0  0  0  0  0  0  0  0  0  0  0
   -3.3319   -2.8366    0.0000 C   0  0  0  0  0  0  0  0  0  0  0  0
   -2.3282   -1.7219    0.0000 N   0  0  0  0  0  4  0  0  0  0  0  0
   -3.7548   -2.1855    0.0000 C   0  0  0  0  0  0  0  0  0  0  0  0
   -1.2135   -2.7256    0.0000 C   0  0  0  0  0  0  0  0  0  0  0  0
   -0.0000   -3.6073    0.0000 C   0  0  0  0  0  0  0  0  0  0  0  0
    0.0000   -5.1073    0.0000 O   0  0  0  0  0  0  0  0  0  0  0  0
    1.2135   -2.7256    0.0000 N   0  0  0  0  0  0  0  0  0  0  0  0
    2.6401   -3.1891    0.0000 C   0  0  0  0  0  0  0  0  0  0  0  0
    2.9520   -4.6564    0.0000 C   0  0  0  0  0  0  0  0  0  0  0  0
    1.8373   -5.6601    0.0000 C   0  0  0  0  0  0  0  0  0  0  0  0
    2.1491   -7.1273    0.0000 C   0  0  0  0  0  0  0  0  0  0  0  0
    3.5757   -7.5908    0.0000 C   0  0  0  0  0  0  0  0  0  0  0  0
    4.6904   -6.5871    0.0000 C   0  0  0  0  0  0  0  0  0  0  0  0
    4.3786   -5.1199    0.0000 C   0  0  0  0  0  0  0  0  0  0  0  0
    0.7500   -1.2990    0.0000 C   0  0  0  0  0  0  0  0  0  0  0  0
    1.5000    0.0000    0.0000 C   0  0  0  0  0  0  0  0  0  0  0  0
    0.7500    1.2990    0.0000 C   0  0  0  0  0  0  0  0  0  0  0  0
   -0.7500    1.2990    0.0000 C   0  0  0  0  0  0  0  0  0  0  0  0
   -1.5000    2.5981    0.0000 Br  0  0  0  0  0  0  0  0  0  0  0  0
   -1.5000    0.0000    0.0000 C   0  0  0  0  0  0  0  0  0  0  0  0
   -0.7500   -1.2990    0.0000 C   0  0  0  0  0  0  0  0  0  0  0  0
   -4.3786   -5.1199    0.0000 C   0  0  0  0  0  0  0  0  0  0  0  0
   -5.8051   -5.5834    0.0000 O   0  0  0  0  0  0  0  0  0  0  0  0
  1  2  1  0
  2  3  1  0
  4  3  1  1
  4  5  1  0
  5  6  1  0
  6  7  1  0
  7  8  1  0
  8  9  1  6
  9 10  1  0
 10 11  1  0
  8 12  1  0
 12 13  1  0
 13 14  1  0
 13 15  1  0
 15 16  1  6
 16 17  2  0
 16 18  1  0
 18 19  1  0
 19 20  1  0
 20 21  2  0
 21 22  1  0
 22 23  2  0
 23 24  1  0
 24 25  2  0
 18 26  1  0
 26 27  2  0
 27 28  1  0
 28 29  2  0
 29 30  1  0
 29 31  1  0
 31 32  2  0
  8 33  1  0
 33 34  2  0
 14  4  1  0
 32 15  1  0
 33  4  1  0
 15  6  1  0
 25 20  1  0
 32 26  1  0
M  CHG  1  13   1
M  END
>  <Compound_ID>  (728) 
C27532929

>  <Active>  (728) 
0.0

>  <Smiles>  (728) 
CCC[C@]12CN3C[C@](CCC)(C[NH+](C1)[C@]31C(=O)N(Cc3ccccc3)c3ccc(Br)cc31)C2=O

>  <canonical_smi>  (728) 
CCC[C@]12CN3C[C@](CCC)(C[NH+](C1)[C@]31C(=O)N(Cc3ccccc3)c3ccc(Br)cc31)C2=O

>  <Set>  (728) 
G2 inactive

>  <Set_type>  (728) 
Train

>  <MW>  (728) 
523.5

>  <HBD>  (728) 
1

>  <HBA>  (728) 
3

>  <NRB>  (728) 
6

>  <NR>  (728) 
7

>  <NAR>  (728) 
2

>  <PSA>  (728) 
45.06

>  <Standard Type>  (728) 
nan

>  <Standard Relation>  (728) 
nan

>  <Standard Units>  (728) 
nan

>  <Standard Value>  (728) 
nan

>  <Assay ChEMBL ID>  (728) 
nan

>  <Assay Description>  (728) 
nan

>  <BAO Label>  (728) 
nan

$$$$

     RDKit          2D

 36 40  0  0  0  0  0  0  0  0999 V2000
   -0.8607    7.2521    0.0000 C   0  0  0  0  0  0  0  0  0  0  0  0
   -1.5417    5.9156    0.0000 C   0  0  0  0  0  0  0  0  0  0  0  0
   -0.7248    4.6576    0.0000 C   0  0  0  0  0  0  0  0  0  0  0  0
    0.2789    5.7723    0.0000 C   0  0  0  0  0  0  0  0  0  0  0  0
   -2.1513    4.1941    0.0000 C   0  0  0  0  0  0  0  0  0  0  0  0
   -2.8323    2.8576    0.0000 C   0  0  0  0  0  0  0  0  0  0  0  0
   -4.3277    2.9753    0.0000 O   0  0  0  0  0  0  0  0  0  0  0  0
   -4.9735    4.3291    0.0000 C   0  0  0  0  0  0  0  0  0  0  0  0
   -4.1239    5.5653    0.0000 O   0  0  0  0  0  0  0  0  0  0  0  0
   -6.4688    4.4468    0.0000 C   0  0  0  0  0  0  0  0  0  0  0  0
   -7.1146    5.8007    0.0000 S   0  0  0  0  0  0  0  0  0  0  0  0
   -8.6100    5.9184    0.0000 C   0  0  0  0  0  0  0  0  0  0  0  0
   -9.2557    7.2723    0.0000 C   0  0  0  0  0  0  0  0  0  0  0  0
  -10.7511    7.3900    0.0000 C   0  0  0  0  0  0  0  0  0  0  0  0
  -12.2097    7.0398    0.0000 C   0  0  0  0  0  0  0  0  0  0  0  0
  -12.3274    5.5444    0.0000 C   0  0  0  0  0  0  0  0  0  0  0  0
  -10.9415    4.9704    0.0000 C   0  0  0  0  0  0  0  0  0  0  0  0
   -9.4596    4.6822    0.0000 C   0  0  0  0  0  0  0  0  0  0  0  0
   -9.9674    6.1110    0.0000 N   0  0  0  0  0  4  0  0  0  0  0  0
   -9.2114    5.8580    0.0000 C   0  0  0  0  0  0  0  0  0  0  0  0
   -2.3688    1.4310    0.0000 C   0  0  0  0  0  0  0  0  0  0  0  0
   -3.5094    0.4568    0.0000 C   0  0  0  0  0  0  0  0  0  0  0  0
   -2.0781    2.9127    0.0000 C   0  0  0  0  0  0  0  0  0  0  0  0
   -3.3143    3.7624    0.0000 C   0  0  0  0  0  0  0  0  0  0  0  0
   -0.7242    3.5585    0.0000 C   0  0  0  0  0  0  0  0  0  0  0  0
    0.5120    2.7089    0.0000 C   0  0  0  0  0  0  0  0  0  0  0  0
    0.3943    1.2135    0.0000 C   0  0  0  0  0  0  0  0  0  0  0  0
    1.2760    0.0000    0.0000 C   0  0  0  0  0  0  0  0  0  0  0  0
    0.3943   -1.2135    0.0000 C   0  0  0  0  0  0  0  0  0  0  0  0
   -1.0323   -0.7500    0.0000 C   0  0  0  0  0  0  0  0  0  0  0  0
   -2.2458   -1.6317    0.0000 O   0  0  0  0  0  0  0  0  0  0  0  0
   -1.0323    0.7500    0.0000 C   0  0  0  0  0  0  0  0  0  0  0  0
    1.0753    2.5500    0.0000 C   0  0  0  0  0  0  0  0  0  0  0  0
    2.5707    2.4323    0.0000 C   0  0  0  0  0  0  0  0  0  0  0  0
    0.6118    3.9766    0.0000 C   0  0  0  0  0  0  0  0  0  0  0  0
    1.7524    4.9508    0.0000 O   0  0  0  0  0  0  0  0  0  0  0  0
  1  2  2  0
  2  3  1  0
  3  4  1  6
  3  5  1  0
  5  6  1  0
  6  7  1  6
  7  8  1  0
  8  9  2  0
  8 10  1  0
 10 11  1  0
 11 12  1  0
 12 13  1  0
 14 13  1  6
 14 15  1  0
 15 16  1  0
 17 16  1  6
 17 18  1  0
 17 19  1  0
 19 20  1  0
  6 21  1  0
 21 22  1  1
 21 23  1  0
 23 24  1  6
 23 25  1  0
 25 26  1  0
 27 26  1  1
 27 28  1  0
 28 29  1  0
 29 30  1  0
 30 31  2  0
 32 30  1  1
 27 33  1  0
 33 34  1  6
 33 35  1  0
 35 36  1  1
 35  3  1  0
 18 12  1  0
 32 21  1  0
 19 14  1  0
 32 27  1  0
M  CHG  1  19   1
M  END
>  <Compound_ID>  (729) 
C29051126

>  <Active>  (729) 
0.0

>  <Smiles>  (729) 
C=C[C@]1(C)C[C@@H](OC(=O)CSC2C[C@H]3CC[C@@H](C2)[NH+]3C)[C@]2(C)[C@H](C)CC[C@]3(CCC(=O)[C@H]32)[C@@H](C)[C@@H]1O

>  <canonical_smi>  (729) 
C=C[C@]1(C)C[C@@H](OC(=O)CSC2C[C@@H]3CC[C@H](C2)[NH+]3C)[C@]2(C)[C@H](C)CC[C@]3(CCC(=O)[C@H]32)[C@@H](C)[C@@H]1O

>  <Set>  (729) 
G2 inactive

>  <Set_type>  (729) 
Train

>  <MW>  (729) 
518.78

>  <HBD>  (729) 
2

>  <HBA>  (729) 
5

>  <NRB>  (729) 
5

>  <NR>  (729) 
5

>  <NAR>  (729) 
0

>  <PSA>  (729) 
68.04

>  <Standard Type>  (729) 
nan

>  <Standard Relation>  (729) 
nan

>  <Standard Units>  (729) 
nan

>  <Standard Value>  (729) 
nan

>  <Assay ChEMBL ID>  (729) 
nan

>  <Assay Description>  (729) 
nan

>  <BAO Label>  (729) 
nan

$$$$

     RDKit          2D

 30 30  0  0  0  0  0  0  0  0999 V2000
    7.5000    2.5981    0.0000 C   0  0  0  0  0  0  0  0  0  0  0  0
    6.0000    2.5981    0.0000 C   0  0  0  0  0  0  0  0  0  0  0  0
    5.2500    1.2990    0.0000 C   0  0  0  0  0  0  0  0  0  0  0  0
    6.0000   -0.0000    0.0000 O   0  0  0  0  0  0  0  0  0  0  0  0
    3.7500    1.2990    0.0000 N   0  0  0  0  0  0  0  0  0  0  0  0
    3.0000    0.0000    0.0000 C   0  0  0  0  0  0  0  0  0  0  0  0
    3.7500   -1.2990    0.0000 C   0  0  0  0  0  0  0  0  0  0  0  0
    3.0000   -2.5981    0.0000 O   0  0  0  0  0  0  0  0  0  0  0  0
    5.2500   -1.2990    0.0000 N   0  0  0  0  0  0  0  0  0  0  0  0
    6.0000   -2.5981    0.0000 C   0  0  0  0  0  0  0  0  0  0  0  0
    7.2990   -1.8481    0.0000 C   0  0  0  0  0  0  0  0  0  0  0  0
    4.7010   -3.3481    0.0000 C   0  0  0  0  0  0  0  0  0  0  0  0
    6.7500   -3.8971    0.0000 C   0  0  0  0  0  0  0  0  0  0  0  0
    6.0000   -5.1962    0.0000 C   0  0  0  0  0  0  0  0  0  0  0  0
    7.2990   -5.9462    0.0000 C   0  0  0  0  0  0  0  0  0  0  0  0
    4.7010   -4.4462    0.0000 C   0  0  0  0  0  0  0  0  0  0  0  0
    5.2500   -6.4952    0.0000 C   0  0  0  0  0  0  0  0  0  0  0  0
    1.5000    0.0000    0.0000 C   0  0  0  0  0  0  0  0  0  0  0  0
    0.7500    1.2990    0.0000 C   0  0  0  0  0  0  0  0  0  0  0  0
    1.1772    2.3056    0.0000 O   0  0  0  0  0  0  0  0  0  0  0  0
   -0.7500    1.2990    0.0000 C   0  0  0  0  0  0  0  0  0  0  0  0
   -1.5000    0.0000    0.0000 C   0  0  0  0  0  0  0  0  0  0  0  0
   -3.0000    0.0000    0.0000 O   0  0  0  0  0  0  0  0  0  0  0  0
   -0.7500   -1.2990    0.0000 C   0  0  0  0  0  0  0  0  0  0  0  0
    0.7500   -1.2990    0.0000 C   0  0  0  0  0  0  0  0  0  0  0  0
    1.5000   -2.5981    0.0000 O   0  0  0  0  0  0  0  0  0  0  0  0
    3.0000    2.5981    0.0000 C   0  0  0  0  0  0  0  0  0  0  0  0
    4.2990    3.3481    0.0000 C   0  0  0  0  0  0  0  0  0  0  0  0
    1.9934    2.1708    0.0000 C   0  0  0  0  0  0  0  0  0  0  0  0
    2.2500    3.8971    0.0000 C   0  0  0  0  0  0  0  0  0  0  0  0
  1  2  1  0
  2  3  1  0
  3  4  2  0
  3  5  1  0
  6  5  1  6
  6  7  1  0
  7  8  2  0
  7  9  1  0
  9 10  1  0
 10 11  1  0
 10 12  1  0
 10 13  1  0
 13 14  1  0
 14 15  1  0
 14 16  1  0
 14 17  1  0
  6 18  1  0
 18 19  2  0
 19 20  1  0
 19 21  1  0
 21 22  2  0
 22 23  1  0
 22 24  1  0
 24 25  2  0
 25 26  1  0
  5 27  1  0
 27 28  1  0
 27 29  1  0
 27 30  1  0
 25 18  1  0
M  END
>  <Compound_ID>  (730) 
C36594220

>  <Active>  (730) 
0.0

>  <Smiles>  (730) 
CCC(=O)N([C@H](C(=O)NC(C)(C)CC(C)(C)C)c1c(O)cc(O)cc1O)C(C)(C)C

>  <canonical_smi>  (730) 
CCC(=O)N([C@H](C(=O)NC(C)(C)CC(C)(C)C)c1c(O)cc(O)cc1O)C(C)(C)C

>  <Set>  (730) 
G2 inactive

>  <Set_type>  (730) 
Train

>  <MW>  (730) 
422.57

>  <HBD>  (730) 
4

>  <HBA>  (730) 
5

>  <NRB>  (730) 
6

>  <NR>  (730) 
1

>  <NAR>  (730) 
1

>  <PSA>  (730) 
110.1

>  <Standard Type>  (730) 
nan

>  <Standard Relation>  (730) 
nan

>  <Standard Units>  (730) 
nan

>  <Standard Value>  (730) 
nan

>  <Assay ChEMBL ID>  (730) 
nan

>  <Assay Description>  (730) 
nan

>  <BAO Label>  (730) 
nan

$$$$

     RDKit          2D

 35 40  0  0  0  0  0  0  0  0999 V2000
   -1.2990   -5.8573    0.0000 C   0  0  0  0  0  0  0  0  0  0  0  0
   -0.0000   -5.1073    0.0000 C   0  0  0  0  0  0  0  0  0  0  0  0
   -0.0000   -3.6073    0.0000 C   0  0  0  0  0  0  0  0  0  0  0  0
    1.2135   -2.7256    0.0000 N   0  0  0  0  0  0  0  0  0  0  0  0
    0.7500   -1.2990    0.0000 C   0  0  0  0  0  0  0  0  0  0  0  0
    1.5000    0.0000    0.0000 C   0  0  0  0  0  0  0  0  0  0  0  0
    3.0000    0.0000    0.0000 C   0  0  0  0  0  0  0  0  0  0  0  0
    0.7500    1.2990    0.0000 C   0  0  0  0  0  0  0  0  0  0  0  0
   -0.7500    1.2990    0.0000 C   0  0  0  0  0  0  0  0  0  0  0  0
   -1.5000    2.5981    0.0000 C   0  0  0  0  0  0  0  0  0  0  0  0
   -1.5000    0.0000    0.0000 N   0  0  0  0  0  4  0  0  0  0  0  0
   -0.7500   -1.2990    0.0000 C   0  0  0  0  0  0  0  0  0  0  0  0
   -1.2135   -2.7256    0.0000 N   0  0  0  0  0  0  0  0  0  0  0  0
   -2.6401   -3.1891    0.0000 C   0  0  0  0  0  0  0  0  0  0  0  0
   -3.7548   -2.1855    0.0000 C   0  0  0  0  0  0  0  0  0  0  0  0
   -3.4430   -0.7182    0.0000 C   0  0  0  0  0  0  0  0  0  0  0  0
   -4.5577    0.2855    0.0000 C   0  0  0  0  0  0  0  0  0  0  0  0
   -5.9843   -0.1781    0.0000 C   0  0  0  0  0  0  0  0  0  0  0  0
   -6.2961   -1.6453    0.0000 C   0  0  0  0  0  0  0  0  0  0  0  0
   -5.1814   -2.6490    0.0000 C   0  0  0  0  0  0  0  0  0  0  0  0
   -7.7879   -1.8021    0.0000 C   0  0  0  0  0  0  0  0  0  0  0  0
   -8.3980   -0.4318    0.0000 C   0  0  0  0  0  0  0  0  0  0  0  0
   -7.2833    0.5719    0.0000 N   0  0  0  0  0  0  0  0  0  0  0  0
   -7.4401    2.0637    0.0000 C   0  0  0  0  0  0  0  0  0  0  0  0
   -8.8104    2.6738    0.0000 C   0  0  0  0  0  0  0  0  0  0  0  0
   -8.9672    4.1656    0.0000 C   0  0  0  0  0  0  0  0  0  0  0  0
  -10.3375    4.7757    0.0000 C   0  0  0  0  0  0  0  0  0  0  0  0
  -11.5510    3.8940    0.0000 C   0  0  0  0  0  0  0  0  0  0  0  0
  -11.3943    2.4023    0.0000 C   0  0  0  0  0  0  0  0  0  0  0  0
  -10.0239    1.7921    0.0000 C   0  0  0  0  0  0  0  0  0  0  0  0
   -6.2266    2.9454    0.0000 C   0  0  0  0  0  0  0  0  0  0  0  0
   -6.2266    4.4454    0.0000 N   0  0  0  0  0  0  0  0  0  0  0  0
   -4.8000    4.9089    0.0000 N   0  0  0  0  0  0  0  0  0  0  0  0
   -3.9183    3.6954    0.0000 N   0  0  0  0  0  0  0  0  0  0  0  0
   -4.8000    2.4819    0.0000 N   0  0  0  0  0  0  0  0  0  0  0  0
  1  2  1  0
  3  2  1  1
  3  4  1  0
  4  5  1  0
  5  6  2  0
  6  7  1  0
  6  8  1  0
  8  9  2  0
  9 10  1  0
  9 11  1  0
 11 12  2  0
 12 13  1  0
 13 14  1  0
 14 15  1  0
 15 16  2  0
 16 17  1  0
 17 18  2  0
 18 19  1  0
 19 20  2  0
 19 21  1  0
 21 22  1  0
 22 23  1  0
 24 23  1  1
 24 25  1  0
 25 26  2  0
 26 27  1  0
 27 28  2  0
 28 29  1  0
 29 30  2  0
 24 31  1  0
 31 32  2  0
 32 33  1  0
 33 34  2  0
 34 35  1  0
 13  3  1  0
 20 15  1  0
 30 25  1  0
 35 31  1  0
 12  5  1  0
 23 18  1  0
M  CHG  1  11   1
M  END
>  <Compound_ID>  (731) 
C52607216

>  <Active>  (731) 
0.0

>  <Smiles>  (731) 
CC[C@@H]1Nc2c(C)cc(C)[nH+]c2N1Cc1ccc2c(c1)CCN2[C@@H](c1ccccc1)c1nnn[nH]1

>  <canonical_smi>  (731) 
CC[C@@H]1Nc2c(C)cc(C)[nH+]c2N1Cc1ccc2c(c1)CCN2[C@@H](c1ccccc1)c1nnn[nH]1

>  <Set>  (731) 
G2 inactive

>  <Set_type>  (731) 
Train

>  <MW>  (731) 
467.6

>  <HBD>  (731) 
2

>  <HBA>  (731) 
6

>  <NRB>  (731) 
6

>  <NR>  (731) 
6

>  <NAR>  (731) 
4

>  <PSA>  (731) 
87.11

>  <Standard Type>  (731) 
nan

>  <Standard Relation>  (731) 
nan

>  <Standard Units>  (731) 
nan

>  <Standard Value>  (731) 
nan

>  <Assay ChEMBL ID>  (731) 
nan

>  <Assay Description>  (731) 
nan

>  <BAO Label>  (731) 
nan

$$$$

     RDKit          2D

 34 38  0  0  0  0  0  0  0  0999 V2000
    3.9240   -3.5332    0.0000 O   0  0  0  0  0  0  0  0  0  0  0  0
    2.5537   -2.9231    0.0000 C   0  0  0  0  0  0  0  0  0  0  0  0
    2.2418   -1.4558    0.0000 N   0  0  0  0  0  0  0  0  0  0  0  0
    0.7500   -1.2990    0.0000 C   0  0  0  0  0  0  0  0  0  0  0  0
    1.5000    0.0000    0.0000 C   0  0  0  0  0  0  0  0  0  0  0  0
    0.7500    1.2990    0.0000 C   0  0  0  0  0  0  0  0  0  0  0  0
   -0.7500    1.2990    0.0000 N   0  0  0  0  0  0  0  0  0  0  0  0
   -1.5000    2.5981    0.0000 C   0  0  0  0  0  0  0  0  0  0  0  0
   -0.7500    3.8971    0.0000 C   0  0  0  0  0  0  0  0  0  0  0  0
   -1.5000    5.1962    0.0000 N   0  0  0  0  0  0  0  0  0  0  0  0
   -3.0000    5.1962    0.0000 N   0  0  0  0  0  0  0  0  0  0  0  0
   -3.7500    6.4952    0.0000 C   0  0  0  0  0  0  0  0  0  0  0  0
   -3.0000    7.7942    0.0000 C   0  0  0  0  0  0  0  0  0  0  0  0
   -3.7500    9.0933    0.0000 C   0  0  0  0  0  0  0  0  0  0  0  0
   -5.2500    9.0933    0.0000 C   0  0  0  0  0  0  0  0  0  0  0  0
   -6.0000   10.3923    0.0000 Cl  0  0  0  0  0  0  0  0  0  0  0  0
   -6.0000    7.7942    0.0000 C   0  0  0  0  0  0  0  0  0  0  0  0
   -5.2500    6.4952    0.0000 C   0  0  0  0  0  0  0  0  0  0  0  0
   -6.0000    5.1962    0.0000 Cl  0  0  0  0  0  0  0  0  0  0  0  0
   -3.7500    3.8971    0.0000 C   0  0  0  0  0  0  0  0  0  0  0  0
   -5.2500    3.8971    0.0000 O   0  0  0  0  0  0  0  0  0  0  0  0
   -3.0000    2.5981    0.0000 C   0  0  0  0  0  0  0  0  0  0  0  0
   -3.7500    1.2990    0.0000 Cl  0  0  0  0  0  0  0  0  0  0  0  0
   -1.5000    0.0000    0.0000 C   0  0  0  0  0  0  0  0  0  0  0  0
   -0.7500   -1.2990    0.0000 C   0  0  0  0  0  0  0  0  0  0  0  0
    0.1399   -2.6694    0.0000 N   0  0  0  0  0  0  0  0  0  0  0  0
    1.2546   -3.6731    0.0000 N   0  0  0  0  0  0  0  0  0  0  0  0
    1.0978   -5.1648    0.0000 C   0  0  0  0  0  0  0  0  0  0  0  0
   -0.2725   -5.7749    0.0000 C   0  0  0  0  0  0  0  0  0  0  0  0
   -0.4293   -7.2667    0.0000 C   0  0  0  0  0  0  0  0  0  0  0  0
    0.7842   -8.1484    0.0000 C   0  0  0  0  0  0  0  0  0  0  0  0
    0.6274   -9.6402    0.0000 Cl  0  0  0  0  0  0  0  0  0  0  0  0
    2.1546   -7.5383    0.0000 C   0  0  0  0  0  0  0  0  0  0  0  0
    2.3113   -6.0465    0.0000 C   0  0  0  0  0  0  0  0  0  0  0  0
  1  2  2  0
  2  3  1  0
  3  4  1  0
  4  5  1  0
  5  6  1  0
  6  7  1  0
  7  8  1  0
  8  9  1  0
  9 10  2  0
 10 11  1  0
 11 12  1  0
 12 13  2  0
 13 14  1  0
 14 15  2  0
 15 16  1  0
 15 17  1  0
 17 18  2  0
 18 19  1  0
 11 20  1  0
 20 21  2  0
 20 22  1  0
 22 23  1  0
  7 24  1  0
 24 25  1  0
  4 26  1  0
 26 27  1  0
 27 28  1  0
 28 29  2  0
 29 30  1  0
 30 31  2  0
 31 32  1  0
 31 33  1  0
 33 34  2  0
 27  2  1  0
 34 28  1  0
 25  4  1  0
 22  8  2  0
 18 12  1  0
M  END
>  <Compound_ID>  (732) 
C03104702

>  <Active>  (732) 
0.0

>  <Smiles>  (732) 
O=C1NC2(CCN(c3cnn(-c4ccc(Cl)cc4Cl)c(=O)c3Cl)CC2)NN1c1ccc(Cl)cc1

>  <canonical_smi>  (732) 
O=C1NC2(CCN(c3cnn(-c4ccc(Cl)cc4Cl)c(=O)c3Cl)CC2)NN1c1ccc(Cl)cc1

>  <Set>  (732) 
G2 inactive

>  <Set_type>  (732) 
Train

>  <MW>  (732) 
540.24

>  <HBD>  (732) 
2

>  <HBA>  (732) 
5

>  <NRB>  (732) 
3

>  <NR>  (732) 
5

>  <NAR>  (732) 
3

>  <PSA>  (732) 
82.5

>  <Standard Type>  (732) 
nan

>  <Standard Relation>  (732) 
nan

>  <Standard Units>  (732) 
nan

>  <Standard Value>  (732) 
nan

>  <Assay ChEMBL ID>  (732) 
nan

>  <Assay Description>  (732) 
nan

>  <BAO Label>  (732) 
nan

$$$$

     RDKit          2D

 30 32  0  0  0  0  0  0  0  0999 V2000
    3.7500   -1.2990    0.0000 C   0  0  0  0  0  0  0  0  0  0  0  0
    3.0000    0.0000    0.0000 C   0  0  0  0  0  0  0  0  0  0  0  0
    3.7500    1.2990    0.0000 C   0  0  0  0  0  0  0  0  0  0  0  0
    1.5000    0.0000    0.0000 C   0  0  0  0  0  0  0  0  0  0  0  0
    0.7500   -1.2990    0.0000 C   0  0  0  0  0  0  0  0  0  0  0  0
   -0.7500   -1.2990    0.0000 C   0  0  0  0  0  0  0  0  0  0  0  0
   -1.5000    0.0000    0.0000 C   0  0  0  0  0  0  0  0  0  0  0  0
   -3.0000    0.0000    0.0000 C   0  0  0  0  0  0  0  0  0  0  0  0
   -0.7500    1.2990    0.0000 C   0  0  0  0  0  0  0  0  0  0  0  0
    0.7500    1.2990    0.0000 C   0  0  0  0  0  0  0  0  0  0  0  0
    1.5000    2.5981    0.0000 O   0  0  0  0  0  0  0  0  0  0  0  0
    0.7500    3.8971    0.0000 P   0  0  0  0  0  5  0  0  0  0  0  0
    0.0000    5.1962    0.0000 O   0  0  0  0  0  0  0  0  0  0  0  0
   -0.5490    3.1471    0.0000 N   0  0  0  0  0  0  0  0  0  0  0  0
   -1.8481    3.8971    0.0000 C   0  0  0  0  0  0  0  0  0  0  0  0
   -1.8481    5.3971    0.0000 C   0  0  0  0  0  0  0  0  0  0  0  0
   -3.1471    6.1471    0.0000 C   0  0  0  0  0  0  0  0  0  0  0  0
   -4.4462    5.3971    0.0000 C   0  0  0  0  0  0  0  0  0  0  0  0
   -5.7452    6.1471    0.0000 S   0  0  0  0  0  0  0  0  0  0  0  0
   -5.7452    7.6471    0.0000 C   0  0  0  0  0  0  0  0  0  0  0  0
   -7.0442    8.3971    0.0000 F   0  0  0  0  0  0  0  0  0  0  0  0
   -4.4462    8.3971    0.0000 F   0  0  0  0  0  0  0  0  0  0  0  0
   -4.4462    3.8971    0.0000 C   0  0  0  0  0  0  0  0  0  0  0  0
   -3.1471    3.1471    0.0000 C   0  0  0  0  0  0  0  0  0  0  0  0
    2.0490    4.6471    0.0000 C   0  0  0  0  0  0  0  0  0  0  0  0
    3.3481    3.8971    0.0000 C   0  0  0  0  0  0  0  0  0  0  0  0
    4.6471    4.6471    0.0000 C   0  0  0  0  0  0  0  0  0  0  0  0
    4.6471    6.1471    0.0000 C   0  0  0  0  0  0  0  0  0  0  0  0
    3.3481    6.8971    0.0000 C   0  0  0  0  0  0  0  0  0  0  0  0
    2.0490    6.1471    0.0000 C   0  0  0  0  0  0  0  0  0  0  0  0
  1  2  1  0
  2  3  1  0
  4  2  1  6
  4  5  1  0
  5  6  1  0
  6  7  1  0
  7  8  1  6
  7  9  1  0
  9 10  1  0
 10 11  1  6
 11 12  1  0
 12 13  2  0
 12 14  1  1
 14 15  1  0
 15 16  2  0
 16 17  1  0
 17 18  2  0
 18 19  1  0
 19 20  1  0
 20 21  1  0
 20 22  1  0
 18 23  1  0
 23 24  2  0
 12 25  1  0
 25 26  2  0
 26 27  1  0
 27 28  2  0
 28 29  1  0
 29 30  2  0
 10  4  1  0
 24 15  1  0
 30 25  1  0
M  END
>  <Compound_ID>  (733) 
C12558925

>  <Active>  (733) 
0.0

>  <Smiles>  (733) 
CC(C)[C@@H]1CC[C@H](C)C[C@@H]1O[P@@](=O)(Nc1ccc(SC(F)F)cc1)c1ccccc1

>  <canonical_smi>  (733) 
CC(C)[C@@H]1CC[C@H](C)C[C@@H]1O[P@@](=O)(Nc1ccc(SC(F)F)cc1)c1ccccc1

>  <Set>  (733) 
G2 inactive

>  <Set_type>  (733) 
Train

>  <MW>  (733) 
453.54

>  <HBD>  (733) 
1

>  <HBA>  (733) 
4

>  <NRB>  (733) 
8

>  <NR>  (733) 
3

>  <NAR>  (733) 
2

>  <PSA>  (733) 
38.33

>  <Standard Type>  (733) 
nan

>  <Standard Relation>  (733) 
nan

>  <Standard Units>  (733) 
nan

>  <Standard Value>  (733) 
nan

>  <Assay ChEMBL ID>  (733) 
nan

>  <Assay Description>  (733) 
nan

>  <BAO Label>  (733) 
nan

$$$$

     RDKit          2D

 27 30  0  0  0  0  0  0  0  0999 V2000
    3.7500   -1.2990    0.0000 C   0  0  0  0  0  0  0  0  0  0  0  0
    3.0000    0.0000    0.0000 C   0  0  0  0  0  0  0  0  0  0  0  0
    1.5000    0.0000    0.0000 C   0  0  0  0  0  0  0  0  0  0  0  0
    0.7500   -1.2990    0.0000 C   0  0  0  0  0  0  0  0  0  0  0  0
   -0.7500   -1.2990    0.0000 C   0  0  0  0  0  0  0  0  0  0  0  0
   -1.5000    0.0000    0.0000 C   0  0  0  0  0  0  0  0  0  0  0  0
   -2.9672    0.3119    0.0000 O   0  0  0  0  0  0  0  0  0  0  0  0
   -3.1240    1.8037    0.0000 C   0  0  0  0  0  0  0  0  0  0  0  0
   -4.4231    2.5537    0.0000 C   0  0  0  0  0  0  0  0  0  0  0  0
   -4.4231    4.0537    0.0000 C   0  0  0  0  0  0  0  0  0  0  0  0
   -5.7221    4.8037    0.0000 C   0  0  0  0  0  0  0  0  0  0  0  0
   -5.7221    6.3037    0.0000 N   0  0  0  0  0  0  0  0  0  0  0  0
   -7.0211    7.0537    0.0000 C   0  0  0  0  0  0  0  0  0  0  0  0
   -8.3202    6.3037    0.0000 C   0  0  0  0  0  0  0  0  0  0  0  0
   -9.6192    7.0537    0.0000 C   0  0  0  0  0  0  0  0  0  0  0  0
  -10.9182    6.3037    0.0000 C   0  0  0  0  0  0  0  0  0  0  0  0
  -10.9182    4.8037    0.0000 C   0  0  0  0  0  0  0  0  0  0  0  0
   -9.6192    4.0537    0.0000 C   0  0  0  0  0  0  0  0  0  0  0  0
   -9.6192    2.5537    0.0000 I   0  0  0  0  0  0  0  0  0  0  0  0
   -8.3202    4.8037    0.0000 C   0  0  0  0  0  0  0  0  0  0  0  0
   -7.0211    4.0537    0.0000 C   0  0  0  0  0  0  0  0  0  0  0  0
   -7.0211    2.5537    0.0000 C   0  0  0  0  0  0  0  0  0  0  0  0
   -5.7221    1.8037    0.0000 C   0  0  0  0  0  0  0  0  0  0  0  0
   -5.7221    0.3037    0.0000 O   0  0  0  0  0  0  0  0  0  0  0  0
   -1.7537    2.4138    0.0000 N   0  0  0  0  0  0  0  0  0  0  0  0
   -0.7500    1.2990    0.0000 C   0  0  0  0  0  0  0  0  0  0  0  0
    0.7500    1.2990    0.0000 C   0  0  0  0  0  0  0  0  0  0  0  0
  1  2  1  0
  2  3  1  0
  3  4  2  0
  4  5  1  0
  5  6  2  0
  6  7  1  0
  7  8  1  0
  8  9  1  0
  9 10  2  0
 10 11  1  0
 11 12  1  0
 12 13  2  0
 13 14  1  0
 14 15  2  0
 15 16  1  0
 16 17  2  0
 17 18  1  0
 18 19  1  0
 18 20  2  0
 11 21  2  0
 21 22  1  0
 22 23  2  0
 23 24  1  0
  8 25  2  0
 25 26  1  0
 26 27  2  0
 27  3  1  0
 26  6  1  0
 23  9  1  0
 20 14  1  0
M  END
>  <Compound_ID>  (734) 
C15134332

>  <Active>  (734) 
0.0

>  <Smiles>  (734) 
CCc1ccc2oc(-c3cc(/N=C\c4cccc(I)c4)ccc3O)nc2c1

>  <canonical_smi>  (734) 
CCc1ccc2oc(-c3cc(/N=C\c4cccc(I)c4)ccc3O)nc2c1

>  <Set>  (734) 
G2 inactive

>  <Set_type>  (734) 
Train

>  <MW>  (734) 
468.29

>  <HBD>  (734) 
1

>  <HBA>  (734) 
3

>  <NRB>  (734) 
4

>  <NR>  (734) 
4

>  <NAR>  (734) 
4

>  <PSA>  (734) 
58.62

>  <Standard Type>  (734) 
nan

>  <Standard Relation>  (734) 
nan

>  <Standard Units>  (734) 
nan

>  <Standard Value>  (734) 
nan

>  <Assay ChEMBL ID>  (734) 
nan

>  <Assay Description>  (734) 
nan

>  <BAO Label>  (734) 
nan

$$$$

     RDKit          2D

 36 39  0  0  0  0  0  0  0  0999 V2000
   -8.7674    0.7293    0.0000 C   0  0  0  0  0  0  0  0  0  0  0  0
   -7.4797    1.4986    0.0000 C   0  0  0  0  0  0  0  0  0  0  0  0
   -7.5022    2.9984    0.0000 C   0  0  0  0  0  0  0  0  0  0  0  0
   -6.1696    0.7681    0.0000 N   0  0  0  0  0  0  0  0  0  0  0  0
   -4.8819    1.5375    0.0000 C   0  0  0  0  0  0  0  0  0  0  0  0
   -4.9044    3.0373    0.0000 O   0  0  0  0  0  0  0  0  0  0  0  0
   -3.5718    0.8070    0.0000 C   0  0  0  0  0  0  0  0  0  0  0  0
   -2.2841    1.5763    0.0000 N   0  0  0  0  0  0  0  0  0  0  0  0
   -2.4186    3.0703    0.0000 C   0  0  0  0  0  0  0  0  0  0  0  0
   -3.8230    3.5974    0.0000 O   0  0  0  0  0  0  0  0  0  0  0  0
   -1.3344    4.1069    0.0000 C   0  0  0  0  0  0  0  0  0  0  0  0
    0.1520    3.9056    0.0000 S   0  0  0  0  0  0  0  0  0  0  0  0
    0.9214    2.6179    0.0000 C   0  0  0  0  0  0  0  0  0  0  0  0
    2.4153    2.7523    0.0000 C   0  0  0  0  0  0  0  0  0  0  0  0
    3.2787    1.5258    0.0000 C   0  0  0  0  0  0  0  0  0  0  0  0
    4.7727    1.6602    0.0000 C   0  0  0  0  0  0  0  0  0  0  0  0
    5.4032    3.0213    0.0000 C   0  0  0  0  0  0  0  0  0  0  0  0
    4.5398    4.2478    0.0000 C   0  0  0  0  0  0  0  0  0  0  0  0
    3.0459    4.1134    0.0000 C   0  0  0  0  0  0  0  0  0  0  0  0
    2.1824    5.3400    0.0000 F   0  0  0  0  0  0  0  0  0  0  0  0
    0.3943    1.2135    0.0000 C   0  0  0  0  0  0  0  0  0  0  0  0
    1.2760    0.0000    0.0000 C   0  0  0  0  0  0  0  0  0  0  0  0
    2.7760    0.0000    0.0000 C   0  0  0  0  0  0  0  0  0  0  0  0
    2.9903    0.8594    0.0000 C   0  0  0  0  0  0  0  0  0  0  0  0
    2.7760   -1.5000    0.0000 C   0  0  0  0  0  0  0  0  0  0  0  0
    4.2760    0.0000    0.0000 C   0  0  0  0  0  0  0  0  0  0  0  0
    0.3943   -1.2135    0.0000 N   0  0  0  0  0  0  0  0  0  0  0  0
   -1.0323   -0.7500    0.0000 N   0  0  0  0  0  0  0  0  0  0  0  0
   -2.2458   -1.6317    0.0000 C   0  0  0  0  0  0  0  0  0  0  0  0
   -3.6161   -1.0216    0.0000 C   0  0  0  0  0  0  0  0  0  0  0  0
   -4.8297   -1.9033    0.0000 C   0  0  0  0  0  0  0  0  0  0  0  0
   -4.6729   -3.3950    0.0000 C   0  0  0  0  0  0  0  0  0  0  0  0
   -3.3025   -4.0051    0.0000 C   0  0  0  0  0  0  0  0  0  0  0  0
   -3.1458   -5.4969    0.0000 Cl  0  0  0  0  0  0  0  0  0  0  0  0
   -2.0890   -3.1235    0.0000 C   0  0  0  0  0  0  0  0  0  0  0  0
   -1.0323    0.7500    0.0000 C   0  0  0  0  0  0  0  0  0  0  0  0
  1  2  1  0
  2  3  1  0
  2  4  1  0
  4  5  1  0
  5  6  2  0
  5  7  1  0
  7  8  1  0
  8  9  1  0
  9 10  2  0
  9 11  1  0
 11 12  1  0
 12 13  1  0
 13 14  1  1
 14 15  2  0
 15 16  1  0
 16 17  2  0
 17 18  1  0
 18 19  2  0
 19 20  1  0
 13 21  1  0
 21 22  1  0
 22 23  1  0
 23 24  1  0
 23 25  1  0
 23 26  1  0
 22 27  2  0
 27 28  1  0
 28 29  1  0
 29 30  2  0
 30 31  1  0
 31 32  2  0
 32 33  1  0
 33 34  1  0
 33 35  2  0
 28 36  1  0
 36  8  1  0
 19 14  1  0
 36 21  2  0
 35 29  1  0
M  END
>  <Compound_ID>  (735) 
C35594682

>  <Active>  (735) 
0.0

>  <Smiles>  (735) 
CC(C)NC(=O)CN1C(=O)CS[C@@H](c2ccccc2F)c2c(C(C)(C)C)nn(-c3cccc(Cl)c3)c21

>  <canonical_smi>  (735) 
CC(C)NC(=O)CN1C(=O)CS[C@@H](c2ccccc2F)c2c(C(C)(C)C)nn(-c3cccc(Cl)c3)c21

>  <Set>  (735) 
G2 inactive

>  <Set_type>  (735) 
Train

>  <MW>  (735) 
529.08

>  <HBD>  (735) 
1

>  <HBA>  (735) 
4

>  <NRB>  (735) 
5

>  <NR>  (735) 
4

>  <NAR>  (735) 
3

>  <PSA>  (735) 
67.23

>  <Standard Type>  (735) 
nan

>  <Standard Relation>  (735) 
nan

>  <Standard Units>  (735) 
nan

>  <Standard Value>  (735) 
nan

>  <Assay ChEMBL ID>  (735) 
nan

>  <Assay Description>  (735) 
nan

>  <BAO Label>  (735) 
nan

$$$$

     RDKit          2D

 34 38  0  0  0  0  0  0  0  0999 V2000
   -2.3536   -9.2728    0.0000 O   0  0  0  0  0  0  0  0  0  0  0  0
   -2.0418   -7.8055    0.0000 C   0  0  0  0  0  0  0  0  0  0  0  0
   -0.6715   -7.1954    0.0000 C   0  0  0  0  0  0  0  0  0  0  0  0
   -0.8282   -5.7037    0.0000 C   0  0  0  0  0  0  0  0  0  0  0  0
    0.2865   -4.7000    0.0000 N   0  0  0  0  0  0  0  0  0  0  0  0
    0.1297   -3.2082    0.0000 O   0  0  0  0  0  0  0  0  0  0  0  0
    1.5000   -2.5981    0.0000 C   0  0  0  0  0  0  0  0  0  0  0  0
    2.7135   -1.7164    0.0000 O   0  0  0  0  0  0  0  0  0  0  0  0
    0.7500   -1.2990    0.0000 C   0  0  0  0  0  0  0  0  0  0  0  0
    1.5000    0.0000    0.0000 C   0  0  0  0  0  0  0  0  0  0  0  0
    0.7500    1.2990    0.0000 C   0  0  0  0  0  0  0  0  0  0  0  0
   -0.7500    1.2990    0.0000 C   0  0  0  0  0  0  0  0  0  0  0  0
   -1.5000    2.5981    0.0000 Br  0  0  0  0  0  0  0  0  0  0  0  0
   -1.5000    0.0000    0.0000 C   0  0  0  0  0  0  0  0  0  0  0  0
   -0.7500   -1.2990    0.0000 C   0  0  0  0  0  0  0  0  0  0  0  0
    2.5037   -3.7128    0.0000 C   0  0  0  0  0  0  0  0  0  0  0  0
    1.7537   -5.0118    0.0000 C   0  0  0  0  0  0  0  0  0  0  0  0
    2.3638   -6.3821    0.0000 C   0  0  0  0  0  0  0  0  0  0  0  0
    1.4821   -7.5957    0.0000 C   0  0  0  0  0  0  0  0  0  0  0  0
    2.0922   -8.9660    0.0000 C   0  0  0  0  0  0  0  0  0  0  0  0
    3.5840   -9.1228    0.0000 C   0  0  0  0  0  0  0  0  0  0  0  0
    4.4657   -7.9093    0.0000 C   0  0  0  0  0  0  0  0  0  0  0  0
    3.8556   -6.5389    0.0000 C   0  0  0  0  0  0  0  0  0  0  0  0
   -2.2955   -5.3918    0.0000 C   0  0  0  0  0  0  0  0  0  0  0  0
   -2.9056   -4.0215    0.0000 O   0  0  0  0  0  0  0  0  0  0  0  0
   -3.0455   -6.6908    0.0000 N   0  0  0  0  0  0  0  0  0  0  0  0
   -4.5372   -6.8476    0.0000 C   0  0  0  0  0  0  0  0  0  0  0  0
   -5.4189   -5.6341    0.0000 C   0  0  0  0  0  0  0  0  0  0  0  0
   -6.9107   -5.7909    0.0000 C   0  0  0  0  0  0  0  0  0  0  0  0
   -7.5208   -7.1612    0.0000 C   0  0  0  0  0  0  0  0  0  0  0  0
   -9.0126   -7.3180    0.0000 Cl  0  0  0  0  0  0  0  0  0  0  0  0
   -6.6391   -8.3747    0.0000 C   0  0  0  0  0  0  0  0  0  0  0  0
   -7.2492   -9.7451    0.0000 Cl  0  0  0  0  0  0  0  0  0  0  0  0
   -5.1474   -8.2179    0.0000 C   0  0  0  0  0  0  0  0  0  0  0  0
  1  2  2  0
  2  3  1  0
  3  4  1  0
  4  5  1  1
  5  6  1  0
  6  7  1  0
  7  8  1  1
  7  9  1  0
  9 10  2  0
 10 11  1  0
 11 12  2  0
 12 13  1  0
 12 14  1  0
 14 15  2  0
  7 16  1  0
 16 17  1  0
 17 18  1  6
 18 19  2  0
 19 20  1  0
 20 21  2  0
 21 22  1  0
 22 23  2  0
  4 24  1  0
 24 25  2  0
 24 26  1  0
 26 27  1  0
 27 28  2  0
 28 29  1  0
 29 30  2  0
 30 31  1  0
 30 32  1  0
 32 33  1  0
 32 34  2  0
 26  2  1  0
 34 27  1  0
 17  5  1  0
 23 18  1  0
 15  9  1  0
M  END
>  <Compound_ID>  (736) 
C01873548

>  <Active>  (736) 
0.0

>  <Smiles>  (736) 
O=C1C[C@H](N2O[C@](O)(c3ccc(Br)cc3)C[C@@H]2c2ccccc2)C(=O)N1c1ccc(Cl)c(Cl)c1

>  <canonical_smi>  (736) 
O=C1C[C@H](N2O[C@](O)(c3ccc(Br)cc3)C[C@@H]2c2ccccc2)C(=O)N1c1ccc(Cl)c(Cl)c1

>  <Set>  (736) 
G2 inactive

>  <Set_type>  (736) 
Train

>  <MW>  (736) 
562.25

>  <HBD>  (736) 
1

>  <HBA>  (736) 
5

>  <NRB>  (736) 
4

>  <NR>  (736) 
5

>  <NAR>  (736) 
3

>  <PSA>  (736) 
70.08

>  <Standard Type>  (736) 
nan

>  <Standard Relation>  (736) 
nan

>  <Standard Units>  (736) 
nan

>  <Standard Value>  (736) 
nan

>  <Assay ChEMBL ID>  (736) 
nan

>  <Assay Description>  (736) 
nan

>  <BAO Label>  (736) 
nan

$$$$

     RDKit          2D

 32 36  0  0  0  0  0  0  0  0999 V2000
   -7.5000   -2.5981    0.0000 C   0  0  0  0  0  0  0  0  0  0  0  0
   -6.0000   -2.5981    0.0000 C   0  0  0  0  0  0  0  0  0  0  0  0
   -5.2500   -3.8971    0.0000 O   0  0  0  0  0  0  0  0  0  0  0  0
   -3.7500   -3.8971    0.0000 C   0  0  0  0  0  0  0  0  0  0  0  0
   -3.0000   -2.5981    0.0000 C   0  0  0  0  0  0  0  0  0  0  0  0
   -1.5000   -2.5981    0.0000 C   0  0  0  0  0  0  0  0  0  0  0  0
   -0.7500   -3.8971    0.0000 C   0  0  0  0  0  0  0  0  0  0  0  0
   -1.5000   -5.1962    0.0000 C   0  0  0  0  0  0  0  0  0  0  0  0
   -3.0000   -5.1962    0.0000 C   0  0  0  0  0  0  0  0  0  0  0  0
   -3.7500   -6.4952    0.0000 C   0  0  0  0  0  0  0  0  0  0  0  0
   -5.2500   -6.4952    0.0000 C   0  0  0  0  0  0  0  0  0  0  0  0
   -6.0000   -7.7942    0.0000 C   0  0  0  0  0  0  0  0  0  0  0  0
   -5.2500   -9.0933    0.0000 C   0  0  0  0  0  0  0  0  0  0  0  0
   -3.7500   -9.0933    0.0000 C   0  0  0  0  0  0  0  0  0  0  0  0
   -3.0000   -7.7942    0.0000 C   0  0  0  0  0  0  0  0  0  0  0  0
   -1.5000   -7.7942    0.0000 O   0  0  0  0  0  0  0  0  0  0  0  0
    0.7500   -3.8971    0.0000 C   0  0  0  0  0  0  0  0  0  0  0  0
    1.5000   -2.5981    0.0000 C   0  0  0  0  0  0  0  0  0  0  0  0
    0.7500   -1.2990    0.0000 N   0  0  0  0  0  0  0  0  0  0  0  0
    1.5000    0.0000    0.0000 N   0  0  0  0  0  0  0  0  0  0  0  0
    0.7500    1.2990    0.0000 P   0  0  0  0  0  5  0  0  0  0  0  0
    2.1595    1.8121    0.0000 O   0  0  0  0  0  0  0  0  0  0  0  0
    0.4895    2.7762    0.0000 C   0  0  0  0  0  0  0  0  0  0  0  0
    1.6386    3.7404    0.0000 C   0  0  0  0  0  0  0  0  0  0  0  0
    1.3781    5.2176    0.0000 C   0  0  0  0  0  0  0  0  0  0  0  0
   -0.0314    5.7307    0.0000 C   0  0  0  0  0  0  0  0  0  0  0  0
   -1.1805    4.7665    0.0000 C   0  0  0  0  0  0  0  0  0  0  0  0
   -0.9200    3.2893    0.0000 C   0  0  0  0  0  0  0  0  0  0  0  0
   -2.0691    2.3251    0.0000 O   0  0  0  0  0  0  0  0  0  0  0  0
   -0.7500    1.2990    0.0000 O   0  0  0  0  0  0  0  0  0  0  0  0
   -1.5000    0.0000    0.0000 C   0  0  0  0  0  0  0  0  0  0  0  0
   -0.7500   -1.2990    0.0000 C   0  0  0  0  0  0  0  0  0  0  0  0
  1  2  1  0
  2  3  1  0
  3  4  1  0
  4  5  2  0
  5  6  1  0
  6  7  2  0
  7  8  1  0
  8  9  2  0
  9 10  1  0
 10 11  2  0
 11 12  1  0
 12 13  2  0
 13 14  1  0
 14 15  2  0
 15 16  1  0
  7 17  1  0
 17 18  1  0
 18 19  1  0
 19 20  1  0
 20 21  1  0
 21 22  2  0
 21 23  1  6
 23 24  2  0
 24 25  1  0
 25 26  2  0
 26 27  1  0
 27 28  2  0
 28 29  1  0
 21 30  1  0
 30 31  1  0
 32 31  1  1
  9  4  1  0
 15 10  1  0
 32 19  1  0
 32  6  1  0
 28 23  1  0
M  END
>  <Compound_ID>  (737) 
C39464289

>  <Active>  (737) 
0.0

>  <Smiles>  (737) 
CCOc1cc2c(cc1-c1ccccc1O)CCN1N[P@@](=O)(c3ccccc3O)OC[C@H]21

>  <canonical_smi>  (737) 
CCOc1cc2c(cc1-c1ccccc1O)CCN1N[P@@](=O)(c3ccccc3O)OC[C@H]21

>  <Set>  (737) 
G2 inactive

>  <Set_type>  (737) 
Train

>  <MW>  (737) 
452.45

>  <HBD>  (737) 
3

>  <HBA>  (737) 
7

>  <NRB>  (737) 
4

>  <NR>  (737) 
5

>  <NAR>  (737) 
3

>  <PSA>  (737) 
91.26

>  <Standard Type>  (737) 
nan

>  <Standard Relation>  (737) 
nan

>  <Standard Units>  (737) 
nan

>  <Standard Value>  (737) 
nan

>  <Assay ChEMBL ID>  (737) 
nan

>  <Assay Description>  (737) 
nan

>  <BAO Label>  (737) 
nan

$$$$

     RDKit          2D

 31 35  0  0  0  0  0  0  0  0999 V2000
   -3.7186    8.0762    0.0000 C   0  0  0  0  0  0  0  0  0  0  0  0
   -3.0846    9.4356    0.0000 C   0  0  0  0  0  0  0  0  0  0  0  0
   -3.9663   10.6491    0.0000 N   0  0  0  0  0  0  0  0  0  0  0  0
   -3.0846   11.8627    0.0000 N   0  0  0  0  0  0  0  0  0  0  0  0
   -3.5481   13.2892    0.0000 C   0  0  0  0  0  0  0  0  0  0  0  0
   -5.0154   13.6011    0.0000 C   0  0  0  0  0  0  0  0  0  0  0  0
   -5.4789   15.0277    0.0000 C   0  0  0  0  0  0  0  0  0  0  0  0
   -4.4752   16.1424    0.0000 C   0  0  0  0  0  0  0  0  0  0  0  0
   -3.0080   15.8306    0.0000 C   0  0  0  0  0  0  0  0  0  0  0  0
   -2.5444   14.4040    0.0000 C   0  0  0  0  0  0  0  0  0  0  0  0
   -1.6580   11.3991    0.0000 C   0  0  0  0  0  0  0  0  0  0  0  0
   -0.4445   12.2808    0.0000 Cl  0  0  0  0  0  0  0  0  0  0  0  0
   -1.6580    9.8991    0.0000 C   0  0  0  0  0  0  0  0  0  0  0  0
   -0.4445    9.0175    0.0000 C   0  0  0  0  0  0  0  0  0  0  0  0
   -0.6013    7.5257    0.0000 N   0  0  0  0  0  0  0  0  0  0  0  0
   -1.9003    6.7757    0.0000 C   0  0  0  0  0  0  0  0  0  0  0  0
   -3.3348    7.2142    0.0000 O   0  0  0  0  0  0  0  0  0  0  0  0
   -1.5885    5.3085    0.0000 N   0  0  0  0  0  0  0  0  0  0  0  0
   -0.0967    5.1517    0.0000 C   0  0  0  0  0  0  0  0  0  0  0  0
    1.3299    4.6881    0.0000 C   0  0  0  0  0  0  0  0  0  0  0  0
   -0.4086    3.6844    0.0000 C   0  0  0  0  0  0  0  0  0  0  0  0
   -1.8351    3.2209    0.0000 C   0  0  0  0  0  0  0  0  0  0  0  0
   -2.1470    1.7537    0.0000 C   0  0  0  0  0  0  0  0  0  0  0  0
   -1.0323    0.7500    0.0000 C   0  0  0  0  0  0  0  0  0  0  0  0
    0.3943    1.2135    0.0000 C   0  0  0  0  0  0  0  0  0  0  0  0
    0.7062    2.6807    0.0000 C   0  0  0  0  0  0  0  0  0  0  0  0
    1.2760    0.0000    0.0000 C   0  0  0  0  0  0  0  0  0  0  0  0
    0.3943   -1.2135    0.0000 C   0  0  0  0  0  0  0  0  0  0  0  0
   -1.0323   -0.7500    0.0000 C   0  0  0  0  0  0  0  0  0  0  0  0
    0.5134    6.5220    0.0000 C   0  0  0  0  0  0  0  0  0  0  0  0
    1.9806    6.8338    0.0000 O   0  0  0  0  0  0  0  0  0  0  0  0
  1  2  1  0
  2  3  2  0
  3  4  1  0
  4  5  1  0
  5  6  2  0
  6  7  1  0
  7  8  2  0
  8  9  1  0
  9 10  2  0
  4 11  1  0
 11 12  1  0
 11 13  2  0
 13 14  1  0
 14 15  1  0
 15 16  1  0
 16 17  2  0
 16 18  1  0
 18 19  1  0
 19 20  1  1
 19 21  1  0
 21 22  2  0
 22 23  1  0
 23 24  2  0
 24 25  1  0
 25 26  2  0
 25 27  1  0
 27 28  1  0
 28 29  1  0
 19 30  1  0
 30 31  2  0
 13  2  1  0
 30 15  1  0
 10  5  1  0
 26 21  1  0
 29 24  1  0
M  END
>  <Compound_ID>  (738) 
C12624029

>  <Active>  (738) 
0.0

>  <Smiles>  (738) 
Cc1nn(-c2ccccc2)c(Cl)c1CN1C(=O)N[C@@](C)(c2ccc3c(c2)CCC3)C1=O

>  <canonical_smi>  (738) 
Cc1nn(-c2ccccc2)c(Cl)c1CN1C(=O)N[C@@](C)(c2ccc3c(c2)CCC3)C1=O

>  <Set>  (738) 
G2 inactive

>  <Set_type>  (738) 
Train

>  <MW>  (738) 
434.93

>  <HBD>  (738) 
1

>  <HBA>  (738) 
3

>  <NRB>  (738) 
4

>  <NR>  (738) 
5

>  <NAR>  (738) 
3

>  <PSA>  (738) 
67.23

>  <Standard Type>  (738) 
nan

>  <Standard Relation>  (738) 
nan

>  <Standard Units>  (738) 
nan

>  <Standard Value>  (738) 
nan

>  <Assay ChEMBL ID>  (738) 
nan

>  <Assay Description>  (738) 
nan

>  <BAO Label>  (738) 
nan

$$$$

     RDKit          2D

 30 34  0  0  0  0  0  0  0  0999 V2000
   10.1310  -12.9172    0.0000 C   0  0  0  0  0  0  0  0  0  0  0  0
   10.7411  -11.5469    0.0000 C   0  0  0  0  0  0  0  0  0  0  0  0
    9.8595  -10.3334    0.0000 C   0  0  0  0  0  0  0  0  0  0  0  0
   10.4696   -8.9631    0.0000 N   0  0  0  0  0  0  0  0  0  0  0  0
    9.5879   -7.7495    0.0000 C   0  0  0  0  0  0  0  0  0  0  0  0
    8.0961   -7.9063    0.0000 C   0  0  0  0  0  0  0  0  0  0  0  0
    7.3461   -9.2054    0.0000 C   0  0  0  0  0  0  0  0  0  0  0  0
    5.8789   -8.8935    0.0000 S   0  0  0  0  0  0  0  0  0  0  0  0
    5.7221   -7.4017    0.0000 C   0  0  0  0  0  0  0  0  0  0  0  0
    4.4231   -6.6517    0.0000 N   0  0  0  0  0  0  0  0  0  0  0  0
    4.4231   -5.1517    0.0000 C   0  0  0  0  0  0  0  0  0  0  0  0
    5.7221   -4.4017    0.0000 O   0  0  0  0  0  0  0  0  0  0  0  0
    3.1240   -4.4017    0.0000 C   0  0  0  0  0  0  0  0  0  0  0  0
    1.7537   -5.0118    0.0000 C   0  0  0  0  0  0  0  0  0  0  0  0
    0.7500   -3.8971    0.0000 C   0  0  0  0  0  0  0  0  0  0  0  0
    1.5000   -2.5981    0.0000 C   0  0  0  0  0  0  0  0  0  0  0  0
    2.9672   -2.9099    0.0000 S   0  0  0  0  0  0  0  0  0  0  0  0
    0.7500   -1.2990    0.0000 C   0  0  0  0  0  0  0  0  0  0  0  0
    1.5000    0.0000    0.0000 C   0  0  0  0  0  0  0  0  0  0  0  0
    0.7500    1.2990    0.0000 C   0  0  0  0  0  0  0  0  0  0  0  0
   -0.7500    1.2990    0.0000 C   0  0  0  0  0  0  0  0  0  0  0  0
   -1.5000    0.0000    0.0000 C   0  0  0  0  0  0  0  0  0  0  0  0
   -0.7500   -1.2990    0.0000 C   0  0  0  0  0  0  0  0  0  0  0  0
   -1.5000   -2.5981    0.0000 O   0  0  0  0  0  0  0  0  0  0  0  0
   -0.7500   -3.8971    0.0000 C   0  0  0  0  0  0  0  0  0  0  0  0
    7.0924   -6.7916    0.0000 N   0  0  0  0  0  0  0  0  0  0  0  0
   11.9613   -8.8063    0.0000 C   0  0  0  0  0  0  0  0  0  0  0  0
   12.8430  -10.0198    0.0000 C   0  0  0  0  0  0  0  0  0  0  0  0
   14.3348   -9.8630    0.0000 C   0  0  0  0  0  0  0  0  0  0  0  0
   12.2329  -11.3901    0.0000 O   0  0  0  0  0  0  0  0  0  0  0  0
  2  1  1  6
  2  3  1  0
  3  4  1  0
  4  5  1  0
  5  6  1  0
  6  7  2  0
  7  8  1  0
  8  9  1  0
  9 10  1  0
 10 11  2  0
 11 12  1  0
 11 13  1  0
 13 14  2  0
 14 15  1  0
 15 16  2  0
 16 17  1  0
 16 18  1  0
 18 19  2  0
 19 20  1  0
 20 21  2  0
 21 22  1  0
 22 23  2  0
 23 24  1  0
 24 25  1  0
  9 26  2  0
  4 27  1  0
 27 28  1  0
 28 29  1  6
 28 30  1  0
 30  2  1  0
 26  6  1  0
 17 13  1  0
 23 18  1  0
 25 15  1  0
M  END
>  <Compound_ID>  (739) 
C12765131

>  <Active>  (739) 
0.0

>  <Smiles>  (739) 
C[C@@H]1CN(Cc2csc(/N=C(\O)c3cc4c(s3)-c3ccccc3OC4)n2)C[C@H](C)O1

>  <canonical_smi>  (739) 
C[C@H]1CN(Cc2csc(/N=C(\O)c3cc4c(s3)-c3ccccc3OC4)n2)C[C@@H](C)O1

>  <Set>  (739) 
G2 inactive

>  <Set_type>  (739) 
Train

>  <MW>  (739) 
441.58

>  <HBD>  (739) 
1

>  <HBA>  (739) 
5

>  <NRB>  (739) 
4

>  <NR>  (739) 
5

>  <NAR>  (739) 
3

>  <PSA>  (739) 
67.18

>  <Standard Type>  (739) 
nan

>  <Standard Relation>  (739) 
nan

>  <Standard Units>  (739) 
nan

>  <Standard Value>  (739) 
nan

>  <Assay ChEMBL ID>  (739) 
nan

>  <Assay Description>  (739) 
nan

>  <BAO Label>  (739) 
nan

$$$$

     RDKit          2D

 19 21  0  0  0  0  0  0  0  0999 V2000
   -3.5736    1.2902    0.0000 C   0  0  0  0  0  0  0  0  0  0  0  0
   -2.1470    1.7537    0.0000 C   0  0  0  0  0  0  0  0  0  0  0  0
   -1.8351    3.2209    0.0000 C   0  0  0  0  0  0  0  0  0  0  0  0
   -0.4086    3.6844    0.0000 C   0  0  0  0  0  0  0  0  0  0  0  0
   -1.1128    5.0089    0.0000 C   0  0  0  0  0  0  0  0  0  0  0  0
    0.7735    4.6079    0.0000 C   0  0  0  0  0  0  0  0  0  0  0  0
    0.7062    2.6807    0.0000 N   0  0  0  0  0  0  0  0  0  0  0  0
    0.3943    1.2135    0.0000 C   0  0  0  0  0  0  0  0  0  0  0  0
    1.2760    0.0000    0.0000 S   0  0  0  0  0  0  0  0  0  0  0  0
    0.3943   -1.2135    0.0000 C   0  0  0  0  0  0  0  0  0  0  0  0
    0.8578   -2.6401    0.0000 C   0  0  0  0  0  0  0  0  0  0  0  0
   -0.1459   -3.7548    0.0000 C   0  0  0  0  0  0  0  0  0  0  0  0
    0.3177   -5.1814    0.0000 C   0  0  0  0  0  0  0  0  0  0  0  0
    1.7849   -5.4933    0.0000 C   0  0  0  0  0  0  0  0  0  0  0  0
    2.2484   -6.9199    0.0000 N   0  0  0  0  0  0  0  0  0  0  0  0
    2.7886   -4.3786    0.0000 C   0  0  0  0  0  0  0  0  0  0  0  0
    2.3250   -2.9520    0.0000 C   0  0  0  0  0  0  0  0  0  0  0  0
   -1.0323   -0.7500    0.0000 N   0  0  0  0  0  0  0  0  0  0  0  0
   -1.0323    0.7500    0.0000 N   0  0  0  0  0  0  0  0  0  0  0  0
  1  2  1  0
  2  3  2  0
  3  4  1  0
  4  5  1  0
  4  6  1  0
  4  7  1  0
  7  8  2  0
  8  9  1  0
  9 10  1  0
 10 11  1  0
 11 12  2  0
 12 13  1  0
 13 14  2  0
 14 15  1  0
 14 16  1  0
 16 17  2  0
 10 18  2  0
 18 19  1  0
 19  2  1  0
 19  8  1  0
 17 11  1  0
M  END
>  <Compound_ID>  (740) 
C01626331

>  <Active>  (740) 
0.0

>  <Smiles>  (740) 
CC1=CC(C)(C)N=C2SC(c3ccc(N)cc3)=NN12

>  <canonical_smi>  (740) 
CC1=CC(C)(C)N=C2SC(c3ccc(N)cc3)=NN12

>  <Set>  (740) 
G2 inactive

>  <Set_type>  (740) 
Train

>  <MW>  (740) 
272.38

>  <HBD>  (740) 
1

>  <HBA>  (740) 
3

>  <NRB>  (740) 
1

>  <NR>  (740) 
3

>  <NAR>  (740) 
1

>  <PSA>  (740) 
53.98

>  <Standard Type>  (740) 
nan

>  <Standard Relation>  (740) 
nan

>  <Standard Units>  (740) 
nan

>  <Standard Value>  (740) 
nan

>  <Assay ChEMBL ID>  (740) 
nan

>  <Assay Description>  (740) 
nan

>  <BAO Label>  (740) 
nan

$$$$

     RDKit          2D

 21 25  0  0  0  0  0  0  0  0999 V2000
    3.0000    0.0000    0.0000 C   0  0  0  0  0  0  0  0  0  0  0  0
    1.5000    0.0000    0.0000 C   0  0  0  0  0  0  0  0  0  0  0  0
    0.7500   -1.2990    0.0000 C   0  0  0  0  0  0  0  0  0  0  0  0
   -0.7500   -1.2990    0.0000 C   0  0  0  0  0  0  0  0  0  0  0  0
   -2.2500   -1.2990    0.0000 C   0  0  0  0  0  0  0  0  0  0  0  0
   -3.0000    0.0000    0.0000 C   0  0  0  0  0  0  0  0  0  0  0  0
   -4.5000    0.0000    0.0000 N   0  0  0  0  0  0  0  0  0  0  0  0
   -5.2500    1.2990    0.0000 C   0  0  0  0  0  0  0  0  0  0  0  0
   -6.7172    1.6109    0.0000 O   0  0  0  0  0  0  0  0  0  0  0  0
   -6.8740    3.1027    0.0000 C   0  0  0  0  0  0  0  0  0  0  0  0
   -8.1731    3.8527    0.0000 C   0  0  0  0  0  0  0  0  0  0  0  0
   -9.6731    3.8527    0.0000 C   0  0  0  0  0  0  0  0  0  0  0  0
   -8.9231    5.1517    0.0000 C   0  0  0  0  0  0  0  0  0  0  0  0
   -5.5037    3.7128    0.0000 N   0  0  0  0  0  0  0  0  0  0  0  0
   -4.5000    2.5981    0.0000 C   0  0  0  0  0  0  0  0  0  0  0  0
   -3.0000    2.5981    0.0000 C   0  0  0  0  0  0  0  0  0  0  0  0
   -2.2500    3.8971    0.0000 N   0  0  0  0  0  0  0  0  0  0  0  0
   -2.2500    1.2990    0.0000 C   0  0  0  0  0  0  0  0  0  0  0  0
   -0.7500    1.2990    0.0000 C   0  0  0  0  0  0  0  0  0  0  0  0
    0.7500    1.2990    0.0000 C   0  0  0  0  0  0  0  0  0  0  0  0
   -1.5000    0.0000    0.0000 C   0  0  0  0  0  0  0  0  0  0  0  0
  1  2  1  0
  2  3  2  0
  3  4  1  0
  4  5  1  6
  5  6  1  0
  6  7  1  0
  7  8  2  0
  8  9  1  0
  9 10  1  0
 10 11  1  0
 11 12  1  0
 12 13  1  0
 10 14  2  0
 14 15  1  0
 15 16  2  0
 16 17  1  0
 16 18  1  0
 18 19  1  0
 19 20  1  6
 19 21  1  0
 20  2  1  0
 21  4  1  0
 18  6  2  0
 15  8  1  0
 13 11  1  0
M  END
>  <Compound_ID>  (741) 
C45285656

>  <Active>  (741) 
0.0

>  <Smiles>  (741) 
CC1=C[C@@H]2Cc3nc4oc(C5CC5)nc4c(N)c3[C@H](C1)C2

>  <canonical_smi>  (741) 
CC1=C[C@@H]2Cc3nc4oc(C5CC5)nc4c(N)c3[C@H](C1)C2

>  <Set>  (741) 
G2 inactive

>  <Set_type>  (741) 
Train

>  <MW>  (741) 
281.36

>  <HBD>  (741) 
1

>  <HBA>  (741) 
4

>  <NRB>  (741) 
1

>  <NR>  (741) 
5

>  <NAR>  (741) 
2

>  <PSA>  (741) 
64.94

>  <Standard Type>  (741) 
nan

>  <Standard Relation>  (741) 
nan

>  <Standard Units>  (741) 
nan

>  <Standard Value>  (741) 
nan

>  <Assay ChEMBL ID>  (741) 
nan

>  <Assay Description>  (741) 
nan

>  <BAO Label>  (741) 
nan

$$$$

     RDKit          2D

 21 22  0  0  0  0  0  0  0  0999 V2000
    3.0000    0.0000    0.0000 C   0  0  0  0  0  0  0  0  0  0  0  0
    1.5000    0.0000    0.0000 C   0  0  0  0  0  0  0  0  0  0  0  0
    0.7500   -1.2990    0.0000 C   0  0  0  0  0  0  0  0  0  0  0  0
   -0.7500   -1.2990    0.0000 C   0  0  0  0  0  0  0  0  0  0  0  0
   -1.5000    0.0000    0.0000 C   0  0  0  0  0  0  0  0  0  0  0  0
   -3.0000    0.0000    0.0000 Cl  0  0  0  0  0  0  0  0  0  0  0  0
   -0.7500    1.2990    0.0000 C   0  0  0  0  0  0  0  0  0  0  0  0
    0.7500    1.2990    0.0000 C   0  0  0  0  0  0  0  0  0  0  0  0
    1.5000    2.5981    0.0000 N   0  0  0  0  0  0  0  0  0  0  0  0
    0.7500    3.8971    0.0000 C   0  0  0  0  0  0  0  0  0  0  0  0
    1.5000    5.1962    0.0000 C   0  0  0  0  0  0  0  0  0  0  0  0
    0.7500    6.4952    0.0000 C   0  0  0  0  0  0  0  0  0  0  0  0
   -0.7500    6.4952    0.0000 C   0  0  0  0  0  0  0  0  0  0  0  0
   -1.5000    7.7942    0.0000 N   0  0  0  0  0  0  0  0  0  0  0  0
   -1.5000    5.1962    0.0000 C   0  0  0  0  0  0  0  0  0  0  0  0
   -3.0000    5.1962    0.0000 O   0  0  0  0  0  0  0  0  0  0  0  0
   -3.7500    3.8971    0.0000 C   0  0  0  0  0  0  0  0  0  0  0  0
   -5.2500    3.8971    0.0000 C   0  0  0  0  0  0  0  0  0  0  0  0
   -6.0000    2.5981    0.0000 C   0  0  0  0  0  0  0  0  0  0  0  0
   -6.0000    5.1962    0.0000 C   0  0  0  0  0  0  0  0  0  0  0  0
   -0.7500    3.8971    0.0000 N   0  0  0  0  0  0  0  0  0  0  0  0
  1  2  1  0
  2  3  2  0
  3  4  1  0
  4  5  2  0
  5  6  1  0
  5  7  1  0
  7  8  2  0
  8  9  1  0
  9 10  1  0
 10 11  2  0
 11 12  1  0
 12 13  2  0
 13 14  1  0
 13 15  1  0
 15 16  1  0
 16 17  1  0
 17 18  1  0
 18 19  1  0
 18 20  1  0
 15 21  2  0
  8  2  1  0
 21 10  1  0
M  END
>  <Compound_ID>  (742) 
C37067872

>  <Active>  (742) 
0.0

>  <Smiles>  (742) 
Cc1ccc(Cl)cc1Nc1ccc(N)c(OCC(C)C)n1

>  <canonical_smi>  (742) 
Cc1ccc(Cl)cc1Nc1ccc(N)c(OCC(C)C)n1

>  <Set>  (742) 
G2 inactive

>  <Set_type>  (742) 
Train

>  <MW>  (742) 
305.81

>  <HBD>  (742) 
2

>  <HBA>  (742) 
4

>  <NRB>  (742) 
5

>  <NR>  (742) 
2

>  <NAR>  (742) 
2

>  <PSA>  (742) 
60.17

>  <Standard Type>  (742) 
nan

>  <Standard Relation>  (742) 
nan

>  <Standard Units>  (742) 
nan

>  <Standard Value>  (742) 
nan

>  <Assay ChEMBL ID>  (742) 
nan

>  <Assay Description>  (742) 
nan

>  <BAO Label>  (742) 
nan

$$$$

     RDKit          2D

 25 29  0  0  0  0  0  0  0  0999 V2000
   -1.5000   -2.5981    0.0000 N   0  0  0  0  0  0  0  0  0  0  0  0
   -0.7500   -3.8971    0.0000 C   0  0  0  0  0  0  0  0  0  0  0  0
    0.7500   -3.8971    0.0000 C   0  0  0  0  0  0  0  0  0  0  0  0
    1.5000   -2.5981    0.0000 N   0  0  0  0  0  0  0  0  0  0  0  0
    0.7500   -1.2990    0.0000 C   0  0  0  0  0  0  0  0  0  0  0  0
    1.5000    0.0000    0.0000 C   0  0  0  0  0  0  0  0  0  0  0  0
    0.7500    1.2990    0.0000 C   0  0  0  0  0  0  0  0  0  0  0  0
   -0.7500    1.2990    0.0000 C   0  0  0  0  0  0  0  0  0  0  0  0
   -1.5000    0.0000    0.0000 C   0  0  0  0  0  0  0  0  0  0  0  0
    1.7010   -0.7500    0.0000 C   0  0  0  0  0  0  0  0  0  0  0  0
    3.0000   -0.0000    0.0000 C   0  0  0  0  0  0  0  0  0  0  0  0
    2.2500    1.2990    0.0000 C   0  0  0  0  0  0  0  0  0  0  0  0
    2.2500   -1.2990    0.0000 C   0  0  0  0  0  0  0  0  0  0  0  0
   -0.7500   -1.2990    0.0000 C   0  0  0  0  0  0  0  0  0  0  0  0
    1.5000   -5.1962    0.0000 N   0  0  0  0  0  0  0  0  0  0  0  0
    0.7500   -6.4952    0.0000 C   0  0  0  0  0  0  0  0  0  0  0  0
   -0.7500   -6.4952    0.0000 N   0  0  0  0  0  0  0  0  0  0  0  0
   -1.5000   -5.1962    0.0000 C   0  0  0  0  0  0  0  0  0  0  0  0
   -3.0000   -5.1962    0.0000 O   0  0  0  0  0  0  0  0  0  0  0  0
   -3.7500   -6.4952    0.0000 C   0  0  0  0  0  0  0  0  0  0  0  0
   -5.2500   -6.4952    0.0000 C   0  0  0  0  0  0  0  0  0  0  0  0
   -6.0000   -7.7942    0.0000 C   0  0  0  0  0  0  0  0  0  0  0  0
   -5.2500   -9.0933    0.0000 C   0  0  0  0  0  0  0  0  0  0  0  0
   -3.7500   -9.0933    0.0000 C   0  0  0  0  0  0  0  0  0  0  0  0
   -3.0000   -7.7942    0.0000 C   0  0  0  0  0  0  0  0  0  0  0  0
  1  2  1  0
  2  3  2  0
  3  4  1  0
  4  5  1  0
  5  6  1  0
  6  7  1  0
  7  8  1  0
  8  9  1  0
  9 10  1  0
 10 11  1  0
 11 12  1  0
 11 13  1  0
  9 14  1  0
  3 15  1  0
 15 16  2  0
 16 17  1  0
 17 18  2  0
 18 19  1  0
 19 20  1  0
 20 21  1  0
 21 22  1  0
 22 23  1  0
 23 24  1  0
 24 25  1  0
 18  2  1  0
 25 20  1  0
 13  5  1  0
 14  5  1  0
 12  7  1  0
M  END
>  <Compound_ID>  (743) 
C40755891

>  <Active>  (743) 
0.0

>  <Smiles>  (743) 
Nc1c(NC23CC4CC(CC(C4)C2)C3)ncnc1OC1CCCCC1

>  <canonical_smi>  (743) 
Nc1c(NC23CC4CC(CC(C4)C2)C3)ncnc1OC1CCCCC1

>  <Set>  (743) 
G2 inactive

>  <Set_type>  (743) 
Train

>  <MW>  (743) 
342.49

>  <HBD>  (743) 
2

>  <HBA>  (743) 
5

>  <NRB>  (743) 
4

>  <NR>  (743) 
6

>  <NAR>  (743) 
1

>  <PSA>  (743) 
73.06

>  <Standard Type>  (743) 
nan

>  <Standard Relation>  (743) 
nan

>  <Standard Units>  (743) 
nan

>  <Standard Value>  (743) 
nan

>  <Assay ChEMBL ID>  (743) 
nan

>  <Assay Description>  (743) 
nan

>  <BAO Label>  (743) 
nan

$$$$

     RDKit          2D

 25 27  0  0  0  0  0  0  0  0999 V2000
    2.4768   -0.1200    0.0000 O   0  0  0  0  0  0  0  0  0  0  0  0
    1.5000    0.0000    0.0000 C   0  0  0  0  0  0  0  0  0  0  0  0
    0.7500   -1.2990    0.0000 C   0  0  0  0  0  0  0  0  0  0  0  0
   -0.7500   -1.2990    0.0000 C   0  0  0  0  0  0  0  0  0  0  0  0
   -1.5000    0.0000    0.0000 C   0  0  0  0  0  0  0  0  0  0  0  0
   -3.0000    0.0000    0.0000 C   0  0  0  0  0  0  0  0  0  0  0  0
   -3.7500    1.2990    0.0000 N   0  0  0  0  0  4  0  0  0  0  0  0
   -5.2500    1.2990    0.0000 C   0  0  0  0  0  0  0  0  0  0  0  0
   -6.0000    2.5981    0.0000 C   0  0  0  0  0  0  0  0  0  0  0  0
   -7.4918    2.7549    0.0000 C   0  0  0  0  0  0  0  0  0  0  0  0
   -7.8037    4.2221    0.0000 C   0  0  0  0  0  0  0  0  0  0  0  0
   -6.5046    4.9721    0.0000 C   0  0  0  0  0  0  0  0  0  0  0  0
   -5.3899    3.9684    0.0000 O   0  0  0  0  0  0  0  0  0  0  0  0
   -0.7500    1.2990    0.0000 C   0  0  0  0  0  0  0  0  0  0  0  0
   -1.5000    2.5981    0.0000 O   0  0  0  0  0  0  0  0  0  0  0  0
    0.7500    1.2990    0.0000 C   0  0  0  0  0  0  0  0  0  0  0  0
    1.5000    2.5981    0.0000 C   0  0  0  0  0  0  0  0  0  0  0  0
    3.0000    2.5981    0.0000 C   0  0  0  0  0  0  0  0  0  0  0  0
    3.7500    1.2990    0.0000 C   0  0  0  0  0  0  0  0  0  0  0  0
    3.3655    0.3931    0.0000 F   0  0  0  0  0  0  0  0  0  0  0  0
    5.2500    1.2990    0.0000 C   0  0  0  0  0  0  0  0  0  0  0  0
    6.0000    2.5981    0.0000 C   0  0  0  0  0  0  0  0  0  0  0  0
    5.2500    3.8971    0.0000 C   0  0  0  0  0  0  0  0  0  0  0  0
    3.7500    3.8971    0.0000 C   0  0  0  0  0  0  0  0  0  0  0  0
    3.0000    5.1962    0.0000 Cl  0  0  0  0  0  0  0  0  0  0  0  0
  1  2  1  0
  2  3  2  0
  3  4  1  0
  4  5  2  0
  5  6  1  0
  6  7  2  0
  7  8  1  0
  8  9  1  0
  9 10  2  0
 10 11  1  0
 11 12  2  0
 12 13  1  0
  5 14  1  0
 14 15  1  0
 14 16  2  0
 16 17  1  0
 17 18  1  0
 18 19  2  0
 19 20  1  0
 19 21  1  0
 21 22  2  0
 22 23  1  0
 23 24  2  0
 24 25  1  0
 16  2  1  0
 24 18  1  0
 13  9  1  0
M  CHG  1   7   1
M  END
>  <Compound_ID>  (744) 
C01392569

>  <Active>  (744) 
0.0

>  <Smiles>  (744) 
Oc1ccc(/C=[NH+]/Cc2ccco2)c(O)c1Cc1c(F)cccc1Cl

>  <canonical_smi>  (744) 
Oc1ccc(/C=[NH+]/Cc2ccco2)c(O)c1Cc1c(F)cccc1Cl

>  <Set>  (744) 
G2 inactive

>  <Set_type>  (744) 
Train

>  <MW>  (744) 
360.79

>  <HBD>  (744) 
3

>  <HBA>  (744) 
3

>  <NRB>  (744) 
5

>  <NR>  (744) 
3

>  <NAR>  (744) 
3

>  <PSA>  (744) 
67.57

>  <Standard Type>  (744) 
nan

>  <Standard Relation>  (744) 
nan

>  <Standard Units>  (744) 
nan

>  <Standard Value>  (744) 
nan

>  <Assay ChEMBL ID>  (744) 
nan

>  <Assay Description>  (744) 
nan

>  <BAO Label>  (744) 
nan

$$$$

     RDKit          2D

 32 36  0  0  0  0  0  0  0  0999 V2000
    2.6491    0.9642    0.0000 C   0  0  0  0  0  0  0  0  0  0  0  0
    1.5000    0.0000    0.0000 C   0  0  0  0  0  0  0  0  0  0  0  0
    2.6491   -0.9642    0.0000 C   0  0  0  0  0  0  0  0  0  0  0  0
    0.7500   -1.2990    0.0000 C   0  0  0  0  0  0  0  0  0  0  0  0
   -0.7500   -1.2990    0.0000 C   0  0  0  0  0  0  0  0  0  0  0  0
   -1.5000    0.0000    0.0000 C   0  0  0  0  0  0  0  0  0  0  0  0
   -0.7500    1.2990    0.0000 C   0  0  0  0  0  0  0  0  0  0  0  0
   -1.5000    2.5981    0.0000 C   0  0  0  0  0  0  0  0  0  0  0  0
   -2.1766    0.8355    0.0000 C   0  0  0  0  0  0  0  0  0  0  0  0
   -2.1766   -0.6645    0.0000 N   0  0  0  0  0  0  0  0  0  0  0  0
   -3.3901   -1.5462    0.0000 C   0  0  0  0  0  0  0  0  0  0  0  0
   -4.7604   -0.9361    0.0000 N   0  0  0  0  0  0  0  0  0  0  0  0
   -5.9740   -1.8177    0.0000 C   0  0  0  0  0  0  0  0  0  0  0  0
   -5.8172   -3.3095    0.0000 N   0  0  0  0  0  0  0  0  0  0  0  0
   -4.4468   -3.9196    0.0000 C   0  0  0  0  0  0  0  0  0  0  0  0
   -4.2901   -5.4114    0.0000 N   0  0  0  0  0  0  0  0  0  0  0  0
   -5.5036   -6.2931    0.0000 C   0  0  0  0  0  0  0  0  0  0  0  0
   -5.3468   -7.7849    0.0000 C   0  0  0  0  0  0  0  0  0  0  0  0
   -6.5603   -8.6665    0.0000 C   0  0  0  0  0  0  0  0  0  0  0  0
   -6.4035  -10.1583    0.0000 C   0  0  0  0  0  0  0  0  0  0  0  0
   -5.0332  -10.7684    0.0000 C   0  0  0  0  0  0  0  0  0  0  0  0
   -3.8197   -9.8868    0.0000 C   0  0  0  0  0  0  0  0  0  0  0  0
   -3.9765   -8.3950    0.0000 C   0  0  0  0  0  0  0  0  0  0  0  0
   -6.8739   -5.6830    0.0000 C   0  0  0  0  0  0  0  0  0  0  0  0
   -7.0307   -4.1912    0.0000 C   0  0  0  0  0  0  0  0  0  0  0  0
   -8.4010   -3.5811    0.0000 C   0  0  0  0  0  0  0  0  0  0  0  0
   -9.6145   -4.4628    0.0000 C   0  0  0  0  0  0  0  0  0  0  0  0
   -9.4577   -5.9546    0.0000 C   0  0  0  0  0  0  0  0  0  0  0  0
   -8.0874   -6.5647    0.0000 C   0  0  0  0  0  0  0  0  0  0  0  0
   -3.2333   -3.0379    0.0000 C   0  0  0  0  0  0  0  0  0  0  0  0
   -1.8630   -3.6481    0.0000 N   0  0  0  0  0  0  0  0  0  0  0  0
    0.7500    1.2990    0.0000 C   0  0  0  0  0  0  0  0  0  0  0  0
  1  2  1  0
  2  3  1  0
  2  4  1  0
  5  4  1  1
  5  6  1  0
  6  7  1  0
  7  8  1  6
  7  9  1  0
  9 10  1  0
 10 11  1  0
 11 12  2  0
 12 13  1  0
 13 14  2  0
 14 15  1  0
 15 16  1  0
 16 17  1  0
 17 18  1  0
 18 19  2  0
 19 20  1  0
 20 21  2  0
 21 22  1  0
 22 23  2  0
 17 24  1  0
 24 25  2  0
 25 26  1  0
 26 27  2  0
 27 28  1  0
 28 29  2  0
 15 30  2  0
 30 31  1  0
  7 32  1  0
 32  2  1  0
 10  5  1  0
 30 11  1  0
 23 18  1  0
 29 24  1  0
M  END
>  <Compound_ID>  (745) 
C40735041

>  <Active>  (745) 
0.0

>  <Smiles>  (745) 
CC1(C)C[C@@H]2C[C@@](C)(CN2c2ncnc(NC(c3ccccc3)c3ccccc3)c2N)C1

>  <canonical_smi>  (745) 
CC1(C)C[C@@H]2C[C@@](C)(CN2c2ncnc(NC(c3ccccc3)c3ccccc3)c2N)C1

>  <Set>  (745) 
G2 inactive

>  <Set_type>  (745) 
Train

>  <MW>  (745) 
427.6

>  <HBD>  (745) 
2

>  <HBA>  (745) 
5

>  <NRB>  (745) 
5

>  <NR>  (745) 
5

>  <NAR>  (745) 
3

>  <PSA>  (745) 
67.07

>  <Standard Type>  (745) 
nan

>  <Standard Relation>  (745) 
nan

>  <Standard Units>  (745) 
nan

>  <Standard Value>  (745) 
nan

>  <Assay ChEMBL ID>  (745) 
nan

>  <Assay Description>  (745) 
nan

>  <BAO Label>  (745) 
nan

$$$$

     RDKit          2D

 16 17  0  0  0  0  0  0  0  0999 V2000
    5.7760   -2.5981    0.0000 C   0  0  0  0  0  0  0  0  0  0  0  0
    5.0260   -1.2990    0.0000 C   0  0  0  0  0  0  0  0  0  0  0  0
    3.5260   -1.2990    0.0000 C   0  0  0  0  0  0  0  0  0  0  0  0
    2.7760    0.0000    0.0000 C   0  0  0  0  0  0  0  0  0  0  0  0
    1.2760    0.0000    0.0000 C   0  0  0  0  0  0  0  0  0  0  0  0
    0.3943    1.2135    0.0000 C   0  0  0  0  0  0  0  0  0  0  0  0
   -1.0323    0.7500    0.0000 C   0  0  0  0  0  0  0  0  0  0  0  0
   -2.2458    1.6317    0.0000 C   0  0  0  0  0  0  0  0  0  0  0  0
   -3.6724    1.1682    0.0000 N   0  0  0  0  0  0  0  0  0  0  0  0
   -4.5541    2.3817    0.0000 N   0  0  0  0  0  0  0  0  0  0  0  0
   -3.6724    3.5952    0.0000 C   0  0  0  0  0  0  0  0  0  0  0  0
   -4.1359    5.0218    0.0000 S   0  0  0  0  0  1  0  0  0  0  0  0
   -2.2458    3.1317    0.0000 N   0  0  0  0  0  0  0  0  0  0  0  0
   -1.0323    4.0134    0.0000 N   0  0  0  0  0  0  0  0  0  0  0  0
   -1.0323   -0.7500    0.0000 N   0  0  0  0  0  0  0  0  0  0  0  0
    0.3943   -1.2135    0.0000 N   0  0  0  0  0  0  0  0  0  0  0  0
  1  2  1  0
  2  3  1  0
  3  4  1  0
  4  5  1  0
  5  6  1  0
  6  7  2  0
  7  8  1  0
  8  9  2  0
  9 10  1  0
 10 11  2  0
 11 12  1  0
 11 13  1  0
 13 14  1  0
  7 15  1  0
 15 16  1  0
 16  5  2  0
 13  8  1  0
M  CHG  1  12  -1
M  END
>  <Compound_ID>  (746) 
C26548083

>  <Active>  (746) 
0.0

>  <Smiles>  (746) 
CCCCc1cc(-c2nnc([S-])n2N)[nH]n1

>  <canonical_smi>  (746) 
CCCCc1cc(-c2nnc([S-])n2N)[nH]n1

>  <Set>  (746) 
G2 inactive

>  <Set_type>  (746) 
Train

>  <MW>  (746) 
237.31

>  <HBD>  (746) 
2

>  <HBA>  (746) 
5

>  <NRB>  (746) 
4

>  <NR>  (746) 
2

>  <NAR>  (746) 
2

>  <PSA>  (746) 
85.41

>  <Standard Type>  (746) 
nan

>  <Standard Relation>  (746) 
nan

>  <Standard Units>  (746) 
nan

>  <Standard Value>  (746) 
nan

>  <Assay ChEMBL ID>  (746) 
nan

>  <Assay Description>  (746) 
nan

>  <BAO Label>  (746) 
nan

$$$$

     RDKit          2D

 14 15  0  0  0  0  0  0  0  0999 V2000
   -6.1149    1.8303    0.0000 C   0  0  0  0  0  0  0  0  0  0  0  0
   -4.6883    2.2939    0.0000 C   0  0  0  0  0  0  0  0  0  0  0  0
   -3.5736    1.2902    0.0000 N   0  0  0  0  0  0  0  0  0  0  0  0
   -2.1470    1.7537    0.0000 C   0  0  0  0  0  0  0  0  0  0  0  0
   -1.8351    3.2209    0.0000 N   0  0  0  0  0  0  0  0  0  0  0  0
   -0.4086    3.6844    0.0000 C   0  0  0  0  0  0  0  0  0  0  0  0
   -0.0967    5.1517    0.0000 N   0  0  0  0  0  0  0  0  0  0  0  0
    0.7062    2.6807    0.0000 N   0  0  0  0  0  0  0  0  0  0  0  0
    0.3943    1.2135    0.0000 C   0  0  0  0  0  0  0  0  0  0  0  0
    1.2760    0.0000    0.0000 S   0  0  0  0  0  0  0  0  0  0  0  0
    0.3943   -1.2135    0.0000 C   0  0  0  0  0  0  0  0  0  0  0  0
    0.8578   -2.6401    0.0000 S   0  0  0  0  0  1  0  0  0  0  0  0
   -1.0323   -0.7500    0.0000 N   0  0  0  0  0  0  0  0  0  0  0  0
   -1.0323    0.7500    0.0000 C   0  0  0  0  0  0  0  0  0  0  0  0
  1  2  1  0
  2  3  1  0
  3  4  1  0
  4  5  2  0
  5  6  1  0
  6  7  1  0
  6  8  2  0
  8  9  1  0
  9 10  1  0
 10 11  1  0
 11 12  1  0
 11 13  2  0
 13 14  1  0
 14  4  1  0
 14  9  2  0
M  CHG  1  12  -1
M  END
>  <Compound_ID>  (747) 
C05573873

>  <Active>  (747) 
0.0

>  <Smiles>  (747) 
CCNc1nc(N)nc2sc([S-])nc12

>  <canonical_smi>  (747) 
CCNc1nc(N)nc2sc([S-])nc12

>  <Set>  (747) 
G2 inactive

>  <Set_type>  (747) 
Train

>  <MW>  (747) 
226.31

>  <HBD>  (747) 
2

>  <HBA>  (747) 
6

>  <NRB>  (747) 
2

>  <NR>  (747) 
2

>  <NAR>  (747) 
2

>  <PSA>  (747) 
76.72

>  <Standard Type>  (747) 
nan

>  <Standard Relation>  (747) 
nan

>  <Standard Units>  (747) 
nan

>  <Standard Value>  (747) 
nan

>  <Assay ChEMBL ID>  (747) 
nan

>  <Assay Description>  (747) 
nan

>  <BAO Label>  (747) 
nan

$$$$

     RDKit          2D

 20 21  0  0  0  0  0  0  0  0999 V2000
    2.2500   -3.8971    0.0000 C   0  0  0  0  0  0  0  0  0  0  0  0
    1.5000   -2.5981    0.0000 C   0  0  0  0  0  0  0  0  0  0  0  0
    0.2010   -3.3481    0.0000 S   0  0  0  0  0  0  0  0  0  0  0  0
    0.2010   -4.8481    0.0000 C   0  0  0  0  0  0  0  0  0  0  0  0
    1.4145   -5.7298    0.0000 N   0  0  0  0  0  0  0  0  0  0  0  0
    0.9510   -7.1563    0.0000 N   0  0  0  0  0  0  0  0  0  0  0  0
   -0.5490   -7.1563    0.0000 C   0  0  0  0  0  0  0  0  0  0  0  0
   -1.4307   -8.3699    0.0000 N   0  0  0  0  0  0  0  0  0  0  0  0
   -1.0126   -5.7298    0.0000 N   0  0  0  0  0  0  0  0  0  0  0  0
    2.7990   -1.8481    0.0000 C   0  0  0  0  0  0  0  0  0  0  0  0
    2.7990   -0.3481    0.0000 O   0  0  0  0  0  0  0  0  0  0  0  0
    4.0981   -2.5981    0.0000 O   0  0  0  0  0  1  0  0  0  0  0  0
    0.7500   -1.2990    0.0000 C   0  0  0  0  0  0  0  0  0  0  0  0
    1.5000    0.0000    0.0000 C   0  0  0  0  0  0  0  0  0  0  0  0
    0.7500    1.2990    0.0000 C   0  0  0  0  0  0  0  0  0  0  0  0
    1.5000    2.5981    0.0000 F   0  0  0  0  0  0  0  0  0  0  0  0
   -0.7500    1.2990    0.0000 C   0  0  0  0  0  0  0  0  0  0  0  0
   -1.5000    0.0000    0.0000 C   0  0  0  0  0  0  0  0  0  0  0  0
   -0.7500   -1.2990    0.0000 C   0  0  0  0  0  0  0  0  0  0  0  0
   -1.5000   -2.5981    0.0000 F   0  0  0  0  0  0  0  0  0  0  0  0
  2  1  1  6
  2  3  1  0
  3  4  1  0
  4  5  2  0
  5  6  1  0
  6  7  1  0
  7  8  1  0
  7  9  2  0
  2 10  1  0
 10 11  2  0
 10 12  1  0
  2 13  1  0
 13 14  2  0
 14 15  1  0
 15 16  1  0
 15 17  2  0
 17 18  1  0
 18 19  2  0
 19 20  1  0
  9  4  1  0
 19 13  1  0
M  CHG  1  12  -1
M  END
>  <Compound_ID>  (748) 
C41992389

>  <Active>  (748) 
0.0

>  <Smiles>  (748) 
C[C@@](Sc1n[nH]c(N)n1)(C(=O)[O-])c1cc(F)ccc1F

>  <canonical_smi>  (748) 
C[C@@](Sc1n[nH]c(N)n1)(C(=O)[O-])c1cc(F)ccc1F

>  <Set>  (748) 
G2 inactive

>  <Set_type>  (748) 
Train

>  <MW>  (748) 
299.28

>  <HBD>  (748) 
2

>  <HBA>  (748) 
6

>  <NRB>  (748) 
4

>  <NR>  (748) 
2

>  <NAR>  (748) 
2

>  <PSA>  (748) 
107.72

>  <Standard Type>  (748) 
nan

>  <Standard Relation>  (748) 
nan

>  <Standard Units>  (748) 
nan

>  <Standard Value>  (748) 
nan

>  <Assay ChEMBL ID>  (748) 
nan

>  <Assay Description>  (748) 
nan

>  <BAO Label>  (748) 
nan

$$$$

     RDKit          2D

 19 21  0  0  0  0  0  0  0  0999 V2000
   -3.0000   -2.5981    0.0000 O   0  0  0  0  0  0  0  0  0  0  0  0
   -1.5000   -2.5981    0.0000 C   0  0  0  0  0  0  0  0  0  0  0  0
   -0.7500   -3.8971    0.0000 N   0  0  0  0  0  0  0  0  0  0  0  0
    0.7500   -3.8971    0.0000 N   0  0  0  0  0  0  0  0  0  0  0  0
    1.5000   -2.5981    0.0000 C   0  0  0  0  0  0  0  0  0  0  0  0
    3.0000   -2.5981    0.0000 O   0  0  0  0  0  1  0  0  0  0  0  0
    0.7500   -1.2990    0.0000 C   0  0  0  0  0  0  0  0  0  0  0  0
    1.5000    0.0000    0.0000 C   0  0  0  0  0  0  0  0  0  0  0  0
    0.7500    1.2990    0.0000 C   0  0  0  0  0  0  0  0  0  0  0  0
   -0.7500    1.2990    0.0000 C   0  0  0  0  0  0  0  0  0  0  0  0
   -1.5000    0.0000    0.0000 C   0  0  0  0  0  0  0  0  0  0  0  0
   -3.0000    0.0000    0.0000 N   0  0  0  0  0  0  0  0  0  0  0  0
   -3.7500    1.2990    0.0000 C   0  0  0  0  0  0  0  0  0  0  0  0
   -5.2500    1.2990    0.0000 C   0  0  0  0  0  0  0  0  0  0  0  0
   -6.1317    0.0855    0.0000 C   0  0  0  0  0  0  0  0  0  0  0  0
   -7.5583    0.5490    0.0000 C   0  0  0  0  0  0  0  0  0  0  0  0
   -7.5583    2.0490    0.0000 C   0  0  0  0  0  0  0  0  0  0  0  0
   -6.1317    2.5126    0.0000 N   0  0  0  0  0  0  0  0  0  0  0  0
   -0.7500   -1.2990    0.0000 C   0  0  0  0  0  0  0  0  0  0  0  0
  1  2  2  0
  2  3  1  0
  3  4  1  0
  4  5  2  0
  5  6  1  0
  5  7  1  0
  7  8  2  0
  8  9  1  0
  9 10  2  0
 10 11  1  0
 11 12  1  0
 12 13  1  0
 13 14  1  0
 14 15  2  0
 15 16  1  0
 16 17  2  0
 17 18  1  0
 11 19  2  0
 19  2  1  0
 19  7  1  0
 18 14  1  0
M  CHG  1   6  -1
M  END
>  <Compound_ID>  (749) 
C51787956

>  <Active>  (749) 
0.0

>  <Smiles>  (749) 
O=c1[nH]nc([O-])c2cccc(NCc3ccc[nH]3)c12

>  <canonical_smi>  (749) 
O=c1[nH]nc([O-])c2cccc(NCc3ccc[nH]3)c12

>  <Set>  (749) 
G2 inactive

>  <Set_type>  (749) 
Train

>  <MW>  (749) 
255.26

>  <HBD>  (749) 
3

>  <HBA>  (749) 
4

>  <NRB>  (749) 
3

>  <NR>  (749) 
3

>  <NAR>  (749) 
3

>  <PSA>  (749) 
96.63

>  <Standard Type>  (749) 
nan

>  <Standard Relation>  (749) 
nan

>  <Standard Units>  (749) 
nan

>  <Standard Value>  (749) 
nan

>  <Assay ChEMBL ID>  (749) 
nan

>  <Assay Description>  (749) 
nan

>  <BAO Label>  (749) 
nan

$$$$

     RDKit          2D

 19 20  0  0  0  0  0  0  0  0999 V2000
    3.0000    0.0000    0.0000 N   0  0  0  0  0  0  0  0  0  0  0  0
    1.5000    0.0000    0.0000 C   0  0  0  0  0  0  0  0  0  0  0  0
    0.7500   -1.2990    0.0000 N   0  0  0  0  0  4  0  0  0  0  0  0
   -0.7500   -1.2990    0.0000 C   0  0  0  0  0  0  0  0  0  0  0  0
   -1.5000    0.0000    0.0000 C   0  0  0  0  0  0  0  0  0  0  0  0
   -3.0000    0.0000    0.0000 C   0  0  0  0  0  0  0  0  0  0  0  0
   -3.7500    1.2990    0.0000 C   0  0  0  0  0  0  0  0  0  0  0  0
   -5.2500    1.2990    0.0000 C   0  0  0  0  0  0  0  0  0  0  0  0
   -6.0000    0.0000    0.0000 C   0  0  0  0  0  0  0  0  0  0  0  0
   -7.5000    0.0000    0.0000 C   0  0  0  0  0  0  0  0  0  0  0  0
   -8.2500   -1.2990    0.0000 O   0  0  0  0  0  0  0  0  0  0  0  0
   -8.2500    1.2990    0.0000 O   0  0  0  0  0  1  0  0  0  0  0  0
   -5.2500   -1.2990    0.0000 C   0  0  0  0  0  0  0  0  0  0  0  0
   -3.7500   -1.2990    0.0000 C   0  0  0  0  0  0  0  0  0  0  0  0
   -0.7500    1.2990    0.0000 C   0  0  0  0  0  0  0  0  0  0  0  0
    0.7500    1.2990    0.0000 C   0  0  0  0  0  0  0  0  0  0  0  0
    1.5000    2.5981    0.0000 C   0  0  0  0  0  0  0  0  0  0  0  0
    0.7500    3.8971    0.0000 O   0  0  0  0  0  0  0  0  0  0  0  0
    3.0000    2.5981    0.0000 O   0  0  0  0  0  1  0  0  0  0  0  0
  1  2  1  0
  2  3  2  0
  3  4  1  0
  4  5  2  0
  5  6  1  0
  6  7  2  0
  7  8  1  0
  8  9  2  0
  9 10  1  0
 10 11  2  0
 10 12  1  0
  9 13  1  0
 13 14  2  0
  5 15  1  0
 15 16  2  0
 16 17  1  0
 17 18  2  0
 17 19  1  0
 16  2  1  0
 14  6  1  0
M  CHG  3   3   1  12  -1  19  -1
M  END
>  <Compound_ID>  (750) 
C65347763

>  <Active>  (750) 
0.0

>  <Smiles>  (750) 
Nc1[nH+]cc(-c2ccc(C(=O)[O-])cc2)cc1C(=O)[O-]

>  <canonical_smi>  (750) 
Nc1[nH+]cc(-c2ccc(C(=O)[O-])cc2)cc1C(=O)[O-]

>  <Set>  (750) 
G2 inactive

>  <Set_type>  (750) 
Train

>  <MW>  (750) 
257.22

>  <HBD>  (750) 
1

>  <HBA>  (750) 
5

>  <NRB>  (750) 
3

>  <NR>  (750) 
2

>  <NAR>  (750) 
2

>  <PSA>  (750) 
120.42

>  <Standard Type>  (750) 
nan

>  <Standard Relation>  (750) 
nan

>  <Standard Units>  (750) 
nan

>  <Standard Value>  (750) 
nan

>  <Assay ChEMBL ID>  (750) 
nan

>  <Assay Description>  (750) 
nan

>  <BAO Label>  (750) 
nan

$$$$

     RDKit          2D

 20 21  0  0  0  0  0  0  0  0999 V2000
   -3.7500   -6.4952    0.0000 C   0  0  0  0  0  0  0  0  0  0  0  0
   -3.0000   -5.1962    0.0000 C   0  0  0  0  0  0  0  0  0  0  0  0
   -1.5000   -5.1962    0.0000 N   0  0  0  0  0  0  0  0  0  0  0  0
   -0.7500   -6.4952    0.0000 C   0  0  0  0  0  0  0  0  0  0  0  0
   -1.5000   -7.7942    0.0000 C   0  0  0  0  0  0  0  0  0  0  0  0
   -0.7500   -9.0933    0.0000 C   0  0  0  0  0  0  0  0  0  0  0  0
   -3.0000   -7.7942    0.0000 C   0  0  0  0  0  0  0  0  0  0  0  0
   -4.5000   -7.7942    0.0000 N   0  0  0  0  0  0  0  0  0  0  0  0
   -0.7500   -3.8971    0.0000 C   0  0  0  0  0  0  0  0  0  0  0  0
   -1.5000   -2.5981    0.0000 C   0  0  0  0  0  0  0  0  0  0  0  0
   -0.7500   -1.2990    0.0000 C   0  0  0  0  0  0  0  0  0  0  0  0
    0.7500   -1.2990    0.0000 C   0  0  0  0  0  0  0  0  0  0  0  0
    1.5000   -2.5981    0.0000 C   0  0  0  0  0  0  0  0  0  0  0  0
    0.7500   -3.8971    0.0000 C   0  0  0  0  0  0  0  0  0  0  0  0
    1.5000   -5.1962    0.0000 N   0  0  0  0  0  0  0  0  0  0  0  0
    1.5000    0.0000    0.0000 N   0  0  0  0  0  0  0  0  0  0  0  0
    0.7500    1.2990    0.0000 C   0  0  0  0  0  0  0  0  0  0  0  0
    1.5000    2.5981    0.0000 O   0  0  0  0  0  0  0  0  0  0  0  0
   -0.7500    1.2990    0.0000 C   0  0  0  0  0  0  0  0  0  0  0  0
   -1.5000    0.0000    0.0000 C   0  0  0  0  0  0  0  0  0  0  0  0
  1  2  1  0
  2  3  1  0
  3  4  1  0
  4  5  1  0
  5  6  1  1
  5  7  1  0
  7  8  3  0
  3  9  1  0
  9 10  2  0
 10 11  1  0
 11 12  2  0
 12 13  1  0
 13 14  2  0
 14 15  1  0
 12 16  1  0
 16 17  1  0
 17 18  2  0
 17 19  1  0
 19 20  1  0
 14  9  1  0
 20 11  1  0
M  END
>  <Compound_ID>  (751) 
C42448072

>  <Active>  (751) 
0.0

>  <Smiles>  (751) 
CCN(C[C@@H](C)C#N)c1cc2c(cc1N)NC(=O)CC2

>  <canonical_smi>  (751) 
CCN(C[C@@H](C)C#N)c1cc2c(cc1N)NC(=O)CC2

>  <Set>  (751) 
G2 inactive

>  <Set_type>  (751) 
Train

>  <MW>  (751) 
272.35

>  <HBD>  (751) 
2

>  <HBA>  (751) 
4

>  <NRB>  (751) 
4

>  <NR>  (751) 
2

>  <NAR>  (751) 
1

>  <PSA>  (751) 
82.15

>  <Standard Type>  (751) 
nan

>  <Standard Relation>  (751) 
nan

>  <Standard Units>  (751) 
nan

>  <Standard Value>  (751) 
nan

>  <Assay ChEMBL ID>  (751) 
nan

>  <Assay Description>  (751) 
nan

>  <BAO Label>  (751) 
nan

$$$$

     RDKit          2D

 20 21  0  0  0  0  0  0  0  0999 V2000
    3.7500   -1.2990    0.0000 C   0  0  0  0  0  0  0  0  0  0  0  0
    3.0000    0.0000    0.0000 O   0  0  0  0  0  0  0  0  0  0  0  0
    1.5000    0.0000    0.0000 C   0  0  0  0  0  0  0  0  0  0  0  0
    0.7500   -1.2990    0.0000 C   0  0  0  0  0  0  0  0  0  0  0  0
   -0.7500   -1.2990    0.0000 C   0  0  0  0  0  0  0  0  0  0  0  0
   -1.5000   -2.5981    0.0000 O   0  0  0  0  0  0  0  0  0  0  0  0
   -3.0000   -2.5981    0.0000 C   0  0  0  0  0  0  0  0  0  0  0  0
   -1.5000    0.0000    0.0000 C   0  0  0  0  0  0  0  0  0  0  0  0
   -0.7500    1.2990    0.0000 C   0  0  0  0  0  0  0  0  0  0  0  0
   -1.5000    2.5981    0.0000 C   0  0  0  0  0  0  0  0  0  0  0  0
   -2.9918    2.7549    0.0000 N   0  0  0  0  0  4  0  0  0  0  0  0
   -3.3037    4.2221    0.0000 C   0  0  0  0  0  0  0  0  0  0  0  0
   -4.6740    4.8322    0.0000 C   0  0  0  0  0  0  0  0  0  0  0  0
   -2.0046    4.9721    0.0000 N   0  0  0  0  0  0  0  0  0  0  0  0
   -1.8478    6.4639    0.0000 C   0  0  0  0  0  0  0  0  0  0  0  0
   -0.4775    7.0740    0.0000 C   0  0  0  0  0  0  0  0  0  0  0  0
   -3.0613    7.3456    0.0000 C   0  0  0  0  0  0  0  0  0  0  0  0
   -0.8899    3.9684    0.0000 C   0  0  0  0  0  0  0  0  0  0  0  0
    0.5773    4.2803    0.0000 N   0  0  0  0  0  4  0  0  0  0  0  0
    0.7500    1.2990    0.0000 C   0  0  0  0  0  0  0  0  0  0  0  0
  1  2  1  0
  2  3  1  0
  3  4  2  0
  4  5  1  0
  5  6  1  0
  6  7  1  0
  5  8  2  0
  8  9  1  0
 10  9  1  1
 10 11  1  0
 11 12  2  0
 12 13  1  0
 12 14  1  0
 14 15  1  0
 15 16  1  0
 15 17  1  0
 14 18  1  0
 18 19  2  0
  9 20  2  0
 20  3  1  0
 18 10  1  0
M  CHG  2  11   1  19   1
M  END
>  <Compound_ID>  (752) 
C50986801

>  <Active>  (752) 
0.0

>  <Smiles>  (752) 
COc1cc(OC)cc([C@H]2[NH+]=C(C)N(C(C)C)C2=[NH2+])c1

>  <canonical_smi>  (752) 
COc1cc(OC)cc([C@H]2[NH+]=C(C)N(C(C)C)C2=[NH2+])c1

>  <Set>  (752) 
G2 inactive

>  <Set_type>  (752) 
Train

>  <MW>  (752) 
277.37

>  <HBD>  (752) 
2

>  <HBA>  (752) 
3

>  <NRB>  (752) 
4

>  <NR>  (752) 
2

>  <NAR>  (752) 
1

>  <PSA>  (752) 
61.26

>  <Standard Type>  (752) 
nan

>  <Standard Relation>  (752) 
nan

>  <Standard Units>  (752) 
nan

>  <Standard Value>  (752) 
nan

>  <Assay ChEMBL ID>  (752) 
nan

>  <Assay Description>  (752) 
nan

>  <BAO Label>  (752) 
nan

$$$$

     RDKit          2D

 26 27  0  0  0  0  0  0  0  0999 V2000
    0.7500   -6.4952    0.0000 C   0  0  0  0  0  0  0  0  0  0  0  0
    1.5000   -5.1962    0.0000 C   0  0  0  0  0  0  0  0  0  0  0  0
    0.7500   -3.8971    0.0000 O   0  0  0  0  0  0  0  0  0  0  0  0
    1.5000   -2.5981    0.0000 C   0  0  0  0  0  0  0  0  0  0  0  0
    3.0000   -2.5981    0.0000 O   0  0  0  0  0  0  0  0  0  0  0  0
    0.7500   -1.2990    0.0000 C   0  0  0  0  0  0  0  0  0  0  0  0
    1.5000    0.0000    0.0000 C   0  0  0  0  0  0  0  0  0  0  0  0
    0.7500    1.2990    0.0000 C   0  0  0  0  0  0  0  0  0  0  0  0
   -0.7500    1.2990    0.0000 C   0  0  0  0  0  0  0  0  0  0  0  0
   -1.5000    2.5981    0.0000 Cl  0  0  0  0  0  0  0  0  0  0  0  0
   -1.5000    0.0000    0.0000 C   0  0  0  0  0  0  0  0  0  0  0  0
   -3.0000    0.0000    0.0000 N   0  0  0  0  0  0  0  0  0  0  0  0
   -0.7500   -1.2990    0.0000 C   0  0  0  0  0  0  0  0  0  0  0  0
    3.0000   -5.1962    0.0000 C   0  0  0  0  0  0  0  0  0  0  0  0
    3.7500   -3.8971    0.0000 O   0  0  0  0  0  0  0  0  0  0  0  0
    3.7500   -6.4952    0.0000 N   0  0  0  0  0  0  0  0  0  0  0  0
    5.2500   -6.4952    0.0000 C   0  0  0  0  0  0  0  0  0  0  0  0
    6.0000   -5.1962    0.0000 C   0  0  0  0  0  0  0  0  0  0  0  0
    7.5000   -5.1962    0.0000 C   0  0  0  0  0  0  0  0  0  0  0  0
    8.2500   -6.4952    0.0000 C   0  0  0  0  0  0  0  0  0  0  0  0
    7.5000   -7.7942    0.0000 C   0  0  0  0  0  0  0  0  0  0  0  0
    6.0000   -7.7942    0.0000 C   0  0  0  0  0  0  0  0  0  0  0  0
    5.2500   -9.0933    0.0000 C   0  0  0  0  0  0  0  0  0  0  0  0
    4.5000  -10.3923    0.0000 F   0  0  0  0  0  0  0  0  0  0  0  0
    6.5490   -9.8433    0.0000 F   0  0  0  0  0  0  0  0  0  0  0  0
    3.9510   -8.3433    0.0000 F   0  0  0  0  0  0  0  0  0  0  0  0
  2  1  1  1
  2  3  1  0
  3  4  1  0
  4  5  2  0
  4  6  1  0
  6  7  2  0
  7  8  1  0
  8  9  2  0
  9 10  1  0
  9 11  1  0
 11 12  1  0
 11 13  2  0
  2 14  1  0
 14 15  2  0
 14 16  1  0
 16 17  1  0
 17 18  2  0
 18 19  1  0
 19 20  2  0
 20 21  1  0
 21 22  2  0
 22 23  1  0
 23 24  1  0
 23 25  1  0
 23 26  1  0
 13  6  1  0
 22 17  1  0
M  END
>  <Compound_ID>  (753) 
C15693291

>  <Active>  (753) 
0.0

>  <Smiles>  (753) 
C[C@@H](OC(=O)c1ccc(Cl)c(N)c1)C(=O)Nc1ccccc1C(F)(F)F

>  <canonical_smi>  (753) 
C[C@@H](OC(=O)c1ccc(Cl)c(N)c1)C(=O)Nc1ccccc1C(F)(F)F

>  <Set>  (753) 
G2 inactive

>  <Set_type>  (753) 
Train

>  <MW>  (753) 
386.76

>  <HBD>  (753) 
2

>  <HBA>  (753) 
4

>  <NRB>  (753) 
4

>  <NR>  (753) 
2

>  <NAR>  (753) 
2

>  <PSA>  (753) 
81.42

>  <Standard Type>  (753) 
nan

>  <Standard Relation>  (753) 
nan

>  <Standard Units>  (753) 
nan

>  <Standard Value>  (753) 
nan

>  <Assay ChEMBL ID>  (753) 
nan

>  <Assay Description>  (753) 
nan

>  <BAO Label>  (753) 
nan

$$$$

     RDKit          2D

 35 39  0  0  0  0  0  0  0  0999 V2000
   -5.8835  -12.8014    0.0000 C   0  0  0  0  0  0  0  0  0  0  0  0
   -4.5131  -12.1913    0.0000 C   0  0  0  0  0  0  0  0  0  0  0  0
   -4.3563  -10.6995    0.0000 C   0  0  0  0  0  0  0  0  0  0  0  0
   -2.9860  -10.0894    0.0000 C   0  0  0  0  0  0  0  0  0  0  0  0
   -1.7725  -10.9711    0.0000 C   0  0  0  0  0  0  0  0  0  0  0  0
   -0.4022  -10.3610    0.0000 C   0  0  0  0  0  0  0  0  0  0  0  0
   -0.2454   -8.8692    0.0000 N   0  0  0  0  0  0  0  0  0  0  0  0
   -1.3601   -7.8655    0.0000 C   0  0  0  0  0  0  0  0  0  0  0  0
   -2.8273   -8.1774    0.0000 O   0  0  0  0  0  0  0  0  0  0  0  0
   -0.7500   -6.4952    0.0000 C   0  0  0  0  0  0  0  0  0  0  0  0
   -1.5000   -5.1962    0.0000 C   0  0  0  0  0  0  0  0  0  0  0  0
   -0.7500   -3.8971    0.0000 C   0  0  0  0  0  0  0  0  0  0  0  0
    0.7500   -3.8971    0.0000 C   0  0  0  0  0  0  0  0  0  0  0  0
    1.5000   -5.1962    0.0000 N   0  0  0  0  0  0  0  0  0  0  0  0
    3.0000   -5.1962    0.0000 C   0  0  0  0  0  0  0  0  0  0  0  0
    3.7500   -6.4952    0.0000 C   0  0  0  0  0  0  0  0  0  0  0  0
    5.2418   -6.6520    0.0000 C   0  0  0  0  0  0  0  0  0  0  0  0
    5.5537   -8.1192    0.0000 C   0  0  0  0  0  0  0  0  0  0  0  0
    4.2546   -8.8692    0.0000 C   0  0  0  0  0  0  0  0  0  0  0  0
    3.1399   -7.8655    0.0000 O   0  0  0  0  0  0  0  0  0  0  0  0
    1.5000   -2.5981    0.0000 N   0  0  0  0  0  0  0  0  0  0  0  0
    0.7500   -1.2990    0.0000 C   0  0  0  0  0  0  0  0  0  0  0  0
    1.5000    0.0000    0.0000 C   0  0  0  0  0  0  0  0  0  0  0  0
    0.7500    1.2990    0.0000 C   0  0  0  0  0  0  0  0  0  0  0  0
   -0.7500    1.2990    0.0000 C   0  0  0  0  0  0  0  0  0  0  0  0
   -1.5000    2.5981    0.0000 C   0  0  0  0  0  0  0  0  0  0  0  0
   -1.5000    0.0000    0.0000 C   0  0  0  0  0  0  0  0  0  0  0  0
   -0.7500   -1.2990    0.0000 N   0  0  0  0  0  0  0  0  0  0  0  0
   -1.5000   -2.5981    0.0000 C   0  0  0  0  0  0  0  0  0  0  0  0
   -3.0000   -2.5981    0.0000 O   0  0  0  0  0  0  0  0  0  0  0  0
    0.7418   -6.6520    0.0000 S   0  0  0  0  0  0  0  0  0  0  0  0
    1.0537   -8.1192    0.0000 C   0  0  0  0  0  0  0  0  0  0  0  0
    2.4240   -8.7293    0.0000 S   0  0  0  0  0  0  0  0  0  0  0  0
   -1.9293  -12.4629    0.0000 C   0  0  0  0  0  0  0  0  0  0  0  0
   -3.2996  -13.0730    0.0000 C   0  0  0  0  0  0  0  0  0  0  0  0
  1  2  1  0
  2  3  2  0
  3  4  1  0
  4  5  2  0
  5  6  1  0
  6  7  1  0
  7  8  1  0
  8  9  2  0
  8 10  1  0
 10 11  2  0
 11 12  1  0
 12 13  2  0
 13 14  1  0
 14 15  1  0
 16 15  1  1
 16 17  1  0
 17 18  1  0
 18 19  1  0
 19 20  1  0
 13 21  1  0
 21 22  2  0
 22 23  1  0
 23 24  2  0
 24 25  1  0
 25 26  1  0
 25 27  2  0
 27 28  1  0
 28 29  1  0
 29 30  2  0
 10 31  1  0
 31 32  1  0
 32 33  2  0
  5 34  1  0
 34 35  2  0
 35  2  1  0
 32  7  1  0
 29 12  1  0
 20 16  1  0
 28 22  1  0
M  END
>  <Compound_ID>  (754) 
C16734831

>  <Active>  (754) 
0.0

>  <Smiles>  (754) 
Cc1ccc(CN2C(=O)/C(=C/c3c(NC[C@H]4CCCO4)nc4ccc(C)cn4c3=O)SC2=S)cc1

>  <canonical_smi>  (754) 
Cc1ccc(CN2C(=O)/C(=C/c3c(NC[C@H]4CCCO4)nc4ccc(C)cn4c3=O)SC2=S)cc1

>  <Set>  (754) 
G2 inactive

>  <Set_type>  (754) 
Train

>  <MW>  (754) 
506.65

>  <HBD>  (754) 
1

>  <HBA>  (754) 
7

>  <NRB>  (754) 
6

>  <NR>  (754) 
5

>  <NAR>  (754) 
3

>  <PSA>  (754) 
75.94

>  <Standard Type>  (754) 
nan

>  <Standard Relation>  (754) 
nan

>  <Standard Units>  (754) 
nan

>  <Standard Value>  (754) 
nan

>  <Assay ChEMBL ID>  (754) 
nan

>  <Assay Description>  (754) 
nan

>  <BAO Label>  (754) 
nan

$$$$

     RDKit          2D

 20 22  0  0  0  0  0  0  0  0999 V2000
    3.7500   -9.0933    0.0000 C   0  0  0  0  0  0  0  0  0  0  0  0
    3.0000   -7.7942    0.0000 C   0  0  0  0  0  0  0  0  0  0  0  0
    1.5000   -7.7942    0.0000 C   0  0  0  0  0  0  0  0  0  0  0  0
    0.7500   -6.4952    0.0000 C   0  0  0  0  0  0  0  0  0  0  0  0
    1.5000   -5.1962    0.0000 N   0  0  0  0  0  0  0  0  0  0  0  0
    0.7500   -3.8971    0.0000 C   0  0  0  0  0  0  0  0  0  0  0  0
    1.5000   -2.5981    0.0000 C   0  0  0  0  0  0  0  0  0  0  0  0
    0.7500   -1.2990    0.0000 C   0  0  0  0  0  0  0  0  0  0  0  0
    1.5000    0.0000    0.0000 N   0  0  0  0  0  0  0  0  0  0  0  0
    0.7500    1.2990    0.0000 C   0  0  0  0  0  0  0  0  0  0  0  0
   -0.7500    1.2990    0.0000 N   0  0  0  0  0  0  0  0  0  0  0  0
   -1.5000    0.0000    0.0000 C   0  0  0  0  0  0  0  0  0  0  0  0
   -3.0000    0.0000    0.0000 O   0  0  0  0  0  0  0  0  0  0  0  0
   -0.7500   -1.2990    0.0000 C   0  0  0  0  0  0  0  0  0  0  0  0
   -1.5000   -2.5981    0.0000 C   0  0  0  0  0  0  0  0  0  0  0  0
   -0.7500   -3.8971    0.0000 C   0  0  0  0  0  0  0  0  0  0  0  0
   -1.5000   -5.1962    0.0000 N   0  0  0  0  0  0  0  0  0  0  0  0
    3.0000   -5.1962    0.0000 C   0  0  0  0  0  0  0  0  0  0  0  0
    3.7500   -3.8971    0.0000 C   0  0  0  0  0  0  0  0  0  0  0  0
    3.7500   -6.4952    0.0000 C   0  0  0  0  0  0  0  0  0  0  0  0
  2  1  1  1
  2  3  1  0
  3  4  1  0
  4  5  1  0
  5  6  1  0
  6  7  2  0
  7  8  1  0
  8  9  1  0
  9 10  2  0
 10 11  1  0
 11 12  1  0
 12 13  2  0
 12 14  1  0
 14 15  1  0
 15 16  2  0
 16 17  1  0
  5 18  1  0
 18 19  1  6
 18 20  1  0
 20  2  1  0
 16  6  1  0
 14  8  2  0
M  END
>  <Compound_ID>  (755) 
C51730372

>  <Active>  (755) 
0.0

>  <Smiles>  (755) 
C[C@H]1CCN(c2cc3nc[nH]c(=O)c3cc2N)[C@H](C)C1

>  <canonical_smi>  (755) 
C[C@H]1CCN(c2cc3nc[nH]c(=O)c3cc2N)[C@H](C)C1

>  <Set>  (755) 
G2 inactive

>  <Set_type>  (755) 
Train

>  <MW>  (755) 
272.35

>  <HBD>  (755) 
2

>  <HBA>  (755) 
4

>  <NRB>  (755) 
1

>  <NR>  (755) 
3

>  <NAR>  (755) 
2

>  <PSA>  (755) 
75.01

>  <Standard Type>  (755) 
nan

>  <Standard Relation>  (755) 
nan

>  <Standard Units>  (755) 
nan

>  <Standard Value>  (755) 
nan

>  <Assay ChEMBL ID>  (755) 
nan

>  <Assay Description>  (755) 
nan

>  <BAO Label>  (755) 
nan

$$$$

     RDKit          2D

 19 20  0  0  0  0  0  0  0  0999 V2000
    3.0000    0.0000    0.0000 C   0  0  0  0  0  0  0  0  0  0  0  0
    1.5000    0.0000    0.0000 C   0  0  0  0  0  0  0  0  0  0  0  0
    0.7500   -1.2990    0.0000 C   0  0  0  0  0  0  0  0  0  0  0  0
   -0.7500   -1.2990    0.0000 C   0  0  0  0  0  0  0  0  0  0  0  0
   -1.5000    0.0000    0.0000 C   0  0  0  0  0  0  0  0  0  0  0  0
   -3.0000    0.0000    0.0000 F   0  0  0  0  0  0  0  0  0  0  0  0
   -0.7500    1.2990    0.0000 C   0  0  0  0  0  0  0  0  0  0  0  0
    0.7500    1.2990    0.0000 C   0  0  0  0  0  0  0  0  0  0  0  0
    1.5000    2.5981    0.0000 N   0  0  0  0  0  2  0  0  0  0  0  0
    0.7500    3.8971    0.0000 S   0  0  0  0  0  0  0  0  0  0  0  0
   -0.5490    3.1471    0.0000 O   0  0  0  0  0  0  0  0  0  0  0  0
    2.0490    4.6471    0.0000 O   0  0  0  0  0  0  0  0  0  0  0  0
    0.0000    5.1962    0.0000 C   0  0  0  0  0  0  0  0  0  0  0  0
    0.7500    6.4952    0.0000 C   0  0  0  0  0  0  0  0  0  0  0  0
   -0.0000    7.7942    0.0000 C   0  0  0  0  0  0  0  0  0  0  0  0
   -1.5000    7.7942    0.0000 N   0  0  0  0  0  4  0  0  0  0  0  0
   -2.2500    6.4952    0.0000 C   0  0  0  0  0  0  0  0  0  0  0  0
   -3.7500    6.4952    0.0000 N   0  0  0  0  0  0  0  0  0  0  0  0
   -1.5000    5.1962    0.0000 C   0  0  0  0  0  0  0  0  0  0  0  0
  1  2  1  0
  2  3  2  0
  3  4  1  0
  4  5  2  0
  5  6  1  0
  5  7  1  0
  7  8  2  0
  8  9  1  0
  9 10  1  0
 10 11  2  0
 10 12  2  0
 10 13  1  0
 13 14  2  0
 14 15  1  0
 15 16  2  0
 16 17  1  0
 17 18  1  0
 17 19  2  0
  8  2  1  0
 19 13  1  0
M  CHG  2   9  -1  16   1
M  END
>  <Compound_ID>  (756) 
C50641769

>  <Active>  (756) 
0.0

>  <Smiles>  (756) 
Cc1ccc(F)cc1[N-]S(=O)(=O)c1cc[nH+]c(N)c1

>  <canonical_smi>  (756) 
Cc1ccc(F)cc1[N-]S(=O)(=O)c1cc[nH+]c(N)c1

>  <Set>  (756) 
G2 inactive

>  <Set_type>  (756) 
Train

>  <MW>  (756) 
281.31

>  <HBD>  (756) 
1

>  <HBA>  (756) 
3

>  <NRB>  (756) 
3

>  <NR>  (756) 
2

>  <NAR>  (756) 
2

>  <PSA>  (756) 
88.4

>  <Standard Type>  (756) 
nan

>  <Standard Relation>  (756) 
nan

>  <Standard Units>  (756) 
nan

>  <Standard Value>  (756) 
nan

>  <Assay ChEMBL ID>  (756) 
nan

>  <Assay Description>  (756) 
nan

>  <BAO Label>  (756) 
nan

$$$$

     RDKit          2D

 19 20  0  0  0  0  0  0  0  0999 V2000
    7.5696    1.6160    0.0000 N   0  0  0  0  0  0  0  0  0  0  0  0
    6.1207    1.2278    0.0000 N   0  0  0  0  0  0  0  0  0  0  0  0
    5.7325   -0.2211    0.0000 C   0  0  0  0  0  0  0  0  0  0  0  0
    6.7931   -1.2818    0.0000 C   0  0  0  0  0  0  0  0  0  0  0  0
    6.4049   -2.7307    0.0000 C   0  0  0  0  0  0  0  0  0  0  0  0
    4.9560   -3.1189    0.0000 C   0  0  0  0  0  0  0  0  0  0  0  0
    4.5678   -4.5678    0.0000 Cl  0  0  0  0  0  0  0  0  0  0  0  0
    3.8954   -2.0583    0.0000 C   0  0  0  0  0  0  0  0  0  0  0  0
    2.4465   -2.4465    0.0000 C   0  0  0  0  0  0  0  0  0  0  0  0
    1.3858   -1.3858    0.0000 N   0  0  0  0  0  0  0  0  0  0  0  0
    1.9598    0.0000    0.0000 C   0  0  0  0  0  0  0  0  0  0  0  0
    1.3858    1.3858    0.0000 C   0  0  0  0  0  0  0  0  0  0  0  0
    0.0000    1.9598    0.0000 C   0  0  0  0  0  0  0  0  0  0  0  0
   -1.3858    1.3858    0.0000 C   0  0  0  0  0  0  0  0  0  0  0  0
   -1.9598    0.0000    0.0000 C   0  0  0  0  0  0  0  0  0  0  0  0
   -1.3858   -1.3858    0.0000 C   0  0  0  0  0  0  0  0  0  0  0  0
   -0.0000   -1.9598    0.0000 C   0  0  0  0  0  0  0  0  0  0  0  0
   -0.0000   -3.4598    0.0000 O   0  0  0  0  0  0  0  0  0  0  0  0
    4.2836   -0.6094    0.0000 N   0  0  0  0  0  0  0  0  0  0  0  0
  1  2  1  0
  2  3  1  0
  3  4  2  0
  4  5  1  0
  5  6  2  0
  6  7  1  0
  6  8  1  0
  8  9  1  0
  9 10  1  0
 10 11  1  0
 11 12  1  0
 12 13  1  0
 13 14  1  0
 14 15  1  0
 15 16  1  0
 16 17  1  0
 17 18  2  0
  8 19  2  0
 19  3  1  0
 17 10  1  0
M  END
>  <Compound_ID>  (757) 
C61639244

>  <Active>  (757) 
0.0

>  <Smiles>  (757) 
NNc1ccc(Cl)c(CN2CCCCCCC2=O)n1

>  <canonical_smi>  (757) 
NNc1ccc(Cl)c(CN2CCCCCCC2=O)n1

>  <Set>  (757) 
G2 inactive

>  <Set_type>  (757) 
Train

>  <MW>  (757) 
282.77

>  <HBD>  (757) 
2

>  <HBA>  (757) 
4

>  <NRB>  (757) 
3

>  <NR>  (757) 
2

>  <NAR>  (757) 
1

>  <PSA>  (757) 
71.25

>  <Standard Type>  (757) 
nan

>  <Standard Relation>  (757) 
nan

>  <Standard Units>  (757) 
nan

>  <Standard Value>  (757) 
nan

>  <Assay ChEMBL ID>  (757) 
nan

>  <Assay Description>  (757) 
nan

>  <BAO Label>  (757) 
nan

$$$$

     RDKit          2D

 21 23  0  0  0  0  0  0  0  0999 V2000
   -5.6260  -10.9888    0.0000 N   0  0  0  0  0  0  0  0  0  0  0  0
   -4.1994  -10.5253    0.0000 N   0  0  0  0  0  0  0  0  0  0  0  0
   -3.8876   -9.0580    0.0000 C   0  0  0  0  0  0  0  0  0  0  0  0
   -5.0023   -8.0543    0.0000 N   0  0  0  0  0  0  0  0  0  0  0  0
   -4.6904   -6.5871    0.0000 C   0  0  0  0  0  0  0  0  0  0  0  0
   -3.2638   -6.1236    0.0000 C   0  0  0  0  0  0  0  0  0  0  0  0
   -2.9520   -4.6564    0.0000 S   0  0  0  0  0  0  0  0  0  0  0  0
   -1.4848   -4.9682    0.0000 O   0  0  0  0  0  0  0  0  0  0  0  0
   -4.4192   -4.3445    0.0000 O   0  0  0  0  0  0  0  0  0  0  0  0
   -2.6401   -3.1891    0.0000 N   0  0  0  0  0  0  0  0  0  0  0  0
   -1.2135   -2.7256    0.0000 C   0  0  0  0  0  0  0  0  0  0  0  0
   -0.0000   -3.6073    0.0000 C   0  0  0  0  0  0  0  0  0  0  0  0
    1.2135   -2.7256    0.0000 C   0  0  0  0  0  0  0  0  0  0  0  0
    0.7500   -1.2990    0.0000 N   0  0  0  0  0  4  0  0  0  0  0  0
    1.5000    0.0000    0.0000 C   0  0  0  0  0  0  0  0  0  0  0  0
    0.7500    1.2990    0.0000 C   0  0  0  0  0  0  0  0  0  0  0  0
   -0.7500    1.2990    0.0000 C   0  0  0  0  0  0  0  0  0  0  0  0
   -1.5000    0.0000    0.0000 C   0  0  0  0  0  0  0  0  0  0  0  0
   -0.7500   -1.2990    0.0000 C   0  0  0  0  0  0  0  0  0  0  0  0
   -2.1491   -7.1273    0.0000 C   0  0  0  0  0  0  0  0  0  0  0  0
   -2.4610   -8.5945    0.0000 N   0  0  0  0  0  0  0  0  0  0  0  0
  1  2  1  0
  2  3  1  0
  3  4  2  0
  4  5  1  0
  5  6  2  0
  6  7  1  0
  7  8  2  0
  7  9  2  0
  7 10  1  0
 11 10  1  6
 11 12  1  0
 12 13  1  0
 13 14  1  0
 14 15  1  0
 15 16  1  0
 16 17  1  0
 17 18  1  0
 19 18  1  1
  6 20  1  0
 20 21  2  0
 21  3  1  0
 19 11  1  0
 19 14  1  0
M  CHG  1  14   1
M  END
>  <Compound_ID>  (758) 
C49570791

>  <Active>  (758) 
0.0

>  <Smiles>  (758) 
NNc1ncc(S(=O)(=O)N[C@H]2CC[NH+]3CCCC[C@H]23)cn1

>  <canonical_smi>  (758) 
NNc1ncc(S(=O)(=O)N[C@H]2CC[NH+]3CCCC[C@H]23)cn1

>  <Set>  (758) 
G2 inactive

>  <Set_type>  (758) 
Train

>  <MW>  (758) 
313.41

>  <HBD>  (758) 
4

>  <HBA>  (758) 
6

>  <NRB>  (758) 
4

>  <NR>  (758) 
3

>  <NAR>  (758) 
1

>  <PSA>  (758) 
114.44

>  <Standard Type>  (758) 
nan

>  <Standard Relation>  (758) 
nan

>  <Standard Units>  (758) 
nan

>  <Standard Value>  (758) 
nan

>  <Assay ChEMBL ID>  (758) 
nan

>  <Assay Description>  (758) 
nan

>  <BAO Label>  (758) 
nan

$$$$

     RDKit          2D

 26 27  0  0  0  0  0  0  0  0999 V2000
   -0.8113  -11.2427    0.0000 C   0  0  0  0  0  0  0  0  0  0  0  0
    0.4022  -10.3610    0.0000 C   0  0  0  0  0  0  0  0  0  0  0  0
    0.2454   -8.8692    0.0000 C   0  0  0  0  0  0  0  0  0  0  0  0
    1.3601   -7.8655    0.0000 C   0  0  0  0  0  0  0  0  0  0  0  0
    0.7500   -6.4952    0.0000 C   0  0  0  0  0  0  0  0  0  0  0  0
    1.5000   -5.1962    0.0000 C   0  0  0  0  0  0  0  0  0  0  0  0
    3.0000   -5.1962    0.0000 O   0  0  0  0  0  0  0  0  0  0  0  0
    0.7500   -3.8971    0.0000 N   0  0  0  0  0  0  0  0  0  0  0  0
    1.5000   -2.5981    0.0000 C   0  0  0  0  0  0  0  0  0  0  0  0
    0.7500   -1.2990    0.0000 C   0  0  0  0  0  0  0  0  0  0  0  0
    1.5000    0.0000    0.0000 O   0  0  0  0  0  0  0  0  0  0  0  0
    0.7500    1.2990    0.0000 C   0  0  0  0  0  0  0  0  0  0  0  0
    1.5000    2.5981    0.0000 S   0  0  0  0  0  0  0  0  0  0  0  0
    3.0000    2.5981    0.0000 C   0  0  0  0  0  0  0  0  0  0  0  0
   -0.7500    1.2990    0.0000 C   0  0  0  0  0  0  0  0  0  0  0  0
   -1.5000    2.5981    0.0000 O   0  0  0  0  0  0  0  0  0  0  0  0
   -1.5000    0.0000    0.0000 C   0  0  0  0  0  0  0  0  0  0  0  0
   -3.0000    0.0000    0.0000 O   0  0  0  0  0  0  0  0  0  0  0  0
   -0.7500   -1.2990    0.0000 C   0  0  0  0  0  0  0  0  0  0  0  0
   -1.5000   -2.5981    0.0000 O   0  0  0  0  0  0  0  0  0  0  0  0
    3.0000   -2.5981    0.0000 C   0  0  0  0  0  0  0  0  0  0  0  0
    3.7500   -3.8971    0.0000 C   0  0  0  0  0  0  0  0  0  0  0  0
    3.7500   -1.2990    0.0000 O   0  0  0  0  0  0  0  0  0  0  0  0
   -0.7418   -6.6520    0.0000 N   0  0  0  0  0  4  0  0  0  0  0  0
   -1.7455   -5.5373    0.0000 C   0  0  0  0  0  0  0  0  0  0  0  0
   -1.0537   -8.1192    0.0000 C   0  0  0  0  0  0  0  0  0  0  0  0
  1  2  1  0
  3  2  1  1
  3  4  1  0
  4  5  1  0
  5  6  1  6
  6  7  2  0
  6  8  1  0
  9  8  1  1
  9 10  1  0
 10 11  1  6
 11 12  1  0
 12 13  1  6
 13 14  1  0
 12 15  1  0
 15 16  1  6
 15 17  1  0
 17 18  1  6
 17 19  1  0
 19 20  1  6
  9 21  1  0
 21 22  1  6
 21 23  1  0
  5 24  1  0
 24 25  1  0
 24 26  1  0
 26  3  1  0
 19 10  1  0
M  CHG  1  24   1
M  END
>  <Compound_ID>  (759) 
C33902779

>  <Active>  (759) 
0.0

>  <Smiles>  (759) 
CC[C@@H]1C[C@@H](C(=O)N[C@@H]([C@H]2O[C@@H](SC)[C@@H](O)[C@@H](O)[C@H]2O)[C@@H](C)O)[NH+](C)C1

>  <canonical_smi>  (759) 
CC[C@@H]1C[C@@H](C(=O)N[C@H]([C@@H](C)O)[C@H]2O[C@@H](SC)[C@@H](O)[C@@H](O)[C@H]2O)[NH+](C)C1

>  <Set>  (759) 
G2 inactive

>  <Set_type>  (759) 
Train

>  <MW>  (759) 
393.53

>  <HBD>  (759) 
6

>  <HBA>  (759) 
7

>  <NRB>  (759) 
6

>  <NR>  (759) 
2

>  <NAR>  (759) 
0

>  <PSA>  (759) 
123.69

>  <Standard Type>  (759) 
nan

>  <Standard Relation>  (759) 
nan

>  <Standard Units>  (759) 
nan

>  <Standard Value>  (759) 
nan

>  <Assay ChEMBL ID>  (759) 
nan

>  <Assay Description>  (759) 
nan

>  <BAO Label>  (759) 
nan

$$$$

     RDKit          2D

 27 30  0  0  0  0  0  0  0  0999 V2000
   -6.4268    0.3631    0.0000 O   0  0  0  0  0  0  0  0  0  0  0  0
   -6.1149    1.8303    0.0000 C   0  0  0  0  0  0  0  0  0  0  0  0
   -4.6883    2.2939    0.0000 C   0  0  0  0  0  0  0  0  0  0  0  0
   -3.5736    1.2902    0.0000 C   0  0  0  0  0  0  0  0  0  0  0  0
   -2.1470    1.7537    0.0000 C   0  0  0  0  0  0  0  0  0  0  0  0
   -1.8351    3.2209    0.0000 C   0  0  0  0  0  0  0  0  0  0  0  0
   -0.4086    3.6844    0.0000 N   0  0  0  0  0  0  0  0  0  0  0  0
    0.7062    2.6807    0.0000 C   0  0  0  0  0  0  0  0  0  0  0  0
    2.1328    3.1443    0.0000 O   0  0  0  0  0  0  0  0  0  0  0  0
    0.3943    1.2135    0.0000 C   0  0  0  0  0  0  0  0  0  0  0  0
    1.2760    0.0000    0.0000 C   0  0  0  0  0  0  0  0  0  0  0  0
    0.3943   -1.2135    0.0000 C   0  0  0  0  0  0  0  0  0  0  0  0
    0.8578   -2.6401    0.0000 N   0  0  0  0  0  0  0  0  0  0  0  0
   -0.1459   -3.7548    0.0000 C   0  0  0  0  0  0  0  0  0  0  0  0
   -1.6131   -3.4430    0.0000 O   0  0  0  0  0  0  0  0  0  0  0  0
    0.3177   -5.1814    0.0000 N   0  0  0  0  0  0  0  0  0  0  0  0
   -0.6860   -6.2961    0.0000 C   0  0  0  0  0  0  0  0  0  0  0  0
   -0.3742   -7.7634    0.0000 C   0  0  0  0  0  0  0  0  0  0  0  0
   -1.6732   -8.5134    0.0000 C   0  0  0  0  0  0  0  0  0  0  0  0
   -2.7879   -7.5097    0.0000 S   0  0  0  0  0  0  0  0  0  0  0  0
   -2.1778   -6.1393    0.0000 C   0  0  0  0  0  0  0  0  0  0  0  0
   -1.0323   -0.7500    0.0000 C   0  0  0  0  0  0  0  0  0  0  0  0
   -1.0323    0.7500    0.0000 N   0  0  0  0  0  4  0  0  0  0  0  0
   -7.2296    2.8340    0.0000 N   0  0  0  0  0  0  0  0  0  0  0  0
   -8.6562    2.3705    0.0000 C   0  0  0  0  0  0  0  0  0  0  0  0
   -9.6599    1.2558    0.0000 C   0  0  0  0  0  0  0  0  0  0  0  0
  -10.1234    2.6824    0.0000 C   0  0  0  0  0  0  0  0  0  0  0  0
  1  2  2  0
  2  3  1  0
  3  4  1  0
  5  4  1  6
  5  6  1  0
  6  7  1  0
  7  8  1  0
  8  9  2  0
  8 10  1  0
 10 11  1  6
 11 12  1  0
 12 13  1  6
 13 14  1  0
 14 15  2  0
 14 16  1  0
 16 17  1  0
 17 18  1  0
 18 19  2  0
 19 20  1  0
 20 21  1  0
 12 22  1  0
 22 23  1  0
  2 24  1  0
 24 25  1  0
 25 26  1  0
 26 27  1  0
 23  5  1  0
 27 25  1  0
 23 10  1  0
 21 17  2  0
M  CHG  1  23   1
M  END
>  <Compound_ID>  (760) 
C15708331

>  <Active>  (760) 
0.0

>  <Smiles>  (760) 
O=C(CC[C@@H]1CNC(=O)[C@@H]2C[C@H](NC(=O)Nc3ccsc3)C[NH+]12)NC1CC1

>  <canonical_smi>  (760) 
O=C(CC[C@@H]1CNC(=O)[C@@H]2C[C@H](NC(=O)Nc3ccsc3)C[NH+]21)NC1CC1

>  <Set>  (760) 
G2 inactive

>  <Set_type>  (760) 
Train

>  <MW>  (760) 
392.51

>  <HBD>  (760) 
5

>  <HBA>  (760) 
3

>  <NRB>  (760) 
6

>  <NR>  (760) 
4

>  <NAR>  (760) 
1

>  <PSA>  (760) 
103.77

>  <Standard Type>  (760) 
nan

>  <Standard Relation>  (760) 
nan

>  <Standard Units>  (760) 
nan

>  <Standard Value>  (760) 
nan

>  <Assay ChEMBL ID>  (760) 
nan

>  <Assay Description>  (760) 
nan

>  <BAO Label>  (760) 
nan

$$$$

     RDKit          2D

 22 23  0  0  0  0  0  0  0  0999 V2000
    2.6491    0.9642    0.0000 C   0  0  0  0  0  0  0  0  0  0  0  0
    1.5000    0.0000    0.0000 C   0  0  0  0  0  0  0  0  0  0  0  0
    2.6491   -0.9642    0.0000 C   0  0  0  0  0  0  0  0  0  0  0  0
    0.7500   -1.2990    0.0000 N   0  0  0  0  0  4  0  0  0  0  0  0
   -0.7500   -1.2990    0.0000 C   0  0  0  0  0  0  0  0  0  0  0  0
   -1.5000   -2.5981    0.0000 N   0  0  0  0  0  0  0  0  0  0  0  0
   -1.5000    0.0000    0.0000 N   0  0  0  0  0  0  0  0  0  0  0  0
   -0.7500    1.2990    0.0000 C   0  0  0  0  0  0  0  0  0  0  0  0
   -1.5000    2.5981    0.0000 N   0  0  0  0  0  0  0  0  0  0  0  0
    0.7500    1.2990    0.0000 N   0  0  0  0  0  0  0  0  0  0  0  0
    1.5000    2.5981    0.0000 C   0  0  0  0  0  0  0  0  0  0  0  0
    3.0000    2.5981    0.0000 C   0  0  0  0  0  0  0  0  0  0  0  0
    3.7500    3.8971    0.0000 C   0  0  0  0  0  0  0  0  0  0  0  0
    3.0000    5.1962    0.0000 C   0  0  0  0  0  0  0  0  0  0  0  0
    3.7500    6.4952    0.0000 C   0  0  0  0  0  0  0  0  0  0  0  0
    5.2500    6.4952    0.0000 C   0  0  0  0  0  0  0  0  0  0  0  0
    6.0000    7.7942    0.0000 C   0  0  0  0  0  0  0  0  0  0  0  0
    5.2500    9.0933    0.0000 O   0  0  0  0  0  0  0  0  0  0  0  0
    7.5000    7.7942    0.0000 C   0  0  0  0  0  0  0  0  0  0  0  0
    8.2500    9.0933    0.0000 Cl  0  0  0  0  0  0  0  0  0  0  0  0
    1.5000    5.1962    0.0000 C   0  0  0  0  0  0  0  0  0  0  0  0
    0.7500    3.8971    0.0000 C   0  0  0  0  0  0  0  0  0  0  0  0
  1  2  1  0
  2  3  1  0
  2  4  1  0
  4  5  2  0
  5  6  1  0
  5  7  1  0
  7  8  2  0
  8  9  1  0
  8 10  1  0
 10 11  1  0
 11 12  2  0
 12 13  1  0
 13 14  2  0
 14 15  1  0
 15 16  1  0
 16 17  1  0
 17 18  2  0
 17 19  1  0
 19 20  1  0
 14 21  1  0
 21 22  2  0
 10  2  1  0
 22 11  1  0
M  CHG  1   4   1
M  END
>  <Compound_ID>  (761) 
C17040323

>  <Active>  (761) 
0.0

>  <Smiles>  (761) 
CC1(C)[NH+]=C(N)N=C(N)N1c1ccc(CCC(=O)CCl)cc1

>  <canonical_smi>  (761) 
CC1(C)[NH+]=C(N)N=C(N)N1c1ccc(CCC(=O)CCl)cc1

>  <Set>  (761) 
G2 inactive

>  <Set_type>  (761) 
Train

>  <MW>  (761) 
322.82

>  <HBD>  (761) 
3

>  <HBA>  (761) 
4

>  <NRB>  (761) 
5

>  <NR>  (761) 
2

>  <NAR>  (761) 
1

>  <PSA>  (761) 
98.68

>  <Standard Type>  (761) 
nan

>  <Standard Relation>  (761) 
nan

>  <Standard Units>  (761) 
nan

>  <Standard Value>  (761) 
nan

>  <Assay ChEMBL ID>  (761) 
nan

>  <Assay Description>  (761) 
nan

>  <BAO Label>  (761) 
nan

$$$$

     RDKit          2D

 26 28  0  0  0  0  0  0  0  0999 V2000
    6.3579   -8.4259    0.0000 C   0  0  0  0  0  0  0  0  0  0  0  0
    6.2011   -6.9341    0.0000 C   0  0  0  0  0  0  0  0  0  0  0  0
    7.4146   -6.0524    0.0000 O   0  0  0  0  0  0  0  0  0  0  0  0
    4.8308   -6.3240    0.0000 N   0  0  0  0  0  0  0  0  0  0  0  0
    4.6740   -4.8322    0.0000 C   0  0  0  0  0  0  0  0  0  0  0  0
    3.3037   -4.2221    0.0000 N   0  0  0  0  0  0  0  0  0  0  0  0
    2.9918   -2.7549    0.0000 C   0  0  0  0  0  0  0  0  0  0  0  0
    1.5000   -2.5981    0.0000 C   0  0  0  0  0  0  0  0  0  0  0  0
    0.7500   -1.2990    0.0000 C   0  0  0  0  0  0  0  0  0  0  0  0
    1.5000    0.0000    0.0000 C   0  0  0  0  0  0  0  0  0  0  0  0
    0.7500    1.2990    0.0000 C   0  0  0  0  0  0  0  0  0  0  0  0
   -0.7500    1.2990    0.0000 C   0  0  0  0  0  0  0  0  0  0  0  0
   -1.5000    2.5981    0.0000 C   0  0  0  0  0  0  0  0  0  0  0  0
   -0.7500    3.8971    0.0000 C   0  0  0  0  0  0  0  0  0  0  0  0
   -1.5000    5.1962    0.0000 C   0  0  0  0  0  0  0  0  0  0  0  0
   -3.0000    5.1962    0.0000 N   0  0  0  0  0  0  0  0  0  0  0  0
   -3.7500    6.4952    0.0000 C   0  0  0  0  0  0  0  0  0  0  0  0
   -3.0000    7.7942    0.0000 N   0  0  0  0  0  0  0  0  0  0  0  0
   -5.2500    6.4952    0.0000 N   0  0  0  0  0  4  0  0  0  0  0  0
   -3.7500    3.8971    0.0000 C   0  0  0  0  0  0  0  0  0  0  0  0
   -3.0000    2.5981    0.0000 C   0  0  0  0  0  0  0  0  0  0  0  0
   -1.5000    0.0000    0.0000 C   0  0  0  0  0  0  0  0  0  0  0  0
   -0.7500   -1.2990    0.0000 C   0  0  0  0  0  0  0  0  0  0  0  0
    0.8899   -3.9684    0.0000 C   0  0  0  0  0  0  0  0  0  0  0  0
   -0.5773   -4.2803    0.0000 O   0  0  0  0  0  0  0  0  0  0  0  0
    2.0046   -4.9721    0.0000 O   0  0  0  0  0  0  0  0  0  0  0  0
  1  2  1  0
  2  3  2  0
  2  4  1  0
  4  5  1  0
  5  6  1  0
  6  7  1  0
  7  8  2  0
  8  9  1  0
  9 10  2  0
 10 11  1  0
 11 12  2  0
 12 13  1  0
 13 14  2  0
 14 15  1  0
 15 16  1  0
 16 17  1  0
 17 18  1  0
 17 19  2  0
 16 20  1  0
 20 21  1  0
 12 22  1  0
 22 23  2  0
  8 24  1  0
 24 25  2  0
 24 26  1  0
 26  6  1  0
 23  9  1  0
 21 13  1  0
M  CHG  1  19   1
M  END
>  <Compound_ID>  (762) 
C28468257

>  <Active>  (762) 
0.0

>  <Smiles>  (762) 
CC(=O)NCn1cc(-c2ccc(C3=CCN(C(N)=[NH2+])CC3)cc2)c(=O)o1

>  <canonical_smi>  (762) 
CC(=O)NCn1cc(-c2ccc(C3=CCN(C(N)=[NH2+])CC3)cc2)c(=O)o1

>  <Set>  (762) 
G2 inactive

>  <Set_type>  (762) 
Train

>  <MW>  (762) 
356.41

>  <HBD>  (762) 
3

>  <HBA>  (762) 
5

>  <NRB>  (762) 
4

>  <NR>  (762) 
3

>  <NAR>  (762) 
2

>  <PSA>  (762) 
119.09

>  <Standard Type>  (762) 
nan

>  <Standard Relation>  (762) 
nan

>  <Standard Units>  (762) 
nan

>  <Standard Value>  (762) 
nan

>  <Assay ChEMBL ID>  (762) 
nan

>  <Assay Description>  (762) 
nan

>  <BAO Label>  (762) 
nan

$$$$

     RDKit          2D

 23 24  0  0  0  0  0  0  0  0999 V2000
    3.0000    0.0000    0.0000 C   0  0  0  0  0  0  0  0  0  0  0  0
    1.5000    0.0000    0.0000 C   0  0  0  0  0  0  0  0  0  0  0  0
    0.7500   -1.2990    0.0000 N   0  0  0  0  0  0  0  0  0  0  0  0
   -0.7500   -1.2990    0.0000 C   0  0  0  0  0  0  0  0  0  0  0  0
   -1.5000    0.0000    0.0000 C   0  0  0  0  0  0  0  0  0  0  0  0
   -3.0000    0.0000    0.0000 C   0  0  0  0  0  0  0  0  0  0  0  0
   -3.7500    1.2990    0.0000 O   0  0  0  0  0  0  0  0  0  0  0  0
   -0.7500    1.2990    0.0000 C   0  0  0  0  0  0  0  0  0  0  0  0
   -1.5000    2.5981    0.0000 C   0  0  0  0  0  0  0  0  0  0  0  0
   -0.7500    3.8971    0.0000 N   0  0  0  0  0  4  0  0  0  0  0  0
   -1.5000    5.1962    0.0000 C   0  0  0  0  0  0  0  0  0  0  0  0
   -0.7500    6.4952    0.0000 C   0  0  0  0  0  0  0  0  0  0  0  0
    0.7500    6.4952    0.0000 C   0  0  0  0  0  0  0  0  0  0  0  0
    1.5000    5.1962    0.0000 C   0  0  0  0  0  0  0  0  0  0  0  0
    3.0000    5.1962    0.0000 O   0  0  0  0  0  0  0  0  0  0  0  0
    1.5000    7.7942    0.0000 C   0  0  0  0  0  0  0  0  0  0  0  0
    0.7500    9.0933    0.0000 N   0  0  0  0  0  0  0  0  0  0  0  0
   -0.7500    9.0933    0.0000 C   0  0  0  0  0  0  0  0  0  0  0  0
   -1.5000   10.3923    0.0000 C   0  0  0  0  0  0  0  0  0  0  0  0
   -1.5000    7.7942    0.0000 C   0  0  0  0  0  0  0  0  0  0  0  0
   -3.0000    7.7942    0.0000 O   0  0  0  0  0  0  0  0  0  0  0  0
    0.7500    1.2990    0.0000 C   0  0  0  0  0  0  0  0  0  0  0  0
    1.5000    2.5981    0.0000 O   0  0  0  0  0  0  0  0  0  0  0  0
  1  2  1  0
  2  3  2  0
  3  4  1  0
  4  5  2  0
  5  6  1  0
  6  7  1  0
  5  8  1  0
  8  9  1  0
  9 10  2  0
 10 11  1  0
 11 12  1  0
 12 13  2  0
 13 14  1  0
 14 15  1  0
 13 16  1  0
 16 17  2  0
 17 18  1  0
 18 19  1  0
 18 20  2  0
 20 21  1  0
  8 22  2  0
 22 23  1  0
 22  2  1  0
 20 12  1  0
M  CHG  1  10   1
M  END
>  <Compound_ID>  (763) 
C00346188

>  <Active>  (763) 
0.0

>  <Smiles>  (763) 
Cc1ncc(CO)c(/C=[NH+]/Cc2c(CO)cnc(C)c2O)c1O

>  <canonical_smi>  (763) 
Cc1ncc(CO)c(/C=[NH+]/Cc2c(CO)cnc(C)c2O)c1O

>  <Set>  (763) 
G2 inactive

>  <Set_type>  (763) 
Train

>  <MW>  (763) 
318.35

>  <HBD>  (763) 
5

>  <HBA>  (763) 
6

>  <NRB>  (763) 
5

>  <NR>  (763) 
2

>  <NAR>  (763) 
2

>  <PSA>  (763) 
120.67

>  <Standard Type>  (763) 
nan

>  <Standard Relation>  (763) 
nan

>  <Standard Units>  (763) 
nan

>  <Standard Value>  (763) 
nan

>  <Assay ChEMBL ID>  (763) 
nan

>  <Assay Description>  (763) 
nan

>  <BAO Label>  (763) 
nan

$$$$

     RDKit          2D

 28 30  0  0  0  0  0  0  0  0999 V2000
    9.7567    1.5238    0.0000 C   0  0  0  0  0  0  0  0  0  0  0  0
    8.3301    1.0602    0.0000 N   0  0  0  0  0  4  0  0  0  0  0  0
    8.0182   -0.4070    0.0000 C   0  0  0  0  0  0  0  0  0  0  0  0
    7.2154    2.0639    0.0000 C   0  0  0  0  0  0  0  0  0  0  0  0
    5.7888    1.6004    0.0000 C   0  0  0  0  0  0  0  0  0  0  0  0
    4.6741    2.6041    0.0000 N   0  0  0  0  0  0  0  0  0  0  0  0
    3.2475    2.1406    0.0000 C   0  0  0  0  0  0  0  0  0  0  0  0
    2.9356    0.6734    0.0000 O   0  0  0  0  0  0  0  0  0  0  0  0
    2.1328    3.1443    0.0000 C   0  0  0  0  0  0  0  0  0  0  0  0
    0.7062    2.6807    0.0000 C   0  0  0  0  0  0  0  0  0  0  0  0
    0.3943    1.2135    0.0000 C   0  0  0  0  0  0  0  0  0  0  0  0
    1.2760    0.0000    0.0000 N   0  0  0  0  0  0  0  0  0  0  0  0
    0.3943   -1.2135    0.0000 C   0  0  0  0  0  0  0  0  0  0  0  0
    0.8578   -2.6401    0.0000 N   0  0  0  0  0  0  0  0  0  0  0  0
   -1.0323   -0.7500    0.0000 S   0  0  0  0  0  0  0  0  0  0  0  0
   -1.0323    0.7500    0.0000 C   0  0  0  0  0  0  0  0  0  0  0  0
   -2.1470    1.7537    0.0000 C   0  0  0  0  0  0  0  0  0  0  0  0
   -1.8351    3.2209    0.0000 C   0  0  0  0  0  0  0  0  0  0  0  0
   -2.9499    4.2246    0.0000 C   0  0  0  0  0  0  0  0  0  0  0  0
   -4.3406    4.7865    0.0000 C   0  0  0  0  0  0  0  0  0  0  0  0
   -3.7447    2.9525    0.0000 C   0  0  0  0  0  0  0  0  0  0  0  0
   -5.2438    3.0049    0.0000 O   0  0  0  0  0  0  0  0  0  0  0  0
   -2.6380    5.6918    0.0000 C   0  0  0  0  0  0  0  0  0  0  0  0
   -3.7527    6.6955    0.0000 O   0  0  0  0  0  0  0  0  0  0  0  0
   -1.2114    6.1554    0.0000 C   0  0  0  0  0  0  0  0  0  0  0  0
   -0.0967    5.1517    0.0000 C   0  0  0  0  0  0  0  0  0  0  0  0
   -0.4086    3.6844    0.0000 C   0  0  0  0  0  0  0  0  0  0  0  0
    1.0180    4.1480    0.0000 C   0  0  0  0  0  0  0  0  0  0  0  0
  1  2  1  0
  2  3  1  0
  2  4  1  0
  4  5  1  0
  5  6  1  0
  6  7  1  0
  7  8  2  0
  7  9  1  0
 10  9  1  6
 10 11  1  0
 11 12  1  0
 12 13  2  0
 13 14  1  0
 13 15  1  0
 15 16  1  0
 16 17  1  0
 18 17  1  6
 18 19  1  0
 19 20  1  1
 19 21  1  0
 21 22  1  0
 19 23  1  0
 23 24  1  6
 23 25  1  0
 25 26  1  0
 26 27  1  0
 27 28  1  1
 27 10  1  0
 16 11  2  0
 27 18  1  0
M  CHG  1   2   1
M  END
>  <Compound_ID>  (764) 
C43554471

>  <Active>  (764) 
0.0

>  <Smiles>  (764) 
C[NH+](C)CCNC(=O)C[C@@H]1c2nc(N)sc2C[C@@H]2[C@](C)(CO)[C@H](O)CC[C@@]21C

>  <canonical_smi>  (764) 
C[NH+](C)CCNC(=O)C[C@@H]1c2nc(N)sc2C[C@H]2[C@]1(C)CC[C@@H](O)[C@@]2(C)CO

>  <Set>  (764) 
G2 inactive

>  <Set_type>  (764) 
Train

>  <MW>  (764) 
411.59

>  <HBD>  (764) 
5

>  <HBA>  (764) 
5

>  <NRB>  (764) 
6

>  <NR>  (764) 
3

>  <NAR>  (764) 
1

>  <PSA>  (764) 
112.91

>  <Standard Type>  (764) 
nan

>  <Standard Relation>  (764) 
nan

>  <Standard Units>  (764) 
nan

>  <Standard Value>  (764) 
nan

>  <Assay ChEMBL ID>  (764) 
nan

>  <Assay Description>  (764) 
nan

>  <BAO Label>  (764) 
nan

$$$$

     RDKit          2D

 26 26  0  0  0  0  0  0  0  0999 V2000
   15.5490   -4.6471    0.0000 C   0  0  0  0  0  0  0  0  0  0  0  0
   14.2500   -3.8971    0.0000 C   0  0  0  0  0  0  0  0  0  0  0  0
   12.9510   -3.1471    0.0000 C   0  0  0  0  0  0  0  0  0  0  0  0
   15.0000   -2.5981    0.0000 C   0  0  0  0  0  0  0  0  0  0  0  0
   13.5000   -5.1962    0.0000 C   0  0  0  0  0  0  0  0  0  0  0  0
   12.0000   -5.1962    0.0000 C   0  0  0  0  0  0  0  0  0  0  0  0
   12.0000   -6.6962    0.0000 C   0  0  0  0  0  0  0  0  0  0  0  0
   12.0000   -3.6962    0.0000 C   0  0  0  0  0  0  0  0  0  0  0  0
   10.5000   -5.1962    0.0000 N   0  0  0  0  0  4  0  0  0  0  0  0
    9.7500   -3.8971    0.0000 C   0  0  0  0  0  0  0  0  0  0  0  0
    8.2500   -3.8971    0.0000 C   0  0  0  0  0  0  0  0  0  0  0  0
    7.5000   -5.1962    0.0000 O   0  0  0  0  0  0  0  0  0  0  0  0
    7.5000   -2.5981    0.0000 C   0  0  0  0  0  0  0  0  0  0  0  0
    6.0000   -2.5981    0.0000 O   0  0  0  0  0  0  0  0  0  0  0  0
    5.2500   -1.2990    0.0000 C   0  0  0  0  0  0  0  0  0  0  0  0
    3.7500   -1.2990    0.0000 C   0  0  0  0  0  0  0  0  0  0  0  0
    3.0000    0.0000    0.0000 O   0  0  0  0  0  0  0  0  0  0  0  0
    1.5000    0.0000    0.0000 C   0  0  0  0  0  0  0  0  0  0  0  0
    0.7500   -1.2990    0.0000 C   0  0  0  0  0  0  0  0  0  0  0  0
    1.5000   -2.5981    0.0000 F   0  0  0  0  0  0  0  0  0  0  0  0
   -0.7500   -1.2990    0.0000 C   0  0  0  0  0  0  0  0  0  0  0  0
   -1.5000    0.0000    0.0000 C   0  0  0  0  0  0  0  0  0  0  0  0
   -3.0000    0.0000    0.0000 Br  0  0  0  0  0  0  0  0  0  0  0  0
   -0.7500    1.2990    0.0000 C   0  0  0  0  0  0  0  0  0  0  0  0
    0.7500    1.2990    0.0000 C   0  0  0  0  0  0  0  0  0  0  0  0
    1.5000    2.5981    0.0000 F   0  0  0  0  0  0  0  0  0  0  0  0
  1  2  1  0
  2  3  1  0
  2  4  1  0
  2  5  1  0
  5  6  1  0
  6  7  1  0
  6  8  1  0
  6  9  1  0
  9 10  1  0
 10 11  1  0
 11 12  1  6
 11 13  1  0
 13 14  1  0
 14 15  1  0
 15 16  1  0
 16 17  1  0
 17 18  1  0
 18 19  2  0
 19 20  1  0
 19 21  1  0
 21 22  2  0
 22 23  1  0
 22 24  1  0
 24 25  2  0
 25 26  1  0
 25 18  1  0
M  CHG  1   9   1
M  END
>  <Compound_ID>  (765) 
C39916138

>  <Active>  (765) 
0.0

>  <Smiles>  (765) 
CC(C)(C)CC(C)(C)[NH2+]C[C@H](O)COCCOc1c(F)cc(Br)cc1F

>  <canonical_smi>  (765) 
CC(C)(C)CC(C)(C)[NH2+]C[C@H](O)COCCOc1c(F)cc(Br)cc1F

>  <Set>  (765) 
G2 inactive

>  <Set_type>  (765) 
Train

>  <MW>  (765) 
439.36

>  <HBD>  (765) 
2

>  <HBA>  (765) 
3

>  <NRB>  (765) 
10

>  <NR>  (765) 
1

>  <NAR>  (765) 
1

>  <PSA>  (765) 
55.3

>  <Standard Type>  (765) 
nan

>  <Standard Relation>  (765) 
nan

>  <Standard Units>  (765) 
nan

>  <Standard Value>  (765) 
nan

>  <Assay ChEMBL ID>  (765) 
nan

>  <Assay Description>  (765) 
nan

>  <BAO Label>  (765) 
nan

$$$$

     RDKit          2D

 25 27  0  0  0  0  0  0  0  0999 V2000
   -1.0409   -5.7068    0.0000 C   0  0  0  0  0  0  0  0  0  0  0  0
   -0.5773   -4.2803    0.0000 C   0  0  0  0  0  0  0  0  0  0  0  0
    0.8899   -3.9684    0.0000 N   0  0  0  0  0  0  0  0  0  0  0  0
    2.0046   -4.9721    0.0000 C   0  0  0  0  0  0  0  0  0  0  0  0
    1.8478   -6.4639    0.0000 S   0  0  0  0  0  0  0  0  0  0  0  0
    3.0613   -7.3456    0.0000 C   0  0  0  0  0  0  0  0  0  0  0  0
    2.9046   -8.8373    0.0000 C   0  0  0  0  0  0  0  0  0  0  0  0
    4.0193   -9.8410    0.0000 C   0  0  0  0  0  0  0  0  0  0  0  0
    3.4092  -11.2113    0.0000 S   0  0  0  0  0  0  0  0  0  0  0  0
    1.9174  -11.0546    0.0000 C   0  0  0  0  0  0  0  0  0  0  0  0
    0.9137  -12.1693    0.0000 C   0  0  0  0  0  0  0  0  0  0  0  0
   -0.5535  -11.8574    0.0000 C   0  0  0  0  0  0  0  0  0  0  0  0
   -1.5572  -12.9721    0.0000 C   0  0  0  0  0  0  0  0  0  0  0  0
   -3.0245  -12.6603    0.0000 C   0  0  0  0  0  0  0  0  0  0  0  0
   -1.0937  -14.3987    0.0000 C   0  0  0  0  0  0  0  0  0  0  0  0
    1.6055   -9.5873    0.0000 N   0  0  0  0  0  0  0  0  0  0  0  0
    3.3037   -4.2221    0.0000 N   0  0  0  0  0  0  0  0  0  0  0  0
    2.9918   -2.7549    0.0000 N   0  0  0  0  0  0  0  0  0  0  0  0
    1.5000   -2.5981    0.0000 C   0  0  0  0  0  0  0  0  0  0  0  0
    0.7500   -1.2990    0.0000 N   0  0  0  0  0  0  0  0  0  0  0  0
    1.5000    0.0000    0.0000 C   0  0  0  0  0  0  0  0  0  0  0  0
    0.7500    1.2990    0.0000 C   0  0  0  0  0  0  0  0  0  0  0  0
   -0.7500    1.2990    0.0000 O   0  0  0  0  0  0  0  0  0  0  0  0
   -1.5000    0.0000    0.0000 C   0  0  0  0  0  0  0  0  0  0  0  0
   -0.7500   -1.2990    0.0000 C   0  0  0  0  0  0  0  0  0  0  0  0
  1  2  1  0
  2  3  1  0
  3  4  1  0
  4  5  1  0
  5  6  1  0
  6  7  1  0
  7  8  2  0
  8  9  1  0
  9 10  1  0
 10 11  1  0
 11 12  1  0
 12 13  1  0
 13 14  1  0
 13 15  1  0
 10 16  2  0
  4 17  2  0
 17 18  1  0
 18 19  2  0
 19 20  1  0
 20 21  1  0
 21 22  1  0
 22 23  1  0
 23 24  1  0
 24 25  1  0
 19  3  1  0
 25 20  1  0
 16  7  1  0
M  END
>  <Compound_ID>  (766) 
C64927265

>  <Active>  (766) 
0.0

>  <Smiles>  (766) 
CCn1c(SCc2csc(CCC(C)C)n2)nnc1N1CCOCC1

>  <canonical_smi>  (766) 
CCn1c(SCc2csc(CCC(C)C)n2)nnc1N1CCOCC1

>  <Set>  (766) 
G2 inactive

>  <Set_type>  (766) 
Train

>  <MW>  (766) 
381.57

>  <HBD>  (766) 
0

>  <HBA>  (766) 
6

>  <NRB>  (766) 
8

>  <NR>  (766) 
3

>  <NAR>  (766) 
2

>  <PSA>  (766) 
56.07

>  <Standard Type>  (766) 
nan

>  <Standard Relation>  (766) 
nan

>  <Standard Units>  (766) 
nan

>  <Standard Value>  (766) 
nan

>  <Assay ChEMBL ID>  (766) 
nan

>  <Assay Description>  (766) 
nan

>  <BAO Label>  (766) 
nan

$$$$

     RDKit          2D

 26 26  0  0  0  0  0  0  0  0999 V2000
    3.0000   -7.7942    0.0000 C   0  0  0  0  0  0  0  0  0  0  0  0
    3.7500   -6.4952    0.0000 C   0  0  0  0  0  0  0  0  0  0  0  0
    5.2500   -6.4952    0.0000 C   0  0  0  0  0  0  0  0  0  0  0  0
    3.0000   -5.1962    0.0000 C   0  0  0  0  0  0  0  0  0  0  0  0
    3.7500   -3.8971    0.0000 C   0  0  0  0  0  0  0  0  0  0  0  0
    3.0000   -2.5981    0.0000 O   0  0  0  0  0  0  0  0  0  0  0  0
    3.7500   -1.2990    0.0000 C   0  0  0  0  0  0  0  0  0  0  0  0
    5.2500   -1.2990    0.0000 C   0  0  0  0  0  0  0  0  0  0  0  0
    3.0000    0.0000    0.0000 C   0  0  0  0  0  0  0  0  0  0  0  0
    3.7500    1.2990    0.0000 O   0  0  0  0  0  0  0  0  0  0  0  0
    1.5000    0.0000    0.0000 N   0  0  0  0  0  0  0  0  0  0  0  0
    0.7500   -1.2990    0.0000 C   0  0  0  0  0  0  0  0  0  0  0  0
   -0.7500   -1.2990    0.0000 C   0  0  0  0  0  0  0  0  0  0  0  0
   -1.5000    0.0000    0.0000 C   0  0  0  0  0  0  0  0  0  0  0  0
   -2.6491   -0.9642    0.0000 C   0  0  0  0  0  0  0  0  0  0  0  0
   -2.6491    0.9642    0.0000 N   0  0  0  0  0  0  0  0  0  0  0  0
   -2.3886    2.4414    0.0000 C   0  0  0  0  0  0  0  0  0  0  0  0
   -4.0586    0.4512    0.0000 C   0  0  0  0  0  0  0  0  0  0  0  0
   -4.3191   -1.0261    0.0000 O   0  0  0  0  0  0  0  0  0  0  0  0
   -5.2077    1.4153    0.0000 O   0  0  0  0  0  0  0  0  0  0  0  0
   -6.6172    0.9023    0.0000 C   0  0  0  0  0  0  0  0  0  0  0  0
   -7.1302    2.3118    0.0000 C   0  0  0  0  0  0  0  0  0  0  0  0
   -6.1042   -0.5072    0.0000 C   0  0  0  0  0  0  0  0  0  0  0  0
   -8.0268    0.3893    0.0000 C   0  0  0  0  0  0  0  0  0  0  0  0
   -0.7500    1.2990    0.0000 C   0  0  0  0  0  0  0  0  0  0  0  0
    0.7500    1.2990    0.0000 C   0  0  0  0  0  0  0  0  0  0  0  0
  1  2  1  0
  2  3  1  0
  2  4  1  0
  4  5  1  0
  5  6  1  0
  6  7  1  0
  7  8  1  6
  7  9  1  0
  9 10  2  0
  9 11  1  0
 11 12  1  0
 12 13  1  0
 13 14  1  0
 14 15  1  0
 14 16  1  0
 16 17  1  0
 16 18  1  0
 18 19  2  0
 18 20  1  0
 20 21  1  0
 21 22  1  0
 21 23  1  0
 21 24  1  0
 14 25  1  0
 25 26  1  0
 26 11  1  0
M  END
>  <Compound_ID>  (767) 
C66425052

>  <Active>  (767) 
0.0

>  <Smiles>  (767) 
CC(C)CCO[C@@H](C)C(=O)N1CCC(C)(N(C)C(=O)OC(C)(C)C)CC1

>  <canonical_smi>  (767) 
CC(C)CCO[C@@H](C)C(=O)N1CCC(C)(N(C)C(=O)OC(C)(C)C)CC1

>  <Set>  (767) 
G2 inactive

>  <Set_type>  (767) 
Train

>  <MW>  (767) 
370.53

>  <HBD>  (767) 
0

>  <HBA>  (767) 
4

>  <NRB>  (767) 
6

>  <NR>  (767) 
1

>  <NAR>  (767) 
0

>  <PSA>  (767) 
59.08

>  <Standard Type>  (767) 
nan

>  <Standard Relation>  (767) 
nan

>  <Standard Units>  (767) 
nan

>  <Standard Value>  (767) 
nan

>  <Assay ChEMBL ID>  (767) 
nan

>  <Assay Description>  (767) 
nan

>  <BAO Label>  (767) 
nan

$$$$

     RDKit          2D

 34 37  0  0  0  0  0  0  0  0999 V2000
   -8.2500   -6.4952    0.0000 C   0  0  0  0  0  0  0  0  0  0  0  0
   -7.5000   -5.1962    0.0000 N   0  0  0  0  0  4  0  0  0  0  0  0
   -6.0000   -5.1962    0.0000 C   0  0  0  0  0  0  0  0  0  0  0  0
   -5.2500   -3.8971    0.0000 C   0  0  0  0  0  0  0  0  0  0  0  0
   -3.7500   -3.8971    0.0000 C   0  0  0  0  0  0  0  0  0  0  0  0
   -3.0000   -2.5981    0.0000 O   0  0  0  0  0  0  0  0  0  0  0  0
   -1.5000   -2.5981    0.0000 C   0  0  0  0  0  0  0  0  0  0  0  0
   -0.7500   -3.8971    0.0000 C   0  0  0  0  0  0  0  0  0  0  0  0
    0.7500   -3.8971    0.0000 C   0  0  0  0  0  0  0  0  0  0  0  0
    1.5000   -2.5981    0.0000 C   0  0  0  0  0  0  0  0  0  0  0  0
    3.0000   -2.5981    0.0000 O   0  0  0  0  0  0  0  0  0  0  0  0
    3.7500   -3.8971    0.0000 C   0  0  0  0  0  0  0  0  0  0  0  0
    3.0000   -5.1962    0.0000 O   0  0  0  0  0  0  0  0  0  0  0  0
    3.7500   -6.4952    0.0000 C   0  0  0  0  0  0  0  0  0  0  0  0
    3.0000   -7.7942    0.0000 C   0  0  0  0  0  0  0  0  0  0  0  0
    3.7500   -9.0933    0.0000 O   0  0  0  0  0  0  0  0  0  0  0  0
    1.5000   -7.7942    0.0000 O   0  0  0  0  0  1  0  0  0  0  0  0
    5.2500   -6.4952    0.0000 C   0  0  0  0  0  0  0  0  0  0  0  0
    6.0000   -7.7942    0.0000 O   0  0  0  0  0  0  0  0  0  0  0  0
    6.0000   -5.1962    0.0000 C   0  0  0  0  0  0  0  0  0  0  0  0
    7.5000   -5.1962    0.0000 O   0  0  0  0  0  0  0  0  0  0  0  0
    5.2500   -3.8971    0.0000 C   0  0  0  0  0  0  0  0  0  0  0  0
    6.0000   -2.5981    0.0000 O   0  0  0  0  0  0  0  0  0  0  0  0
    0.7500   -1.2990    0.0000 C   0  0  0  0  0  0  0  0  0  0  0  0
    1.5000    0.0000    0.0000 C   0  0  0  0  0  0  0  0  0  0  0  0
    0.7500    1.2990    0.0000 C   0  0  0  0  0  0  0  0  0  0  0  0
   -0.7500    1.2990    0.0000 C   0  0  0  0  0  0  0  0  0  0  0  0
   -1.5000    0.0000    0.0000 C   0  0  0  0  0  0  0  0  0  0  0  0
   -0.7500   -1.2990    0.0000 C   0  0  0  0  0  0  0  0  0  0  0  0
   -3.0000   -5.1962    0.0000 C   0  0  0  0  0  0  0  0  0  0  0  0
   -1.5082   -5.3529    0.0000 C   0  0  0  0  0  0  0  0  0  0  0  0
   -1.1963   -6.8202    0.0000 C   0  0  0  0  0  0  0  0  0  0  0  0
   -2.4954   -7.5702    0.0000 C   0  0  0  0  0  0  0  0  0  0  0  0
   -3.6101   -6.5665    0.0000 S   0  0  0  0  0  0  0  0  0  0  0  0
  1  2  1  0
  2  3  1  0
  3  4  1  0
  5  4  1  6
  5  6  1  0
  6  7  1  0
  7  8  2  0
  8  9  1  0
  9 10  2  0
 10 11  1  0
 12 11  1  1
 12 13  1  0
 13 14  1  0
 14 15  1  6
 15 16  2  0
 15 17  1  0
 14 18  1  0
 18 19  1  6
 18 20  1  0
 20 21  1  1
 20 22  1  0
 22 23  1  6
 10 24  1  0
 24 25  2  0
 25 26  1  0
 26 27  2  0
 27 28  1  0
 28 29  2  0
  5 30  1  0
 30 31  2  0
 31 32  1  0
 32 33  2  0
 33 34  1  0
 29  7  1  0
 34 30  1  0
 22 12  1  0
 29 24  1  0
M  CHG  2   2   1  17  -1
M  END
>  <Compound_ID>  (768) 
C22060636

>  <Active>  (768) 
0.0

>  <Smiles>  (768) 
C[NH2+]CC[C@H](Oc1ccc(O[C@@H]2O[C@@H](C(=O)[O-])[C@@H](O)[C@H](O)[C@H]2O)c2ccccc12)c1cccs1

>  <canonical_smi>  (768) 
C[NH2+]CC[C@H](Oc1ccc(O[C@@H]2O[C@@H](C(=O)[O-])[C@@H](O)[C@H](O)[C@H]2O)c2ccccc12)c1cccs1

>  <Set>  (768) 
G2 inactive

>  <Set_type>  (768) 
Train

>  <MW>  (768) 
489.55

>  <HBD>  (768) 
4

>  <HBA>  (768) 
8

>  <NRB>  (768) 
9

>  <NR>  (768) 
4

>  <NAR>  (768) 
3

>  <PSA>  (768) 
145.12

>  <Standard Type>  (768) 
nan

>  <Standard Relation>  (768) 
nan

>  <Standard Units>  (768) 
nan

>  <Standard Value>  (768) 
nan

>  <Assay ChEMBL ID>  (768) 
nan

>  <Assay Description>  (768) 
nan

>  <BAO Label>  (768) 
nan

$$$$

     RDKit          2D

 29 29  0  0  0  0  0  0  0  0999 V2000
    2.7990  -12.6423    0.0000 C   0  0  0  0  0  0  0  0  0  0  0  0
    2.7990  -11.1423    0.0000 C   0  0  0  0  0  0  0  0  0  0  0  0
    1.5000  -10.3923    0.0000 C   0  0  0  0  0  0  0  0  0  0  0  0
    0.7500  -11.6913    0.0000 C   0  0  0  0  0  0  0  0  0  0  0  0
    0.2010   -9.6423    0.0000 O   0  0  0  0  0  0  0  0  0  0  0  0
    2.2500   -9.0933    0.0000 C   0  0  0  0  0  0  0  0  0  0  0  0
    3.7500   -9.0933    0.0000 C   0  0  0  0  0  0  0  0  0  0  0  0
    4.5000   -7.7942    0.0000 C   0  0  0  0  0  0  0  0  0  0  0  0
    6.0000   -7.7942    0.0000 C   0  0  0  0  0  0  0  0  0  0  0  0
    3.7500   -6.4952    0.0000 C   0  0  0  0  0  0  0  0  0  0  0  0
    4.5000   -5.1962    0.0000 C   0  0  0  0  0  0  0  0  0  0  0  0
    3.7500   -3.8971    0.0000 C   0  0  0  0  0  0  0  0  0  0  0  0
    4.5000   -2.5981    0.0000 C   0  0  0  0  0  0  0  0  0  0  0  0
    6.0000   -2.5981    0.0000 O   0  0  0  0  0  0  0  0  0  0  0  0
    3.7500   -1.2990    0.0000 C   0  0  0  0  0  0  0  0  0  0  0  0
    5.0490   -0.5490    0.0000 C   0  0  0  0  0  0  0  0  0  0  0  0
    2.4510   -2.0490    0.0000 C   0  0  0  0  0  0  0  0  0  0  0  0
    3.0000    0.0000    0.0000 O   0  0  0  0  0  0  0  0  0  0  0  0
    1.5000    0.0000    0.0000 C   0  0  0  0  0  0  0  0  0  0  0  0
    0.7500   -1.2990    0.0000 O   0  0  0  0  0  0  0  0  0  0  0  0
   -0.7500   -1.2990    0.0000 C   0  0  0  0  0  0  0  0  0  0  0  0
   -1.5000   -2.5981    0.0000 C   0  0  0  0  0  0  0  0  0  0  0  0
   -0.7500   -3.8971    0.0000 O   0  0  0  0  0  0  0  0  0  0  0  0
   -1.5000    0.0000    0.0000 C   0  0  0  0  0  0  0  0  0  0  0  0
   -3.0000    0.0000    0.0000 O   0  0  0  0  0  0  0  0  0  0  0  0
   -0.7500    1.2990    0.0000 C   0  0  0  0  0  0  0  0  0  0  0  0
   -1.5000    2.5981    0.0000 O   0  0  0  0  0  0  0  0  0  0  0  0
    0.7500    1.2990    0.0000 C   0  0  0  0  0  0  0  0  0  0  0  0
    1.5000    2.5981    0.0000 O   0  0  0  0  0  0  0  0  0  0  0  0
  1  2  2  0
  2  3  1  0
  3  4  1  6
  3  5  1  0
  3  6  1  0
  6  7  1  0
  7  8  1  0
  8  9  1  0
  8 10  2  0
 10 11  1  0
 11 12  1  0
 12 13  1  0
 13 14  1  1
 13 15  1  0
 15 16  1  0
 15 17  1  0
 15 18  1  0
 19 18  1  6
 19 20  1  0
 20 21  1  0
 21 22  1  6
 22 23  1  0
 21 24  1  0
 24 25  1  1
 24 26  1  0
 26 27  1  6
 26 28  1  0
 28 29  1  1
 28 19  1  0
M  END
>  <Compound_ID>  (769) 
C31157173

>  <Active>  (769) 
0.0

>  <Smiles>  (769) 
C=C[C@@](C)(O)CC/C(C)=C/CC[C@H](O)C(C)(C)O[C@@H]1O[C@H](CO)[C@@H](O)[C@H](O)[C@H]1O

>  <canonical_smi>  (769) 
C=C[C@@](C)(O)CC/C(C)=C/CC[C@H](O)C(C)(C)O[C@@H]1O[C@H](CO)[C@@H](O)[C@H](O)[C@H]1O

>  <Set>  (769) 
G2 inactive

>  <Set_type>  (769) 
Train

>  <MW>  (769) 
418.53

>  <HBD>  (769) 
6

>  <HBA>  (769) 
8

>  <NRB>  (769) 
11

>  <NR>  (769) 
1

>  <NAR>  (769) 
0

>  <PSA>  (769) 
139.84

>  <Standard Type>  (769) 
nan

>  <Standard Relation>  (769) 
nan

>  <Standard Units>  (769) 
nan

>  <Standard Value>  (769) 
nan

>  <Assay ChEMBL ID>  (769) 
nan

>  <Assay Description>  (769) 
nan

>  <BAO Label>  (769) 
nan

$$$$

     RDKit          2D

 29 31  0  0  0  0  0  0  0  0999 V2000
    3.7500   -1.2990    0.0000 O   0  0  0  0  0  0  0  0  0  0  0  0
    3.0000    0.0000    0.0000 C   0  0  0  0  0  0  0  0  0  0  0  0
    1.5000    0.0000    0.0000 C   0  0  0  0  0  0  0  0  0  0  0  0
    0.7500   -1.2990    0.0000 O   0  0  0  0  0  0  0  0  0  0  0  0
   -0.7500   -1.2990    0.0000 C   0  0  0  0  0  0  0  0  0  0  0  0
   -1.5000   -2.5981    0.0000 O   0  0  0  0  0  0  0  0  0  0  0  0
   -0.7500   -3.8971    0.0000 C   0  0  0  0  0  0  0  0  0  0  0  0
   -1.5000   -5.1962    0.0000 C   0  0  0  0  0  0  0  0  0  0  0  0
   -0.7500   -6.4952    0.0000 C   0  0  0  0  0  0  0  0  0  0  0  0
    0.7500   -6.4952    0.0000 C   0  0  0  0  0  0  0  0  0  0  0  0
    1.5000   -5.1962    0.0000 C   0  0  0  0  0  0  0  0  0  0  0  0
    3.0000   -5.1962    0.0000 O   0  0  0  0  0  0  0  0  0  0  0  0
    0.7500   -3.8971    0.0000 C   0  0  0  0  0  0  0  0  0  0  0  0
    1.5000   -2.5981    0.0000 C   0  0  0  0  0  0  0  0  0  0  0  0
    3.0000   -2.5981    0.0000 C   0  0  0  0  0  0  0  0  0  0  0  0
    3.7500   -3.8971    0.0000 C   0  0  0  0  0  0  0  0  0  0  0  0
    5.2500   -3.8971    0.0000 C   0  0  0  0  0  0  0  0  0  0  0  0
    6.0000   -2.5981    0.0000 C   0  0  0  0  0  0  0  0  0  0  0  0
    7.5000   -2.5981    0.0000 C   0  0  0  0  0  0  0  0  0  0  0  0
    8.2500   -3.8971    0.0000 C   0  0  0  0  0  0  0  0  0  0  0  0
    9.7500   -3.8971    0.0000 O   0  0  0  0  0  0  0  0  0  0  0  0
    7.5000   -5.1962    0.0000 C   0  0  0  0  0  0  0  0  0  0  0  0
    6.0000   -5.1962    0.0000 C   0  0  0  0  0  0  0  0  0  0  0  0
   -1.5000    0.0000    0.0000 C   0  0  0  0  0  0  0  0  0  0  0  0
   -3.0000    0.0000    0.0000 O   0  0  0  0  0  0  0  0  0  0  0  0
   -0.7500    1.2990    0.0000 C   0  0  0  0  0  0  0  0  0  0  0  0
   -1.5000    2.5981    0.0000 O   0  0  0  0  0  0  0  0  0  0  0  0
    0.7500    1.2990    0.0000 C   0  0  0  0  0  0  0  0  0  0  0  0
    1.5000    2.5981    0.0000 O   0  0  0  0  0  0  0  0  0  0  0  0
  1  2  1  0
  3  2  1  1
  3  4  1  0
  4  5  1  0
  5  6  1  6
  6  7  1  0
  7  8  2  0
  8  9  1  0
  9 10  2  0
 10 11  1  0
 11 12  1  0
 11 13  2  0
 13 14  1  0
 14 15  1  0
 15 16  1  0
 16 17  1  0
 17 18  2  0
 18 19  1  0
 19 20  2  0
 20 21  1  0
 20 22  1  0
 22 23  2  0
  5 24  1  0
 24 25  1  1
 24 26  1  0
 26 27  1  1
 26 28  1  0
 28 29  1  6
 28  3  1  0
 13  7  1  0
 23 17  1  0
M  END
>  <Compound_ID>  (770) 
C15221457

>  <Active>  (770) 
0.0

>  <Smiles>  (770) 
OC[C@H]1O[C@H](Oc2cccc(O)c2CCCc2ccc(O)cc2)[C@@H](O)[C@@H](O)[C@@H]1O

>  <canonical_smi>  (770) 
OC[C@H]1O[C@H](Oc2cccc(O)c2CCCc2ccc(O)cc2)[C@@H](O)[C@@H](O)[C@@H]1O

>  <Set>  (770) 
G2 inactive

>  <Set_type>  (770) 
Train

>  <MW>  (770) 
406.43

>  <HBD>  (770) 
6

>  <HBA>  (770) 
8

>  <NRB>  (770) 
7

>  <NR>  (770) 
3

>  <NAR>  (770) 
2

>  <PSA>  (770) 
139.84

>  <Standard Type>  (770) 
nan

>  <Standard Relation>  (770) 
nan

>  <Standard Units>  (770) 
nan

>  <Standard Value>  (770) 
nan

>  <Assay ChEMBL ID>  (770) 
nan

>  <Assay Description>  (770) 
nan

>  <BAO Label>  (770) 
nan

$$$$

     RDKit          2D

 30 32  0  0  0  0  0  0  0  0999 V2000
    5.2500    1.2990    0.0000 C   0  0  0  0  0  0  0  0  0  0  0  0
    3.7500    1.2990    0.0000 O   0  0  0  0  0  0  0  0  0  0  0  0
    3.0000    0.0000    0.0000 C   0  0  0  0  0  0  0  0  0  0  0  0
    3.7500   -1.2990    0.0000 C   0  0  0  0  0  0  0  0  0  0  0  0
    3.0000   -2.5981    0.0000 O   0  0  0  0  0  0  0  0  0  0  0  0
    5.2500   -1.2990    0.0000 C   0  0  0  0  0  0  0  0  0  0  0  0
    6.0000    0.0000    0.0000 O   0  0  0  0  0  0  0  0  0  0  0  0
    6.0000   -2.5981    0.0000 C   0  0  0  0  0  0  0  0  0  0  0  0
    7.5000   -2.5981    0.0000 C   0  0  0  0  0  0  0  0  0  0  0  0
    5.2500   -3.8971    0.0000 O   0  0  0  0  0  0  0  0  0  0  0  0
    1.5000    0.0000    0.0000 C   0  0  0  0  0  0  0  0  0  0  0  0
    0.7500   -1.2990    0.0000 C   0  0  0  0  0  0  0  0  0  0  0  0
   -0.7500   -1.2990    0.0000 C   0  0  0  0  0  0  0  0  0  0  0  0
   -1.5000   -2.5981    0.0000 C   0  0  0  0  0  0  0  0  0  0  0  0
   -3.0000   -2.5981    0.0000 C   0  0  0  0  0  0  0  0  0  0  0  0
   -3.7500   -3.8971    0.0000 C   0  0  0  0  0  0  0  0  0  0  0  0
   -5.2500   -3.8971    0.0000 C   0  0  0  0  0  0  0  0  0  0  0  0
   -6.0000   -5.1962    0.0000 O   0  0  0  0  0  0  0  0  0  0  0  0
   -6.0000   -2.5981    0.0000 C   0  0  0  0  0  0  0  0  0  0  0  0
   -7.5000   -2.5981    0.0000 C   0  0  0  0  0  0  0  0  0  0  0  0
   -5.2500   -1.2990    0.0000 C   0  0  0  0  0  0  0  0  0  0  0  0
   -6.0000   -0.0000    0.0000 O   0  0  0  0  0  0  0  0  0  0  0  0
   -3.7500   -1.2990    0.0000 C   0  0  0  0  0  0  0  0  0  0  0  0
   -3.0000    0.0000    0.0000 C   0  0  0  0  0  0  0  0  0  0  0  0
   -3.7500    1.2990    0.0000 O   0  0  0  0  0  0  0  0  0  0  0  0
   -1.5000    0.0000    0.0000 C   0  0  0  0  0  0  0  0  0  0  0  0
   -0.7500    1.2990    0.0000 C   0  0  0  0  0  0  0  0  0  0  0  0
   -1.5000    2.5981    0.0000 O   0  0  0  0  0  0  0  0  0  0  0  0
    0.7500    1.2990    0.0000 C   0  0  0  0  0  0  0  0  0  0  0  0
    1.5000    2.5981    0.0000 O   0  0  0  0  0  0  0  0  0  0  0  0
  1  2  1  0
  3  2  1  6
  3  4  1  0
  4  5  2  0
  4  6  1  0
  6  7  1  6
  6  8  1  0
  8  9  1  1
  8 10  1  0
  3 11  1  0
 11 12  1  1
 12 13  1  0
 13 14  2  0
 14 15  1  0
 15 16  2  0
 16 17  1  0
 17 18  1  0
 17 19  2  0
 19 20  1  0
 19 21  1  0
 21 22  1  0
 21 23  2  0
 23 24  1  0
 24 25  1  0
 24 26  2  0
 26 27  1  0
 27 28  2  0
 27 29  1  0
 29 30  1  6
 29 11  1  0
 26 13  1  0
 23 15  1  0
M  END
>  <Compound_ID>  (771) 
C03850729

>  <Active>  (771) 
0.0

>  <Smiles>  (771) 
CO[C@H](C(=O)[C@H](O)[C@@H](C)O)[C@H]1Cc2cc3cc(O)c(C)c(O)c3c(O)c2C(=O)[C@@H]1O

>  <canonical_smi>  (771) 
CO[C@H](C(=O)[C@H](O)[C@@H](C)O)[C@H]1Cc2cc3cc(O)c(C)c(O)c3c(O)c2C(=O)[C@@H]1O

>  <Set>  (771) 
G2 inactive

>  <Set_type>  (771) 
Train

>  <MW>  (771) 
420.41

>  <HBD>  (771) 
6

>  <HBA>  (771) 
9

>  <NRB>  (771) 
5

>  <NR>  (771) 
3

>  <NAR>  (771) 
2

>  <PSA>  (771) 
164.75

>  <Standard Type>  (771) 
nan

>  <Standard Relation>  (771) 
nan

>  <Standard Units>  (771) 
nan

>  <Standard Value>  (771) 
nan

>  <Assay ChEMBL ID>  (771) 
nan

>  <Assay Description>  (771) 
nan

>  <BAO Label>  (771) 
nan

$$$$

     RDKit          2D

 28 31  0  0  0  0  0  0  0  0999 V2000
   -5.2500   -1.2990    0.0000 C   0  0  0  0  0  0  0  0  0  0  0  0
   -3.7500   -1.2990    0.0000 C   0  0  0  0  0  0  0  0  0  0  0  0
   -3.0000   -2.5981    0.0000 O   0  0  0  0  0  0  0  0  0  0  0  0
   -1.5000   -2.5981    0.0000 C   0  0  0  0  0  0  0  0  0  0  0  0
   -0.7500   -3.8971    0.0000 C   0  0  0  0  0  0  0  0  0  0  0  0
   -1.5000   -5.1962    0.0000 N   0  0  0  0  0  0  0  0  0  0  0  0
   -0.8899   -6.5665    0.0000 C   0  0  0  0  0  0  0  0  0  0  0  0
   -2.0046   -7.5702    0.0000 C   0  0  0  0  0  0  0  0  0  0  0  0
   -3.3037   -6.8202    0.0000 C   0  0  0  0  0  0  0  0  0  0  0  0
   -4.6740   -7.4303    0.0000 N   0  0  0  0  0  4  0  0  0  0  0  0
   -2.9918   -5.3529    0.0000 C   0  0  0  0  0  0  0  0  0  0  0  0
    0.7500   -3.8971    0.0000 C   0  0  0  0  0  0  0  0  0  0  0  0
    1.5000   -5.1962    0.0000 F   0  0  0  0  0  0  0  0  0  0  0  0
    1.5000   -2.5981    0.0000 C   0  0  0  0  0  0  0  0  0  0  0  0
    3.0000   -2.5981    0.0000 N   0  0  0  0  0  0  0  0  0  0  0  0
    0.7500   -1.2990    0.0000 C   0  0  0  0  0  0  0  0  0  0  0  0
    1.5000    0.0000    0.0000 C   0  0  0  0  0  0  0  0  0  0  0  0
    3.0000    0.0000    0.0000 O   0  0  0  0  0  0  0  0  0  0  0  0
    0.7500    1.2990    0.0000 C   0  0  0  0  0  0  0  0  0  0  0  0
    1.5000    2.5981    0.0000 C   0  0  0  0  0  0  0  0  0  0  0  0
    0.7500    3.8971    0.0000 O   0  0  0  0  0  0  0  0  0  0  0  0
    3.0000    2.5981    0.0000 O   0  0  0  0  0  1  0  0  0  0  0  0
   -0.7500    1.2990    0.0000 C   0  0  0  0  0  0  0  0  0  0  0  0
   -1.5000    0.0000    0.0000 N   0  0  0  0  0  0  0  0  0  0  0  0
   -3.0000    0.0000    0.0000 C   0  0  0  0  0  0  0  0  0  0  0  0
   -4.2990   -0.7500    0.0000 C   0  0  0  0  0  0  0  0  0  0  0  0
   -4.2990    0.7500    0.0000 C   0  0  0  0  0  0  0  0  0  0  0  0
   -0.7500   -1.2990    0.0000 C   0  0  0  0  0  0  0  0  0  0  0  0
  1  2  1  0
  2  3  1  0
  3  4  1  0
  4  5  2  0
  5  6  1  0
  6  7  1  0
  7  8  1  0
  8  9  1  0
  9 10  1  6
  9 11  1  0
  5 12  1  0
 12 13  1  0
 12 14  2  0
 14 15  1  0
 14 16  1  0
 16 17  1  0
 17 18  2  0
 17 19  1  0
 19 20  1  0
 20 21  2  0
 20 22  1  0
 19 23  2  0
 23 24  1  0
 24 25  1  0
 25 26  1  0
 26 27  1  0
 24 28  1  0
 28  4  1  0
 11  6  1  0
 28 16  2  0
 27 25  1  0
M  CHG  2  10   1  22  -1
M  END
>  <Compound_ID>  (772) 
C38966977

>  <Active>  (772) 
0.0

>  <Smiles>  (772) 
CCOc1c(N2CC[C@H]([NH3+])C2)c(F)c(N)c2c(=O)c(C(=O)[O-])cn(C3CC3)c12

>  <canonical_smi>  (772) 
CCOc1c(N2CC[C@H]([NH3+])C2)c(F)c(N)c2c(=O)c(C(=O)[O-])cn(C3CC3)c12

>  <Set>  (772) 
G2 inactive

>  <Set_type>  (772) 
Train

>  <MW>  (772) 
390.42

>  <HBD>  (772) 
2

>  <HBA>  (772) 
6

>  <NRB>  (772) 
5

>  <NR>  (772) 
4

>  <NAR>  (772) 
2

>  <PSA>  (772) 
128.26

>  <Standard Type>  (772) 
nan

>  <Standard Relation>  (772) 
nan

>  <Standard Units>  (772) 
nan

>  <Standard Value>  (772) 
nan

>  <Assay ChEMBL ID>  (772) 
nan

>  <Assay Description>  (772) 
nan

>  <BAO Label>  (772) 
nan

$$$$

     RDKit          2D

 28 30  0  0  0  0  0  0  0  0999 V2000
    3.7500   -1.2990    0.0000 N   0  0  0  0  0  0  0  0  0  0  0  0
    3.0000    0.0000    0.0000 C   0  0  0  0  0  0  0  0  0  0  0  0
    3.7500    1.2990    0.0000 O   0  0  0  0  0  0  0  0  0  0  0  0
    1.5000    0.0000    0.0000 C   0  0  0  0  0  0  0  0  0  0  0  0
    0.7500   -1.2990    0.0000 C   0  0  0  0  0  0  0  0  0  0  0  0
   -0.7500   -1.2990    0.0000 C   0  0  0  0  0  0  0  0  0  0  0  0
   -1.5000    0.0000    0.0000 C   0  0  0  0  0  0  0  0  0  0  0  0
   -3.0000    0.0000    0.0000 N   0  0  0  0  0  0  0  0  0  0  0  0
   -3.7500    1.2990    0.0000 C   0  0  0  0  0  0  0  0  0  0  0  0
   -3.0000    2.5981    0.0000 O   0  0  0  0  0  0  0  0  0  0  0  0
   -5.2500    1.2990    0.0000 C   0  0  0  0  0  0  0  0  0  0  0  0
   -6.0000    2.5981    0.0000 C   0  0  0  0  0  0  0  0  0  0  0  0
   -7.4918    2.7549    0.0000 C   0  0  0  0  0  0  0  0  0  0  0  0
   -7.8037    4.2221    0.0000 S   0  0  0  0  0  0  0  0  0  0  0  0
   -6.5046    4.9721    0.0000 C   0  0  0  0  0  0  0  0  0  0  0  0
   -6.3478    6.4639    0.0000 N   0  0  0  0  0  0  0  0  0  0  0  0
   -4.9775    7.0740    0.0000 C   0  0  0  0  0  0  0  0  0  0  0  0
   -3.7640    6.1923    0.0000 O   0  0  0  0  0  0  0  0  0  0  0  0
   -4.8207    8.5658    0.0000 C   0  0  0  0  0  0  0  0  0  0  0  0
   -3.4504    9.1759    0.0000 C   0  0  0  0  0  0  0  0  0  0  0  0
   -3.2936   10.6676    0.0000 C   0  0  0  0  0  0  0  0  0  0  0  0
   -4.5071   11.5493    0.0000 C   0  0  0  0  0  0  0  0  0  0  0  0
   -4.3503   13.0411    0.0000 O   0  0  0  0  0  0  0  0  0  0  0  0
   -5.8774   10.9392    0.0000 N   0  0  0  0  0  0  0  0  0  0  0  0
   -6.0342    9.4474    0.0000 C   0  0  0  0  0  0  0  0  0  0  0  0
   -5.3899    3.9684    0.0000 N   0  0  0  0  0  0  0  0  0  0  0  0
   -0.7500    1.2990    0.0000 C   0  0  0  0  0  0  0  0  0  0  0  0
    0.7500    1.2990    0.0000 C   0  0  0  0  0  0  0  0  0  0  0  0
  1  2  1  0
  2  3  2  0
  2  4  1  0
  4  5  2  0
  5  6  1  0
  6  7  2  0
  7  8  1  0
  8  9  1  0
  9 10  2  0
  9 11  1  0
 11 12  2  0
 12 13  1  0
 13 14  1  0
 14 15  1  0
 15 16  1  1
 16 17  1  0
 17 18  2  0
 17 19  1  0
 19 20  2  0
 20 21  1  0
 21 22  1  0
 22 23  2  0
 22 24  1  0
 24 25  2  0
 15 26  1  0
  7 27  1  0
 27 28  2  0
 28  4  1  0
 26 12  1  0
 25 19  1  0
M  END
>  <Compound_ID>  (773) 
C39590427

>  <Active>  (773) 
0.0

>  <Smiles>  (773) 
NC(=O)c1ccc(NC(=O)/C=C2/CS[C@@H](NC(=O)C3=CCC(=O)N=C3)N2)cc1

>  <canonical_smi>  (773) 
NC(=O)c1ccc(NC(=O)/C=C2/CS[C@@H](NC(=O)C3=CCC(=O)N=C3)N2)cc1

>  <Set>  (773) 
G2 inactive

>  <Set_type>  (773) 
Train

>  <MW>  (773) 
399.43

>  <HBD>  (773) 
4

>  <HBA>  (773) 
6

>  <NRB>  (773) 
5

>  <NR>  (773) 
3

>  <NAR>  (773) 
1

>  <PSA>  (773) 
142.75

>  <Standard Type>  (773) 
nan

>  <Standard Relation>  (773) 
nan

>  <Standard Units>  (773) 
nan

>  <Standard Value>  (773) 
nan

>  <Assay ChEMBL ID>  (773) 
nan

>  <Assay Description>  (773) 
nan

>  <BAO Label>  (773) 
nan

$$$$

     RDKit          2D

 23 25  0  0  0  0  0  0  0  0999 V2000
    4.5000    0.0000    0.0000 N   0  0  0  0  0  0  0  0  0  0  0  0
    3.0000    0.0000    0.0000 S   0  0  0  0  0  0  0  0  0  0  0  0
    3.0000   -1.5000    0.0000 O   0  0  0  0  0  0  0  0  0  0  0  0
    3.0000    1.5000    0.0000 O   0  0  0  0  0  0  0  0  0  0  0  0
    1.5000    0.0000    0.0000 C   0  0  0  0  0  0  0  0  0  0  0  0
    0.7500   -1.2990    0.0000 C   0  0  0  0  0  0  0  0  0  0  0  0
   -0.7500   -1.2990    0.0000 C   0  0  0  0  0  0  0  0  0  0  0  0
   -1.5000    0.0000    0.0000 C   0  0  0  0  0  0  0  0  0  0  0  0
   -0.7500    1.2990    0.0000 C   0  0  0  0  0  0  0  0  0  0  0  0
    0.7500    1.2990    0.0000 C   0  0  0  0  0  0  0  0  0  0  0  0
    1.5000    2.5981    0.0000 Cl  0  0  0  0  0  0  0  0  0  0  0  0
   -3.0000    0.0000    0.0000 N   0  0  0  0  0  0  0  0  0  0  0  0
   -3.7500   -1.2990    0.0000 C   0  0  0  0  0  0  0  0  0  0  0  0
   -5.2500   -1.2990    0.0000 C   0  0  0  0  0  0  0  0  0  0  0  0
   -6.0000    0.0000    0.0000 C   0  0  0  0  0  0  0  0  0  0  0  0
   -7.4918    0.1568    0.0000 C   0  0  0  0  0  0  0  0  0  0  0  0
   -7.8037    1.6240    0.0000 C   0  0  0  0  0  0  0  0  0  0  0  0
   -6.5046    2.3740    0.0000 C   0  0  0  0  0  0  0  0  0  0  0  0
   -5.3899    1.3703    0.0000 C   0  0  0  0  0  0  0  0  0  0  0  0
   -3.0000   -2.5981    0.0000 N   0  0  0  0  0  0  0  0  0  0  0  0
   -1.5000   -2.5981    0.0000 S   0  0  0  0  0  0  0  0  0  0  0  0
   -0.0905   -3.1111    0.0000 O   0  0  0  0  0  0  0  0  0  0  0  0
   -1.7605   -4.0753    0.0000 O   0  0  0  0  0  0  0  0  0  0  0  0
  1  2  1  0
  2  3  2  0
  2  4  2  0
  2  5  1  0
  5  6  2  0
  6  7  1  0
  7  8  2  0
  8  9  1  0
  9 10  2  0
 10 11  1  0
  8 12  1  0
 12 13  1  0
 13 14  1  1
 14 15  1  0
 15 16  1  0
 16 17  1  0
 17 18  1  0
 18 19  1  0
 13 20  1  0
 20 21  1  0
 21 22  2  0
 21 23  2  0
 10  5  1  0
 19 15  1  0
 21  7  1  0
M  END
>  <Compound_ID>  (774) 
C03647770

>  <Active>  (774) 
0.0

>  <Smiles>  (774) 
NS(=O)(=O)c1cc2c(cc1Cl)N[C@H](CC1CCCC1)NS2(=O)=O

>  <canonical_smi>  (774) 
NS(=O)(=O)c1cc2c(cc1Cl)N[C@H](CC1CCCC1)NS2(=O)=O

>  <Set>  (774) 
G2 inactive

>  <Set_type>  (774) 
Train

>  <MW>  (774) 
379.89

>  <HBD>  (774) 
3

>  <HBA>  (774) 
5

>  <NRB>  (774) 
3

>  <NR>  (774) 
3

>  <NAR>  (774) 
1

>  <PSA>  (774) 
118.36

>  <Standard Type>  (774) 
nan

>  <Standard Relation>  (774) 
nan

>  <Standard Units>  (774) 
nan

>  <Standard Value>  (774) 
nan

>  <Assay ChEMBL ID>  (774) 
nan

>  <Assay Description>  (774) 
nan

>  <BAO Label>  (774) 
nan

$$$$

     RDKit          2D

 15 15  0  0  0  0  0  0  0  0999 V2000
    5.2500   -1.2990    0.0000 C   0  0  0  0  0  0  0  0  0  0  0  0
    3.7500   -1.2990    0.0000 C   0  0  0  0  0  0  0  0  0  0  0  0
    3.0000   -2.5981    0.0000 C   0  0  0  0  0  0  0  0  0  0  0  0
    3.0000    0.0000    0.0000 N   0  0  0  0  0  0  0  0  0  0  0  0
    1.5000    0.0000    0.0000 N   0  0  0  0  0  0  0  0  0  0  0  0
    0.7500   -1.2990    0.0000 C   0  0  0  0  0  0  0  0  0  0  0  0
    1.5000   -2.5981    0.0000 S   0  0  0  0  0  0  0  0  0  0  0  0
   -0.7500   -1.2990    0.0000 N   0  0  0  0  0  0  0  0  0  0  0  0
   -1.5000    0.0000    0.0000 C   0  0  0  0  0  0  0  0  0  0  0  0
   -2.6491   -0.9642    0.0000 C   0  0  0  0  0  0  0  0  0  0  0  0
   -2.6491    0.9642    0.0000 C   0  0  0  0  0  0  0  0  0  0  0  0
   -0.7500    1.2990    0.0000 C   0  0  0  0  0  0  0  0  0  0  0  0
    0.7500    1.2990    0.0000 C   0  0  0  0  0  0  0  0  0  0  0  0
    0.4895    2.7762    0.0000 C   0  0  0  0  0  0  0  0  0  0  0  0
    2.1595    1.8121    0.0000 O   0  0  0  0  0  0  0  0  0  0  0  0
  1  2  1  0
  2  3  1  0
  2  4  2  0
  4  5  1  0
  5  6  1  0
  6  7  2  0
  6  8  1  0
  8  9  1  0
  9 10  1  0
  9 11  1  0
  9 12  1  0
 12 13  1  0
 13 14  1  1
 13 15  1  0
 13  5  1  0
M  END
>  <Compound_ID>  (775) 
C05377818

>  <Active>  (775) 
0.0

>  <Smiles>  (775) 
CC(C)=NN1C(=S)NC(C)(C)C[C@]1(C)O

>  <canonical_smi>  (775) 
CC(C)=NN1C(=S)NC(C)(C)C[C@]1(C)O

>  <Set>  (775) 
G2 inactive

>  <Set_type>  (775) 
Train

>  <MW>  (775) 
229.35

>  <HBD>  (775) 
2

>  <HBA>  (775) 
4

>  <NRB>  (775) 
1

>  <NR>  (775) 
1

>  <NAR>  (775) 
0

>  <PSA>  (775) 
47.86

>  <Standard Type>  (775) 
nan

>  <Standard Relation>  (775) 
nan

>  <Standard Units>  (775) 
nan

>  <Standard Value>  (775) 
nan

>  <Assay ChEMBL ID>  (775) 
nan

>  <Assay Description>  (775) 
nan

>  <BAO Label>  (775) 
nan

$$$$

     RDKit          2D

 16 17  0  0  0  0  0  0  0  0999 V2000
    3.7500   -1.2990    0.0000 C   0  0  0  0  0  0  0  0  0  0  0  0
    3.0000    0.0000    0.0000 O   0  0  0  0  0  0  0  0  0  0  0  0
    1.5000    0.0000    0.0000 C   0  0  0  0  0  0  0  0  0  0  0  0
    0.7500   -1.2990    0.0000 C   0  0  0  0  0  0  0  0  0  0  0  0
   -0.7500   -1.2990    0.0000 C   0  0  0  0  0  0  0  0  0  0  0  0
   -1.5000    0.0000    0.0000 C   0  0  0  0  0  0  0  0  0  0  0  0
   -3.0000    0.0000    0.0000 N   0  0  0  0  0  4  0  0  0  0  0  0
   -3.7500    1.2990    0.0000 C   0  0  0  0  0  0  0  0  0  0  0  0
   -5.2500    1.2990    0.0000 Cl  0  0  0  0  0  0  0  0  0  0  0  0
   -3.0000    2.5981    0.0000 C   0  0  0  0  0  0  0  0  0  0  0  0
   -1.5000    2.5981    0.0000 C   0  0  0  0  0  0  0  0  0  0  0  0
   -0.7500    3.8971    0.0000 C   0  0  0  0  0  0  0  0  0  0  0  0
    0.7500    3.8971    0.0000 O   0  0  0  0  0  0  0  0  0  0  0  0
   -1.5000    5.1962    0.0000 O   0  0  0  0  0  1  0  0  0  0  0  0
   -0.7500    1.2990    0.0000 C   0  0  0  0  0  0  0  0  0  0  0  0
    0.7500    1.2990    0.0000 C   0  0  0  0  0  0  0  0  0  0  0  0
  1  2  1  0
  3  2  1  1
  3  4  1  0
  4  5  1  0
  6  5  1  1
  6  7  1  0
  7  8  1  0
  8  9  1  1
  8 10  1  0
 10 11  1  0
 11 12  1  1
 12 13  2  0
 12 14  1  0
 11 15  1  0
 15 16  1  6
 16  3  1  0
 15  6  1  0
M  CHG  2   7   1  14  -1
M  END
>  <Compound_ID>  (776) 
C04532485

>  <Active>  (776) 
0.0

>  <Smiles>  (776) 
CO[C@H]1CC[C@H]2[NH2+][C@@H](Cl)C[C@@H](C(=O)[O-])[C@@H]2C1

>  <canonical_smi>  (776) 
CO[C@H]1CC[C@H]2[NH2+][C@@H](Cl)C[C@@H](C(=O)[O-])[C@@H]2C1

>  <Set>  (776) 
G2 inactive

>  <Set_type>  (776) 
Train

>  <MW>  (776) 
247.72

>  <HBD>  (776) 
1

>  <HBA>  (776) 
3

>  <NRB>  (776) 
2

>  <NR>  (776) 
2

>  <NAR>  (776) 
0

>  <PSA>  (776) 
65.97

>  <Standard Type>  (776) 
nan

>  <Standard Relation>  (776) 
nan

>  <Standard Units>  (776) 
nan

>  <Standard Value>  (776) 
nan

>  <Assay ChEMBL ID>  (776) 
nan

>  <Assay Description>  (776) 
nan

>  <BAO Label>  (776) 
nan

$$$$

     RDKit          2D

 16 18  0  0  0  0  0  0  0  0999 V2000
    2.2500   -1.2990    0.0000 O   0  0  0  0  0  0  0  0  0  0  0  0
    0.7500   -1.2990    0.0000 C   0  0  0  0  0  0  0  0  0  0  0  0
    1.5000    0.0000    0.0000 C   0  0  0  0  0  0  0  0  0  0  0  0
    0.7500    1.2990    0.0000 C   0  0  0  0  0  0  0  0  0  0  0  0
   -0.7500    1.2990    0.0000 C   0  0  0  0  0  0  0  0  0  0  0  0
   -1.5000    0.0000    0.0000 C   0  0  0  0  0  0  0  0  0  0  0  0
   -0.7500   -1.2990    0.0000 C   0  0  0  0  0  0  0  0  0  0  0  0
   -1.5000   -2.5981    0.0000 O   0  0  0  0  0  0  0  0  0  0  0  0
   -0.7500   -3.8971    0.0000 C   0  0  0  0  0  0  0  0  0  0  0  0
   -2.2500   -3.8971    0.0000 O   0  0  0  0  0  0  0  0  0  0  0  0
   -1.5000   -5.1962    0.0000 C   0  0  0  0  0  0  0  0  0  0  0  0
   -0.7500   -6.4952    0.0000 C   0  0  0  0  0  0  0  0  0  0  0  0
    0.7500   -6.4952    0.0000 C   0  0  0  0  0  0  0  0  0  0  0  0
    1.5000   -5.1962    0.0000 C   0  0  0  0  0  0  0  0  0  0  0  0
    0.7500   -3.8971    0.0000 C   0  0  0  0  0  0  0  0  0  0  0  0
    1.5000   -2.5981    0.0000 O   0  0  0  0  0  0  0  0  0  0  0  0
  2  1  1  6
  2  3  1  0
  3  4  1  0
  4  5  1  0
  5  6  1  0
  7  6  1  1
  7  8  1  0
  8  9  1  0
  9 10  1  6
  9 11  1  0
 11 12  1  0
 12 13  1  0
 13 14  1  0
 15 14  1  1
 15 16  1  0
  7  2  1  0
 15  9  1  0
 16  2  1  0
M  END
>  <Compound_ID>  (777) 
C04829816

>  <Active>  (777) 
0.0

>  <Smiles>  (777) 
O[C@@]12CCCC[C@@H]1O[C@]1(O)CCCC[C@@H]1O2

>  <canonical_smi>  (777) 
O[C@@]12CCCC[C@@H]1O[C@]1(O)CCCC[C@@H]1O2

>  <Set>  (777) 
G2 inactive

>  <Set_type>  (777) 
Train

>  <MW>  (777) 
228.29

>  <HBD>  (777) 
2

>  <HBA>  (777) 
4

>  <NRB>  (777) 
0

>  <NR>  (777) 
3

>  <NAR>  (777) 
0

>  <PSA>  (777) 
58.92

>  <Standard Type>  (777) 
nan

>  <Standard Relation>  (777) 
nan

>  <Standard Units>  (777) 
nan

>  <Standard Value>  (777) 
nan

>  <Assay ChEMBL ID>  (777) 
nan

>  <Assay Description>  (777) 
nan

>  <BAO Label>  (777) 
nan

$$$$

     RDKit          2D

 14 15  0  0  0  0  0  0  0  0999 V2000
    6.5218   -4.2298    0.0000 N   0  0  0  0  0  0  0  0  0  0  0  0
    5.3083   -3.3481    0.0000 C   0  0  0  0  0  0  0  0  0  0  0  0
    5.3083   -1.8481    0.0000 N   0  0  0  0  0  0  0  0  0  0  0  0
    3.8817   -1.3846    0.0000 N   0  0  0  0  0  0  0  0  0  0  0  0
    3.0000   -2.5981    0.0000 C   0  0  0  0  0  0  0  0  0  0  0  0
    1.5000   -2.5981    0.0000 S   0  0  0  0  0  0  0  0  0  0  0  0
    0.7500   -1.2990    0.0000 C   0  0  0  0  0  0  0  0  0  0  0  0
    1.5000    0.0000    0.0000 C   0  0  0  0  0  0  0  0  0  0  0  0
    0.7500    1.2990    0.0000 C   0  0  0  0  0  0  0  0  0  0  0  0
   -0.7500    1.2990    0.0000 C   0  0  0  0  0  0  0  0  0  0  0  0
   -1.5000    0.0000    0.0000 C   0  0  0  0  0  0  0  0  0  0  0  0
   -0.7500   -1.2990    0.0000 C   0  0  0  0  0  0  0  0  0  0  0  0
   -1.5000   -2.5981    0.0000 O   0  0  0  0  0  0  0  0  0  0  0  0
    3.8817   -3.8116    0.0000 S   0  0  0  0  0  0  0  0  0  0  0  0
  1  2  1  0
  2  3  2  0
  3  4  1  0
  4  5  2  0
  5  6  1  0
  7  6  1  1
  7  8  1  0
  8  9  1  0
  9 10  1  0
 10 11  1  0
 11 12  1  0
 12 13  2  0
  5 14  1  0
 14  2  1  0
 12  7  1  0
M  END
>  <Compound_ID>  (778) 
C07536016

>  <Active>  (778) 
0.0

>  <Smiles>  (778) 
Nc1nnc(S[C@@H]2CCCCC2=O)s1

>  <canonical_smi>  (778) 
Nc1nnc(S[C@@H]2CCCCC2=O)s1

>  <Set>  (778) 
G2 inactive

>  <Set_type>  (778) 
Train

>  <MW>  (778) 
229.33

>  <HBD>  (778) 
1

>  <HBA>  (778) 
5

>  <NRB>  (778) 
2

>  <NR>  (778) 
2

>  <NAR>  (778) 
1

>  <PSA>  (778) 
68.87

>  <Standard Type>  (778) 
nan

>  <Standard Relation>  (778) 
nan

>  <Standard Units>  (778) 
nan

>  <Standard Value>  (778) 
nan

>  <Assay ChEMBL ID>  (778) 
nan

>  <Assay Description>  (778) 
nan

>  <BAO Label>  (778) 
nan

$$$$

     RDKit          2D

 24 28  0  0  0  0  0  0  0  0999 V2000
   -6.0000   -5.1962    0.0000 O   0  0  0  0  0  0  0  0  0  0  0  0
   -5.2500   -3.8971    0.0000 C   0  0  0  0  0  0  0  0  0  0  0  0
   -6.0000   -2.5981    0.0000 O   0  0  0  0  0  1  0  0  0  0  0  0
   -3.7500   -3.8971    0.0000 C   0  0  0  0  0  0  0  0  0  0  0  0
   -3.0000   -5.1962    0.0000 C   0  0  0  0  0  0  0  0  0  0  0  0
   -1.5000   -5.1962    0.0000 C   0  0  0  0  0  0  0  0  0  0  0  0
   -0.2372   -6.1143    0.0000 C   0  0  0  0  0  0  0  0  0  0  0  0
   -0.2372   -7.6143    0.0000 C   0  0  0  0  0  0  0  0  0  0  0  0
    1.0619   -8.3643    0.0000 C   0  0  0  0  0  0  0  0  0  0  0  0
    2.3609   -7.6143    0.0000 C   0  0  0  0  0  0  0  0  0  0  0  0
    2.3609   -6.1143    0.0000 C   0  0  0  0  0  0  0  0  0  0  0  0
    1.0619   -5.3643    0.0000 C   0  0  0  0  0  0  0  0  0  0  0  0
    0.7500   -3.8971    0.0000 N   0  0  0  0  0  0  0  0  0  0  0  0
    1.5000   -2.5981    0.0000 C   0  0  0  0  0  0  0  0  0  0  0  0
    3.0000   -2.5981    0.0000 O   0  0  0  0  0  0  0  0  0  0  0  0
    0.7500   -1.2990    0.0000 C   0  0  0  0  0  0  0  0  0  0  0  0
    1.5000    0.0000    0.0000 C   0  0  0  0  0  0  0  0  0  0  0  0
    0.7500    1.2990    0.0000 C   0  0  0  0  0  0  0  0  0  0  0  0
   -0.7500    1.2990    0.0000 C   0  0  0  0  0  0  0  0  0  0  0  0
   -1.5000    0.0000    0.0000 C   0  0  0  0  0  0  0  0  0  0  0  0
   -0.7500   -1.2990    0.0000 C   0  0  0  0  0  0  0  0  0  0  0  0
   -1.5000   -2.5981    0.0000 C   0  0  0  0  0  0  0  0  0  0  0  0
   -3.0000   -2.5981    0.0000 N   0  0  0  0  0  4  0  0  0  0  0  0
   -0.7500   -3.8971    0.0000 C   0  0  0  0  0  0  0  0  0  0  0  0
  1  2  2  0
  2  3  1  0
  2  4  1  0
  4  5  2  0
  5  6  1  0
  6  7  1  0
  7  8  2  0
  8  9  1  0
  9 10  2  0
 10 11  1  0
 11 12  2  0
 12 13  1  0
 13 14  1  0
 14 15  2  0
 14 16  1  0
 16 17  2  0
 17 18  1  0
 18 19  2  0
 19 20  1  0
 20 21  2  0
 21 22  1  0
 22 23  2  0
 22 24  1  0
 23  4  1  0
 24  6  2  0
 12  7  1  0
 24 13  1  0
 21 16  1  0
M  CHG  2   3  -1  23   1
M  END
>  <Compound_ID>  (779) 
C20759000

>  <Active>  (779) 
0.0

>  <Smiles>  (779) 
O=C([O-])c1cc2c3ccccc3n3c(=O)c4ccccc4c([nH+]1)c23

>  <canonical_smi>  (779) 
O=C([O-])c1cc2c3ccccc3n3c(=O)c4ccccc4c([nH+]1)c23

>  <Set>  (779) 
G2 inactive

>  <Set_type>  (779) 
Train

>  <MW>  (779) 
314.3

>  <HBD>  (779) 
0

>  <HBA>  (779) 
3

>  <NRB>  (779) 
1

>  <NR>  (779) 
5

>  <NAR>  (779) 
5

>  <PSA>  (779) 
75.75

>  <Standard Type>  (779) 
nan

>  <Standard Relation>  (779) 
nan

>  <Standard Units>  (779) 
nan

>  <Standard Value>  (779) 
nan

>  <Assay ChEMBL ID>  (779) 
nan

>  <Assay Description>  (779) 
nan

>  <BAO Label>  (779) 
nan

$$$$

     RDKit          2D

 21 24  0  0  0  0  0  0  0  0999 V2000
   -7.7909   -0.7623    0.0000 C   0  0  0  0  0  0  0  0  0  0  0  0
   -6.2992   -0.9191    0.0000 C   0  0  0  0  0  0  0  0  0  0  0  0
   -5.5492   -2.2181    0.0000 C   0  0  0  0  0  0  0  0  0  0  0  0
   -4.0819   -1.9062    0.0000 C   0  0  0  0  0  0  0  0  0  0  0  0
   -2.9672   -2.9099    0.0000 C   0  0  0  0  0  0  0  0  0  0  0  0
   -3.1240   -4.4017    0.0000 N   0  0  0  0  0  0  0  0  0  0  0  0
   -1.7537   -5.0118    0.0000 N   0  0  0  0  0  0  0  0  0  0  0  0
   -0.7500   -3.8971    0.0000 C   0  0  0  0  0  0  0  0  0  0  0  0
    0.7500   -3.8971    0.0000 C   0  0  0  0  0  0  0  0  0  0  0  0
    1.5000   -2.5981    0.0000 C   0  0  0  0  0  0  0  0  0  0  0  0
    3.0000   -2.5981    0.0000 C   0  0  0  0  0  0  0  0  0  0  0  0
    0.7500   -1.2990    0.0000 C   0  0  0  0  0  0  0  0  0  0  0  0
    1.5000    0.0000    0.0000 C   0  0  0  0  0  0  0  0  0  0  0  0
    0.7500    1.2990    0.0000 C   0  0  0  0  0  0  0  0  0  0  0  0
   -0.7500    1.2990    0.0000 C   0  0  0  0  0  0  0  0  0  0  0  0
   -1.5000    2.5981    0.0000 Cl  0  0  0  0  0  0  0  0  0  0  0  0
   -1.5000    0.0000    0.0000 C   0  0  0  0  0  0  0  0  0  0  0  0
   -0.7500   -1.2990    0.0000 C   0  0  0  0  0  0  0  0  0  0  0  0
   -1.5000   -2.5981    0.0000 N   0  0  0  0  0  0  0  0  0  0  0  0
   -3.9251   -0.4145    0.0000 N   0  0  0  0  0  0  0  0  0  0  0  0
   -5.2955    0.1956    0.0000 N   0  0  0  0  0  0  0  0  0  0  0  0
  1  2  1  0
  2  3  2  0
  4  3  1  1
  4  5  1  0
  5  6  1  6
  6  7  1  0
  7  8  2  0
  8  9  1  0
  9 10  2  0
 10 11  1  0
 10 12  1  0
 12 13  2  0
 13 14  1  0
 14 15  2  0
 15 16  1  0
 15 17  1  0
 17 18  2  0
 18 19  1  0
  4 20  1  0
 20 21  2  0
 21  2  1  0
 19  5  1  0
 19  8  1  0
 18 12  1  0
M  END
>  <Compound_ID>  (780) 
C39516092

>  <Active>  (780) 
0.0

>  <Smiles>  (780) 
CC1=C[C@H]([C@H]2NN=C3C=C(C)c4ccc(Cl)cc4N32)N=N1

>  <canonical_smi>  (780) 
CC1=C[C@H]([C@H]2NN=C3C=C(C)c4ccc(Cl)cc4N32)N=N1

>  <Set>  (780) 
G2 inactive

>  <Set_type>  (780) 
Train

>  <MW>  (780) 
299.76

>  <HBD>  (780) 
1

>  <HBA>  (780) 
2

>  <NRB>  (780) 
1

>  <NR>  (780) 
4

>  <NAR>  (780) 
1

>  <PSA>  (780) 
52.35

>  <Standard Type>  (780) 
nan

>  <Standard Relation>  (780) 
nan

>  <Standard Units>  (780) 
nan

>  <Standard Value>  (780) 
nan

>  <Assay ChEMBL ID>  (780) 
nan

>  <Assay Description>  (780) 
nan

>  <BAO Label>  (780) 
nan

$$$$

     RDKit          2D

 33 35  0  0  0  0  0  0  0  0999 V2000
    7.2760    2.5981    0.0000 C   0  0  0  0  0  0  0  0  0  0  0  0
    5.7760    2.5981    0.0000 C   0  0  0  0  0  0  0  0  0  0  0  0
    5.0260    1.2990    0.0000 N   0  0  0  0  0  4  0  0  0  0  0  0
    5.7760   -0.0000    0.0000 C   0  0  0  0  0  0  0  0  0  0  0  0
    7.2760   -0.0000    0.0000 C   0  0  0  0  0  0  0  0  0  0  0  0
    3.5260    1.2990    0.0000 C   0  0  0  0  0  0  0  0  0  0  0  0
    2.7760    0.0000    0.0000 C   0  0  0  0  0  0  0  0  0  0  0  0
    1.2760    0.0000    0.0000 N   0  0  0  0  0  0  0  0  0  0  0  0
    0.3943    1.2135    0.0000 C   0  0  0  0  0  0  0  0  0  0  0  0
    0.8578    2.6401    0.0000 O   0  0  0  0  0  0  0  0  0  0  0  0
   -1.0323    0.7500    0.0000 C   0  0  0  0  0  0  0  0  0  0  0  0
   -2.1293    1.7730    0.0000 O   0  0  0  0  0  0  0  0  0  0  0  0
   -1.0323   -0.7500    0.0000 C   0  0  0  0  0  0  0  0  0  0  0  0
   -2.2458   -1.6317    0.0000 C   0  0  0  0  0  0  0  0  0  0  0  0
   -2.0890   -3.1235    0.0000 O   0  0  0  0  0  0  0  0  0  0  0  0
   -3.6161   -1.0216    0.0000 C   0  0  0  0  0  0  0  0  0  0  0  0
   -3.9280    0.4456    0.0000 C   0  0  0  0  0  0  0  0  0  0  0  0
   -3.0677    1.6744    0.0000 C   0  0  0  0  0  0  0  0  0  0  0  0
   -5.4198    0.6024    0.0000 N   0  0  0  0  0  0  0  0  0  0  0  0
   -6.0299   -0.7679    0.0000 C   0  0  0  0  0  0  0  0  0  0  0  0
   -7.4971   -1.0797    0.0000 C   0  0  0  0  0  0  0  0  0  0  0  0
   -8.5008    0.0350    0.0000 O   0  0  0  0  0  0  0  0  0  0  0  0
   -7.9606   -2.5063    0.0000 O   0  0  0  0  0  0  0  0  0  0  0  0
   -9.4279   -2.8182    0.0000 C   0  0  0  0  0  0  0  0  0  0  0  0
   -4.9152   -1.7716    0.0000 C   0  0  0  0  0  0  0  0  0  0  0  0
   -5.0720   -3.2634    0.0000 C   0  0  0  0  0  0  0  0  0  0  0  0
    0.3943   -1.2135    0.0000 C   0  0  0  0  0  0  0  0  0  0  0  0
    0.8578   -2.6401    0.0000 C   0  0  0  0  0  0  0  0  0  0  0  0
    2.2844   -3.1036    0.0000 C   0  0  0  0  0  0  0  0  0  0  0  0
    2.2844   -4.6036    0.0000 C   0  0  0  0  0  0  0  0  0  0  0  0
    0.8578   -5.0672    0.0000 C   0  0  0  0  0  0  0  0  0  0  0  0
    0.3943   -6.4937    0.0000 C   0  0  0  0  0  0  0  0  0  0  0  0
   -0.0239   -3.8536    0.0000 O   0  0  0  0  0  0  0  0  0  0  0  0
  1  2  1  0
  2  3  1  0
  3  4  1  0
  4  5  1  0
  3  6  1  0
  6  7  1  0
  7  8  1  0
  8  9  1  0
  9 10  2  0
  9 11  1  0
 11 12  1  0
 11 13  2  0
 13 14  1  0
 14 15  2  0
 14 16  1  0
 16 17  2  0
 17 18  1  0
 17 19  1  0
 19 20  1  0
 20 21  1  0
 21 22  2  0
 21 23  1  0
 23 24  1  0
 20 25  2  0
 25 26  1  0
 13 27  1  0
 27 28  1  6
 28 29  2  0
 29 30  1  0
 30 31  2  0
 31 32  1  0
 31 33  1  0
 27  8  1  0
 33 28  1  0
 25 16  1  0
M  CHG  1   3   1
M  END
>  <Compound_ID>  (781) 
C08827719

>  <Active>  (781) 
0.0

>  <Smiles>  (781) 
CC[NH+](CC)CCN1C(=O)C(O)=C(C(=O)c2c(C)[nH]c(C(=O)OC)c2C)[C@H]1c1ccc(C)o1

>  <canonical_smi>  (781) 
CC[NH+](CC)CCN1C(=O)C(O)=C(C(=O)c2c(C)[nH]c(C(=O)OC)c2C)[C@H]1c1ccc(C)o1

>  <Set>  (781) 
G2 inactive

>  <Set_type>  (781) 
Train

>  <MW>  (781) 
458.54

>  <HBD>  (781) 
3

>  <HBA>  (781) 
6

>  <NRB>  (781) 
9

>  <NR>  (781) 
3

>  <NAR>  (781) 
2

>  <PSA>  (781) 
117.28

>  <Standard Type>  (781) 
nan

>  <Standard Relation>  (781) 
nan

>  <Standard Units>  (781) 
nan

>  <Standard Value>  (781) 
nan

>  <Assay ChEMBL ID>  (781) 
nan

>  <Assay Description>  (781) 
nan

>  <BAO Label>  (781) 
nan

$$$$

     RDKit          2D

 29 31  0  0  0  0  0  0  0  0999 V2000
   -5.0078   -5.8597    0.0000 C   0  0  0  0  0  0  0  0  0  0  0  0
   -3.6375   -5.2496    0.0000 C   0  0  0  0  0  0  0  0  0  0  0  0
   -2.4240   -6.1312    0.0000 C   0  0  0  0  0  0  0  0  0  0  0  0
   -1.0537   -5.5211    0.0000 C   0  0  0  0  0  0  0  0  0  0  0  0
    0.2454   -6.2711    0.0000 N   0  0  0  0  0  0  0  0  0  0  0  0
    1.3601   -5.2674    0.0000 N   0  0  0  0  0  0  0  0  0  0  0  0
    0.7500   -3.8971    0.0000 C   0  0  0  0  0  0  0  0  0  0  0  0
    1.5000   -2.5981    0.0000 C   0  0  0  0  0  0  0  0  0  0  0  0
    0.7500   -1.2990    0.0000 C   0  0  0  0  0  0  0  0  0  0  0  0
    1.5000    0.0000    0.0000 C   0  0  0  0  0  0  0  0  0  0  0  0
    0.7500    1.2990    0.0000 C   0  0  0  0  0  0  0  0  0  0  0  0
    1.5000    2.5981    0.0000 C   0  0  0  0  0  0  0  0  0  0  0  0
    3.0000    2.5981    0.0000 C   0  0  0  0  0  0  0  0  0  0  0  0
    0.7500    3.8971    0.0000 C   0  0  0  0  0  0  0  0  0  0  0  0
   -0.7500    1.2990    0.0000 C   0  0  0  0  0  0  0  0  0  0  0  0
   -1.5000    2.5981    0.0000 C   0  0  0  0  0  0  0  0  0  0  0  0
   -3.0000    2.5981    0.0000 N   0  0  0  0  0  4  0  0  0  0  0  0
   -3.7500    3.8971    0.0000 C   0  0  0  0  0  0  0  0  0  0  0  0
   -5.2500    3.8971    0.0000 C   0  0  0  0  0  0  0  0  0  0  0  0
   -6.0000    2.5981    0.0000 C   0  0  0  0  0  0  0  0  0  0  0  0
   -7.5000    2.5981    0.0000 C   0  0  0  0  0  0  0  0  0  0  0  0
   -8.2500    3.8971    0.0000 N   0  0  0  0  0  0  0  0  0  0  0  0
   -8.2500    1.2990    0.0000 O   0  0  0  0  0  0  0  0  0  0  0  0
   -5.2500    1.2990    0.0000 C   0  0  0  0  0  0  0  0  0  0  0  0
   -3.7500    1.2990    0.0000 C   0  0  0  0  0  0  0  0  0  0  0  0
   -1.5000    0.0000    0.0000 C   0  0  0  0  0  0  0  0  0  0  0  0
   -0.7500   -1.2990    0.0000 C   0  0  0  0  0  0  0  0  0  0  0  0
   -1.5000   -2.5981    0.0000 C   0  0  0  0  0  0  0  0  0  0  0  0
   -0.7418   -4.0539    0.0000 O   0  0  0  0  0  0  0  0  0  0  0  0
  1  2  1  0
  2  3  1  0
  3  4  1  0
  4  5  2  0
  5  6  1  0
  6  7  2  0
  7  8  1  0
  9  8  1  1
  9 10  1  0
 10 11  1  0
 11 12  1  6
 12 13  1  0
 12 14  1  0
 11 15  1  0
 15 16  1  1
 16 17  1  0
 17 18  1  0
 18 19  1  0
 19 20  1  0
 20 21  1  0
 21 22  1  0
 21 23  2  0
 20 24  1  0
 24 25  1  0
 15 26  1  0
 26 27  2  0
 27 28  1  0
  7 29  1  0
 29  4  1  0
 27  9  1  0
 25 17  1  0
M  CHG  1  17   1
M  END
>  <Compound_ID>  (782) 
C35442707

>  <Active>  (782) 
0.0

>  <Smiles>  (782) 
CCCc1nnc(C[C@@H]2C[C@@H](C(C)C)[C@H](C[NH+]3CCC(C(N)=O)CC3)C=C2C)o1

>  <canonical_smi>  (782) 
CCCc1nnc(C[C@@H]2C[C@@H](C(C)C)[C@H](C[NH+]3CCC(C(N)=O)CC3)C=C2C)o1

>  <Set>  (782) 
G2 inactive

>  <Set_type>  (782) 
Train

>  <MW>  (782) 
403.59

>  <HBD>  (782) 
2

>  <HBA>  (782) 
4

>  <NRB>  (782) 
8

>  <NR>  (782) 
3

>  <NAR>  (782) 
1

>  <PSA>  (782) 
86.45

>  <Standard Type>  (782) 
nan

>  <Standard Relation>  (782) 
nan

>  <Standard Units>  (782) 
nan

>  <Standard Value>  (782) 
nan

>  <Assay ChEMBL ID>  (782) 
nan

>  <Assay Description>  (782) 
nan

>  <BAO Label>  (782) 
nan

$$$$

     RDKit          2D

 29 31  0  0  0  0  0  0  0  0999 V2000
   -2.5981   -9.6073    0.0000 O   0  0  0  0  0  0  0  0  0  0  0  0
   -1.2990  -10.3573    0.0000 C   0  0  0  0  0  0  0  0  0  0  0  0
    0.0000   -9.6073    0.0000 N   0  0  0  0  0  0  0  0  0  0  0  0
    0.0000   -8.1073    0.0000 C   0  0  0  0  0  0  0  0  0  0  0  0
   -1.2990   -7.3573    0.0000 C   0  0  0  0  0  0  0  0  0  0  0  0
   -1.2990   -5.8573    0.0000 C   0  0  0  0  0  0  0  0  0  0  0  0
   -0.0000   -5.1073    0.0000 C   0  0  0  0  0  0  0  0  0  0  0  0
   -0.0000   -3.6073    0.0000 C   0  0  0  0  0  0  0  0  0  0  0  0
    1.2135   -2.7256    0.0000 N   0  0  0  0  0  2  0  0  0  0  0  0
    0.7500   -1.2990    0.0000 C   0  0  0  0  0  0  0  0  0  0  0  0
    1.5000    0.0000    0.0000 C   0  0  0  0  0  0  0  0  0  0  0  0
    0.7500    1.2990    0.0000 C   0  0  0  0  0  0  0  0  0  0  0  0
    1.5000    2.5981    0.0000 N   0  0  0  0  0  4  0  0  0  0  0  0
    0.7500    3.8971    0.0000 C   0  0  0  0  0  0  0  0  0  0  0  0
   -0.7500    3.8971    0.0000 O   0  0  0  0  0  0  0  0  0  0  0  0
    1.5000    5.1962    0.0000 C   0  0  0  0  0  0  0  0  0  0  0  0
    2.2500    6.4952    0.0000 F   0  0  0  0  0  0  0  0  0  0  0  0
    0.2010    5.9462    0.0000 F   0  0  0  0  0  0  0  0  0  0  0  0
    2.7990    4.4462    0.0000 F   0  0  0  0  0  0  0  0  0  0  0  0
   -0.7500    1.2990    0.0000 C   0  0  0  0  0  0  0  0  0  0  0  0
   -1.5000    0.0000    0.0000 C   0  0  0  0  0  0  0  0  0  0  0  0
   -0.7500   -1.2990    0.0000 C   0  0  0  0  0  0  0  0  0  0  0  0
   -1.2135   -2.7256    0.0000 N   0  0  0  0  0  4  0  0  0  0  0  0
    1.2990   -5.8573    0.0000 C   0  0  0  0  0  0  0  0  0  0  0  0
    1.2990   -7.3573    0.0000 C   0  0  0  0  0  0  0  0  0  0  0  0
   -1.2990  -11.8573    0.0000 C   0  0  0  0  0  0  0  0  0  0  0  0
   -1.2990  -13.3573    0.0000 F   0  0  0  0  0  0  0  0  0  0  0  0
   -2.7990  -11.8573    0.0000 F   0  0  0  0  0  0  0  0  0  0  0  0
    0.2010  -11.8573    0.0000 F   0  0  0  0  0  0  0  0  0  0  0  0
  1  2  2  0
  2  3  1  0
  3  4  1  0
  4  5  2  0
  5  6  1  0
  6  7  2  0
  8  7  1  1
  8  9  1  0
  9 10  1  0
 10 11  2  0
 11 12  1  0
 12 13  2  0
 13 14  1  0
 14 15  2  0
 14 16  1  0
 16 17  1  0
 16 18  1  0
 16 19  1  0
 12 20  1  0
 20 21  2  0
 21 22  1  0
 22 23  2  0
  7 24  1  0
 24 25  2  0
  2 26  1  0
 26 27  1  0
 26 28  1  0
 26 29  1  0
 25  4  1  0
 23  8  1  0
 22 10  1  0
M  CHG  3   9  -1  13   1  23   1
M  END
>  <Compound_ID>  (783) 
C39706768

>  <Active>  (783) 
0.0

>  <Smiles>  (783) 
O=C(Nc1ccc([C@@H]2[N-]C3=C/C(=[NH+]/C(=O)C(F)(F)F)C=CC3=[NH+]2)cc1)C(F)(F)F

>  <canonical_smi>  (783) 
O=C(Nc1ccc([C@@H]2[N-]C3=C/C(=[NH+]/C(=O)C(F)(F)F)C=CC3=[NH+]2)cc1)C(F)(F)F

>  <Set>  (783) 
G2 inactive

>  <Set_type>  (783) 
Train

>  <MW>  (783) 
417.29

>  <HBD>  (783) 
3

>  <HBA>  (783) 
2

>  <NRB>  (783) 
2

>  <NR>  (783) 
3

>  <NAR>  (783) 
1

>  <PSA>  (783) 
88.21

>  <Standard Type>  (783) 
nan

>  <Standard Relation>  (783) 
nan

>  <Standard Units>  (783) 
nan

>  <Standard Value>  (783) 
nan

>  <Assay ChEMBL ID>  (783) 
nan

>  <Assay Description>  (783) 
nan

>  <BAO Label>  (783) 
nan

$$$$

     RDKit          2D

 39 44  0  0  0  0  0  0  0  0999 V2000
    2.3907    1.0037    0.0000 C   0  0  0  0  0  0  0  0  0  0  0  0
    1.2760    0.0000    0.0000 C   0  0  0  0  0  0  0  0  0  0  0  0
    2.3907   -1.0037    0.0000 C   0  0  0  0  0  0  0  0  0  0  0  0
    0.3943    1.2135    0.0000 O   0  0  0  0  0  0  0  0  0  0  0  0
   -1.0323    0.7500    0.0000 C   0  0  0  0  0  0  0  0  0  0  0  0
   -1.0323   -0.7500    0.0000 C   0  0  0  0  0  0  0  0  0  0  0  0
    0.3943   -1.2135    0.0000 O   0  0  0  0  0  0  0  0  0  0  0  0
   -2.4589   -1.2135    0.0000 C   0  0  0  0  0  0  0  0  0  0  0  0
   -2.9224   -2.6401    0.0000 C   0  0  0  0  0  0  0  0  0  0  0  0
   -4.3896   -2.9520    0.0000 O   0  0  0  0  0  0  0  0  0  0  0  0
   -4.8531   -4.3786    0.0000 C   0  0  0  0  0  0  0  0  0  0  0  0
   -6.2797   -3.9150    0.0000 C   0  0  0  0  0  0  0  0  0  0  0  0
   -6.5916   -2.4478    0.0000 C   0  0  0  0  0  0  0  0  0  0  0  0
   -8.0182   -1.9843    0.0000 C   0  0  0  0  0  0  0  0  0  0  0  0
   -9.1329   -2.9880    0.0000 C   0  0  0  0  0  0  0  0  0  0  0  0
   -8.8210   -4.4552    0.0000 C   0  0  0  0  0  0  0  0  0  0  0  0
   -7.3944   -4.9187    0.0000 C   0  0  0  0  0  0  0  0  0  0  0  0
   -3.4266   -4.8421    0.0000 C   0  0  0  0  0  0  0  0  0  0  0  0
   -3.1147   -6.3093    0.0000 C   0  0  0  0  0  0  0  0  0  0  0  0
   -1.6881   -6.7728    0.0000 C   0  0  0  0  0  0  0  0  0  0  0  0
   -0.5734   -5.7691    0.0000 C   0  0  0  0  0  0  0  0  0  0  0  0
   -0.8853   -4.3019    0.0000 C   0  0  0  0  0  0  0  0  0  0  0  0
   -2.3118   -3.8384    0.0000 C   0  0  0  0  0  0  0  0  0  0  0  0
   -5.3167   -5.8051    0.0000 C   0  0  0  0  0  0  0  0  0  0  0  0
   -6.7839   -6.1170    0.0000 C   0  0  0  0  0  0  0  0  0  0  0  0
   -7.2474   -7.5436    0.0000 C   0  0  0  0  0  0  0  0  0  0  0  0
   -6.2437   -8.6583    0.0000 C   0  0  0  0  0  0  0  0  0  0  0  0
   -4.7765   -8.3464    0.0000 C   0  0  0  0  0  0  0  0  0  0  0  0
   -4.3130   -6.9199    0.0000 C   0  0  0  0  0  0  0  0  0  0  0  0
   -3.3405    0.0000    0.0000 O   0  0  0  0  0  0  0  0  0  0  0  0
   -2.4589    1.2135    0.0000 C   0  0  0  0  0  0  0  0  0  0  0  0
   -2.9224    2.6401    0.0000 N   0  0  0  0  0  0  0  0  0  0  0  0
   -1.9187    3.7548    0.0000 C   0  0  0  0  0  0  0  0  0  0  0  0
   -2.3822    5.1814    0.0000 C   0  0  0  0  0  0  0  0  0  0  0  0
   -3.8494    5.4933    0.0000 C   0  0  0  0  0  0  0  0  0  0  0  0
   -4.3130    6.9199    0.0000 O   0  0  0  0  0  0  0  0  0  0  0  0
   -4.8531    4.3786    0.0000 N   0  0  0  0  0  0  0  0  0  0  0  0
   -4.3896    2.9520    0.0000 C   0  0  0  0  0  0  0  0  0  0  0  0
   -5.3933    1.8373    0.0000 O   0  0  0  0  0  0  0  0  0  0  0  0
  1  2  1  0
  2  3  1  0
  2  4  1  0
  5  4  1  6
  5  6  1  0
  6  7  1  6
  6  8  1  0
  8  9  1  6
  9 10  1  0
 10 11  1  0
 11 12  1  0
 12 13  2  0
 13 14  1  0
 14 15  2  0
 15 16  1  0
 16 17  2  0
 11 18  1  0
 18 19  2  0
 19 20  1  0
 20 21  2  0
 21 22  1  0
 22 23  2  0
 11 24  1  0
 24 25  2  0
 25 26  1  0
 26 27  2  0
 27 28  1  0
 28 29  2  0
  8 30  1  0
 30 31  1  0
 31 32  1  6
 32 33  1  0
 33 34  2  0
 34 35  1  0
 35 36  2  0
 35 37  1  0
 37 38  1  0
 38 39  2  0
  7  2  1  0
 17 12  1  0
 23 18  1  0
 29 24  1  0
 38 32  1  0
 31  5  1  0
M  END
>  <Compound_ID>  (784) 
C04916497

>  <Active>  (784) 
0.0

>  <Smiles>  (784) 
CC1(C)O[C@@H]2[C@H](O1)[C@H](COC(c1ccccc1)(c1ccccc1)c1ccccc1)O[C@@H]2n1ccc(=O)[nH]c1=O

>  <canonical_smi>  (784) 
CC1(C)O[C@@H]2[C@H](COC(c3ccccc3)(c3ccccc3)c3ccccc3)O[C@H](n3ccc(=O)[nH]c3=O)[C@@H]2O1

>  <Set>  (784) 
G2 inactive

>  <Set_type>  (784) 
Train

>  <MW>  (784) 
526.59

>  <HBD>  (784) 
1

>  <HBA>  (784) 
6

>  <NRB>  (784) 
7

>  <NR>  (784) 
6

>  <NAR>  (784) 
4

>  <PSA>  (784) 
91.78

>  <Standard Type>  (784) 
nan

>  <Standard Relation>  (784) 
nan

>  <Standard Units>  (784) 
nan

>  <Standard Value>  (784) 
nan

>  <Assay ChEMBL ID>  (784) 
nan

>  <Assay Description>  (784) 
nan

>  <BAO Label>  (784) 
nan

$$$$

     RDKit          2D

 34 36  0  0  0  0  0  0  0  0999 V2000
    8.9193   -0.6372    0.0000 C   0  0  0  0  0  0  0  0  0  0  0  0
    8.0558    0.5893    0.0000 O   0  0  0  0  0  0  0  0  0  0  0  0
    6.5619    0.4549    0.0000 C   0  0  0  0  0  0  0  0  0  0  0  0
    5.6984    1.6815    0.0000 C   0  0  0  0  0  0  0  0  0  0  0  0
    6.3290    3.0425    0.0000 O   0  0  0  0  0  0  0  0  0  0  0  0
    4.2045    1.5470    0.0000 N   0  0  0  0  0  0  0  0  0  0  0  0
    3.3411    2.7736    0.0000 C   0  0  0  0  0  0  0  0  0  0  0  0
    3.9716    4.1346    0.0000 C   0  0  0  0  0  0  0  0  0  0  0  0
    3.1082    5.3612    0.0000 C   0  0  0  0  0  0  0  0  0  0  0  0
    3.7387    6.7222    0.0000 C   0  0  0  0  0  0  0  0  0  0  0  0
    1.6142    5.2267    0.0000 C   0  0  0  0  0  0  0  0  0  0  0  0
    1.8471    2.6391    0.0000 C   0  0  0  0  0  0  0  0  0  0  0  0
    0.8602    3.7687    0.0000 N   0  0  0  0  0  0  0  0  0  0  0  0
   -0.5191    3.1792    0.0000 N   0  0  0  0  0  0  0  0  0  0  0  0
   -0.3846    1.6852    0.0000 C   0  0  0  0  0  0  0  0  0  0  0  0
    1.0777    1.3515    0.0000 N   0  0  0  0  0  0  0  0  0  0  0  0
    1.7286    0.0000    0.0000 C   0  0  0  0  0  0  0  0  0  0  0  0
    1.0777   -1.3515    0.0000 C   0  0  0  0  0  0  0  0  0  0  0  0
   -0.3846   -1.6852    0.0000 N   0  0  0  0  0  4  0  0  0  0  0  0
   -0.7184   -3.1476    0.0000 C   0  0  0  0  0  0  0  0  0  0  0  0
   -2.1518   -3.5898    0.0000 C   0  0  0  0  0  0  0  0  0  0  0  0
   -3.2514   -2.5695    0.0000 C   0  0  0  0  0  0  0  0  0  0  0  0
   -4.6847   -3.0116    0.0000 C   0  0  0  0  0  0  0  0  0  0  0  0
   -5.0185   -4.4740    0.0000 C   0  0  0  0  0  0  0  0  0  0  0  0
   -6.4519   -4.9162    0.0000 C   0  0  0  0  0  0  0  0  0  0  0  0
   -7.8852   -5.3583    0.0000 C   0  0  0  0  0  0  0  0  0  0  0  0
   -9.3186   -5.8004    0.0000 C   0  0  0  0  0  0  0  0  0  0  0  0
   -8.8764   -7.2338    0.0000 C   0  0  0  0  0  0  0  0  0  0  0  0
   -9.7607   -4.3671    0.0000 C   0  0  0  0  0  0  0  0  0  0  0  0
  -10.7519   -6.2426    0.0000 O   0  0  0  0  0  0  0  0  0  0  0  0
   -3.9189   -5.4943    0.0000 C   0  0  0  0  0  0  0  0  0  0  0  0
   -2.4856   -5.0522    0.0000 C   0  0  0  0  0  0  0  0  0  0  0  0
   -1.5574   -0.7500    0.0000 C   0  0  0  0  0  0  0  0  0  0  0  0
   -1.5574    0.7500    0.0000 C   0  0  0  0  0  0  0  0  0  0  0  0
  1  2  1  0
  2  3  1  0
  3  4  1  0
  4  5  2  0
  4  6  1  0
  6  7  1  0
  7  8  1  6
  8  9  1  0
  9 10  1  0
  9 11  1  0
  7 12  1  0
 12 13  2  0
 13 14  1  0
 14 15  2  0
 15 16  1  0
 16 17  1  0
 17 18  1  0
 18 19  1  0
 19 20  1  0
 20 21  1  0
 21 22  2  0
 22 23  1  0
 23 24  2  0
 24 25  1  0
 25 26  3  0
 26 27  1  0
 27 28  1  0
 27 29  1  0
 27 30  1  0
 24 31  1  0
 31 32  2  0
 19 33  1  0
 33 34  1  0
 16 12  1  0
 32 21  1  0
 34 15  1  0
M  CHG  1  19   1
M  END
>  <Compound_ID>  (785) 
C11814114

>  <Active>  (785) 
0.0

>  <Smiles>  (785) 
COCC(=O)N[C@@H](CC(C)C)c1nnc2n1CC[NH+](Cc1ccc(C#CC(C)(C)O)cc1)CC2

>  <canonical_smi>  (785) 
COCC(=O)N[C@@H](CC(C)C)c1nnc2n1CC[NH+](Cc1ccc(C#CC(C)(C)O)cc1)CC2

>  <Set>  (785) 
G2 inactive

>  <Set_type>  (785) 
Train

>  <MW>  (785) 
468.62

>  <HBD>  (785) 
3

>  <HBA>  (785) 
5

>  <NRB>  (785) 
8

>  <NR>  (785) 
3

>  <NAR>  (785) 
2

>  <PSA>  (785) 
93.71

>  <Standard Type>  (785) 
nan

>  <Standard Relation>  (785) 
nan

>  <Standard Units>  (785) 
nan

>  <Standard Value>  (785) 
nan

>  <Assay ChEMBL ID>  (785) 
nan

>  <Assay Description>  (785) 
nan

>  <BAO Label>  (785) 
nan

$$$$

     RDKit          2D

 35 39  0  0  0  0  0  0  0  0999 V2000
   -2.6168    4.5577    0.0000 C   0  0  0  0  0  0  0  0  0  0  0  0
   -1.6131    3.4430    0.0000 C   0  0  0  0  0  0  0  0  0  0  0  0
   -0.1459    3.7548    0.0000 C   0  0  0  0  0  0  0  0  0  0  0  0
    0.3177    5.1814    0.0000 C   0  0  0  0  0  0  0  0  0  0  0  0
    1.7849    5.4933    0.0000 C   0  0  0  0  0  0  0  0  0  0  0  0
    2.7886    4.3786    0.0000 C   0  0  0  0  0  0  0  0  0  0  0  0
    2.3250    2.9520    0.0000 C   0  0  0  0  0  0  0  0  0  0  0  0
    0.8578    2.6401    0.0000 C   0  0  0  0  0  0  0  0  0  0  0  0
    0.3943    1.2135    0.0000 N   0  0  0  0  0  0  0  0  0  0  0  0
    1.2760    0.0000    0.0000 C   0  0  0  0  0  0  0  0  0  0  0  0
    2.7760    0.0000    0.0000 C   0  0  0  0  0  0  0  0  0  0  0  0
    0.3943   -1.2135    0.0000 C   0  0  0  0  0  0  0  0  0  0  0  0
   -1.0323   -0.7500    0.0000 N   0  0  0  0  0  0  0  0  0  0  0  0
   -2.4589   -1.2135    0.0000 C   0  0  0  0  0  0  0  0  0  0  0  0
   -3.0690   -2.5838    0.0000 C   0  0  0  0  0  0  0  0  0  0  0  0
   -2.1873   -3.7974    0.0000 O   0  0  0  0  0  0  0  0  0  0  0  0
   -4.5608   -2.7406    0.0000 N   0  0  0  0  0  0  0  0  0  0  0  0
   -5.1709   -4.1110    0.0000 C   0  0  0  0  0  0  0  0  0  0  0  0
   -6.6626   -4.2677    0.0000 C   0  0  0  0  0  0  0  0  0  0  0  0
   -7.2728   -5.6381    0.0000 C   0  0  0  0  0  0  0  0  0  0  0  0
   -8.7645   -5.7949    0.0000 N   0  0  0  0  0  0  0  0  0  0  0  0
   -9.3746   -7.1652    0.0000 C   0  0  0  0  0  0  0  0  0  0  0  0
  -10.8664   -7.3220    0.0000 C   0  0  0  0  0  0  0  0  0  0  0  0
  -11.4765   -8.6923    0.0000 C   0  0  0  0  0  0  0  0  0  0  0  0
  -10.5948   -9.9058    0.0000 C   0  0  0  0  0  0  0  0  0  0  0  0
   -9.1031   -9.7490    0.0000 C   0  0  0  0  0  0  0  0  0  0  0  0
   -8.4930   -8.3787    0.0000 C   0  0  0  0  0  0  0  0  0  0  0  0
   -7.0012   -8.2219    0.0000 O   0  0  0  0  0  0  0  0  0  0  0  0
   -5.4424   -1.5271    0.0000 C   0  0  0  0  0  0  0  0  0  0  0  0
   -6.9342   -1.6839    0.0000 O   0  0  0  0  0  0  0  0  0  0  0  0
   -4.8323   -0.1568    0.0000 N   0  0  0  0  0  0  0  0  0  0  0  0
   -5.7140    1.0567    0.0000 C   0  0  0  0  0  0  0  0  0  0  0  0
   -3.3405   -0.0000    0.0000 C   0  0  0  0  0  0  0  0  0  0  0  0
   -2.4589    1.2135    0.0000 N   0  0  0  0  0  0  0  0  0  0  0  0
   -1.0323    0.7500    0.0000 C   0  0  0  0  0  0  0  0  0  0  0  0
  1  2  1  0
  2  3  1  0
  3  4  2  0
  4  5  1  0
  5  6  2  0
  6  7  1  0
  7  8  2  0
  8  9  1  0
  9 10  1  0
 10 11  1  0
 10 12  2  0
 12 13  1  0
 13 14  1  0
 14 15  1  0
 15 16  2  0
 15 17  1  0
 17 18  1  0
 18 19  1  0
 19 20  1  0
 20 21  1  0
 21 22  1  0
 22 23  2  0
 23 24  1  0
 24 25  2  0
 25 26  1  0
 26 27  2  0
 27 28  1  0
 17 29  1  0
 29 30  2  0
 29 31  1  0
 31 32  1  0
 31 33  1  0
 33 34  1  0
 34 35  2  0
  8  3  1  0
 35  9  1  0
 35 13  1  0
 33 14  2  0
 27 22  1  0
M  END
>  <Compound_ID>  (786) 
C10048843

>  <Active>  (786) 
0.0

>  <Smiles>  (786) 
CCc1ccccc1-n1c(C)cn2c3c(=O)n(CCCNc4ccccc4O)c(=O)n(C)c3nc12

>  <canonical_smi>  (786) 
CCc1ccccc1-n1c(C)cn2c3c(=O)n(CCCNc4ccccc4O)c(=O)n(C)c3nc12

>  <Set>  (786) 
G2 inactive

>  <Set_type>  (786) 
Train

>  <MW>  (786) 
472.55

>  <HBD>  (786) 
2

>  <HBA>  (786) 
5

>  <NRB>  (786) 
7

>  <NR>  (786) 
5

>  <NAR>  (786) 
5

>  <PSA>  (786) 
98.49

>  <Standard Type>  (786) 
nan

>  <Standard Relation>  (786) 
nan

>  <Standard Units>  (786) 
nan

>  <Standard Value>  (786) 
nan

>  <Assay ChEMBL ID>  (786) 
nan

>  <Assay Description>  (786) 
nan

>  <BAO Label>  (786) 
nan

$$$$

     RDKit          2D

 34 37  0  0  0  0  0  0  0  0999 V2000
  -13.5163   -4.8037    0.0000 C   0  0  0  0  0  0  0  0  0  0  0  0
  -12.2173   -4.0537    0.0000 O   0  0  0  0  0  0  0  0  0  0  0  0
  -10.9182   -4.8037    0.0000 C   0  0  0  0  0  0  0  0  0  0  0  0
  -10.9182   -6.3037    0.0000 O   0  0  0  0  0  0  0  0  0  0  0  0
   -9.6192   -4.0537    0.0000 C   0  0  0  0  0  0  0  0  0  0  0  0
   -9.6192   -2.5537    0.0000 C   0  0  0  0  0  0  0  0  0  0  0  0
   -8.3202   -1.8037    0.0000 C   0  0  0  0  0  0  0  0  0  0  0  0
   -7.0211   -2.5537    0.0000 C   0  0  0  0  0  0  0  0  0  0  0  0
   -5.7221   -1.8037    0.0000 O   0  0  0  0  0  0  0  0  0  0  0  0
   -4.4231   -2.5537    0.0000 C   0  0  0  0  0  0  0  0  0  0  0  0
   -4.4231   -4.0537    0.0000 O   0  0  0  0  0  0  0  0  0  0  0  0
   -3.1240   -1.8037    0.0000 C   0  0  0  0  0  0  0  0  0  0  0  0
   -2.9672   -0.3119    0.0000 O   0  0  0  0  0  0  0  0  0  0  0  0
   -1.5000    0.0000    0.0000 C   0  0  0  0  0  0  0  0  0  0  0  0
   -0.7500   -1.2990    0.0000 C   0  0  0  0  0  0  0  0  0  0  0  0
   -1.7537   -2.4138    0.0000 C   0  0  0  0  0  0  0  0  0  0  0  0
   -1.4418   -3.8810    0.0000 C   0  0  0  0  0  0  0  0  0  0  0  0
    0.7500   -1.2990    0.0000 C   0  0  0  0  0  0  0  0  0  0  0  0
    1.5000   -2.5981    0.0000 N   0  0  0  0  0  0  0  0  0  0  0  0
    3.0000   -2.5981    0.0000 N   0  0  0  0  0  0  0  0  0  0  0  0
    3.7500   -3.8971    0.0000 C   0  0  0  0  0  0  0  0  0  0  0  0
    3.0000   -5.1962    0.0000 O   0  0  0  0  0  0  0  0  0  0  0  0
    5.2500   -3.8971    0.0000 C   0  0  0  0  0  0  0  0  0  0  0  0
    6.0000   -5.1962    0.0000 C   0  0  0  0  0  0  0  0  0  0  0  0
    7.5000   -5.1962    0.0000 C   0  0  0  0  0  0  0  0  0  0  0  0
    8.2500   -3.8971    0.0000 C   0  0  0  0  0  0  0  0  0  0  0  0
    9.7500   -3.8971    0.0000 O   0  0  0  0  0  0  0  0  0  0  0  0
    7.5000   -2.5981    0.0000 C   0  0  0  0  0  0  0  0  0  0  0  0
    6.0000   -2.5981    0.0000 C   0  0  0  0  0  0  0  0  0  0  0  0
    1.5000    0.0000    0.0000 C   0  0  0  0  0  0  0  0  0  0  0  0
    0.7500    1.2990    0.0000 C   0  0  0  0  0  0  0  0  0  0  0  0
   -0.7500    1.2990    0.0000 C   0  0  0  0  0  0  0  0  0  0  0  0
   -7.0211   -4.0537    0.0000 C   0  0  0  0  0  0  0  0  0  0  0  0
   -8.3202   -4.8037    0.0000 C   0  0  0  0  0  0  0  0  0  0  0  0
  1  2  1  0
  2  3  1  0
  3  4  2  0
  3  5  1  0
  5  6  2  0
  6  7  1  0
  7  8  2  0
  8  9  1  0
  9 10  1  0
 10 11  2  0
 10 12  1  0
 12 13  1  0
 13 14  1  0
 14 15  2  0
 15 16  1  0
 16 17  1  0
 15 18  1  0
 18 19  2  0
 19 20  1  0
 20 21  1  0
 21 22  2  0
 21 23  1  0
 23 24  2  0
 24 25  1  0
 25 26  2  0
 26 27  1  0
 26 28  1  0
 28 29  2  0
 18 30  1  0
 30 31  1  0
 31 32  1  0
  8 33  1  0
 33 34  2  0
 34  5  1  0
 16 12  2  0
 29 23  1  0
 32 14  1  0
M  END
>  <Compound_ID>  (787) 
C40812035

>  <Active>  (787) 
0.0

>  <Smiles>  (787) 
COC(=O)c1ccc(OC(=O)c2oc3c(c2C)/C(=N/NC(=O)c2ccc(O)cc2)CCC3)cc1

>  <canonical_smi>  (787) 
COC(=O)c1ccc(OC(=O)c2oc3c(c2C)/C(=N/NC(=O)c2ccc(O)cc2)CCC3)cc1

>  <Set>  (787) 
G2 inactive

>  <Set_type>  (787) 
Train

>  <MW>  (787) 
462.46

>  <HBD>  (787) 
2

>  <HBA>  (787) 
7

>  <NRB>  (787) 
5

>  <NR>  (787) 
4

>  <NAR>  (787) 
3

>  <PSA>  (787) 
127.43

>  <Standard Type>  (787) 
nan

>  <Standard Relation>  (787) 
nan

>  <Standard Units>  (787) 
nan

>  <Standard Value>  (787) 
nan

>  <Assay ChEMBL ID>  (787) 
nan

>  <Assay Description>  (787) 
nan

>  <BAO Label>  (787) 
nan

$$$$

     RDKit          2D

 27 27  0  0  0  0  0  0  0  0999 V2000
   11.7760   -5.1962    0.0000 C   0  0  0  0  0  0  0  0  0  0  0  0
   10.2760   -5.1962    0.0000 C   0  0  0  0  0  0  0  0  0  0  0  0
    9.5260   -3.8971    0.0000 O   0  0  0  0  0  0  0  0  0  0  0  0
    8.0260   -3.8971    0.0000 C   0  0  0  0  0  0  0  0  0  0  0  0
    7.2760   -2.5981    0.0000 C   0  0  0  0  0  0  0  0  0  0  0  0
    5.7760   -2.5981    0.0000 C   0  0  0  0  0  0  0  0  0  0  0  0
    5.0260   -1.2990    0.0000 N   0  0  0  0  0  0  0  0  0  0  0  0
    3.5260   -1.2990    0.0000 C   0  0  0  0  0  0  0  0  0  0  0  0
    2.7760    0.0000    0.0000 C   0  0  0  0  0  0  0  0  0  0  0  0
    3.5260    1.2990    0.0000 O   0  0  0  0  0  0  0  0  0  0  0  0
    1.2760    0.0000    0.0000 C   0  0  0  0  0  0  0  0  0  0  0  0
    0.3943    1.2135    0.0000 C   0  0  0  0  0  0  0  0  0  0  0  0
    0.8578    2.6401    0.0000 C   0  0  0  0  0  0  0  0  0  0  0  0
   -1.0323    0.7500    0.0000 C   0  0  0  0  0  0  0  0  0  0  0  0
   -2.2458    1.6317    0.0000 C   0  0  0  0  0  0  0  0  0  0  0  0
   -2.0890    3.1235    0.0000 O   0  0  0  0  0  0  0  0  0  0  0  0
   -3.6161    1.0216    0.0000 O   0  0  0  0  0  0  0  0  0  0  0  0
   -4.8297    1.9033    0.0000 C   0  0  0  0  0  0  0  0  0  0  0  0
   -1.0323   -0.7500    0.0000 N   0  0  0  0  0  0  0  0  0  0  0  0
   -2.2458   -1.6317    0.0000 C   0  0  0  0  0  0  0  0  0  0  0  0
   -3.6161   -1.0216    0.0000 C   0  0  0  0  0  0  0  0  0  0  0  0
    0.3943   -1.2135    0.0000 C   0  0  0  0  0  0  0  0  0  0  0  0
    0.8578   -2.6401    0.0000 C   0  0  0  0  0  0  0  0  0  0  0  0
    5.7760    0.0000    0.0000 C   0  0  0  0  0  0  0  0  0  0  0  0
    5.0260    1.2990    0.0000 O   0  0  0  0  0  0  0  0  0  0  0  0
    7.2760    0.0000    0.0000 C   0  0  0  0  0  0  0  0  0  0  0  0
    8.0260    1.2990    0.0000 C   0  0  0  0  0  0  0  0  0  0  0  0
  1  2  1  0
  2  3  1  0
  3  4  1  0
  4  5  1  0
  5  6  1  0
  6  7  1  0
  7  8  1  0
  8  9  1  0
  9 10  2  0
  9 11  1  0
 11 12  1  0
 12 13  1  0
 12 14  2  0
 14 15  1  0
 15 16  2  0
 15 17  1  0
 17 18  1  0
 14 19  1  0
 19 20  1  0
 20 21  1  0
 19 22  1  0
 22 23  1  0
  7 24  1  0
 24 25  2  0
 24 26  1  0
 26 27  1  0
 22 11  2  0
M  END
>  <Compound_ID>  (788) 
C36018766

>  <Active>  (788) 
0.0

>  <Smiles>  (788) 
CCOCCCN(CC(=O)c1c(C)c(C(=O)OC)n(CC)c1C)C(=O)CC

>  <canonical_smi>  (788) 
CCOCCCN(CC(=O)c1c(C)c(C(=O)OC)n(CC)c1C)C(=O)CC

>  <Set>  (788) 
G2 inactive

>  <Set_type>  (788) 
Train

>  <MW>  (788) 
380.49

>  <HBD>  (788) 
0

>  <HBA>  (788) 
5

>  <NRB>  (788) 
11

>  <NR>  (788) 
1

>  <NAR>  (788) 
1

>  <PSA>  (788) 
77.84

>  <Standard Type>  (788) 
nan

>  <Standard Relation>  (788) 
nan

>  <Standard Units>  (788) 
nan

>  <Standard Value>  (788) 
nan

>  <Assay ChEMBL ID>  (788) 
nan

>  <Assay Description>  (788) 
nan

>  <BAO Label>  (788) 
nan

$$$$

     RDKit          2D

 27 29  0  0  0  0  0  0  0  0999 V2000
    4.9617   -8.8297    0.0000 C   0  0  0  0  0  0  0  0  0  0  0  0
    6.4289   -8.5179    0.0000 C   0  0  0  0  0  0  0  0  0  0  0  0
    7.8961   -8.2060    0.0000 C   0  0  0  0  0  0  0  0  0  0  0  0
    6.7407   -9.9851    0.0000 C   0  0  0  0  0  0  0  0  0  0  0  0
    6.1170   -7.0506    0.0000 C   0  0  0  0  0  0  0  0  0  0  0  0
    4.6904   -6.5871    0.0000 C   0  0  0  0  0  0  0  0  0  0  0  0
    4.3786   -5.1199    0.0000 C   0  0  0  0  0  0  0  0  0  0  0  0
    2.9520   -4.6564    0.0000 C   0  0  0  0  0  0  0  0  0  0  0  0
    2.6401   -3.1891    0.0000 N   0  0  0  0  0  4  0  0  0  0  0  0
    1.2135   -2.7256    0.0000 C   0  0  0  0  0  0  0  0  0  0  0  0
    0.7500   -1.2990    0.0000 C   0  0  0  0  0  0  0  0  0  0  0  0
    1.5000    0.0000    0.0000 C   0  0  0  0  0  0  0  0  0  0  0  0
    0.7500    1.2990    0.0000 C   0  0  0  0  0  0  0  0  0  0  0  0
   -0.7500    1.2990    0.0000 C   0  0  0  0  0  0  0  0  0  0  0  0
   -1.5000    0.0000    0.0000 C   0  0  0  0  0  0  0  0  0  0  0  0
   -0.7500   -1.2990    0.0000 C   0  0  0  0  0  0  0  0  0  0  0  0
   -1.2135   -2.7256    0.0000 C   0  0  0  0  0  0  0  0  0  0  0  0
    0.0000   -3.6073    0.0000 C   0  0  0  0  0  0  0  0  0  0  0  0
    0.0000   -5.1073    0.0000 O   0  0  0  0  0  0  0  0  0  0  0  0
    5.4933   -4.1162    0.0000 C   0  0  0  0  0  0  0  0  0  0  0  0
    5.1814   -2.6490    0.0000 O   0  0  0  0  0  1  0  0  0  0  0  0
    6.9199   -4.5797    0.0000 C   0  0  0  0  0  0  0  0  0  0  0  0
    8.0346   -3.5760    0.0000 C   0  0  0  0  0  0  0  0  0  0  0  0
    9.0383   -4.6907    0.0000 C   0  0  0  0  0  0  0  0  0  0  0  0
    7.0309   -2.4613    0.0000 C   0  0  0  0  0  0  0  0  0  0  0  0
    9.1493   -2.5723    0.0000 C   0  0  0  0  0  0  0  0  0  0  0  0
    7.2317   -6.0469    0.0000 C   0  0  0  0  0  0  0  0  0  0  0  0
  1  2  1  0
  2  3  1  0
  2  4  1  0
  2  5  1  0
  5  6  2  0
  6  7  1  0
  7  8  1  0
  8  9  2  0
 10  9  1  1
 10 11  1  0
 11 12  2  0
 12 13  1  0
 13 14  2  0
 14 15  1  0
 15 16  2  0
 16 17  1  0
 17 18  1  0
 18 19  1  1
  7 20  2  0
 20 21  1  0
 20 22  1  0
 22 23  1  0
 23 24  1  0
 23 25  1  0
 23 26  1  0
 22 27  2  0
 27  5  1  0
 18 10  1  0
 16 11  1  0
M  CHG  2   9   1  21  -1
M  END
>  <Compound_ID>  (789) 
C25760079

>  <Active>  (789) 
0.0

>  <Smiles>  (789) 
CC(C)(C)c1cc(/C=[NH+]/[C@@H]2c3ccccc3C[C@@H]2O)c([O-])c(C(C)(C)C)c1

>  <canonical_smi>  (789) 
CC(C)(C)c1cc(/C=[NH+]/[C@@H]2c3ccccc3C[C@@H]2O)c([O-])c(C(C)(C)C)c1

>  <Set>  (789) 
G2 inactive

>  <Set_type>  (789) 
Train

>  <MW>  (789) 
365.52

>  <HBD>  (789) 
2

>  <HBA>  (789) 
2

>  <NRB>  (789) 
2

>  <NR>  (789) 
3

>  <NAR>  (789) 
2

>  <PSA>  (789) 
57.26

>  <Standard Type>  (789) 
nan

>  <Standard Relation>  (789) 
nan

>  <Standard Units>  (789) 
nan

>  <Standard Value>  (789) 
nan

>  <Assay ChEMBL ID>  (789) 
nan

>  <Assay Description>  (789) 
nan

>  <BAO Label>  (789) 
nan

$$$$

     RDKit          2D

 26 27  0  0  0  0  0  0  0  0999 V2000
    5.2776   -0.5490    0.0000 C   0  0  0  0  0  0  0  0  0  0  0  0
    3.9786   -1.2990    0.0000 C   0  0  0  0  0  0  0  0  0  0  0  0
    2.6795   -2.0490    0.0000 C   0  0  0  0  0  0  0  0  0  0  0  0
    4.7286   -2.5981    0.0000 C   0  0  0  0  0  0  0  0  0  0  0  0
    3.2286   -0.0000    0.0000 C   0  0  0  0  0  0  0  0  0  0  0  0
    3.9786    1.2990    0.0000 O   0  0  0  0  0  0  0  0  0  0  0  0
    1.7286    0.0000    0.0000 N   0  0  0  0  0  0  0  0  0  0  0  0
    1.0777    1.3515    0.0000 C   0  0  0  0  0  0  0  0  0  0  0  0
   -0.3846    1.6852    0.0000 C   0  0  0  0  0  0  0  0  0  0  0  0
   -1.5574    0.7500    0.0000 C   0  0  0  0  0  0  0  0  0  0  0  0
   -1.5574   -0.7500    0.0000 N   0  0  0  0  0  0  0  0  0  0  0  0
   -2.9088   -1.4008    0.0000 C   0  0  0  0  0  0  0  0  0  0  0  0
   -3.0209   -2.8966    0.0000 O   0  0  0  0  0  0  0  0  0  0  0  0
   -4.1482   -0.5558    0.0000 N   0  0  0  0  0  0  0  0  0  0  0  0
   -5.4997   -1.2067    0.0000 C   0  0  0  0  0  0  0  0  0  0  0  0
   -6.7390   -0.3617    0.0000 C   0  0  0  0  0  0  0  0  0  0  0  0
   -8.0905   -1.0125    0.0000 C   0  0  0  0  0  0  0  0  0  0  0  0
   -8.2026   -2.5083    0.0000 C   0  0  0  0  0  0  0  0  0  0  0  0
   -6.9632   -3.3533    0.0000 C   0  0  0  0  0  0  0  0  0  0  0  0
   -7.0753   -4.8491    0.0000 C   0  0  0  0  0  0  0  0  0  0  0  0
   -7.1874   -6.3449    0.0000 F   0  0  0  0  0  0  0  0  0  0  0  0
   -8.5711   -4.7370    0.0000 F   0  0  0  0  0  0  0  0  0  0  0  0
   -5.5795   -4.9612    0.0000 F   0  0  0  0  0  0  0  0  0  0  0  0
   -5.6118   -2.7025    0.0000 C   0  0  0  0  0  0  0  0  0  0  0  0
   -0.3846   -1.6852    0.0000 C   0  0  0  0  0  0  0  0  0  0  0  0
    1.0777   -1.3515    0.0000 C   0  0  0  0  0  0  0  0  0  0  0  0
  1  2  1  0
  2  3  1  0
  2  4  1  0
  2  5  1  0
  5  6  2  0
  5  7  1  0
  7  8  1  0
  8  9  1  0
  9 10  1  0
 10 11  1  0
 11 12  1  0
 12 13  2  0
 12 14  1  0
 15 14  1  6
 15 16  1  0
 16 17  1  0
 17 18  1  0
 18 19  1  0
 19 20  1  1
 20 21  1  0
 20 22  1  0
 20 23  1  0
 19 24  1  0
 11 25  1  0
 25 26  1  0
 26  7  1  0
 24 15  1  0
M  END
>  <Compound_ID>  (790) 
C67042731

>  <Active>  (790) 
0.0

>  <Smiles>  (790) 
CC(C)(C)C(=O)N1CCCN(C(=O)N[C@H]2CCC[C@H](C(F)(F)F)C2)CC1

>  <canonical_smi>  (790) 
CC(C)(C)C(=O)N1CCCN(C(=O)N[C@H]2CCC[C@H](C(F)(F)F)C2)CC1

>  <Set>  (790) 
G2 inactive

>  <Set_type>  (790) 
Train

>  <MW>  (790) 
377.45

>  <HBD>  (790) 
1

>  <HBA>  (790) 
2

>  <NRB>  (790) 
1

>  <NR>  (790) 
2

>  <NAR>  (790) 
0

>  <PSA>  (790) 
52.65

>  <Standard Type>  (790) 
nan

>  <Standard Relation>  (790) 
nan

>  <Standard Units>  (790) 
nan

>  <Standard Value>  (790) 
nan

>  <Assay ChEMBL ID>  (790) 
nan

>  <Assay Description>  (790) 
nan

>  <BAO Label>  (790) 
nan

$$$$

     RDKit          2D

 38 43  0  0  0  0  0  0  0  0999 V2000
    1.6317   -8.6291    0.0000 O   0  0  0  0  0  0  0  0  0  0  0  0
    0.7500   -7.4156    0.0000 C   0  0  0  0  0  0  0  0  0  0  0  0
    1.2135   -5.9890    0.0000 C   0  0  0  0  0  0  0  0  0  0  0  0
   -0.0000   -5.1073    0.0000 C   0  0  0  0  0  0  0  0  0  0  0  0
   -0.0000   -3.6073    0.0000 C   0  0  0  0  0  0  0  0  0  0  0  0
    1.2135   -2.7256    0.0000 N   0  0  0  0  0  0  0  0  0  0  0  0
    0.7500   -1.2990    0.0000 C   0  0  0  0  0  0  0  0  0  0  0  0
    1.5000    0.0000    0.0000 C   0  0  0  0  0  0  0  0  0  0  0  0
    0.7500    1.2990    0.0000 C   0  0  0  0  0  0  0  0  0  0  0  0
   -0.7500    1.2990    0.0000 C   0  0  0  0  0  0  0  0  0  0  0  0
   -1.5000    0.0000    0.0000 C   0  0  0  0  0  0  0  0  0  0  0  0
   -0.7500   -1.2990    0.0000 C   0  0  0  0  0  0  0  0  0  0  0  0
   -1.2135   -2.7256    0.0000 N   0  0  0  0  0  0  0  0  0  0  0  0
   -2.6401   -3.1891    0.0000 C   0  0  0  0  0  0  0  0  0  0  0  0
   -3.7548   -2.1855    0.0000 C   0  0  0  0  0  0  0  0  0  0  0  0
   -3.4430   -0.7182    0.0000 O   0  0  0  0  0  0  0  0  0  0  0  0
   -5.1814   -2.6490    0.0000 N   0  0  0  0  0  0  0  0  0  0  0  0
   -6.2961   -1.6453    0.0000 C   0  0  0  0  0  0  0  0  0  0  0  0
   -5.9843   -0.1781    0.0000 C   0  0  0  0  0  0  0  0  0  0  0  0
   -7.0990    0.8256    0.0000 C   0  0  0  0  0  0  0  0  0  0  0  0
   -8.5256    0.3621    0.0000 C   0  0  0  0  0  0  0  0  0  0  0  0
   -8.8374   -1.1051    0.0000 C   0  0  0  0  0  0  0  0  0  0  0  0
   -7.7227   -2.1088    0.0000 C   0  0  0  0  0  0  0  0  0  0  0  0
   -5.4933   -4.1162    0.0000 C   0  0  0  0  0  0  0  0  0  0  0  0
   -6.9199   -4.5797    0.0000 C   0  0  0  0  0  0  0  0  0  0  0  0
   -7.2317   -6.0469    0.0000 C   0  0  0  0  0  0  0  0  0  0  0  0
   -6.1170   -7.0506    0.0000 C   0  0  0  0  0  0  0  0  0  0  0  0
   -4.6904   -6.5871    0.0000 C   0  0  0  0  0  0  0  0  0  0  0  0
   -4.3786   -5.1199    0.0000 C   0  0  0  0  0  0  0  0  0  0  0  0
   -1.2135   -5.9890    0.0000 C   0  0  0  0  0  0  0  0  0  0  0  0
   -0.7500   -7.4156    0.0000 N   0  0  0  0  0  0  0  0  0  0  0  0
   -1.6317   -8.6291    0.0000 C   0  0  0  0  0  0  0  0  0  0  0  0
   -3.1235   -8.4723    0.0000 C   0  0  0  0  0  0  0  0  0  0  0  0
   -4.0051   -9.6858    0.0000 C   0  0  0  0  0  0  0  0  0  0  0  0
   -3.3950  -11.0561    0.0000 C   0  0  0  0  0  0  0  0  0  0  0  0
   -1.9033  -11.2129    0.0000 C   0  0  0  0  0  0  0  0  0  0  0  0
   -1.0216   -9.9994    0.0000 C   0  0  0  0  0  0  0  0  0  0  0  0
    0.4702  -10.1562    0.0000 F   0  0  0  0  0  0  0  0  0  0  0  0
  1  2  2  0
  2  3  1  0
  3  4  1  0
  4  5  1  6
  5  6  2  0
  6  7  1  0
  7  8  2  0
  8  9  1  0
  9 10  2  0
 10 11  1  0
 11 12  2  0
 12 13  1  0
 13 14  1  0
 14 15  1  0
 15 16  2  0
 15 17  1  0
 17 18  1  0
 18 19  1  0
 19 20  1  0
 20 21  1  0
 21 22  1  0
 22 23  1  0
 17 24  1  0
 24 25  1  0
 25 26  1  0
 26 27  1  0
 27 28  1  0
 28 29  1  0
  4 30  1  0
 30 31  1  0
 31 32  1  0
 32 33  2  0
 33 34  1  0
 34 35  2  0
 35 36  1  0
 36 37  2  0
 37 38  1  0
 31  2  1  0
 37 32  1  0
 13  5  1  0
 23 18  1  0
 29 24  1  0
 12  7  1  0
M  END
>  <Compound_ID>  (791) 
C40252975

>  <Active>  (791) 
0.0

>  <Smiles>  (791) 
O=C1C[C@@H](c2nc3ccccc3n2CC(=O)N(C2CCCCC2)C2CCCCC2)CN1c1ccccc1F

>  <canonical_smi>  (791) 
O=C1C[C@@H](c2nc3ccccc3n2CC(=O)N(C2CCCCC2)C2CCCCC2)CN1c1ccccc1F

>  <Set>  (791) 
G2 inactive

>  <Set_type>  (791) 
Train

>  <MW>  (791) 
516.66

>  <HBD>  (791) 
0

>  <HBA>  (791) 
3

>  <NRB>  (791) 
6

>  <NR>  (791) 
6

>  <NAR>  (791) 
3

>  <PSA>  (791) 
58.44

>  <Standard Type>  (791) 
nan

>  <Standard Relation>  (791) 
nan

>  <Standard Units>  (791) 
nan

>  <Standard Value>  (791) 
nan

>  <Assay ChEMBL ID>  (791) 
nan

>  <Assay Description>  (791) 
nan

>  <BAO Label>  (791) 
nan

$$$$

     RDKit          2D

 32 37  0  0  0  0  0  0  0  0999 V2000
    4.5000   -7.7942    0.0000 C   0  0  0  0  0  0  0  0  0  0  0  0
    3.0000   -7.7942    0.0000 N   0  0  0  0  0  0  0  0  0  0  0  0
    2.2500   -9.0933    0.0000 C   0  0  0  0  0  0  0  0  0  0  0  0
    3.0000  -10.3923    0.0000 O   0  0  0  0  0  0  0  0  0  0  0  0
    0.7500   -9.0933    0.0000 N   0  0  0  0  0  0  0  0  0  0  0  0
   -0.0000   -7.7942    0.0000 C   0  0  0  0  0  0  0  0  0  0  0  0
   -1.0610   -8.0588    0.0000 O   0  0  0  0  0  0  0  0  0  0  0  0
    0.7500   -6.4952    0.0000 C   0  0  0  0  0  0  0  0  0  0  0  0
    1.5000   -5.1962    0.0000 C   0  0  0  0  0  0  0  0  0  0  0  0
    0.7500   -3.8971    0.0000 C   0  0  0  0  0  0  0  0  0  0  0  0
    1.5000   -2.5981    0.0000 C   0  0  0  0  0  0  0  0  0  0  0  0
    0.7500   -1.2990    0.0000 C   0  0  0  0  0  0  0  0  0  0  0  0
    1.5000    0.0000    0.0000 C   0  0  0  0  0  0  0  0  0  0  0  0
    0.7500    1.2990    0.0000 C   0  0  0  0  0  0  0  0  0  0  0  0
   -0.7500    1.2990    0.0000 C   0  0  0  0  0  0  0  0  0  0  0  0
   -1.5000    0.0000    0.0000 C   0  0  0  0  0  0  0  0  0  0  0  0
   -0.7500   -1.2990    0.0000 C   0  0  0  0  0  0  0  0  0  0  0  0
   -1.5000   -2.5981    0.0000 N   0  0  0  0  0  4  0  0  0  0  0  0
   -0.7500   -3.8971    0.0000 C   0  0  0  0  0  0  0  0  0  0  0  0
   -1.5000   -5.1962    0.0000 N   0  0  0  0  0  0  0  0  0  0  0  0
   -2.9672   -5.5080    0.0000 C   0  0  0  0  0  0  0  0  0  0  0  0
   -4.3518   -6.1099    0.0000 C   0  0  0  0  0  0  0  0  0  0  0  0
   -4.3518   -7.6099    0.0000 C   0  0  0  0  0  0  0  0  0  0  0  0
   -4.8648   -9.0194    0.0000 C   0  0  0  0  0  0  0  0  0  0  0  0
   -5.8290   -7.3494    0.0000 C   0  0  0  0  0  0  0  0  0  0  0  0
   -3.0527   -8.3599    0.0000 C   0  0  0  0  0  0  0  0  0  0  0  0
   -1.7537   -7.6099    0.0000 C   0  0  0  0  0  0  0  0  0  0  0  0
   -1.4418   -9.0771    0.0000 C   0  0  0  0  0  0  0  0  0  0  0  0
   -3.1240   -6.9998    0.0000 C   0  0  0  0  0  0  0  0  0  0  0  0
   -0.7500   -6.4952    0.0000 C   0  0  0  0  0  0  0  0  0  0  0  0
    2.2500   -6.4952    0.0000 C   0  0  0  0  0  0  0  0  0  0  0  0
    3.0000   -5.1962    0.0000 O   0  0  0  0  0  0  0  0  0  0  0  0
  1  2  1  0
  2  3  1  0
  3  4  2  0
  3  5  1  0
  5  6  1  0
  6  7  2  0
  6  8  1  0
  8  9  1  1
  9 10  1  0
 10 11  2  0
 11 12  1  0
 12 13  2  0
 13 14  1  0
 14 15  2  0
 15 16  1  0
 16 17  2  0
 17 18  1  0
 18 19  2  0
 19 20  1  0
 20 21  1  0
 21 22  1  1
 22 23  1  0
 23 24  1  0
 23 25  1  0
 23 26  1  0
 26 27  1  0
 27 28  1  6
 27 29  1  0
 27 30  1  0
  8 31  1  0
 31 32  2  0
 31  2  1  0
 30  8  1  0
 19 10  1  0
 30 20  1  1
 17 12  1  0
 29 21  1  0
M  CHG  1  18   1
M  END
>  <Compound_ID>  (792) 
C12894745

>  <Active>  (792) 
0.0

>  <Smiles>  (792) 
CN1C(=O)NC(=O)[C@@]2(Cc3cc4ccccc4[nH+]c3N3[C@@H]4CC(C)(C)C[C@@](C)(C4)[C@@H]32)C1=O

>  <canonical_smi>  (792) 
CN1C(=O)NC(=O)[C@@]2(Cc3cc4ccccc4[nH+]c3N3[C@@H]4CC(C)(C)C[C@@](C)(C4)[C@@H]32)C1=O

>  <Set>  (792) 
G2 inactive

>  <Set_type>  (792) 
Train

>  <MW>  (792) 
433.53

>  <HBD>  (792) 
1

>  <HBA>  (792) 
4

>  <NRB>  (792) 
0

>  <NR>  (792) 
6

>  <NAR>  (792) 
2

>  <PSA>  (792) 
83.86

>  <Standard Type>  (792) 
nan

>  <Standard Relation>  (792) 
nan

>  <Standard Units>  (792) 
nan

>  <Standard Value>  (792) 
nan

>  <Assay ChEMBL ID>  (792) 
nan

>  <Assay Description>  (792) 
nan

>  <BAO Label>  (792) 
nan

$$$$

     RDKit          2D

 30 34  0  0  0  0  0  0  0  0999 V2000
    2.8672   -5.9066    0.0000 O   0  0  0  0  0  0  0  0  0  0  0  0
    4.0808   -5.0249    0.0000 C   0  0  0  0  0  0  0  0  0  0  0  0
    5.4511   -5.6350    0.0000 C   0  0  0  0  0  0  0  0  0  0  0  0
    5.6079   -7.1268    0.0000 N   0  0  0  0  0  4  0  0  0  0  0  0
    4.3943   -8.0085    0.0000 C   0  0  0  0  0  0  0  0  0  0  0  0
    4.5511   -9.5003    0.0000 C   0  0  0  0  0  0  0  0  0  0  0  0
    5.9215  -10.1104    0.0000 C   0  0  0  0  0  0  0  0  0  0  0  0
    6.3850  -11.5370    0.0000 S   0  0  0  0  0  0  0  0  0  0  0  0
    7.8850  -11.5370    0.0000 C   0  0  0  0  0  0  0  0  0  0  0  0
    8.3485  -10.1104    0.0000 C   0  0  0  0  0  0  0  0  0  0  0  0
    7.1350   -9.2287    0.0000 C   0  0  0  0  0  0  0  0  0  0  0  0
    6.9782   -7.7369    0.0000 C   0  0  0  0  0  0  0  0  0  0  0  0
    8.1917   -6.8553    0.0000 C   0  0  0  0  0  0  0  0  0  0  0  0
    8.1917   -5.3553    0.0000 C   0  0  0  0  0  0  0  0  0  0  0  0
    9.6183   -4.8917    0.0000 C   0  0  0  0  0  0  0  0  0  0  0  0
   10.5000   -6.1053    0.0000 C   0  0  0  0  0  0  0  0  0  0  0  0
    9.6183   -7.3188    0.0000 S   0  0  0  0  0  0  0  0  0  0  0  0
    3.9240   -3.5332    0.0000 N   0  0  0  0  0  0  0  0  0  0  0  0
    2.5537   -2.9231    0.0000 N   0  0  0  0  0  0  0  0  0  0  0  0
    1.2546   -3.6731    0.0000 C   0  0  0  0  0  0  0  0  0  0  0  0
    1.0978   -5.1648    0.0000 O   0  0  0  0  0  0  0  0  0  0  0  0
    0.1399   -2.6694    0.0000 N   0  0  0  0  0  0  0  0  0  0  0  0
    0.7500   -1.2990    0.0000 C   0  0  0  0  0  0  0  0  0  0  0  0
    1.5000    0.0000    0.0000 C   0  0  0  0  0  0  0  0  0  0  0  0
    0.7500    1.2990    0.0000 C   0  0  0  0  0  0  0  0  0  0  0  0
   -0.7500    1.2990    0.0000 C   0  0  0  0  0  0  0  0  0  0  0  0
   -1.5000    0.0000    0.0000 C   0  0  0  0  0  0  0  0  0  0  0  0
   -0.7500   -1.2990    0.0000 C   0  0  0  0  0  0  0  0  0  0  0  0
    2.2418   -1.4558    0.0000 C   0  0  0  0  0  0  0  0  0  0  0  0
    3.2455   -0.3411    0.0000 O   0  0  0  0  0  0  0  0  0  0  0  0
  1  2  2  0
  2  3  1  0
  3  4  1  0
  4  5  1  0
  5  6  1  0
  6  7  1  0
  7  8  1  0
  8  9  1  0
  9 10  2  0
 10 11  1  0
 11 12  1  0
 12 13  1  6
 13 14  2  0
 14 15  1  0
 15 16  2  0
 16 17  1  0
  2 18  1  0
 18 19  1  0
 19 20  1  0
 20 21  2  0
 20 22  1  0
 22 23  1  0
 23 24  1  0
 24 25  1  0
 25 26  1  0
 26 27  1  0
 27 28  1  0
 23 29  1  0
 29 30  2  0
 12  4  1  0
 17 13  1  0
 29 19  1  0
 11  7  2  0
 28 23  1  0
M  CHG  1   4   1
M  END
>  <Compound_ID>  (793) 
C15548701

>  <Active>  (793) 
0.0

>  <Smiles>  (793) 
O=C(C[NH+]1CCc2sccc2[C@H]1c1cccs1)NN1C(=O)NC2(CCCCC2)C1=O

>  <canonical_smi>  (793) 
O=C(C[NH+]1CCc2sccc2[C@H]1c1cccs1)NN1C(=O)NC2(CCCCC2)C1=O

>  <Set>  (793) 
G2 inactive

>  <Set_type>  (793) 
Train

>  <MW>  (793) 
445.59

>  <HBD>  (793) 
3

>  <HBA>  (793) 
3

>  <NRB>  (793) 
4

>  <NR>  (793) 
5

>  <NAR>  (793) 
2

>  <PSA>  (793) 
82.95

>  <Standard Type>  (793) 
nan

>  <Standard Relation>  (793) 
nan

>  <Standard Units>  (793) 
nan

>  <Standard Value>  (793) 
nan

>  <Assay ChEMBL ID>  (793) 
nan

>  <Assay Description>  (793) 
nan

>  <BAO Label>  (793) 
nan

$$$$

     RDKit          2D

 30 33  0  0  0  0  0  0  0  0999 V2000
    4.5000   -7.7942    0.0000 C   0  0  0  0  0  0  0  0  0  0  0  0
    3.7500   -6.4952    0.0000 C   0  0  0  0  0  0  0  0  0  0  0  0
    2.2500   -6.4952    0.0000 C   0  0  0  0  0  0  0  0  0  0  0  0
    1.5000   -5.1962    0.0000 C   0  0  0  0  0  0  0  0  0  0  0  0
   -0.0000   -5.1962    0.0000 C   0  0  0  0  0  0  0  0  0  0  0  0
    2.2500   -3.8971    0.0000 C   0  0  0  0  0  0  0  0  0  0  0  0
    1.5000   -2.5981    0.0000 S   0  0  0  0  0  0  0  0  0  0  0  0
    2.7990   -1.8481    0.0000 O   0  0  0  0  0  0  0  0  0  0  0  0
    0.2010   -3.3481    0.0000 O   0  0  0  0  0  0  0  0  0  0  0  0
    0.7500   -1.2990    0.0000 N   0  0  0  0  0  0  0  0  0  0  0  0
    1.5000    0.0000    0.0000 C   0  0  0  0  0  0  0  0  0  0  0  0
    0.7500    1.2990    0.0000 C   0  0  0  0  0  0  0  0  0  0  0  0
   -0.7500    1.2990    0.0000 C   0  0  0  0  0  0  0  0  0  0  0  0
   -1.5000    0.0000    0.0000 C   0  0  0  0  0  0  0  0  0  0  0  0
   -0.7500   -1.2990    0.0000 C   0  0  0  0  0  0  0  0  0  0  0  0
    0.0000    2.5981    0.0000 N   0  0  0  0  0  0  0  0  0  0  0  0
   -0.7500    3.8971    0.0000 C   0  0  0  0  0  0  0  0  0  0  0  0
   -2.2500    3.8971    0.0000 C   0  0  0  0  0  0  0  0  0  0  0  0
   -3.0000    2.5981    0.0000 N   0  0  0  0  0  4  0  0  0  0  0  0
   -2.2500    1.2990    0.0000 C   0  0  0  0  0  0  0  0  0  0  0  0
   -3.0000    0.0000    0.0000 N   0  0  0  0  0  0  0  0  0  0  0  0
   -4.5000    0.0000    0.0000 C   0  0  0  0  0  0  0  0  0  0  0  0
   -5.2500    1.2990    0.0000 C   0  0  0  0  0  0  0  0  0  0  0  0
   -6.7500    1.2990    0.0000 C   0  0  0  0  0  0  0  0  0  0  0  0
   -7.5000    0.0000    0.0000 C   0  0  0  0  0  0  0  0  0  0  0  0
   -6.7500   -1.2990    0.0000 C   0  0  0  0  0  0  0  0  0  0  0  0
   -5.2500   -1.2990    0.0000 C   0  0  0  0  0  0  0  0  0  0  0  0
    3.7500   -3.8971    0.0000 C   0  0  0  0  0  0  0  0  0  0  0  0
    4.5000   -5.1962    0.0000 C   0  0  0  0  0  0  0  0  0  0  0  0
    6.0000   -5.1962    0.0000 C   0  0  0  0  0  0  0  0  0  0  0  0
  1  2  1  0
  2  3  2  0
  3  4  1  0
  4  5  1  0
  4  6  2  0
  6  7  1  0
  7  8  2  0
  7  9  2  0
  7 10  1  0
 10 11  1  0
 11 12  1  0
 12 13  1  0
 13 14  1  0
 14 15  1  0
 13 16  1  0
 16 17  1  0
 17 18  1  0
 18 19  1  0
 19 20  2  0
 20 21  1  0
 21 22  1  0
 22 23  1  0
 23 24  1  0
 24 25  1  0
 25 26  1  0
 26 27  1  0
  6 28  1  0
 28 29  2  0
 29 30  1  0
 29  2  1  0
 15 10  1  0
 27 22  1  0
 20 13  1  0
M  CHG  1  19   1
M  END
>  <Compound_ID>  (794) 
C65074885

>  <Active>  (794) 
0.0

>  <Smiles>  (794) 
Cc1cc(C)c(S(=O)(=O)N2CCC3(CC2)NCC[NH+]=C3NC2CCCCC2)cc1C

>  <canonical_smi>  (794) 
Cc1cc(C)c(S(=O)(=O)N2CCC3(CC2)NCC[NH+]=C3NC2CCCCC2)cc1C

>  <Set>  (794) 
G2 inactive

>  <Set_type>  (794) 
Train

>  <MW>  (794) 
433.64

>  <HBD>  (794) 
3

>  <HBA>  (794) 
4

>  <NRB>  (794) 
3

>  <NR>  (794) 
4

>  <NAR>  (794) 
1

>  <PSA>  (794) 
75.41

>  <Standard Type>  (794) 
nan

>  <Standard Relation>  (794) 
nan

>  <Standard Units>  (794) 
nan

>  <Standard Value>  (794) 
nan

>  <Assay ChEMBL ID>  (794) 
nan

>  <Assay Description>  (794) 
nan

>  <BAO Label>  (794) 
nan

$$$$

     RDKit          2D

 38 43  0  0  0  0  0  0  0  0999 V2000
   -7.2317   -6.0469    0.0000 O   0  0  0  0  0  0  0  0  0  0  0  0
   -6.9199   -4.5797    0.0000 C   0  0  0  0  0  0  0  0  0  0  0  0
   -8.0346   -3.5760    0.0000 N   0  0  0  0  0  0  0  0  0  0  0  0
   -9.4612   -4.0396    0.0000 C   0  0  0  0  0  0  0  0  0  0  0  0
  -10.5759   -3.0359    0.0000 C   0  0  0  0  0  0  0  0  0  0  0  0
  -12.0431   -3.3477    0.0000 C   0  0  0  0  0  0  0  0  0  0  0  0
  -12.7931   -2.0487    0.0000 C   0  0  0  0  0  0  0  0  0  0  0  0
  -11.7894   -0.9340    0.0000 O   0  0  0  0  0  0  0  0  0  0  0  0
  -10.4191   -1.5441    0.0000 N   0  0  0  0  0  0  0  0  0  0  0  0
   -5.4933   -4.1162    0.0000 C   0  0  0  0  0  0  0  0  0  0  0  0
   -4.3786   -5.1199    0.0000 C   0  0  0  0  0  0  0  0  0  0  0  0
   -2.9520   -4.6564    0.0000 C   0  0  0  0  0  0  0  0  0  0  0  0
   -2.6401   -3.1891    0.0000 C   0  0  0  0  0  0  0  0  0  0  0  0
   -1.2135   -2.7256    0.0000 C   0  0  0  0  0  0  0  0  0  0  0  0
   -0.0000   -3.6073    0.0000 C   0  0  0  0  0  0  0  0  0  0  0  0
    1.2135   -2.7256    0.0000 S   0  0  0  0  0  0  0  0  0  0  0  0
    0.7500   -1.2990    0.0000 C   0  0  0  0  0  0  0  0  0  0  0  0
    1.5000    0.0000    0.0000 C   0  0  0  0  0  0  0  0  0  0  0  0
    0.7500    1.2990    0.0000 C   0  0  0  0  0  0  0  0  0  0  0  0
   -0.7500    1.2990    0.0000 C   0  0  0  0  0  0  0  0  0  0  0  0
   -1.5000    0.0000    0.0000 C   0  0  0  0  0  0  0  0  0  0  0  0
   -0.7500   -1.2990    0.0000 C   0  0  0  0  0  0  0  0  0  0  0  0
   -3.7548   -2.1855    0.0000 N   0  0  0  0  0  0  0  0  0  0  0  0
   -5.1814   -2.6490    0.0000 C   0  0  0  0  0  0  0  0  0  0  0  0
   -6.2961   -1.6453    0.0000 N   0  0  0  0  0  0  0  0  0  0  0  0
   -5.9843   -0.1781    0.0000 C   0  0  0  0  0  0  0  0  0  0  0  0
   -7.0990    0.8256    0.0000 C   0  0  0  0  0  0  0  0  0  0  0  0
   -8.5256    0.3621    0.0000 C   0  0  0  0  0  0  0  0  0  0  0  0
   -9.6403    1.3658    0.0000 N   0  0  0  0  0  4  0  0  0  0  0  0
   -9.3284    2.8330    0.0000 C   0  0  0  0  0  0  0  0  0  0  0  0
  -10.4431    3.8367    0.0000 C   0  0  0  0  0  0  0  0  0  0  0  0
  -11.8697    3.3732    0.0000 C   0  0  0  0  0  0  0  0  0  0  0  0
  -12.1816    1.9060    0.0000 C   0  0  0  0  0  0  0  0  0  0  0  0
  -13.6082    1.4425    0.0000 C   0  0  0  0  0  0  0  0  0  0  0  0
  -14.7229    2.4461    0.0000 O   0  0  0  0  0  0  0  0  0  0  0  0
  -11.0669    0.9023    0.0000 C   0  0  0  0  0  0  0  0  0  0  0  0
   -8.8374   -1.1051    0.0000 C   0  0  0  0  0  0  0  0  0  0  0  0
   -7.7227   -2.1088    0.0000 C   0  0  0  0  0  0  0  0  0  0  0  0
  1  2  2  0
  2  3  1  0
  3  4  1  0
  4  5  1  0
  5  6  1  0
  6  7  2  0
  7  8  1  0
  8  9  1  0
  2 10  1  0
 10 11  2  0
 11 12  1  0
 12 13  2  0
 13 14  1  0
 14 15  2  0
 15 16  1  0
 16 17  1  0
 17 18  2  0
 18 19  1  0
 19 20  2  0
 20 21  1  0
 21 22  2  0
 13 23  1  0
 23 24  2  0
 24 25  1  0
 25 26  1  0
 26 27  1  0
 27 28  1  0
 28 29  1  0
 29 30  1  0
 30 31  1  0
 31 32  1  0
 32 33  1  0
 33 34  1  6
 34 35  1  0
 33 36  1  0
 28 37  1  0
 37 38  1  0
  9  5  2  0
 24 10  1  0
 38 25  1  0
 22 14  1  0
 36 29  1  0
 22 17  1  0
M  CHG  1  29   1
M  END
>  <Compound_ID>  (795) 
C20598676

>  <Active>  (795) 
0.0

>  <Smiles>  (795) 
O=C(NCc1ccon1)c1ccc(-c2csc3ccccc23)nc1N1CCC([NH+]2CCC[C@@H](CO)C2)CC1

>  <canonical_smi>  (795) 
O=C(NCc1ccon1)c1ccc(-c2csc3ccccc23)nc1N1CCC([NH+]2CCC[C@@H](CO)C2)CC1

>  <Set>  (795) 
G2 inactive

>  <Set_type>  (795) 
Train

>  <MW>  (795) 
532.69

>  <HBD>  (795) 
3

>  <HBA>  (795) 
6

>  <NRB>  (795) 
7

>  <NR>  (795) 
6

>  <NAR>  (795) 
4

>  <PSA>  (795) 
95.93

>  <Standard Type>  (795) 
nan

>  <Standard Relation>  (795) 
nan

>  <Standard Units>  (795) 
nan

>  <Standard Value>  (795) 
nan

>  <Assay ChEMBL ID>  (795) 
nan

>  <Assay Description>  (795) 
nan

>  <BAO Label>  (795) 
nan

$$$$

     RDKit          2D

 20 21  0  0  0  0  0  0  0  0999 V2000
   -0.5773   -6.8783    0.0000 C   0  0  0  0  0  0  0  0  0  0  0  0
    0.8899   -6.5665    0.0000 C   0  0  0  0  0  0  0  0  0  0  0  0
    2.0046   -7.5702    0.0000 N   0  0  0  0  0  0  0  0  0  0  0  0
    3.3037   -6.8202    0.0000 N   0  0  0  0  0  0  0  0  0  0  0  0
    2.9918   -5.3529    0.0000 C   0  0  0  0  0  0  0  0  0  0  0  0
    3.9955   -4.2382    0.0000 C   0  0  0  0  0  0  0  0  0  0  0  0
    1.5000   -5.1962    0.0000 C   0  0  0  0  0  0  0  0  0  0  0  0
    0.7500   -3.8971    0.0000 C   0  0  0  0  0  0  0  0  0  0  0  0
    1.5000   -2.5981    0.0000 N   0  0  0  0  0  0  0  0  0  0  0  0
    0.7500   -1.2990    0.0000 C   0  0  0  0  0  0  0  0  0  0  0  0
    1.5000    0.0000    0.0000 C   0  0  0  0  0  0  0  0  0  0  0  0
    0.7500    1.2990    0.0000 C   0  0  0  0  0  0  0  0  0  0  0  0
   -0.7500    1.2990    0.0000 C   0  0  0  0  0  0  0  0  0  0  0  0
   -1.5000    2.5981    0.0000 S   0  0  0  0  0  0  0  0  0  0  0  0
   -0.7500    3.8971    0.0000 C   0  0  0  0  0  0  0  0  0  0  0  0
   -2.0490    4.6471    0.0000 F   0  0  0  0  0  0  0  0  0  0  0  0
    0.5490    3.1471    0.0000 F   0  0  0  0  0  0  0  0  0  0  0  0
    0.0000    5.1962    0.0000 F   0  0  0  0  0  0  0  0  0  0  0  0
   -1.5000    0.0000    0.0000 C   0  0  0  0  0  0  0  0  0  0  0  0
   -0.7500   -1.2990    0.0000 C   0  0  0  0  0  0  0  0  0  0  0  0
  1  2  1  0
  2  3  2  0
  3  4  1  0
  4  5  1  0
  5  6  1  0
  5  7  2  0
  7  8  1  0
  8  9  1  0
  9 10  1  0
 10 11  2  0
 11 12  1  0
 12 13  2  0
 13 14  1  0
 14 15  1  0
 15 16  1  0
 15 17  1  0
 15 18  1  0
 13 19  1  0
 19 20  2  0
  7  2  1  0
 20 10  1  0
M  END
>  <Compound_ID>  (796) 
C37067999

>  <Active>  (796) 
0.0

>  <Smiles>  (796) 
Cc1n[nH]c(C)c1CNc1ccc(SC(F)(F)F)cc1

>  <canonical_smi>  (796) 
Cc1n[nH]c(C)c1CNc1ccc(SC(F)(F)F)cc1

>  <Set>  (796) 
G2 inactive

>  <Set_type>  (796) 
Train

>  <MW>  (796) 
301.34

>  <HBD>  (796) 
2

>  <HBA>  (796) 
3

>  <NRB>  (796) 
4

>  <NR>  (796) 
2

>  <NAR>  (796) 
2

>  <PSA>  (796) 
40.71

>  <Standard Type>  (796) 
nan

>  <Standard Relation>  (796) 
nan

>  <Standard Units>  (796) 
nan

>  <Standard Value>  (796) 
nan

>  <Assay ChEMBL ID>  (796) 
nan

>  <Assay Description>  (796) 
nan

>  <BAO Label>  (796) 
nan

$$$$

     RDKit          2D

 26 29  0  0  0  0  0  0  0  0999 V2000
    5.2500    1.2990    0.0000 C   0  0  0  0  0  0  0  0  0  0  0  0
    4.5000    0.0000    0.0000 C   0  0  0  0  0  0  0  0  0  0  0  0
    3.0000    0.0000    0.0000 C   0  0  0  0  0  0  0  0  0  0  0  0
    3.0000   -1.5000    0.0000 C   0  0  0  0  0  0  0  0  0  0  0  0
    3.0000    1.5000    0.0000 C   0  0  0  0  0  0  0  0  0  0  0  0
    1.5000    0.0000    0.0000 C   0  0  0  0  0  0  0  0  0  0  0  0
    0.7500   -1.2990    0.0000 C   0  0  0  0  0  0  0  0  0  0  0  0
   -0.7500   -1.2990    0.0000 C   0  0  0  0  0  0  0  0  0  0  0  0
   -1.5000    0.0000    0.0000 C   0  0  0  0  0  0  0  0  0  0  0  0
   -0.7500    1.2990    0.0000 C   0  0  0  0  0  0  0  0  0  0  0  0
   -1.7537    2.4138    0.0000 S   0  0  0  0  0  0  0  0  0  0  0  0
   -3.1240    1.8037    0.0000 C   0  0  0  0  0  0  0  0  0  0  0  0
   -2.9672    0.3119    0.0000 C   0  0  0  0  0  0  0  0  0  0  0  0
   -4.1807   -0.5698    0.0000 C   0  0  0  0  0  0  0  0  0  0  0  0
   -4.0240   -2.0616    0.0000 O   0  0  0  0  0  0  0  0  0  0  0  0
   -5.5511    0.0403    0.0000 N   0  0  0  0  0  0  0  0  0  0  0  0
   -5.7079    1.5321    0.0000 C   0  0  0  0  0  0  0  0  0  0  0  0
   -7.0782    2.1422    0.0000 C   0  0  0  0  0  0  0  0  0  0  0  0
   -7.2350    3.6340    0.0000 C   0  0  0  0  0  0  0  0  0  0  0  0
   -8.6053    4.2441    0.0000 C   0  0  0  0  0  0  0  0  0  0  0  0
   -9.8188    3.3624    0.0000 C   0  0  0  0  0  0  0  0  0  0  0  0
  -11.1891    3.9725    0.0000 C   0  0  0  0  0  0  0  0  0  0  0  0
   -9.6620    1.8706    0.0000 C   0  0  0  0  0  0  0  0  0  0  0  0
   -8.2917    1.2605    0.0000 C   0  0  0  0  0  0  0  0  0  0  0  0
   -4.4943    2.4138    0.0000 N   0  0  0  0  0  0  0  0  0  0  0  0
    0.7500    1.2990    0.0000 C   0  0  0  0  0  0  0  0  0  0  0  0
  1  2  1  0
  2  3  1  0
  3  4  1  0
  3  5  1  0
  6  3  1  1
  6  7  1  0
  7  8  1  0
  8  9  1  0
  9 10  2  0
 10 11  1  0
 11 12  1  0
 12 13  2  0
 13 14  1  0
 14 15  1  0
 14 16  2  0
 16 17  1  0
 17 18  1  6
 18 19  2  0
 19 20  1  0
 20 21  2  0
 21 22  1  0
 21 23  1  0
 23 24  2  0
 17 25  1  0
 10 26  1  0
 26  6  1  0
 13  9  1  0
 24 18  1  0
 25 12  1  0
M  END
>  <Compound_ID>  (797) 
C04553427

>  <Active>  (797) 
0.0

>  <Smiles>  (797) 
CCC(C)(C)[C@H]1CCc2c(sc3c2C(O)=N[C@H](c2ccc(C)cc2)N3)C1

>  <canonical_smi>  (797) 
CCC(C)(C)[C@H]1CCc2c(sc3c2C(O)=N[C@H](c2ccc(C)cc2)N3)C1

>  <Set>  (797) 
G2 inactive

>  <Set_type>  (797) 
Train

>  <MW>  (797) 
368.55

>  <HBD>  (797) 
2

>  <HBA>  (797) 
2

>  <NRB>  (797) 
3

>  <NR>  (797) 
4

>  <NAR>  (797) 
2

>  <PSA>  (797) 
44.62

>  <Standard Type>  (797) 
nan

>  <Standard Relation>  (797) 
nan

>  <Standard Units>  (797) 
nan

>  <Standard Value>  (797) 
nan

>  <Assay ChEMBL ID>  (797) 
nan

>  <Assay Description>  (797) 
nan

>  <BAO Label>  (797) 
nan

$$$$

     RDKit          2D

 20 22  0  0  0  0  0  0  0  0999 V2000
    2.5981   -8.1073    0.0000 C   0  0  0  0  0  0  0  0  0  0  0  0
    1.2990   -7.3573    0.0000 C   0  0  0  0  0  0  0  0  0  0  0  0
   -0.0000   -8.1073    0.0000 C   0  0  0  0  0  0  0  0  0  0  0  0
   -1.2990   -7.3573    0.0000 C   0  0  0  0  0  0  0  0  0  0  0  0
   -2.5981   -8.1073    0.0000 C   0  0  0  0  0  0  0  0  0  0  0  0
   -1.2990   -5.8573    0.0000 C   0  0  0  0  0  0  0  0  0  0  0  0
   -2.5981   -5.1073    0.0000 N   0  0  0  0  0  0  0  0  0  0  0  0
   -0.0000   -5.1073    0.0000 C   0  0  0  0  0  0  0  0  0  0  0  0
   -0.0000   -3.6073    0.0000 C   0  0  0  0  0  0  0  0  0  0  0  0
    1.2135   -2.7256    0.0000 N   0  0  0  0  0  0  0  0  0  0  0  0
    0.7500   -1.2990    0.0000 C   0  0  0  0  0  0  0  0  0  0  0  0
    1.5000    0.0000    0.0000 C   0  0  0  0  0  0  0  0  0  0  0  0
    0.7500    1.2990    0.0000 C   0  0  0  0  0  0  0  0  0  0  0  0
    1.5000    2.5981    0.0000 Br  0  0  0  0  0  0  0  0  0  0  0  0
   -0.7500    1.2990    0.0000 C   0  0  0  0  0  0  0  0  0  0  0  0
   -1.5000    0.0000    0.0000 C   0  0  0  0  0  0  0  0  0  0  0  0
   -0.7500   -1.2990    0.0000 C   0  0  0  0  0  0  0  0  0  0  0  0
   -1.2135   -2.7256    0.0000 N   0  0  0  0  0  0  0  0  0  0  0  0
   -2.6401   -3.1891    0.0000 C   0  0  0  0  0  0  0  0  0  0  0  0
    1.2990   -5.8573    0.0000 C   0  0  0  0  0  0  0  0  0  0  0  0
  1  2  1  0
  2  3  2  0
  3  4  1  0
  4  5  1  0
  4  6  2  0
  6  7  1  0
  6  8  1  0
  8  9  1  0
  9 10  2  0
 10 11  1  0
 11 12  2  0
 12 13  1  0
 13 14  1  0
 13 15  2  0
 15 16  1  0
 16 17  2  0
 17 18  1  0
 18 19  1  0
  8 20  2  0
 20  2  1  0
 18  9  1  0
 17 11  1  0
M  END
>  <Compound_ID>  (798) 
C62825832

>  <Active>  (798) 
0.0

>  <Smiles>  (798) 
Cc1cc(C)c(N)c(-c2nc3cc(Br)ccc3n2C)c1

>  <canonical_smi>  (798) 
Cc1cc(C)c(N)c(-c2nc3cc(Br)ccc3n2C)c1

>  <Set>  (798) 
G2 inactive

>  <Set_type>  (798) 
Train

>  <MW>  (798) 
330.23

>  <HBD>  (798) 
1

>  <HBA>  (798) 
2

>  <NRB>  (798) 
1

>  <NR>  (798) 
3

>  <NAR>  (798) 
3

>  <PSA>  (798) 
43.84

>  <Standard Type>  (798) 
nan

>  <Standard Relation>  (798) 
nan

>  <Standard Units>  (798) 
nan

>  <Standard Value>  (798) 
nan

>  <Assay ChEMBL ID>  (798) 
nan

>  <Assay Description>  (798) 
nan

>  <BAO Label>  (798) 
nan

$$$$

     RDKit          2D

 14 15  0  0  0  0  0  0  0  0999 V2000
    3.0000   -2.5981    0.0000 O   0  0  0  0  0  0  0  0  0  0  0  0
    1.5000   -2.5981    0.0000 S   0  0  0  0  0  4  0  0  0  0  0  0
    0.7500   -1.2990    0.0000 C   0  0  0  0  0  0  0  0  0  0  0  0
    1.5000    0.0000    0.0000 C   0  0  0  0  0  0  0  0  0  0  0  0
    0.7500    1.2990    0.0000 C   0  0  0  0  0  0  0  0  0  0  0  0
   -0.7500    1.2990    0.0000 C   0  0  0  0  0  0  0  0  0  0  0  0
   -1.5000    2.5981    0.0000 Br  0  0  0  0  0  0  0  0  0  0  0  0
   -1.5000    0.0000    0.0000 C   0  0  0  0  0  0  0  0  0  0  0  0
   -0.7500   -1.2990    0.0000 C   0  0  0  0  0  0  0  0  0  0  0  0
    0.7500   -3.8971    0.0000 C   0  0  0  0  0  0  0  0  0  0  0  0
    1.3601   -5.2674    0.0000 C   0  0  0  0  0  0  0  0  0  0  0  0
    0.2454   -6.2711    0.0000 N   0  0  0  0  0  0  0  0  0  0  0  0
   -1.0537   -5.5211    0.0000 N   0  0  0  0  0  0  0  0  0  0  0  0
   -0.7418   -4.0539    0.0000 S   0  0  0  0  0  0  0  0  0  0  0  0
  1  2  2  0
  2  3  1  6
  3  4  2  0
  4  5  1  0
  5  6  2  0
  6  7  1  0
  6  8  1  0
  8  9  2  0
  2 10  1  0
 10 11  2  0
 11 12  1  0
 12 13  2  0
 13 14  1  0
  9  3  1  0
 14 10  1  0
M  END
>  <Compound_ID>  (799) 
C03125339

>  <Active>  (799) 
0.0

>  <Smiles>  (799) 
O=[S@@](c1ccc(Br)cc1)c1cnns1

>  <canonical_smi>  (799) 
O=[S@@](c1ccc(Br)cc1)c1cnns1

>  <Set>  (799) 
G2 inactive

>  <Set_type>  (799) 
Train

>  <MW>  (799) 
289.18

>  <HBD>  (799) 
0

>  <HBA>  (799) 
3

>  <NRB>  (799) 
2

>  <NR>  (799) 
2

>  <NAR>  (799) 
2

>  <PSA>  (799) 
42.85

>  <Standard Type>  (799) 
nan

>  <Standard Relation>  (799) 
nan

>  <Standard Units>  (799) 
nan

>  <Standard Value>  (799) 
nan

>  <Assay ChEMBL ID>  (799) 
nan

>  <Assay Description>  (799) 
nan

>  <BAO Label>  (799) 
nan

$$$$

     RDKit          2D

 18 19  0  0  0  0  0  0  0  0999 V2000
    0.3207   -8.5658    0.0000 C   0  0  0  0  0  0  0  0  0  0  0  0
    0.4775   -7.0740    0.0000 N   0  0  0  0  0  0  0  0  0  0  0  0
   -0.7360   -6.1923    0.0000 C   0  0  0  0  0  0  0  0  0  0  0  0
    1.8478   -6.4639    0.0000 C   0  0  0  0  0  0  0  0  0  0  0  0
    2.0046   -4.9721    0.0000 C   0  0  0  0  0  0  0  0  0  0  0  0
    3.3037   -4.2221    0.0000 C   0  0  0  0  0  0  0  0  0  0  0  0
    2.9918   -2.7549    0.0000 C   0  0  0  0  0  0  0  0  0  0  0  0
    1.5000   -2.5981    0.0000 N   0  0  0  0  0  0  0  0  0  0  0  0
    0.7500   -1.2990    0.0000 C   0  0  0  0  0  0  0  0  0  0  0  0
    1.5000    0.0000    0.0000 C   0  0  0  0  0  0  0  0  0  0  0  0
    0.7500    1.2990    0.0000 C   0  0  0  0  0  0  0  0  0  0  0  0
    1.5000    2.5981    0.0000 Cl  0  0  0  0  0  0  0  0  0  0  0  0
   -0.7500    1.2990    0.0000 C   0  0  0  0  0  0  0  0  0  0  0  0
   -1.5000    0.0000    0.0000 C   0  0  0  0  0  0  0  0  0  0  0  0
   -3.0000    0.0000    0.0000 Cl  0  0  0  0  0  0  0  0  0  0  0  0
   -0.7500   -1.2990    0.0000 C   0  0  0  0  0  0  0  0  0  0  0  0
    0.8899   -3.9684    0.0000 C   0  0  0  0  0  0  0  0  0  0  0  0
   -0.5773   -4.2803    0.0000 O   0  0  0  0  0  0  0  0  0  0  0  0
  1  2  1  0
  2  3  1  0
  2  4  1  0
  4  5  2  0
  5  6  1  0
  6  7  1  0
  7  8  1  0
  8  9  1  0
  9 10  2  0
 10 11  1  0
 11 12  1  0
 11 13  2  0
 13 14  1  0
 14 15  1  0
 14 16  2  0
  8 17  1  0
 17 18  2  0
 17  5  1  0
 16  9  1  0
M  END
>  <Compound_ID>  (800) 
C29763898

>  <Active>  (800) 
0.0

>  <Smiles>  (800) 
CN(C)/C=C1/CCN(c2cc(Cl)cc(Cl)c2)C1=O

>  <canonical_smi>  (800) 
CN(C)/C=C1/CCN(c2cc(Cl)cc(Cl)c2)C1=O

>  <Set>  (800) 
G2 inactive

>  <Set_type>  (800) 
Train

>  <MW>  (800) 
285.17

>  <HBD>  (800) 
0

>  <HBA>  (800) 
2

>  <NRB>  (800) 
2

>  <NR>  (800) 
2

>  <NAR>  (800) 
1

>  <PSA>  (800) 
23.55

>  <Standard Type>  (800) 
nan

>  <Standard Relation>  (800) 
nan

>  <Standard Units>  (800) 
nan

>  <Standard Value>  (800) 
nan

>  <Assay ChEMBL ID>  (800) 
nan

>  <Assay Description>  (800) 
nan

>  <BAO Label>  (800) 
nan

$$$$

     RDKit          2D

 20 23  0  0  0  0  0  0  0  0999 V2000
   -0.0000   -5.1073    0.0000 S   0  0  0  0  0  0  0  0  0  0  0  0
   -0.0000   -3.6073    0.0000 C   0  0  0  0  0  0  0  0  0  0  0  0
    1.2135   -2.7256    0.0000 O   0  0  0  0  0  0  0  0  0  0  0  0
    0.7500   -1.2990    0.0000 C   0  0  0  0  0  0  0  0  0  0  0  0
    1.5000    0.0000    0.0000 C   0  0  0  0  0  0  0  0  0  0  0  0
    0.7500    1.2990    0.0000 C   0  0  0  0  0  0  0  0  0  0  0  0
   -0.7500    1.2990    0.0000 C   0  0  0  0  0  0  0  0  0  0  0  0
   -1.5000    0.0000    0.0000 C   0  0  0  0  0  0  0  0  0  0  0  0
   -0.7500   -1.2990    0.0000 C   0  0  0  0  0  0  0  0  0  0  0  0
   -1.2135   -2.7256    0.0000 N   0  0  0  0  0  0  0  0  0  0  0  0
   -2.6401   -3.1891    0.0000 C   0  0  0  0  0  0  0  0  0  0  0  0
   -3.7548   -2.1855    0.0000 N   0  0  0  0  0  0  0  0  0  0  0  0
   -3.4430   -0.7182    0.0000 C   0  0  0  0  0  0  0  0  0  0  0  0
   -4.5577    0.2855    0.0000 C   0  0  0  0  0  0  0  0  0  0  0  0
   -5.9843   -0.1781    0.0000 C   0  0  0  0  0  0  0  0  0  0  0  0
   -7.2833    0.5719    0.0000 S   0  0  0  0  0  0  0  0  0  0  0  0
   -8.3980   -0.4318    0.0000 C   0  0  0  0  0  0  0  0  0  0  0  0
   -7.7879   -1.8021    0.0000 C   0  0  0  0  0  0  0  0  0  0  0  0
   -6.2961   -1.6453    0.0000 C   0  0  0  0  0  0  0  0  0  0  0  0
   -5.1814   -2.6490    0.0000 C   0  0  0  0  0  0  0  0  0  0  0  0
  1  2  2  0
  2  3  1  0
  3  4  1  0
  4  5  2  0
  5  6  1  0
  6  7  2  0
  7  8  1  0
  8  9  2  0
  9 10  1  0
 10 11  1  0
 11 12  1  0
 12 13  1  0
 13 14  1  0
 14 15  1  0
 15 16  1  0
 16 17  1  0
 17 18  2  0
 18 19  1  0
 19 20  1  0
 10  2  1  0
 20 12  1  0
  9  4  1  0
 19 15  2  0
M  END
>  <Compound_ID>  (801) 
C14309318

>  <Active>  (801) 
0.0

>  <Smiles>  (801) 
S=c1oc2ccccc2n1CN1CCc2sccc2C1

>  <canonical_smi>  (801) 
S=c1oc2ccccc2n1CN1CCc2sccc2C1

>  <Set>  (801) 
G2 inactive

>  <Set_type>  (801) 
Train

>  <MW>  (801) 
302.42

>  <HBD>  (801) 
0

>  <HBA>  (801) 
3

>  <NRB>  (801) 
2

>  <NR>  (801) 
4

>  <NAR>  (801) 
3

>  <PSA>  (801) 
21.31

>  <Standard Type>  (801) 
nan

>  <Standard Relation>  (801) 
nan

>  <Standard Units>  (801) 
nan

>  <Standard Value>  (801) 
nan

>  <Assay ChEMBL ID>  (801) 
nan

>  <Assay Description>  (801) 
nan

>  <BAO Label>  (801) 
nan

$$$$

     RDKit          2D

 31 35  0  0  0  0  0  0  0  0999 V2000
   -9.3231  -10.8727    0.0000 F   0  0  0  0  0  0  0  0  0  0  0  0
   -7.9528  -11.4828    0.0000 C   0  0  0  0  0  0  0  0  0  0  0  0
   -7.3426  -10.1124    0.0000 F   0  0  0  0  0  0  0  0  0  0  0  0
   -8.5629  -12.8531    0.0000 F   0  0  0  0  0  0  0  0  0  0  0  0
   -6.5824  -12.0929    0.0000 C   0  0  0  0  0  0  0  0  0  0  0  0
   -6.2706  -13.5601    0.0000 C   0  0  0  0  0  0  0  0  0  0  0  0
   -4.7788  -13.7169    0.0000 C   0  0  0  0  0  0  0  0  0  0  0  0
   -4.0288  -15.0159    0.0000 C   0  0  0  0  0  0  0  0  0  0  0  0
   -2.7297  -15.7659    0.0000 C   0  0  0  0  0  0  0  0  0  0  0  0
   -4.0288  -16.5159    0.0000 C   0  0  0  0  0  0  0  0  0  0  0  0
   -4.1687  -12.3466    0.0000 N   0  0  0  0  0  0  0  0  0  0  0  0
   -2.7015  -12.0347    0.0000 C   0  0  0  0  0  0  0  0  0  0  0  0
   -2.2379  -10.6081    0.0000 C   0  0  0  0  0  0  0  0  0  0  0  0
   -3.1196   -9.3946    0.0000 N   0  0  0  0  0  0  0  0  0  0  0  0
   -2.2379   -8.1811    0.0000 N   0  0  0  0  0  0  0  0  0  0  0  0
   -0.8113   -8.6446    0.0000 C   0  0  0  0  0  0  0  0  0  0  0  0
    0.4022   -7.7629    0.0000 N   0  0  0  0  0  0  0  0  0  0  0  0
    0.2454   -6.2711    0.0000 C   0  0  0  0  0  0  0  0  0  0  0  0
   -1.0537   -5.5211    0.0000 C   0  0  0  0  0  0  0  0  0  0  0  0
   -0.7418   -4.0539    0.0000 C   0  0  0  0  0  0  0  0  0  0  0  0
    0.7500   -3.8971    0.0000 N   0  0  0  0  0  0  0  0  0  0  0  0
    1.5000   -2.5981    0.0000 C   0  0  0  0  0  0  0  0  0  0  0  0
    0.7500   -1.2990    0.0000 C   0  0  0  0  0  0  0  0  0  0  0  0
    1.5000    0.0000    0.0000 C   0  0  0  0  0  0  0  0  0  0  0  0
    0.7500    1.2990    0.0000 C   0  0  0  0  0  0  0  0  0  0  0  0
   -0.7500    1.2990    0.0000 C   0  0  0  0  0  0  0  0  0  0  0  0
   -1.5000    0.0000    0.0000 C   0  0  0  0  0  0  0  0  0  0  0  0
   -0.7500   -1.2990    0.0000 C   0  0  0  0  0  0  0  0  0  0  0  0
    1.3601   -5.2674    0.0000 N   0  0  0  0  0  0  0  0  0  0  0  0
   -0.8113  -10.1446    0.0000 S   0  0  0  0  0  0  0  0  0  0  0  0
   -5.2834  -11.3429    0.0000 N   0  0  0  0  0  0  0  0  0  0  0  0
  1  2  1  0
  2  3  1  0
  2  4  1  0
  2  5  1  0
  5  6  1  0
  6  7  2  0
  7  8  1  0
  8  9  1  0
  9 10  1  0
  7 11  1  0
 11 12  1  0
 12 13  1  0
 13 14  2  0
 14 15  1  0
 15 16  2  0
 16 17  1  0
 17 18  1  0
 18 19  1  0
 19 20  2  0
 20 21  1  0
 21 22  1  0
 22 23  1  0
 23 24  2  0
 24 25  1  0
 25 26  2  0
 26 27  1  0
 27 28  2  0
 21 29  1  0
 16 30  1  0
 11 31  1  0
 31  5  2  0
 10  8  1  0
 30 13  1  0
 29 18  2  0
 28 23  1  0
M  END
>  <Compound_ID>  (802) 
C02809624

>  <Active>  (802) 
0.0

>  <Smiles>  (802) 
FC(F)(F)c1cc(C2CC2)n(Cc2nnc(Nc3ccn(Cc4ccccc4)n3)s2)n1

>  <canonical_smi>  (802) 
FC(F)(F)c1cc(C2CC2)n(Cc2nnc(Nc3ccn(Cc4ccccc4)n3)s2)n1

>  <Set>  (802) 
G2 inactive

>  <Set_type>  (802) 
Train

>  <MW>  (802) 
445.47

>  <HBD>  (802) 
1

>  <HBA>  (802) 
5

>  <NRB>  (802) 
7

>  <NR>  (802) 
5

>  <NAR>  (802) 
4

>  <PSA>  (802) 
73.45

>  <Standard Type>  (802) 
nan

>  <Standard Relation>  (802) 
nan

>  <Standard Units>  (802) 
nan

>  <Standard Value>  (802) 
nan

>  <Assay ChEMBL ID>  (802) 
nan

>  <Assay Description>  (802) 
nan

>  <BAO Label>  (802) 
nan

$$$$

     RDKit          2D

 17 18  0  0  0  0  0  0  0  0999 V2000
   -2.5981   -8.1073    0.0000 C   0  0  0  0  0  0  0  0  0  0  0  0
   -1.2990   -7.3573    0.0000 C   0  0  0  0  0  0  0  0  0  0  0  0
   -1.2990   -5.8573    0.0000 C   0  0  0  0  0  0  0  0  0  0  0  0
   -0.0000   -5.1073    0.0000 S   0  0  0  0  0  0  0  0  0  0  0  0
   -0.0000   -3.6073    0.0000 C   0  0  0  0  0  0  0  0  0  0  0  0
    1.2135   -2.7256    0.0000 N   0  0  0  0  0  0  0  0  0  0  0  0
    0.7500   -1.2990    0.0000 C   0  0  0  0  0  0  0  0  0  0  0  0
    1.5000    0.0000    0.0000 C   0  0  0  0  0  0  0  0  0  0  0  0
    0.7500    1.2990    0.0000 C   0  0  0  0  0  0  0  0  0  0  0  0
   -0.7500    1.2990    0.0000 C   0  0  0  0  0  0  0  0  0  0  0  0
   -1.5000    0.0000    0.0000 C   0  0  0  0  0  0  0  0  0  0  0  0
   -0.7500   -1.2990    0.0000 C   0  0  0  0  0  0  0  0  0  0  0  0
   -1.2135   -2.7256    0.0000 O   0  0  0  0  0  0  0  0  0  0  0  0
   -0.0000   -8.1073    0.0000 C   0  0  0  0  0  0  0  0  0  0  0  0
    1.2990   -7.3573    0.0000 N   0  0  0  0  0  0  0  0  0  0  0  0
   -0.0000   -9.6073    0.0000 N   0  0  0  0  0  0  0  0  0  0  0  0
    1.2990  -10.3573    0.0000 O   0  0  0  0  0  0  0  0  0  0  0  0
  2  1  1  6
  2  3  1  0
  3  4  1  0
  4  5  1  0
  5  6  2  0
  6  7  1  0
  7  8  2  0
  8  9  1  0
  9 10  2  0
 10 11  1  0
 11 12  2  0
 12 13  1  0
  2 14  1  0
 14 15  1  0
 14 16  2  0
 16 17  1  0
 13  5  1  0
 12  7  1  0
M  END
>  <Compound_ID>  (803) 
C36681271

>  <Active>  (803) 
0.0

>  <Smiles>  (803) 
C[C@H](CSc1nc2ccccc2o1)/C(N)=N/O

>  <canonical_smi>  (803) 
C[C@H](CSc1nc2ccccc2o1)/C(N)=N/O

>  <Set>  (803) 
G2 inactive

>  <Set_type>  (803) 
Train

>  <MW>  (803) 
251.31

>  <HBD>  (803) 
2

>  <HBA>  (803) 
5

>  <NRB>  (803) 
4

>  <NR>  (803) 
2

>  <NAR>  (803) 
2

>  <PSA>  (803) 
84.64

>  <Standard Type>  (803) 
nan

>  <Standard Relation>  (803) 
nan

>  <Standard Units>  (803) 
nan

>  <Standard Value>  (803) 
nan

>  <Assay ChEMBL ID>  (803) 
nan

>  <Assay Description>  (803) 
nan

>  <BAO Label>  (803) 
nan

$$$$

     RDKit          2D

 19 19  0  0  0  0  0  0  0  0999 V2000
    3.5260   -1.2990    0.0000 C   0  0  0  0  0  0  0  0  0  0  0  0
    2.7760    0.0000    0.0000 C   0  0  0  0  0  0  0  0  0  0  0  0
    3.5260    1.2990    0.0000 C   0  0  0  0  0  0  0  0  0  0  0  0
    1.2760    0.0000    0.0000 C   0  0  0  0  0  0  0  0  0  0  0  0
    0.3943    1.2135    0.0000 C   0  0  0  0  0  0  0  0  0  0  0  0
   -1.0323    0.7500    0.0000 S   0  0  0  0  0  0  0  0  0  0  0  0
   -1.0323   -0.7500    0.0000 C   0  0  0  0  0  0  0  0  0  0  0  0
   -2.2458   -1.6317    0.0000 N   0  0  0  0  0  0  0  0  0  0  0  0
   -3.6161   -1.0216    0.0000 C   0  0  0  0  0  0  0  0  0  0  0  0
   -3.7729    0.4702    0.0000 O   0  0  0  0  0  0  0  0  0  0  0  0
   -4.8297   -1.9033    0.0000 N   0  0  0  0  0  0  0  0  0  0  0  0
   -6.2000   -1.2931    0.0000 C   0  0  0  0  0  0  0  0  0  0  0  0
   -4.6729   -3.3950    0.0000 C   0  0  0  0  0  0  0  0  0  0  0  0
   -5.8864   -4.2767    0.0000 C   0  0  0  0  0  0  0  0  0  0  0  0
   -5.7296   -5.7685    0.0000 C   0  0  0  0  0  0  0  0  0  0  0  0
   -7.2567   -3.6666    0.0000 C   0  0  0  0  0  0  0  0  0  0  0  0
   -7.4135   -2.1748    0.0000 O   0  0  0  0  0  0  0  0  0  0  0  0
   -8.4702   -4.5483    0.0000 O   0  0  0  0  0  1  0  0  0  0  0  0
    0.3943   -1.2135    0.0000 N   0  0  0  0  0  0  0  0  0  0  0  0
  1  2  1  0
  2  3  1  0
  2  4  1  0
  4  5  2  0
  5  6  1  0
  6  7  1  0
  7  8  1  0
  8  9  1  0
  9 10  2  0
  9 11  1  0
 11 12  1  0
 11 13  1  0
 13 14  1  0
 14 15  1  1
 14 16  1  0
 16 17  2  0
 16 18  1  0
  7 19  2  0
 19  4  1  0
M  CHG  1  18  -1
M  END
>  <Compound_ID>  (804) 
C42709903

>  <Active>  (804) 
0.0

>  <Smiles>  (804) 
CC(C)c1csc(NC(=O)N(C)C[C@@H](C)C(=O)[O-])n1

>  <canonical_smi>  (804) 
CC(C)c1csc(NC(=O)N(C)C[C@@H](C)C(=O)[O-])n1

>  <Set>  (804) 
G2 inactive

>  <Set_type>  (804) 
Train

>  <MW>  (804) 
284.36

>  <HBD>  (804) 
1

>  <HBA>  (804) 
4

>  <NRB>  (804) 
5

>  <NR>  (804) 
1

>  <NAR>  (804) 
1

>  <PSA>  (804) 
85.36

>  <Standard Type>  (804) 
nan

>  <Standard Relation>  (804) 
nan

>  <Standard Units>  (804) 
nan

>  <Standard Value>  (804) 
nan

>  <Assay ChEMBL ID>  (804) 
nan

>  <Assay Description>  (804) 
nan

>  <BAO Label>  (804) 
nan

$$$$

     RDKit          2D

 20 21  0  0  0  0  0  0  0  0999 V2000
    8.6168    4.8506    0.0000 C   0  0  0  0  0  0  0  0  0  0  0  0
    7.6131    5.9654    0.0000 C   0  0  0  0  0  0  0  0  0  0  0  0
    7.3013    7.4326    0.0000 C   0  0  0  0  0  0  0  0  0  0  0  0
    6.1865    6.4289    0.0000 C   0  0  0  0  0  0  0  0  0  0  0  0
    4.7193    6.1170    0.0000 C   0  0  0  0  0  0  0  0  0  0  0  0
    4.2558    4.6904    0.0000 N   0  0  0  0  0  0  0  0  0  0  0  0
    2.7886    4.3786    0.0000 C   0  0  0  0  0  0  0  0  0  0  0  0
    1.7849    5.4933    0.0000 O   0  0  0  0  0  0  0  0  0  0  0  0
    2.3250    2.9520    0.0000 C   0  0  0  0  0  0  0  0  0  0  0  0
    3.3287    1.8373    0.0000 O   0  0  0  0  0  1  0  0  0  0  0  0
    0.8578    2.6401    0.0000 N   0  0  0  0  0  0  0  0  0  0  0  0
    0.3943    1.2135    0.0000 C   0  0  0  0  0  0  0  0  0  0  0  0
    1.2760    0.0000    0.0000 N   0  0  0  0  0  0  0  0  0  0  0  0
    0.3943   -1.2135    0.0000 N   0  0  0  0  0  0  0  0  0  0  0  0
   -1.0323   -0.7500    0.0000 C   0  0  0  0  0  0  0  0  0  0  0  0
   -2.2458   -1.6317    0.0000 C   0  0  0  0  0  0  0  0  0  0  0  0
   -3.1275   -0.4182    0.0000 C   0  0  0  0  0  0  0  0  0  0  0  0
   -1.3641   -2.8452    0.0000 C   0  0  0  0  0  0  0  0  0  0  0  0
   -3.4593   -2.5134    0.0000 C   0  0  0  0  0  0  0  0  0  0  0  0
   -1.0323    0.7500    0.0000 S   0  0  0  0  0  0  0  0  0  0  0  0
  2  1  1  1
  2  3  1  0
  3  4  1  0
  4  5  1  1
  5  6  1  0
  6  7  1  0
  7  8  2  0
  7  9  1  0
  9 10  1  0
  9 11  2  0
 11 12  1  0
 12 13  2  0
 13 14  1  0
 14 15  2  0
 15 16  1  0
 16 17  1  0
 16 18  1  0
 16 19  1  0
 15 20  1  0
  4  2  1  0
 20 12  1  0
M  CHG  1  10  -1
M  END
>  <Compound_ID>  (805) 
C49271047

>  <Active>  (805) 
0.0

>  <Smiles>  (805) 
C[C@@H]1C[C@@H]1CNC(=O)/C([O-])=N/c1nnc(C(C)(C)C)s1

>  <canonical_smi>  (805) 
C[C@@H]1C[C@@H]1CNC(=O)/C([O-])=N/c1nnc(C(C)(C)C)s1

>  <Set>  (805) 
G2 inactive

>  <Set_type>  (805) 
Train

>  <MW>  (805) 
295.39

>  <HBD>  (805) 
1

>  <HBA>  (805) 
4

>  <NRB>  (805) 
3

>  <NR>  (805) 
2

>  <NAR>  (805) 
1

>  <PSA>  (805) 
90.3

>  <Standard Type>  (805) 
nan

>  <Standard Relation>  (805) 
nan

>  <Standard Units>  (805) 
nan

>  <Standard Value>  (805) 
nan

>  <Assay ChEMBL ID>  (805) 
nan

>  <Assay Description>  (805) 
nan

>  <BAO Label>  (805) 
nan

$$$$

     RDKit          2D

 24 27  0  0  0  0  0  0  0  0999 V2000
    9.4368    3.0845    0.0000 C   0  0  0  0  0  0  0  0  0  0  0  0
    8.5551    4.2980    0.0000 N   0  0  0  0  0  0  0  0  0  0  0  0
    9.0187    5.7246    0.0000 C   0  0  0  0  0  0  0  0  0  0  0  0
    7.8051    6.6063    0.0000 N   0  0  0  0  0  4  0  0  0  0  0  0
    6.5916    5.7246    0.0000 C   0  0  0  0  0  0  0  0  0  0  0  0
    5.1650    6.1881    0.0000 S   0  0  0  0  0  0  0  0  0  0  0  0
    4.7015    4.7616    0.0000 O   0  0  0  0  0  0  0  0  0  0  0  0
    5.6286    7.6147    0.0000 O   0  0  0  0  0  0  0  0  0  0  0  0
    3.7385    6.6517    0.0000 N   0  0  0  0  0  2  0  0  0  0  0  0
    2.6237    5.6480    0.0000 C   0  0  0  0  0  0  0  0  0  0  0  0
    1.1971    6.1115    0.0000 C   0  0  0  0  0  0  0  0  0  0  0  0
    0.0824    5.1078    0.0000 C   0  0  0  0  0  0  0  0  0  0  0  0
    0.3943    3.6406    0.0000 C   0  0  0  0  0  0  0  0  0  0  0  0
    1.8209    3.1771    0.0000 C   0  0  0  0  0  0  0  0  0  0  0  0
    2.9356    4.1807    0.0000 C   0  0  0  0  0  0  0  0  0  0  0  0
    1.8209    1.6771    0.0000 O   0  0  0  0  0  0  0  0  0  0  0  0
    0.3943    1.2135    0.0000 C   0  0  0  0  0  0  0  0  0  0  0  0
    1.2760    0.0000    0.0000 C   0  0  0  0  0  0  0  0  0  0  0  0
    0.3943   -1.2135    0.0000 C   0  0  0  0  0  0  0  0  0  0  0  0
   -1.0323   -0.7500    0.0000 C   0  0  0  0  0  0  0  0  0  0  0  0
   -1.0323    0.7500    0.0000 C   0  0  0  0  0  0  0  0  0  0  0  0
   -0.4874    2.4271    0.0000 O   0  0  0  0  0  0  0  0  0  0  0  0
    7.0551    4.2980    0.0000 C   0  0  0  0  0  0  0  0  0  0  0  0
    6.1735    3.0845    0.0000 Cl  0  0  0  0  0  0  0  0  0  0  0  0
  1  2  1  0
  2  3  1  0
  3  4  2  0
  4  5  1  0
  5  6  1  0
  6  7  2  0
  6  8  2  0
  6  9  1  0
  9 10  1  0
 10 11  2  0
 11 12  1  0
 12 13  2  0
 13 14  1  0
 14 15  2  0
 14 16  1  0
 16 17  1  0
 17 18  1  0
 18 19  1  0
 19 20  1  0
 20 21  1  0
 17 22  1  0
  5 23  2  0
 23 24  1  0
 23  2  1  0
 15 10  1  0
 21 17  1  0
 22 13  1  0
M  CHG  2   4   1   9  -1
M  END
>  <Compound_ID>  (806) 
C26534418

>  <Active>  (806) 
0.0

>  <Smiles>  (806) 
Cn1c[nH+]c(S(=O)(=O)[N-]c2ccc3c(c2)OC2(CCCC2)O3)c1Cl

>  <canonical_smi>  (806) 
Cn1c[nH+]c(S(=O)(=O)[N-]c2ccc3c(c2)OC2(CCCC2)O3)c1Cl

>  <Set>  (806) 
G2 inactive

>  <Set_type>  (806) 
Train

>  <MW>  (806) 
369.83

>  <HBD>  (806) 
0

>  <HBA>  (806) 
4

>  <NRB>  (806) 
3

>  <NR>  (806) 
4

>  <NAR>  (806) 
2

>  <PSA>  (806) 
85.77

>  <Standard Type>  (806) 
nan

>  <Standard Relation>  (806) 
nan

>  <Standard Units>  (806) 
nan

>  <Standard Value>  (806) 
nan

>  <Assay ChEMBL ID>  (806) 
nan

>  <Assay Description>  (806) 
nan

>  <BAO Label>  (806) 
nan

$$$$

     RDKit          2D

 27 31  0  0  0  0  0  0  0  0999 V2000
    1.5000    0.0000    0.0000 C   0  0  0  0  0  0  0  0  0  0  0  0
    0.7500   -1.2990    0.0000 C   0  0  0  0  0  0  0  0  0  0  0  0
   -0.7500   -1.2990    0.0000 C   0  0  0  0  0  0  0  0  0  0  0  0
   -1.5000    0.0000    0.0000 C   0  0  0  0  0  0  0  0  0  0  0  0
   -3.0000    0.0000    0.0000 N   0  0  0  0  0  0  0  0  0  0  0  0
   -3.8817   -1.2135    0.0000 N   0  0  0  0  0  0  0  0  0  0  0  0
   -5.3083   -0.7500    0.0000 C   0  0  0  0  0  0  0  0  0  0  0  0
   -6.5218   -1.6317    0.0000 C   0  0  0  0  0  0  0  0  0  0  0  0
   -6.5218   -3.1317    0.0000 N   0  0  0  0  0  0  0  0  0  0  0  0
   -7.9484   -3.5952    0.0000 N   0  0  0  0  0  0  0  0  0  0  0  0
   -8.8301   -2.3817    0.0000 C   0  0  0  0  0  0  0  0  0  0  0  0
  -10.3301   -2.3817    0.0000 C   0  0  0  0  0  0  0  0  0  0  0  0
  -11.0801   -1.0826    0.0000 C   0  0  0  0  0  0  0  0  0  0  0  0
  -12.5801   -1.0826    0.0000 C   0  0  0  0  0  0  0  0  0  0  0  0
  -13.3301   -2.3817    0.0000 C   0  0  0  0  0  0  0  0  0  0  0  0
  -12.5801   -3.6807    0.0000 C   0  0  0  0  0  0  0  0  0  0  0  0
  -11.0801   -3.6807    0.0000 C   0  0  0  0  0  0  0  0  0  0  0  0
   -7.9484   -1.1682    0.0000 N   0  0  0  0  0  0  0  0  0  0  0  0
   -5.3083    0.7500    0.0000 C   0  0  0  0  0  0  0  0  0  0  0  0
   -6.5218    1.6317    0.0000 N   0  0  0  0  0  0  0  0  0  0  0  0
   -7.9484    1.1682    0.0000 C   0  0  0  0  0  0  0  0  0  0  0  0
   -8.8301    2.3817    0.0000 C   0  0  0  0  0  0  0  0  0  0  0  0
   -7.9484    3.5952    0.0000 C   0  0  0  0  0  0  0  0  0  0  0  0
   -6.5218    3.1317    0.0000 C   0  0  0  0  0  0  0  0  0  0  0  0
   -3.8817    1.2135    0.0000 N   0  0  0  0  0  0  0  0  0  0  0  0
   -0.7500    1.2990    0.0000 C   0  0  0  0  0  0  0  0  0  0  0  0
    0.7500    1.2990    0.0000 C   0  0  0  0  0  0  0  0  0  0  0  0
  1  2  2  0
  2  3  1  0
  3  4  2  0
  4  5  1  0
  5  6  1  0
  6  7  2  0
  7  8  1  0
  8  9  2  0
  9 10  1  0
 10 11  1  0
 11 12  1  0
 12 13  1  0
 13 14  1  0
 14 15  1  0
 15 16  1  0
 16 17  1  0
 11 18  2  0
  7 19  1  0
 19 20  1  0
 20 21  1  0
 21 22  1  0
 22 23  1  0
 23 24  1  0
 19 25  2  0
  4 26  1  0
 26 27  2  0
 27  1  1  0
 25  5  1  0
 18  8  1  0
 24 20  1  0
 17 12  1  0
M  END
>  <Compound_ID>  (807) 
C33435935

>  <Active>  (807) 
0.0

>  <Smiles>  (807) 
c1ccc(-n2nc(-c3n[nH]c(C4CCCCC4)n3)c(N3CCCC3)n2)cc1

>  <canonical_smi>  (807) 
c1ccc(-n2nc(-c3n[nH]c(C4CCCCC4)n3)c(N3CCCC3)n2)cc1

>  <Set>  (807) 
G2 inactive

>  <Set_type>  (807) 
Train

>  <MW>  (807) 
363.47

>  <HBD>  (807) 
1

>  <HBA>  (807) 
5

>  <NRB>  (807) 
4

>  <NR>  (807) 
5

>  <NAR>  (807) 
3

>  <PSA>  (807) 
75.52

>  <Standard Type>  (807) 
nan

>  <Standard Relation>  (807) 
nan

>  <Standard Units>  (807) 
nan

>  <Standard Value>  (807) 
nan

>  <Assay ChEMBL ID>  (807) 
nan

>  <Assay Description>  (807) 
nan

>  <BAO Label>  (807) 
nan

$$$$

     RDKit          2D

 27 30  0  0  0  0  0  0  0  0999 V2000
  -10.0498   -6.6888    0.0000 C   0  0  0  0  0  0  0  0  0  0  0  0
   -8.9503   -5.6686    0.0000 C   0  0  0  0  0  0  0  0  0  0  0  0
   -7.5169   -6.1107    0.0000 C   0  0  0  0  0  0  0  0  0  0  0  0
   -6.4173   -5.0904    0.0000 C   0  0  0  0  0  0  0  0  0  0  0  0
   -4.9840   -5.5326    0.0000 S   0  0  0  0  0  0  0  0  0  0  0  0
   -3.8844   -4.5123    0.0000 C   0  0  0  0  0  0  0  0  0  0  0  0
   -4.2182   -3.0499    0.0000 N   0  0  0  0  0  0  0  0  0  0  0  0
   -3.1186   -2.0297    0.0000 N   0  0  0  0  0  0  0  0  0  0  0  0
   -1.6852   -2.4718    0.0000 C   0  0  0  0  0  0  0  0  0  0  0  0
   -1.3515   -3.9342    0.0000 C   0  0  0  0  0  0  0  0  0  0  0  0
   -2.4510   -4.9544    0.0000 N   0  0  0  0  0  0  0  0  0  0  0  0
   -0.0000   -4.5850    0.0000 O   0  0  0  0  0  0  0  0  0  0  0  0
    1.3515   -3.9342    0.0000 C   0  0  0  0  0  0  0  0  0  0  0  0
    2.5242   -4.8694    0.0000 C   0  0  0  0  0  0  0  0  0  0  0  0
    2.3006   -6.3527    0.0000 C   0  0  0  0  0  0  0  0  0  0  0  0
    3.4734   -7.2879    0.0000 C   0  0  0  0  0  0  0  0  0  0  0  0
    4.8697   -6.7399    0.0000 C   0  0  0  0  0  0  0  0  0  0  0  0
    5.0933   -5.2566    0.0000 C   0  0  0  0  0  0  0  0  0  0  0  0
    3.9205   -4.3214    0.0000 C   0  0  0  0  0  0  0  0  0  0  0  0
    4.1441   -2.8382    0.0000 C   0  0  0  0  0  0  0  0  0  0  0  0
    1.6852   -2.4718    0.0000 N   0  0  0  0  0  0  0  0  0  0  0  0
    0.7500   -1.2990    0.0000 C   0  0  0  0  0  0  0  0  0  0  0  0
    1.5000    0.0000    0.0000 C   0  0  0  0  0  0  0  0  0  0  0  0
    0.7500    1.2990    0.0000 C   0  0  0  0  0  0  0  0  0  0  0  0
   -0.7500    1.2990    0.0000 C   0  0  0  0  0  0  0  0  0  0  0  0
   -1.5000    0.0000    0.0000 C   0  0  0  0  0  0  0  0  0  0  0  0
   -0.7500   -1.2990    0.0000 C   0  0  0  0  0  0  0  0  0  0  0  0
  1  2  1  0
  2  3  1  0
  3  4  1  0
  4  5  1  0
  5  6  1  0
  6  7  2  0
  7  8  1  0
  8  9  2  0
  9 10  1  0
 10 11  2  0
 10 12  1  0
 12 13  1  0
 13 14  1  1
 14 15  2  0
 15 16  1  0
 16 17  2  0
 17 18  1  0
 18 19  2  0
 19 20  1  0
 13 21  1  0
 21 22  1  0
 22 23  2  0
 23 24  1  0
 24 25  2  0
 25 26  1  0
 26 27  2  0
 11  6  1  0
 19 14  1  0
 27 22  1  0
 27  9  1  0
M  END
>  <Compound_ID>  (808) 
C02882463

>  <Active>  (808) 
0.0

>  <Smiles>  (808) 
CCCCSc1nnc2c(n1)O[C@H](c1ccccc1C)Nc1ccccc1-2

>  <canonical_smi>  (808) 
CCCCSc1nnc2c(n1)O[C@H](c1ccccc1C)Nc1ccccc1-2

>  <Set>  (808) 
G2 inactive

>  <Set_type>  (808) 
Train

>  <MW>  (808) 
378.5

>  <HBD>  (808) 
1

>  <HBA>  (808) 
6

>  <NRB>  (808) 
5

>  <NR>  (808) 
4

>  <NAR>  (808) 
3

>  <PSA>  (808) 
59.93

>  <Standard Type>  (808) 
nan

>  <Standard Relation>  (808) 
nan

>  <Standard Units>  (808) 
nan

>  <Standard Value>  (808) 
nan

>  <Assay ChEMBL ID>  (808) 
nan

>  <Assay Description>  (808) 
nan

>  <BAO Label>  (808) 
nan

$$$$

     RDKit          2D

 37 40  0  0  0  0  0  0  0  0999 V2000
    3.0000    0.0000    0.0000 C   0  0  0  0  0  0  0  0  0  0  0  0
    1.5000    0.0000    0.0000 C   0  0  0  0  0  0  0  0  0  0  0  0
    0.7500   -1.2990    0.0000 C   0  0  0  0  0  0  0  0  0  0  0  0
   -0.7500   -1.2990    0.0000 C   0  0  0  0  0  0  0  0  0  0  0  0
   -1.5000   -2.5981    0.0000 C   0  0  0  0  0  0  0  0  0  0  0  0
   -1.5000    0.0000    0.0000 C   0  0  0  0  0  0  0  0  0  0  0  0
   -3.0000    0.0000    0.0000 C   0  0  0  0  0  0  0  0  0  0  0  0
   -3.7500    1.2990    0.0000 C   0  0  0  0  0  0  0  0  0  0  0  0
   -5.2500    1.2990    0.0000 C   0  0  0  0  0  0  0  0  0  0  0  0
   -6.1317    0.0855    0.0000 O   0  0  0  0  0  0  0  0  0  0  0  0
   -7.5583    0.5490    0.0000 N   0  0  0  0  0  0  0  0  0  0  0  0
   -7.5583    2.0490    0.0000 C   0  0  0  0  0  0  0  0  0  0  0  0
   -8.7718    2.9307    0.0000 C   0  0  0  0  0  0  0  0  0  0  0  0
   -6.1317    2.5126    0.0000 C   0  0  0  0  0  0  0  0  0  0  0  0
   -5.6682    3.9391    0.0000 S   0  0  0  0  0  0  0  0  0  0  0  0
   -4.2416    3.4756    0.0000 O   0  0  0  0  0  0  0  0  0  0  0  0
   -7.0947    4.4027    0.0000 O   0  0  0  0  0  0  0  0  0  0  0  0
   -5.2046    5.3657    0.0000 N   0  0  0  0  0  0  0  0  0  0  0  0
   -3.7374    5.6776    0.0000 C   0  0  0  0  0  0  0  0  0  0  0  0
   -3.2739    7.1042    0.0000 C   0  0  0  0  0  0  0  0  0  0  0  0
   -4.2776    8.2189    0.0000 C   0  0  0  0  0  0  0  0  0  0  0  0
   -5.7448    7.9070    0.0000 C   0  0  0  0  0  0  0  0  0  0  0  0
   -6.7485    9.0218    0.0000 C   0  0  0  0  0  0  0  0  0  0  0  0
   -8.2157    8.7099    0.0000 O   0  0  0  0  0  0  0  0  0  0  0  0
   -6.2850   10.4483    0.0000 N   0  0  0  0  0  0  0  0  0  0  0  0
   -7.2887   11.5631    0.0000 C   0  0  0  0  0  0  0  0  0  0  0  0
   -6.8251   12.9896    0.0000 C   0  0  0  0  0  0  0  0  0  0  0  0
   -7.8288   14.1044    0.0000 C   0  0  0  0  0  0  0  0  0  0  0  0
   -9.2961   13.7925    0.0000 C   0  0  0  0  0  0  0  0  0  0  0  0
  -10.2998   14.9072    0.0000 C   0  0  0  0  0  0  0  0  0  0  0  0
   -9.7596   12.3659    0.0000 C   0  0  0  0  0  0  0  0  0  0  0  0
  -11.2268   12.0540    0.0000 F   0  0  0  0  0  0  0  0  0  0  0  0
   -8.7559   11.2512    0.0000 C   0  0  0  0  0  0  0  0  0  0  0  0
   -6.2083    6.4805    0.0000 C   0  0  0  0  0  0  0  0  0  0  0  0
   -0.7500    1.2990    0.0000 C   0  0  0  0  0  0  0  0  0  0  0  0
   -1.5000    2.5981    0.0000 C   0  0  0  0  0  0  0  0  0  0  0  0
    0.7500    1.2990    0.0000 C   0  0  0  0  0  0  0  0  0  0  0  0
  1  2  1  0
  2  3  2  0
  3  4  1  0
  4  5  1  0
  4  6  2  0
  6  7  1  0
  7  8  2  0
  8  9  1  0
  9 10  1  0
 10 11  1  0
 11 12  2  0
 12 13  1  0
 12 14  1  0
 14 15  1  0
 15 16  2  0
 15 17  2  0
 15 18  1  0
 18 19  1  0
 19 20  1  0
 20 21  1  0
 21 22  1  0
 22 23  1  1
 23 24  2  0
 23 25  1  0
 25 26  1  0
 26 27  2  0
 27 28  1  0
 28 29  2  0
 29 30  1  0
 29 31  1  0
 31 32  1  0
 31 33  2  0
 22 34  1  0
  6 35  1  0
 35 36  1  0
 35 37  2  0
 37  2  1  0
 14  9  2  0
 34 18  1  0
 33 26  1  0
M  END
>  <Compound_ID>  (809) 
C33250942

>  <Active>  (809) 
0.0

>  <Smiles>  (809) 
Cc1cc(C)c(/C=C/c2onc(C)c2S(=O)(=O)N2CCC[C@H](C(=O)Nc3ccc(C)c(F)c3)C2)c(C)c1

>  <canonical_smi>  (809) 
Cc1cc(C)c(/C=C/c2onc(C)c2S(=O)(=O)N2CCC[C@H](C(=O)Nc3ccc(C)c(F)c3)C2)c(C)c1

>  <Set>  (809) 
G2 inactive

>  <Set_type>  (809) 
Train

>  <MW>  (809) 
525.65

>  <HBD>  (809) 
1

>  <HBA>  (809) 
5

>  <NRB>  (809) 
6

>  <NR>  (809) 
4

>  <NAR>  (809) 
3

>  <PSA>  (809) 
92.51

>  <Standard Type>  (809) 
nan

>  <Standard Relation>  (809) 
nan

>  <Standard Units>  (809) 
nan

>  <Standard Value>  (809) 
nan

>  <Assay ChEMBL ID>  (809) 
nan

>  <Assay Description>  (809) 
nan

>  <BAO Label>  (809) 
nan

$$$$

     RDKit          2D

 37 41  0  0  0  0  0  0  0  0999 V2000
    3.1837   -6.7653    0.0000 C   0  0  0  0  0  0  0  0  0  0  0  0
    1.6920   -6.6085    0.0000 C   0  0  0  0  0  0  0  0  0  0  0  0
    1.0818   -5.2382    0.0000 N   0  0  0  0  0  0  0  0  0  0  0  0
    1.9635   -4.0247    0.0000 N   0  0  0  0  0  0  0  0  0  0  0  0
    3.4635   -4.0247    0.0000 C   0  0  0  0  0  0  0  0  0  0  0  0
    4.3452   -5.2382    0.0000 N   0  0  0  0  0  0  0  0  0  0  0  0
    5.8370   -5.0814    0.0000 C   0  0  0  0  0  0  0  0  0  0  0  0
    6.7187   -6.2949    0.0000 C   0  0  0  0  0  0  0  0  0  0  0  0
    8.2104   -6.1381    0.0000 C   0  0  0  0  0  0  0  0  0  0  0  0
    8.8206   -4.7678    0.0000 C   0  0  0  0  0  0  0  0  0  0  0  0
    7.9389   -3.5543    0.0000 N   0  0  0  0  0  0  0  0  0  0  0  0
    6.4471   -3.7111    0.0000 C   0  0  0  0  0  0  0  0  0  0  0  0
    3.9271   -2.5981    0.0000 S   0  0  0  0  0  0  0  0  0  0  0  0
    2.7135   -1.7164    0.0000 C   0  0  0  0  0  0  0  0  0  0  0  0
    1.5000   -2.5981    0.0000 C   0  0  0  0  0  0  0  0  0  0  0  0
    0.1297   -3.2082    0.0000 O   0  0  0  0  0  0  0  0  0  0  0  0
    0.7500   -1.2990    0.0000 C   0  0  0  0  0  0  0  0  0  0  0  0
    1.5000    0.0000    0.0000 C   0  0  0  0  0  0  0  0  0  0  0  0
    0.7500    1.2990    0.0000 C   0  0  0  0  0  0  0  0  0  0  0  0
   -0.7500    1.2990    0.0000 C   0  0  0  0  0  0  0  0  0  0  0  0
   -1.5000    0.0000    0.0000 C   0  0  0  0  0  0  0  0  0  0  0  0
   -0.7500   -1.2990    0.0000 C   0  0  0  0  0  0  0  0  0  0  0  0
   -3.0000    0.0000    0.0000 N   0  0  0  0  0  0  0  0  0  0  0  0
   -3.7500    1.2990    0.0000 C   0  0  0  0  0  0  0  0  0  0  0  0
   -5.2500    1.2990    0.0000 O   0  0  0  0  0  0  0  0  0  0  0  0
   -3.0000    2.5981    0.0000 C   0  0  0  0  0  0  0  0  0  0  0  0
   -1.5000    2.5981    0.0000 O   0  0  0  0  0  0  0  0  0  0  0  0
    0.8103   -7.8220    0.0000 C   0  0  0  0  0  0  0  0  0  0  0  0
   -0.6815   -7.6652    0.0000 C   0  0  0  0  0  0  0  0  0  0  0  0
   -1.5632   -8.8788    0.0000 C   0  0  0  0  0  0  0  0  0  0  0  0
   -0.9531  -10.2491    0.0000 C   0  0  0  0  0  0  0  0  0  0  0  0
   -1.8348  -11.4626    0.0000 C   0  0  0  0  0  0  0  0  0  0  0  0
    0.5387  -10.4059    0.0000 C   0  0  0  0  0  0  0  0  0  0  0  0
    1.1488  -11.7762    0.0000 N   0  0  0  0  0  4  0  0  0  0  0  0
    0.2671  -12.9897    0.0000 O   0  0  0  0  0  0  0  0  0  0  0  0
    2.6406  -11.9330    0.0000 O   0  0  0  0  0  1  0  0  0  0  0  0
    1.4204   -9.1923    0.0000 C   0  0  0  0  0  0  0  0  0  0  0  0
  1  2  1  0
  2  3  2  0
  3  4  1  0
  4  5  1  0
  5  6  2  0
  6  7  1  0
  7  8  2  0
  8  9  1  0
  9 10  2  0
 10 11  1  0
 11 12  2  0
  5 13  1  0
 13 14  1  0
 14 15  1  0
 15 16  1  1
 15 17  1  0
 17 18  2  0
 18 19  1  0
 19 20  2  0
 20 21  1  0
 21 22  2  0
 21 23  1  0
 23 24  1  0
 24 25  2  0
 24 26  1  0
 26 27  1  0
  2 28  1  0
 28 29  2  0
 29 30  1  0
 30 31  2  0
 31 32  1  0
 31 33  1  0
 33 34  1  0
 34 35  2  0
 34 36  1  0
 33 37  2  0
 15  4  1  0
 22 17  1  0
 37 28  1  0
 12  7  1  0
 27 20  1  0
M  CHG  2  34   1  36  -1
M  END
>  <Compound_ID>  (810) 
C15980731

>  <Active>  (810) 
0.0

>  <Smiles>  (810) 
C/C(=N\N1/C(=N/c2cccnc2)SC[C@@]1(O)c1ccc2c(c1)NC(=O)CO2)c1ccc(C)c([N+](=O)[O-])c1

>  <canonical_smi>  (810) 
C/C(=N\N1/C(=N/c2cccnc2)SC[C@@]1(O)c1ccc2c(c1)NC(=O)CO2)c1ccc(C)c([N+](=O)[O-])c1

>  <Set>  (810) 
G2 inactive

>  <Set_type>  (810) 
Train

>  <MW>  (810) 
518.56

>  <HBD>  (810) 
2

>  <HBA>  (810) 
8

>  <NRB>  (810) 
5

>  <NR>  (810) 
5

>  <NAR>  (810) 
3

>  <PSA>  (810) 
142.55

>  <Standard Type>  (810) 
nan

>  <Standard Relation>  (810) 
nan

>  <Standard Units>  (810) 
nan

>  <Standard Value>  (810) 
nan

>  <Assay ChEMBL ID>  (810) 
nan

>  <Assay Description>  (810) 
nan

>  <BAO Label>  (810) 
nan

$$$$

     RDKit          2D

 33 37  0  0  0  0  0  0  0  0999 V2000
   -6.0000   -7.7942    0.0000 C   0  0  0  0  0  0  0  0  0  0  0  0
   -5.2500   -6.4952    0.0000 C   0  0  0  0  0  0  0  0  0  0  0  0
   -3.7500   -6.4952    0.0000 C   0  0  0  0  0  0  0  0  0  0  0  0
   -3.0000   -5.1962    0.0000 C   0  0  0  0  0  0  0  0  0  0  0  0
   -1.5000   -5.1962    0.0000 O   0  0  0  0  0  0  0  0  0  0  0  0
   -3.7500   -3.8971    0.0000 C   0  0  0  0  0  0  0  0  0  0  0  0
   -5.2500   -3.8971    0.0000 C   0  0  0  0  0  0  0  0  0  0  0  0
   -6.0000   -2.5981    0.0000 C   0  0  0  0  0  0  0  0  0  0  0  0
   -5.2500   -1.2990    0.0000 C   0  0  0  0  0  0  0  0  0  0  0  0
   -3.7500   -1.2990    0.0000 C   0  0  0  0  0  0  0  0  0  0  0  0
   -3.0000   -2.5981    0.0000 C   0  0  0  0  0  0  0  0  0  0  0  0
   -1.5000   -2.5981    0.0000 C   0  0  0  0  0  0  0  0  0  0  0  0
   -0.7500   -3.8971    0.0000 O   0  0  0  0  0  0  0  0  0  0  0  0
   -0.7500   -1.2990    0.0000 C   0  0  0  0  0  0  0  0  0  0  0  0
    0.7500   -1.2990    0.0000 C   0  0  0  0  0  0  0  0  0  0  0  0
    1.5000   -2.5981    0.0000 O   0  0  0  0  0  0  0  0  0  0  0  0
    3.0000   -2.5981    0.0000 C   0  0  0  0  0  0  0  0  0  0  0  0
    3.7500   -3.8971    0.0000 O   0  0  0  0  0  0  0  0  0  0  0  0
    5.2500   -3.8971    0.0000 C   0  0  0  0  0  0  0  0  0  0  0  0
    6.0000   -5.1962    0.0000 C   0  0  0  0  0  0  0  0  0  0  0  0
    6.0000   -2.5981    0.0000 C   0  0  0  0  0  0  0  0  0  0  0  0
    7.5000   -2.5981    0.0000 O   0  0  0  0  0  0  0  0  0  0  0  0
    5.2500   -1.2990    0.0000 C   0  0  0  0  0  0  0  0  0  0  0  0
    6.0000   -0.0000    0.0000 O   0  0  0  0  0  0  0  0  0  0  0  0
    3.7500   -1.2990    0.0000 C   0  0  0  0  0  0  0  0  0  0  0  0
    3.0000   -0.0000    0.0000 O   0  0  0  0  0  0  0  0  0  0  0  0
    1.5000    0.0000    0.0000 C   0  0  0  0  0  0  0  0  0  0  0  0
    0.7500    1.2990    0.0000 C   0  0  0  0  0  0  0  0  0  0  0  0
   -0.7500    1.2990    0.0000 C   0  0  0  0  0  0  0  0  0  0  0  0
   -1.5000    0.0000    0.0000 C   0  0  0  0  0  0  0  0  0  0  0  0
   -3.0000    0.0000    0.0000 C   0  0  0  0  0  0  0  0  0  0  0  0
   -3.7500    1.2990    0.0000 O   0  0  0  0  0  0  0  0  0  0  0  0
   -6.0000   -5.1962    0.0000 C   0  0  0  0  0  0  0  0  0  0  0  0
  2  1  1  1
  2  3  1  0
  3  4  1  0
  4  5  2  0
  4  6  1  0
  6  7  2  0
  7  8  1  0
  8  9  2  0
  9 10  1  0
 10 11  2  0
 11 12  1  0
 12 13  2  0
 12 14  1  0
 14 15  2  0
 15 16  1  0
 17 16  1  1
 17 18  1  0
 18 19  1  0
 19 20  1  6
 19 21  1  0
 21 22  1  1
 21 23  1  0
 23 24  1  6
 23 25  1  0
 25 26  1  6
 15 27  1  0
 27 28  2  0
 28 29  1  0
 29 30  2  0
 30 31  1  0
 31 32  2  0
  7 33  1  0
 33  2  1  0
 11  6  1  0
 30 14  1  0
 31 10  1  0
 25 17  1  0
M  END
>  <Compound_ID>  (811) 
C31159024

>  <Active>  (811) 
0.0

>  <Smiles>  (811) 
C[C@@H]1CC(=O)c2c(ccc3c2C(=O)c2c(O[C@@H]4O[C@@H](C)[C@H](O)[C@@H](O)[C@H]4O)cccc2C3=O)C1

>  <canonical_smi>  (811) 
C[C@@H]1CC(=O)c2c(ccc3c2C(=O)c2c(O[C@@H]4O[C@@H](C)[C@H](O)[C@@H](O)[C@H]4O)cccc2C3=O)C1

>  <Set>  (811) 
G2 inactive

>  <Set_type>  (811) 
Train

>  <MW>  (811) 
452.46

>  <HBD>  (811) 
3

>  <HBA>  (811) 
8

>  <NRB>  (811) 
2

>  <NR>  (811) 
5

>  <NAR>  (811) 
3

>  <PSA>  (811) 
130.36

>  <Standard Type>  (811) 
nan

>  <Standard Relation>  (811) 
nan

>  <Standard Units>  (811) 
nan

>  <Standard Value>  (811) 
nan

>  <Assay ChEMBL ID>  (811) 
nan

>  <Assay Description>  (811) 
nan

>  <BAO Label>  (811) 
nan

$$$$

     RDKit          2D

 26 28  0  0  0  0  0  0  0  0999 V2000
   -0.7500   -6.4952    0.0000 O   0  0  0  0  0  0  0  0  0  0  0  0
    0.7500   -6.4952    0.0000 C   0  0  0  0  0  0  0  0  0  0  0  0
    1.5000   -5.1962    0.0000 N   0  0  0  0  0  0  0  0  0  0  0  0
    0.7500   -3.8971    0.0000 C   0  0  0  0  0  0  0  0  0  0  0  0
    1.5000   -2.5981    0.0000 C   0  0  0  0  0  0  0  0  0  0  0  0
    3.0000   -2.5981    0.0000 O   0  0  0  0  0  0  0  0  0  0  0  0
    0.7500   -1.2990    0.0000 C   0  0  0  0  0  0  0  0  0  0  0  0
    1.5000    0.0000    0.0000 C   0  0  0  0  0  0  0  0  0  0  0  0
    0.7500    1.2990    0.0000 C   0  0  0  0  0  0  0  0  0  0  0  0
   -0.7500    1.2990    0.0000 C   0  0  0  0  0  0  0  0  0  0  0  0
   -1.5000    2.5981    0.0000 F   0  0  0  0  0  0  0  0  0  0  0  0
   -1.5000    0.0000    0.0000 C   0  0  0  0  0  0  0  0  0  0  0  0
   -3.0000    0.0000    0.0000 F   0  0  0  0  0  0  0  0  0  0  0  0
   -0.7500   -1.2990    0.0000 C   0  0  0  0  0  0  0  0  0  0  0  0
    1.5000   -7.7942    0.0000 N   0  0  0  0  0  0  0  0  0  0  0  0
    0.7500   -9.0933    0.0000 C   0  0  0  0  0  0  0  0  0  0  0  0
   -0.7500   -9.0933    0.0000 C   0  0  0  0  0  0  0  0  0  0  0  0
   -1.5000  -10.3923    0.0000 C   0  0  0  0  0  0  0  0  0  0  0  0
   -0.7500  -11.6913    0.0000 C   0  0  0  0  0  0  0  0  0  0  0  0
   -1.5000  -12.9904    0.0000 C   0  0  0  0  0  0  0  0  0  0  0  0
   -0.8899  -14.3607    0.0000 C   0  0  0  0  0  0  0  0  0  0  0  0
   -2.0046  -15.3644    0.0000 S   0  0  0  0  0  0  0  0  0  0  0  0
   -3.3037  -14.6144    0.0000 N   0  0  0  0  0  0  0  0  0  0  0  0
   -2.9918  -13.1472    0.0000 N   0  0  0  0  0  0  0  0  0  0  0  0
    0.7500  -11.6913    0.0000 C   0  0  0  0  0  0  0  0  0  0  0  0
    1.5000  -10.3923    0.0000 C   0  0  0  0  0  0  0  0  0  0  0  0
  1  2  2  0
  2  3  1  0
  3  4  1  0
  4  5  1  0
  5  6  1  6
  5  7  1  0
  7  8  2  0
  8  9  1  0
  9 10  2  0
 10 11  1  0
 10 12  1  0
 12 13  1  0
 12 14  2  0
  2 15  1  0
 15 16  1  0
 16 17  2  0
 17 18  1  0
 18 19  2  0
 19 20  1  0
 20 21  2  0
 21 22  1  0
 22 23  1  0
 23 24  2  0
 19 25  1  0
 25 26  2  0
 14  7  1  0
 26 16  1  0
 24 20  1  0
M  END
>  <Compound_ID>  (812) 
C56787646

>  <Active>  (812) 
0.0

>  <Smiles>  (812) 
O=C(NC[C@@H](O)c1ccc(F)c(F)c1)Nc1ccc(-c2csnn2)cc1

>  <canonical_smi>  (812) 
O=C(NC[C@@H](O)c1ccc(F)c(F)c1)Nc1ccc(-c2csnn2)cc1

>  <Set>  (812) 
G2 inactive

>  <Set_type>  (812) 
Train

>  <MW>  (812) 
376.39

>  <HBD>  (812) 
3

>  <HBA>  (812) 
4

>  <NRB>  (812) 
5

>  <NR>  (812) 
3

>  <NAR>  (812) 
3

>  <PSA>  (812) 
87.14

>  <Standard Type>  (812) 
nan

>  <Standard Relation>  (812) 
nan

>  <Standard Units>  (812) 
nan

>  <Standard Value>  (812) 
nan

>  <Assay ChEMBL ID>  (812) 
nan

>  <Assay Description>  (812) 
nan

>  <BAO Label>  (812) 
nan

$$$$

     RDKit          2D

 19 21  0  0  0  0  0  0  0  0999 V2000
    2.2351   -7.6177    0.0000 C   0  0  0  0  0  0  0  0  0  0  0  0
    2.8452   -6.2474    0.0000 C   0  0  0  0  0  0  0  0  0  0  0  0
    4.3370   -6.0906    0.0000 C   0  0  0  0  0  0  0  0  0  0  0  0
    1.9635   -5.0339    0.0000 C   0  0  0  0  0  0  0  0  0  0  0  0
    0.4635   -5.0339    0.0000 N   0  0  0  0  0  0  0  0  0  0  0  0
   -0.0000   -3.6073    0.0000 C   0  0  0  0  0  0  0  0  0  0  0  0
   -1.2135   -2.7256    0.0000 S   0  0  0  0  0  0  0  0  0  0  0  0
   -0.7500   -1.2990    0.0000 C   0  0  0  0  0  0  0  0  0  0  0  0
    0.7500   -1.2990    0.0000 C   0  0  0  0  0  0  0  0  0  0  0  0
    1.2135   -2.7256    0.0000 N   0  0  0  0  0  0  0  0  0  0  0  0
    2.4271   -3.6073    0.0000 N   0  0  0  0  0  0  0  0  0  0  0  0
    1.5000    0.0000    0.0000 C   0  0  0  0  0  0  0  0  0  0  0  0
    0.7500    1.2990    0.0000 C   0  0  0  0  0  0  0  0  0  0  0  0
   -0.7500    1.2990    0.0000 N   0  0  0  0  0  0  0  0  0  0  0  0
   -1.5000    0.0000    0.0000 C   0  0  0  0  0  0  0  0  0  0  0  0
   -3.0000    0.0000    0.0000 C   0  0  0  0  0  0  0  0  0  0  0  0
   -3.0000    1.5000    0.0000 C   0  0  0  0  0  0  0  0  0  0  0  0
   -3.0000   -1.5000    0.0000 C   0  0  0  0  0  0  0  0  0  0  0  0
   -4.5000    0.0000    0.0000 C   0  0  0  0  0  0  0  0  0  0  0  0
  1  2  1  0
  2  3  1  0
  2  4  1  0
  4  5  1  0
  5  6  2  0
  6  7  1  0
  7  8  1  0
  8  9  2  0
  9 10  1  0
 10 11  1  0
  9 12  1  0
 12 13  1  0
 13 14  1  0
 14 15  1  0
 15 16  1  1
 16 17  1  0
 16 18  1  0
 16 19  1  0
 11  4  2  0
 10  6  1  0
 15  8  1  0
M  END
>  <Compound_ID>  (813) 
C28429663

>  <Active>  (813) 
0.0

>  <Smiles>  (813) 
CC(C)c1nc2sc3c(n2n1)CCN[C@@H]3C(C)(C)C

>  <canonical_smi>  (813) 
CC(C)c1nc2sc3c(n2n1)CCN[C@@H]3C(C)(C)C

>  <Set>  (813) 
G2 inactive

>  <Set_type>  (813) 
Train

>  <MW>  (813) 
278.43

>  <HBD>  (813) 
1

>  <HBA>  (813) 
3

>  <NRB>  (813) 
1

>  <NR>  (813) 
3

>  <NAR>  (813) 
2

>  <PSA>  (813) 
42.22

>  <Standard Type>  (813) 
nan

>  <Standard Relation>  (813) 
nan

>  <Standard Units>  (813) 
nan

>  <Standard Value>  (813) 
nan

>  <Assay ChEMBL ID>  (813) 
nan

>  <Assay Description>  (813) 
nan

>  <BAO Label>  (813) 
nan

$$$$

     RDKit          2D

 20 22  0  0  0  0  0  0  0  0999 V2000
    3.0000    0.0000    0.0000 C   0  0  0  0  0  0  0  0  0  0  0  0
    1.5000    0.0000    0.0000 C   0  0  0  0  0  0  0  0  0  0  0  0
    0.7500   -1.2990    0.0000 C   0  0  0  0  0  0  0  0  0  0  0  0
   -0.7500   -1.2990    0.0000 C   0  0  0  0  0  0  0  0  0  0  0  0
   -1.5000    0.0000    0.0000 C   0  0  0  0  0  0  0  0  0  0  0  0
   -3.0000    0.0000    0.0000 N   0  0  0  0  0  0  0  0  0  0  0  0
   -3.7500    1.2990    0.0000 C   0  0  0  0  0  0  0  0  0  0  0  0
   -3.0000    2.5981    0.0000 C   0  0  0  0  0  0  0  0  0  0  0  0
   -3.7500    3.8971    0.0000 C   0  0  0  0  0  0  0  0  0  0  0  0
   -5.2500    3.8971    0.0000 C   0  0  0  0  0  0  0  0  0  0  0  0
   -6.0000    2.5981    0.0000 C   0  0  0  0  0  0  0  0  0  0  0  0
   -7.5000    2.5981    0.0000 C   0  0  0  0  0  0  0  0  0  0  0  0
   -8.3817    1.3846    0.0000 N   0  0  0  0  0  0  0  0  0  0  0  0
   -9.8083    1.8481    0.0000 N   0  0  0  0  0  0  0  0  0  0  0  0
   -9.8083    3.3481    0.0000 C   0  0  0  0  0  0  0  0  0  0  0  0
   -8.3817    3.8116    0.0000 N   0  0  0  0  0  0  0  0  0  0  0  0
   -7.9182    5.2382    0.0000 C   0  0  0  0  0  0  0  0  0  0  0  0
   -5.2500    1.2990    0.0000 C   0  0  0  0  0  0  0  0  0  0  0  0
   -0.7500    1.2990    0.0000 C   0  0  0  0  0  0  0  0  0  0  0  0
    0.7500    1.2990    0.0000 C   0  0  0  0  0  0  0  0  0  0  0  0
  1  2  1  0
  2  3  1  0
  3  4  1  0
  4  5  1  0
  5  6  1  0
  6  7  1  0
  7  8  2  0
  8  9  1  0
  9 10  2  0
 10 11  1  0
 11 12  1  0
 12 13  2  0
 13 14  1  0
 14 15  2  0
 15 16  1  0
 16 17  1  0
 11 18  2  0
  5 19  1  0
 19 20  1  0
 20  2  1  0
 18  7  1  0
 16 12  1  0
M  END
>  <Compound_ID>  (814) 
C37125237

>  <Active>  (814) 
0.0

>  <Smiles>  (814) 
CC1CCC(Nc2cccc(-c3nncn3C)c2)CC1

>  <canonical_smi>  (814) 
CC1CCC(Nc2cccc(-c3nncn3C)c2)CC1

>  <Set>  (814) 
G2 inactive

>  <Set_type>  (814) 
Train

>  <MW>  (814) 
270.38

>  <HBD>  (814) 
1

>  <HBA>  (814) 
3

>  <NRB>  (814) 
3

>  <NR>  (814) 
3

>  <NAR>  (814) 
2

>  <PSA>  (814) 
42.74

>  <Standard Type>  (814) 
nan

>  <Standard Relation>  (814) 
nan

>  <Standard Units>  (814) 
nan

>  <Standard Value>  (814) 
nan

>  <Assay ChEMBL ID>  (814) 
nan

>  <Assay Description>  (814) 
nan

>  <BAO Label>  (814) 
nan

$$$$

     RDKit          2D

 21 24  0  0  0  0  0  0  0  0999 V2000
    1.8319   -5.8034    0.0000 C   0  0  0  0  0  0  0  0  0  0  0  0
    0.7172   -6.8071    0.0000 C   0  0  0  0  0  0  0  0  0  0  0  0
   -0.7500   -6.4952    0.0000 C   0  0  0  0  0  0  0  0  0  0  0  0
   -1.5000   -7.7942    0.0000 C   0  0  0  0  0  0  0  0  0  0  0  0
   -0.4963   -8.9089    0.0000 N   0  0  0  0  0  0  0  0  0  0  0  0
    0.8740   -8.2988    0.0000 N   0  0  0  0  0  0  0  0  0  0  0  0
   -3.0000   -7.7942    0.0000 N   0  0  0  0  0  0  0  0  0  0  0  0
   -3.7500   -6.4952    0.0000 C   0  0  0  0  0  0  0  0  0  0  0  0
   -5.2500   -6.4952    0.0000 O   0  0  0  0  0  0  0  0  0  0  0  0
   -3.0000   -5.1962    0.0000 C   0  0  0  0  0  0  0  0  0  0  0  0
   -1.5000   -5.1962    0.0000 C   0  0  0  0  0  0  0  0  0  0  0  0
   -0.7500   -3.8971    0.0000 C   0  0  0  0  0  0  0  0  0  0  0  0
    0.7500   -3.8971    0.0000 C   0  0  0  0  0  0  0  0  0  0  0  0
    1.5000   -2.5981    0.0000 C   0  0  0  0  0  0  0  0  0  0  0  0
    0.7500   -1.2990    0.0000 C   0  0  0  0  0  0  0  0  0  0  0  0
    1.5000    0.0000    0.0000 C   0  0  0  0  0  0  0  0  0  0  0  0
    0.7500    1.2990    0.0000 C   0  0  0  0  0  0  0  0  0  0  0  0
   -0.7500    1.2990    0.0000 C   0  0  0  0  0  0  0  0  0  0  0  0
   -1.5000    0.0000    0.0000 C   0  0  0  0  0  0  0  0  0  0  0  0
   -0.7500   -1.2990    0.0000 C   0  0  0  0  0  0  0  0  0  0  0  0
   -1.5000   -2.5981    0.0000 C   0  0  0  0  0  0  0  0  0  0  0  0
  1  2  1  0
  2  3  2  0
  3  4  1  0
  4  5  1  0
  5  6  2  0
  4  7  1  6
  7  8  1  0
  8  9  2  0
  8 10  1  0
 10 11  1  0
 11 12  1  1
 12 13  2  0
 13 14  1  0
 14 15  2  0
 15 16  1  0
 16 17  2  0
 17 18  1  0
 18 19  2  0
 19 20  1  0
 20 21  2  0
  6  2  1  0
 21 12  1  0
 11  3  1  0
 20 15  1  0
M  END
>  <Compound_ID>  (815) 
C39371111

>  <Active>  (815) 
0.0

>  <Smiles>  (815) 
CC1=C2[C@H](N=N1)NC(=O)C[C@H]2c1ccc2ccccc2c1

>  <canonical_smi>  (815) 
CC1=C2[C@H](N=N1)NC(=O)C[C@H]2c1ccc2ccccc2c1

>  <Set>  (815) 
G2 inactive

>  <Set_type>  (815) 
Train

>  <MW>  (815) 
277.33

>  <HBD>  (815) 
1

>  <HBA>  (815) 
1

>  <NRB>  (815) 
1

>  <NR>  (815) 
4

>  <NAR>  (815) 
2

>  <PSA>  (815) 
53.82

>  <Standard Type>  (815) 
nan

>  <Standard Relation>  (815) 
nan

>  <Standard Units>  (815) 
nan

>  <Standard Value>  (815) 
nan

>  <Assay ChEMBL ID>  (815) 
nan

>  <Assay Description>  (815) 
nan

>  <BAO Label>  (815) 
nan

$$$$

     RDKit          2D

 20 21  0  0  0  0  0  0  0  0999 V2000
    6.0427   -5.3729    0.0000 C   0  0  0  0  0  0  0  0  0  0  0  0
    5.4326   -4.0025    0.0000 C   0  0  0  0  0  0  0  0  0  0  0  0
    6.1826   -2.7035    0.0000 N   0  0  0  0  0  0  0  0  0  0  0  0
    5.1789   -1.5888    0.0000 C   0  0  0  0  0  0  0  0  0  0  0  0
    5.4908   -0.1216    0.0000 C   0  0  0  0  0  0  0  0  0  0  0  0
    3.8086   -2.1989    0.0000 N   0  0  0  0  0  0  0  0  0  0  0  0
    2.5095   -1.4489    0.0000 C   0  0  0  0  0  0  0  0  0  0  0  0
    2.8978    0.0000    0.0000 C   0  0  0  0  0  0  0  0  0  0  0  0
    2.5095    1.4489    0.0000 C   0  0  0  0  0  0  0  0  0  0  0  0
    1.4489    2.5095    0.0000 C   0  0  0  0  0  0  0  0  0  0  0  0
    0.0000    2.8978    0.0000 C   0  0  0  0  0  0  0  0  0  0  0  0
   -1.4489    2.5095    0.0000 C   0  0  0  0  0  0  0  0  0  0  0  0
   -2.5095    1.4489    0.0000 C   0  0  0  0  0  0  0  0  0  0  0  0
   -2.8978    0.0000    0.0000 C   0  0  0  0  0  0  0  0  0  0  0  0
   -2.5095   -1.4489    0.0000 C   0  0  0  0  0  0  0  0  0  0  0  0
   -1.4489   -2.5095    0.0000 C   0  0  0  0  0  0  0  0  0  0  0  0
   -0.0000   -2.8978    0.0000 C   0  0  0  0  0  0  0  0  0  0  0  0
    1.4489   -2.5095    0.0000 C   0  0  0  0  0  0  0  0  0  0  0  0
    2.1989   -3.8086    0.0000 O   0  0  0  0  0  0  0  0  0  0  0  0
    3.9654   -3.6907    0.0000 N   0  0  0  0  0  0  0  0  0  0  0  0
  1  2  1  0
  2  3  1  0
  3  4  2  0
  4  5  1  0
  4  6  1  0
  7  6  1  6
  7  8  1  0
  8  9  1  0
  9 10  1  0
 10 11  1  0
 11 12  1  0
 12 13  1  0
 13 14  1  0
 14 15  1  0
 15 16  1  0
 16 17  1  0
 17 18  1  0
 18 19  1  1
  6 20  1  0
 20  2  2  0
 18  7  1  0
M  END
>  <Compound_ID>  (816) 
C44188951

>  <Active>  (816) 
0.0

>  <Smiles>  (816) 
Cc1nc(C)n([C@H]2CCCCCCCCCC[C@@H]2O)n1

>  <canonical_smi>  (816) 
Cc1nc(C)n([C@H]2CCCCCCCCCC[C@@H]2O)n1

>  <Set>  (816) 
G2 inactive

>  <Set_type>  (816) 
Train

>  <MW>  (816) 
279.43

>  <HBD>  (816) 
1

>  <HBA>  (816) 
3

>  <NRB>  (816) 
1

>  <NR>  (816) 
2

>  <NAR>  (816) 
1

>  <PSA>  (816) 
50.94

>  <Standard Type>  (816) 
nan

>  <Standard Relation>  (816) 
nan

>  <Standard Units>  (816) 
nan

>  <Standard Value>  (816) 
nan

>  <Assay ChEMBL ID>  (816) 
nan

>  <Assay Description>  (816) 
nan

>  <BAO Label>  (816) 
nan

$$$$

     RDKit          2D

 20 22  0  0  0  0  0  0  0  0999 V2000
    3.7500   -1.2990    0.0000 C   0  0  0  0  0  0  0  0  0  0  0  0
    3.0000    0.0000    0.0000 N   0  0  0  0  0  0  0  0  0  0  0  0
    1.5000    0.0000    0.0000 C   0  0  0  0  0  0  0  0  0  0  0  0
    0.7500   -1.2990    0.0000 C   0  0  0  0  0  0  0  0  0  0  0  0
   -0.7500   -1.2990    0.0000 C   0  0  0  0  0  0  0  0  0  0  0  0
   -1.5000    0.0000    0.0000 C   0  0  0  0  0  0  0  0  0  0  0  0
   -0.7500    1.2990    0.0000 C   0  0  0  0  0  0  0  0  0  0  0  0
    0.7500    1.2990    0.0000 C   0  0  0  0  0  0  0  0  0  0  0  0
    1.5000    2.5981    0.0000 C   0  0  0  0  0  0  0  0  0  0  0  0
    0.8899    3.9684    0.0000 N   0  0  0  0  0  0  0  0  0  0  0  0
    2.0046    4.9721    0.0000 C   0  0  0  0  0  0  0  0  0  0  0  0
    1.8478    6.4639    0.0000 C   0  0  0  0  0  0  0  0  0  0  0  0
    3.0613    7.3456    0.0000 C   0  0  0  0  0  0  0  0  0  0  0  0
    2.9046    8.8373    0.0000 C   0  0  0  0  0  0  0  0  0  0  0  0
    1.5342    9.4474    0.0000 C   0  0  0  0  0  0  0  0  0  0  0  0
    0.3207    8.5658    0.0000 C   0  0  0  0  0  0  0  0  0  0  0  0
   -1.0496    9.1759    0.0000 C   0  0  0  0  0  0  0  0  0  0  0  0
    0.4775    7.0740    0.0000 C   0  0  0  0  0  0  0  0  0  0  0  0
    3.3037    4.2221    0.0000 N   0  0  0  0  0  0  0  0  0  0  0  0
    2.9918    2.7549    0.0000 O   0  0  0  0  0  0  0  0  0  0  0  0
  1  2  1  0
  2  3  1  0
  3  4  2  0
  4  5  1  0
  5  6  2  0
  6  7  1  0
  7  8  2  0
  8  9  1  0
  9 10  2  0
 10 11  1  0
 12 11  1  6
 12 13  1  0
 13 14  1  0
 14 15  1  0
 15 16  1  0
 16 17  1  1
 16 18  1  0
 11 19  2  0
 19 20  1  0
  8  3  1  0
 20  9  1  0
 18 12  1  0
M  END
>  <Compound_ID>  (817) 
C44978219

>  <Active>  (817) 
0.0

>  <Smiles>  (817) 
CNc1ccccc1-c1nc([C@H]2CCC[C@H](C)C2)no1

>  <canonical_smi>  (817) 
CNc1ccccc1-c1nc([C@H]2CCC[C@H](C)C2)no1

>  <Set>  (817) 
G2 inactive

>  <Set_type>  (817) 
Train

>  <MW>  (817) 
271.36

>  <HBD>  (817) 
1

>  <HBA>  (817) 
4

>  <NRB>  (817) 
3

>  <NR>  (817) 
3

>  <NAR>  (817) 
2

>  <PSA>  (817) 
50.95

>  <Standard Type>  (817) 
nan

>  <Standard Relation>  (817) 
nan

>  <Standard Units>  (817) 
nan

>  <Standard Value>  (817) 
nan

>  <Assay ChEMBL ID>  (817) 
nan

>  <Assay Description>  (817) 
nan

>  <BAO Label>  (817) 
nan

$$$$

     RDKit          2D

 22 24  0  0  0  0  0  0  0  0999 V2000
    4.5000   -5.1962    0.0000 C   0  0  0  0  0  0  0  0  0  0  0  0
    5.2500   -3.8971    0.0000 C   0  0  0  0  0  0  0  0  0  0  0  0
    6.7500   -3.8971    0.0000 O   0  0  0  0  0  0  0  0  0  0  0  0
    4.5000   -2.5981    0.0000 C   0  0  0  0  0  0  0  0  0  0  0  0
    5.2500   -1.2990    0.0000 C   0  0  0  0  0  0  0  0  0  0  0  0
    6.7500   -1.2990    0.0000 O   0  0  0  0  0  0  0  0  0  0  0  0
    4.5000   -0.0000    0.0000 C   0  0  0  0  0  0  0  0  0  0  0  0
    3.0000   -0.0000    0.0000 C   0  0  0  0  0  0  0  0  0  0  0  0
    2.2500   -1.2990    0.0000 C   0  0  0  0  0  0  0  0  0  0  0  0
    3.0000   -2.5981    0.0000 C   0  0  0  0  0  0  0  0  0  0  0  0
    2.2500   -3.8971    0.0000 O   0  0  0  0  0  0  0  0  0  0  0  0
    0.7500   -1.2990    0.0000 C   0  0  0  0  0  0  0  0  0  0  0  0
    1.5000    0.0000    0.0000 C   0  0  0  0  0  0  0  0  0  0  0  0
    0.7500    1.2990    0.0000 C   0  0  0  0  0  0  0  0  0  0  0  0
    1.5000    2.5981    0.0000 C   0  0  0  0  0  0  0  0  0  0  0  0
   -0.7500    1.2990    0.0000 C   0  0  0  0  0  0  0  0  0  0  0  0
   -1.5000    0.0000    0.0000 C   0  0  0  0  0  0  0  0  0  0  0  0
   -0.7500   -1.2990    0.0000 C   0  0  0  0  0  0  0  0  0  0  0  0
   -1.5000   -2.5981    0.0000 C   0  0  0  0  0  0  0  0  0  0  0  0
   -3.0000   -2.5981    0.0000 C   0  0  0  0  0  0  0  0  0  0  0  0
   -0.7500   -3.8971    0.0000 C   0  0  0  0  0  0  0  0  0  0  0  0
    2.2500    1.2990    0.0000 O   0  0  0  0  0  0  0  0  0  0  0  0
  1  2  1  0
  2  3  2  0
  2  4  1  0
  4  5  2  0
  5  6  1  0
  5  7  1  0
  7  8  2  0
  8  9  1  0
  9 10  2  0
 10 11  1  0
  9 12  1  0
 12 13  1  0
 13 14  1  0
 14 15  1  1
 14 16  1  0
 16 17  1  0
 17 18  1  0
 18 19  2  0
 19 20  1  0
 19 21  1  0
 14 22  1  0
 10  4  1  0
 12 18  1  6
 22  8  1  0
M  END
>  <Compound_ID>  (818) 
C05440817

>  <Active>  (818) 
0.0

>  <Smiles>  (818) 
CC(=O)c1c(O)cc2c(c1O)[C@H]1C[C@](C)(CCC1=C(C)C)O2

>  <canonical_smi>  (818) 
CC(=O)c1c(O)cc2c(c1O)[C@H]1C[C@](C)(CCC1=C(C)C)O2

>  <Set>  (818) 
G2 inactive

>  <Set_type>  (818) 
Train

>  <MW>  (818) 
302.37

>  <HBD>  (818) 
2

>  <HBA>  (818) 
4

>  <NRB>  (818) 
1

>  <NR>  (818) 
3

>  <NAR>  (818) 
1

>  <PSA>  (818) 
66.76

>  <Standard Type>  (818) 
nan

>  <Standard Relation>  (818) 
nan

>  <Standard Units>  (818) 
nan

>  <Standard Value>  (818) 
nan

>  <Assay ChEMBL ID>  (818) 
nan

>  <Assay Description>  (818) 
nan

>  <BAO Label>  (818) 
nan

$$$$

     RDKit          2D

 26 29  0  0  0  0  0  0  0  0999 V2000
   -3.7063   -5.5824    0.0000 C   0  0  0  0  0  0  0  0  0  0  0  0
   -5.1329   -6.0459    0.0000 C   0  0  0  0  0  0  0  0  0  0  0  0
   -5.4448   -7.5132    0.0000 C   0  0  0  0  0  0  0  0  0  0  0  0
   -6.8714   -7.9767    0.0000 C   0  0  0  0  0  0  0  0  0  0  0  0
   -7.9861   -6.9730    0.0000 C   0  0  0  0  0  0  0  0  0  0  0  0
   -7.6742   -5.5058    0.0000 C   0  0  0  0  0  0  0  0  0  0  0  0
   -6.2476   -5.0422    0.0000 C   0  0  0  0  0  0  0  0  0  0  0  0
   -5.9358   -3.5750    0.0000 N   0  0  0  0  0  0  0  0  0  0  0  0
   -4.5092   -3.1115    0.0000 C   0  0  0  0  0  0  0  0  0  0  0  0
   -4.1973   -1.6443    0.0000 N   0  0  0  0  0  0  0  0  0  0  0  0
   -5.3120   -0.6406    0.0000 C   0  0  0  0  0  0  0  0  0  0  0  0
   -5.0002    0.8266    0.0000 N   0  0  0  0  0  0  0  0  0  0  0  0
   -3.5736    1.2902    0.0000 S   0  0  0  0  0  0  0  0  0  0  0  0
   -4.0371    2.7168    0.0000 O   0  0  0  0  0  0  0  0  0  0  0  0
   -3.1101   -0.1364    0.0000 O   0  0  0  0  0  0  0  0  0  0  0  0
   -2.1470    1.7537    0.0000 C   0  0  0  0  0  0  0  0  0  0  0  0
   -1.8351    3.2209    0.0000 C   0  0  0  0  0  0  0  0  0  0  0  0
   -0.4086    3.6844    0.0000 C   0  0  0  0  0  0  0  0  0  0  0  0
    0.7062    2.6807    0.0000 C   0  0  0  0  0  0  0  0  0  0  0  0
    0.3943    1.2135    0.0000 C   0  0  0  0  0  0  0  0  0  0  0  0
    1.2760    0.0000    0.0000 N   0  0  0  0  0  0  0  0  0  0  0  0
    0.3943   -1.2135    0.0000 S   0  0  0  0  0  0  0  0  0  0  0  0
   -1.0323   -0.7500    0.0000 N   0  0  0  0  0  0  0  0  0  0  0  0
   -1.0323    0.7500    0.0000 C   0  0  0  0  0  0  0  0  0  0  0  0
   -6.7386   -1.1041    0.0000 N   0  0  0  0  0  0  0  0  0  0  0  0
   -7.0505   -2.5713    0.0000 C   0  0  0  0  0  0  0  0  0  0  0  0
  2  1  1  1
  2  3  1  0
  3  4  1  0
  4  5  1  0
  5  6  1  0
  6  7  1  0
  7  8  1  1
  8  9  1  0
  9 10  1  0
 10 11  1  0
 11 12  2  0
 12 13  1  0
 13 14  2  0
 13 15  2  0
 13 16  1  0
 16 17  2  0
 17 18  1  0
 18 19  2  0
 19 20  1  0
 20 21  2  0
 21 22  1  0
 22 23  1  0
 23 24  2  0
 11 25  1  0
 25 26  1  0
  7  2  1  0
 26  8  1  0
 24 16  1  0
 24 20  1  0
M  END
>  <Compound_ID>  (819) 
C40387420

>  <Active>  (819) 
0.0

>  <Smiles>  (819) 
C[C@H]1CCCC[C@H]1N1CNC(=NS(=O)(=O)c2cccc3nsnc23)NC1

>  <canonical_smi>  (819) 
C[C@H]1CCCC[C@H]1N1CNC(=NS(=O)(=O)c2cccc3nsnc23)NC1

>  <Set>  (819) 
G2 inactive

>  <Set_type>  (819) 
Train

>  <MW>  (819) 
394.53

>  <HBD>  (819) 
2

>  <HBA>  (819) 
7

>  <NRB>  (819) 
3

>  <NR>  (819) 
4

>  <NAR>  (819) 
2

>  <PSA>  (819) 
99.58

>  <Standard Type>  (819) 
nan

>  <Standard Relation>  (819) 
nan

>  <Standard Units>  (819) 
nan

>  <Standard Value>  (819) 
nan

>  <Assay ChEMBL ID>  (819) 
nan

>  <Assay Description>  (819) 
nan

>  <BAO Label>  (819) 
nan

$$$$

     RDKit          2D

 34 37  0  0  0  0  0  0  0  0999 V2000
    4.6904   -6.5871    0.0000 C   0  0  0  0  0  0  0  0  0  0  0  0
    4.3786   -5.1199    0.0000 C   0  0  0  0  0  0  0  0  0  0  0  0
    2.9520   -4.6564    0.0000 O   0  0  0  0  0  0  0  0  0  0  0  0
    2.6401   -3.1891    0.0000 C   0  0  0  0  0  0  0  0  0  0  0  0
    3.7548   -2.1855    0.0000 O   0  0  0  0  0  0  0  0  0  0  0  0
    1.2135   -2.7256    0.0000 C   0  0  0  0  0  0  0  0  0  0  0  0
   -0.0000   -3.6073    0.0000 C   0  0  0  0  0  0  0  0  0  0  0  0
   -0.0000   -5.1073    0.0000 N   0  0  0  0  0  0  0  0  0  0  0  0
   -1.2990   -5.8573    0.0000 C   0  0  0  0  0  0  0  0  0  0  0  0
   -2.5981   -5.1073    0.0000 O   0  0  0  0  0  0  0  0  0  0  0  0
   -1.2990   -7.3573    0.0000 C   0  0  0  0  0  0  0  0  0  0  0  0
   -2.5981   -8.1073    0.0000 S   0  0  0  0  0  0  0  0  0  0  0  0
   -2.5981   -9.6073    0.0000 C   0  0  0  0  0  0  0  0  0  0  0  0
   -1.3846  -10.4890    0.0000 N   0  0  0  0  0  0  0  0  0  0  0  0
   -1.8481  -11.9156    0.0000 N   0  0  0  0  0  0  0  0  0  0  0  0
   -3.3481  -11.9156    0.0000 C   0  0  0  0  0  0  0  0  0  0  0  0
   -4.2298  -13.1291    0.0000 C   0  0  0  0  0  0  0  0  0  0  0  0
   -5.7215  -12.9723    0.0000 C   0  0  0  0  0  0  0  0  0  0  0  0
   -6.6032  -14.1858    0.0000 C   0  0  0  0  0  0  0  0  0  0  0  0
   -5.9931  -15.5561    0.0000 C   0  0  0  0  0  0  0  0  0  0  0  0
   -4.5013  -15.7129    0.0000 C   0  0  0  0  0  0  0  0  0  0  0  0
   -3.8912  -17.0833    0.0000 N   0  0  0  0  0  4  0  0  0  0  0  0
   -2.3994  -17.2400    0.0000 O   0  0  0  0  0  0  0  0  0  0  0  0
   -4.7729  -18.2968    0.0000 O   0  0  0  0  0  1  0  0  0  0  0  0
   -3.6196  -14.4994    0.0000 C   0  0  0  0  0  0  0  0  0  0  0  0
   -3.8116  -10.4890    0.0000 N   0  0  0  0  0  0  0  0  0  0  0  0
   -5.2382  -10.0255    0.0000 N   0  0  0  0  0  0  0  0  0  0  0  0
   -1.2135   -2.7256    0.0000 S   0  0  0  0  0  0  0  0  0  0  0  0
   -0.7500   -1.2990    0.0000 C   0  0  0  0  0  0  0  0  0  0  0  0
    0.7500   -1.2990    0.0000 C   0  0  0  0  0  0  0  0  0  0  0  0
    1.5000    0.0000    0.0000 C   0  0  0  0  0  0  0  0  0  0  0  0
    0.7500    1.2990    0.0000 C   0  0  0  0  0  0  0  0  0  0  0  0
   -0.7500    1.2990    0.0000 C   0  0  0  0  0  0  0  0  0  0  0  0
   -1.5000    0.0000    0.0000 C   0  0  0  0  0  0  0  0  0  0  0  0
  1  2  1  0
  2  3  1  0
  3  4  1  0
  4  5  2  0
  4  6  1  0
  6  7  2  0
  7  8  1  0
  8  9  1  0
  9 10  2  0
  9 11  1  0
 11 12  1  0
 12 13  1  0
 13 14  2  0
 14 15  1  0
 15 16  2  0
 16 17  1  0
 17 18  2  0
 18 19  1  0
 19 20  2  0
 20 21  1  0
 21 22  1  0
 22 23  2  0
 22 24  1  0
 21 25  2  0
 16 26  1  0
 26 27  1  0
  7 28  1  0
 28 29  1  0
 29 30  2  0
 30 31  1  0
 31 32  1  0
 32 33  1  0
 33 34  1  0
 30  6  1  0
 26 13  1  0
 34 29  1  0
 25 17  1  0
M  CHG  2  22   1  24  -1
M  END
>  <Compound_ID>  (820) 
C59046154

>  <Active>  (820) 
0.0

>  <Smiles>  (820) 
CCOC(=O)c1c(NC(=O)CSc2nnc(-c3cccc([N+](=O)[O-])c3)n2N)sc2c1CCCC2

>  <canonical_smi>  (820) 
CCOC(=O)c1c(NC(=O)CSc2nnc(-c3cccc([N+](=O)[O-])c3)n2N)sc2c1CCCC2

>  <Set>  (820) 
G2 inactive

>  <Set_type>  (820) 
Train

>  <MW>  (820) 
502.58

>  <HBD>  (820) 
2

>  <HBA>  (820) 
9

>  <NRB>  (820) 
8

>  <NR>  (820) 
4

>  <NAR>  (820) 
3

>  <PSA>  (820) 
155.27

>  <Standard Type>  (820) 
nan

>  <Standard Relation>  (820) 
nan

>  <Standard Units>  (820) 
nan

>  <Standard Value>  (820) 
nan

>  <Assay ChEMBL ID>  (820) 
nan

>  <Assay Description>  (820) 
nan

>  <BAO Label>  (820) 
nan

$$$$

     RDKit          2D

 35 39  0  0  0  0  0  0  0  0999 V2000
    9.1740  -10.0283    0.0000 C   0  0  0  0  0  0  0  0  0  0  0  0
    7.8037   -9.4182    0.0000 C   0  0  0  0  0  0  0  0  0  0  0  0
    7.4918   -7.9510    0.0000 C   0  0  0  0  0  0  0  0  0  0  0  0
    6.0000   -7.7942    0.0000 C   0  0  0  0  0  0  0  0  0  0  0  0
    5.2500   -6.4952    0.0000 N   0  0  0  0  0  0  0  0  0  0  0  0
    3.7500   -6.4952    0.0000 C   0  0  0  0  0  0  0  0  0  0  0  0
    3.0000   -7.7942    0.0000 O   0  0  0  0  0  0  0  0  0  0  0  0
    3.0000   -5.1962    0.0000 C   0  0  0  0  0  0  0  0  0  0  0  0
    1.5000   -5.1962    0.0000 S   0  0  0  0  0  0  0  0  0  0  0  0
    0.7500   -3.8971    0.0000 C   0  0  0  0  0  0  0  0  0  0  0  0
    1.5000   -2.5981    0.0000 N   0  0  0  0  0  0  0  0  0  0  0  0
    0.7500   -1.2990    0.0000 C   0  0  0  0  0  0  0  0  0  0  0  0
    1.5000    0.0000    0.0000 C   0  0  0  0  0  0  0  0  0  0  0  0
    0.7500    1.2990    0.0000 C   0  0  0  0  0  0  0  0  0  0  0  0
   -0.7500    1.2990    0.0000 C   0  0  0  0  0  0  0  0  0  0  0  0
   -1.5000    0.0000    0.0000 C   0  0  0  0  0  0  0  0  0  0  0  0
   -0.7500   -1.2990    0.0000 C   0  0  0  0  0  0  0  0  0  0  0  0
   -1.5000   -2.5981    0.0000 C   0  0  0  0  0  0  0  0  0  0  0  0
   -2.9672   -2.9099    0.0000 N   0  0  0  0  0  0  0  0  0  0  0  0
   -3.1240   -4.4017    0.0000 C   0  0  0  0  0  0  0  0  0  0  0  0
   -4.4231   -5.1517    0.0000 C   0  0  0  0  0  0  0  0  0  0  0  0
   -5.7221   -4.4017    0.0000 C   0  0  0  0  0  0  0  0  0  0  0  0
   -5.7221   -2.9017    0.0000 O   0  0  0  0  0  0  0  0  0  0  0  0
   -7.0211   -5.1517    0.0000 N   0  0  0  0  0  0  0  0  0  0  0  0
   -8.3202   -4.4017    0.0000 C   0  0  0  0  0  0  0  0  0  0  0  0
   -9.6192   -5.1517    0.0000 C   0  0  0  0  0  0  0  0  0  0  0  0
   -9.7760   -6.6435    0.0000 C   0  0  0  0  0  0  0  0  0  0  0  0
  -11.2432   -6.9554    0.0000 C   0  0  0  0  0  0  0  0  0  0  0  0
  -11.9932   -5.6563    0.0000 C   0  0  0  0  0  0  0  0  0  0  0  0
  -10.9895   -4.5416    0.0000 S   0  0  0  0  0  0  0  0  0  0  0  0
   -1.7537   -5.0118    0.0000 C   0  0  0  0  0  0  0  0  0  0  0  0
   -1.4418   -6.4791    0.0000 O   0  0  0  0  0  0  0  0  0  0  0  0
   -0.7500   -3.8971    0.0000 N   0  0  0  0  0  0  0  0  0  0  0  0
    5.3899   -9.1645    0.0000 N   0  0  0  0  0  0  0  0  0  0  0  0
    6.5046  -10.1682    0.0000 N   0  0  0  0  0  0  0  0  0  0  0  0
  1  2  1  0
  2  3  2  0
  3  4  1  0
  4  5  1  6
  5  6  1  0
  6  7  2  0
  6  8  1  0
  8  9  1  0
  9 10  1  0
 10 11  2  0
 11 12  1  0
 12 13  2  0
 13 14  1  0
 14 15  2  0
 15 16  1  0
 16 17  2  0
 17 18  1  0
 18 19  2  0
 19 20  1  0
 20 21  1  1
 21 22  1  0
 22 23  2  0
 22 24  1  0
 24 25  1  0
 25 26  1  0
 26 27  2  0
 27 28  1  0
 28 29  2  0
 29 30  1  0
 20 31  1  0
 31 32  2  0
 31 33  1  0
  4 34  1  0
 34 35  2  0
 35  2  1  0
 33 10  1  0
 17 12  1  0
 33 18  1  0
 30 26  1  0
M  END
>  <Compound_ID>  (821) 
C39556152

>  <Active>  (821) 
0.0

>  <Smiles>  (821) 
CC1=C[C@@H](NC(=O)CSC2=Nc3ccccc3C3=N[C@H](CC(=O)NCc4cccs4)C(=O)N23)N=N1

>  <canonical_smi>  (821) 
CC1=C[C@@H](NC(=O)CSC2=Nc3ccccc3C3=N[C@H](CC(=O)NCc4cccs4)C(=O)N23)N=N1

>  <Set>  (821) 
G2 inactive

>  <Set_type>  (821) 
Train

>  <MW>  (821) 
507.6

>  <HBD>  (821) 
2

>  <HBA>  (821) 
4

>  <NRB>  (821) 
7

>  <NR>  (821) 
5

>  <NAR>  (821) 
2

>  <PSA>  (821) 
127.95

>  <Standard Type>  (821) 
nan

>  <Standard Relation>  (821) 
nan

>  <Standard Units>  (821) 
nan

>  <Standard Value>  (821) 
nan

>  <Assay ChEMBL ID>  (821) 
nan

>  <Assay Description>  (821) 
nan

>  <BAO Label>  (821) 
nan

$$$$

     RDKit          2D

 33 35  0  0  0  0  0  0  0  0999 V2000
    3.7500   -1.2990    0.0000 C   0  0  0  0  0  0  0  0  0  0  0  0
    3.0000    0.0000    0.0000 O   0  0  0  0  0  0  0  0  0  0  0  0
    1.5000    0.0000    0.0000 C   0  0  0  0  0  0  0  0  0  0  0  0
    0.7500   -1.2990    0.0000 C   0  0  0  0  0  0  0  0  0  0  0  0
   -0.7500   -1.2990    0.0000 C   0  0  0  0  0  0  0  0  0  0  0  0
   -1.5000    0.0000    0.0000 C   0  0  0  0  0  0  0  0  0  0  0  0
   -3.0000    0.0000    0.0000 S   0  0  0  0  0  0  0  0  0  0  0  0
   -3.0000    1.5000    0.0000 O   0  0  0  0  0  0  0  0  0  0  0  0
   -3.0000   -1.5000    0.0000 O   0  0  0  0  0  0  0  0  0  0  0  0
   -4.5000    0.0000    0.0000 N   0  0  0  0  0  0  0  0  0  0  0  0
   -5.2500    1.2990    0.0000 C   0  0  0  0  0  0  0  0  0  0  0  0
   -6.7500    1.2990    0.0000 C   0  0  0  0  0  0  0  0  0  0  0  0
   -7.5000    0.0000    0.0000 C   0  0  0  0  0  0  0  0  0  0  0  0
   -6.7500   -1.2990    0.0000 O   0  0  0  0  0  0  0  0  0  0  0  0
   -5.2500   -1.2990    0.0000 C   0  0  0  0  0  0  0  0  0  0  0  0
   -4.5000   -2.5981    0.0000 C   0  0  0  0  0  0  0  0  0  0  0  0
   -5.2500   -3.8971    0.0000 N   0  0  0  0  0  0  0  0  0  0  0  0
   -4.5000   -5.1962    0.0000 C   0  0  0  0  0  0  0  0  0  0  0  0
   -3.0000   -5.1962    0.0000 O   0  0  0  0  0  0  0  0  0  0  0  0
   -5.2500   -6.4952    0.0000 C   0  0  0  0  0  0  0  0  0  0  0  0
   -6.7500   -6.4952    0.0000 O   0  0  0  0  0  0  0  0  0  0  0  0
   -4.5000   -7.7942    0.0000 N   0  0  0  0  0  0  0  0  0  0  0  0
   -5.2500   -9.0933    0.0000 C   0  0  0  0  0  0  0  0  0  0  0  0
   -4.5000  -10.3923    0.0000 C   0  0  0  0  0  0  0  0  0  0  0  0
   -5.2500  -11.6913    0.0000 C   0  0  0  0  0  0  0  0  0  0  0  0
   -6.7500  -11.6913    0.0000 C   0  0  0  0  0  0  0  0  0  0  0  0
   -7.5000  -12.9904    0.0000 C   0  0  0  0  0  0  0  0  0  0  0  0
   -6.7500  -14.2894    0.0000 C   0  0  0  0  0  0  0  0  0  0  0  0
   -7.5000  -15.5885    0.0000 Cl  0  0  0  0  0  0  0  0  0  0  0  0
   -5.2500  -14.2894    0.0000 C   0  0  0  0  0  0  0  0  0  0  0  0
   -4.5000  -12.9904    0.0000 C   0  0  0  0  0  0  0  0  0  0  0  0
   -0.7500    1.2990    0.0000 C   0  0  0  0  0  0  0  0  0  0  0  0
    0.7500    1.2990    0.0000 C   0  0  0  0  0  0  0  0  0  0  0  0
  1  2  1  0
  2  3  1  0
  3  4  2  0
  4  5  1  0
  5  6  2  0
  6  7  1  0
  7  8  2  0
  7  9  2  0
  7 10  1  0
 10 11  1  0
 11 12  1  0
 12 13  1  0
 13 14  1  0
 14 15  1  0
 15 16  1  6
 16 17  1  0
 17 18  1  0
 18 19  2  0
 18 20  1  0
 20 21  2  0
 20 22  1  0
 22 23  1  0
 23 24  1  0
 24 25  1  0
 25 26  2  0
 26 27  1  0
 27 28  2  0
 28 29  1  0
 28 30  1  0
 30 31  2  0
  6 32  1  0
 32 33  2  0
 33  3  1  0
 15 10  1  0
 31 25  1  0
M  END
>  <Compound_ID>  (822) 
C09576462

>  <Active>  (822) 
0.0

>  <Smiles>  (822) 
COc1ccc(S(=O)(=O)N2CCCO[C@H]2CNC(=O)C(=O)NCCc2ccc(Cl)cc2)cc1

>  <canonical_smi>  (822) 
COc1ccc(S(=O)(=O)N2CCCO[C@H]2CNC(=O)C(=O)NCCc2ccc(Cl)cc2)cc1

>  <Set>  (822) 
G2 inactive

>  <Set_type>  (822) 
Train

>  <MW>  (822) 
495.99

>  <HBD>  (822) 
2

>  <HBA>  (822) 
6

>  <NRB>  (822) 
8

>  <NR>  (822) 
3

>  <NAR>  (822) 
2

>  <PSA>  (822) 
114.04

>  <Standard Type>  (822) 
nan

>  <Standard Relation>  (822) 
nan

>  <Standard Units>  (822) 
nan

>  <Standard Value>  (822) 
nan

>  <Assay ChEMBL ID>  (822) 
nan

>  <Assay Description>  (822) 
nan

>  <BAO Label>  (822) 
nan

$$$$

     RDKit          2D

 34 36  0  0  0  0  0  0  0  0999 V2000
   11.3941    8.8833    0.0000 C   0  0  0  0  0  0  0  0  0  0  0  0
   10.3255    9.9360    0.0000 O   0  0  0  0  0  0  0  0  0  0  0  0
   10.7029   11.3877    0.0000 C   0  0  0  0  0  0  0  0  0  0  0  0
   12.1488   11.7868    0.0000 O   0  0  0  0  0  0  0  0  0  0  0  0
    9.6343   12.4404    0.0000 C   0  0  0  0  0  0  0  0  0  0  0  0
    9.8579   13.9236    0.0000 C   0  0  0  0  0  0  0  0  0  0  0  0
   11.1892   14.6146    0.0000 C   0  0  0  0  0  0  0  0  0  0  0  0
    8.5163   14.5946    0.0000 N   0  0  0  0  0  0  0  0  0  0  0  0
    7.4636   13.5261    0.0000 C   0  0  0  0  0  0  0  0  0  0  0  0
    5.9804   13.7496    0.0000 C   0  0  0  0  0  0  0  0  0  0  0  0
    5.4323   15.1459    0.0000 O   0  0  0  0  0  0  0  0  0  0  0  0
    5.0451   12.5769    0.0000 N   0  0  0  0  0  0  0  0  0  0  0  0
    3.5619   12.8004    0.0000 C   0  0  0  0  0  0  0  0  0  0  0  0
    2.6266   11.6277    0.0000 C   0  0  0  0  0  0  0  0  0  0  0  0
    3.1747   10.2314    0.0000 C   0  0  0  0  0  0  0  0  0  0  0  0
    2.2394    9.0586    0.0000 C   0  0  0  0  0  0  0  0  0  0  0  0
    2.7874    7.6623    0.0000 C   0  0  0  0  0  0  0  0  0  0  0  0
    4.2707    7.4388    0.0000 O   0  0  0  0  0  0  0  0  0  0  0  0
    1.8522    6.4896    0.0000 N   0  0  0  0  0  0  0  0  0  0  0  0
    2.4002    5.0933    0.0000 C   0  0  0  0  0  0  0  0  0  0  0  0
    1.4650    3.9205    0.0000 C   0  0  0  0  0  0  0  0  0  0  0  0
    2.0130    2.5242    0.0000 C   0  0  0  0  0  0  0  0  0  0  0  0
    3.4962    2.3006    0.0000 C   0  0  0  0  0  0  0  0  0  0  0  0
    1.0777    1.3515    0.0000 N   0  0  0  0  0  4  0  0  0  0  0  0
    1.7286    0.0000    0.0000 C   0  0  0  0  0  0  0  0  0  0  0  0
    1.0777   -1.3515    0.0000 C   0  0  0  0  0  0  0  0  0  0  0  0
   -0.3846   -1.6852    0.0000 C   0  0  0  0  0  0  0  0  0  0  0  0
   -1.5574   -0.7500    0.0000 C   0  0  0  0  0  0  0  0  0  0  0  0
   -1.5574    0.7500    0.0000 C   0  0  0  0  0  0  0  0  0  0  0  0
   -0.3846    1.6852    0.0000 C   0  0  0  0  0  0  0  0  0  0  0  0
    4.6579   10.0078    0.0000 C   0  0  0  0  0  0  0  0  0  0  0  0
    5.5931   11.1806    0.0000 C   0  0  0  0  0  0  0  0  0  0  0  0
    8.1546   12.1947    0.0000 C   0  0  0  0  0  0  0  0  0  0  0  0
    7.4836   10.8531    0.0000 C   0  0  0  0  0  0  0  0  0  0  0  0
  1  2  1  0
  2  3  1  0
  3  4  2  0
  3  5  1  0
  5  6  2  0
  6  7  1  0
  6  8  1  0
  8  9  2  0
  9 10  1  0
 10 11  2  0
 10 12  1  0
 12 13  1  0
 13 14  1  0
 14 15  1  0
 15 16  1  0
 16 17  1  0
 17 18  2  0
 17 19  1  0
 19 20  1  0
 20 21  1  0
 21 22  1  0
 22 23  1  6
 22 24  1  0
 24 25  1  0
 25 26  1  0
 26 27  1  0
 27 28  1  0
 28 29  1  0
 29 30  1  0
 15 31  1  0
 31 32  1  0
  9 33  1  0
 33 34  1  6
 33  5  1  0
 32 12  1  0
 30 24  1  0
M  CHG  1  24   1
M  END
>  <Compound_ID>  (823) 
C64714628

>  <Active>  (823) 
0.0

>  <Smiles>  (823) 
COC(=O)C1=C(C)N=C(C(=O)N2CCC(CC(=O)NCC[C@H](C)[NH+]3CCCCCC3)CC2)[C@H]1C

>  <canonical_smi>  (823) 
COC(=O)C1=C(C)N=C(C(=O)N2CCC(CC(=O)NCC[C@H](C)[NH+]3CCCCCC3)CC2)[C@H]1C

>  <Set>  (823) 
G2 inactive

>  <Set_type>  (823) 
Train

>  <MW>  (823) 
475.65

>  <HBD>  (823) 
2

>  <HBA>  (823) 
4

>  <NRB>  (823) 
8

>  <NR>  (823) 
3

>  <NAR>  (823) 
0

>  <PSA>  (823) 
92.51

>  <Standard Type>  (823) 
nan

>  <Standard Relation>  (823) 
nan

>  <Standard Units>  (823) 
nan

>  <Standard Value>  (823) 
nan

>  <Assay ChEMBL ID>  (823) 
nan

>  <Assay Description>  (823) 
nan

>  <BAO Label>  (823) 
nan

$$$$

     RDKit          2D

 34 37  0  0  0  0  0  0  0  0999 V2000
    8.2500   -3.8971    0.0000 C   0  0  0  0  0  0  0  0  0  0  0  0
    7.5000   -2.5981    0.0000 O   0  0  0  0  0  0  0  0  0  0  0  0
    6.0000   -2.5981    0.0000 C   0  0  0  0  0  0  0  0  0  0  0  0
    5.2500   -1.2990    0.0000 C   0  0  0  0  0  0  0  0  0  0  0  0
    3.7500   -1.2990    0.0000 N   0  0  0  0  0  4  0  0  0  0  0  0
    3.0000   -2.5981    0.0000 C   0  0  0  0  0  0  0  0  0  0  0  0
    3.7500   -3.8971    0.0000 C   0  0  0  0  0  0  0  0  0  0  0  0
    3.0000   -5.1962    0.0000 O   0  0  0  0  0  0  0  0  0  0  0  0
    3.7500   -6.4952    0.0000 C   0  0  0  0  0  0  0  0  0  0  0  0
    3.0000    0.0000    0.0000 C   0  0  0  0  0  0  0  0  0  0  0  0
    1.5000    0.0000    0.0000 C   0  0  0  0  0  0  0  0  0  0  0  0
    0.7500   -1.2990    0.0000 C   0  0  0  0  0  0  0  0  0  0  0  0
    1.5000   -2.5981    0.0000 O   0  0  0  0  0  0  0  0  0  0  0  0
   -0.7500   -1.2990    0.0000 C   0  0  0  0  0  0  0  0  0  0  0  0
   -1.5000    0.0000    0.0000 C   0  0  0  0  0  0  0  0  0  0  0  0
   -0.7500    1.2990    0.0000 C   0  0  0  0  0  0  0  0  0  0  0  0
   -1.5000    2.5981    0.0000 C   0  0  0  0  0  0  0  0  0  0  0  0
   -3.0000    2.5981    0.0000 C   0  0  0  0  0  0  0  0  0  0  0  0
   -3.7500    3.8971    0.0000 C   0  0  0  0  0  0  0  0  0  0  0  0
   -5.2500    3.8971    0.0000 C   0  0  0  0  0  0  0  0  0  0  0  0
   -6.0000    5.1962    0.0000 C   0  0  0  0  0  0  0  0  0  0  0  0
   -7.5000    5.1962    0.0000 C   0  0  0  0  0  0  0  0  0  0  0  0
   -8.2500    6.4952    0.0000 Cl  0  0  0  0  0  0  0  0  0  0  0  0
   -8.2500    3.8971    0.0000 C   0  0  0  0  0  0  0  0  0  0  0  0
   -7.5000    2.5981    0.0000 C   0  0  0  0  0  0  0  0  0  0  0  0
   -6.0000    2.5981    0.0000 C   0  0  0  0  0  0  0  0  0  0  0  0
   -5.2500    1.2990    0.0000 O   0  0  0  0  0  0  0  0  0  0  0  0
   -3.7500    1.2990    0.0000 C   0  0  0  0  0  0  0  0  0  0  0  0
   -3.0000    0.0000    0.0000 O   0  0  0  0  0  0  0  0  0  0  0  0
   -0.7500    3.8971    0.0000 C   0  0  0  0  0  0  0  0  0  0  0  0
    0.7500    3.8971    0.0000 C   0  0  0  0  0  0  0  0  0  0  0  0
    1.5000    5.1962    0.0000 O   0  0  0  0  0  0  0  0  0  0  0  0
    1.5000    2.5981    0.0000 O   0  0  0  0  0  0  0  0  0  0  0  0
    0.7500    1.2990    0.0000 C   0  0  0  0  0  0  0  0  0  0  0  0
  1  2  1  0
  2  3  1  0
  3  4  1  0
  4  5  1  0
  5  6  1  0
  6  7  1  0
  7  8  1  0
  8  9  1  0
  5 10  1  0
 10 11  1  0
 11 12  2  0
 12 13  1  0
 12 14  1  0
 14 15  2  0
 15 16  1  0
 16 17  1  0
 17 18  1  0
 18 19  2  0
 19 20  1  0
 20 21  2  0
 21 22  1  0
 22 23  1  0
 22 24  2  0
 24 25  1  0
 25 26  2  0
 26 27  1  0
 27 28  1  0
 28 29  2  0
 17 30  2  0
 30 31  1  0
 31 32  2  0
 31 33  1  0
 33 34  1  0
 34 11  1  0
 34 16  2  0
 28 18  1  0
 26 20  1  0
M  CHG  1   5   1
M  END
>  <Compound_ID>  (824) 
C02135916

>  <Active>  (824) 
0.0

>  <Smiles>  (824) 
COCC[NH+](CCOC)Cc1c(O)ccc2c(-c3cc4cc(Cl)ccc4oc3=O)cc(=O)oc12

>  <canonical_smi>  (824) 
COCC[NH+](CCOC)Cc1c(O)ccc2c(-c3cc4cc(Cl)ccc4oc3=O)cc(=O)oc12

>  <Set>  (824) 
G2 inactive

>  <Set_type>  (824) 
Train

>  <MW>  (824) 
486.93

>  <HBD>  (824) 
2

>  <HBA>  (824) 
7

>  <NRB>  (824) 
9

>  <NR>  (824) 
4

>  <NAR>  (824) 
4

>  <PSA>  (824) 
103.55

>  <Standard Type>  (824) 
nan

>  <Standard Relation>  (824) 
nan

>  <Standard Units>  (824) 
nan

>  <Standard Value>  (824) 
nan

>  <Assay ChEMBL ID>  (824) 
nan

>  <Assay Description>  (824) 
nan

>  <BAO Label>  (824) 
nan

$$$$

     RDKit          2D

 23 26  0  0  0  0  0  0  0  0999 V2000
  -12.5120   -3.2658    0.0000 Cl  0  0  0  0  0  0  0  0  0  0  0  0
  -11.0854   -3.7293    0.0000 C   0  0  0  0  0  0  0  0  0  0  0  0
   -9.9707   -2.7256    0.0000 C   0  0  0  0  0  0  0  0  0  0  0  0
   -8.5441   -3.1891    0.0000 C   0  0  0  0  0  0  0  0  0  0  0  0
   -8.2322   -4.6564    0.0000 C   0  0  0  0  0  0  0  0  0  0  0  0
   -6.8056   -5.1199    0.0000 C   0  0  0  0  0  0  0  0  0  0  0  0
   -5.5921   -4.2382    0.0000 N   0  0  0  0  0  0  0  0  0  0  0  0
   -4.3786   -5.1199    0.0000 C   0  0  0  0  0  0  0  0  0  0  0  0
   -2.9520   -4.6564    0.0000 C   0  0  0  0  0  0  0  0  0  0  0  0
   -2.6401   -3.1891    0.0000 S   0  0  0  0  0  0  0  0  0  0  0  0
   -1.2135   -2.7256    0.0000 C   0  0  0  0  0  0  0  0  0  0  0  0
   -0.0000   -3.6073    0.0000 N   0  0  0  0  0  0  0  0  0  0  0  0
    1.2135   -2.7256    0.0000 N   0  0  0  0  0  0  0  0  0  0  0  0
    0.7500   -1.2990    0.0000 C   0  0  0  0  0  0  0  0  0  0  0  0
    1.5000    0.0000    0.0000 C   0  0  0  0  0  0  0  0  0  0  0  0
    0.7500    1.2990    0.0000 C   0  0  0  0  0  0  0  0  0  0  0  0
   -0.7500    1.2990    0.0000 C   0  0  0  0  0  0  0  0  0  0  0  0
   -1.5000    0.0000    0.0000 C   0  0  0  0  0  0  0  0  0  0  0  0
   -0.7500   -1.2990    0.0000 N   0  0  0  0  0  0  0  0  0  0  0  0
   -4.8421   -6.5465    0.0000 C   0  0  0  0  0  0  0  0  0  0  0  0
   -6.3421   -6.5465    0.0000 O   0  0  0  0  0  0  0  0  0  0  0  0
   -9.3469   -5.6601    0.0000 C   0  0  0  0  0  0  0  0  0  0  0  0
  -10.7735   -5.1965    0.0000 C   0  0  0  0  0  0  0  0  0  0  0  0
  1  2  1  0
  2  3  2  0
  3  4  1  0
  4  5  2  0
  5  6  1  0
  6  7  2  0
  7  8  1  0
  8  9  1  0
  9 10  1  0
 10 11  1  0
 11 12  2  0
 12 13  1  0
 13 14  2  0
 14 15  1  0
 15 16  2  0
 16 17  1  0
 17 18  2  0
 18 19  1  0
  8 20  2  0
 20 21  1  0
  5 22  1  0
 22 23  2  0
 23  2  1  0
 21  6  1  0
 19 11  1  0
 19 14  1  0
M  END
>  <Compound_ID>  (825) 
C32384635

>  <Active>  (825) 
0.0

>  <Smiles>  (825) 
Clc1ccc(-c2nc(CSc3nnc4ccccn34)co2)cc1

>  <canonical_smi>  (825) 
Clc1ccc(-c2nc(CSc3nnc4ccccn34)co2)cc1

>  <Set>  (825) 
G2 inactive

>  <Set_type>  (825) 
Train

>  <MW>  (825) 
342.81

>  <HBD>  (825) 
0

>  <HBA>  (825) 
5

>  <NRB>  (825) 
4

>  <NR>  (825) 
4

>  <NAR>  (825) 
4

>  <PSA>  (825) 
56.22

>  <Standard Type>  (825) 
nan

>  <Standard Relation>  (825) 
nan

>  <Standard Units>  (825) 
nan

>  <Standard Value>  (825) 
nan

>  <Assay ChEMBL ID>  (825) 
nan

>  <Assay Description>  (825) 
nan

>  <BAO Label>  (825) 
nan

$$$$

     RDKit          2D

 27 30  0  0  0  0  0  0  0  0999 V2000
    9.6404    4.3384    0.0000 C   0  0  0  0  0  0  0  0  0  0  0  0
    8.3090    3.6474    0.0000 C   0  0  0  0  0  0  0  0  0  0  0  0
    6.9674    4.3184    0.0000 C   0  0  0  0  0  0  0  0  0  0  0  0
    6.7217    5.7981    0.0000 C   0  0  0  0  0  0  0  0  0  0  0  0
    5.9147    3.2498    0.0000 C   0  0  0  0  0  0  0  0  0  0  0  0
    4.4315    3.4734    0.0000 C   0  0  0  0  0  0  0  0  0  0  0  0
    3.4962    2.3006    0.0000 C   0  0  0  0  0  0  0  0  0  0  0  0
    2.0130    2.5242    0.0000 C   0  0  0  0  0  0  0  0  0  0  0  0
    1.4650    3.9205    0.0000 O   0  0  0  0  0  0  0  0  0  0  0  0
    1.0777    1.3515    0.0000 N   0  0  0  0  0  0  0  0  0  0  0  0
    1.7286    0.0000    0.0000 C   0  0  0  0  0  0  0  0  0  0  0  0
    1.0777   -1.3515    0.0000 C   0  0  0  0  0  0  0  0  0  0  0  0
   -0.3846   -1.6852    0.0000 C   0  0  0  0  0  0  0  0  0  0  0  0
   -1.5574   -0.7500    0.0000 C   0  0  0  0  0  0  0  0  0  0  0  0
   -2.7967    0.0950    0.0000 C   0  0  0  0  0  0  0  0  0  0  0  0
   -4.1482   -0.5558    0.0000 C   0  0  0  0  0  0  0  0  0  0  0  0
   -4.2603   -2.0517    0.0000 C   0  0  0  0  0  0  0  0  0  0  0  0
   -5.6118   -2.7025    0.0000 C   0  0  0  0  0  0  0  0  0  0  0  0
   -5.7238   -4.1983    0.0000 C   0  0  0  0  0  0  0  0  0  0  0  0
   -4.4845   -5.0433    0.0000 C   0  0  0  0  0  0  0  0  0  0  0  0
   -3.1330   -4.3924    0.0000 C   0  0  0  0  0  0  0  0  0  0  0  0
   -3.0209   -2.8966    0.0000 C   0  0  0  0  0  0  0  0  0  0  0  0
   -1.6695   -2.2458    0.0000 O   0  0  0  0  0  0  0  0  0  0  0  0
   -1.5574    0.7500    0.0000 C   0  0  0  0  0  0  0  0  0  0  0  0
   -0.3846    1.6852    0.0000 C   0  0  0  0  0  0  0  0  0  0  0  0
    6.6057    1.9184    0.0000 N   0  0  0  0  0  0  0  0  0  0  0  0
    8.0854    2.1642    0.0000 N   0  0  0  0  0  0  0  0  0  0  0  0
  1  2  1  0
  2  3  2  0
  3  4  1  0
  3  5  1  0
  5  6  1  6
  6  7  1  0
  7  8  1  0
  8  9  2  0
  8 10  1  0
 10 11  1  0
 11 12  1  0
 12 13  1  0
 14 13  1  6
 14 15  1  0
 15 16  2  0
 16 17  1  0
 17 18  2  0
 18 19  1  0
 19 20  2  0
 20 21  1  0
 21 22  2  0
 22 23  1  0
 14 24  1  0
 24 25  1  0
  5 26  1  0
 26 27  2  0
 27  2  1  0
 25 10  1  0
 23 14  1  0
 22 17  1  0
M  END
>  <Compound_ID>  (826) 
C65370394

>  <Active>  (826) 
0.0

>  <Smiles>  (826) 
CC1=C(C)[C@@H](CCC(=O)N2CCC[C@]3(C=Cc4ccccc4O3)CC2)N=N1

>  <canonical_smi>  (826) 
CC1=C(C)[C@@H](CCC(=O)N2CCC[C@]3(C=Cc4ccccc4O3)CC2)N=N1

>  <Set>  (826) 
G2 inactive

>  <Set_type>  (826) 
Train

>  <MW>  (826) 
365.48

>  <HBD>  (826) 
0

>  <HBA>  (826) 
2

>  <NRB>  (826) 
3

>  <NR>  (826) 
4

>  <NAR>  (826) 
1

>  <PSA>  (826) 
54.26

>  <Standard Type>  (826) 
nan

>  <Standard Relation>  (826) 
nan

>  <Standard Units>  (826) 
nan

>  <Standard Value>  (826) 
nan

>  <Assay ChEMBL ID>  (826) 
nan

>  <Assay Description>  (826) 
nan

>  <BAO Label>  (826) 
nan

$$$$

     RDKit          2D

 37 36  0  0  0  0  0  0  0  0999 V2000
    0.0000    0.0000    0.0000 C   0  0  0  0  0  0  0  0  0  0  0  0
    1.2990    0.7500    0.0000 C   0  0  0  0  0  0  0  0  0  0  0  0
    2.5981   -0.0000    0.0000 C   0  0  0  0  0  0  0  0  0  0  0  0
    1.2990    2.2500    0.0000 C   0  0  0  0  0  0  0  0  0  0  0  0
   -0.0000    3.0000    0.0000 O   0  0  0  0  0  0  0  0  0  0  0  0
    2.5981    3.0000    0.0000 O   0  0  0  0  0  0  0  0  0  0  0  0
    2.5981    4.5000    0.0000 C   0  0  0  0  0  0  0  0  0  0  0  0
    3.8971    5.2500    0.0000 C   0  0  0  0  0  0  0  0  0  0  0  0
    4.6471    3.9510    0.0000 C   0  0  0  0  0  0  0  0  0  0  0  0
    3.1471    6.5490    0.0000 C   0  0  0  0  0  0  0  0  0  0  0  0
    5.1962    6.0000    0.0000 C   0  0  0  0  0  0  0  0  0  0  0  0
    5.1962    7.5000    0.0000 O   0  0  0  0  0  0  0  0  0  0  0  0
    6.4952    8.2500    0.0000 C   0  0  0  0  0  0  0  0  0  0  0  0
    7.7942    7.5000    0.0000 O   0  0  0  0  0  0  0  0  0  0  0  0
    6.4952    9.7500    0.0000 C   0  0  0  0  0  0  0  0  0  0  0  0
    7.7942   10.5000    0.0000 C   0  0  0  0  0  0  0  0  0  0  0  0
    7.7942   12.0000    0.0000 C   0  0  0  0  0  0  0  0  0  0  0  0
    9.0933   12.7500    0.0000 C   0  0  0  0  0  0  0  0  0  0  0  0
   10.3923   12.0000    0.0000 O   0  0  0  0  0  0  0  0  0  0  0  0
    9.0933   14.2500    0.0000 O   0  0  0  0  0  0  0  0  0  0  0  0
   10.3923   15.0000    0.0000 C   0  0  0  0  0  0  0  0  0  0  0  0
   10.3923   16.5000    0.0000 C   0  0  0  0  0  0  0  0  0  0  0  0
   11.6913   17.2500    0.0000 C   0  0  0  0  0  0  0  0  0  0  0  0
    9.0933   17.2500    0.0000 C   0  0  0  0  0  0  0  0  0  0  0  0
   11.6913   14.2500    0.0000 C   0  0  0  0  0  0  0  0  0  0  0  0
   12.4413   15.5490    0.0000 C   0  0  0  0  0  0  0  0  0  0  0  0
   10.9413   12.9510    0.0000 C   0  0  0  0  0  0  0  0  0  0  0  0
   12.9904   13.5000    0.0000 C   0  0  0  0  0  0  0  0  0  0  0  0
   12.9904   12.0000    0.0000 O   0  0  0  0  0  0  0  0  0  0  0  0
   14.2894   11.2500    0.0000 C   0  0  0  0  0  0  0  0  0  0  0  0
   15.5885   12.0000    0.0000 O   0  0  0  0  0  0  0  0  0  0  0  0
   14.2894    9.7500    0.0000 C   0  0  0  0  0  0  0  0  0  0  0  0
   15.5885    9.0000    0.0000 C   0  0  0  0  0  0  0  0  0  0  0  0
   12.9904    9.0000    0.0000 C   0  0  0  0  0  0  0  0  0  0  0  0
    6.4952    5.2500    0.0000 C   0  0  0  0  0  0  0  0  0  0  0  0
    7.7942    6.0000    0.0000 C   0  0  0  0  0  0  0  0  0  0  0  0
    6.4952    3.7500    0.0000 C   0  0  0  0  0  0  0  0  0  0  0  0
  1  2  1  0
  2  3  1  0
  2  4  1  0
  4  5  2  0
  4  6  1  0
  6  7  1  0
  7  8  1  0
  8  9  1  0
  8 10  1  0
  8 11  1  0
 11 12  1  1
 12 13  1  0
 13 14  2  0
 13 15  1  0
 15 16  1  0
 16 17  1  0
 17 18  1  0
 18 19  2  0
 18 20  1  0
 21 20  1  1
 21 22  1  0
 22 23  1  0
 22 24  1  0
 21 25  1  0
 25 26  1  0
 25 27  1  0
 25 28  1  0
 28 29  1  0
 29 30  1  0
 30 31  2  0
 30 32  1  0
 32 33  1  0
 32 34  1  0
 11 35  1  0
 35 36  1  0
 35 37  1  0
M  END
>  <Compound_ID>  (827) 
C31371317

>  <Active>  (827) 
0.0

>  <Smiles>  (827) 
CC(C)C(=O)OCC(C)(C)[C@@H](OC(=O)CCCC(=O)O[C@@H](C(C)C)C(C)(C)COC(=O)C(C)C)C(C)C

>  <canonical_smi>  (827) 
CC(C)C(=O)OCC(C)(C)[C@@H](OC(=O)CCCC(=O)O[C@@H](C(C)C)C(C)(C)COC(=O)C(C)C)C(C)C

>  <Set>  (827) 
G2 inactive

>  <Set_type>  (827) 
Train

>  <MW>  (827) 
528.73

>  <HBD>  (827) 
0

>  <HBA>  (827) 
8

>  <NRB>  (827) 
16

>  <NR>  (827) 
0

>  <NAR>  (827) 
0

>  <PSA>  (827) 
105.2

>  <Standard Type>  (827) 
nan

>  <Standard Relation>  (827) 
nan

>  <Standard Units>  (827) 
nan

>  <Standard Value>  (827) 
nan

>  <Assay ChEMBL ID>  (827) 
nan

>  <Assay Description>  (827) 
nan

>  <BAO Label>  (827) 
nan

$$$$

     RDKit          2D

 38 40  0  0  0  0  0  0  0  0999 V2000
   -6.2213   -4.9780    0.0000 C   0  0  0  0  0  0  0  0  0  0  0  0
   -5.0078   -5.8597    0.0000 C   0  0  0  0  0  0  0  0  0  0  0  0
   -3.6375   -5.2496    0.0000 C   0  0  0  0  0  0  0  0  0  0  0  0
   -2.4240   -6.1312    0.0000 C   0  0  0  0  0  0  0  0  0  0  0  0
   -1.0537   -5.5211    0.0000 N   0  0  0  0  0  0  0  0  0  0  0  0
    0.2454   -6.2711    0.0000 C   0  0  0  0  0  0  0  0  0  0  0  0
    0.4022   -7.7629    0.0000 O   0  0  0  0  0  0  0  0  0  0  0  0
    1.3601   -5.2674    0.0000 C   0  0  0  0  0  0  0  0  0  0  0  0
    2.8273   -5.5793    0.0000 O   0  0  0  0  0  1  0  0  0  0  0  0
    0.7500   -3.8971    0.0000 C   0  0  0  0  0  0  0  0  0  0  0  0
    1.5000   -2.5981    0.0000 C   0  0  0  0  0  0  0  0  0  0  0  0
    0.7500   -1.2990    0.0000 O   0  0  0  0  0  0  0  0  0  0  0  0
    3.0000   -2.5981    0.0000 C   0  0  0  0  0  0  0  0  0  0  0  0
    3.7500   -1.2990    0.0000 C   0  0  0  0  0  0  0  0  0  0  0  0
    5.2500   -1.2990    0.0000 C   0  0  0  0  0  0  0  0  0  0  0  0
    6.0000   -2.5981    0.0000 C   0  0  0  0  0  0  0  0  0  0  0  0
    5.2500   -3.8971    0.0000 C   0  0  0  0  0  0  0  0  0  0  0  0
    6.0000   -5.1962    0.0000 O   0  0  0  0  0  0  0  0  0  0  0  0
    7.5000   -5.1962    0.0000 C   0  0  0  0  0  0  0  0  0  0  0  0
    8.2500   -6.4952    0.0000 C   0  0  0  0  0  0  0  0  0  0  0  0
    9.7500   -6.4952    0.0000 C   0  0  0  0  0  0  0  0  0  0  0  0
    3.7500   -3.8971    0.0000 C   0  0  0  0  0  0  0  0  0  0  0  0
   -0.7418   -4.0539    0.0000 C   0  0  0  0  0  0  0  0  0  0  0  0
   -1.7455   -2.9392    0.0000 C   0  0  0  0  0  0  0  0  0  0  0  0
   -1.2820   -1.5126    0.0000 C   0  0  0  0  0  0  0  0  0  0  0  0
   -2.2856   -0.3979    0.0000 C   0  0  0  0  0  0  0  0  0  0  0  0
   -3.7529   -0.7098    0.0000 C   0  0  0  0  0  0  0  0  0  0  0  0
   -4.7566    0.4050    0.0000 O   0  0  0  0  0  0  0  0  0  0  0  0
   -6.2238    0.0931    0.0000 C   0  0  0  0  0  0  0  0  0  0  0  0
   -7.2275    1.2078    0.0000 C   0  0  0  0  0  0  0  0  0  0  0  0
   -8.6947    0.8959    0.0000 C   0  0  0  0  0  0  0  0  0  0  0  0
   -9.6984    2.0107    0.0000 C   0  0  0  0  0  0  0  0  0  0  0  0
   -9.1582   -0.5306    0.0000 C   0  0  0  0  0  0  0  0  0  0  0  0
   -4.2164   -2.1363    0.0000 C   0  0  0  0  0  0  0  0  0  0  0  0
   -5.6836   -2.4482    0.0000 O   0  0  0  0  0  0  0  0  0  0  0  0
   -6.1471   -3.8748    0.0000 C   0  0  0  0  0  0  0  0  0  0  0  0
   -7.6144   -4.1867    0.0000 C   0  0  0  0  0  0  0  0  0  0  0  0
   -3.2127   -3.2511    0.0000 C   0  0  0  0  0  0  0  0  0  0  0  0
  1  2  1  0
  2  3  1  0
  3  4  1  0
  4  5  1  0
  5  6  1  0
  6  7  2  0
  6  8  1  0
  8  9  1  0
  8 10  2  0
 10 11  1  0
 11 12  2  0
 11 13  1  0
 13 14  2  0
 14 15  1  0
 15 16  2  0
 16 17  1  0
 17 18  1  0
 18 19  1  0
 19 20  1  0
 20 21  1  0
 17 22  2  0
 10 23  1  0
 23 24  1  1
 24 25  2  0
 25 26  1  0
 26 27  2  0
 27 28  1  0
 28 29  1  0
 29 30  1  0
 30 31  1  0
 31 32  1  0
 31 33  1  0
 27 34  1  0
 34 35  1  0
 35 36  1  0
 36 37  1  0
 34 38  2  0
 23  5  1  0
 38 24  1  0
 22 13  1  0
M  CHG  1   9  -1
M  END
>  <Compound_ID>  (828) 
C40101543

>  <Active>  (828) 
0.0

>  <Smiles>  (828) 
CCCCN1C(=O)C([O-])=C(C(=O)c2cccc(OCCC)c2)[C@@H]1c1ccc(OCCC(C)C)c(OCC)c1

>  <canonical_smi>  (828) 
CCCCN1C(=O)C([O-])=C(C(=O)c2cccc(OCCC)c2)[C@@H]1c1ccc(OCCC(C)C)c(OCC)c1

>  <Set>  (828) 
G2 inactive

>  <Set_type>  (828) 
Train

>  <MW>  (828) 
522.66

>  <HBD>  (828) 
0

>  <HBA>  (828) 
6

>  <NRB>  (828) 
15

>  <NR>  (828) 
3

>  <NAR>  (828) 
2

>  <PSA>  (828) 
88.13

>  <Standard Type>  (828) 
nan

>  <Standard Relation>  (828) 
nan

>  <Standard Units>  (828) 
nan

>  <Standard Value>  (828) 
nan

>  <Assay ChEMBL ID>  (828) 
nan

>  <Assay Description>  (828) 
nan

>  <BAO Label>  (828) 
nan

$$$$

     RDKit          2D

 29 28  0  0  0  0  0  0  0  0999 V2000
    7.7942    4.5000    0.0000 C   0  0  0  0  0  0  0  0  0  0  0  0
    7.7942    3.0000    0.0000 C   0  0  0  0  0  0  0  0  0  0  0  0
    6.4952    2.2500    0.0000 C   0  0  0  0  0  0  0  0  0  0  0  0
    6.4952    0.7500    0.0000 C   0  0  0  0  0  0  0  0  0  0  0  0
    5.1962   -0.0000    0.0000 N   0  0  0  0  0  0  0  0  0  0  0  0
    3.8971    0.7500    0.0000 C   0  0  0  0  0  0  0  0  0  0  0  0
    2.5981   -0.0000    0.0000 C   0  0  0  0  0  0  0  0  0  0  0  0
    1.2990    0.7500    0.0000 C   0  0  0  0  0  0  0  0  0  0  0  0
    0.0000   -0.0000    0.0000 C   0  0  0  0  0  0  0  0  0  0  0  0
    5.1962   -1.5000    0.0000 P   0  0  0  0  0  0  0  0  0  0  0  0
    3.6962   -1.5000    0.0000 S   0  0  0  0  0  0  0  0  0  0  0  0
    5.1962   -3.0000    0.0000 N   0  0  0  0  0  0  0  0  0  0  0  0
    3.8971   -3.7500    0.0000 C   0  0  0  0  0  0  0  0  0  0  0  0
    3.8971   -5.2500    0.0000 C   0  0  0  0  0  0  0  0  0  0  0  0
    2.5981   -6.0000    0.0000 C   0  0  0  0  0  0  0  0  0  0  0  0
    2.5981   -7.5000    0.0000 C   0  0  0  0  0  0  0  0  0  0  0  0
    6.4952   -3.7500    0.0000 C   0  0  0  0  0  0  0  0  0  0  0  0
    6.4952   -5.2500    0.0000 C   0  0  0  0  0  0  0  0  0  0  0  0
    7.7942   -6.0000    0.0000 C   0  0  0  0  0  0  0  0  0  0  0  0
    7.7942   -7.5000    0.0000 C   0  0  0  0  0  0  0  0  0  0  0  0
    6.6962   -1.5000    0.0000 N   0  0  0  0  0  0  0  0  0  0  0  0
    7.4462   -2.7990    0.0000 C   0  0  0  0  0  0  0  0  0  0  0  0
    8.9462   -2.7990    0.0000 C   0  0  0  0  0  0  0  0  0  0  0  0
    9.6962   -4.0981    0.0000 C   0  0  0  0  0  0  0  0  0  0  0  0
   11.1962   -4.0981    0.0000 C   0  0  0  0  0  0  0  0  0  0  0  0
    7.4462   -0.2010    0.0000 C   0  0  0  0  0  0  0  0  0  0  0  0
    8.9462   -0.2010    0.0000 C   0  0  0  0  0  0  0  0  0  0  0  0
    9.6962    1.0981    0.0000 C   0  0  0  0  0  0  0  0  0  0  0  0
   11.1962    1.0981    0.0000 C   0  0  0  0  0  0  0  0  0  0  0  0
  1  2  1  0
  2  3  1  0
  3  4  1  0
  4  5  1  0
  5  6  1  0
  6  7  1  0
  7  8  1  0
  8  9  1  0
  5 10  1  0
 10 11  2  0
 10 12  1  0
 12 13  1  0
 13 14  1  0
 14 15  1  0
 15 16  1  0
 12 17  1  0
 17 18  1  0
 18 19  1  0
 19 20  1  0
 10 21  1  0
 21 22  1  0
 22 23  1  0
 23 24  1  0
 24 25  1  0
 21 26  1  0
 26 27  1  0
 27 28  1  0
 28 29  1  0
M  END
>  <Compound_ID>  (829) 
C05821192

>  <Active>  (829) 
0.0

>  <Smiles>  (829) 
CCCCN(CCCC)P(=S)(N(CCCC)CCCC)N(CCCC)CCCC

>  <canonical_smi>  (829) 
CCCCN(CCCC)P(=S)(N(CCCC)CCCC)N(CCCC)CCCC

>  <Set>  (829) 
G2 inactive

>  <Set_type>  (829) 
Train

>  <MW>  (829) 
447.76

>  <HBD>  (829) 
0

>  <HBA>  (829) 
4

>  <NRB>  (829) 
21

>  <NR>  (829) 
0

>  <NAR>  (829) 
0

>  <PSA>  (829) 
9.72

>  <Standard Type>  (829) 
nan

>  <Standard Relation>  (829) 
nan

>  <Standard Units>  (829) 
nan

>  <Standard Value>  (829) 
nan

>  <Assay ChEMBL ID>  (829) 
nan

>  <Assay Description>  (829) 
nan

>  <BAO Label>  (829) 
nan

$$$$

     RDKit          2D

 34 35  0  0  0  0  0  0  0  0999 V2000
  -14.8093  -16.7044    0.0000 C   0  0  0  0  0  0  0  0  0  0  0  0
  -15.9240  -15.7007    0.0000 C   0  0  0  0  0  0  0  0  0  0  0  0
  -15.6121  -14.2335    0.0000 C   0  0  0  0  0  0  0  0  0  0  0  0
  -16.7268  -13.2298    0.0000 C   0  0  0  0  0  0  0  0  0  0  0  0
  -16.4150  -11.7625    0.0000 C   0  0  0  0  0  0  0  0  0  0  0  0
  -17.5297  -10.7588    0.0000 C   0  0  0  0  0  0  0  0  0  0  0  0
  -17.2178   -9.2916    0.0000 C   0  0  0  0  0  0  0  0  0  0  0  0
  -15.7912   -8.8281    0.0000 C   0  0  0  0  0  0  0  0  0  0  0  0
  -15.4794   -7.3609    0.0000 C   0  0  0  0  0  0  0  0  0  0  0  0
  -14.0528   -6.8974    0.0000 C   0  0  0  0  0  0  0  0  0  0  0  0
  -12.9381   -7.9010    0.0000 C   0  0  0  0  0  0  0  0  0  0  0  0
  -13.2499   -9.3683    0.0000 C   0  0  0  0  0  0  0  0  0  0  0  0
  -12.1352  -10.3720    0.0000 C   0  0  0  0  0  0  0  0  0  0  0  0
  -10.7086   -9.9084    0.0000 C   0  0  0  0  0  0  0  0  0  0  0  0
   -9.5939  -10.9121    0.0000 C   0  0  0  0  0  0  0  0  0  0  0  0
   -8.1673  -10.4486    0.0000 C   0  0  0  0  0  0  0  0  0  0  0  0
   -7.8555   -8.9814    0.0000 C   0  0  0  0  0  0  0  0  0  0  0  0
   -6.4289   -8.5179    0.0000 C   0  0  0  0  0  0  0  0  0  0  0  0
   -6.1170   -7.0506    0.0000 C   0  0  0  0  0  0  0  0  0  0  0  0
   -4.6904   -6.5871    0.0000 C   0  0  0  0  0  0  0  0  0  0  0  0
   -4.3786   -5.1199    0.0000 N   0  0  0  0  0  4  0  0  0  0  0  0
   -2.9520   -4.6564    0.0000 C   0  0  0  0  0  0  0  0  0  0  0  0
   -2.6401   -3.1891    0.0000 C   0  0  0  0  0  0  0  0  0  0  0  0
   -1.2135   -2.7256    0.0000 C   0  0  0  0  0  0  0  0  0  0  0  0
   -0.0000   -3.6073    0.0000 C   0  0  0  0  0  0  0  0  0  0  0  0
    1.2135   -2.7256    0.0000 N   0  0  0  0  0  0  0  0  0  0  0  0
    0.7500   -1.2990    0.0000 C   0  0  0  0  0  0  0  0  0  0  0  0
    1.5000    0.0000    0.0000 C   0  0  0  0  0  0  0  0  0  0  0  0
    0.7500    1.2990    0.0000 C   0  0  0  0  0  0  0  0  0  0  0  0
   -0.7500    1.2990    0.0000 C   0  0  0  0  0  0  0  0  0  0  0  0
   -1.5000    2.5981    0.0000 O   0  0  0  0  0  0  0  0  0  0  0  0
   -0.7500    3.8971    0.0000 C   0  0  0  0  0  0  0  0  0  0  0  0
   -1.5000    0.0000    0.0000 C   0  0  0  0  0  0  0  0  0  0  0  0
   -0.7500   -1.2990    0.0000 C   0  0  0  0  0  0  0  0  0  0  0  0
  1  2  1  0
  2  3  1  0
  3  4  1  0
  4  5  1  0
  5  6  1  0
  6  7  2  0
  7  8  1  0
  8  9  1  0
  9 10  2  0
 10 11  1  0
 11 12  1  0
 12 13  2  0
 13 14  1  0
 14 15  1  0
 15 16  2  0
 16 17  1  0
 17 18  1  0
 18 19  1  0
 19 20  1  0
 20 21  1  0
 21 22  1  0
 22 23  1  0
 24 23  1  6
 24 25  1  0
 25 26  2  0
 26 27  1  0
 27 28  2  0
 28 29  1  0
 29 30  2  0
 30 31  1  0
 31 32  1  0
 30 33  1  0
 33 34  2  0
 34 24  1  0
 34 27  1  0
M  CHG  1  21   1
M  END
>  <Compound_ID>  (830) 
C65356727

>  <Active>  (830) 
0.0

>  <Smiles>  (830) 
CCCCC/C=C\C/C=C\C/C=C\C/C=C\CCCC[NH2+]CC[C@H]1C=Nc2ccc(OC)cc21

>  <canonical_smi>  (830) 
CCCCC/C=C\C/C=C\C/C=C\C/C=C\CCCC[NH2+]CC[C@H]1C=Nc2ccc(OC)cc21

>  <Set>  (830) 
G2 inactive

>  <Set_type>  (830) 
Train

>  <MW>  (830) 
463.73

>  <HBD>  (830) 
1

>  <HBA>  (830) 
1

>  <NRB>  (830) 
19

>  <NR>  (830) 
2

>  <NAR>  (830) 
1

>  <PSA>  (830) 
38.2

>  <Standard Type>  (830) 
nan

>  <Standard Relation>  (830) 
nan

>  <Standard Units>  (830) 
nan

>  <Standard Value>  (830) 
nan

>  <Assay ChEMBL ID>  (830) 
nan

>  <Assay Description>  (830) 
nan

>  <BAO Label>  (830) 
nan

$$$$

     RDKit          2D

 23 25  0  0  0  0  0  0  0  0999 V2000
   -0.0000   -5.1073    0.0000 C   0  0  0  0  0  0  0  0  0  0  0  0
   -0.0000   -3.6073    0.0000 C   0  0  0  0  0  0  0  0  0  0  0  0
    1.2135   -2.7256    0.0000 C   0  0  0  0  0  0  0  0  0  0  0  0
    2.6401   -3.1891    0.0000 C   0  0  0  0  0  0  0  0  0  0  0  0
    4.0667   -3.6527    0.0000 N   0  0  0  0  0  0  0  0  0  0  0  0
    0.7500   -1.2990    0.0000 C   0  0  0  0  0  0  0  0  0  0  0  0
    1.5000    0.0000    0.0000 N   0  0  0  0  0  0  0  0  0  0  0  0
    0.7500    1.2990    0.0000 C   0  0  0  0  0  0  0  0  0  0  0  0
    1.5000    2.5981    0.0000 N   0  0  0  0  0  0  0  0  0  0  0  0
   -0.7500    1.2990    0.0000 C   0  0  0  0  0  0  0  0  0  0  0  0
   -1.5000    2.5981    0.0000 C   0  0  0  0  0  0  0  0  0  0  0  0
   -2.2500    3.8971    0.0000 N   0  0  0  0  0  0  0  0  0  0  0  0
   -1.5000    0.0000    0.0000 C   0  0  0  0  0  0  0  0  0  0  0  0
   -3.0000    0.0000    0.0000 C   0  0  0  0  0  0  0  0  0  0  0  0
   -0.7500   -1.2990    0.0000 C   0  0  0  0  0  0  0  0  0  0  0  0
   -1.2135   -2.7256    0.0000 C   0  0  0  0  0  0  0  0  0  0  0  0
   -2.6401   -3.1891    0.0000 C   0  0  0  0  0  0  0  0  0  0  0  0
   -2.9520   -4.6564    0.0000 C   0  0  0  0  0  0  0  0  0  0  0  0
   -1.9483   -5.7711    0.0000 C   0  0  0  0  0  0  0  0  0  0  0  0
   -2.6983   -7.0701    0.0000 C   0  0  0  0  0  0  0  0  0  0  0  0
   -4.1655   -6.7583    0.0000 C   0  0  0  0  0  0  0  0  0  0  0  0
   -5.2802   -7.7620    0.0000 C   0  0  0  0  0  0  0  0  0  0  0  0
   -4.3223   -5.2665    0.0000 O   0  0  0  0  0  0  0  0  0  0  0  0
  1  2  1  0
  2  3  2  0
  3  4  1  0
  4  5  3  0
  3  6  1  0
  6  7  2  0
  7  8  1  0
  8  9  1  0
  8 10  2  0
 10 11  1  0
 11 12  3  0
 10 13  1  0
 13 14  1  0
 13 15  2  0
 15 16  1  0
 16 17  2  0
 17 18  1  0
 18 19  2  0
 19 20  1  0
 20 21  2  0
 21 22  1  0
 21 23  1  0
 16  2  1  0
 23 18  1  0
 15  6  1  0
M  END
>  <Compound_ID>  (831) 
C16348039

>  <Active>  (831) 
0.0

>  <Smiles>  (831) 
CC1=C(C#N)c2nc(N)c(C#N)c(C)c2/C1=C/c1ccc(C)o1

>  <canonical_smi>  (831) 
CC1=C(C#N)c2nc(N)c(C#N)c(C)c2/C1=C/c1ccc(C)o1

>  <Set>  (831) 
G2 inactive

>  <Set_type>  (831) 
Train

>  <MW>  (831) 
302.34

>  <HBD>  (831) 
1

>  <HBA>  (831) 
5

>  <NRB>  (831) 
1

>  <NR>  (831) 
3

>  <NAR>  (831) 
2

>  <PSA>  (831) 
99.63

>  <Standard Type>  (831) 
nan

>  <Standard Relation>  (831) 
nan

>  <Standard Units>  (831) 
nan

>  <Standard Value>  (831) 
nan

>  <Assay ChEMBL ID>  (831) 
nan

>  <Assay Description>  (831) 
nan

>  <BAO Label>  (831) 
nan

$$$$

     RDKit          2D

 18 19  0  0  0  0  0  0  0  0999 V2000
   -2.9499    4.2246    0.0000 C   0  0  0  0  0  0  0  0  0  0  0  0
   -1.8351    3.2209    0.0000 C   0  0  0  0  0  0  0  0  0  0  0  0
   -0.4086    3.6844    0.0000 C   0  0  0  0  0  0  0  0  0  0  0  0
   -0.0967    5.1517    0.0000 O   0  0  0  0  0  0  0  0  0  0  0  0
    0.7062    2.6807    0.0000 C   0  0  0  0  0  0  0  0  0  0  0  0
    2.1328    3.1443    0.0000 C   0  0  0  0  0  0  0  0  0  0  0  0
    0.3943    1.2135    0.0000 C   0  0  0  0  0  0  0  0  0  0  0  0
    1.2760    0.0000    0.0000 S   0  0  0  0  0  0  0  0  0  0  0  0
    0.3943   -1.2135    0.0000 C   0  0  0  0  0  0  0  0  0  0  0  0
    0.8578   -2.6401    0.0000 N   0  0  0  0  0  0  0  0  0  0  0  0
    2.3250   -2.9520    0.0000 S   0  0  0  0  0  0  0  0  0  0  0  0
    3.7923   -3.2638    0.0000 C   0  0  0  0  0  0  0  0  0  0  0  0
    2.6369   -1.4848    0.0000 O   0  0  0  0  0  0  0  0  0  0  0  0
    2.0132   -4.4192    0.0000 O   0  0  0  0  0  0  0  0  0  0  0  0
   -1.0323   -0.7500    0.0000 N   0  0  0  0  0  0  0  0  0  0  0  0
   -1.0323    0.7500    0.0000 C   0  0  0  0  0  0  0  0  0  0  0  0
   -2.1470    1.7537    0.0000 C   0  0  0  0  0  0  0  0  0  0  0  0
   -3.5736    1.2902    0.0000 C   0  0  0  0  0  0  0  0  0  0  0  0
  1  2  1  0
  2  3  2  0
  3  4  1  0
  3  5  1  0
  5  6  1  0
  5  7  2  0
  7  8  1  0
  8  9  1  0
  9 10  2  0
 10 11  1  0
 11 12  1  0
 11 13  2  0
 11 14  2  0
  9 15  1  0
 15 16  1  0
 16 17  2  0
 17 18  1  0
 17  2  1  0
 16  7  1  0
M  END
>  <Compound_ID>  (832) 
C39127782

>  <Active>  (832) 
0.0

>  <Smiles>  (832) 
Cc1c(O)c(C)c2s/c(=N\S(C)(=O)=O)[nH]c2c1C

>  <canonical_smi>  (832) 
Cc1c(O)c(C)c2s/c(=N\S(C)(=O)=O)[nH]c2c1C

>  <Set>  (832) 
G2 inactive

>  <Set_type>  (832) 
Train

>  <MW>  (832) 
286.38

>  <HBD>  (832) 
2

>  <HBA>  (832) 
3

>  <NRB>  (832) 
1

>  <NR>  (832) 
2

>  <NAR>  (832) 
2

>  <PSA>  (832) 
82.52

>  <Standard Type>  (832) 
nan

>  <Standard Relation>  (832) 
nan

>  <Standard Units>  (832) 
nan

>  <Standard Value>  (832) 
nan

>  <Assay ChEMBL ID>  (832) 
nan

>  <Assay Description>  (832) 
nan

>  <BAO Label>  (832) 
nan

$$$$

     RDKit          2D

 27 29  0  0  0  0  0  0  0  0999 V2000
    3.0000    0.0000    0.0000 C   0  0  0  0  0  0  0  0  0  0  0  0
    1.5000    0.0000    0.0000 C   0  0  0  0  0  0  0  0  0  0  0  0
    0.7500   -1.2990    0.0000 C   0  0  0  0  0  0  0  0  0  0  0  0
   -0.7500   -1.2990    0.0000 C   0  0  0  0  0  0  0  0  0  0  0  0
   -1.5000    0.0000    0.0000 C   0  0  0  0  0  0  0  0  0  0  0  0
   -0.7500    1.2990    0.0000 C   0  0  0  0  0  0  0  0  0  0  0  0
    0.7500    1.2990    0.0000 C   0  0  0  0  0  0  0  0  0  0  0  0
   -1.7537    2.4138    0.0000 N   0  0  0  0  0  0  0  0  0  0  0  0
   -3.1240    1.8037    0.0000 C   0  0  0  0  0  0  0  0  0  0  0  0
   -4.4231    2.5537    0.0000 C   0  0  0  0  0  0  0  0  0  0  0  0
   -5.7221    1.8037    0.0000 C   0  0  0  0  0  0  0  0  0  0  0  0
   -7.0211    1.0537    0.0000 N   0  0  0  0  0  0  0  0  0  0  0  0
   -4.4231    4.0537    0.0000 S   0  0  0  0  0  0  0  0  0  0  0  0
   -2.9231    4.0537    0.0000 O   0  0  0  0  0  0  0  0  0  0  0  0
   -5.9231    4.0537    0.0000 O   0  0  0  0  0  0  0  0  0  0  0  0
   -4.4231    5.5537    0.0000 C   0  0  0  0  0  0  0  0  0  0  0  0
   -3.1240    6.3037    0.0000 C   0  0  0  0  0  0  0  0  0  0  0  0
   -3.1240    7.8037    0.0000 C   0  0  0  0  0  0  0  0  0  0  0  0
   -4.4231    8.5537    0.0000 C   0  0  0  0  0  0  0  0  0  0  0  0
   -4.4231   10.0537    0.0000 O   0  0  0  0  0  0  0  0  0  0  0  0
   -3.1240   10.8037    0.0000 C   0  0  0  0  0  0  0  0  0  0  0  0
   -1.8250   11.5537    0.0000 F   0  0  0  0  0  0  0  0  0  0  0  0
   -3.8740   12.1027    0.0000 F   0  0  0  0  0  0  0  0  0  0  0  0
   -2.3740    9.5046    0.0000 F   0  0  0  0  0  0  0  0  0  0  0  0
   -5.7221    7.8037    0.0000 C   0  0  0  0  0  0  0  0  0  0  0  0
   -5.7221    6.3037    0.0000 C   0  0  0  0  0  0  0  0  0  0  0  0
   -2.9672    0.3119    0.0000 N   0  0  0  0  0  0  0  0  0  0  0  0
  1  2  1  0
  2  3  2  0
  3  4  1  0
  4  5  2  0
  5  6  1  0
  6  7  2  0
  6  8  1  0
  8  9  1  0
  9 10  2  0
 10 11  1  0
 11 12  3  0
 10 13  1  0
 13 14  2  0
 13 15  2  0
 13 16  1  0
 16 17  2  0
 17 18  1  0
 18 19  2  0
 19 20  1  0
 20 21  1  0
 21 22  1  0
 21 23  1  0
 21 24  1  0
 19 25  1  0
 25 26  2  0
  9 27  1  0
  7  2  1  0
 26 16  1  0
 27  5  1  0
M  END
>  <Compound_ID>  (833) 
C03135603

>  <Active>  (833) 
0.0

>  <Smiles>  (833) 
Cc1ccc2c(c1)N/C(=C(/C#N)S(=O)(=O)c1ccc(OC(F)(F)F)cc1)N2

>  <canonical_smi>  (833) 
Cc1ccc2c(c1)N/C(=C(/C#N)S(=O)(=O)c1ccc(OC(F)(F)F)cc1)N2

>  <Set>  (833) 
G2 inactive

>  <Set_type>  (833) 
Train

>  <MW>  (833) 
395.36

>  <HBD>  (833) 
2

>  <HBA>  (833) 
6

>  <NRB>  (833) 
3

>  <NR>  (833) 
3

>  <NAR>  (833) 
2

>  <PSA>  (833) 
91.22

>  <Standard Type>  (833) 
nan

>  <Standard Relation>  (833) 
nan

>  <Standard Units>  (833) 
nan

>  <Standard Value>  (833) 
nan

>  <Assay ChEMBL ID>  (833) 
nan

>  <Assay Description>  (833) 
nan

>  <BAO Label>  (833) 
nan

$$$$

     RDKit          2D

 25 27  0  0  0  0  0  0  0  0999 V2000
    1.8478  -11.6600    0.0000 C   0  0  0  0  0  0  0  0  0  0  0  0
    2.0046  -10.1682    0.0000 C   0  0  0  0  0  0  0  0  0  0  0  0
    3.3037   -9.4182    0.0000 C   0  0  0  0  0  0  0  0  0  0  0  0
    2.9918   -7.9510    0.0000 C   0  0  0  0  0  0  0  0  0  0  0  0
    3.9955   -6.8363    0.0000 O   0  0  0  0  0  0  0  0  0  0  0  0
    1.5000   -7.7942    0.0000 C   0  0  0  0  0  0  0  0  0  0  0  0
    0.7500   -6.4952    0.0000 C   0  0  0  0  0  0  0  0  0  0  0  0
    1.5000   -5.1962    0.0000 C   0  0  0  0  0  0  0  0  0  0  0  0
    0.7500   -3.8971    0.0000 C   0  0  0  0  0  0  0  0  0  0  0  0
    1.5000   -2.5981    0.0000 C   0  0  0  0  0  0  0  0  0  0  0  0
    0.7500   -1.2990    0.0000 C   0  0  0  0  0  0  0  0  0  0  0  0
    1.5000    0.0000    0.0000 C   0  0  0  0  0  0  0  0  0  0  0  0
    0.7500    1.2990    0.0000 C   0  0  0  0  0  0  0  0  0  0  0  0
    1.5000    2.5981    0.0000 C   0  0  0  0  0  0  0  0  0  0  0  0
    3.0000    2.5981    0.0000 Cl  0  0  0  0  0  0  0  0  0  0  0  0
    0.7500    3.8971    0.0000 C   0  0  0  0  0  0  0  0  0  0  0  0
    1.5000    5.1962    0.0000 O   0  0  0  0  0  0  0  0  0  0  0  0
   -0.7500    3.8971    0.0000 C   0  0  0  0  0  0  0  0  0  0  0  0
   -1.5000    2.5981    0.0000 C   0  0  0  0  0  0  0  0  0  0  0  0
   -3.0000    2.5981    0.0000 O   0  0  0  0  0  0  0  0  0  0  0  0
   -0.7500    1.2990    0.0000 C   0  0  0  0  0  0  0  0  0  0  0  0
   -1.5000    0.0000    0.0000 C   0  0  0  0  0  0  0  0  0  0  0  0
   -3.0000    0.0000    0.0000 O   0  0  0  0  0  0  0  0  0  0  0  0
   -0.7500   -1.2990    0.0000 O   0  0  0  0  0  0  0  0  0  0  0  0
    0.8899   -9.1645    0.0000 O   0  0  0  0  0  0  0  0  0  0  0  0
  2  1  1  6
  2  3  1  0
  3  4  1  0
  4  5  1  1
  4  6  1  0
  6  7  1  1
  7  8  2  0
  8  9  1  0
  9 10  2  0
 10 11  1  0
 11 12  2  0
 12 13  1  0
 13 14  2  0
 14 15  1  0
 14 16  1  0
 16 17  1  0
 16 18  2  0
 18 19  1  0
 19 20  1  0
 19 21  2  0
 21 22  1  0
 22 23  2  0
 22 24  1  0
  6 25  1  0
 25  2  1  0
 24 11  1  0
 21 13  1  0
M  END
>  <Compound_ID>  (834) 
C35464497

>  <Active>  (834) 
0.0

>  <Smiles>  (834) 
C[C@H]1C[C@H](O)[C@H](/C=C/C=C/c2cc3c(Cl)c(O)cc(O)c3c(=O)o2)O1

>  <canonical_smi>  (834) 
C[C@H]1C[C@H](O)[C@H](/C=C/C=C/c2cc3c(Cl)c(O)cc(O)c3c(=O)o2)O1

>  <Set>  (834) 
G2 inactive

>  <Set_type>  (834) 
Train

>  <MW>  (834) 
364.78

>  <HBD>  (834) 
3

>  <HBA>  (834) 
6

>  <NRB>  (834) 
3

>  <NR>  (834) 
3

>  <NAR>  (834) 
2

>  <PSA>  (834) 
100.13

>  <Standard Type>  (834) 
nan

>  <Standard Relation>  (834) 
nan

>  <Standard Units>  (834) 
nan

>  <Standard Value>  (834) 
nan

>  <Assay ChEMBL ID>  (834) 
nan

>  <Assay Description>  (834) 
nan

>  <BAO Label>  (834) 
nan

$$$$

     RDKit          2D

 31 36  0  0  0  0  0  0  0  0999 V2000
   -0.1568   -8.3624    0.0000 C   0  0  0  0  0  0  0  0  0  0  0  0
    1.0567   -7.4808    0.0000 N   0  0  0  0  0  0  0  0  0  0  0  0
    2.4833   -7.9443    0.0000 C   0  0  0  0  0  0  0  0  0  0  0  0
    3.0934   -9.3146    0.0000 C   0  0  0  0  0  0  0  0  0  0  0  0
    4.5852   -9.4714    0.0000 C   0  0  0  0  0  0  0  0  0  0  0  0
    5.4669   -8.2579    0.0000 C   0  0  0  0  0  0  0  0  0  0  0  0
    4.8568   -6.8876    0.0000 C   0  0  0  0  0  0  0  0  0  0  0  0
    3.3650   -6.7308    0.0000 C   0  0  0  0  0  0  0  0  0  0  0  0
    2.4833   -5.5172    0.0000 N   0  0  0  0  0  0  0  0  0  0  0  0
    1.0567   -5.9808    0.0000 C   0  0  0  0  0  0  0  0  0  0  0  0
   -0.1568   -5.0991    0.0000 C   0  0  0  0  0  0  0  0  0  0  0  0
   -0.0000   -3.6073    0.0000 C   0  0  0  0  0  0  0  0  0  0  0  0
    1.2135   -2.7256    0.0000 N   0  0  0  0  0  0  0  0  0  0  0  0
    0.7500   -1.2990    0.0000 C   0  0  0  0  0  0  0  0  0  0  0  0
    1.5000    0.0000    0.0000 C   0  0  0  0  0  0  0  0  0  0  0  0
    0.7500    1.2990    0.0000 C   0  0  0  0  0  0  0  0  0  0  0  0
   -0.7500    1.2990    0.0000 C   0  0  0  0  0  0  0  0  0  0  0  0
   -1.5000    0.0000    0.0000 C   0  0  0  0  0  0  0  0  0  0  0  0
   -0.7500   -1.2990    0.0000 C   0  0  0  0  0  0  0  0  0  0  0  0
   -1.2135   -2.7256    0.0000 C   0  0  0  0  0  0  0  0  0  0  0  0
   -2.5838   -3.3357    0.0000 C   0  0  0  0  0  0  0  0  0  0  0  0
   -2.7406   -4.8275    0.0000 C   0  0  0  0  0  0  0  0  0  0  0  0
   -1.5271   -5.7092    0.0000 N   0  0  0  0  0  0  0  0  0  0  0  0
   -1.6839   -7.2010    0.0000 C   0  0  0  0  0  0  0  0  0  0  0  0
   -3.0542   -7.8111    0.0000 C   0  0  0  0  0  0  0  0  0  0  0  0
   -3.2110   -9.3029    0.0000 C   0  0  0  0  0  0  0  0  0  0  0  0
   -4.5813   -9.9130    0.0000 C   0  0  0  0  0  0  0  0  0  0  0  0
   -4.8932  -11.3802    0.0000 C   0  0  0  0  0  0  0  0  0  0  0  0
   -6.3850  -11.5370    0.0000 C   0  0  0  0  0  0  0  0  0  0  0  0
   -6.9951  -10.1667    0.0000 C   0  0  0  0  0  0  0  0  0  0  0  0
   -5.8804   -9.1630    0.0000 O   0  0  0  0  0  0  0  0  0  0  0  0
  1  2  1  0
  2  3  1  0
  3  4  2  0
  4  5  1  0
  5  6  2  0
  6  7  1  0
  7  8  2  0
  8  9  1  0
 10  9  1  6
 10 11  1  0
 11 12  1  0
 12 13  1  0
 13 14  1  0
 14 15  2  0
 15 16  1  0
 16 17  2  0
 17 18  1  0
 18 19  2  0
 19 20  1  0
 20 21  1  0
 21 22  1  0
 22 23  1  0
 23 24  1  0
 24 25  1  0
 25 26  2  0
 26 27  1  0
 27 28  2  0
 28 29  1  0
 29 30  2  0
 30 31  1  0
 10  2  1  0
 11 23  1  1
 31 27  1  0
  8  3  1  0
 20 12  2  0
 19 14  1  0
M  END
>  <Compound_ID>  (835) 
C39461375

>  <Active>  (835) 
0.0

>  <Smiles>  (835) 
CN1c2ccccc2N[C@H]1[C@@H]1c2[nH]c3ccccc3c2CCN1C/C=C/c1ccco1

>  <canonical_smi>  (835) 
CN1c2ccccc2N[C@H]1[C@@H]1c2[nH]c3ccccc3c2CCN1C/C=C/c1ccco1

>  <Set>  (835) 
G2 inactive

>  <Set_type>  (835) 
Train

>  <MW>  (835) 
410.52

>  <HBD>  (835) 
2

>  <HBA>  (835) 
4

>  <NRB>  (835) 
4

>  <NR>  (835) 
6

>  <NAR>  (835) 
4

>  <PSA>  (835) 
47.44

>  <Standard Type>  (835) 
nan

>  <Standard Relation>  (835) 
nan

>  <Standard Units>  (835) 
nan

>  <Standard Value>  (835) 
nan

>  <Assay ChEMBL ID>  (835) 
nan

>  <Assay Description>  (835) 
nan

>  <BAO Label>  (835) 
nan

$$$$

     RDKit          2D

 32 35  0  0  0  0  0  0  0  0999 V2000
   11.7649  -12.1849    0.0000 C   0  0  0  0  0  0  0  0  0  0  0  0
   11.9217  -10.6931    0.0000 S   0  0  0  0  0  0  0  0  0  0  0  0
   10.4299  -10.5363    0.0000 O   0  0  0  0  0  0  0  0  0  0  0  0
   13.4135  -10.8499    0.0000 O   0  0  0  0  0  0  0  0  0  0  0  0
   12.0785   -9.2013    0.0000 N   0  0  0  0  0  0  0  0  0  0  0  0
   10.8650   -8.3196    0.0000 C   0  0  0  0  0  0  0  0  0  0  0  0
   11.0218   -6.8278    0.0000 C   0  0  0  0  0  0  0  0  0  0  0  0
    9.8083   -5.9462    0.0000 C   0  0  0  0  0  0  0  0  0  0  0  0
    9.8083   -4.4462    0.0000 C   0  0  0  0  0  0  0  0  0  0  0  0
    8.3817   -3.9826    0.0000 C   0  0  0  0  0  0  0  0  0  0  0  0
    7.5000   -5.1962    0.0000 C   0  0  0  0  0  0  0  0  0  0  0  0
    6.0000   -5.1962    0.0000 C   0  0  0  0  0  0  0  0  0  0  0  0
    5.2500   -6.4952    0.0000 O   0  0  0  0  0  0  0  0  0  0  0  0
    5.2500   -3.8971    0.0000 O   0  0  0  0  0  0  0  0  0  0  0  0
    3.7500   -3.8971    0.0000 C   0  0  0  0  0  0  0  0  0  0  0  0
    3.0000   -2.5981    0.0000 C   0  0  0  0  0  0  0  0  0  0  0  0
    3.7500   -1.2990    0.0000 O   0  0  0  0  0  0  0  0  0  0  0  0
    1.5000   -2.5981    0.0000 N   0  0  0  0  0  0  0  0  0  0  0  0
    0.7500   -1.2990    0.0000 C   0  0  0  0  0  0  0  0  0  0  0  0
    1.5000    0.0000    0.0000 C   0  0  0  0  0  0  0  0  0  0  0  0
    0.7500    1.2990    0.0000 C   0  0  0  0  0  0  0  0  0  0  0  0
   -0.7500    1.2990    0.0000 C   0  0  0  0  0  0  0  0  0  0  0  0
   -1.5000    0.0000    0.0000 C   0  0  0  0  0  0  0  0  0  0  0  0
   -0.7500   -1.2990    0.0000 C   0  0  0  0  0  0  0  0  0  0  0  0
   -1.5000   -2.5981    0.0000 S   0  0  0  0  0  0  0  0  0  0  0  0
   -0.7500   -3.8971    0.0000 C   0  0  0  0  0  0  0  0  0  0  0  0
   -1.5000   -5.1962    0.0000 C   0  0  0  0  0  0  0  0  0  0  0  0
   -0.7500   -6.4952    0.0000 C   0  0  0  0  0  0  0  0  0  0  0  0
    0.7500   -6.4952    0.0000 C   0  0  0  0  0  0  0  0  0  0  0  0
    1.5000   -5.1962    0.0000 C   0  0  0  0  0  0  0  0  0  0  0  0
    0.7500   -3.8971    0.0000 C   0  0  0  0  0  0  0  0  0  0  0  0
    8.3817   -6.4097    0.0000 S   0  0  0  0  0  0  0  0  0  0  0  0
  1  2  1  0
  2  3  2  0
  2  4  2  0
  2  5  1  0
  5  6  1  0
  6  7  1  0
  7  8  1  0
  8  9  2  0
  9 10  1  0
 10 11  2  0
 11 12  1  0
 12 13  2  0
 12 14  1  0
 14 15  1  0
 15 16  1  0
 16 17  2  0
 16 18  1  0
 18 19  1  0
 19 20  2  0
 20 21  1  0
 21 22  2  0
 22 23  1  0
 23 24  2  0
 24 25  1  0
 25 26  1  0
 26 27  2  0
 27 28  1  0
 28 29  2  0
 29 30  1  0
 30 31  2  0
 11 32  1  0
 32  8  1  0
 31 18  1  0
 24 19  1  0
 31 26  1  0
M  END
>  <Compound_ID>  (836) 
C17246946

>  <Active>  (836) 
0.0

>  <Smiles>  (836) 
CS(=O)(=O)NCCc1ccc(C(=O)OCC(=O)N2c3ccccc3Sc3ccccc32)s1

>  <canonical_smi>  (836) 
CS(=O)(=O)NCCc1ccc(C(=O)OCC(=O)N2c3ccccc3Sc3ccccc32)s1

>  <Set>  (836) 
G2 inactive

>  <Set_type>  (836) 
Train

>  <MW>  (836) 
488.61

>  <HBD>  (836) 
1

>  <HBA>  (836) 
6

>  <NRB>  (836) 
7

>  <NR>  (836) 
4

>  <NAR>  (836) 
3

>  <PSA>  (836) 
92.78

>  <Standard Type>  (836) 
nan

>  <Standard Relation>  (836) 
nan

>  <Standard Units>  (836) 
nan

>  <Standard Value>  (836) 
nan

>  <Assay ChEMBL ID>  (836) 
nan

>  <Assay Description>  (836) 
nan

>  <BAO Label>  (836) 
nan

$$$$

     RDKit          2D

 23 25  0  0  0  0  0  0  0  0999 V2000
   -0.7500   -6.4952    0.0000 O   0  0  0  0  0  0  0  0  0  0  0  0
    0.7500   -6.4952    0.0000 C   0  0  0  0  0  0  0  0  0  0  0  0
    1.5000   -5.1962    0.0000 N   0  0  0  0  0  0  0  0  0  0  0  0
    0.7500   -3.8971    0.0000 C   0  0  0  0  0  0  0  0  0  0  0  0
    1.5000   -2.5981    0.0000 C   0  0  0  0  0  0  0  0  0  0  0  0
    0.7500   -1.2990    0.0000 C   0  0  0  0  0  0  0  0  0  0  0  0
    1.5000    0.0000    0.0000 C   0  0  0  0  0  0  0  0  0  0  0  0
    0.7500    1.2990    0.0000 C   0  0  0  0  0  0  0  0  0  0  0  0
   -0.7500    1.2990    0.0000 C   0  0  0  0  0  0  0  0  0  0  0  0
   -1.5000    0.0000    0.0000 C   0  0  0  0  0  0  0  0  0  0  0  0
   -0.7500   -1.2990    0.0000 C   0  0  0  0  0  0  0  0  0  0  0  0
    1.5000   -7.7942    0.0000 N   0  0  0  0  0  0  0  0  0  0  0  0
    0.7500   -9.0933    0.0000 C   0  0  0  0  0  0  0  0  0  0  0  0
    1.3601  -10.4636    0.0000 N   0  0  0  0  0  0  0  0  0  0  0  0
    0.2454  -11.4673    0.0000 N   0  0  0  0  0  0  0  0  0  0  0  0
   -1.0537  -10.7173    0.0000 C   0  0  0  0  0  0  0  0  0  0  0  0
   -2.4240  -11.3274    0.0000 C   0  0  0  0  0  0  0  0  0  0  0  0
   -3.6375  -10.4457    0.0000 C   0  0  0  0  0  0  0  0  0  0  0  0
   -5.0078  -11.0558    0.0000 C   0  0  0  0  0  0  0  0  0  0  0  0
   -5.1646  -12.5476    0.0000 C   0  0  0  0  0  0  0  0  0  0  0  0
   -3.9511  -13.4293    0.0000 C   0  0  0  0  0  0  0  0  0  0  0  0
   -2.5808  -12.8192    0.0000 N   0  0  0  0  0  0  0  0  0  0  0  0
   -0.7418   -9.2501    0.0000 S   0  0  0  0  0  0  0  0  0  0  0  0
  1  2  2  0
  2  3  1  0
  3  4  1  0
  4  5  1  0
  5  6  1  0
  6  7  2  0
  7  8  1  0
  8  9  1  0
  9 10  1  0
 10 11  1  0
  2 12  1  0
 12 13  1  0
 13 14  2  0
 14 15  1  0
 15 16  2  0
 16 17  1  0
 17 18  2  0
 18 19  1  0
 19 20  2  0
 20 21  1  0
 21 22  2  0
 16 23  1  0
 11  6  1  0
 23 13  1  0
 22 17  1  0
M  END
>  <Compound_ID>  (837) 
C47789070

>  <Active>  (837) 
0.0

>  <Smiles>  (837) 
O=C(NCCC1=CCCCC1)Nc1nnc(-c2ccccn2)s1

>  <canonical_smi>  (837) 
O=C(NCCC1=CCCCC1)Nc1nnc(-c2ccccn2)s1

>  <Set>  (837) 
G2 inactive

>  <Set_type>  (837) 
Train

>  <MW>  (837) 
329.43

>  <HBD>  (837) 
2

>  <HBA>  (837) 
4

>  <NRB>  (837) 
5

>  <NR>  (837) 
3

>  <NAR>  (837) 
2

>  <PSA>  (837) 
79.8

>  <Standard Type>  (837) 
nan

>  <Standard Relation>  (837) 
nan

>  <Standard Units>  (837) 
nan

>  <Standard Value>  (837) 
nan

>  <Assay ChEMBL ID>  (837) 
nan

>  <Assay Description>  (837) 
nan

>  <BAO Label>  (837) 
nan

$$$$

     RDKit          2D

 25 28  0  0  0  0  0  0  0  0999 V2000
    3.0000    0.0000    0.0000 C   0  0  0  0  0  0  0  0  0  0  0  0
    1.5000    0.0000    0.0000 C   0  0  0  0  0  0  0  0  0  0  0  0
    0.7500   -1.2990    0.0000 C   0  0  0  0  0  0  0  0  0  0  0  0
   -0.7500   -1.2990    0.0000 C   0  0  0  0  0  0  0  0  0  0  0  0
   -1.5000   -2.5981    0.0000 C   0  0  0  0  0  0  0  0  0  0  0  0
   -1.5000    0.0000    0.0000 C   0  0  0  0  0  0  0  0  0  0  0  0
   -0.7500    1.2990    0.0000 C   0  0  0  0  0  0  0  0  0  0  0  0
   -1.5000    2.5981    0.0000 N   0  0  0  0  0  0  0  0  0  0  0  0
   -2.9918    2.7549    0.0000 N   0  0  0  0  0  0  0  0  0  0  0  0
   -3.3037    4.2221    0.0000 C   0  0  0  0  0  0  0  0  0  0  0  0
   -4.6740    4.8322    0.0000 C   0  0  0  0  0  0  0  0  0  0  0  0
   -6.1658    4.6754    0.0000 C   0  0  0  0  0  0  0  0  0  0  0  0
   -5.5556    6.0457    0.0000 C   0  0  0  0  0  0  0  0  0  0  0  0
   -2.0046    4.9721    0.0000 N   0  0  0  0  0  0  0  0  0  0  0  0
   -0.8899    3.9684    0.0000 C   0  0  0  0  0  0  0  0  0  0  0  0
    0.5773    4.2803    0.0000 C   0  0  0  0  0  0  0  0  0  0  0  0
    1.0409    5.7068    0.0000 C   0  0  0  0  0  0  0  0  0  0  0  0
    2.5081    6.0187    0.0000 C   0  0  0  0  0  0  0  0  0  0  0  0
    3.5118    4.9040    0.0000 C   0  0  0  0  0  0  0  0  0  0  0  0
    4.9790    5.2159    0.0000 C   0  0  0  0  0  0  0  0  0  0  0  0
    5.4425    6.6424    0.0000 C   0  0  0  0  0  0  0  0  0  0  0  0
    6.9097    6.9543    0.0000 O   0  0  0  0  0  0  0  0  0  0  0  0
    4.4388    7.7572    0.0000 N   0  0  0  0  0  0  0  0  0  0  0  0
    2.9716    7.4453    0.0000 N   0  0  0  0  0  0  0  0  0  0  0  0
    0.7500    1.2990    0.0000 C   0  0  0  0  0  0  0  0  0  0  0  0
  1  2  1  0
  2  3  2  0
  3  4  1  0
  4  5  1  0
  4  6  2  0
  6  7  1  0
  7  8  1  0
  8  9  1  0
  9 10  2  0
 10 11  1  0
 11 12  1  0
 12 13  1  0
 10 14  1  0
 14 15  1  0
 15 16  1  1
 16 17  1  0
 17 18  1  0
 18 19  1  0
 19 20  2  0
 20 21  1  0
 21 22  2  0
 21 23  1  0
 23 24  1  0
  7 25  2  0
 25  2  1  0
 15  8  1  0
 24 18  2  0
 13 11  1  0
M  END
>  <Compound_ID>  (838) 
C65461403

>  <Active>  (838) 
0.0

>  <Smiles>  (838) 
Cc1cc(C)cc(N2N=C(C3CC3)N[C@H]2CCc2ccc(=O)[nH]n2)c1

>  <canonical_smi>  (838) 
Cc1cc(C)cc(N2N=C(C3CC3)N[C@H]2CCc2ccc(=O)[nH]n2)c1

>  <Set>  (838) 
G2 inactive

>  <Set_type>  (838) 
Train

>  <MW>  (838) 
337.43

>  <HBD>  (838) 
2

>  <HBA>  (838) 
4

>  <NRB>  (838) 
5

>  <NR>  (838) 
4

>  <NAR>  (838) 
2

>  <PSA>  (838) 
73.38

>  <Standard Type>  (838) 
nan

>  <Standard Relation>  (838) 
nan

>  <Standard Units>  (838) 
nan

>  <Standard Value>  (838) 
nan

>  <Assay ChEMBL ID>  (838) 
nan

>  <Assay Description>  (838) 
nan

>  <BAO Label>  (838) 
nan

$$$$

     RDKit          2D

 21 23  0  0  0  0  0  0  0  0999 V2000
    5.2500   -1.2990    0.0000 C   0  0  0  0  0  0  0  0  0  0  0  0
    3.7500   -1.2990    0.0000 C   0  0  0  0  0  0  0  0  0  0  0  0
    3.0000    0.0000    0.0000 C   0  0  0  0  0  0  0  0  0  0  0  0
    1.5000    0.0000    0.0000 C   0  0  0  0  0  0  0  0  0  0  0  0
    0.7500   -1.2990    0.0000 C   0  0  0  0  0  0  0  0  0  0  0  0
   -0.7500   -1.2990    0.0000 C   0  0  0  0  0  0  0  0  0  0  0  0
   -1.5000    0.0000    0.0000 C   0  0  0  0  0  0  0  0  0  0  0  0
   -2.9672    0.3119    0.0000 N   0  0  0  0  0  0  0  0  0  0  0  0
   -3.1240    1.8037    0.0000 C   0  0  0  0  0  0  0  0  0  0  0  0
   -4.4231    2.5537    0.0000 N   0  0  0  0  0  0  0  0  0  0  0  0
   -5.7221    1.8037    0.0000 S   0  0  0  0  0  0  0  0  0  0  0  0
   -4.9721    0.5046    0.0000 O   0  0  0  0  0  0  0  0  0  0  0  0
   -6.4721    3.1027    0.0000 O   0  0  0  0  0  0  0  0  0  0  0  0
   -7.0211    1.0537    0.0000 C   0  0  0  0  0  0  0  0  0  0  0  0
   -7.1779   -0.4381    0.0000 C   0  0  0  0  0  0  0  0  0  0  0  0
   -8.6451   -0.7500    0.0000 N   0  0  0  0  0  0  0  0  0  0  0  0
   -9.3951    0.5490    0.0000 N   0  0  0  0  0  0  0  0  0  0  0  0
   -8.3914    1.6638    0.0000 C   0  0  0  0  0  0  0  0  0  0  0  0
   -1.7537    2.4138    0.0000 S   0  0  0  0  0  0  0  0  0  0  0  0
   -0.7500    1.2990    0.0000 C   0  0  0  0  0  0  0  0  0  0  0  0
    0.7500    1.2990    0.0000 C   0  0  0  0  0  0  0  0  0  0  0  0
  1  2  1  0
  2  3  1  0
  4  3  1  1
  4  5  1  0
  5  6  1  0
  6  7  1  0
  7  8  1  0
  8  9  1  0
  9 10  2  0
 10 11  1  0
 11 12  2  0
 11 13  2  0
 11 14  1  0
 14 15  1  0
 15 16  2  0
 16 17  1  0
 17 18  1  0
  9 19  1  0
 19 20  1  0
 20 21  1  0
 21  4  1  0
 20  7  2  0
 18 14  2  0
M  END
>  <Compound_ID>  (839) 
C66255087

>  <Active>  (839) 
0.0

>  <Smiles>  (839) 
CCC[C@H]1CCc2[nH]/c(=N\S(=O)(=O)c3cn[nH]c3)sc2C1

>  <canonical_smi>  (839) 
CCC[C@H]1CCc2[nH]/c(=N\S(=O)(=O)c3cn[nH]c3)sc2C1

>  <Set>  (839) 
G2 inactive

>  <Set_type>  (839) 
Train

>  <MW>  (839) 
326.45

>  <HBD>  (839) 
2

>  <HBA>  (839) 
3

>  <NRB>  (839) 
4

>  <NR>  (839) 
3

>  <NAR>  (839) 
2

>  <PSA>  (839) 
90.97

>  <Standard Type>  (839) 
nan

>  <Standard Relation>  (839) 
nan

>  <Standard Units>  (839) 
nan

>  <Standard Value>  (839) 
nan

>  <Assay ChEMBL ID>  (839) 
nan

>  <Assay Description>  (839) 
nan

>  <BAO Label>  (839) 
nan

$$$$

     RDKit          2D

 34 37  0  0  0  0  0  0  0  0999 V2000
    3.7500   -1.2990    0.0000 C   0  0  0  0  0  0  0  0  0  0  0  0
    3.0000    0.0000    0.0000 C   0  0  0  0  0  0  0  0  0  0  0  0
    1.5000    0.0000    0.0000 C   0  0  0  0  0  0  0  0  0  0  0  0
    0.7500   -1.2990    0.0000 C   0  0  0  0  0  0  0  0  0  0  0  0
   -0.7500   -1.2990    0.0000 C   0  0  0  0  0  0  0  0  0  0  0  0
   -1.5000    0.0000    0.0000 C   0  0  0  0  0  0  0  0  0  0  0  0
   -3.0000    0.0000    0.0000 C   0  0  0  0  0  0  0  0  0  0  0  0
   -3.7500    1.2990    0.0000 N   0  0  0  0  0  0  0  0  0  0  0  0
   -5.2500    1.2990    0.0000 C   0  0  0  0  0  0  0  0  0  0  0  0
   -6.0000    2.5981    0.0000 O   0  0  0  0  0  0  0  0  0  0  0  0
   -6.0000    0.0000    0.0000 N   0  0  0  0  0  0  0  0  0  0  0  0
   -5.2500   -1.2990    0.0000 C   0  0  0  0  0  0  0  0  0  0  0  0
   -6.0000   -2.5981    0.0000 C   0  0  0  0  0  0  0  0  0  0  0  0
   -7.5000   -2.5981    0.0000 N   0  0  0  0  0  0  0  0  0  0  0  0
   -8.2500   -1.2990    0.0000 C   0  0  0  0  0  0  0  0  0  0  0  0
   -9.7500   -1.2990    0.0000 C   0  0  0  0  0  0  0  0  0  0  0  0
  -10.5000   -2.5981    0.0000 N   0  0  0  0  0  0  0  0  0  0  0  0
  -12.0000   -2.5981    0.0000 C   0  0  0  0  0  0  0  0  0  0  0  0
  -12.7500   -1.2990    0.0000 C   0  0  0  0  0  0  0  0  0  0  0  0
  -14.2500   -1.2990    0.0000 C   0  0  0  0  0  0  0  0  0  0  0  0
  -15.0000   -2.5981    0.0000 C   0  0  0  0  0  0  0  0  0  0  0  0
  -14.2500   -3.8971    0.0000 C   0  0  0  0  0  0  0  0  0  0  0  0
  -12.7500   -3.8971    0.0000 C   0  0  0  0  0  0  0  0  0  0  0  0
  -12.0000   -5.1962    0.0000 O   0  0  0  0  0  0  0  0  0  0  0  0
  -12.7500   -6.4952    0.0000 C   0  0  0  0  0  0  0  0  0  0  0  0
   -9.7500   -3.8971    0.0000 C   0  0  0  0  0  0  0  0  0  0  0  0
   -8.2500   -3.8971    0.0000 C   0  0  0  0  0  0  0  0  0  0  0  0
   -3.7500   -1.2990    0.0000 C   0  0  0  0  0  0  0  0  0  0  0  0
   -3.0000   -2.5981    0.0000 C   0  0  0  0  0  0  0  0  0  0  0  0
   -1.5000   -2.5981    0.0000 O   0  0  0  0  0  0  0  0  0  0  0  0
   -3.7500   -3.8971    0.0000 O   0  0  0  0  0  0  0  0  0  0  0  0
   -3.0000   -5.1962    0.0000 C   0  0  0  0  0  0  0  0  0  0  0  0
   -0.7500    1.2990    0.0000 C   0  0  0  0  0  0  0  0  0  0  0  0
    0.7500    1.2990    0.0000 C   0  0  0  0  0  0  0  0  0  0  0  0
  1  2  1  0
  2  3  1  0
  3  4  2  0
  4  5  1  0
  5  6  2  0
  7  6  1  1
  7  8  1  0
  8  9  1  0
  9 10  2  0
  9 11  1  0
 11 12  1  0
 12 13  1  0
 13 14  1  0
 14 15  1  0
 15 16  1  0
 16 17  1  0
 17 18  1  0
 18 19  2  0
 19 20  1  0
 20 21  2  0
 21 22  1  0
 22 23  2  0
 23 24  1  0
 24 25  1  0
 17 26  1  0
 26 27  1  0
 12 28  2  0
 28 29  1  0
 29 30  2  0
 29 31  1  0
 31 32  1  0
  6 33  1  0
 33 34  2  0
 34  3  1  0
 28  7  1  0
 27 14  1  0
 23 18  1  0
M  END
>  <Compound_ID>  (840) 
C57415226

>  <Active>  (840) 
0.0

>  <Smiles>  (840) 
CCc1ccc([C@@H]2NC(=O)NC(CN3CCN(c4ccccc4OC)CC3)=C2C(=O)OC)cc1

>  <canonical_smi>  (840) 
CCc1ccc([C@@H]2NC(=O)NC(CN3CCN(c4ccccc4OC)CC3)=C2C(=O)OC)cc1

>  <Set>  (840) 
G2 inactive

>  <Set_type>  (840) 
Train

>  <MW>  (840) 
464.57

>  <HBD>  (840) 
2

>  <HBA>  (840) 
6

>  <NRB>  (840) 
7

>  <NR>  (840) 
4

>  <NAR>  (840) 
2

>  <PSA>  (840) 
83.14

>  <Standard Type>  (840) 
nan

>  <Standard Relation>  (840) 
nan

>  <Standard Units>  (840) 
nan

>  <Standard Value>  (840) 
nan

>  <Assay ChEMBL ID>  (840) 
nan

>  <Assay Description>  (840) 
nan

>  <BAO Label>  (840) 
nan

$$$$

     RDKit          2D

 30 32  0  0  0  0  0  0  0  0999 V2000
    3.0000    0.0000    0.0000 C   0  0  0  0  0  0  0  0  0  0  0  0
    1.5000    0.0000    0.0000 C   0  0  0  0  0  0  0  0  0  0  0  0
    0.7500   -1.2990    0.0000 C   0  0  0  0  0  0  0  0  0  0  0  0
   -0.7500   -1.2990    0.0000 C   0  0  0  0  0  0  0  0  0  0  0  0
   -1.5000   -2.5981    0.0000 C   0  0  0  0  0  0  0  0  0  0  0  0
   -1.5000    0.0000    0.0000 C   0  0  0  0  0  0  0  0  0  0  0  0
   -3.0000    0.0000    0.0000 N   0  0  0  0  0  0  0  0  0  0  0  0
   -3.7500    1.2990    0.0000 C   0  0  0  0  0  0  0  0  0  0  0  0
   -5.2418    1.4558    0.0000 N   0  0  0  0  0  0  0  0  0  0  0  0
   -5.5537    2.9231    0.0000 N   0  0  0  0  0  0  0  0  0  0  0  0
   -4.2546    3.6731    0.0000 C   0  0  0  0  0  0  0  0  0  0  0  0
   -4.0978    5.1648    0.0000 S   0  0  0  0  0  0  0  0  0  0  0  0
   -2.7275    5.7749    0.0000 C   0  0  0  0  0  0  0  0  0  0  0  0
   -2.5707    7.2667    0.0000 C   0  0  0  0  0  0  0  0  0  0  0  0
   -3.7842    8.1484    0.0000 O   0  0  0  0  0  0  0  0  0  0  0  0
   -1.2004    7.8768    0.0000 N   0  0  0  0  0  0  0  0  0  0  0  0
   -1.0436    9.3686    0.0000 N   0  0  0  0  0  0  0  0  0  0  0  0
    0.3267    9.9787    0.0000 C   0  0  0  0  0  0  0  0  0  0  0  0
    1.5402    9.0970    0.0000 O   0  0  0  0  0  0  0  0  0  0  0  0
    0.4835   11.4705    0.0000 C   0  0  0  0  0  0  0  0  0  0  0  0
    1.8538   12.0806    0.0000 C   0  0  0  0  0  0  0  0  0  0  0  0
    2.0106   13.5724    0.0000 C   0  0  0  0  0  0  0  0  0  0  0  0
    0.7971   14.4541    0.0000 C   0  0  0  0  0  0  0  0  0  0  0  0
    0.9539   15.9458    0.0000 F   0  0  0  0  0  0  0  0  0  0  0  0
   -0.5732   13.8440    0.0000 C   0  0  0  0  0  0  0  0  0  0  0  0
   -0.7300   12.3522    0.0000 C   0  0  0  0  0  0  0  0  0  0  0  0
   -3.1399    2.6694    0.0000 S   0  0  0  0  0  0  0  0  0  0  0  0
   -0.7500    1.2990    0.0000 C   0  0  0  0  0  0  0  0  0  0  0  0
   -1.5000    2.5981    0.0000 Cl  0  0  0  0  0  0  0  0  0  0  0  0
    0.7500    1.2990    0.0000 C   0  0  0  0  0  0  0  0  0  0  0  0
  1  2  1  0
  2  3  2  0
  3  4  1  0
  4  5  1  0
  4  6  2  0
  6  7  1  0
  7  8  1  0
  8  9  2  0
  9 10  1  0
 10 11  2  0
 11 12  1  0
 12 13  1  0
 13 14  1  0
 14 15  2  0
 14 16  1  0
 16 17  1  0
 17 18  1  0
 18 19  2  0
 18 20  1  0
 20 21  2  0
 21 22  1  0
 22 23  2  0
 23 24  1  0
 23 25  1  0
 25 26  2  0
 11 27  1  0
  6 28  1  0
 28 29  1  0
 28 30  2  0
 30  2  1  0
 27  8  1  0
 26 20  1  0
M  END
>  <Compound_ID>  (841) 
C16328405

>  <Active>  (841) 
0.0

>  <Smiles>  (841) 
Cc1cc(C)c(Nc2nnc(SCC(=O)NNC(=O)c3ccc(F)cc3)s2)c(Cl)c1

>  <canonical_smi>  (841) 
Cc1cc(C)c(Nc2nnc(SCC(=O)NNC(=O)c3ccc(F)cc3)s2)c(Cl)c1

>  <Set>  (841) 
G2 inactive

>  <Set_type>  (841) 
Train

>  <MW>  (841) 
465.96

>  <HBD>  (841) 
3

>  <HBA>  (841) 
6

>  <NRB>  (841) 
6

>  <NR>  (841) 
3

>  <NAR>  (841) 
3

>  <PSA>  (841) 
96.01

>  <Standard Type>  (841) 
nan

>  <Standard Relation>  (841) 
nan

>  <Standard Units>  (841) 
nan

>  <Standard Value>  (841) 
nan

>  <Assay ChEMBL ID>  (841) 
nan

>  <Assay Description>  (841) 
nan

>  <BAO Label>  (841) 
nan

$$$$

     RDKit          2D

 36 40  0  0  0  0  0  0  0  0999 V2000
   -6.9177    4.3013    0.0000 C   0  0  0  0  0  0  0  0  0  0  0  0
   -7.2296    2.8340    0.0000 O   0  0  0  0  0  0  0  0  0  0  0  0
   -6.1149    1.8303    0.0000 C   0  0  0  0  0  0  0  0  0  0  0  0
   -4.6883    2.2939    0.0000 C   0  0  0  0  0  0  0  0  0  0  0  0
   -3.5736    1.2902    0.0000 C   0  0  0  0  0  0  0  0  0  0  0  0
   -2.1470    1.7537    0.0000 C   0  0  0  0  0  0  0  0  0  0  0  0
   -1.8351    3.2209    0.0000 N   0  0  0  0  0  0  0  0  0  0  0  0
   -0.4086    3.6844    0.0000 C   0  0  0  0  0  0  0  0  0  0  0  0
   -0.0967    5.1517    0.0000 C   0  0  0  0  0  0  0  0  0  0  0  0
    1.3299    5.6152    0.0000 C   0  0  0  0  0  0  0  0  0  0  0  0
    2.4446    4.6115    0.0000 C   0  0  0  0  0  0  0  0  0  0  0  0
    3.8712    5.0750    0.0000 S   0  0  0  0  0  0  0  0  0  0  0  0
    4.3347    3.6484    0.0000 O   0  0  0  0  0  0  0  0  0  0  0  0
    3.4077    6.5016    0.0000 O   0  0  0  0  0  0  0  0  0  0  0  0
    5.2978    5.5385    0.0000 N   0  0  0  0  0  0  0  0  0  0  0  0
    5.6097    7.0058    0.0000 C   0  0  0  0  0  0  0  0  0  0  0  0
    6.4125    4.5348    0.0000 C   0  0  0  0  0  0  0  0  0  0  0  0
    6.1006    3.0676    0.0000 C   0  0  0  0  0  0  0  0  0  0  0  0
    7.2154    2.0639    0.0000 C   0  0  0  0  0  0  0  0  0  0  0  0
    8.6419    2.5275    0.0000 C   0  0  0  0  0  0  0  0  0  0  0  0
    8.9538    3.9947    0.0000 C   0  0  0  0  0  0  0  0  0  0  0  0
    7.8391    4.9984    0.0000 C   0  0  0  0  0  0  0  0  0  0  0  0
    2.1328    3.1443    0.0000 C   0  0  0  0  0  0  0  0  0  0  0  0
    0.7062    2.6807    0.0000 C   0  0  0  0  0  0  0  0  0  0  0  0
    0.3943    1.2135    0.0000 C   0  0  0  0  0  0  0  0  0  0  0  0
    1.2760    0.0000    0.0000 C   0  0  0  0  0  0  0  0  0  0  0  0
    0.3943   -1.2135    0.0000 C   0  0  0  0  0  0  0  0  0  0  0  0
   -1.0323   -0.7500    0.0000 C   0  0  0  0  0  0  0  0  0  0  0  0
   -1.0323    0.7500    0.0000 C   0  0  0  0  0  0  0  0  0  0  0  0
   -3.8855   -0.1771    0.0000 C   0  0  0  0  0  0  0  0  0  0  0  0
   -5.3120   -0.6406    0.0000 C   0  0  0  0  0  0  0  0  0  0  0  0
   -5.6239   -2.1078    0.0000 O   0  0  0  0  0  0  0  0  0  0  0  0
   -7.0505   -2.5713    0.0000 C   0  0  0  0  0  0  0  0  0  0  0  0
   -6.4268    0.3631    0.0000 C   0  0  0  0  0  0  0  0  0  0  0  0
   -7.8533   -0.1004    0.0000 O   0  0  0  0  0  0  0  0  0  0  0  0
   -8.9681    0.9033    0.0000 C   0  0  0  0  0  0  0  0  0  0  0  0
  1  2  1  0
  2  3  1  0
  3  4  2  0
  4  5  1  0
  6  5  1  6
  6  7  1  0
  7  8  1  0
  8  9  2  0
  9 10  1  0
 10 11  2  0
 11 12  1  0
 12 13  2  0
 12 14  2  0
 12 15  1  0
 15 16  1  0
 15 17  1  0
 17 18  1  0
 18 19  1  0
 19 20  1  0
 20 21  1  0
 21 22  1  0
 11 23  1  0
 23 24  2  0
 24 25  1  0
 25 26  1  6
 26 27  2  0
 27 28  1  0
 29 28  1  1
  5 30  2  0
 30 31  1  0
 31 32  1  0
 32 33  1  0
 31 34  2  0
 34 35  1  0
 35 36  1  0
 34  3  1  0
 29  6  1  0
 24  8  1  0
 29 25  1  0
 22 17  1  0
M  END
>  <Compound_ID>  (842) 
C20683096

>  <Active>  (842) 
0.0

>  <Smiles>  (842) 
COc1cc([C@@H]2Nc3ccc(S(=O)(=O)N(C)C4CCCCC4)cc3[C@@H]3C=CC[C@H]32)cc(OC)c1OC

>  <canonical_smi>  (842) 
COc1cc([C@@H]2Nc3ccc(S(=O)(=O)N(C)C4CCCCC4)cc3[C@@H]3C=CC[C@H]32)cc(OC)c1OC

>  <Set>  (842) 
G2 inactive

>  <Set_type>  (842) 
Train

>  <MW>  (842) 
512.67

>  <HBD>  (842) 
1

>  <HBA>  (842) 
6

>  <NRB>  (842) 
7

>  <NR>  (842) 
5

>  <NAR>  (842) 
2

>  <PSA>  (842) 
77.1

>  <Standard Type>  (842) 
nan

>  <Standard Relation>  (842) 
nan

>  <Standard Units>  (842) 
nan

>  <Standard Value>  (842) 
nan

>  <Assay ChEMBL ID>  (842) 
nan

>  <Assay Description>  (842) 
nan

>  <BAO Label>  (842) 
nan

$$$$

     RDKit          2D

 21 22  0  0  0  0  0  0  0  0999 V2000
    3.0000    0.0000    0.0000 C   0  0  0  0  0  0  0  0  0  0  0  0
    1.5000    0.0000    0.0000 C   0  0  0  0  0  0  0  0  0  0  0  0
    0.7500   -1.2990    0.0000 C   0  0  0  0  0  0  0  0  0  0  0  0
   -0.7500   -1.2990    0.0000 C   0  0  0  0  0  0  0  0  0  0  0  0
   -1.5000    0.0000    0.0000 C   0  0  0  0  0  0  0  0  0  0  0  0
   -3.0000    0.0000    0.0000 O   0  0  0  0  0  0  0  0  0  0  0  0
   -3.7500   -1.2990    0.0000 C   0  0  0  0  0  0  0  0  0  0  0  0
   -3.0000   -2.5981    0.0000 N   0  0  0  0  0  0  0  0  0  0  0  0
   -3.7500   -3.8971    0.0000 C   0  0  0  0  0  0  0  0  0  0  0  0
   -5.2500   -3.8971    0.0000 C   0  0  0  0  0  0  0  0  0  0  0  0
   -6.0000   -2.5981    0.0000 N   0  0  0  0  0  0  0  0  0  0  0  0
   -5.2500   -1.2990    0.0000 C   0  0  0  0  0  0  0  0  0  0  0  0
   -6.0000   -0.0000    0.0000 C   0  0  0  0  0  0  0  0  0  0  0  0
   -7.5000   -0.0000    0.0000 N   0  0  0  0  0  0  0  0  0  0  0  0
   -5.2500    1.2990    0.0000 S   0  0  0  0  0  0  0  0  0  0  0  0
   -0.7500    1.2990    0.0000 C   0  0  0  0  0  0  0  0  0  0  0  0
   -1.5000    2.5981    0.0000 C   0  0  0  0  0  0  0  0  0  0  0  0
   -0.2010    3.3481    0.0000 C   0  0  0  0  0  0  0  0  0  0  0  0
   -2.7990    1.8481    0.0000 C   0  0  0  0  0  0  0  0  0  0  0  0
   -2.2500    3.8971    0.0000 C   0  0  0  0  0  0  0  0  0  0  0  0
    0.7500    1.2990    0.0000 C   0  0  0  0  0  0  0  0  0  0  0  0
  1  2  1  0
  2  3  2  0
  3  4  1  0
  4  5  2  0
  5  6  1  0
  6  7  1  0
  7  8  2  0
  8  9  1  0
  9 10  2  0
 10 11  1  0
 11 12  2  0
 12 13  1  0
 13 14  1  0
 13 15  2  0
  5 16  1  0
 16 17  1  0
 17 18  1  0
 17 19  1  0
 17 20  1  0
 16 21  2  0
 21  2  1  0
 12  7  1  0
M  END
>  <Compound_ID>  (843) 
C54398518

>  <Active>  (843) 
0.0

>  <Smiles>  (843) 
Cc1ccc(Oc2nccnc2C(N)=S)c(C(C)(C)C)c1

>  <canonical_smi>  (843) 
Cc1ccc(Oc2nccnc2C(N)=S)c(C(C)(C)C)c1

>  <Set>  (843) 
G2 inactive

>  <Set_type>  (843) 
Train

>  <MW>  (843) 
301.42

>  <HBD>  (843) 
1

>  <HBA>  (843) 
5

>  <NRB>  (843) 
3

>  <NR>  (843) 
2

>  <NAR>  (843) 
2

>  <PSA>  (843) 
61.03

>  <Standard Type>  (843) 
nan

>  <Standard Relation>  (843) 
nan

>  <Standard Units>  (843) 
nan

>  <Standard Value>  (843) 
nan

>  <Assay ChEMBL ID>  (843) 
nan

>  <Assay Description>  (843) 
nan

>  <BAO Label>  (843) 
nan

$$$$

     RDKit          2D

 22 24  0  0  0  0  0  0  0  0999 V2000
   -3.0000   -2.5981    0.0000 C   0  0  0  0  0  0  0  0  0  0  0  0
   -1.5000   -2.5981    0.0000 C   0  0  0  0  0  0  0  0  0  0  0  0
   -0.7500   -3.8971    0.0000 C   0  0  0  0  0  0  0  0  0  0  0  0
    0.7500   -3.8971    0.0000 C   0  0  0  0  0  0  0  0  0  0  0  0
    1.5000   -5.1962    0.0000 N   0  0  0  0  0  0  0  0  0  0  0  0
    0.7500   -6.4952    0.0000 C   0  0  0  0  0  0  0  0  0  0  0  0
    1.5000   -7.7942    0.0000 C   0  0  0  0  0  0  0  0  0  0  0  0
    0.7500   -9.0933    0.0000 N   0  0  0  0  0  0  0  0  0  0  0  0
    1.5000  -10.3923    0.0000 C   0  0  0  0  0  0  0  0  0  0  0  0
    3.0000  -10.3923    0.0000 C   0  0  0  0  0  0  0  0  0  0  0  0
    3.7500  -11.6913    0.0000 C   0  0  0  0  0  0  0  0  0  0  0  0
    5.2500  -11.6913    0.0000 O   0  0  0  0  0  1  0  0  0  0  0  0
    3.0000  -12.9904    0.0000 C   0  0  0  0  0  0  0  0  0  0  0  0
    1.5000  -12.9904    0.0000 C   0  0  0  0  0  0  0  0  0  0  0  0
    0.7500  -11.6913    0.0000 C   0  0  0  0  0  0  0  0  0  0  0  0
    1.5000   -2.5981    0.0000 N   0  0  0  0  0  4  0  0  0  0  0  0
    0.7500   -1.2990    0.0000 C   0  0  0  0  0  0  0  0  0  0  0  0
    1.5000    0.0000    0.0000 C   0  0  0  0  0  0  0  0  0  0  0  0
    0.7500    1.2990    0.0000 C   0  0  0  0  0  0  0  0  0  0  0  0
   -0.7500    1.2990    0.0000 C   0  0  0  0  0  0  0  0  0  0  0  0
   -1.5000    0.0000    0.0000 C   0  0  0  0  0  0  0  0  0  0  0  0
   -0.7500   -1.2990    0.0000 C   0  0  0  0  0  0  0  0  0  0  0  0
  1  2  1  0
  2  3  2  0
  3  4  1  0
  4  5  1  0
  5  6  1  0
  6  7  1  0
  7  8  1  0
  8  9  2  0
  9 10  1  0
 10 11  2  0
 11 12  1  0
 11 13  1  0
 13 14  1  0
 14 15  1  0
  4 16  2  0
 16 17  1  0
 17 18  2  0
 18 19  1  0
 19 20  2  0
 20 21  1  0
 21 22  2  0
 22  2  1  0
 15  9  1  0
 22 17  1  0
M  CHG  2  12  -1  16   1
M  END
>  <Compound_ID>  (844) 
C22861624

>  <Active>  (844) 
0.0

>  <Smiles>  (844) 
Cc1cc(NCC/N=C2\C=C([O-])CCC2)[nH+]c2ccccc12

>  <canonical_smi>  (844) 
Cc1cc(NCC/N=C2\C=C([O-])CCC2)[nH+]c2ccccc12

>  <Set>  (844) 
G2 inactive

>  <Set_type>  (844) 
Train

>  <MW>  (844) 
295.39

>  <HBD>  (844) 
1

>  <HBA>  (844) 
2

>  <NRB>  (844) 
4

>  <NR>  (844) 
3

>  <NAR>  (844) 
2

>  <PSA>  (844) 
61.59

>  <Standard Type>  (844) 
nan

>  <Standard Relation>  (844) 
nan

>  <Standard Units>  (844) 
nan

>  <Standard Value>  (844) 
nan

>  <Assay ChEMBL ID>  (844) 
nan

>  <Assay Description>  (844) 
nan

>  <BAO Label>  (844) 
nan

$$$$

     RDKit          2D

 27 31  0  0  0  0  0  0  0  0999 V2000
   -4.0819   -1.9062    0.0000 N   0  0  0  0  0  0  0  0  0  0  0  0
   -2.9672   -2.9099    0.0000 C   0  0  0  0  0  0  0  0  0  0  0  0
   -1.5000   -2.5981    0.0000 C   0  0  0  0  0  0  0  0  0  0  0  0
   -0.7500   -3.8971    0.0000 C   0  0  0  0  0  0  0  0  0  0  0  0
    0.7500   -3.8971    0.0000 N   0  0  0  0  0  0  0  0  0  0  0  0
    1.5000   -2.5981    0.0000 C   0  0  0  0  0  0  0  0  0  0  0  0
    3.0000   -2.5981    0.0000 N   0  0  0  0  0  0  0  0  0  0  0  0
    3.7500   -3.8971    0.0000 C   0  0  0  0  0  0  0  0  0  0  0  0
    3.0000   -5.1962    0.0000 C   0  0  0  0  0  0  0  0  0  0  0  0
    3.7500   -6.4952    0.0000 C   0  0  0  0  0  0  0  0  0  0  0  0
    5.2500   -6.4952    0.0000 C   0  0  0  0  0  0  0  0  0  0  0  0
    6.0000   -5.1962    0.0000 C   0  0  0  0  0  0  0  0  0  0  0  0
    5.2500   -3.8971    0.0000 C   0  0  0  0  0  0  0  0  0  0  0  0
    0.7500   -1.2990    0.0000 C   0  0  0  0  0  0  0  0  0  0  0  0
    1.5000    0.0000    0.0000 C   0  0  0  0  0  0  0  0  0  0  0  0
    0.7500    1.2990    0.0000 N   0  0  0  0  0  4  0  0  0  0  0  0
    1.5000    2.5981    0.0000 C   0  0  0  0  0  0  0  0  0  0  0  0
    3.0000    2.5981    0.0000 C   0  0  0  0  0  0  0  0  0  0  0  0
    3.7500    3.8971    0.0000 C   0  0  0  0  0  0  0  0  0  0  0  0
    3.0000    5.1962    0.0000 C   0  0  0  0  0  0  0  0  0  0  0  0
    1.5000    5.1962    0.0000 C   0  0  0  0  0  0  0  0  0  0  0  0
    0.7500    3.8971    0.0000 C   0  0  0  0  0  0  0  0  0  0  0  0
   -0.7500    1.2990    0.0000 C   0  0  0  0  0  0  0  0  0  0  0  0
   -1.5000    0.0000    0.0000 C   0  0  0  0  0  0  0  0  0  0  0  0
   -0.7500   -1.2990    0.0000 C   0  0  0  0  0  0  0  0  0  0  0  0
   -1.7537   -5.0118    0.0000 N   0  0  0  0  0  0  0  0  0  0  0  0
   -3.1240   -4.4017    0.0000 N   0  0  0  0  0  0  0  0  0  0  0  0
  1  2  1  0
  2  3  2  0
  3  4  1  0
  4  5  2  0
  5  6  1  0
  6  7  1  0
  7  8  1  0
  8  9  2  0
  9 10  1  0
 10 11  2  0
 11 12  1  0
 12 13  2  0
  6 14  2  0
 14 15  1  0
 15 16  1  0
 16 17  1  0
 17 18  1  0
 18 19  1  0
 19 20  1  0
 20 21  1  0
 21 22  1  0
 16 23  1  0
 23 24  1  0
 25 24  1  6
  4 26  1  0
 26 27  2  0
 27  2  1  0
 25  3  1  0
 13  8  1  0
 25 14  1  0
 22 17  1  0
M  CHG  1  16   1
M  END
>  <Compound_ID>  (845) 
C38752488

>  <Active>  (845) 
0.0

>  <Smiles>  (845) 
NC1=C2C(=NC(Nc3ccccc3)=C3C[NH+](C4CCCCC4)CC[C@H]32)N=N1

>  <canonical_smi>  (845) 
NC1=C2C(=NC(Nc3ccccc3)=C3C[NH+](C4CCCCC4)CC[C@H]32)N=N1

>  <Set>  (845) 
G2 inactive

>  <Set_type>  (845) 
Train

>  <MW>  (845) 
363.49

>  <HBD>  (845) 
3

>  <HBA>  (845) 
2

>  <NRB>  (845) 
3

>  <NR>  (845) 
5

>  <NAR>  (845) 
1

>  <PSA>  (845) 
79.57

>  <Standard Type>  (845) 
nan

>  <Standard Relation>  (845) 
nan

>  <Standard Units>  (845) 
nan

>  <Standard Value>  (845) 
nan

>  <Assay ChEMBL ID>  (845) 
nan

>  <Assay Description>  (845) 
nan

>  <BAO Label>  (845) 
nan

$$$$

     RDKit          2D

 34 38  0  0  0  0  0  0  0  0999 V2000
    5.7228  -10.2766    0.0000 C   0  0  0  0  0  0  0  0  0  0  0  0
    4.5738   -9.3124    0.0000 C   0  0  0  0  0  0  0  0  0  0  0  0
    4.6784   -7.8160    0.0000 N   0  0  0  0  0  0  0  0  0  0  0  0
    3.2876   -7.2541    0.0000 C   0  0  0  0  0  0  0  0  0  0  0  0
    2.9247   -5.7987    0.0000 C   0  0  0  0  0  0  0  0  0  0  0  0
    1.5340   -5.2368    0.0000 C   0  0  0  0  0  0  0  0  0  0  0  0
    0.2619   -6.0317    0.0000 N   0  0  0  0  0  0  0  0  0  0  0  0
    1.6386   -3.7404    0.0000 N   0  0  0  0  0  4  0  0  0  0  0  0
    0.4895   -2.7762    0.0000 C   0  0  0  0  0  0  0  0  0  0  0  0
    0.7500   -1.2990    0.0000 C   0  0  0  0  0  0  0  0  0  0  0  0
    2.1595   -1.8121    0.0000 C   0  0  0  0  0  0  0  0  0  0  0  0
    1.5000    0.0000    0.0000 C   0  0  0  0  0  0  0  0  0  0  0  0
    0.7500    1.2990    0.0000 C   0  0  0  0  0  0  0  0  0  0  0  0
   -0.7500    1.2990    0.0000 C   0  0  0  0  0  0  0  0  0  0  0  0
   -1.5000    0.0000    0.0000 C   0  0  0  0  0  0  0  0  0  0  0  0
   -2.2500    1.2990    0.0000 C   0  0  0  0  0  0  0  0  0  0  0  0
   -3.0000    0.0000    0.0000 C   0  0  0  0  0  0  0  0  0  0  0  0
   -3.7500    1.2990    0.0000 C   0  0  0  0  0  0  0  0  0  0  0  0
   -5.2500    1.2990    0.0000 C   0  0  0  0  0  0  0  0  0  0  0  0
   -6.0000    0.0000    0.0000 C   0  0  0  0  0  0  0  0  0  0  0  0
   -7.5000    0.0000    0.0000 C   0  0  0  0  0  0  0  0  0  0  0  0
   -8.2500    1.2990    0.0000 C   0  0  0  0  0  0  0  0  0  0  0  0
   -8.2500   -1.2990    0.0000 C   0  0  0  0  0  0  0  0  0  0  0  0
   -5.2500   -1.2990    0.0000 C   0  0  0  0  0  0  0  0  0  0  0  0
   -3.7500   -1.2990    0.0000 C   0  0  0  0  0  0  0  0  0  0  0  0
   -3.0000   -2.5981    0.0000 C   0  0  0  0  0  0  0  0  0  0  0  0
   -1.5000   -2.5981    0.0000 C   0  0  0  0  0  0  0  0  0  0  0  0
   -0.7500   -1.2990    0.0000 C   0  0  0  0  0  0  0  0  0  0  0  0
    3.0940   -3.3775    0.0000 C   0  0  0  0  0  0  0  0  0  0  0  0
    3.8889   -4.6496    0.0000 C   0  0  0  0  0  0  0  0  0  0  0  0
    5.3853   -4.7543    0.0000 O   0  0  0  0  0  0  0  0  0  0  0  0
    2.3234   -8.4032    0.0000 S   0  0  0  0  0  0  0  0  0  0  0  0
    3.1183   -9.6753    0.0000 C   0  0  0  0  0  0  0  0  0  0  0  0
    2.5564  -11.0660    0.0000 C   0  0  0  0  0  0  0  0  0  0  0  0
  1  2  1  0
  2  3  1  0
  3  4  2  0
  4  5  1  0
  5  6  2  0
  6  7  1  0
  6  8  1  0
  8  9  1  0
  9 10  1  0
 10 11  1  1
 10 12  1  0
 12 13  1  0
 13 14  1  0
 14 15  1  0
 15 16  1  6
 15 17  1  0
 17 18  2  0
 18 19  1  0
 19 20  2  0
 20 21  1  0
 21 22  1  0
 21 23  1  0
 20 24  1  0
 24 25  2  0
 25 26  1  0
 26 27  1  0
 28 27  1  6
  8 29  1  0
 29 30  1  0
 30 31  2  0
  4 32  1  0
 32 33  1  0
 33 34  1  0
 33  2  2  0
 30  5  1  0
 28 10  1  0
 28 15  1  0
 25 17  1  0
M  CHG  1   8   1
M  END
>  <Compound_ID>  (846) 
C30819386

>  <Active>  (846) 
0.0

>  <Smiles>  (846) 
Cc1nc(C2=C(N)[NH+](C[C@@]3(C)CCC[C@]4(C)c5ccc(C(C)C)cc5CC[C@@H]34)CC2=O)sc1C

>  <canonical_smi>  (846) 
Cc1nc(C2=C(N)[NH+](C[C@@]3(C)CCC[C@]4(C)c5ccc(C(C)C)cc5CC[C@@H]34)CC2=O)sc1C

>  <Set>  (846) 
G2 inactive

>  <Set_type>  (846) 
Train

>  <MW>  (846) 
478.73

>  <HBD>  (846) 
2

>  <HBA>  (846) 
3

>  <NRB>  (846) 
4

>  <NR>  (846) 
5

>  <NAR>  (846) 
2

>  <PSA>  (846) 
60.42

>  <Standard Type>  (846) 
nan

>  <Standard Relation>  (846) 
nan

>  <Standard Units>  (846) 
nan

>  <Standard Value>  (846) 
nan

>  <Assay ChEMBL ID>  (846) 
nan

>  <Assay Description>  (846) 
nan

>  <BAO Label>  (846) 
nan

$$$$

     RDKit          2D

 35 38  0  0  0  0  0  0  0  0999 V2000
    4.5000   -5.1962    0.0000 C   0  0  0  0  0  0  0  0  0  0  0  0
    3.7500   -3.8971    0.0000 C   0  0  0  0  0  0  0  0  0  0  0  0
    4.5000   -2.5981    0.0000 O   0  0  0  0  0  0  0  0  0  0  0  0
    3.7500   -1.2990    0.0000 S   0  0  0  0  0  0  0  0  0  0  0  0
    5.0490   -0.5490    0.0000 O   0  0  0  0  0  0  0  0  0  0  0  0
    2.4510   -2.0490    0.0000 O   0  0  0  0  0  0  0  0  0  0  0  0
    3.0000    0.0000    0.0000 N   0  0  0  0  0  2  0  0  0  0  0  0
    1.5000    0.0000    0.0000 C   0  0  0  0  0  0  0  0  0  0  0  0
    0.7500   -1.2990    0.0000 C   0  0  0  0  0  0  0  0  0  0  0  0
   -0.7500   -1.2990    0.0000 C   0  0  0  0  0  0  0  0  0  0  0  0
   -1.5000    0.0000    0.0000 C   0  0  0  0  0  0  0  0  0  0  0  0
   -3.0000    0.0000    0.0000 C   0  0  0  0  0  0  0  0  0  0  0  0
   -3.7500    1.2990    0.0000 C   0  0  0  0  0  0  0  0  0  0  0  0
   -5.2500    1.2990    0.0000 C   0  0  0  0  0  0  0  0  0  0  0  0
   -6.0000    0.0000    0.0000 C   0  0  0  0  0  0  0  0  0  0  0  0
   -5.2500   -1.2990    0.0000 C   0  0  0  0  0  0  0  0  0  0  0  0
   -3.7500   -1.2990    0.0000 C   0  0  0  0  0  0  0  0  0  0  0  0
   -0.7500    1.2990    0.0000 C   0  0  0  0  0  0  0  0  0  0  0  0
    0.7500    1.2990    0.0000 C   0  0  0  0  0  0  0  0  0  0  0  0
    1.5000    2.5981    0.0000 N   0  0  0  0  0  0  0  0  0  0  0  0
    3.0000    2.5981    0.0000 C   0  0  0  0  0  0  0  0  0  0  0  0
    3.7500    3.8971    0.0000 C   0  0  0  0  0  0  0  0  0  0  0  0
    3.0000    5.1962    0.0000 N   0  0  0  0  0  4  0  0  0  0  0  0
    1.5000    5.1962    0.0000 C   0  0  0  0  0  0  0  0  0  0  0  0
    0.7500    6.4952    0.0000 S   0  0  0  0  0  0  0  0  0  0  0  0
    2.0490    7.2452    0.0000 O   0  0  0  0  0  0  0  0  0  0  0  0
   -0.5490    5.7452    0.0000 O   0  0  0  0  0  0  0  0  0  0  0  0
    0.0000    7.7942    0.0000 O   0  0  0  0  0  0  0  0  0  0  0  0
   -1.5000    7.7942    0.0000 C   0  0  0  0  0  0  0  0  0  0  0  0
   -2.2500    9.0933    0.0000 C   0  0  0  0  0  0  0  0  0  0  0  0
   -3.7500    9.0933    0.0000 C   0  0  0  0  0  0  0  0  0  0  0  0
   -4.5000    7.7942    0.0000 C   0  0  0  0  0  0  0  0  0  0  0  0
   -3.7500    6.4952    0.0000 C   0  0  0  0  0  0  0  0  0  0  0  0
   -2.2500    6.4952    0.0000 C   0  0  0  0  0  0  0  0  0  0  0  0
    0.7500    3.8971    0.0000 C   0  0  0  0  0  0  0  0  0  0  0  0
  1  2  1  0
  2  3  1  0
  3  4  1  0
  4  5  2  0
  4  6  2  0
  4  7  1  0
  7  8  1  0
  8  9  2  0
  9 10  1  0
 10 11  2  0
 11 12  1  0
 12 13  2  0
 13 14  1  0
 14 15  2  0
 15 16  1  0
 16 17  2  0
 11 18  1  0
 18 19  2  0
 19 20  1  0
 20 21  1  0
 21 22  1  0
 22 23  1  0
 23 24  1  0
 24 25  1  6
 25 26  2  0
 25 27  2  0
 25 28  1  0
 28 29  1  0
 29 30  2  0
 30 31  1  0
 31 32  2  0
 32 33  1  0
 33 34  2  0
 24 35  1  0
 19  8  1  0
 35 20  1  0
 17 12  1  0
 34 29  1  0
M  CHG  2   7  -1  23   1
M  END
>  <Compound_ID>  (847) 
C39482229

>  <Active>  (847) 
0.0

>  <Smiles>  (847) 
CCOS(=O)(=O)[N-]c1ccc(-c2ccccc2)cc1N1CC[NH2+][C@@H](S(=O)(=O)Oc2ccccc2)C1

>  <canonical_smi>  (847) 
CCOS(=O)(=O)[N-]c1ccc(-c2ccccc2)cc1N1CC[NH2+][C@@H](S(=O)(=O)Oc2ccccc2)C1

>  <Set>  (847) 
G2 inactive

>  <Set_type>  (847) 
Train

>  <MW>  (847) 
517.63

>  <HBD>  (847) 
1

>  <HBA>  (847) 
7

>  <NRB>  (847) 
9

>  <NR>  (847) 
4

>  <NAR>  (847) 
3

>  <PSA>  (847) 
120.69

>  <Standard Type>  (847) 
nan

>  <Standard Relation>  (847) 
nan

>  <Standard Units>  (847) 
nan

>  <Standard Value>  (847) 
nan

>  <Assay ChEMBL ID>  (847) 
nan

>  <Assay Description>  (847) 
nan

>  <BAO Label>  (847) 
nan

$$$$

     RDKit          2D

 35 38  0  0  0  0  0  0  0  0999 V2000
   -0.7500  -11.6913    0.0000 C   0  0  0  0  0  0  0  0  0  0  0  0
   -1.5000  -10.3923    0.0000 C   0  0  0  0  0  0  0  0  0  0  0  0
   -0.7500   -9.0933    0.0000 O   0  0  0  0  0  0  0  0  0  0  0  0
   -1.5000   -7.7942    0.0000 C   0  0  0  0  0  0  0  0  0  0  0  0
   -3.0000   -7.7942    0.0000 O   0  0  0  0  0  0  0  0  0  0  0  0
   -0.7500   -6.4952    0.0000 C   0  0  0  0  0  0  0  0  0  0  0  0
   -1.5000   -5.1962    0.0000 C   0  0  0  0  0  0  0  0  0  0  0  0
   -0.7500   -3.8971    0.0000 N   0  0  0  0  0  0  0  0  0  0  0  0
    0.7500   -3.8971    0.0000 C   0  0  0  0  0  0  0  0  0  0  0  0
    1.5000   -2.5981    0.0000 N   0  0  0  0  0  0  0  0  0  0  0  0
    0.7500   -1.2990    0.0000 C   0  0  0  0  0  0  0  0  0  0  0  0
    1.5000    0.0000    0.0000 C   0  0  0  0  0  0  0  0  0  0  0  0
    0.7500    1.2990    0.0000 C   0  0  0  0  0  0  0  0  0  0  0  0
   -0.7500    1.2990    0.0000 C   0  0  0  0  0  0  0  0  0  0  0  0
   -1.5000    0.0000    0.0000 C   0  0  0  0  0  0  0  0  0  0  0  0
   -0.7500   -1.2990    0.0000 C   0  0  0  0  0  0  0  0  0  0  0  0
   -1.5000   -2.5981    0.0000 C   0  0  0  0  0  0  0  0  0  0  0  0
   -3.0000   -2.5981    0.0000 O   0  0  0  0  0  0  0  0  0  0  0  0
   -3.0000  -10.3923    0.0000 C   0  0  0  0  0  0  0  0  0  0  0  0
   -3.7500   -9.0933    0.0000 O   0  0  0  0  0  0  0  0  0  0  0  0
   -3.7500  -11.6913    0.0000 N   0  0  0  0  0  0  0  0  0  0  0  0
   -3.0000  -12.9904    0.0000 C   0  0  0  0  0  0  0  0  0  0  0  0
   -3.7500  -14.2894    0.0000 C   0  0  0  0  0  0  0  0  0  0  0  0
   -3.0000  -15.5885    0.0000 O   0  0  0  0  0  0  0  0  0  0  0  0
   -5.2500  -14.2894    0.0000 N   0  0  0  0  0  0  0  0  0  0  0  0
   -6.0000  -12.9904    0.0000 C   0  0  0  0  0  0  0  0  0  0  0  0
   -7.5000  -12.9904    0.0000 C   0  0  0  0  0  0  0  0  0  0  0  0
   -8.2500  -11.6913    0.0000 C   0  0  0  0  0  0  0  0  0  0  0  0
   -9.7500  -11.6913    0.0000 C   0  0  0  0  0  0  0  0  0  0  0  0
  -11.2500  -11.6913    0.0000 F   0  0  0  0  0  0  0  0  0  0  0  0
   -9.7500  -10.1913    0.0000 F   0  0  0  0  0  0  0  0  0  0  0  0
   -9.7500  -13.1913    0.0000 F   0  0  0  0  0  0  0  0  0  0  0  0
   -7.5000  -10.3923    0.0000 C   0  0  0  0  0  0  0  0  0  0  0  0
   -6.0000  -10.3923    0.0000 C   0  0  0  0  0  0  0  0  0  0  0  0
   -5.2500  -11.6913    0.0000 C   0  0  0  0  0  0  0  0  0  0  0  0
  2  1  1  1
  2  3  1  0
  3  4  1  0
  4  5  2  0
  4  6  1  0
  6  7  1  0
  7  8  1  0
  8  9  1  0
  9 10  2  0
 10 11  1  0
 11 12  2  0
 12 13  1  0
 13 14  2  0
 14 15  1  0
 15 16  2  0
 16 17  1  0
 17 18  2  0
  2 19  1  0
 19 20  2  0
 19 21  1  0
 21 22  1  0
 22 23  1  0
 23 24  2  0
 23 25  1  0
 25 26  1  0
 26 27  2  0
 27 28  1  0
 28 29  1  0
 29 30  1  0
 29 31  1  0
 29 32  1  0
 28 33  2  0
 33 34  1  0
 34 35  2  0
 17  8  1  0
 35 21  1  0
 16 11  1  0
 35 26  1  0
M  END
>  <Compound_ID>  (848) 
C32850583

>  <Active>  (848) 
0.0

>  <Smiles>  (848) 
C[C@H](OC(=O)CCn1cnc2ccccc2c1=O)C(=O)N1CC(=O)Nc2cc(C(F)(F)F)ccc21

>  <canonical_smi>  (848) 
C[C@H](OC(=O)CCn1cnc2ccccc2c1=O)C(=O)N1CC(=O)Nc2cc(C(F)(F)F)ccc21

>  <Set>  (848) 
G2 inactive

>  <Set_type>  (848) 
Train

>  <MW>  (848) 
488.42

>  <HBD>  (848) 
1

>  <HBA>  (848) 
6

>  <NRB>  (848) 
5

>  <NR>  (848) 
4

>  <NAR>  (848) 
3

>  <PSA>  (848) 
110.6

>  <Standard Type>  (848) 
nan

>  <Standard Relation>  (848) 
nan

>  <Standard Units>  (848) 
nan

>  <Standard Value>  (848) 
nan

>  <Assay ChEMBL ID>  (848) 
nan

>  <Assay Description>  (848) 
nan

>  <BAO Label>  (848) 
nan

$$$$

     RDKit          2D

 28 32  0  0  0  0  0  0  0  0999 V2000
   -0.8995    7.6226    0.0000 F   0  0  0  0  0  0  0  0  0  0  0  0
    0.5271    8.0861    0.0000 C   0  0  0  0  0  0  0  0  0  0  0  0
    0.8389    9.5533    0.0000 C   0  0  0  0  0  0  0  0  0  0  0  0
    2.2655   10.0169    0.0000 C   0  0  0  0  0  0  0  0  0  0  0  0
    3.3802    9.0132    0.0000 C   0  0  0  0  0  0  0  0  0  0  0  0
    3.0684    7.5459    0.0000 C   0  0  0  0  0  0  0  0  0  0  0  0
    1.6418    7.0824    0.0000 C   0  0  0  0  0  0  0  0  0  0  0  0
    1.3299    5.6152    0.0000 C   0  0  0  0  0  0  0  0  0  0  0  0
   -0.0967    5.1517    0.0000 C   0  0  0  0  0  0  0  0  0  0  0  0
   -1.2114    6.1554    0.0000 C   0  0  0  0  0  0  0  0  0  0  0  0
   -2.6380    5.6918    0.0000 C   0  0  0  0  0  0  0  0  0  0  0  0
   -2.9499    4.2246    0.0000 C   0  0  0  0  0  0  0  0  0  0  0  0
   -1.8351    3.2209    0.0000 C   0  0  0  0  0  0  0  0  0  0  0  0
   -0.4086    3.6844    0.0000 C   0  0  0  0  0  0  0  0  0  0  0  0
    0.7062    2.6807    0.0000 N   0  0  0  0  0  0  0  0  0  0  0  0
    0.3943    1.2135    0.0000 C   0  0  0  0  0  0  0  0  0  0  0  0
    1.2760    0.0000    0.0000 N   0  0  0  0  0  4  0  0  0  0  0  0
    0.3943   -1.2135    0.0000 N   0  0  0  0  0  0  0  0  0  0  0  0
   -1.0323   -0.7500    0.0000 N   0  0  0  0  0  0  0  0  0  0  0  0
   -1.0323    0.7500    0.0000 N   0  0  0  0  0  0  0  0  0  0  0  0
   -2.1470    1.7537    0.0000 C   0  0  0  0  0  0  0  0  0  0  0  0
   -3.5736    1.2902    0.0000 C   0  0  0  0  0  0  0  0  0  0  0  0
   -4.6883    2.2939    0.0000 C   0  0  0  0  0  0  0  0  0  0  0  0
   -6.1149    1.8303    0.0000 C   0  0  0  0  0  0  0  0  0  0  0  0
   -6.4268    0.3631    0.0000 C   0  0  0  0  0  0  0  0  0  0  0  0
   -5.3120   -0.6406    0.0000 C   0  0  0  0  0  0  0  0  0  0  0  0
   -3.8855   -0.1771    0.0000 C   0  0  0  0  0  0  0  0  0  0  0  0
   -2.7707   -1.1807    0.0000 F   0  0  0  0  0  0  0  0  0  0  0  0
  1  2  1  0
  2  3  2  0
  3  4  1  0
  4  5  2  0
  5  6  1  0
  6  7  2  0
  7  8  1  0
  8  9  2  0
  9 10  1  0
 10 11  1  0
 11 12  1  0
 12 13  1  0
 13 14  2  0
 14 15  1  0
 15 16  2  0
 16 17  1  0
 17 18  2  0
 18 19  1  0
 19 20  1  0
 20 21  1  0
 21 22  1  6
 22 23  2  0
 23 24  1  0
 24 25  2  0
 25 26  1  0
 26 27  2  0
 27 28  1  0
  7  2  1  0
 14  9  1  0
 20 16  1  0
 27 22  1  0
 21 13  1  0
M  CHG  1  17   1
M  END
>  <Compound_ID>  (849) 
C13124620

>  <Active>  (849) 
0.0

>  <Smiles>  (849) 
Fc1ccccc1/C=C1\CCCC2=C1N=C1[NH+]=NNN1[C@@H]2c1ccccc1F

>  <canonical_smi>  (849) 
Fc1ccccc1/C=C1\CCCC2=C1N=C1[NH+]=NNN1[C@@H]2c1ccccc1F

>  <Set>  (849) 
G2 inactive

>  <Set_type>  (849) 
Train

>  <MW>  (849) 
378.41

>  <HBD>  (849) 
2

>  <HBA>  (849) 
2

>  <NRB>  (849) 
2

>  <NR>  (849) 
5

>  <NAR>  (849) 
2

>  <PSA>  (849) 
53.96

>  <Standard Type>  (849) 
nan

>  <Standard Relation>  (849) 
nan

>  <Standard Units>  (849) 
nan

>  <Standard Value>  (849) 
nan

>  <Assay ChEMBL ID>  (849) 
nan

>  <Assay Description>  (849) 
nan

>  <BAO Label>  (849) 
nan

$$$$

     RDKit          2D

 33 37  0  0  0  0  0  0  0  0999 V2000
    3.0000   -7.7942    0.0000 C   0  0  0  0  0  0  0  0  0  0  0  0
    3.7500   -6.4952    0.0000 C   0  0  0  0  0  0  0  0  0  0  0  0
    5.2500   -6.4952    0.0000 C   0  0  0  0  0  0  0  0  0  0  0  0
    3.0000   -5.1962    0.0000 N   0  0  0  0  0  4  0  0  0  0  0  0
    1.5000   -5.1962    0.0000 C   0  0  0  0  0  0  0  0  0  0  0  0
    0.7500   -3.8971    0.0000 C   0  0  0  0  0  0  0  0  0  0  0  0
    1.5000   -2.5981    0.0000 N   0  0  0  0  0  0  0  0  0  0  0  0
    0.7500   -1.2990    0.0000 C   0  0  0  0  0  0  0  0  0  0  0  0
    1.5000    0.0000    0.0000 N   0  0  0  0  0  0  0  0  0  0  0  0
    0.7500    1.2990    0.0000 C   0  0  0  0  0  0  0  0  0  0  0  0
    1.5000    2.5981    0.0000 C   0  0  0  0  0  0  0  0  0  0  0  0
    0.7500    3.8971    0.0000 C   0  0  0  0  0  0  0  0  0  0  0  0
    1.5000    5.1962    0.0000 C   0  0  0  0  0  0  0  0  0  0  0  0
    3.0000    5.1962    0.0000 C   0  0  0  0  0  0  0  0  0  0  0  0
    3.7500    3.8971    0.0000 C   0  0  0  0  0  0  0  0  0  0  0  0
    3.0000    2.5981    0.0000 C   0  0  0  0  0  0  0  0  0  0  0  0
    3.7500    1.2990    0.0000 Cl  0  0  0  0  0  0  0  0  0  0  0  0
   -0.7500    1.2990    0.0000 C   0  0  0  0  0  0  0  0  0  0  0  0
   -1.7537    2.4138    0.0000 C   0  0  0  0  0  0  0  0  0  0  0  0
   -1.4418    3.8810    0.0000 N   0  0  0  0  0  0  0  0  0  0  0  0
   -3.1240    1.8037    0.0000 N   0  0  0  0  0  0  0  0  0  0  0  0
   -4.4231    2.5537    0.0000 C   0  0  0  0  0  0  0  0  0  0  0  0
   -4.4231    4.0537    0.0000 C   0  0  0  0  0  0  0  0  0  0  0  0
   -5.7221    4.8037    0.0000 C   0  0  0  0  0  0  0  0  0  0  0  0
   -7.0211    4.0537    0.0000 C   0  0  0  0  0  0  0  0  0  0  0  0
   -8.3202    4.8037    0.0000 F   0  0  0  0  0  0  0  0  0  0  0  0
   -7.0211    2.5537    0.0000 C   0  0  0  0  0  0  0  0  0  0  0  0
   -5.7221    1.8037    0.0000 C   0  0  0  0  0  0  0  0  0  0  0  0
   -2.9672    0.3119    0.0000 N   0  0  0  0  0  0  0  0  0  0  0  0
   -1.5000    0.0000    0.0000 C   0  0  0  0  0  0  0  0  0  0  0  0
   -0.7500   -1.2990    0.0000 N   0  0  0  0  0  0  0  0  0  0  0  0
    3.0000   -2.5981    0.0000 C   0  0  0  0  0  0  0  0  0  0  0  0
    3.7500   -3.8971    0.0000 C   0  0  0  0  0  0  0  0  0  0  0  0
  1  2  1  0
  2  3  1  0
  2  4  1  0
  4  5  1  0
  5  6  1  0
  6  7  1  0
  7  8  1  0
  8  9  1  0
  9 10  2  0
 10 11  1  0
 11 12  2  0
 12 13  1  0
 13 14  2  0
 14 15  1  0
 15 16  2  0
 16 17  1  0
 10 18  1  0
 18 19  2  0
 19 20  1  0
 19 21  1  0
 21 22  1  0
 22 23  2  0
 23 24  1  0
 24 25  2  0
 25 26  1  0
 25 27  1  0
 27 28  2  0
 21 29  1  0
 29 30  2  0
 30 31  1  0
  7 32  1  0
 32 33  1  0
 33  4  1  0
 31  8  2  0
 16 11  1  0
 30 18  1  0
 28 22  1  0
M  CHG  1   4   1
M  END
>  <Compound_ID>  (850) 
C35929748

>  <Active>  (850) 
0.0

>  <Smiles>  (850) 
CC(C)[NH+]1CCN(c2nc(-c3ccccc3Cl)c3c(N)n(-c4ccc(F)cc4)nc3n2)CC1

>  <canonical_smi>  (850) 
CC(C)[NH+]1CCN(c2nc(-c3ccccc3Cl)c3c(N)n(-c4ccc(F)cc4)nc3n2)CC1

>  <Set>  (850) 
G2 inactive

>  <Set_type>  (850) 
Train

>  <MW>  (850) 
466.97

>  <HBD>  (850) 
2

>  <HBA>  (850) 
5

>  <NRB>  (850) 
4

>  <NR>  (850) 
5

>  <NAR>  (850) 
4

>  <PSA>  (850) 
77.3

>  <Standard Type>  (850) 
nan

>  <Standard Relation>  (850) 
nan

>  <Standard Units>  (850) 
nan

>  <Standard Value>  (850) 
nan

>  <Assay ChEMBL ID>  (850) 
nan

>  <Assay Description>  (850) 
nan

>  <BAO Label>  (850) 
nan

$$$$

     RDKit          2D

 27 29  0  0  0  0  0  0  0  0999 V2000
    6.3579   -8.4259    0.0000 C   0  0  0  0  0  0  0  0  0  0  0  0
    6.2011   -6.9341    0.0000 C   0  0  0  0  0  0  0  0  0  0  0  0
    7.4146   -6.0524    0.0000 C   0  0  0  0  0  0  0  0  0  0  0  0
    4.8308   -6.3240    0.0000 N   0  0  0  0  0  0  0  0  0  0  0  0
    4.6740   -4.8322    0.0000 C   0  0  0  0  0  0  0  0  0  0  0  0
    3.3037   -4.2221    0.0000 C   0  0  0  0  0  0  0  0  0  0  0  0
    2.0046   -4.9721    0.0000 N   0  0  0  0  0  0  0  0  0  0  0  0
    0.8899   -3.9684    0.0000 N   0  0  0  0  0  0  0  0  0  0  0  0
    1.5000   -2.5981    0.0000 C   0  0  0  0  0  0  0  0  0  0  0  0
    0.7500   -1.2990    0.0000 C   0  0  0  0  0  0  0  0  0  0  0  0
    1.5000    0.0000    0.0000 C   0  0  0  0  0  0  0  0  0  0  0  0
    0.7500    1.2990    0.0000 C   0  0  0  0  0  0  0  0  0  0  0  0
   -0.7500    1.2990    0.0000 C   0  0  0  0  0  0  0  0  0  0  0  0
   -1.5000    0.0000    0.0000 C   0  0  0  0  0  0  0  0  0  0  0  0
   -0.7500   -1.2990    0.0000 C   0  0  0  0  0  0  0  0  0  0  0  0
    2.9918   -2.7549    0.0000 O   0  0  0  0  0  0  0  0  0  0  0  0
    3.6172   -7.2057    0.0000 S   0  0  0  0  0  0  0  0  0  0  0  0
    2.7356   -5.9921    0.0000 O   0  0  0  0  0  0  0  0  0  0  0  0
    4.4989   -8.4192    0.0000 O   0  0  0  0  0  0  0  0  0  0  0  0
    2.4037   -8.0873    0.0000 C   0  0  0  0  0  0  0  0  0  0  0  0
    1.0334   -7.4772    0.0000 C   0  0  0  0  0  0  0  0  0  0  0  0
   -0.1801   -8.3589    0.0000 C   0  0  0  0  0  0  0  0  0  0  0  0
   -1.5505   -7.7488    0.0000 F   0  0  0  0  0  0  0  0  0  0  0  0
   -0.0233   -9.8507    0.0000 C   0  0  0  0  0  0  0  0  0  0  0  0
    1.3470  -10.4608    0.0000 C   0  0  0  0  0  0  0  0  0  0  0  0
    1.5038  -11.9526    0.0000 F   0  0  0  0  0  0  0  0  0  0  0  0
    2.5605   -9.5791    0.0000 C   0  0  0  0  0  0  0  0  0  0  0  0
  1  2  1  0
  2  3  1  0
  2  4  1  0
  4  5  1  0
  5  6  1  0
  6  7  2  0
  7  8  1  0
  8  9  2  0
  9 10  1  0
 10 11  2  0
 11 12  1  0
 12 13  2  0
 13 14  1  0
 14 15  2  0
  9 16  1  0
  4 17  1  0
 17 18  2  0
 17 19  2  0
 17 20  1  0
 20 21  2  0
 21 22  1  0
 22 23  1  0
 22 24  2  0
 24 25  1  0
 25 26  1  0
 25 27  2  0
 16  6  1  0
 27 20  1  0
 15 10  1  0
M  END
>  <Compound_ID>  (851) 
C10516952

>  <Active>  (851) 
0.0

>  <Smiles>  (851) 
CC(C)N(Cc1nnc(-c2ccccc2)o1)S(=O)(=O)c1cc(F)cc(F)c1

>  <canonical_smi>  (851) 
CC(C)N(Cc1nnc(-c2ccccc2)o1)S(=O)(=O)c1cc(F)cc(F)c1

>  <Set>  (851) 
G2 inactive

>  <Set_type>  (851) 
Train

>  <MW>  (851) 
393.42

>  <HBD>  (851) 
0

>  <HBA>  (851) 
5

>  <NRB>  (851) 
6

>  <NR>  (851) 
3

>  <NAR>  (851) 
3

>  <PSA>  (851) 
76.3

>  <Standard Type>  (851) 
nan

>  <Standard Relation>  (851) 
nan

>  <Standard Units>  (851) 
nan

>  <Standard Value>  (851) 
nan

>  <Assay ChEMBL ID>  (851) 
nan

>  <Assay Description>  (851) 
nan

>  <BAO Label>  (851) 
nan

$$$$

     RDKit          2D

 29 32  0  0  0  0  0  0  0  0999 V2000
    3.7500   -1.2990    0.0000 C   0  0  0  0  0  0  0  0  0  0  0  0
    3.0000   -2.5981    0.0000 C   0  0  0  0  0  0  0  0  0  0  0  0
    1.5000   -2.5981    0.0000 C   0  0  0  0  0  0  0  0  0  0  0  0
    0.7500   -1.2990    0.0000 C   0  0  0  0  0  0  0  0  0  0  0  0
   -0.7500   -1.2990    0.0000 C   0  0  0  0  0  0  0  0  0  0  0  0
   -1.5000   -2.5981    0.0000 C   0  0  0  0  0  0  0  0  0  0  0  0
   -3.0000   -2.5981    0.0000 C   0  0  0  0  0  0  0  0  0  0  0  0
   -3.7500   -1.2990    0.0000 C   0  0  0  0  0  0  0  0  0  0  0  0
   -5.2500   -1.2990    0.0000 N   0  0  0  0  0  0  0  0  0  0  0  0
   -6.0000   -2.5981    0.0000 C   0  0  0  0  0  0  0  0  0  0  0  0
   -6.0000    0.0000    0.0000 C   0  0  0  0  0  0  0  0  0  0  0  0
   -7.5000    0.0000    0.0000 C   0  0  0  0  0  0  0  0  0  0  0  0
   -5.2500    1.2990    0.0000 C   0  0  0  0  0  0  0  0  0  0  0  0
   -3.7500    1.2990    0.0000 C   0  0  0  0  0  0  0  0  0  0  0  0
   -3.0000    2.5981    0.0000 C   0  0  0  0  0  0  0  0  0  0  0  0
   -3.7500    3.8971    0.0000 C   0  0  0  0  0  0  0  0  0  0  0  0
   -3.0000    5.1962    0.0000 N   0  0  0  0  0  0  0  0  0  0  0  0
   -3.6101    6.5665    0.0000 C   0  0  0  0  0  0  0  0  0  0  0  0
   -2.4954    7.5702    0.0000 N   0  0  0  0  0  0  0  0  0  0  0  0
   -1.1963    6.8202    0.0000 C   0  0  0  0  0  0  0  0  0  0  0  0
   -1.5082    5.3529    0.0000 N   0  0  0  0  0  0  0  0  0  0  0  0
   -5.2500    3.8971    0.0000 C   0  0  0  0  0  0  0  0  0  0  0  0
   -6.0000    2.5981    0.0000 C   0  0  0  0  0  0  0  0  0  0  0  0
   -3.7500   -3.8971    0.0000 C   0  0  0  0  0  0  0  0  0  0  0  0
   -3.0000   -5.1962    0.0000 C   0  0  0  0  0  0  0  0  0  0  0  0
   -3.7500   -6.4952    0.0000 O   0  0  0  0  0  0  0  0  0  0  0  0
   -1.5000   -5.1962    0.0000 O   0  0  0  0  0  0  0  0  0  0  0  0
   -0.7500   -3.8971    0.0000 C   0  0  0  0  0  0  0  0  0  0  0  0
    0.7500   -3.8971    0.0000 C   0  0  0  0  0  0  0  0  0  0  0  0
  1  2  1  0
  2  3  1  0
  3  4  2  0
  4  5  1  0
  5  6  2  0
  6  7  1  0
  7  8  1  0
  8  9  1  0
  9 10  1  0
  9 11  1  0
 11 12  1  1
 11 13  1  0
 13 14  2  0
 14 15  1  0
 15 16  2  0
 16 17  1  0
 17 18  1  0
 18 19  2  0
 19 20  1  0
 20 21  2  0
 16 22  1  0
 22 23  2  0
  7 24  2  0
 24 25  1  0
 25 26  2  0
 25 27  1  0
 27 28  1  0
 28 29  2  0
 29  3  1  0
 28  6  1  0
 23 13  1  0
 21 17  1  0
M  END
>  <Compound_ID>  (852) 
C17306002

>  <Active>  (852) 
0.0

>  <Smiles>  (852) 
CCc1ccc2c(CN(C)[C@@H](C)c3ccc(-n4cncn4)cc3)cc(=O)oc2c1

>  <canonical_smi>  (852) 
CCc1ccc2c(CN(C)[C@@H](C)c3ccc(-n4cncn4)cc3)cc(=O)oc2c1

>  <Set>  (852) 
G2 inactive

>  <Set_type>  (852) 
Train

>  <MW>  (852) 
388.47

>  <HBD>  (852) 
0

>  <HBA>  (852) 
5

>  <NRB>  (852) 
6

>  <NR>  (852) 
4

>  <NAR>  (852) 
4

>  <PSA>  (852) 
64.16

>  <Standard Type>  (852) 
nan

>  <Standard Relation>  (852) 
nan

>  <Standard Units>  (852) 
nan

>  <Standard Value>  (852) 
nan

>  <Assay ChEMBL ID>  (852) 
nan

>  <Assay Description>  (852) 
nan

>  <BAO Label>  (852) 
nan

$$$$

     RDKit          2D

 35 39  0  0  0  0  0  0  0  0999 V2000
   -0.5604  -12.4279    0.0000 C   0  0  0  0  0  0  0  0  0  0  0  0
   -2.0276  -12.1160    0.0000 O   0  0  0  0  0  0  0  0  0  0  0  0
   -3.0313  -13.2307    0.0000 C   0  0  0  0  0  0  0  0  0  0  0  0
   -2.5677  -14.6573    0.0000 C   0  0  0  0  0  0  0  0  0  0  0  0
   -3.5714  -15.7720    0.0000 C   0  0  0  0  0  0  0  0  0  0  0  0
   -5.0387  -15.4602    0.0000 C   0  0  0  0  0  0  0  0  0  0  0  0
   -5.5022  -14.0336    0.0000 C   0  0  0  0  0  0  0  0  0  0  0  0
   -4.4985  -12.9189    0.0000 C   0  0  0  0  0  0  0  0  0  0  0  0
   -4.9620  -11.4923    0.0000 C   0  0  0  0  0  0  0  0  0  0  0  0
   -3.9583  -10.3776    0.0000 N   0  0  0  0  0  0  0  0  0  0  0  0
   -4.4218   -8.9510    0.0000 N   0  0  0  0  0  0  0  0  0  0  0  0
   -3.4182   -7.8363    0.0000 C   0  0  0  0  0  0  0  0  0  0  0  0
   -1.9509   -8.1481    0.0000 O   0  0  0  0  0  0  0  0  0  0  0  0
   -3.8817   -6.4097    0.0000 C   0  0  0  0  0  0  0  0  0  0  0  0
   -5.3083   -5.9462    0.0000 N   0  0  0  0  0  0  0  0  0  0  0  0
   -5.3083   -4.4462    0.0000 N   0  0  0  0  0  0  0  0  0  0  0  0
   -3.8817   -3.9826    0.0000 N   0  0  0  0  0  0  0  0  0  0  0  0
   -3.4182   -2.5560    0.0000 C   0  0  0  0  0  0  0  0  0  0  0  0
   -4.2998   -1.3425    0.0000 N   0  0  0  0  0  0  0  0  0  0  0  0
   -3.4182   -0.1290    0.0000 O   0  0  0  0  0  0  0  0  0  0  0  0
   -1.9916   -0.5925    0.0000 N   0  0  0  0  0  0  0  0  0  0  0  0
   -1.9916   -2.0925    0.0000 C   0  0  0  0  0  0  0  0  0  0  0  0
   -0.7780   -2.9742    0.0000 N   0  0  0  0  0  0  0  0  0  0  0  0
   -3.0000   -5.1962    0.0000 C   0  0  0  0  0  0  0  0  0  0  0  0
   -1.5000   -5.1962    0.0000 C   0  0  0  0  0  0  0  0  0  0  0  0
   -0.7500   -3.8971    0.0000 N   0  0  0  0  0  4  0  0  0  0  0  0
   -1.5000   -2.5981    0.0000 C   0  0  0  0  0  0  0  0  0  0  0  0
   -0.7500   -1.2990    0.0000 C   0  0  0  0  0  0  0  0  0  0  0  0
    0.7500   -1.2990    0.0000 C   0  0  0  0  0  0  0  0  0  0  0  0
    1.5000    0.0000    0.0000 C   0  0  0  0  0  0  0  0  0  0  0  0
    3.0000    0.0000    0.0000 C   0  0  0  0  0  0  0  0  0  0  0  0
    3.7500   -1.2990    0.0000 C   0  0  0  0  0  0  0  0  0  0  0  0
    3.0000   -2.5981    0.0000 C   0  0  0  0  0  0  0  0  0  0  0  0
    1.5000   -2.5981    0.0000 C   0  0  0  0  0  0  0  0  0  0  0  0
    0.7500   -3.8971    0.0000 C   0  0  0  0  0  0  0  0  0  0  0  0
  1  2  1  0
  2  3  1  0
  3  4  2  0
  4  5  1  0
  5  6  2  0
  6  7  1  0
  7  8  2  0
  8  9  1  0
  9 10  2  0
 10 11  1  0
 11 12  1  0
 12 13  2  0
 12 14  1  0
 14 15  1  0
 15 16  2  0
 16 17  1  0
 17 18  1  0
 18 19  2  0
 19 20  1  0
 20 21  1  0
 21 22  2  0
 22 23  1  0
 17 24  1  0
 24 25  1  0
 25 26  1  0
 26 27  1  0
 27 28  1  0
 28 29  1  0
 29 30  2  0
 30 31  1  0
 31 32  2  0
 32 33  1  0
 33 34  2  0
 34 35  1  0
  8  3  1  0
 24 14  2  0
 35 26  1  0
 22 18  1  0
 34 29  1  0
M  CHG  1  26   1
M  END
>  <Compound_ID>  (853) 
C00710728

>  <Active>  (853) 
0.0

>  <Smiles>  (853) 
COc1ccccc1/C=N/NC(=O)c1nnn(-c2nonc2N)c1C[NH+]1CCc2ccccc2C1

>  <canonical_smi>  (853) 
COc1ccccc1/C=N/NC(=O)c1nnn(-c2nonc2N)c1C[NH+]1CCc2ccccc2C1

>  <Set>  (853) 
G2 inactive

>  <Set_type>  (853) 
Train

>  <MW>  (853) 
474.51

>  <HBD>  (853) 
3

>  <HBA>  (853) 
8

>  <NRB>  (853) 
7

>  <NR>  (853) 
5

>  <NAR>  (853) 
4

>  <PSA>  (853) 
150.78

>  <Standard Type>  (853) 
nan

>  <Standard Relation>  (853) 
nan

>  <Standard Units>  (853) 
nan

>  <Standard Value>  (853) 
nan

>  <Assay ChEMBL ID>  (853) 
nan

>  <Assay Description>  (853) 
nan

>  <BAO Label>  (853) 
nan

$$$$

     RDKit          2D

 33 36  0  0  0  0  0  0  0  0999 V2000
   -9.7500   -3.8971    0.0000 C   0  0  0  0  0  0  0  0  0  0  0  0
   -8.2500   -3.8971    0.0000 C   0  0  0  0  0  0  0  0  0  0  0  0
   -7.5000   -5.1962    0.0000 O   0  0  0  0  0  0  0  0  0  0  0  0
   -6.0000   -5.1962    0.0000 C   0  0  0  0  0  0  0  0  0  0  0  0
   -5.2500   -3.8971    0.0000 C   0  0  0  0  0  0  0  0  0  0  0  0
   -3.7500   -3.8971    0.0000 C   0  0  0  0  0  0  0  0  0  0  0  0
   -3.0000   -5.1962    0.0000 C   0  0  0  0  0  0  0  0  0  0  0  0
   -1.5000   -5.1962    0.0000 C   0  0  0  0  0  0  0  0  0  0  0  0
   -0.7500   -6.4952    0.0000 N   0  0  0  0  0  0  0  0  0  0  0  0
   -1.5000   -7.7942    0.0000 C   0  0  0  0  0  0  0  0  0  0  0  0
   -3.0000   -7.7942    0.0000 C   0  0  0  0  0  0  0  0  0  0  0  0
   -3.7500   -9.0933    0.0000 C   0  0  0  0  0  0  0  0  0  0  0  0
   -5.2500   -9.0933    0.0000 C   0  0  0  0  0  0  0  0  0  0  0  0
   -3.0000  -10.3923    0.0000 C   0  0  0  0  0  0  0  0  0  0  0  0
   -1.5000  -10.3923    0.0000 C   0  0  0  0  0  0  0  0  0  0  0  0
   -0.7500   -9.0933    0.0000 N   0  0  0  0  0  4  0  0  0  0  0  0
   -0.7500   -3.8971    0.0000 C   0  0  0  0  0  0  0  0  0  0  0  0
    0.7500   -3.8971    0.0000 C   0  0  0  0  0  0  0  0  0  0  0  0
    1.5000   -2.5981    0.0000 C   0  0  0  0  0  0  0  0  0  0  0  0
    0.7500   -1.2990    0.0000 C   0  0  0  0  0  0  0  0  0  0  0  0
    1.5000    0.0000    0.0000 C   0  0  0  0  0  0  0  0  0  0  0  0
    0.7500    1.2990    0.0000 C   0  0  0  0  0  0  0  0  0  0  0  0
   -0.7500    1.2990    0.0000 C   0  0  0  0  0  0  0  0  0  0  0  0
   -1.5000    2.5981    0.0000 C   0  0  0  0  0  0  0  0  0  0  0  0
   -1.5000    0.0000    0.0000 N   0  0  0  0  0  0  0  0  0  0  0  0
   -0.7500   -1.2990    0.0000 C   0  0  0  0  0  0  0  0  0  0  0  0
   -1.5000   -2.5981    0.0000 C   0  0  0  0  0  0  0  0  0  0  0  0
   -3.0000   -2.5981    0.0000 O   0  0  0  0  0  0  0  0  0  0  0  0
   -3.7500   -6.4952    0.0000 C   0  0  0  0  0  0  0  0  0  0  0  0
   -5.2500   -6.4952    0.0000 C   0  0  0  0  0  0  0  0  0  0  0  0
   -6.0000   -7.7942    0.0000 O   0  0  0  0  0  0  0  0  0  0  0  0
   -7.5000   -7.7942    0.0000 C   0  0  0  0  0  0  0  0  0  0  0  0
   -8.2500   -9.0933    0.0000 C   0  0  0  0  0  0  0  0  0  0  0  0
  1  2  1  0
  2  3  1  0
  3  4  1  0
  4  5  2  0
  5  6  1  0
  6  7  2  0
  7  8  1  0
  8  9  1  1
  9 10  1  0
 10 11  2  0
 11 12  1  0
 12 13  1  0
 12 14  2  0
 14 15  1  0
 15 16  2  0
  8 17  1  0
 17 18  2  0
 18 19  1  0
 19 20  2  0
 20 21  1  0
 21 22  2  0
 22 23  1  0
 23 24  1  0
 23 25  2  0
 25 26  1  0
 26 27  2  0
 27 28  1  0
  7 29  1  0
 29 30  2  0
 30 31  1  0
 31 32  1  0
 32 33  1  0
 30  4  1  0
 16 10  1  0
 27 17  1  0
 26 20  1  0
M  CHG  1  16   1
M  END
>  <Compound_ID>  (854) 
C08453119

>  <Active>  (854) 
0.0

>  <Smiles>  (854) 
CCOc1ccc([C@H](Nc2cc(C)cc[nH+]2)c2ccc3ccc(C)nc3c2O)cc1OCC

>  <canonical_smi>  (854) 
CCOc1ccc([C@H](Nc2cc(C)cc[nH+]2)c2ccc3ccc(C)nc3c2O)cc1OCC

>  <Set>  (854) 
G2 inactive

>  <Set_type>  (854) 
Train

>  <MW>  (854) 
444.56

>  <HBD>  (854) 
2

>  <HBA>  (854) 
5

>  <NRB>  (854) 
8

>  <NR>  (854) 
4

>  <NAR>  (854) 
4

>  <PSA>  (854) 
77.75

>  <Standard Type>  (854) 
nan

>  <Standard Relation>  (854) 
nan

>  <Standard Units>  (854) 
nan

>  <Standard Value>  (854) 
nan

>  <Assay ChEMBL ID>  (854) 
nan

>  <Assay Description>  (854) 
nan

>  <BAO Label>  (854) 
nan

$$$$

     RDKit          2D

 33 36  0  0  0  0  0  0  0  0999 V2000
   -9.7500  -11.6913    0.0000 O   0  0  0  0  0  0  0  0  0  0  0  0
  -10.5000  -10.3923    0.0000 N   0  0  0  0  0  4  0  0  0  0  0  0
  -12.0000  -10.3923    0.0000 O   0  0  0  0  0  1  0  0  0  0  0  0
   -9.7500   -9.0933    0.0000 C   0  0  0  0  0  0  0  0  0  0  0  0
  -10.5000   -7.7942    0.0000 C   0  0  0  0  0  0  0  0  0  0  0  0
   -9.7500   -6.4952    0.0000 C   0  0  0  0  0  0  0  0  0  0  0  0
   -8.2500   -6.4952    0.0000 C   0  0  0  0  0  0  0  0  0  0  0  0
   -7.5000   -5.1962    0.0000 N   0  0  0  0  0  0  0  0  0  0  0  0
   -6.0000   -5.1962    0.0000 C   0  0  0  0  0  0  0  0  0  0  0  0
   -5.2500   -3.8971    0.0000 C   0  0  0  0  0  0  0  0  0  0  0  0
   -3.7500   -3.8971    0.0000 N   0  0  0  0  0  4  0  0  0  0  0  0
   -3.0000   -2.5981    0.0000 C   0  0  0  0  0  0  0  0  0  0  0  0
   -1.5000   -2.5981    0.0000 C   0  0  0  0  0  0  0  0  0  0  0  0
   -0.7500   -3.8971    0.0000 C   0  0  0  0  0  0  0  0  0  0  0  0
   -1.5000   -5.1962    0.0000 O   0  0  0  0  0  0  0  0  0  0  0  0
   -0.7500   -6.4952    0.0000 C   0  0  0  0  0  0  0  0  0  0  0  0
   -1.5000   -7.7942    0.0000 C   0  0  0  0  0  0  0  0  0  0  0  0
   -3.0000   -7.7942    0.0000 C   0  0  0  0  0  0  0  0  0  0  0  0
   -3.7500   -9.0933    0.0000 C   0  0  0  0  0  0  0  0  0  0  0  0
   -3.0000  -10.3923    0.0000 C   0  0  0  0  0  0  0  0  0  0  0  0
   -1.5000  -10.3923    0.0000 C   0  0  0  0  0  0  0  0  0  0  0  0
   -0.7500   -9.0933    0.0000 C   0  0  0  0  0  0  0  0  0  0  0  0
    0.7500   -9.0933    0.0000 F   0  0  0  0  0  0  0  0  0  0  0  0
    0.7500   -3.8971    0.0000 C   0  0  0  0  0  0  0  0  0  0  0  0
    1.5000   -2.5981    0.0000 C   0  0  0  0  0  0  0  0  0  0  0  0
    0.7500   -1.2990    0.0000 C   0  0  0  0  0  0  0  0  0  0  0  0
    1.5000    0.0000    0.0000 C   0  0  0  0  0  0  0  0  0  0  0  0
    0.7500    1.2990    0.0000 C   0  0  0  0  0  0  0  0  0  0  0  0
   -0.7500    1.2990    0.0000 C   0  0  0  0  0  0  0  0  0  0  0  0
   -1.5000    0.0000    0.0000 C   0  0  0  0  0  0  0  0  0  0  0  0
   -0.7500   -1.2990    0.0000 C   0  0  0  0  0  0  0  0  0  0  0  0
   -7.5000   -7.7942    0.0000 C   0  0  0  0  0  0  0  0  0  0  0  0
   -8.2500   -9.0933    0.0000 C   0  0  0  0  0  0  0  0  0  0  0  0
  1  2  2  0
  2  3  1  0
  2  4  1  0
  4  5  2  0
  5  6  1  0
  6  7  2  0
  7  8  1  0
  8  9  1  0
  9 10  1  0
 10 11  1  0
 11 12  1  0
 12 13  1  0
 13 14  1  0
 14 15  1  0
 15 16  1  0
 16 17  1  0
 17 18  2  0
 18 19  1  0
 19 20  2  0
 20 21  1  0
 21 22  2  0
 22 23  1  0
 14 24  2  0
 24 25  1  0
 25 26  2  0
 26 27  1  0
 27 28  2  0
 28 29  1  0
 29 30  2  0
 30 31  1  0
  7 32  1  0
 32 33  2  0
 33  4  1  0
 31 13  2  0
 22 17  1  0
 31 26  1  0
M  CHG  3   2   1   3  -1  11   1
M  END
>  <Compound_ID>  (855) 
C16525914

>  <Active>  (855) 
0.0

>  <Smiles>  (855) 
O=[N+]([O-])c1ccc(NCC[NH2+]Cc2c(OCc3ccccc3F)ccc3ccccc23)cc1

>  <canonical_smi>  (855) 
O=[N+]([O-])c1ccc(NCC[NH2+]Cc2c(OCc3ccccc3F)ccc3ccccc23)cc1

>  <Set>  (855) 
G2 inactive

>  <Set_type>  (855) 
Train

>  <MW>  (855) 
446.5

>  <HBD>  (855) 
2

>  <HBA>  (855) 
4

>  <NRB>  (855) 
10

>  <NR>  (855) 
4

>  <NAR>  (855) 
4

>  <PSA>  (855) 
81.01

>  <Standard Type>  (855) 
nan

>  <Standard Relation>  (855) 
nan

>  <Standard Units>  (855) 
nan

>  <Standard Value>  (855) 
nan

>  <Assay ChEMBL ID>  (855) 
nan

>  <Assay Description>  (855) 
nan

>  <BAO Label>  (855) 
nan

$$$$

     RDKit          2D

 39 43  0  0  0  0  0  0  0  0999 V2000
    4.4918   -5.3529    0.0000 C   0  0  0  0  0  0  0  0  0  0  0  0
    3.0000   -5.1962    0.0000 C   0  0  0  0  0  0  0  0  0  0  0  0
    3.7500   -3.8971    0.0000 C   0  0  0  0  0  0  0  0  0  0  0  0
    3.0000   -2.5981    0.0000 C   0  0  0  0  0  0  0  0  0  0  0  0
    1.5000   -2.5981    0.0000 C   0  0  0  0  0  0  0  0  0  0  0  0
    0.7500   -1.2990    0.0000 C   0  0  0  0  0  0  0  0  0  0  0  0
    1.5000    0.0000    0.0000 C   0  0  0  0  0  0  0  0  0  0  0  0
    0.7500    1.2990    0.0000 C   0  0  0  0  0  0  0  0  0  0  0  0
   -0.7500    1.2990    0.0000 C   0  0  0  0  0  0  0  0  0  0  0  0
   -1.5000    2.5981    0.0000 O   0  0  0  0  0  0  0  0  0  0  0  0
   -1.5000    0.0000    0.0000 C   0  0  0  0  0  0  0  0  0  0  0  0
   -0.7500   -1.2990    0.0000 C   0  0  0  0  0  0  0  0  0  0  0  0
   -1.5000   -2.5981    0.0000 C   0  0  0  0  0  0  0  0  0  0  0  0
   -0.7500   -3.8971    0.0000 C   0  0  0  0  0  0  0  0  0  0  0  0
    0.7500   -3.8971    0.0000 C   0  0  0  0  0  0  0  0  0  0  0  0
    1.5000   -5.1962    0.0000 C   0  0  0  0  0  0  0  0  0  0  0  0
    1.0365   -6.6227    0.0000 C   0  0  0  0  0  0  0  0  0  0  0  0
    2.2500   -7.5044    0.0000 C   0  0  0  0  0  0  0  0  0  0  0  0
    3.2537   -8.6191    0.0000 C   0  0  0  0  0  0  0  0  0  0  0  0
    2.7902  -10.0457    0.0000 O   0  0  0  0  0  0  0  0  0  0  0  0
    1.2463   -8.6191    0.0000 C   0  0  0  0  0  0  0  0  0  0  0  0
    1.7098  -10.0457    0.0000 C   0  0  0  0  0  0  0  0  0  0  0  0
    0.7061  -11.1604    0.0000 C   0  0  0  0  0  0  0  0  0  0  0  0
    1.1697  -12.5870    0.0000 C   0  0  0  0  0  0  0  0  0  0  0  0
    0.1660  -13.7017    0.0000 C   0  0  0  0  0  0  0  0  0  0  0  0
    0.6295  -15.1283    0.0000 C   0  0  0  0  0  0  0  0  0  0  0  0
   -0.3742  -16.2430    0.0000 C   0  0  0  0  0  0  0  0  0  0  0  0
    0.0893  -17.6696    0.0000 C   0  0  0  0  0  0  0  0  0  0  0  0
   -0.9144  -18.7843    0.0000 N   0  0  0  0  0  4  0  0  0  0  0  0
   -0.4509  -20.2109    0.0000 C   0  0  0  0  0  0  0  0  0  0  0  0
   -1.4545  -21.3256    0.0000 C   0  0  0  0  0  0  0  0  0  0  0  0
   -0.9910  -22.7522    0.0000 C   0  0  0  0  0  0  0  0  0  0  0  0
   -1.9947  -23.8669    0.0000 C   0  0  0  0  0  0  0  0  0  0  0  0
   -1.5312  -25.2935    0.0000 C   0  0  0  0  0  0  0  0  0  0  0  0
   -0.0640  -25.6054    0.0000 C   0  0  0  0  0  0  0  0  0  0  0  0
    0.9397  -24.4907    0.0000 C   0  0  0  0  0  0  0  0  0  0  0  0
    0.4762  -23.0641    0.0000 N   0  0  0  0  0  0  0  0  0  0  0  0
    3.4635   -6.6227    0.0000 C   0  0  0  0  0  0  0  0  0  0  0  0
    4.8901   -7.0863    0.0000 O   0  0  0  0  0  0  0  0  0  0  0  0
  2  1  1  1
  2  3  1  0
  3  4  1  0
  5  4  1  6
  5  6  1  0
  6  7  2  0
  7  8  1  0
  8  9  2  0
  9 10  1  0
  9 11  1  0
 11 12  2  0
 12 13  1  0
 13 14  1  0
 15 14  1  1
 15 16  1  0
 16 17  1  1
 17 18  1  0
 18 19  1  6
 19 20  1  0
 18 21  1  0
 21 22  1  0
 22 23  1  0
 23 24  1  0
 24 25  1  0
 25 26  1  0
 26 27  1  0
 27 28  1  0
 28 29  1  0
 29 30  1  0
 30 31  1  0
 31 32  1  0
 32 33  2  0
 33 34  1  0
 34 35  2  0
 35 36  1  0
 36 37  2  0
 18 38  1  0
 38 39  1  1
 16  2  1  0
 37 32  1  0
 38  2  1  0
 15  5  1  0
 12  6  1  0
M  CHG  1  29   1
M  END
>  <Compound_ID>  (856) 
C36748716

>  <Active>  (856) 
0.0

>  <Smiles>  (856) 
C[C@]12CC[C@H]3c4ccc(O)cc4CC[C@@H]3[C@@H]1C[C@](CO)(CCCCCCCC[NH2+]CCc1ccccn1)[C@@H]2O

>  <canonical_smi>  (856) 
C[C@]12CC[C@H]3c4ccc(O)cc4CC[C@@H]3[C@@H]1C[C@](CO)(CCCCCCCC[NH2+]CCc1ccccn1)[C@@H]2O

>  <Set>  (856) 
G2 inactive

>  <Set_type>  (856) 
Train

>  <MW>  (856) 
535.79

>  <HBD>  (856) 
4

>  <HBA>  (856) 
4

>  <NRB>  (856) 
13

>  <NR>  (856) 
5

>  <NAR>  (856) 
2

>  <PSA>  (856) 
90.19

>  <Standard Type>  (856) 
nan

>  <Standard Relation>  (856) 
nan

>  <Standard Units>  (856) 
nan

>  <Standard Value>  (856) 
nan

>  <Assay ChEMBL ID>  (856) 
nan

>  <Assay Description>  (856) 
nan

>  <BAO Label>  (856) 
nan

$$$$

     RDKit          2D

 36 40  0  0  0  0  0  0  0  0999 V2000
    3.7500   -1.2990    0.0000 C   0  0  0  0  0  0  0  0  0  0  0  0
    3.0000    0.0000    0.0000 O   0  0  0  0  0  0  0  0  0  0  0  0
    1.5000    0.0000    0.0000 C   0  0  0  0  0  0  0  0  0  0  0  0
    0.7500   -1.2990    0.0000 C   0  0  0  0  0  0  0  0  0  0  0  0
   -0.7500   -1.2990    0.0000 C   0  0  0  0  0  0  0  0  0  0  0  0
   -1.5000    0.0000    0.0000 C   0  0  0  0  0  0  0  0  0  0  0  0
   -3.0000    0.0000    0.0000 C   0  0  0  0  0  0  0  0  0  0  0  0
   -3.7500    1.2990    0.0000 C   0  0  0  0  0  0  0  0  0  0  0  0
   -3.0000    2.5981    0.0000 C   0  0  0  0  0  0  0  0  0  0  0  0
   -3.7500    3.8971    0.0000 F   0  0  0  0  0  0  0  0  0  0  0  0
   -1.5000    2.5981    0.0000 C   0  0  0  0  0  0  0  0  0  0  0  0
   -0.7500    3.8971    0.0000 C   0  0  0  0  0  0  0  0  0  0  0  0
   -1.5000    5.1962    0.0000 C   0  0  0  0  0  0  0  0  0  0  0  0
   -3.0000    5.1962    0.0000 O   0  0  0  0  0  0  0  0  0  0  0  0
   -0.7500    6.4952    0.0000 N   0  0  0  0  0  0  0  0  0  0  0  0
    0.7500    6.4952    0.0000 C   0  0  0  0  0  0  0  0  0  0  0  0
    1.5000    7.7942    0.0000 C   0  0  0  0  0  0  0  0  0  0  0  0
    0.7500    9.0933    0.0000 O   0  0  0  0  0  0  0  0  0  0  0  0
   -0.7500    9.0933    0.0000 C   0  0  0  0  0  0  0  0  0  0  0  0
   -1.5000   10.3923    0.0000 C   0  0  0  0  0  0  0  0  0  0  0  0
   -0.7500   11.6913    0.0000 N   0  0  0  0  0  4  0  0  0  0  0  0
   -1.5000   12.9904    0.0000 C   0  0  0  0  0  0  0  0  0  0  0  0
   -0.7500   14.2894    0.0000 C   0  0  0  0  0  0  0  0  0  0  0  0
    0.7500   14.2894    0.0000 C   0  0  0  0  0  0  0  0  0  0  0  0
    1.5000   15.5885    0.0000 C   0  0  0  0  0  0  0  0  0  0  0  0
    0.7500   16.8875    0.0000 C   0  0  0  0  0  0  0  0  0  0  0  0
   -0.7500   16.8875    0.0000 C   0  0  0  0  0  0  0  0  0  0  0  0
   -1.5000   18.1865    0.0000 C   0  0  0  0  0  0  0  0  0  0  0  0
   -2.9918   18.3433    0.0000 C   0  0  0  0  0  0  0  0  0  0  0  0
   -3.3037   19.8105    0.0000 C   0  0  0  0  0  0  0  0  0  0  0  0
   -2.0046   20.5605    0.0000 S   0  0  0  0  0  0  0  0  0  0  0  0
   -0.8899   19.5569    0.0000 C   0  0  0  0  0  0  0  0  0  0  0  0
   -1.5000   15.5885    0.0000 N   0  0  0  0  0  0  0  0  0  0  0  0
   -1.5000    7.7942    0.0000 C   0  0  0  0  0  0  0  0  0  0  0  0
   -0.7500    1.2990    0.0000 C   0  0  0  0  0  0  0  0  0  0  0  0
    0.7500    1.2990    0.0000 N   0  0  0  0  0  0  0  0  0  0  0  0
  1  2  1  0
  2  3  1  0
  3  4  2  0
  4  5  1  0
  5  6  2  0
  6  7  1  0
  7  8  2  0
  8  9  1  0
  9 10  1  0
  9 11  2  0
 11 12  1  0
 12 13  1  0
 13 14  2  0
 13 15  1  0
 15 16  1  0
 16 17  1  0
 17 18  1  0
 18 19  1  0
 19 20  1  6
 20 21  1  0
 21 22  1  0
 22 23  1  0
 23 24  2  0
 24 25  1  0
 25 26  2  0
 26 27  1  0
 27 28  1  0
 28 29  1  0
 29 30  2  0
 30 31  1  0
 31 32  1  0
 27 33  2  0
 19 34  1  0
 11 35  1  0
 35 36  2  0
 36  3  1  0
 35  6  1  0
 34 15  1  0
 33 23  1  0
 32 28  2  0
M  CHG  1  21   1
M  END
>  <Compound_ID>  (857) 
C45192152

>  <Active>  (857) 
0.0

>  <Smiles>  (857) 
COc1ccc2ccc(F)c(CC(=O)N3CCO[C@@H](C[NH2+]Cc4cccc(-c5ccsc5)n4)C3)c2n1

>  <canonical_smi>  (857) 
COc1ccc2ccc(F)c(CC(=O)N3CCO[C@@H](C[NH2+]Cc4cccc(-c5ccsc5)n4)C3)c2n1

>  <Set>  (857) 
G2 inactive

>  <Set_type>  (857) 
Train

>  <MW>  (857) 
507.61

>  <HBD>  (857) 
1

>  <HBA>  (857) 
5

>  <NRB>  (857) 
8

>  <NR>  (857) 
5

>  <NAR>  (857) 
4

>  <PSA>  (857) 
81.16

>  <Standard Type>  (857) 
nan

>  <Standard Relation>  (857) 
nan

>  <Standard Units>  (857) 
nan

>  <Standard Value>  (857) 
nan

>  <Assay ChEMBL ID>  (857) 
nan

>  <Assay Description>  (857) 
nan

>  <BAO Label>  (857) 
nan

$$$$

     RDKit          2D

 31 33  0  0  0  0  0  0  0  0999 V2000
    5.2500   -1.2990    0.0000 C   0  0  0  0  0  0  0  0  0  0  0  0
    3.7500   -1.2990    0.0000 C   0  0  0  0  0  0  0  0  0  0  0  0
    3.0000    0.0000    0.0000 O   0  0  0  0  0  0  0  0  0  0  0  0
    1.5000    0.0000    0.0000 C   0  0  0  0  0  0  0  0  0  0  0  0
    0.7500   -1.2990    0.0000 C   0  0  0  0  0  0  0  0  0  0  0  0
   -0.7500   -1.2990    0.0000 C   0  0  0  0  0  0  0  0  0  0  0  0
   -1.5000   -2.5981    0.0000 C   0  0  0  0  0  0  0  0  0  0  0  0
   -3.0000   -2.5981    0.0000 N   0  0  0  0  0  4  0  0  0  0  0  0
   -3.7500   -3.8971    0.0000 C   0  0  0  0  0  0  0  0  0  0  0  0
   -5.2500   -3.8971    0.0000 C   0  0  0  0  0  0  0  0  0  0  0  0
   -6.0000   -5.1962    0.0000 C   0  0  0  0  0  0  0  0  0  0  0  0
   -7.5000   -5.1962    0.0000 S   0  0  0  0  0  0  0  0  0  0  0  0
   -8.2500   -6.4952    0.0000 C   0  0  0  0  0  0  0  0  0  0  0  0
   -7.6399   -7.8655    0.0000 N   0  0  0  0  0  0  0  0  0  0  0  0
   -8.7546   -8.8692    0.0000 N   0  0  0  0  0  0  0  0  0  0  0  0
  -10.0537   -8.1192    0.0000 N   0  0  0  0  0  0  0  0  0  0  0  0
   -9.7418   -6.6520    0.0000 N   0  0  0  0  0  0  0  0  0  0  0  0
  -10.7455   -5.5373    0.0000 C   0  0  0  0  0  0  0  0  0  0  0  0
   -1.5000    0.0000    0.0000 C   0  0  0  0  0  0  0  0  0  0  0  0
   -0.7500    1.2990    0.0000 C   0  0  0  0  0  0  0  0  0  0  0  0
   -1.5000    2.5981    0.0000 Br  0  0  0  0  0  0  0  0  0  0  0  0
    0.7500    1.2990    0.0000 C   0  0  0  0  0  0  0  0  0  0  0  0
    1.5000    2.5981    0.0000 O   0  0  0  0  0  0  0  0  0  0  0  0
    0.7500    3.8971    0.0000 C   0  0  0  0  0  0  0  0  0  0  0  0
    1.5000    5.1962    0.0000 C   0  0  0  0  0  0  0  0  0  0  0  0
    3.0000    5.1962    0.0000 C   0  0  0  0  0  0  0  0  0  0  0  0
    3.7500    6.4952    0.0000 C   0  0  0  0  0  0  0  0  0  0  0  0
    3.0000    7.7942    0.0000 C   0  0  0  0  0  0  0  0  0  0  0  0
    1.5000    7.7942    0.0000 C   0  0  0  0  0  0  0  0  0  0  0  0
    0.7500    9.0933    0.0000 C   0  0  0  0  0  0  0  0  0  0  0  0
    0.7500    6.4952    0.0000 C   0  0  0  0  0  0  0  0  0  0  0  0
  1  2  1  0
  2  3  1  0
  3  4  1  0
  4  5  2  0
  5  6  1  0
  6  7  1  0
  7  8  1  0
  8  9  1  0
  9 10  1  0
 10 11  1  0
 11 12  1  0
 12 13  1  0
 13 14  2  0
 14 15  1  0
 15 16  2  0
 16 17  1  0
 17 18  1  0
  6 19  2  0
 19 20  1  0
 20 21  1  0
 20 22  2  0
 22 23  1  0
 23 24  1  0
 24 25  1  0
 25 26  2  0
 26 27  1  0
 27 28  2  0
 28 29  1  0
 29 30  1  0
 29 31  2  0
 22  4  1  0
 31 25  1  0
 17 13  1  0
M  CHG  1   8   1
M  END
>  <Compound_ID>  (858) 
C40744794

>  <Active>  (858) 
0.0

>  <Smiles>  (858) 
CCOc1cc(C[NH2+]CCCSc2nnnn2C)cc(Br)c1OCc1cccc(C)c1

>  <canonical_smi>  (858) 
CCOc1cc(C[NH2+]CCCSc2nnnn2C)cc(Br)c1OCc1cccc(C)c1

>  <Set>  (858) 
G2 inactive

>  <Set_type>  (858) 
Train

>  <MW>  (858) 
507.48

>  <HBD>  (858) 
1

>  <HBA>  (858) 
6

>  <NRB>  (858) 
12

>  <NR>  (858) 
3

>  <NAR>  (858) 
3

>  <PSA>  (858) 
78.67

>  <Standard Type>  (858) 
nan

>  <Standard Relation>  (858) 
nan

>  <Standard Units>  (858) 
nan

>  <Standard Value>  (858) 
nan

>  <Assay ChEMBL ID>  (858) 
nan

>  <Assay Description>  (858) 
nan

>  <BAO Label>  (858) 
nan

$$$$

     RDKit          2D

 33 36  0  0  0  0  0  0  0  0999 V2000
   -6.6873   -6.5296    0.0000 C   0  0  0  0  0  0  0  0  0  0  0  0
   -5.6836   -7.6444    0.0000 C   0  0  0  0  0  0  0  0  0  0  0  0
   -4.2164   -7.3325    0.0000 O   0  0  0  0  0  0  0  0  0  0  0  0
   -3.2127   -8.4472    0.0000 C   0  0  0  0  0  0  0  0  0  0  0  0
   -3.6762   -9.8738    0.0000 O   0  0  0  0  0  0  0  0  0  0  0  0
   -1.7455   -8.1353    0.0000 C   0  0  0  0  0  0  0  0  0  0  0  0
   -0.7418   -9.2501    0.0000 N   0  0  0  0  0  0  0  0  0  0  0  0
   -1.0537  -10.7173    0.0000 N   0  0  0  0  0  0  0  0  0  0  0  0
    0.2454  -11.4673    0.0000 N   0  0  0  0  0  0  0  0  0  0  0  0
    1.3601  -10.4636    0.0000 N   0  0  0  0  0  0  0  0  0  0  0  0
    0.7500   -9.0933    0.0000 C   0  0  0  0  0  0  0  0  0  0  0  0
    1.5000   -7.7942    0.0000 C   0  0  0  0  0  0  0  0  0  0  0  0
    0.7500   -6.4952    0.0000 N   0  0  0  0  0  4  0  0  0  0  0  0
   -0.7500   -6.4952    0.0000 C   0  0  0  0  0  0  0  0  0  0  0  0
   -1.5000   -5.1962    0.0000 C   0  0  0  0  0  0  0  0  0  0  0  0
   -0.8899   -3.8258    0.0000 C   0  0  0  0  0  0  0  0  0  0  0  0
   -2.0046   -2.8221    0.0000 C   0  0  0  0  0  0  0  0  0  0  0  0
   -3.3037   -3.5721    0.0000 C   0  0  0  0  0  0  0  0  0  0  0  0
   -2.9918   -5.0394    0.0000 S   0  0  0  0  0  0  0  0  0  0  0  0
    1.5000   -5.1962    0.0000 C   0  0  0  0  0  0  0  0  0  0  0  0
    3.0000   -5.1962    0.0000 C   0  0  0  0  0  0  0  0  0  0  0  0
    3.7500   -6.4952    0.0000 C   0  0  0  0  0  0  0  0  0  0  0  0
    5.2500   -6.4952    0.0000 C   0  0  0  0  0  0  0  0  0  0  0  0
    6.0000   -7.7942    0.0000 C   0  0  0  0  0  0  0  0  0  0  0  0
    7.5000   -7.7942    0.0000 C   0  0  0  0  0  0  0  0  0  0  0  0
    8.2500   -9.0933    0.0000 O   0  0  0  0  0  0  0  0  0  0  0  0
    7.5000  -10.3923    0.0000 C   0  0  0  0  0  0  0  0  0  0  0  0
    8.2500   -6.4952    0.0000 C   0  0  0  0  0  0  0  0  0  0  0  0
    7.5000   -5.1962    0.0000 C   0  0  0  0  0  0  0  0  0  0  0  0
    6.0000   -5.1962    0.0000 C   0  0  0  0  0  0  0  0  0  0  0  0
    5.2500   -3.8971    0.0000 N   0  0  0  0  0  0  0  0  0  0  0  0
    3.7500   -3.8971    0.0000 C   0  0  0  0  0  0  0  0  0  0  0  0
    3.0000   -2.5981    0.0000 O   0  0  0  0  0  0  0  0  0  0  0  0
  1  2  1  0
  2  3  1  0
  3  4  1  0
  4  5  2  0
  4  6  1  0
  6  7  1  0
  7  8  1  0
  8  9  2  0
  9 10  1  0
 10 11  2  0
 11 12  1  0
 12 13  1  0
 13 14  1  0
 14 15  1  0
 15 16  2  0
 16 17  1  0
 17 18  2  0
 18 19  1  0
 13 20  1  0
 20 21  1  0
 21 22  2  0
 22 23  1  0
 23 24  2  0
 24 25  1  0
 25 26  1  0
 26 27  1  0
 25 28  2  0
 28 29  1  0
 29 30  2  0
 30 31  1  0
 31 32  1  0
 32 33  2  0
 11  7  1  0
 19 15  1  0
 32 21  1  0
 30 23  1  0
M  CHG  1  13   1
M  END
>  <Compound_ID>  (859) 
C12833470

>  <Active>  (859) 
0.0

>  <Smiles>  (859) 
CCOC(=O)Cn1nnnc1C[NH+](Cc1cccs1)Cc1cc2cc(OC)ccc2[nH]c1=O

>  <canonical_smi>  (859) 
CCOC(=O)Cn1nnnc1C[NH+](Cc1cccs1)Cc1cc2cc(OC)ccc2[nH]c1=O

>  <Set>  (859) 
G2 inactive

>  <Set_type>  (859) 
Train

>  <MW>  (859) 
469.55

>  <HBD>  (859) 
2

>  <HBA>  (859) 
7

>  <NRB>  (859) 
10

>  <NR>  (859) 
4

>  <NAR>  (859) 
4

>  <PSA>  (859) 
116.43

>  <Standard Type>  (859) 
nan

>  <Standard Relation>  (859) 
nan

>  <Standard Units>  (859) 
nan

>  <Standard Value>  (859) 
nan

>  <Assay ChEMBL ID>  (859) 
nan

>  <Assay Description>  (859) 
nan

>  <BAO Label>  (859) 
nan

$$$$

     RDKit          2D

 24 25  0  0  0  0  0  0  0  0999 V2000
    0.7500   -9.0933    0.0000 C   0  0  0  0  0  0  0  0  0  0  0  0
    1.5000   -7.7942    0.0000 C   0  0  0  0  0  0  0  0  0  0  0  0
    0.7500   -6.4952    0.0000 C   0  0  0  0  0  0  0  0  0  0  0  0
    1.5000   -5.1962    0.0000 N   0  0  0  0  0  0  0  0  0  0  0  0
    3.0000   -5.1962    0.0000 C   0  0  0  0  0  0  0  0  0  0  0  0
    3.7500   -6.4952    0.0000 C   0  0  0  0  0  0  0  0  0  0  0  0
    5.2500   -6.4952    0.0000 C   0  0  0  0  0  0  0  0  0  0  0  0
    0.7500   -3.8971    0.0000 C   0  0  0  0  0  0  0  0  0  0  0  0
   -0.7500   -3.8971    0.0000 N   0  0  0  0  0  0  0  0  0  0  0  0
   -1.5000   -2.5981    0.0000 C   0  0  0  0  0  0  0  0  0  0  0  0
   -3.0000   -2.5981    0.0000 C   0  0  0  0  0  0  0  0  0  0  0  0
   -3.7500   -3.8971    0.0000 C   0  0  0  0  0  0  0  0  0  0  0  0
   -3.7500   -1.2990    0.0000 C   0  0  0  0  0  0  0  0  0  0  0  0
   -0.7500   -1.2990    0.0000 C   0  0  0  0  0  0  0  0  0  0  0  0
    0.7500   -1.2990    0.0000 C   0  0  0  0  0  0  0  0  0  0  0  0
    1.5000   -2.5981    0.0000 C   0  0  0  0  0  0  0  0  0  0  0  0
    3.0000   -2.5981    0.0000 C   0  0  0  0  0  0  0  0  0  0  0  0
    4.5000   -2.5981    0.0000 N   0  0  0  0  0  0  0  0  0  0  0  0
    1.5000    0.0000    0.0000 C   0  0  0  0  0  0  0  0  0  0  0  0
    0.7500    1.2990    0.0000 C   0  0  0  0  0  0  0  0  0  0  0  0
    0.4895    2.7762    0.0000 C   0  0  0  0  0  0  0  0  0  0  0  0
    2.1595    1.8121    0.0000 C   0  0  0  0  0  0  0  0  0  0  0  0
   -0.7500    1.2990    0.0000 O   0  0  0  0  0  0  0  0  0  0  0  0
   -1.5000    0.0000    0.0000 C   0  0  0  0  0  0  0  0  0  0  0  0
  1  2  1  0
  2  3  1  0
  3  4  1  0
  4  5  1  0
  5  6  1  0
  6  7  1  0
  4  8  1  0
  8  9  2  0
  9 10  1  0
 10 11  1  0
 11 12  1  0
 11 13  1  0
 10 14  2  0
 14 15  1  0
 15 16  2  0
 16 17  1  0
 17 18  3  0
 15 19  1  0
 19 20  1  0
 20 21  1  0
 20 22  1  0
 20 23  1  0
 23 24  1  0
 16  8  1  0
 24 14  1  0
M  END
>  <Compound_ID>  (860) 
C20827551

>  <Active>  (860) 
0.0

>  <Smiles>  (860) 
CCCN(CCC)c1nc(C(C)C)c2c(c1C#N)CC(C)(C)OC2

>  <canonical_smi>  (860) 
CCCN(CCC)c1nc(C(C)C)c2c(c1C#N)CC(C)(C)OC2

>  <Set>  (860) 
G2 inactive

>  <Set_type>  (860) 
Train

>  <MW>  (860) 
329.49

>  <HBD>  (860) 
0

>  <HBA>  (860) 
4

>  <NRB>  (860) 
6

>  <NR>  (860) 
2

>  <NAR>  (860) 
1

>  <PSA>  (860) 
49.15

>  <Standard Type>  (860) 
nan

>  <Standard Relation>  (860) 
nan

>  <Standard Units>  (860) 
nan

>  <Standard Value>  (860) 
nan

>  <Assay ChEMBL ID>  (860) 
nan

>  <Assay Description>  (860) 
nan

>  <BAO Label>  (860) 
nan

$$$$

     RDKit          2D

 26 29  0  0  0  0  0  0  0  0999 V2000
    2.7886    4.3786    0.0000 C   0  0  0  0  0  0  0  0  0  0  0  0
    2.3250    2.9520    0.0000 C   0  0  0  0  0  0  0  0  0  0  0  0
    0.8578    2.6401    0.0000 N   0  0  0  0  0  0  0  0  0  0  0  0
   -0.1459    3.7548    0.0000 C   0  0  0  0  0  0  0  0  0  0  0  0
   -1.6131    3.4430    0.0000 O   0  0  0  0  0  0  0  0  0  0  0  0
    0.3177    5.1814    0.0000 C   0  0  0  0  0  0  0  0  0  0  0  0
    1.7849    5.4933    0.0000 C   0  0  0  0  0  0  0  0  0  0  0  0
    2.2484    6.9199    0.0000 C   0  0  0  0  0  0  0  0  0  0  0  0
    1.2447    8.0346    0.0000 C   0  0  0  0  0  0  0  0  0  0  0  0
   -0.2225    7.7227    0.0000 C   0  0  0  0  0  0  0  0  0  0  0  0
   -1.2262    8.8374    0.0000 O   0  0  0  0  0  0  0  0  0  0  0  0
   -0.7627   10.2640    0.0000 C   0  0  0  0  0  0  0  0  0  0  0  0
   -0.6860    6.2961    0.0000 C   0  0  0  0  0  0  0  0  0  0  0  0
    0.3943    1.2135    0.0000 C   0  0  0  0  0  0  0  0  0  0  0  0
    1.2760    0.0000    0.0000 N   0  0  0  0  0  0  0  0  0  0  0  0
    0.3943   -1.2135    0.0000 C   0  0  0  0  0  0  0  0  0  0  0  0
   -1.0323   -0.7500    0.0000 C   0  0  0  0  0  0  0  0  0  0  0  0
   -1.0323    0.7500    0.0000 S   0  0  0  0  0  0  0  0  0  0  0  0
   -2.1470   -1.7537    0.0000 C   0  0  0  0  0  0  0  0  0  0  0  0
   -1.8351   -3.2209    0.0000 C   0  0  0  0  0  0  0  0  0  0  0  0
   -0.4086   -3.6844    0.0000 C   0  0  0  0  0  0  0  0  0  0  0  0
    0.7062   -2.6807    0.0000 C   0  0  0  0  0  0  0  0  0  0  0  0
    2.0052   -3.4307    0.0000 C   0  0  0  0  0  0  0  0  0  0  0  0
    1.6933   -4.8980    0.0000 N   0  0  0  0  0  0  0  0  0  0  0  0
    0.2016   -5.0548    0.0000 N   0  0  0  0  0  0  0  0  0  0  0  0
   -0.5484   -6.3538    0.0000 C   0  0  0  0  0  0  0  0  0  0  0  0
  1  2  1  0
  2  3  1  0
  3  4  1  0
  4  5  2  0
  6  4  1  1
  6  7  1  0
  7  8  1  0
  8  9  1  0
  9 10  1  0
 10 11  1  6
 11 12  1  0
 10 13  1  0
  3 14  1  0
 14 15  2  0
 15 16  1  0
 16 17  2  0
 17 18  1  0
 17 19  1  0
 19 20  1  0
 20 21  1  0
 21 22  2  0
 22 23  1  0
 23 24  2  0
 24 25  1  0
 25 26  1  0
 13  6  1  0
 18 14  1  0
 25 21  1  0
 22 16  1  0
M  END
>  <Compound_ID>  (861) 
C19526691

>  <Active>  (861) 
0.0

>  <Smiles>  (861) 
CCN(C(=O)[C@@H]1CCC[C@@H](OC)C1)c1nc2c(s1)CCc1c-2cnn1C

>  <canonical_smi>  (861) 
CCN(C(=O)[C@@H]1CCC[C@@H](OC)C1)c1nc2c(s1)CCc1c-2cnn1C

>  <Set>  (861) 
G2 inactive

>  <Set_type>  (861) 
Train

>  <MW>  (861) 
374.51

>  <HBD>  (861) 
0

>  <HBA>  (861) 
4

>  <NRB>  (861) 
4

>  <NR>  (861) 
4

>  <NAR>  (861) 
2

>  <PSA>  (861) 
60.25

>  <Standard Type>  (861) 
nan

>  <Standard Relation>  (861) 
nan

>  <Standard Units>  (861) 
nan

>  <Standard Value>  (861) 
nan

>  <Assay ChEMBL ID>  (861) 
nan

>  <Assay Description>  (861) 
nan

>  <BAO Label>  (861) 
nan

$$$$

     RDKit          2D

 20 22  0  0  0  0  0  0  0  0999 V2000
    3.0000   -2.5981    0.0000 O   0  0  0  0  0  0  0  0  0  0  0  0
    1.5000   -2.5981    0.0000 C   0  0  0  0  0  0  0  0  0  0  0  0
    0.7500   -3.8971    0.0000 C   0  0  0  0  0  0  0  0  0  0  0  0
    1.5000   -5.1962    0.0000 N   0  0  0  0  0  0  0  0  0  0  0  0
    2.9918   -5.3529    0.0000 N   0  0  0  0  0  0  0  0  0  0  0  0
    3.3037   -6.8202    0.0000 N   0  0  0  0  0  0  0  0  0  0  0  0
    2.0046   -7.5702    0.0000 C   0  0  0  0  0  0  0  0  0  0  0  0
    1.8478   -9.0619    0.0000 C   0  0  0  0  0  0  0  0  0  0  0  0
    2.9625  -10.0656    0.0000 C   0  0  0  0  0  0  0  0  0  0  0  0
    2.3524  -11.4360    0.0000 C   0  0  0  0  0  0  0  0  0  0  0  0
    0.8606  -11.2792    0.0000 C   0  0  0  0  0  0  0  0  0  0  0  0
    0.5488   -9.8119    0.0000 O   0  0  0  0  0  0  0  0  0  0  0  0
    0.8899   -6.5665    0.0000 N   0  0  0  0  0  0  0  0  0  0  0  0
    0.7500   -1.2990    0.0000 C   0  0  0  0  0  0  0  0  0  0  0  0
    1.5000    0.0000    0.0000 C   0  0  0  0  0  0  0  0  0  0  0  0
    0.7500    1.2990    0.0000 C   0  0  0  0  0  0  0  0  0  0  0  0
   -0.7500    1.2990    0.0000 C   0  0  0  0  0  0  0  0  0  0  0  0
   -1.5000    2.5981    0.0000 I   0  0  0  0  0  0  0  0  0  0  0  0
   -1.5000    0.0000    0.0000 C   0  0  0  0  0  0  0  0  0  0  0  0
   -0.7500   -1.2990    0.0000 C   0  0  0  0  0  0  0  0  0  0  0  0
  1  2  2  0
  2  3  1  0
  3  4  1  0
  4  5  1  0
  5  6  2  0
  6  7  1  0
  7  8  1  0
  8  9  2  0
  9 10  1  0
 10 11  2  0
 11 12  1  0
  7 13  2  0
  2 14  1  0
 14 15  2  0
 15 16  1  0
 16 17  2  0
 17 18  1  0
 17 19  1  0
 19 20  2  0
 13  4  1  0
 20 14  1  0
 12  8  1  0
M  END
>  <Compound_ID>  (862) 
C48032733

>  <Active>  (862) 
0.0

>  <Smiles>  (862) 
O=C(Cn1nnc(-c2ccco2)n1)c1ccc(I)cc1

>  <canonical_smi>  (862) 
O=C(Cn1nnc(-c2ccco2)n1)c1ccc(I)cc1

>  <Set>  (862) 
G2 inactive

>  <Set_type>  (862) 
Train

>  <MW>  (862) 
380.14

>  <HBD>  (862) 
0

>  <HBA>  (862) 
5

>  <NRB>  (862) 
4

>  <NR>  (862) 
3

>  <NAR>  (862) 
3

>  <PSA>  (862) 
73.81

>  <Standard Type>  (862) 
nan

>  <Standard Relation>  (862) 
nan

>  <Standard Units>  (862) 
nan

>  <Standard Value>  (862) 
nan

>  <Assay ChEMBL ID>  (862) 
nan

>  <Assay Description>  (862) 
nan

>  <BAO Label>  (862) 
nan

$$$$

     RDKit          2D

 20 20  0  0  0  0  0  0  0  0999 V2000
    6.0000   -2.5981    0.0000 C   0  0  0  0  0  0  0  0  0  0  0  0
    5.2500   -1.2990    0.0000 C   0  0  0  0  0  0  0  0  0  0  0  0
    3.7500   -1.2990    0.0000 C   0  0  0  0  0  0  0  0  0  0  0  0
    3.0000    0.0000    0.0000 C   0  0  0  0  0  0  0  0  0  0  0  0
    3.7500    1.2990    0.0000 O   0  0  0  0  0  0  0  0  0  0  0  0
    5.2500    1.2990    0.0000 P   0  0  0  0  0  0  0  0  0  0  0  0
    6.7500    1.2990    0.0000 S   0  0  0  0  0  0  0  0  0  0  0  0
    5.2500   -0.2010    0.0000 O   0  0  0  0  0  0  0  0  0  0  0  0
    6.5490   -0.9510    0.0000 C   0  0  0  0  0  0  0  0  0  0  0  0
    7.8481   -0.2010    0.0000 C   0  0  0  0  0  0  0  0  0  0  0  0
    5.2500    2.7990    0.0000 O   0  0  0  0  0  0  0  0  0  0  0  0
    6.5490    3.5490    0.0000 C   0  0  0  0  0  0  0  0  0  0  0  0
    6.5490    5.0490    0.0000 C   0  0  0  0  0  0  0  0  0  0  0  0
    1.5000    0.0000    0.0000 C   0  0  0  0  0  0  0  0  0  0  0  0
    0.7500   -1.2990    0.0000 C   0  0  0  0  0  0  0  0  0  0  0  0
   -0.7500   -1.2990    0.0000 C   0  0  0  0  0  0  0  0  0  0  0  0
   -1.5000    0.0000    0.0000 C   0  0  0  0  0  0  0  0  0  0  0  0
   -0.7500    1.2990    0.0000 C   0  0  0  0  0  0  0  0  0  0  0  0
    0.7500    1.2990    0.0000 C   0  0  0  0  0  0  0  0  0  0  0  0
    1.5000    2.5981    0.0000 Cl  0  0  0  0  0  0  0  0  0  0  0  0
  1  2  1  0
  2  3  1  0
  4  3  1  6
  4  5  1  0
  5  6  1  0
  6  7  2  0
  6  8  1  0
  8  9  1  0
  9 10  1  0
  6 11  1  0
 11 12  1  0
 12 13  1  0
  4 14  1  0
 14 15  2  0
 15 16  1  0
 16 17  2  0
 17 18  1  0
 18 19  2  0
 19 20  1  0
 19 14  1  0
M  END
>  <Compound_ID>  (863) 
C01597510

>  <Active>  (863) 
0.0

>  <Smiles>  (863) 
CCC[C@@H](OP(=S)(OCC)OCC)c1ccccc1Cl

>  <canonical_smi>  (863) 
CCC[C@@H](OP(=S)(OCC)OCC)c1ccccc1Cl

>  <Set>  (863) 
G2 inactive

>  <Set_type>  (863) 
Train

>  <MW>  (863) 
336.82

>  <HBD>  (863) 
0

>  <HBA>  (863) 
4

>  <NRB>  (863) 
9

>  <NR>  (863) 
1

>  <NAR>  (863) 
1

>  <PSA>  (863) 
27.69

>  <Standard Type>  (863) 
nan

>  <Standard Relation>  (863) 
nan

>  <Standard Units>  (863) 
nan

>  <Standard Value>  (863) 
nan

>  <Assay ChEMBL ID>  (863) 
nan

>  <Assay Description>  (863) 
nan

>  <BAO Label>  (863) 
nan

$$$$

     RDKit          2D

 26 29  0  0  0  0  0  0  0  0999 V2000
    3.0000    0.0000    0.0000 F   0  0  0  0  0  0  0  0  0  0  0  0
    1.5000    0.0000    0.0000 C   0  0  0  0  0  0  0  0  0  0  0  0
    0.7500   -1.2990    0.0000 C   0  0  0  0  0  0  0  0  0  0  0  0
   -0.7500   -1.2990    0.0000 C   0  0  0  0  0  0  0  0  0  0  0  0
   -1.5000    0.0000    0.0000 C   0  0  0  0  0  0  0  0  0  0  0  0
   -0.7500    1.2990    0.0000 C   0  0  0  0  0  0  0  0  0  0  0  0
    0.7500    1.2990    0.0000 C   0  0  0  0  0  0  0  0  0  0  0  0
    1.5000    2.5981    0.0000 O   0  0  0  0  0  0  0  0  0  0  0  0
    3.0000    2.5981    0.0000 C   0  0  0  0  0  0  0  0  0  0  0  0
    3.7500    3.8971    0.0000 C   0  0  0  0  0  0  0  0  0  0  0  0
    5.2500    3.8971    0.0000 S   0  0  0  0  0  0  0  0  0  0  0  0
    6.0000    5.1962    0.0000 C   0  0  0  0  0  0  0  0  0  0  0  0
    5.3899    6.5665    0.0000 N   0  0  0  0  0  0  0  0  0  0  0  0
    6.5046    7.5702    0.0000 N   0  0  0  0  0  0  0  0  0  0  0  0
    7.8037    6.8202    0.0000 C   0  0  0  0  0  0  0  0  0  0  0  0
    9.1740    7.4303    0.0000 C   0  0  0  0  0  0  0  0  0  0  0  0
   10.3875    6.5486    0.0000 C   0  0  0  0  0  0  0  0  0  0  0  0
   11.7578    7.1587    0.0000 C   0  0  0  0  0  0  0  0  0  0  0  0
   11.9146    8.6505    0.0000 C   0  0  0  0  0  0  0  0  0  0  0  0
   10.7011    9.5322    0.0000 C   0  0  0  0  0  0  0  0  0  0  0  0
    9.3308    8.9221    0.0000 C   0  0  0  0  0  0  0  0  0  0  0  0
    8.1172    9.8037    0.0000 F   0  0  0  0  0  0  0  0  0  0  0  0
    7.4918    5.3529    0.0000 N   0  0  0  0  0  0  0  0  0  0  0  0
    8.4955    4.2382    0.0000 C   0  0  0  0  0  0  0  0  0  0  0  0
    9.9221    3.7747    0.0000 C   0  0  0  0  0  0  0  0  0  0  0  0
    8.8073    2.7710    0.0000 C   0  0  0  0  0  0  0  0  0  0  0  0
  1  2  1  0
  2  3  2  0
  3  4  1  0
  4  5  2  0
  5  6  1  0
  6  7  2  0
  7  8  1  0
  8  9  1  0
  9 10  1  0
 10 11  1  0
 11 12  1  0
 12 13  2  0
 13 14  1  0
 14 15  2  0
 15 16  1  0
 16 17  2  0
 17 18  1  0
 18 19  2  0
 19 20  1  0
 20 21  2  0
 21 22  1  0
 15 23  1  0
 23 24  1  0
 24 25  1  0
 25 26  1  0
  7  2  1  0
 23 12  1  0
 26 24  1  0
 21 16  1  0
M  END
>  <Compound_ID>  (864) 
C14083081

>  <Active>  (864) 
0.0

>  <Smiles>  (864) 
Fc1ccccc1OCCSc1nnc(-c2ccccc2F)n1C1CC1

>  <canonical_smi>  (864) 
Fc1ccccc1OCCSc1nnc(-c2ccccc2F)n1C1CC1

>  <Set>  (864) 
G2 inactive

>  <Set_type>  (864) 
Train

>  <MW>  (864) 
373.43

>  <HBD>  (864) 
0

>  <HBA>  (864) 
4

>  <NRB>  (864) 
7

>  <NR>  (864) 
4

>  <NAR>  (864) 
3

>  <PSA>  (864) 
39.94

>  <Standard Type>  (864) 
nan

>  <Standard Relation>  (864) 
nan

>  <Standard Units>  (864) 
nan

>  <Standard Value>  (864) 
nan

>  <Assay ChEMBL ID>  (864) 
nan

>  <Assay Description>  (864) 
nan

>  <BAO Label>  (864) 
nan

$$$$

     RDKit          2D

 33 37  0  0  0  0  0  0  0  0999 V2000
   -4.6904   -6.5871    0.0000 O   0  0  0  0  0  0  0  0  0  0  0  0
   -6.1170   -7.0506    0.0000 C   0  0  0  0  0  0  0  0  0  0  0  0
   -6.4289   -8.5179    0.0000 O   0  0  0  0  0  1  0  0  0  0  0  0
   -7.2317   -6.0469    0.0000 C   0  0  0  0  0  0  0  0  0  0  0  0
   -6.9199   -4.5797    0.0000 C   0  0  0  0  0  0  0  0  0  0  0  0
   -5.4933   -4.1162    0.0000 C   0  0  0  0  0  0  0  0  0  0  0  0
   -4.3786   -5.1199    0.0000 C   0  0  0  0  0  0  0  0  0  0  0  0
   -2.9520   -4.6564    0.0000 C   0  0  0  0  0  0  0  0  0  0  0  0
   -2.6401   -3.1891    0.0000 C   0  0  0  0  0  0  0  0  0  0  0  0
   -1.2135   -2.7256    0.0000 N   0  0  0  0  0  0  0  0  0  0  0  0
   -0.0000   -3.6073    0.0000 C   0  0  0  0  0  0  0  0  0  0  0  0
    1.2135   -2.7256    0.0000 N   0  0  0  0  0  0  0  0  0  0  0  0
    0.7500   -1.2990    0.0000 C   0  0  0  0  0  0  0  0  0  0  0  0
    1.5000    0.0000    0.0000 C   0  0  0  0  0  0  0  0  0  0  0  0
    0.7500    1.2990    0.0000 C   0  0  0  0  0  0  0  0  0  0  0  0
   -0.7500    1.2990    0.0000 C   0  0  0  0  0  0  0  0  0  0  0  0
   -1.5000    0.0000    0.0000 C   0  0  0  0  0  0  0  0  0  0  0  0
   -0.7500   -1.2990    0.0000 C   0  0  0  0  0  0  0  0  0  0  0  0
   -3.7548   -2.1855    0.0000 C   0  0  0  0  0  0  0  0  0  0  0  0
   -5.1814   -2.6490    0.0000 C   0  0  0  0  0  0  0  0  0  0  0  0
   -8.6583   -6.5105    0.0000 C   0  0  0  0  0  0  0  0  0  0  0  0
   -9.1218   -7.9371    0.0000 C   0  0  0  0  0  0  0  0  0  0  0  0
  -10.6218   -7.9371    0.0000 C   0  0  0  0  0  0  0  0  0  0  0  0
  -11.0854   -6.5105    0.0000 C   0  0  0  0  0  0  0  0  0  0  0  0
  -12.5120   -6.0469    0.0000 S   0  0  0  0  0  0  0  0  0  0  0  0
  -12.0484   -4.6204    0.0000 O   0  0  0  0  0  0  0  0  0  0  0  0
  -12.9755   -7.4735    0.0000 O   0  0  0  0  0  0  0  0  0  0  0  0
  -13.9385   -5.5834    0.0000 N   0  0  0  0  0  0  0  0  0  0  0  0
  -15.1521   -6.4651    0.0000 C   0  0  0  0  0  0  0  0  0  0  0  0
  -16.3656   -5.5834    0.0000 C   0  0  0  0  0  0  0  0  0  0  0  0
  -15.9021   -4.1568    0.0000 C   0  0  0  0  0  0  0  0  0  0  0  0
  -14.4021   -4.1568    0.0000 C   0  0  0  0  0  0  0  0  0  0  0  0
   -9.8718   -5.6288    0.0000 S   0  0  0  0  0  0  0  0  0  0  0  0
  1  2  2  0
  2  3  1  0
  2  4  1  0
  4  5  2  0
  5  6  1  0
  6  7  2  0
  7  8  1  0
  8  9  2  0
  9 10  1  0
 10 11  1  0
 11 12  2  0
 12 13  1  0
 13 14  2  0
 14 15  1  0
 15 16  2  0
 16 17  1  0
 17 18  2  0
  9 19  1  0
 19 20  2  0
  4 21  1  0
 21 22  2  0
 22 23  1  0
 23 24  2  0
 24 25  1  0
 25 26  2  0
 25 27  2  0
 25 28  1  0
 28 29  1  0
 29 30  1  0
 30 31  1  0
 31 32  1  0
 24 33  1  0
 20  6  1  0
 33 21  1  0
 18 10  1  0
 32 28  1  0
 18 13  1  0
M  CHG  1   3  -1
M  END
>  <Compound_ID>  (865) 
C09516974

>  <Active>  (865) 
0.0

>  <Smiles>  (865) 
O=C([O-])/C(=C\c1ccc(-n2cnc3ccccc32)cc1)c1ccc(S(=O)(=O)N2CCCC2)s1

>  <canonical_smi>  (865) 
O=C([O-])/C(=C\c1ccc(-n2cnc3ccccc32)cc1)c1ccc(S(=O)(=O)N2CCCC2)s1

>  <Set>  (865) 
G2 inactive

>  <Set_type>  (865) 
Train

>  <MW>  (865) 
478.58

>  <HBD>  (865) 
0

>  <HBA>  (865) 
5

>  <NRB>  (865) 
6

>  <NR>  (865) 
5

>  <NAR>  (865) 
4

>  <PSA>  (865) 
95.33

>  <Standard Type>  (865) 
nan

>  <Standard Relation>  (865) 
nan

>  <Standard Units>  (865) 
nan

>  <Standard Value>  (865) 
nan

>  <Assay ChEMBL ID>  (865) 
nan

>  <Assay Description>  (865) 
nan

>  <BAO Label>  (865) 
nan

$$$$

     RDKit          2D

 23 23  0  0  0  0  0  0  0  0999 V2000
    0.7500   -3.8971    0.0000 C   0  0  0  0  0  0  0  0  0  0  0  0
    2.2500   -3.8971    0.0000 C   0  0  0  0  0  0  0  0  0  0  0  0
    3.0000   -2.5981    0.0000 S   0  0  0  0  0  0  0  0  0  0  0  0
    1.7010   -1.8481    0.0000 O   0  0  0  0  0  0  0  0  0  0  0  0
    4.2990   -3.3481    0.0000 O   0  0  0  0  0  0  0  0  0  0  0  0
    3.7500   -1.2990    0.0000 N   0  0  0  0  0  0  0  0  0  0  0  0
    3.0000    0.0000    0.0000 C   0  0  0  0  0  0  0  0  0  0  0  0
    1.5000    0.0000    0.0000 C   0  0  0  0  0  0  0  0  0  0  0  0
    0.7500   -1.2990    0.0000 C   0  0  0  0  0  0  0  0  0  0  0  0
   -0.7500   -1.2990    0.0000 C   0  0  0  0  0  0  0  0  0  0  0  0
   -1.5000    0.0000    0.0000 C   0  0  0  0  0  0  0  0  0  0  0  0
   -3.0000    0.0000    0.0000 Cl  0  0  0  0  0  0  0  0  0  0  0  0
   -0.7500    1.2990    0.0000 C   0  0  0  0  0  0  0  0  0  0  0  0
   -1.5000    2.5981    0.0000 Cl  0  0  0  0  0  0  0  0  0  0  0  0
    0.7500    1.2990    0.0000 C   0  0  0  0  0  0  0  0  0  0  0  0
    5.2500   -1.2990    0.0000 C   0  0  0  0  0  0  0  0  0  0  0  0
    6.0000    0.0000    0.0000 C   0  0  0  0  0  0  0  0  0  0  0  0
    7.5000    0.0000    0.0000 C   0  0  0  0  0  0  0  0  0  0  0  0
    8.2500    1.2990    0.0000 C   0  0  0  0  0  0  0  0  0  0  0  0
    8.2500   -1.2990    0.0000 C   0  0  0  0  0  0  0  0  0  0  0  0
    5.2500    1.2990    0.0000 N   0  0  0  0  0  4  0  0  0  0  0  0
    3.7500    1.2990    0.0000 C   0  0  0  0  0  0  0  0  0  0  0  0
    6.0000    2.5981    0.0000 C   0  0  0  0  0  0  0  0  0  0  0  0
  1  2  1  0
  2  3  1  0
  3  4  2  0
  3  5  2  0
  3  6  1  0
  6  7  1  0
  7  8  1  0
  8  9  2  0
  9 10  1  0
 10 11  2  0
 11 12  1  0
 11 13  1  0
 13 14  1  0
 13 15  2  0
  6 16  1  0
 17 16  1  1
 17 18  1  0
 18 19  1  0
 18 20  1  0
 17 21  1  0
 21 22  1  0
 21 23  1  0
 15  8  1  0
M  CHG  1  21   1
M  END
>  <Compound_ID>  (866) 
C60066278

>  <Active>  (866) 
0.0

>  <Smiles>  (866) 
CCS(=O)(=O)N(Cc1ccc(Cl)c(Cl)c1)C[C@H](C(C)C)[NH+](C)C

>  <canonical_smi>  (866) 
CCS(=O)(=O)N(Cc1ccc(Cl)c(Cl)c1)C[C@H](C(C)C)[NH+](C)C

>  <Set>  (866) 
G2 inactive

>  <Set_type>  (866) 
Train

>  <MW>  (866) 
382.38

>  <HBD>  (866) 
1

>  <HBA>  (866) 
2

>  <NRB>  (866) 
8

>  <NR>  (866) 
1

>  <NAR>  (866) 
1

>  <PSA>  (866) 
41.82

>  <Standard Type>  (866) 
nan

>  <Standard Relation>  (866) 
nan

>  <Standard Units>  (866) 
nan

>  <Standard Value>  (866) 
nan

>  <Assay ChEMBL ID>  (866) 
nan

>  <Assay Description>  (866) 
nan

>  <BAO Label>  (866) 
nan

$$$$

     RDKit          2D

 20 22  0  0  0  0  0  0  0  0999 V2000
    2.3383    8.7188    0.0000 C   0  0  0  0  0  0  0  0  0  0  0  0
    3.2200    7.5053    0.0000 C   0  0  0  0  0  0  0  0  0  0  0  0
    2.7565    6.0787    0.0000 C   0  0  0  0  0  0  0  0  0  0  0  0
    1.3299    5.6152    0.0000 S   0  0  0  0  0  0  0  0  0  0  0  0
    1.7934    4.1886    0.0000 O   0  0  0  0  0  0  0  0  0  0  0  0
    0.8664    7.0418    0.0000 O   0  0  0  0  0  0  0  0  0  0  0  0
   -0.0967    5.1517    0.0000 N   0  0  0  0  0  0  0  0  0  0  0  0
   -0.4086    3.6844    0.0000 C   0  0  0  0  0  0  0  0  0  0  0  0
    0.7062    2.6807    0.0000 C   0  0  0  0  0  0  0  0  0  0  0  0
    0.3943    1.2135    0.0000 C   0  0  0  0  0  0  0  0  0  0  0  0
    1.2760    0.0000    0.0000 C   0  0  0  0  0  0  0  0  0  0  0  0
    0.3943   -1.2135    0.0000 C   0  0  0  0  0  0  0  0  0  0  0  0
   -1.0323   -0.7500    0.0000 N   0  0  0  0  0  0  0  0  0  0  0  0
   -1.0323    0.7500    0.0000 C   0  0  0  0  0  0  0  0  0  0  0  0
   -2.1470    1.7537    0.0000 C   0  0  0  0  0  0  0  0  0  0  0  0
   -1.8351    3.2209    0.0000 C   0  0  0  0  0  0  0  0  0  0  0  0
    3.9700    5.1970    0.0000 C   0  0  0  0  0  0  0  0  0  0  0  0
    3.9700    3.6970    0.0000 C   0  0  0  0  0  0  0  0  0  0  0  0
    5.1835    6.0787    0.0000 O   0  0  0  0  0  0  0  0  0  0  0  0
    4.7200    7.5053    0.0000 N   0  0  0  0  0  0  0  0  0  0  0  0
  1  2  1  0
  2  3  2  0
  3  4  1  0
  4  5  2  0
  4  6  2  0
  4  7  1  0
  7  8  1  0
  8  9  2  0
  9 10  1  0
 10 11  2  0
 11 12  1  0
 12 13  2  0
 13 14  1  0
 14 15  1  1
 15 16  2  0
  3 17  1  0
 17 18  1  1
 17 19  1  0
 19 20  1  0
 20  2  1  0
 16  8  1  0
 14 10  1  0
M  END
>  <Compound_ID>  (867) 
C39336656

>  <Active>  (867) 
0.0

>  <Smiles>  (867) 
CC1=C(S(=O)(=O)NC2=CC3=CC=N[C@H]3C=C2)[C@H](C)ON1

>  <canonical_smi>  (867) 
CC1=C(S(=O)(=O)NC2=CC3=CC=N[C@H]3C=C2)[C@H](C)ON1

>  <Set>  (867) 
G2 inactive

>  <Set_type>  (867) 
Train

>  <MW>  (867) 
293.35

>  <HBD>  (867) 
2

>  <HBA>  (867) 
4

>  <NRB>  (867) 
3

>  <NR>  (867) 
3

>  <NAR>  (867) 
0

>  <PSA>  (867) 
79.79

>  <Standard Type>  (867) 
nan

>  <Standard Relation>  (867) 
nan

>  <Standard Units>  (867) 
nan

>  <Standard Value>  (867) 
nan

>  <Assay ChEMBL ID>  (867) 
nan

>  <Assay Description>  (867) 
nan

>  <BAO Label>  (867) 
nan

$$$$

     RDKit          2D

 22 26  0  0  0  0  0  0  0  0999 V2000
    3.6595   -1.8121    0.0000 O   0  0  0  0  0  0  0  0  0  0  0  0
    2.2500   -1.2990    0.0000 C   0  0  0  0  0  0  0  0  0  0  0  0
    1.9895   -2.7762    0.0000 C   0  0  0  0  0  0  0  0  0  0  0  0
    3.1386   -3.7404    0.0000 N   0  0  0  0  0  0  0  0  0  0  0  0
    2.8781   -5.2176    0.0000 C   0  0  0  0  0  0  0  0  0  0  0  0
    1.4686   -5.7307    0.0000 N   0  0  0  0  0  0  0  0  0  0  0  0
    1.2081   -7.2079    0.0000 C   0  0  0  0  0  0  0  0  0  0  0  0
    2.3572   -8.1721    0.0000 N   0  0  0  0  0  0  0  0  0  0  0  0
    3.7667   -7.6590    0.0000 C   0  0  0  0  0  0  0  0  0  0  0  0
    5.0911   -8.3632    0.0000 N   0  0  0  0  0  0  0  0  0  0  0  0
    6.1701   -7.3213    0.0000 C   0  0  0  0  0  0  0  0  0  0  0  0
    5.5126   -5.9731    0.0000 N   0  0  0  0  0  0  0  0  0  0  0  0
    4.0272   -6.1818    0.0000 C   0  0  0  0  0  0  0  0  0  0  0  0
    0.7500   -1.2990    0.0000 C   0  0  0  0  0  0  0  0  0  0  0  0
    1.5000    0.0000    0.0000 C   0  0  0  0  0  0  0  0  0  0  0  0
    0.7500    1.2990    0.0000 C   0  0  0  0  0  0  0  0  0  0  0  0
   -0.7500    1.2990    0.0000 C   0  0  0  0  0  0  0  0  0  0  0  0
   -1.5000    0.0000    0.0000 C   0  0  0  0  0  0  0  0  0  0  0  0
   -0.7500   -1.2990    0.0000 C   0  0  0  0  0  0  0  0  0  0  0  0
    1.7010   -0.7500    0.0000 C   0  0  0  0  0  0  0  0  0  0  0  0
    3.0000   -0.0000    0.0000 C   0  0  0  0  0  0  0  0  0  0  0  0
    2.2500    1.2990    0.0000 C   0  0  0  0  0  0  0  0  0  0  0  0
  1  2  1  0
  2  3  1  0
  3  4  1  0
  4  5  1  0
  5  6  2  0
  6  7  1  0
  7  8  2  0
  8  9  1  0
  9 10  2  0
 10 11  1  0
 11 12  2  0
 13 12  1  6
  2 14  1  0
 14 15  1  0
 15 16  1  0
 16 17  1  0
 17 18  1  0
 18 19  1  0
 18 20  1  0
 20 21  1  0
 21 22  1  0
 21  2  1  0
 13  5  1  0
 19 14  1  0
 13  9  1  0
 22 16  1  0
M  END
>  <Compound_ID>  (868) 
C63883948

>  <Active>  (868) 
0.0

>  <Smiles>  (868) 
OC1(CNC2=NC=NC3=NC=N[C@H]32)C2CC3CC(C2)CC1C3

>  <canonical_smi>  (868) 
OC1(CNC2=NC=NC3=NC=N[C@H]32)C2CC3CC(C2)CC1C3

>  <Set>  (868) 
G2 inactive

>  <Set_type>  (868) 
Train

>  <MW>  (868) 
299.38

>  <HBD>  (868) 
2

>  <HBA>  (868) 
2

>  <NRB>  (868) 
2

>  <NR>  (868) 
6

>  <NAR>  (868) 
0

>  <PSA>  (868) 
81.7

>  <Standard Type>  (868) 
nan

>  <Standard Relation>  (868) 
nan

>  <Standard Units>  (868) 
nan

>  <Standard Value>  (868) 
nan

>  <Assay ChEMBL ID>  (868) 
nan

>  <Assay Description>  (868) 
nan

>  <BAO Label>  (868) 
nan

$$$$

     RDKit          2D

 31 35  0  0  0  0  0  0  0  0999 V2000
    2.2500   -1.2990    0.0000 C   0  0  0  0  0  0  0  0  0  0  0  0
    0.7500   -1.2990    0.0000 C   0  0  0  0  0  0  0  0  0  0  0  0
    1.5000    0.0000    0.0000 C   0  0  0  0  0  0  0  0  0  0  0  0
    0.7500    1.2990    0.0000 C   0  0  0  0  0  0  0  0  0  0  0  0
   -0.7500    1.2990    0.0000 C   0  0  0  0  0  0  0  0  0  0  0  0
   -1.5000    2.5981    0.0000 O   0  0  0  0  0  0  0  0  0  0  0  0
   -1.5000    0.0000    0.0000 C   0  0  0  0  0  0  0  0  0  0  0  0
   -0.7500   -1.2990    0.0000 C   0  0  0  0  0  0  0  0  0  0  0  0
   -1.5000   -2.5981    0.0000 C   0  0  0  0  0  0  0  0  0  0  0  0
   -0.7500   -3.8971    0.0000 C   0  0  0  0  0  0  0  0  0  0  0  0
    0.7500   -3.8971    0.0000 C   0  0  0  0  0  0  0  0  0  0  0  0
    1.5000   -5.1962    0.0000 C   0  0  0  0  0  0  0  0  0  0  0  0
    1.0365   -6.6227    0.0000 C   0  0  0  0  0  0  0  0  0  0  0  0
    2.2500   -7.5044    0.0000 C   0  0  0  0  0  0  0  0  0  0  0  0
    3.4635   -6.6227    0.0000 C   0  0  0  0  0  0  0  0  0  0  0  0
    4.8901   -7.0863    0.0000 N   0  0  0  0  0  0  0  0  0  0  0  0
    5.2020   -8.5535    0.0000 N   0  0  0  0  0  0  0  0  0  0  0  0
    6.6286   -9.0170    0.0000 C   0  0  0  0  0  0  0  0  0  0  0  0
    6.9404  -10.4842    0.0000 C   0  0  0  0  0  0  0  0  0  0  0  0
    8.3107  -11.0943    0.0000 C   0  0  0  0  0  0  0  0  0  0  0  0
    8.1540  -12.5861    0.0000 C   0  0  0  0  0  0  0  0  0  0  0  0
    6.6867  -12.8980    0.0000 C   0  0  0  0  0  0  0  0  0  0  0  0
    6.0766  -14.2683    0.0000 N   0  0  0  0  0  4  0  0  0  0  0  0
    6.9583  -15.4818    0.0000 O   0  0  0  0  0  0  0  0  0  0  0  0
    4.5848  -14.4251    0.0000 O   0  0  0  0  0  1  0  0  0  0  0  0
    5.9367  -11.5989    0.0000 S   0  0  0  0  0  0  0  0  0  0  0  0
    3.0000   -5.1962    0.0000 C   0  0  0  0  0  0  0  0  0  0  0  0
    4.4918   -5.3529    0.0000 C   0  0  0  0  0  0  0  0  0  0  0  0
    3.7500   -3.8971    0.0000 C   0  0  0  0  0  0  0  0  0  0  0  0
    3.0000   -2.5981    0.0000 C   0  0  0  0  0  0  0  0  0  0  0  0
    1.5000   -2.5981    0.0000 C   0  0  0  0  0  0  0  0  0  0  0  0
  2  1  1  6
  2  3  1  0
  3  4  1  0
  4  5  1  0
  5  6  1  6
  5  7  1  0
  7  8  1  0
  8  9  2  0
  9 10  1  0
 11 10  1  6
 11 12  1  0
 12 13  1  6
 13 14  1  0
 14 15  1  0
 15 16  2  0
 16 17  1  0
 17 18  2  0
 18 19  1  0
 19 20  2  0
 20 21  1  0
 21 22  2  0
 22 23  1  0
 23 24  2  0
 23 25  1  0
 22 26  1  0
 15 27  1  0
 27 28  1  1
 27 29  1  0
 29 30  1  0
 31 30  1  1
  8  2  1  0
 31 11  1  0
 31  2  1  0
 27 12  1  0
 26 19  1  0
M  CHG  2  23   1  25  -1
M  END
>  <Compound_ID>  (869) 
C11667003

>  <Active>  (869) 
0.0

>  <Smiles>  (869) 
C[C@@]12CC[C@@H](O)CC1=CC[C@H]1[C@H]3CC/C(=N\N=C\c4ccc([N+](=O)[O-])s4)[C@@]3(C)CC[C@@H]12

>  <canonical_smi>  (869) 
C[C@@]12CC[C@@H](O)CC1=CC[C@@H]1[C@@H]2CC[C@]2(C)/C(=N/N=C/c3ccc([N+](=O)[O-])s3)CC[C@H]12

>  <Set>  (869) 
G2 inactive

>  <Set_type>  (869) 
Train

>  <MW>  (869) 
441.6

>  <HBD>  (869) 
1

>  <HBA>  (869) 
3

>  <NRB>  (869) 
3

>  <NR>  (869) 
5

>  <NAR>  (869) 
1

>  <PSA>  (869) 
88.09

>  <Standard Type>  (869) 
nan

>  <Standard Relation>  (869) 
nan

>  <Standard Units>  (869) 
nan

>  <Standard Value>  (869) 
nan

>  <Assay ChEMBL ID>  (869) 
nan

>  <Assay Description>  (869) 
nan

>  <BAO Label>  (869) 
nan

$$$$

     RDKit          2D

 29 32  0  0  0  0  0  0  0  0999 V2000
   -0.5773   -9.4764    0.0000 C   0  0  0  0  0  0  0  0  0  0  0  0
    0.8899   -9.1645    0.0000 C   0  0  0  0  0  0  0  0  0  0  0  0
    2.0046  -10.1682    0.0000 O   0  0  0  0  0  0  0  0  0  0  0  0
    3.3037   -9.4182    0.0000 C   0  0  0  0  0  0  0  0  0  0  0  0
    4.6740  -10.0283    0.0000 C   0  0  0  0  0  0  0  0  0  0  0  0
    4.8308  -11.5201    0.0000 C   0  0  0  0  0  0  0  0  0  0  0  0
    6.2011  -12.1302    0.0000 C   0  0  0  0  0  0  0  0  0  0  0  0
    7.4146  -11.2486    0.0000 C   0  0  0  0  0  0  0  0  0  0  0  0
    7.2578   -9.7568    0.0000 C   0  0  0  0  0  0  0  0  0  0  0  0
    8.4713   -8.8751    0.0000 Cl  0  0  0  0  0  0  0  0  0  0  0  0
    5.8875   -9.1467    0.0000 C   0  0  0  0  0  0  0  0  0  0  0  0
    2.9918   -7.9510    0.0000 N   0  0  0  0  0  0  0  0  0  0  0  0
    1.5000   -7.7942    0.0000 C   0  0  0  0  0  0  0  0  0  0  0  0
    0.7500   -6.4952    0.0000 C   0  0  0  0  0  0  0  0  0  0  0  0
    1.5000   -5.1962    0.0000 S   0  0  0  0  0  0  0  0  0  0  0  0
    0.7500   -3.8971    0.0000 C   0  0  0  0  0  0  0  0  0  0  0  0
   -0.7500   -3.8971    0.0000 N   0  0  0  0  0  0  0  0  0  0  0  0
   -1.5000   -2.5981    0.0000 C   0  0  0  0  0  0  0  0  0  0  0  0
   -3.0000   -2.5981    0.0000 O   0  0  0  0  0  1  0  0  0  0  0  0
   -0.7500   -1.2990    0.0000 C   0  0  0  0  0  0  0  0  0  0  0  0
    0.7500   -1.2990    0.0000 C   0  0  0  0  0  0  0  0  0  0  0  0
    1.5000   -2.5981    0.0000 N   0  0  0  0  0  0  0  0  0  0  0  0
    1.5000    0.0000    0.0000 C   0  0  0  0  0  0  0  0  0  0  0  0
    0.7500    1.2990    0.0000 C   0  0  0  0  0  0  0  0  0  0  0  0
   -0.7500    1.2990    0.0000 N   0  0  0  0  0  4  0  0  0  0  0  0
   -1.5000    2.5981    0.0000 C   0  0  0  0  0  0  0  0  0  0  0  0
   -0.7500    3.8971    0.0000 C   0  0  0  0  0  0  0  0  0  0  0  0
   -3.0000    2.5981    0.0000 C   0  0  0  0  0  0  0  0  0  0  0  0
   -1.5000    0.0000    0.0000 C   0  0  0  0  0  0  0  0  0  0  0  0
  1  2  1  0
  2  3  1  0
  3  4  1  0
  4  5  1  0
  5  6  2  0
  6  7  1  0
  7  8  2  0
  8  9  1  0
  9 10  1  0
  9 11  2  0
  4 12  2  0
 12 13  1  0
 13 14  1  0
 14 15  1  0
 15 16  1  0
 16 17  2  0
 17 18  1  0
 18 19  1  0
 18 20  2  0
 20 21  1  0
 21 22  2  0
 21 23  1  0
 23 24  1  0
 24 25  1  0
 25 26  1  0
 26 27  1  0
 26 28  1  0
 25 29  1  0
 13  2  2  0
 22 16  1  0
 11  5  1  0
 29 20  1  0
M  CHG  2  19  -1  25   1
M  END
>  <Compound_ID>  (870) 
C33287198

>  <Active>  (870) 
0.0

>  <Smiles>  (870) 
Cc1oc(-c2cccc(Cl)c2)nc1CSc1nc([O-])c2c(n1)CC[NH+](C(C)C)C2

>  <canonical_smi>  (870) 
Cc1oc(-c2cccc(Cl)c2)nc1CSc1nc([O-])c2c(n1)CC[NH+](C(C)C)C2

>  <Set>  (870) 
G2 inactive

>  <Set_type>  (870) 
Train

>  <MW>  (870) 
430.96

>  <HBD>  (870) 
1

>  <HBA>  (870) 
6

>  <NRB>  (870) 
5

>  <NR>  (870) 
4

>  <NAR>  (870) 
3

>  <PSA>  (870) 
79.31

>  <Standard Type>  (870) 
nan

>  <Standard Relation>  (870) 
nan

>  <Standard Units>  (870) 
nan

>  <Standard Value>  (870) 
nan

>  <Assay ChEMBL ID>  (870) 
nan

>  <Assay Description>  (870) 
nan

>  <BAO Label>  (870) 
nan

$$$$

     RDKit          2D

 29 34  0  0  0  0  0  0  0  0999 V2000
   -1.5000  -10.3923    0.0000 F   0  0  0  0  0  0  0  0  0  0  0  0
   -0.7500   -9.0933    0.0000 C   0  0  0  0  0  0  0  0  0  0  0  0
   -1.5000   -7.7942    0.0000 C   0  0  0  0  0  0  0  0  0  0  0  0
   -0.7500   -6.4952    0.0000 C   0  0  0  0  0  0  0  0  0  0  0  0
    0.7500   -6.4952    0.0000 C   0  0  0  0  0  0  0  0  0  0  0  0
    1.5000   -5.1962    0.0000 C   0  0  0  0  0  0  0  0  0  0  0  0
    0.7500   -3.8971    0.0000 C   0  0  0  0  0  0  0  0  0  0  0  0
    1.5000   -2.5981    0.0000 C   0  0  0  0  0  0  0  0  0  0  0  0
    3.0000   -2.5981    0.0000 N   0  0  0  0  0  0  0  0  0  0  0  0
    3.7500   -3.8971    0.0000 C   0  0  0  0  0  0  0  0  0  0  0  0
    5.2172   -4.2090    0.0000 N   0  0  0  0  0  0  0  0  0  0  0  0
    5.3740   -5.7008    0.0000 N   0  0  0  0  0  0  0  0  0  0  0  0
    4.0037   -6.3109    0.0000 N   0  0  0  0  0  0  0  0  0  0  0  0
    3.0000   -5.1962    0.0000 N   0  0  0  0  0  0  0  0  0  0  0  0
    0.7500   -1.2990    0.0000 C   0  0  0  0  0  0  0  0  0  0  0  0
    1.5000    0.0000    0.0000 C   0  0  0  0  0  0  0  0  0  0  0  0
    0.7500    1.2990    0.0000 C   0  0  0  0  0  0  0  0  0  0  0  0
   -0.7500    1.2990    0.0000 C   0  0  0  0  0  0  0  0  0  0  0  0
   -1.5000    0.0000    0.0000 C   0  0  0  0  0  0  0  0  0  0  0  0
   -0.7500   -1.2990    0.0000 C   0  0  0  0  0  0  0  0  0  0  0  0
   -1.5000   -2.5981    0.0000 O   0  0  0  0  0  0  0  0  0  0  0  0
   -0.7500   -3.8971    0.0000 C   0  0  0  0  0  0  0  0  0  0  0  0
   -1.5000   -5.1962    0.0000 C   0  0  0  0  0  0  0  0  0  0  0  0
   -0.8899   -6.5665    0.0000 C   0  0  0  0  0  0  0  0  0  0  0  0
   -2.0046   -7.5702    0.0000 C   0  0  0  0  0  0  0  0  0  0  0  0
   -3.3037   -6.8202    0.0000 C   0  0  0  0  0  0  0  0  0  0  0  0
   -2.9918   -5.3529    0.0000 S   0  0  0  0  0  0  0  0  0  0  0  0
    1.5000   -7.7942    0.0000 C   0  0  0  0  0  0  0  0  0  0  0  0
    0.7500   -9.0933    0.0000 C   0  0  0  0  0  0  0  0  0  0  0  0
  1  2  1  0
  2  3  2  0
  3  4  1  0
  4  5  2  0
  6  5  1  1
  6  7  1  0
  7  8  2  0
  8  9  1  0
  9 10  1  0
 10 11  2  0
 11 12  1  0
 12 13  2  0
 13 14  1  0
  8 15  1  0
 15 16  2  0
 16 17  1  0
 17 18  2  0
 18 19  1  0
 19 20  2  0
 20 21  1  0
 21 22  1  0
 22 23  1  1
 23 24  2  0
 24 25  1  0
 25 26  2  0
 26 27  1  0
  5 28  1  0
 28 29  2  0
 29  2  1  0
 14  6  1  0
 20 15  1  0
 27 23  1  0
 22  7  1  0
 14 10  1  0
M  END
>  <Compound_ID>  (871) 
C28055444

>  <Active>  (871) 
0.0

>  <Smiles>  (871) 
Fc1ccc([C@H]2C3=C(Nc4nnnn42)c2ccccc2O[C@@H]3c2cccs2)cc1

>  <canonical_smi>  (871) 
Fc1ccc([C@H]2C3=C(Nc4nnnn42)c2ccccc2O[C@@H]3c2cccs2)cc1

>  <Set>  (871) 
G2 inactive

>  <Set_type>  (871) 
Train

>  <MW>  (871) 
403.44

>  <HBD>  (871) 
1

>  <HBA>  (871) 
5

>  <NRB>  (871) 
2

>  <NR>  (871) 
6

>  <NAR>  (871) 
4

>  <PSA>  (871) 
64.86

>  <Standard Type>  (871) 
nan

>  <Standard Relation>  (871) 
nan

>  <Standard Units>  (871) 
nan

>  <Standard Value>  (871) 
nan

>  <Assay ChEMBL ID>  (871) 
nan

>  <Assay Description>  (871) 
nan

>  <BAO Label>  (871) 
nan

$$$$

     RDKit          2D

 22 24  0  0  0  0  0  0  0  0999 V2000
    1.7934    4.1886    0.0000 O   0  0  0  0  0  0  0  0  0  0  0  0
    1.3299    5.6152    0.0000 S   0  0  0  0  0  0  0  0  0  0  0  0
    0.8664    7.0418    0.0000 O   0  0  0  0  0  0  0  0  0  0  0  0
   -0.0967    5.1517    0.0000 N   0  0  0  0  0  4  0  0  0  0  0  0
   -0.4086    3.6844    0.0000 C   0  0  0  0  0  0  0  0  0  0  0  0
    0.7062    2.6807    0.0000 C   0  0  0  0  0  0  0  0  0  0  0  0
    0.3943    1.2135    0.0000 C   0  0  0  0  0  0  0  0  0  0  0  0
    1.2760    0.0000    0.0000 N   0  0  0  0  0  0  0  0  0  0  0  0
    0.3943   -1.2135    0.0000 C   0  0  0  0  0  0  0  0  0  0  0  0
    0.8578   -2.6401    0.0000 O   0  0  0  0  0  1  0  0  0  0  0  0
   -1.0323   -0.7500    0.0000 N   0  0  0  0  0  0  0  0  0  0  0  0
   -1.0323    0.7500    0.0000 C   0  0  0  0  0  0  0  0  0  0  0  0
   -2.1470    1.7537    0.0000 C   0  0  0  0  0  0  0  0  0  0  0  0
   -1.8351    3.2209    0.0000 C   0  0  0  0  0  0  0  0  0  0  0  0
   -2.9499    4.2246    0.0000 Br  0  0  0  0  0  0  0  0  0  0  0  0
    2.7565    6.0787    0.0000 C   0  0  0  0  0  0  0  0  0  0  0  0
    3.8712    5.0750    0.0000 C   0  0  0  0  0  0  0  0  0  0  0  0
    5.2978    5.5385    0.0000 C   0  0  0  0  0  0  0  0  0  0  0  0
    5.6097    7.0058    0.0000 C   0  0  0  0  0  0  0  0  0  0  0  0
    7.0362    7.4693    0.0000 Cl  0  0  0  0  0  0  0  0  0  0  0  0
    4.4949    8.0095    0.0000 C   0  0  0  0  0  0  0  0  0  0  0  0
    3.0684    7.5459    0.0000 C   0  0  0  0  0  0  0  0  0  0  0  0
  1  2  2  0
  2  3  2  0
  2  4  1  0
  4  5  2  0
  5  6  1  0
  6  7  2  0
  7  8  1  0
  8  9  2  0
  9 10  1  0
  9 11  1  0
 11 12  2  0
 12 13  1  0
 13 14  2  0
 14 15  1  0
  2 16  1  0
 16 17  2  0
 17 18  1  0
 18 19  2  0
 19 20  1  0
 19 21  1  0
 21 22  2  0
 14  5  1  0
 22 16  1  0
 12  7  1  0
M  CHG  2   4   1  10  -1
M  END
>  <Compound_ID>  (872) 
C39359427

>  <Active>  (872) 
0.0

>  <Smiles>  (872) 
O=S(=O)(/[NH+]=C1\C=C2N=C([O-])N=C2C=C1Br)c1ccc(Cl)cc1

>  <canonical_smi>  (872) 
O=S(=O)(/[NH+]=C1\C=C2N=C([O-])N=C2C=C1Br)c1ccc(Cl)cc1

>  <Set>  (872) 
G2 inactive

>  <Set_type>  (872) 
Train

>  <MW>  (872) 
400.64

>  <HBD>  (872) 
1

>  <HBA>  (872) 
3

>  <NRB>  (872) 
2

>  <NR>  (872) 
3

>  <NAR>  (872) 
1

>  <PSA>  (872) 
95.89

>  <Standard Type>  (872) 
nan

>  <Standard Relation>  (872) 
nan

>  <Standard Units>  (872) 
nan

>  <Standard Value>  (872) 
nan

>  <Assay ChEMBL ID>  (872) 
nan

>  <Assay Description>  (872) 
nan

>  <BAO Label>  (872) 
nan

$$$$

     RDKit          2D

 28 31  0  0  0  0  0  0  0  0999 V2000
    3.7500   -1.2990    0.0000 C   0  0  0  0  0  0  0  0  0  0  0  0
    3.0000    0.0000    0.0000 O   0  0  0  0  0  0  0  0  0  0  0  0
    1.5000    0.0000    0.0000 C   0  0  0  0  0  0  0  0  0  0  0  0
    0.7500   -1.2990    0.0000 C   0  0  0  0  0  0  0  0  0  0  0  0
   -0.7500   -1.2990    0.0000 C   0  0  0  0  0  0  0  0  0  0  0  0
   -1.5000    0.0000    0.0000 C   0  0  0  0  0  0  0  0  0  0  0  0
   -3.0000    0.0000    0.0000 C   0  0  0  0  0  0  0  0  0  0  0  0
   -3.7500   -1.2990    0.0000 C   0  0  0  0  0  0  0  0  0  0  0  0
   -3.0000   -2.5981    0.0000 O   0  0  0  0  0  0  0  0  0  0  0  0
   -5.2500   -1.2990    0.0000 N   0  0  0  0  0  0  0  0  0  0  0  0
   -6.0000   -2.5981    0.0000 C   0  0  0  0  0  0  0  0  0  0  0  0
   -5.3899   -3.9684    0.0000 S   0  0  0  0  0  0  0  0  0  0  0  0
   -6.5046   -4.9721    0.0000 C   0  0  0  0  0  0  0  0  0  0  0  0
   -7.8037   -4.2221    0.0000 C   0  0  0  0  0  0  0  0  0  0  0  0
   -7.4918   -2.7549    0.0000 C   0  0  0  0  0  0  0  0  0  0  0  0
   -8.4955   -1.6402    0.0000 C   0  0  0  0  0  0  0  0  0  0  0  0
   -9.4992   -0.5254    0.0000 N   0  0  0  0  0  0  0  0  0  0  0  0
   -9.1027   -4.9721    0.0000 C   0  0  0  0  0  0  0  0  0  0  0  0
   -9.1027   -6.4721    0.0000 C   0  0  0  0  0  0  0  0  0  0  0  0
   -7.8037   -7.2221    0.0000 C   0  0  0  0  0  0  0  0  0  0  0  0
   -7.8037   -8.7221    0.0000 C   0  0  0  0  0  0  0  0  0  0  0  0
   -6.5046   -6.4721    0.0000 C   0  0  0  0  0  0  0  0  0  0  0  0
   -3.7500    1.2990    0.0000 C   0  0  0  0  0  0  0  0  0  0  0  0
   -3.0000    2.5981    0.0000 C   0  0  0  0  0  0  0  0  0  0  0  0
   -3.7500    3.8971    0.0000 O   0  0  0  0  0  0  0  0  0  0  0  0
   -1.5000    2.5981    0.0000 O   0  0  0  0  0  0  0  0  0  0  0  0
   -0.7500    1.2990    0.0000 C   0  0  0  0  0  0  0  0  0  0  0  0
    0.7500    1.2990    0.0000 C   0  0  0  0  0  0  0  0  0  0  0  0
  1  2  1  0
  2  3  1  0
  3  4  2  0
  4  5  1  0
  5  6  2  0
  6  7  1  0
  7  8  1  0
  8  9  2  0
  8 10  1  0
 10 11  1  0
 11 12  1  0
 12 13  1  0
 13 14  2  0
 14 15  1  0
 15 16  1  0
 16 17  3  0
 14 18  1  0
 18 19  1  0
 19 20  1  0
 20 21  1  1
 20 22  1  0
  7 23  2  0
 23 24  1  0
 24 25  2  0
 24 26  1  0
 26 27  1  0
 27 28  2  0
 28  3  1  0
 27  6  1  0
 15 11  2  0
 22 13  1  0
M  END
>  <Compound_ID>  (873) 
C41550651

>  <Active>  (873) 
0.0

>  <Smiles>  (873) 
COc1ccc2c(C(=O)Nc3sc4c(c3C#N)CC[C@H](C)C4)cc(=O)oc2c1

>  <canonical_smi>  (873) 
COc1ccc2c(C(=O)Nc3sc4c(c3C#N)CC[C@H](C)C4)cc(=O)oc2c1

>  <Set>  (873) 
G2 inactive

>  <Set_type>  (873) 
Train

>  <MW>  (873) 
394.45

>  <HBD>  (873) 
1

>  <HBA>  (873) 
5

>  <NRB>  (873) 
3

>  <NR>  (873) 
4

>  <NAR>  (873) 
3

>  <PSA>  (873) 
92.33

>  <Standard Type>  (873) 
nan

>  <Standard Relation>  (873) 
nan

>  <Standard Units>  (873) 
nan

>  <Standard Value>  (873) 
nan

>  <Assay ChEMBL ID>  (873) 
nan

>  <Assay Description>  (873) 
nan

>  <BAO Label>  (873) 
nan

$$$$

     RDKit          2D

 23 25  0  0  0  0  0  0  0  0999 V2000
    3.2543    7.5169    0.0000 C   0  0  0  0  0  0  0  0  0  0  0  0
    4.7167    7.1831    0.0000 C   0  0  0  0  0  0  0  0  0  0  0  0
    5.7369    8.2827    0.0000 C   0  0  0  0  0  0  0  0  0  0  0  0
    7.1993    7.9489    0.0000 C   0  0  0  0  0  0  0  0  0  0  0  0
    8.2196    9.0485    0.0000 Cl  0  0  0  0  0  0  0  0  0  0  0  0
    7.6414    6.5156    0.0000 C   0  0  0  0  0  0  0  0  0  0  0  0
    6.6212    5.4160    0.0000 C   0  0  0  0  0  0  0  0  0  0  0  0
    5.1588    5.7498    0.0000 C   0  0  0  0  0  0  0  0  0  0  0  0
    4.1385    4.6502    0.0000 N   0  0  0  0  0  0  0  0  0  0  0  0
    2.6761    4.9840    0.0000 C   0  0  0  0  0  0  0  0  0  0  0  0
    2.2340    6.4173    0.0000 O   0  0  0  0  0  0  0  0  0  0  0  0
    1.6559    3.8844    0.0000 C   0  0  0  0  0  0  0  0  0  0  0  0
    0.1935    4.2182    0.0000 C   0  0  0  0  0  0  0  0  0  0  0  0
   -0.8268    3.1186    0.0000 C   0  0  0  0  0  0  0  0  0  0  0  0
   -2.2892    3.4524    0.0000 Cl  0  0  0  0  0  0  0  0  0  0  0  0
   -0.3846    1.6852    0.0000 C   0  0  0  0  0  0  0  0  0  0  0  0
    1.0777    1.3515    0.0000 C   0  0  0  0  0  0  0  0  0  0  0  0
    2.0980    2.4510    0.0000 C   0  0  0  0  0  0  0  0  0  0  0  0
    1.7286    0.0000    0.0000 O   0  0  0  0  0  0  0  0  0  0  0  0
    1.0777   -1.3515    0.0000 C   0  0  0  0  0  0  0  0  0  0  0  0
   -0.3846   -1.6852    0.0000 C   0  0  0  0  0  0  0  0  0  0  0  0
   -1.5574   -0.7500    0.0000 C   0  0  0  0  0  0  0  0  0  0  0  0
   -1.5574    0.7500    0.0000 O   0  0  0  0  0  0  0  0  0  0  0  0
  1  2  1  0
  2  3  2  0
  3  4  1  0
  4  5  1  0
  4  6  2  0
  6  7  1  0
  7  8  2  0
  8  9  1  0
  9 10  1  0
 10 11  2  0
 10 12  1  0
 12 13  2  0
 13 14  1  0
 14 15  1  0
 14 16  2  0
 16 17  1  0
 17 18  2  0
 17 19  1  0
 19 20  1  0
 20 21  1  0
 21 22  1  0
 22 23  1  0
  8  2  1  0
 18 12  1  0
 23 16  1  0
M  END
>  <Compound_ID>  (874) 
C07061606

>  <Active>  (874) 
0.0

>  <Smiles>  (874) 
Cc1cc(Cl)ccc1NC(=O)c1cc(Cl)c2c(c1)OCCCO2

>  <canonical_smi>  (874) 
Cc1cc(Cl)ccc1NC(=O)c1cc(Cl)c2c(c1)OCCCO2

>  <Set>  (874) 
G2 inactive

>  <Set_type>  (874) 
Train

>  <MW>  (874) 
352.22

>  <HBD>  (874) 
1

>  <HBA>  (874) 
3

>  <NRB>  (874) 
2

>  <NR>  (874) 
3

>  <NAR>  (874) 
2

>  <PSA>  (874) 
47.56

>  <Standard Type>  (874) 
nan

>  <Standard Relation>  (874) 
nan

>  <Standard Units>  (874) 
nan

>  <Standard Value>  (874) 
nan

>  <Assay ChEMBL ID>  (874) 
nan

>  <Assay Description>  (874) 
nan

>  <BAO Label>  (874) 
nan

$$$$

     RDKit          2D

 20 22  0  0  0  0  0  0  0  0999 V2000
   -5.6967   -0.8098    0.0000 C   0  0  0  0  0  0  0  0  0  0  0  0
   -6.5784    0.4038    0.0000 C   0  0  0  0  0  0  0  0  0  0  0  0
   -8.0784    0.4038    0.0000 N   0  0  0  0  0  0  0  0  0  0  0  0
   -8.5419    1.8303    0.0000 C   0  0  0  0  0  0  0  0  0  0  0  0
   -7.3284    2.7120    0.0000 S   0  0  0  0  0  0  0  0  0  0  0  0
   -6.1149    1.8303    0.0000 C   0  0  0  0  0  0  0  0  0  0  0  0
   -4.6883    2.2939    0.0000 C   0  0  0  0  0  0  0  0  0  0  0  0
   -4.3764    3.7611    0.0000 C   0  0  0  0  0  0  0  0  0  0  0  0
   -3.5736    1.2902    0.0000 N   0  0  0  0  0  0  0  0  0  0  0  0
   -2.1470    1.7537    0.0000 C   0  0  0  0  0  0  0  0  0  0  0  0
   -1.8351    3.2209    0.0000 C   0  0  0  0  0  0  0  0  0  0  0  0
   -2.9499    4.2246    0.0000 Cl  0  0  0  0  0  0  0  0  0  0  0  0
   -0.4086    3.6844    0.0000 C   0  0  0  0  0  0  0  0  0  0  0  0
    0.7062    2.6807    0.0000 C   0  0  0  0  0  0  0  0  0  0  0  0
    2.1328    3.1443    0.0000 Cl  0  0  0  0  0  0  0  0  0  0  0  0
    0.3943    1.2135    0.0000 C   0  0  0  0  0  0  0  0  0  0  0  0
    1.2760    0.0000    0.0000 N   0  0  0  0  0  0  0  0  0  0  0  0
    0.3943   -1.2135    0.0000 S   0  0  0  0  0  0  0  0  0  0  0  0
   -1.0323   -0.7500    0.0000 N   0  0  0  0  0  0  0  0  0  0  0  0
   -1.0323    0.7500    0.0000 C   0  0  0  0  0  0  0  0  0  0  0  0
  1  2  1  0
  2  3  1  0
  3  4  2  0
  4  5  1  0
  5  6  1  0
  6  7  1  0
  7  8  1  6
  7  9  1  0
  9 10  1  0
 10 11  2  0
 11 12  1  0
 11 13  1  0
 13 14  2  0
 14 15  1  0
 14 16  1  0
 16 17  2  0
 17 18  1  0
 18 19  1  0
 19 20  2  0
  6  2  2  0
 20 10  1  0
 20 16  1  0
M  END
>  <Compound_ID>  (875) 
C37316263

>  <Active>  (875) 
0.0

>  <Smiles>  (875) 
Cc1ncsc1[C@H](C)Nc1c(Cl)cc(Cl)c2nsnc12

>  <canonical_smi>  (875) 
Cc1ncsc1[C@H](C)Nc1c(Cl)cc(Cl)c2nsnc12

>  <Set>  (875) 
G2 inactive

>  <Set_type>  (875) 
Train

>  <MW>  (875) 
345.28

>  <HBD>  (875) 
1

>  <HBA>  (875) 
4

>  <NRB>  (875) 
3

>  <NR>  (875) 
3

>  <NAR>  (875) 
3

>  <PSA>  (875) 
50.7

>  <Standard Type>  (875) 
nan

>  <Standard Relation>  (875) 
nan

>  <Standard Units>  (875) 
nan

>  <Standard Value>  (875) 
nan

>  <Assay ChEMBL ID>  (875) 
nan

>  <Assay Description>  (875) 
nan

>  <BAO Label>  (875) 
nan

$$$$

     RDKit          2D

 28 31  0  0  0  0  0  0  0  0999 V2000
   -8.1317    6.8556    0.0000 C   0  0  0  0  0  0  0  0  0  0  0  0
   -7.2500    5.6421    0.0000 C   0  0  0  0  0  0  0  0  0  0  0  0
   -7.8601    4.2718    0.0000 C   0  0  0  0  0  0  0  0  0  0  0  0
   -6.9784    3.0583    0.0000 C   0  0  0  0  0  0  0  0  0  0  0  0
   -7.4420    1.6317    0.0000 N   0  0  0  0  0  4  0  0  0  0  0  0
   -6.2284    0.7500    0.0000 C   0  0  0  0  0  0  0  0  0  0  0  0
   -6.2284   -0.7500    0.0000 C   0  0  0  0  0  0  0  0  0  0  0  0
   -7.5275   -1.5000    0.0000 C   0  0  0  0  0  0  0  0  0  0  0  0
   -4.9294   -1.5000    0.0000 S   0  0  0  0  0  0  0  0  0  0  0  0
   -3.6304   -0.7500    0.0000 C   0  0  0  0  0  0  0  0  0  0  0  0
   -3.6304    0.7500    0.0000 N   0  0  0  0  0  0  0  0  0  0  0  0
   -2.3313    1.5000    0.0000 C   0  0  0  0  0  0  0  0  0  0  0  0
   -2.3313    3.0000    0.0000 O   0  0  0  0  0  0  0  0  0  0  0  0
   -1.0323    0.7500    0.0000 C   0  0  0  0  0  0  0  0  0  0  0  0
    0.3943    1.2135    0.0000 C   0  0  0  0  0  0  0  0  0  0  0  0
    0.8578    2.6401    0.0000 C   0  0  0  0  0  0  0  0  0  0  0  0
    2.3250    2.9520    0.0000 C   0  0  0  0  0  0  0  0  0  0  0  0
    2.7886    4.3786    0.0000 C   0  0  0  0  0  0  0  0  0  0  0  0
    1.7849    5.4933    0.0000 C   0  0  0  0  0  0  0  0  0  0  0  0
    2.2484    6.9199    0.0000 F   0  0  0  0  0  0  0  0  0  0  0  0
    0.3177    5.1814    0.0000 C   0  0  0  0  0  0  0  0  0  0  0  0
   -0.1459    3.7548    0.0000 C   0  0  0  0  0  0  0  0  0  0  0  0
    1.2760    0.0000    0.0000 C   0  0  0  0  0  0  0  0  0  0  0  0
    0.3943   -1.2135    0.0000 S   0  0  0  0  0  0  0  0  0  0  0  0
   -1.0323   -0.7500    0.0000 C   0  0  0  0  0  0  0  0  0  0  0  0
   -2.3313   -1.5000    0.0000 N   0  0  0  0  0  0  0  0  0  0  0  0
   -5.0149    1.6317    0.0000 O   0  0  0  0  0  0  0  0  0  0  0  0
   -5.4784    3.0583    0.0000 N   0  0  0  0  0  0  0  0  0  0  0  0
  1  2  1  0
  2  3  1  0
  3  4  1  0
  4  5  2  0
  5  6  1  0
  6  7  1  0
  7  8  1  6
  7  9  1  0
  9 10  1  0
 10 11  2  0
 11 12  1  0
 12 13  2  0
 12 14  1  0
 14 15  2  0
 15 16  1  0
 16 17  2  0
 17 18  1  0
 18 19  2  0
 19 20  1  0
 19 21  1  0
 21 22  2  0
 15 23  1  0
 23 24  1  0
 24 25  1  0
 25 26  2  0
  6 27  1  1
 27 28  1  0
 28  4  1  0
 26 10  1  0
 25 14  1  0
 22 16  1  0
M  CHG  1   5   1
M  END
>  <Compound_ID>  (876) 
C39781339

>  <Active>  (876) 
0.0

>  <Smiles>  (876) 
CCCC1=[NH+][C@H]([C@@H](C)SC2=NC(=O)C3=C(c4ccc(F)cc4)CSC3=N2)ON1

>  <canonical_smi>  (876) 
CCCC1=[NH+][C@H]([C@@H](C)SC2=NC(=O)C3=C(c4ccc(F)cc4)CSC3=N2)ON1

>  <Set>  (876) 
G2 inactive

>  <Set_type>  (876) 
Train

>  <MW>  (876) 
419.53

>  <HBD>  (876) 
2

>  <HBA>  (876) 
5

>  <NRB>  (876) 
5

>  <NR>  (876) 
4

>  <NAR>  (876) 
1

>  <PSA>  (876) 
77.02

>  <Standard Type>  (876) 
nan

>  <Standard Relation>  (876) 
nan

>  <Standard Units>  (876) 
nan

>  <Standard Value>  (876) 
nan

>  <Assay ChEMBL ID>  (876) 
nan

>  <Assay Description>  (876) 
nan

>  <BAO Label>  (876) 
nan

$$$$

     RDKit          2D

 38 43  0  0  0  0  0  0  0  0999 V2000
   12.9342   -1.1625    0.0000 C   0  0  0  0  0  0  0  0  0  0  0  0
   12.0526    0.0511    0.0000 C   0  0  0  0  0  0  0  0  0  0  0  0
   12.6627    1.4214    0.0000 C   0  0  0  0  0  0  0  0  0  0  0  0
   11.7810    2.6349    0.0000 C   0  0  0  0  0  0  0  0  0  0  0  0
   10.2892    2.4781    0.0000 C   0  0  0  0  0  0  0  0  0  0  0  0
    9.1745    3.4818    0.0000 N   0  0  0  0  0  0  0  0  0  0  0  0
    7.8754    2.7318    0.0000 C   0  0  0  0  0  0  0  0  0  0  0  0
    8.1873    1.2646    0.0000 C   0  0  0  0  0  0  0  0  0  0  0  0
    7.1836    0.1499    0.0000 C   0  0  0  0  0  0  0  0  0  0  0  0
    5.7164    0.4617    0.0000 C   0  0  0  0  0  0  0  0  0  0  0  0
    4.7127   -0.6530    0.0000 N   0  0  0  0  0  0  0  0  0  0  0  0
    3.2455   -0.3411    0.0000 C   0  0  0  0  0  0  0  0  0  0  0  0
    2.7820    1.0855    0.0000 O   0  0  0  0  0  0  0  0  0  0  0  0
    2.2418   -1.4558    0.0000 C   0  0  0  0  0  0  0  0  0  0  0  0
    2.5537   -2.9231    0.0000 C   0  0  0  0  0  0  0  0  0  0  0  0
    1.2546   -3.6731    0.0000 N   0  0  0  0  0  0  0  0  0  0  0  0
    1.0978   -5.1648    0.0000 C   0  0  0  0  0  0  0  0  0  0  0  0
    2.3113   -6.0465    0.0000 O   0  0  0  0  0  0  0  0  0  0  0  0
   -0.2725   -5.7749    0.0000 C   0  0  0  0  0  0  0  0  0  0  0  0
   -0.5844   -7.2422    0.0000 C   0  0  0  0  0  0  0  0  0  0  0  0
   -2.0761   -7.3990    0.0000 C   0  0  0  0  0  0  0  0  0  0  0  0
   -2.6863   -6.0286    0.0000 C   0  0  0  0  0  0  0  0  0  0  0  0
   -4.1535   -5.7168    0.0000 C   0  0  0  0  0  0  0  0  0  0  0  0
   -4.6170   -4.2902    0.0000 C   0  0  0  0  0  0  0  0  0  0  0  0
   -6.0842   -3.9783    0.0000 C   0  0  0  0  0  0  0  0  0  0  0  0
   -7.0879   -5.0930    0.0000 C   0  0  0  0  0  0  0  0  0  0  0  0
   -6.6244   -6.5196    0.0000 C   0  0  0  0  0  0  0  0  0  0  0  0
   -5.1572   -6.8315    0.0000 C   0  0  0  0  0  0  0  0  0  0  0  0
   -1.5715   -5.0249    0.0000 O   0  0  0  0  0  0  0  0  0  0  0  0
    0.1399   -2.6694    0.0000 C   0  0  0  0  0  0  0  0  0  0  0  0
    0.7500   -1.2990    0.0000 C   0  0  0  0  0  0  0  0  0  0  0  0
    1.5000    0.0000    0.0000 C   0  0  0  0  0  0  0  0  0  0  0  0
    0.7500    1.2990    0.0000 C   0  0  0  0  0  0  0  0  0  0  0  0
   -0.7500    1.2990    0.0000 N   0  0  0  0  0  4  0  0  0  0  0  0
   -1.5000    0.0000    0.0000 C   0  0  0  0  0  0  0  0  0  0  0  0
   -0.7500   -1.2990    0.0000 C   0  0  0  0  0  0  0  0  0  0  0  0
    9.6791    1.1078    0.0000 C   0  0  0  0  0  0  0  0  0  0  0  0
   10.5608   -0.1057    0.0000 C   0  0  0  0  0  0  0  0  0  0  0  0
  1  2  1  0
  2  3  2  0
  3  4  1  0
  4  5  2  0
  5  6  1  0
  6  7  1  0
  7  8  2  0
  8  9  1  0
  9 10  1  0
 10 11  1  0
 11 12  1  0
 12 13  2  0
 14 12  1  6
 14 15  1  0
 15 16  1  0
 16 17  1  0
 17 18  2  0
 17 19  1  0
 19 20  2  0
 20 21  1  0
 21 22  2  0
 22 23  1  0
 23 24  2  0
 24 25  1  0
 25 26  2  0
 26 27  1  0
 27 28  2  0
 22 29  1  0
 16 30  1  0
 30 31  1  0
 31 32  1  0
 32 33  1  0
 33 34  1  0
 34 35  1  0
 35 36  1  0
  8 37  1  0
 37 38  2  0
 38  2  1  0
 37  5  1  0
 31 14  1  0
 29 19  1  0
 36 31  1  0
 28 23  1  0
M  CHG  1  34   1
M  END
>  <Compound_ID>  (877) 
C39656160

>  <Active>  (877) 
0.0

>  <Smiles>  (877) 
Cc1ccc2[nH]cc(CCNC(=O)[C@@H]3CN(C(=O)c4ccc(-c5ccccc5)o4)CC34CC[NH2+]CC4)c2c1

>  <canonical_smi>  (877) 
Cc1ccc2[nH]cc(CCNC(=O)[C@@H]3CN(C(=O)c4ccc(-c5ccccc5)o4)CC34CC[NH2+]CC4)c2c1

>  <Set>  (877) 
G2 inactive

>  <Set_type>  (877) 
Train

>  <MW>  (877) 
511.65

>  <HBD>  (877) 
3

>  <HBA>  (877) 
3

>  <NRB>  (877) 
6

>  <NR>  (877) 
6

>  <NAR>  (877) 
4

>  <PSA>  (877) 
94.95

>  <Standard Type>  (877) 
nan

>  <Standard Relation>  (877) 
nan

>  <Standard Units>  (877) 
nan

>  <Standard Value>  (877) 
nan

>  <Assay ChEMBL ID>  (877) 
nan

>  <Assay Description>  (877) 
nan

>  <BAO Label>  (877) 
nan

$$$$

     RDKit          2D

 27 30  0  0  0  0  0  0  0  0999 V2000
    2.8261  -11.2961    0.0000 C   0  0  0  0  0  0  0  0  0  0  0  0
    3.5761   -9.9970    0.0000 C   0  0  0  0  0  0  0  0  0  0  0  0
    5.0679   -9.8402    0.0000 C   0  0  0  0  0  0  0  0  0  0  0  0
    5.3798   -8.3730    0.0000 C   0  0  0  0  0  0  0  0  0  0  0  0
    4.0808   -7.6230    0.0000 C   0  0  0  0  0  0  0  0  0  0  0  0
    3.9240   -6.1312    0.0000 C   0  0  0  0  0  0  0  0  0  0  0  0
    5.1375   -5.2496    0.0000 O   0  0  0  0  0  0  0  0  0  0  0  0
    2.5537   -5.5211    0.0000 N   0  0  0  0  0  0  0  0  0  0  0  0
    1.2546   -6.2711    0.0000 C   0  0  0  0  0  0  0  0  0  0  0  0
    0.1399   -5.2674    0.0000 C   0  0  0  0  0  0  0  0  0  0  0  0
    0.7500   -3.8971    0.0000 C   0  0  0  0  0  0  0  0  0  0  0  0
    2.2418   -4.0539    0.0000 C   0  0  0  0  0  0  0  0  0  0  0  0
    1.5000   -2.5981    0.0000 N   0  0  0  0  0  0  0  0  0  0  0  0
    0.7500   -1.2990    0.0000 C   0  0  0  0  0  0  0  0  0  0  0  0
    1.5000    0.0000    0.0000 C   0  0  0  0  0  0  0  0  0  0  0  0
    0.7500    1.2990    0.0000 C   0  0  0  0  0  0  0  0  0  0  0  0
   -0.7500    1.2990    0.0000 C   0  0  0  0  0  0  0  0  0  0  0  0
   -1.5000    0.0000    0.0000 N   0  0  0  0  0  0  0  0  0  0  0  0
   -0.7500   -1.2990    0.0000 C   0  0  0  0  0  0  0  0  0  0  0  0
   -1.5000   -2.5981    0.0000 N   0  0  0  0  0  0  0  0  0  0  0  0
   -0.7500   -3.8971    0.0000 C   0  0  0  0  0  0  0  0  0  0  0  0
   -1.5000   -5.1962    0.0000 N   0  0  0  0  0  4  0  0  0  0  0  0
   -3.0000   -5.1962    0.0000 C   0  0  0  0  0  0  0  0  0  0  0  0
   -3.0000   -6.6962    0.0000 C   0  0  0  0  0  0  0  0  0  0  0  0
   -3.0000   -3.6962    0.0000 C   0  0  0  0  0  0  0  0  0  0  0  0
   -4.5000   -5.1962    0.0000 C   0  0  0  0  0  0  0  0  0  0  0  0
    2.9660   -8.6267    0.0000 S   0  0  0  0  0  0  0  0  0  0  0  0
  1  2  1  0
  2  3  2  0
  3  4  1  0
  4  5  2  0
  5  6  1  0
  6  7  2  0
  6  8  1  0
  8  9  1  0
  9 10  1  0
 11 10  1  6
 11 12  1  0
 11 13  1  0
 13 14  1  0
 14 15  2  0
 15 16  1  0
 16 17  2  0
 17 18  1  0
 18 19  2  0
 19 20  1  0
 20 21  1  0
 21 22  2  0
 22 23  1  0
 23 24  1  0
 23 25  1  0
 23 26  1  0
  5 27  1  0
 27  2  1  0
 12  8  1  0
 19 14  1  0
 21 11  1  0
M  CHG  1  22   1
M  END
>  <Compound_ID>  (878) 
C65266393

>  <Active>  (878) 
0.0

>  <Smiles>  (878) 
Cc1ccc(C(=O)N2CC[C@@]3(C2)Nc2cccnc2N/C3=[NH+]\C(C)(C)C)s1

>  <canonical_smi>  (878) 
Cc1ccc(C(=O)N2CC[C@@]3(C2)Nc2cccnc2N/C3=[NH+]\C(C)(C)C)s1

>  <Set>  (878) 
G2 inactive

>  <Set_type>  (878) 
Train

>  <MW>  (878) 
384.53

>  <HBD>  (878) 
3

>  <HBA>  (878) 
4

>  <NRB>  (878) 
1

>  <NR>  (878) 
4

>  <NAR>  (878) 
2

>  <PSA>  (878) 
71.23

>  <Standard Type>  (878) 
nan

>  <Standard Relation>  (878) 
nan

>  <Standard Units>  (878) 
nan

>  <Standard Value>  (878) 
nan

>  <Assay ChEMBL ID>  (878) 
nan

>  <Assay Description>  (878) 
nan

>  <BAO Label>  (878) 
nan

$$$$

     RDKit          2D

 33 38  0  0  0  0  0  0  0  0999 V2000
    1.3718   13.5564    0.0000 C   0  0  0  0  0  0  0  0  0  0  0  0
    1.2597   12.0606    0.0000 O   0  0  0  0  0  0  0  0  0  0  0  0
   -0.0918   11.4098    0.0000 C   0  0  0  0  0  0  0  0  0  0  0  0
   -1.2189   12.3995    0.0000 O   0  0  0  0  0  0  0  0  0  0  0  0
   -0.2039    9.9140    0.0000 C   0  0  0  0  0  0  0  0  0  0  0  0
    0.9404    8.9441    0.0000 S   0  0  0  0  0  0  0  0  0  0  0  0
    0.3716    7.5561    0.0000 C   0  0  0  0  0  0  0  0  0  0  0  0
    1.0224    6.2047    0.0000 N   0  0  0  0  0  0  0  0  0  0  0  0
    0.1774    4.9653    0.0000 C   0  0  0  0  0  0  0  0  0  0  0  0
    0.8282    3.6139    0.0000 C   0  0  0  0  0  0  0  0  0  0  0  0
   -0.4113    1.7963    0.0000 N   0  0  0  0  0  4  0  0  0  0  0  0
    0.3391    0.4970    0.0000 C   0  0  0  0  0  0  0  0  0  0  0  0
    0.7500   -1.2990    0.0000 C   0  0  0  0  0  0  0  0  0  0  0  0
    1.5000    0.0000    0.0000 C   0  0  0  0  0  0  0  0  0  0  0  0
    0.7500    1.2990    0.0000 C   0  0  0  0  0  0  0  0  0  0  0  0
   -0.0000    2.5981    0.0000 C   0  0  0  0  0  0  0  0  0  0  0  0
   -1.5000    2.5981    0.0000 C   0  0  0  0  0  0  0  0  0  0  0  0
   -2.2500    1.2990    0.0000 C   0  0  0  0  0  0  0  0  0  0  0  0
   -1.5000    0.0000    0.0000 C   0  0  0  0  0  0  0  0  0  0  0  0
   -0.7500   -1.2990    0.0000 C   0  0  0  0  0  0  0  0  0  0  0  0
   -0.7500    1.2990    0.0000 C   0  0  0  0  0  0  0  0  0  0  0  0
   -1.3184    5.0774    0.0000 C   0  0  0  0  0  0  0  0  0  0  0  0
   -1.9692    6.4289    0.0000 C   0  0  0  0  0  0  0  0  0  0  0  0
   -1.1243    7.6682    0.0000 C   0  0  0  0  0  0  0  0  0  0  0  0
   -1.4799    9.1255    0.0000 C   0  0  0  0  0  0  0  0  0  0  0  0
   -2.8678    9.6943    0.0000 N   0  0  0  0  0  0  0  0  0  0  0  0
   -3.0692   11.1807    0.0000 C   0  0  0  0  0  0  0  0  0  0  0  0
   -2.0033   12.2361    0.0000 O   0  0  0  0  0  0  0  0  0  0  0  0
   -4.4571   11.7496    0.0000 C   0  0  0  0  0  0  0  0  0  0  0  0
   -5.7332   10.9610    0.0000 C   0  0  0  0  0  0  0  0  0  0  0  0
   -6.8774   11.9309    0.0000 C   0  0  0  0  0  0  0  0  0  0  0  0
   -6.3086   13.3189    0.0000 O   0  0  0  0  0  0  0  0  0  0  0  0
   -4.8128   13.2068    0.0000 C   0  0  0  0  0  0  0  0  0  0  0  0
  1  2  1  0
  2  3  1  0
  3  4  2  0
  3  5  1  0
  5  6  1  0
  6  7  1  0
  7  8  2  0
  8  9  1  0
  9 10  1  0
 10 11  1  0
 11 12  1  0
 12 13  1  0
 13 14  1  0
 15 14  1  1
 15 16  1  0
 16 17  1  0
 17 18  1  0
 19 18  1  1
 19 20  1  0
 19 21  1  0
  9 22  2  0
 22 23  1  0
 23 24  2  0
 24 25  1  0
 25 26  1  0
 26 27  1  0
 27 28  2  0
 27 29  1  0
 29 30  1  0
 30 31  2  0
 31 32  1  0
 32 33  1  0
 25  5  2  0
 33 29  2  0
 24  7  1  0
 17 11  1  0
 20 13  1  0
 21 15  1  0
M  CHG  1  11   1
M  END
>  <Compound_ID>  (879) 
C12470413

>  <Active>  (879) 
0.0

>  <Smiles>  (879) 
COC(=O)c1sc2nc(C[NH+]3CC4C[C@@H]5CC3C[C@H](C4)C5)ccc2c1NC(=O)c1ccoc1

>  <canonical_smi>  (879) 
COC(=O)c1sc2nc(C[NH+]3CC4C[C@H]5CC3C[C@@H](C4)C5)ccc2c1NC(=O)c1ccoc1

>  <Set>  (879) 
G2 inactive

>  <Set_type>  (879) 
Train

>  <MW>  (879) 
466.58

>  <HBD>  (879) 
2

>  <HBA>  (879) 
5

>  <NRB>  (879) 
5

>  <NR>  (879) 
7

>  <NAR>  (879) 
3

>  <PSA>  (879) 
85.87

>  <Standard Type>  (879) 
nan

>  <Standard Relation>  (879) 
nan

>  <Standard Units>  (879) 
nan

>  <Standard Value>  (879) 
nan

>  <Assay ChEMBL ID>  (879) 
nan

>  <Assay Description>  (879) 
nan

>  <BAO Label>  (879) 
nan

$$$$

     RDKit          2D

 36 40  0  0  0  0  0  0  0  0999 V2000
    6.1865    6.4289    0.0000 C   0  0  0  0  0  0  0  0  0  0  0  0
    4.7193    6.1170    0.0000 O   0  0  0  0  0  0  0  0  0  0  0  0
    4.2558    4.6904    0.0000 C   0  0  0  0  0  0  0  0  0  0  0  0
    5.2595    3.5757    0.0000 C   0  0  0  0  0  0  0  0  0  0  0  0
    4.7960    2.1491    0.0000 C   0  0  0  0  0  0  0  0  0  0  0  0
    3.3287    1.8373    0.0000 C   0  0  0  0  0  0  0  0  0  0  0  0
    2.8652    0.4107    0.0000 O   0  0  0  0  0  0  0  0  0  0  0  0
    3.8689   -0.7040    0.0000 C   0  0  0  0  0  0  0  0  0  0  0  0
    2.3250    2.9520    0.0000 C   0  0  0  0  0  0  0  0  0  0  0  0
    0.8578    2.6401    0.0000 C   0  0  0  0  0  0  0  0  0  0  0  0
    0.3943    1.2135    0.0000 C   0  0  0  0  0  0  0  0  0  0  0  0
    1.2760    0.0000    0.0000 O   0  0  0  0  0  0  0  0  0  0  0  0
    0.3943   -1.2135    0.0000 C   0  0  0  0  0  0  0  0  0  0  0  0
    0.7062   -2.6807    0.0000 C   0  0  0  0  0  0  0  0  0  0  0  0
    2.1328   -3.1443    0.0000 C   0  0  0  0  0  0  0  0  0  0  0  0
    2.4446   -4.6115    0.0000 N   0  0  0  0  0  4  0  0  0  0  0  0
    1.3299   -5.6152    0.0000 C   0  0  0  0  0  0  0  0  0  0  0  0
    1.6418   -7.0824    0.0000 C   0  0  0  0  0  0  0  0  0  0  0  0
    3.0684   -7.5459    0.0000 C   0  0  0  0  0  0  0  0  0  0  0  0
    4.1831   -6.5422    0.0000 C   0  0  0  0  0  0  0  0  0  0  0  0
    3.8712   -5.0750    0.0000 C   0  0  0  0  0  0  0  0  0  0  0  0
    4.9859   -4.0713    0.0000 C   0  0  0  0  0  0  0  0  0  0  0  0
    6.4125   -4.5348    0.0000 C   0  0  0  0  0  0  0  0  0  0  0  0
    7.5272   -3.5312    0.0000 C   0  0  0  0  0  0  0  0  0  0  0  0
    7.2154   -2.0639    0.0000 C   0  0  0  0  0  0  0  0  0  0  0  0
    5.7888   -1.6004    0.0000 N   0  0  0  0  0  0  0  0  0  0  0  0
    4.6741   -2.6041    0.0000 C   0  0  0  0  0  0  0  0  0  0  0  0
   -0.4086   -3.6844    0.0000 C   0  0  0  0  0  0  0  0  0  0  0  0
   -0.0967   -5.1517    0.0000 O   0  0  0  0  0  0  0  0  0  0  0  0
   -1.8351   -3.2209    0.0000 C   0  0  0  0  0  0  0  0  0  0  0  0
   -2.1470   -1.7537    0.0000 C   0  0  0  0  0  0  0  0  0  0  0  0
   -3.5736   -1.2902    0.0000 C   0  0  0  0  0  0  0  0  0  0  0  0
   -1.0323   -0.7500    0.0000 C   0  0  0  0  0  0  0  0  0  0  0  0
   -1.0323    0.7500    0.0000 C   0  0  0  0  0  0  0  0  0  0  0  0
   -2.2458    1.6317    0.0000 O   0  0  0  0  0  0  0  0  0  0  0  0
    2.7886    4.3786    0.0000 C   0  0  0  0  0  0  0  0  0  0  0  0
  1  2  1  0
  2  3  1  0
  3  4  2  0
  4  5  1  0
  5  6  2  0
  6  7  1  0
  7  8  1  0
  6  9  1  0
  9 10  1  0
 10 11  2  0
 11 12  1  0
 12 13  1  0
 13 14  2  0
 14 15  1  0
 15 16  1  0
 16 17  1  0
 17 18  1  0
 18 19  1  0
 19 20  1  0
 20 21  1  0
 21 22  1  6
 22 23  2  0
 23 24  1  0
 24 25  2  0
 25 26  1  0
 26 27  2  0
 14 28  1  0
 28 29  1  0
 28 30  2  0
 30 31  1  0
 31 32  1  0
 31 33  2  0
 33 34  1  0
 34 35  2  0
  9 36  2  0
 36  3  1  0
 34 11  1  0
 33 13  1  0
 21 16  1  0
 27 22  1  0
M  CHG  1  16   1
M  END
>  <Compound_ID>  (880) 
C41584565

>  <Active>  (880) 
0.0

>  <Smiles>  (880) 
COc1ccc(OC)c(/C=C2\Oc3c(C[NH+]4CCCC[C@H]4c4cccnc4)c(O)cc(C)c3C2=O)c1

>  <canonical_smi>  (880) 
COc1ccc(OC)c(/C=C2\Oc3c(C[NH+]4CCCC[C@H]4c4cccnc4)c(O)cc(C)c3C2=O)c1

>  <Set>  (880) 
G2 inactive

>  <Set_type>  (880) 
Train

>  <MW>  (880) 
487.58

>  <HBD>  (880) 
2

>  <HBA>  (880) 
6

>  <NRB>  (880) 
6

>  <NR>  (880) 
5

>  <NAR>  (880) 
3

>  <PSA>  (880) 
82.32

>  <Standard Type>  (880) 
nan

>  <Standard Relation>  (880) 
nan

>  <Standard Units>  (880) 
nan

>  <Standard Value>  (880) 
nan

>  <Assay ChEMBL ID>  (880) 
nan

>  <Assay Description>  (880) 
nan

>  <BAO Label>  (880) 
nan

$$$$

     RDKit          2D

 33 36  0  0  0  0  0  0  0  0999 V2000
    4.5000  -12.9904    0.0000 O   0  0  0  0  0  0  0  0  0  0  0  0
    3.7500  -14.2894    0.0000 C   0  0  0  0  0  0  0  0  0  0  0  0
    2.2500  -14.2894    0.0000 C   0  0  0  0  0  0  0  0  0  0  0  0
    1.5000  -12.9904    0.0000 C   0  0  0  0  0  0  0  0  0  0  0  0
    2.2500  -11.6913    0.0000 N   0  0  0  0  0  0  0  0  0  0  0  0
    1.5000  -10.3923    0.0000 C   0  0  0  0  0  0  0  0  0  0  0  0
    2.2500   -9.0933    0.0000 C   0  0  0  0  0  0  0  0  0  0  0  0
    1.5000   -7.7942    0.0000 C   0  0  0  0  0  0  0  0  0  0  0  0
   -0.0000   -7.7942    0.0000 C   0  0  0  0  0  0  0  0  0  0  0  0
   -0.7500   -6.4952    0.0000 S   0  0  0  0  0  0  0  0  0  0  0  0
    0.5490   -5.7452    0.0000 O   0  0  0  0  0  0  0  0  0  0  0  0
   -2.0490   -7.2452    0.0000 O   0  0  0  0  0  0  0  0  0  0  0  0
   -1.5000   -5.1962    0.0000 N   0  0  0  0  0  0  0  0  0  0  0  0
   -0.7500   -3.8971    0.0000 C   0  0  0  0  0  0  0  0  0  0  0  0
    0.7500   -3.8971    0.0000 C   0  0  0  0  0  0  0  0  0  0  0  0
    1.5000   -2.5981    0.0000 N   0  0  0  0  0  4  0  0  0  0  0  0
    0.7500   -1.2990    0.0000 C   0  0  0  0  0  0  0  0  0  0  0  0
    1.5000    0.0000    0.0000 C   0  0  0  0  0  0  0  0  0  0  0  0
    0.7500    1.2990    0.0000 C   0  0  0  0  0  0  0  0  0  0  0  0
   -0.7500    1.2990    0.0000 C   0  0  0  0  0  0  0  0  0  0  0  0
   -1.5000    0.0000    0.0000 C   0  0  0  0  0  0  0  0  0  0  0  0
   -0.7500   -1.2990    0.0000 C   0  0  0  0  0  0  0  0  0  0  0  0
   -1.5000   -2.5981    0.0000 N   0  0  0  0  0  0  0  0  0  0  0  0
   -0.7500   -9.0933    0.0000 C   0  0  0  0  0  0  0  0  0  0  0  0
   -0.0000  -10.3923    0.0000 C   0  0  0  0  0  0  0  0  0  0  0  0
    4.5000  -15.5885    0.0000 C   0  0  0  0  0  0  0  0  0  0  0  0
    3.7500  -16.8875    0.0000 C   0  0  0  0  0  0  0  0  0  0  0  0
    4.5000  -18.1865    0.0000 C   0  0  0  0  0  0  0  0  0  0  0  0
    6.0000  -18.1865    0.0000 C   0  0  0  0  0  0  0  0  0  0  0  0
    6.7500  -19.4856    0.0000 Cl  0  0  0  0  0  0  0  0  0  0  0  0
    6.7500  -16.8875    0.0000 C   0  0  0  0  0  0  0  0  0  0  0  0
    8.2500  -16.8875    0.0000 Cl  0  0  0  0  0  0  0  0  0  0  0  0
    6.0000  -15.5885    0.0000 C   0  0  0  0  0  0  0  0  0  0  0  0
  1  2  2  0
  2  3  1  0
  3  4  2  0
  4  5  1  0
  5  6  1  0
  6  7  2  0
  7  8  1  0
  8  9  2  0
  9 10  1  0
 10 11  2  0
 10 12  2  0
 10 13  1  0
 13 14  2  0
 14 15  1  0
 15 16  1  0
 16 17  2  0
 17 18  1  0
 18 19  2  0
 19 20  1  0
 20 21  2  0
 21 22  1  0
 22 23  2  0
  9 24  1  0
 24 25  2  0
  2 26  1  0
 26 27  2  0
 27 28  1  0
 28 29  2  0
 29 30  1  0
 29 31  1  0
 31 32  1  0
 31 33  2  0
 25  6  1  0
 33 26  1  0
 23 14  1  0
 22 17  1  0
M  CHG  1  16   1
M  END
>  <Compound_ID>  (881) 
C38926026

>  <Active>  (881) 
0.0

>  <Smiles>  (881) 
O=C(/C=C\Nc1ccc(S(=O)(=O)/N=C2\C[NH+]=c3ccccc3=N2)cc1)c1ccc(Cl)c(Cl)c1

>  <canonical_smi>  (881) 
O=C(/C=C\Nc1ccc(S(=O)(=O)/N=C2\C[NH+]=c3ccccc3=N2)cc1)c1ccc(Cl)c(Cl)c1

>  <Set>  (881) 
G2 inactive

>  <Set_type>  (881) 
Train

>  <MW>  (881) 
500.39

>  <HBD>  (881) 
2

>  <HBA>  (881) 
4

>  <NRB>  (881) 
6

>  <NR>  (881) 
4

>  <NAR>  (881) 
3

>  <PSA>  (881) 
101.93

>  <Standard Type>  (881) 
nan

>  <Standard Relation>  (881) 
nan

>  <Standard Units>  (881) 
nan

>  <Standard Value>  (881) 
nan

>  <Assay ChEMBL ID>  (881) 
nan

>  <Assay Description>  (881) 
nan

>  <BAO Label>  (881) 
nan

$$$$

     RDKit          2D

 30 33  0  0  0  0  0  0  0  0999 V2000
  -10.2177  -13.8466    0.0000 N   0  0  0  0  0  0  0  0  0  0  0  0
   -9.9058  -12.3794    0.0000 C   0  0  0  0  0  0  0  0  0  0  0  0
   -9.5939  -10.9121    0.0000 C   0  0  0  0  0  0  0  0  0  0  0  0
  -10.7086   -9.9084    0.0000 C   0  0  0  0  0  0  0  0  0  0  0  0
  -10.3968   -8.4412    0.0000 C   0  0  0  0  0  0  0  0  0  0  0  0
  -11.5115   -7.4375    0.0000 Cl  0  0  0  0  0  0  0  0  0  0  0  0
   -8.9702   -7.9777    0.0000 C   0  0  0  0  0  0  0  0  0  0  0  0
   -7.8555   -8.9814    0.0000 C   0  0  0  0  0  0  0  0  0  0  0  0
   -6.4289   -8.5179    0.0000 O   0  0  0  0  0  0  0  0  0  0  0  0
   -6.1170   -7.0506    0.0000 C   0  0  0  0  0  0  0  0  0  0  0  0
   -4.6904   -6.5871    0.0000 C   0  0  0  0  0  0  0  0  0  0  0  0
   -4.3786   -5.1199    0.0000 C   0  0  0  0  0  0  0  0  0  0  0  0
   -2.9520   -4.6564    0.0000 O   0  0  0  0  0  0  0  0  0  0  0  0
   -2.6401   -3.1891    0.0000 C   0  0  0  0  0  0  0  0  0  0  0  0
   -1.2135   -2.7256    0.0000 C   0  0  0  0  0  0  0  0  0  0  0  0
   -0.0000   -3.6073    0.0000 N   0  0  0  0  0  4  0  0  0  0  0  0
    1.2135   -2.7256    0.0000 N   0  0  0  0  0  0  0  0  0  0  0  0
    0.7500   -1.2990    0.0000 C   0  0  0  0  0  0  0  0  0  0  0  0
    1.5000    0.0000    0.0000 N   0  0  0  0  0  0  0  0  0  0  0  0
    0.7500    1.2990    0.0000 C   0  0  0  0  0  0  0  0  0  0  0  0
    1.5000    2.5981    0.0000 N   0  0  0  0  0  0  0  0  0  0  0  0
   -0.7500    1.2990    0.0000 C   0  0  0  0  0  0  0  0  0  0  0  0
   -1.5000    0.0000    0.0000 C   0  0  0  0  0  0  0  0  0  0  0  0
   -0.7500   -1.2990    0.0000 C   0  0  0  0  0  0  0  0  0  0  0  0
   -5.4933   -4.1162    0.0000 C   0  0  0  0  0  0  0  0  0  0  0  0
   -6.9199   -4.5797    0.0000 C   0  0  0  0  0  0  0  0  0  0  0  0
   -8.0346   -3.5760    0.0000 F   0  0  0  0  0  0  0  0  0  0  0  0
   -7.2317   -6.0469    0.0000 C   0  0  0  0  0  0  0  0  0  0  0  0
   -8.6583   -6.5105    0.0000 Cl  0  0  0  0  0  0  0  0  0  0  0  0
   -8.1673  -10.4486    0.0000 C   0  0  0  0  0  0  0  0  0  0  0  0
  1  2  3  0
  2  3  1  0
  3  4  2  0
  4  5  1  0
  5  6  1  0
  5  7  2  0
  7  8  1  0
  8  9  1  0
  9 10  1  0
 10 11  2  0
 11 12  1  0
 12 13  1  0
 13 14  1  0
 15 14  1  6
 15 16  1  0
 16 17  2  0
 17 18  1  0
 18 19  2  0
 19 20  1  0
 20 21  1  0
 20 22  2  0
 22 23  1  0
 23 24  2  0
 12 25  2  0
 25 26  1  0
 26 27  1  0
 26 28  2  0
 28 29  1  0
  8 30  2  0
 30  3  1  0
 28 10  1  0
 24 15  1  0
 24 18  1  0
M  CHG  1  16   1
M  END
>  <Compound_ID>  (882) 
C52569827

>  <Active>  (882) 
0.0

>  <Smiles>  (882) 
N#Cc1cc(Cl)cc(Oc2cc(OC[C@H]3[NH+]=Nc4nc(N)ccc43)cc(F)c2Cl)c1

>  <canonical_smi>  (882) 
N#Cc1cc(Cl)cc(Oc2cc(OC[C@H]3[NH+]=Nc4nc(N)ccc43)cc(F)c2Cl)c1

>  <Set>  (882) 
G2 inactive

>  <Set_type>  (882) 
Train

>  <MW>  (882) 
445.26

>  <HBD>  (882) 
2

>  <HBA>  (882) 
5

>  <NRB>  (882) 
5

>  <NR>  (882) 
4

>  <NAR>  (882) 
3

>  <PSA>  (882) 
107.49

>  <Standard Type>  (882) 
nan

>  <Standard Relation>  (882) 
nan

>  <Standard Units>  (882) 
nan

>  <Standard Value>  (882) 
nan

>  <Assay ChEMBL ID>  (882) 
nan

>  <Assay Description>  (882) 
nan

>  <BAO Label>  (882) 
nan

$$$$

     RDKit          2D

 25 29  0  0  0  0  0  0  0  0999 V2000
    2.7760    0.0000    0.0000 C   0  0  0  0  0  0  0  0  0  0  0  0
    1.2760    0.0000    0.0000 C   0  0  0  0  0  0  0  0  0  0  0  0
    0.3943    1.2135    0.0000 C   0  0  0  0  0  0  0  0  0  0  0  0
   -1.0323    0.7500    0.0000 S   0  0  0  0  0  0  0  0  0  0  0  0
   -1.0323   -0.7500    0.0000 C   0  0  0  0  0  0  0  0  0  0  0  0
   -2.1470   -1.7537    0.0000 N   0  0  0  0  0  4  0  0  0  0  0  0
   -1.8351   -3.2209    0.0000 C   0  0  0  0  0  0  0  0  0  0  0  0
   -2.9499   -4.2246    0.0000 C   0  0  0  0  0  0  0  0  0  0  0  0
   -4.3764   -3.7611    0.0000 N   0  0  0  0  0  0  0  0  0  0  0  0
   -5.4912   -4.7648    0.0000 C   0  0  0  0  0  0  0  0  0  0  0  0
   -5.1793   -6.2320    0.0000 C   0  0  0  0  0  0  0  0  0  0  0  0
   -6.2940   -7.2357    0.0000 C   0  0  0  0  0  0  0  0  0  0  0  0
   -7.7206   -6.7722    0.0000 C   0  0  0  0  0  0  0  0  0  0  0  0
   -9.0196   -7.5222    0.0000 N   0  0  0  0  0  0  0  0  0  0  0  0
  -10.1343   -6.5185    0.0000 C   0  0  0  0  0  0  0  0  0  0  0  0
  -11.6016   -6.8303    0.0000 C   0  0  0  0  0  0  0  0  0  0  0  0
  -12.7163   -7.8340    0.0000 C   0  0  0  0  0  0  0  0  0  0  0  0
  -13.0282   -6.3668    0.0000 C   0  0  0  0  0  0  0  0  0  0  0  0
   -9.5242   -5.1482    0.0000 S   0  0  0  0  0  0  0  0  0  0  0  0
   -8.0325   -5.3050    0.0000 C   0  0  0  0  0  0  0  0  0  0  0  0
   -6.9177   -4.3013    0.0000 C   0  0  0  0  0  0  0  0  0  0  0  0
   -0.4086   -3.6844    0.0000 C   0  0  0  0  0  0  0  0  0  0  0  0
    0.7062   -2.6807    0.0000 C   0  0  0  0  0  0  0  0  0  0  0  0
    2.1328   -3.1443    0.0000 O   0  0  0  0  0  0  0  0  0  0  0  0
    0.3943   -1.2135    0.0000 N   0  0  0  0  0  0  0  0  0  0  0  0
  1  2  1  0
  2  3  2  0
  3  4  1  0
  4  5  1  0
  5  6  2  0
  6  7  1  0
  7  8  1  0
  8  9  1  0
  9 10  1  0
 10 11  2  0
 11 12  1  0
 12 13  2  0
 13 14  1  0
 14 15  2  0
 15 16  1  0
 16 17  1  0
 17 18  1  0
 15 19  1  0
 19 20  1  0
 20 21  2  0
  7 22  2  0
 22 23  1  0
 23 24  2  0
 23 25  1  0
 25  2  1  0
 25  5  1  0
 21 10  1  0
 20 13  1  0
 18 16  1  0
M  CHG  1   6   1
M  END
>  <Compound_ID>  (883) 
C63890374

>  <Active>  (883) 
0.0

>  <Smiles>  (883) 
Cc1csc2[nH+]c(CNc3ccc4nc(C5CC5)sc4c3)cc(=O)n12

>  <canonical_smi>  (883) 
Cc1csc2[nH+]c(CNc3ccc4nc(C5CC5)sc4c3)cc(=O)n12

>  <Set>  (883) 
G2 inactive

>  <Set_type>  (883) 
Train

>  <MW>  (883) 
369.5

>  <HBD>  (883) 
1

>  <HBA>  (883) 
3

>  <NRB>  (883) 
4

>  <NR>  (883) 
5

>  <NAR>  (883) 
4

>  <PSA>  (883) 
60.54

>  <Standard Type>  (883) 
nan

>  <Standard Relation>  (883) 
nan

>  <Standard Units>  (883) 
nan

>  <Standard Value>  (883) 
nan

>  <Assay ChEMBL ID>  (883) 
nan

>  <Assay Description>  (883) 
nan

>  <BAO Label>  (883) 
nan

$$$$

     RDKit          2D

 28 32  0  0  0  0  0  0  0  0999 V2000
    4.5405  -10.1176    0.0000 C   0  0  0  0  0  0  0  0  0  0  0  0
    4.6973   -8.6258    0.0000 O   0  0  0  0  0  0  0  0  0  0  0  0
    3.4838   -7.7441    0.0000 C   0  0  0  0  0  0  0  0  0  0  0  0
    2.1135   -8.3542    0.0000 C   0  0  0  0  0  0  0  0  0  0  0  0
    0.8999   -7.4725    0.0000 C   0  0  0  0  0  0  0  0  0  0  0  0
    1.0567   -5.9808    0.0000 C   0  0  0  0  0  0  0  0  0  0  0  0
   -0.1568   -5.0991    0.0000 C   0  0  0  0  0  0  0  0  0  0  0  0
   -0.0000   -3.6073    0.0000 C   0  0  0  0  0  0  0  0  0  0  0  0
    1.2135   -2.7256    0.0000 N   0  0  0  0  0  0  0  0  0  0  0  0
    0.7500   -1.2990    0.0000 C   0  0  0  0  0  0  0  0  0  0  0  0
    1.5000    0.0000    0.0000 C   0  0  0  0  0  0  0  0  0  0  0  0
    0.7500    1.2990    0.0000 C   0  0  0  0  0  0  0  0  0  0  0  0
   -0.7500    1.2990    0.0000 C   0  0  0  0  0  0  0  0  0  0  0  0
   -1.5000    0.0000    0.0000 C   0  0  0  0  0  0  0  0  0  0  0  0
   -0.7500   -1.2990    0.0000 C   0  0  0  0  0  0  0  0  0  0  0  0
   -1.2135   -2.7256    0.0000 C   0  0  0  0  0  0  0  0  0  0  0  0
   -2.5838   -3.3357    0.0000 C   0  0  0  0  0  0  0  0  0  0  0  0
   -2.7406   -4.8275    0.0000 C   0  0  0  0  0  0  0  0  0  0  0  0
   -1.5271   -5.7092    0.0000 N   0  0  0  0  0  0  0  0  0  0  0  0
   -1.6839   -7.2010    0.0000 C   0  0  0  0  0  0  0  0  0  0  0  0
   -3.0542   -7.8111    0.0000 C   0  0  0  0  0  0  0  0  0  0  0  0
   -3.3661   -9.2783    0.0000 N   0  0  0  0  0  0  0  0  0  0  0  0
   -4.8579   -9.4351    0.0000 C   0  0  0  0  0  0  0  0  0  0  0  0
   -5.4680   -8.0648    0.0000 C   0  0  0  0  0  0  0  0  0  0  0  0
   -4.3533   -7.0611    0.0000 N   0  0  0  0  0  4  0  0  0  0  0  0
    2.4271   -5.3707    0.0000 C   0  0  0  0  0  0  0  0  0  0  0  0
    3.6406   -6.2523    0.0000 C   0  0  0  0  0  0  0  0  0  0  0  0
    5.0109   -5.6422    0.0000 C   0  0  0  0  0  0  0  0  0  0  0  0
  1  2  1  0
  2  3  1  0
  3  4  2  0
  4  5  1  0
  5  6  2  0
  7  6  1  6
  7  8  1  0
  8  9  1  6
  9 10  2  0
 10 11  1  0
 11 12  2  0
 12 13  1  0
 13 14  2  0
 15 14  1  6
 15 16  1  0
 16 17  1  1
 17 18  1  0
 18 19  1  0
 19 20  1  0
 20 21  1  0
 21 22  1  0
 22 23  1  0
 23 24  2  0
 24 25  1  0
  6 26  1  0
 26 27  2  0
 27 28  1  0
 27  3  1  0
 19  7  1  0
 25 21  2  0
 16  8  1  0
 15 10  1  0
M  CHG  1  25   1
M  END
>  <Compound_ID>  (884) 
C64137393

>  <Active>  (884) 
0.0

>  <Smiles>  (884) 
COc1ccc([C@H]2[C@H]3N=C4C=CC=C[C@H]4[C@@H]3CCN2Cc2[nH]cc[nH+]2)cc1C

>  <canonical_smi>  (884) 
COc1ccc([C@H]2[C@H]3N=C4C=CC=C[C@H]4[C@@H]3CCN2Cc2[nH]cc[nH+]2)cc1C

>  <Set>  (884) 
G2 inactive

>  <Set_type>  (884) 
Train

>  <MW>  (884) 
375.5

>  <HBD>  (884) 
1

>  <HBA>  (884) 
2

>  <NRB>  (884) 
4

>  <NR>  (884) 
5

>  <NAR>  (884) 
2

>  <PSA>  (884) 
54.76

>  <Standard Type>  (884) 
nan

>  <Standard Relation>  (884) 
nan

>  <Standard Units>  (884) 
nan

>  <Standard Value>  (884) 
nan

>  <Assay ChEMBL ID>  (884) 
nan

>  <Assay Description>  (884) 
nan

>  <BAO Label>  (884) 
nan

$$$$

     RDKit          2D

 36 40  0  0  0  0  0  0  0  0999 V2000
    5.2500    1.2990    0.0000 C   0  0  0  0  0  0  0  0  0  0  0  0
    3.7500    1.2990    0.0000 C   0  0  0  0  0  0  0  0  0  0  0  0
    3.0000    2.5981    0.0000 O   0  0  0  0  0  0  0  0  0  0  0  0
    3.0000    0.0000    0.0000 N   0  0  0  0  0  4  0  0  0  0  0  0
    1.5000    0.0000    0.0000 C   0  0  0  0  0  0  0  0  0  0  0  0
    0.7500   -1.2990    0.0000 C   0  0  0  0  0  0  0  0  0  0  0  0
   -0.7500   -1.2990    0.0000 C   0  0  0  0  0  0  0  0  0  0  0  0
   -1.5000    0.0000    0.0000 C   0  0  0  0  0  0  0  0  0  0  0  0
   -3.0000    0.0000    0.0000 C   0  0  0  0  0  0  0  0  0  0  0  0
   -3.7500   -1.2990    0.0000 C   0  0  0  0  0  0  0  0  0  0  0  0
   -5.2500   -1.2990    0.0000 S   0  0  0  0  0  0  0  0  0  0  0  0
   -6.0000   -2.5981    0.0000 C   0  0  0  0  0  0  0  0  0  0  0  0
   -7.5000   -2.5981    0.0000 N   0  0  0  0  0  0  0  0  0  0  0  0
   -8.2500   -3.8971    0.0000 C   0  0  0  0  0  0  0  0  0  0  0  0
   -9.7500   -3.8971    0.0000 C   0  0  0  0  0  0  0  0  0  0  0  0
  -10.5000   -5.1962    0.0000 C   0  0  0  0  0  0  0  0  0  0  0  0
   -9.7500   -6.4952    0.0000 C   0  0  0  0  0  0  0  0  0  0  0  0
   -8.2500   -6.4952    0.0000 C   0  0  0  0  0  0  0  0  0  0  0  0
   -7.5000   -5.1962    0.0000 C   0  0  0  0  0  0  0  0  0  0  0  0
   -6.0000   -5.1962    0.0000 C   0  0  0  0  0  0  0  0  0  0  0  0
   -5.2500   -6.4952    0.0000 O   0  0  0  0  0  0  0  0  0  0  0  0
   -5.2500   -3.8971    0.0000 N   0  0  0  0  0  0  0  0  0  0  0  0
   -3.7500   -3.8971    0.0000 C   0  0  0  0  0  0  0  0  0  0  0  0
   -3.0000   -2.5981    0.0000 C   0  0  0  0  0  0  0  0  0  0  0  0
   -1.5000   -2.5981    0.0000 C   0  0  0  0  0  0  0  0  0  0  0  0
   -0.7500   -3.8971    0.0000 C   0  0  0  0  0  0  0  0  0  0  0  0
   -1.5000   -5.1962    0.0000 C   0  0  0  0  0  0  0  0  0  0  0  0
   -0.7500   -6.4952    0.0000 C   0  0  0  0  0  0  0  0  0  0  0  0
   -3.0000   -5.1962    0.0000 C   0  0  0  0  0  0  0  0  0  0  0  0
   -3.7500   -6.4952    0.0000 C   0  0  0  0  0  0  0  0  0  0  0  0
   -3.7500    1.2990    0.0000 C   0  0  0  0  0  0  0  0  0  0  0  0
   -3.0000    2.5981    0.0000 C   0  0  0  0  0  0  0  0  0  0  0  0
   -3.7500    3.8971    0.0000 O   0  0  0  0  0  0  0  0  0  0  0  0
   -1.5000    2.5981    0.0000 O   0  0  0  0  0  0  0  0  0  0  0  0
   -0.7500    1.2990    0.0000 C   0  0  0  0  0  0  0  0  0  0  0  0
    0.7500    1.2990    0.0000 C   0  0  0  0  0  0  0  0  0  0  0  0
  1  2  1  0
  2  3  2  0
  2  4  1  0
  4  5  2  0
  5  6  1  0
  6  7  2  0
  7  8  1  0
  8  9  2  0
  9 10  1  0
 10 11  1  0
 11 12  1  0
 12 13  2  0
 13 14  1  0
 14 15  2  0
 15 16  1  0
 16 17  2  0
 17 18  1  0
 18 19  2  0
 19 20  1  0
 20 21  2  0
 20 22  1  0
 22 23  1  0
 23 24  2  0
 24 25  1  0
 25 26  2  0
 26 27  1  0
 27 28  1  0
 27 29  2  0
 29 30  1  0
  9 31  1  0
 31 32  2  0
 32 33  1  0
 32 34  1  0
 34 35  1  0
 35 36  2  0
 36  5  1  0
 35  8  1  0
 22 12  1  0
 29 23  1  0
 19 14  1  0
M  CHG  1   4   1
M  END
>  <Compound_ID>  (885) 
C36799251

>  <Active>  (885) 
0.0

>  <Smiles>  (885) 
CC(=O)/[NH+]=c1/ccc2c(CSc3nc4ccccc4c(=O)n3-c3cccc(C)c3C)cc(O)oc-2c1

>  <canonical_smi>  (885) 
CC(=O)/[NH+]=c1/ccc2c(CSc3nc4ccccc4c(=O)n3-c3cccc(C)c3C)cc(O)oc-2c1

>  <Set>  (885) 
G2 inactive

>  <Set_type>  (885) 
Train

>  <MW>  (885) 
498.58

>  <HBD>  (885) 
2

>  <HBA>  (885) 
6

>  <NRB>  (885) 
4

>  <NR>  (885) 
5

>  <NAR>  (885) 
5

>  <PSA>  (885) 
99.3

>  <Standard Type>  (885) 
nan

>  <Standard Relation>  (885) 
nan

>  <Standard Units>  (885) 
nan

>  <Standard Value>  (885) 
nan

>  <Assay ChEMBL ID>  (885) 
nan

>  <Assay Description>  (885) 
nan

>  <BAO Label>  (885) 
nan

$$$$

     RDKit          2D

 38 44  0  0  0  0  0  0  0  0999 V2000
    5.2500   -6.4952    0.0000 O   0  0  0  0  0  0  0  0  0  0  0  0
    3.7500   -6.4952    0.0000 C   0  0  0  0  0  0  0  0  0  0  0  0
    3.0000   -7.7942    0.0000 C   0  0  0  0  0  0  0  0  0  0  0  0
    3.6101   -9.1645    0.0000 C   0  0  0  0  0  0  0  0  0  0  0  0
    2.4954  -10.1682    0.0000 C   0  0  0  0  0  0  0  0  0  0  0  0
    1.1963   -9.4182    0.0000 N   0  0  0  0  0  0  0  0  0  0  0  0
    1.5082   -7.9510    0.0000 N   0  0  0  0  0  0  0  0  0  0  0  0
   -0.1027  -10.1682    0.0000 C   0  0  0  0  0  0  0  0  0  0  0  0
   -1.4017   -9.4182    0.0000 C   0  0  0  0  0  0  0  0  0  0  0  0
   -2.7008   -8.6682    0.0000 F   0  0  0  0  0  0  0  0  0  0  0  0
   -2.1517  -10.7173    0.0000 F   0  0  0  0  0  0  0  0  0  0  0  0
   -0.6517   -8.1192    0.0000 F   0  0  0  0  0  0  0  0  0  0  0  0
   -0.1027  -11.6682    0.0000 C   0  0  0  0  0  0  0  0  0  0  0  0
    1.1963  -12.4182    0.0000 C   0  0  0  0  0  0  0  0  0  0  0  0
    1.1963  -13.9182    0.0000 C   0  0  0  0  0  0  0  0  0  0  0  0
   -0.1027  -14.6682    0.0000 C   0  0  0  0  0  0  0  0  0  0  0  0
   -0.1027  -16.1682    0.0000 C   0  0  0  0  0  0  0  0  0  0  0  0
    1.1963  -16.9182    0.0000 C   0  0  0  0  0  0  0  0  0  0  0  0
    1.1963  -18.4182    0.0000 F   0  0  0  0  0  0  0  0  0  0  0  0
    2.4954  -16.1682    0.0000 C   0  0  0  0  0  0  0  0  0  0  0  0
    2.4954  -14.6682    0.0000 C   0  0  0  0  0  0  0  0  0  0  0  0
    2.4954  -11.6682    0.0000 N   0  0  0  0  0  0  0  0  0  0  0  0
    3.0000   -5.1962    0.0000 N   0  0  0  0  0  0  0  0  0  0  0  0
    3.7500   -3.8971    0.0000 C   0  0  0  0  0  0  0  0  0  0  0  0
    3.0000   -2.5981    0.0000 C   0  0  0  0  0  0  0  0  0  0  0  0
    1.5000   -2.5981    0.0000 N   0  0  0  0  0  4  0  0  0  0  0  0
    0.7500   -1.2990    0.0000 C   0  0  0  0  0  0  0  0  0  0  0  0
    1.5000    0.0000    0.0000 C   0  0  0  0  0  0  0  0  0  0  0  0
    0.7500    1.2990    0.0000 C   0  0  0  0  0  0  0  0  0  0  0  0
   -0.7500    1.2990    0.0000 C   0  0  0  0  0  0  0  0  0  0  0  0
   -1.5000    0.0000    0.0000 C   0  0  0  0  0  0  0  0  0  0  0  0
    1.7010   -0.7500    0.0000 C   0  0  0  0  0  0  0  0  0  0  0  0
    3.0000   -0.0000    0.0000 C   0  0  0  0  0  0  0  0  0  0  0  0
    2.2500    1.2990    0.0000 C   0  0  0  0  0  0  0  0  0  0  0  0
    2.2500   -1.2990    0.0000 C   0  0  0  0  0  0  0  0  0  0  0  0
   -0.7500   -1.2990    0.0000 C   0  0  0  0  0  0  0  0  0  0  0  0
    0.7500   -3.8971    0.0000 C   0  0  0  0  0  0  0  0  0  0  0  0
    1.5000   -5.1962    0.0000 C   0  0  0  0  0  0  0  0  0  0  0  0
  1  2  2  0
  2  3  1  0
  3  4  1  0
  4  5  2  0
  5  6  1  0
  6  7  1  0
  6  8  1  0
  8  9  1  6
  9 10  1  0
  9 11  1  0
  9 12  1  0
  8 13  1  0
 13 14  1  0
 14 15  1  1
 15 16  2  0
 16 17  1  0
 17 18  2  0
 18 19  1  0
 18 20  1  0
 20 21  2  0
 14 22  1  0
  2 23  1  0
 23 24  1  0
 24 25  1  0
 25 26  1  0
 26 27  1  0
 27 28  1  0
 28 29  1  0
 29 30  1  0
 30 31  1  0
 31 32  1  0
 32 33  1  0
 33 34  1  0
 33 35  1  0
 31 36  1  0
 26 37  1  0
 37 38  1  0
  7  3  2  0
 21 15  1  0
 38 23  1  0
 22  5  1  0
 35 27  1  0
 36 27  1  0
 34 29  1  0
M  CHG  1  26   1
M  END
>  <Compound_ID>  (886) 
C15319723

>  <Active>  (886) 
0.0

>  <Smiles>  (886) 
O=C(c1cc2n(n1)[C@@H](C(F)(F)F)C[C@H](c1ccc(F)cc1)N2)N1CC[NH+](C23CC4CC(CC(C4)C2)C3)CC1

>  <canonical_smi>  (886) 
O=C(c1cc2n(n1)[C@@H](C(F)(F)F)C[C@H](c1ccc(F)cc1)N2)N1CC[NH+](C23CC4CC(CC(C4)C2)C3)CC1

>  <Set>  (886) 
G2 inactive

>  <Set_type>  (886) 
Train

>  <MW>  (886) 
532.61

>  <HBD>  (886) 
2

>  <HBA>  (886) 
3

>  <NRB>  (886) 
3

>  <NR>  (886) 
8

>  <NAR>  (886) 
2

>  <PSA>  (886) 
54.6

>  <Standard Type>  (886) 
nan

>  <Standard Relation>  (886) 
nan

>  <Standard Units>  (886) 
nan

>  <Standard Value>  (886) 
nan

>  <Assay ChEMBL ID>  (886) 
nan

>  <Assay Description>  (886) 
nan

>  <BAO Label>  (886) 
nan

$$$$

     RDKit          2D

 24 27  0  0  0  0  0  0  0  0999 V2000
   -2.6491   -1.6339    0.0000 O   0  0  0  0  0  0  0  0  0  0  0  0
   -1.5000   -2.5981    0.0000 S   0  0  0  0  0  0  0  0  0  0  0  0
   -2.6491   -3.5623    0.0000 O   0  0  0  0  0  0  0  0  0  0  0  0
   -0.7500   -3.8971    0.0000 C   0  0  0  0  0  0  0  0  0  0  0  0
    0.7500   -3.8971    0.0000 C   0  0  0  0  0  0  0  0  0  0  0  0
    1.5000   -2.5981    0.0000 C   0  0  0  0  0  0  0  0  0  0  0  0
    3.0000   -2.5981    0.0000 N   0  0  0  0  0  0  0  0  0  0  0  0
    3.7500   -1.2990    0.0000 N   0  0  0  0  0  0  0  0  0  0  0  0
    5.2500   -1.2990    0.0000 C   0  0  0  0  0  0  0  0  0  0  0  0
    6.1317   -2.5126    0.0000 N   0  0  0  0  0  0  0  0  0  0  0  0
    7.5583   -2.0490    0.0000 C   0  0  0  0  0  0  0  0  0  0  0  0
    8.8573   -2.7990    0.0000 C   0  0  0  0  0  0  0  0  0  0  0  0
   10.1563   -2.0490    0.0000 C   0  0  0  0  0  0  0  0  0  0  0  0
   10.1563   -0.5490    0.0000 C   0  0  0  0  0  0  0  0  0  0  0  0
    8.8573    0.2010    0.0000 C   0  0  0  0  0  0  0  0  0  0  0  0
    7.5583   -0.5490    0.0000 C   0  0  0  0  0  0  0  0  0  0  0  0
    6.1317   -0.0855    0.0000 S   0  0  0  0  0  0  0  0  0  0  0  0
    0.7500   -1.2990    0.0000 C   0  0  0  0  0  0  0  0  0  0  0  0
    1.5000    0.0000    0.0000 C   0  0  0  0  0  0  0  0  0  0  0  0
    0.7500    1.2990    0.0000 C   0  0  0  0  0  0  0  0  0  0  0  0
    1.5000    2.5981    0.0000 F   0  0  0  0  0  0  0  0  0  0  0  0
   -0.7500    1.2990    0.0000 C   0  0  0  0  0  0  0  0  0  0  0  0
   -1.5000    0.0000    0.0000 C   0  0  0  0  0  0  0  0  0  0  0  0
   -0.7500   -1.2990    0.0000 C   0  0  0  0  0  0  0  0  0  0  0  0
  1  2  2  0
  2  3  2  0
  2  4  1  0
  4  5  1  0
  5  6  1  0
  6  7  2  0
  7  8  1  0
  8  9  2  0
  9 10  1  0
 10 11  1  0
 11 12  2  0
 12 13  1  0
 13 14  2  0
 14 15  1  0
 15 16  2  0
 16 17  1  0
  6 18  1  0
 18 19  2  0
 19 20  1  0
 20 21  1  0
 20 22  2  0
 22 23  1  0
 23 24  2  0
 24  2  1  0
 17  9  1  0
 24 18  1  0
 16 11  1  0
M  END
>  <Compound_ID>  (887) 
C33040432

>  <Active>  (887) 
0.0

>  <Smiles>  (887) 
O=S1(=O)CC/C(=N/N=c2\[nH]c3ccccc3s2)c2cc(F)ccc21

>  <canonical_smi>  (887) 
O=S1(=O)CC/C(=N/N=c2\[nH]c3ccccc3s2)c2cc(F)ccc21

>  <Set>  (887) 
G2 inactive

>  <Set_type>  (887) 
Train

>  <MW>  (887) 
361.42

>  <HBD>  (887) 
1

>  <HBA>  (887) 
2

>  <NRB>  (887) 
1

>  <NR>  (887) 
4

>  <NAR>  (887) 
3

>  <PSA>  (887) 
74.65

>  <Standard Type>  (887) 
nan

>  <Standard Relation>  (887) 
nan

>  <Standard Units>  (887) 
nan

>  <Standard Value>  (887) 
nan

>  <Assay ChEMBL ID>  (887) 
nan

>  <Assay Description>  (887) 
nan

>  <BAO Label>  (887) 
nan

$$$$

     RDKit          2D

 20 21  0  0  0  0  0  0  0  0999 V2000
   -0.4635   -5.6135    0.0000 C   0  0  0  0  0  0  0  0  0  0  0  0
    0.7500   -6.4952    0.0000 C   0  0  0  0  0  0  0  0  0  0  0  0
    1.5000   -5.1962    0.0000 N   0  0  0  0  0  0  0  0  0  0  0  0
    0.7500   -3.8971    0.0000 C   0  0  0  0  0  0  0  0  0  0  0  0
   -0.7500   -3.8971    0.0000 O   0  0  0  0  0  0  0  0  0  0  0  0
    1.5000   -2.5981    0.0000 C   0  0  0  0  0  0  0  0  0  0  0  0
    0.7500   -1.2990    0.0000 N   0  0  0  0  0  4  0  0  0  0  0  0
    1.5000    0.0000    0.0000 C   0  0  0  0  0  0  0  0  0  0  0  0
    0.7500    1.2990    0.0000 C   0  0  0  0  0  0  0  0  0  0  0  0
   -0.7500    1.2990    0.0000 S   0  0  0  0  0  0  0  0  0  0  0  0
   -2.1595    1.8121    0.0000 O   0  0  0  0  0  0  0  0  0  0  0  0
   -0.4895    2.7762    0.0000 O   0  0  0  0  0  0  0  0  0  0  0  0
   -1.5000    0.0000    0.0000 C   0  0  0  0  0  0  0  0  0  0  0  0
   -0.7500   -1.2990    0.0000 C   0  0  0  0  0  0  0  0  0  0  0  0
   -0.2537   -7.6099    0.0000 C   0  0  0  0  0  0  0  0  0  0  0  0
    0.4963   -8.9089    0.0000 C   0  0  0  0  0  0  0  0  0  0  0  0
    1.9635   -8.5971    0.0000 S   0  0  0  0  0  0  0  0  0  0  0  0
    2.1203  -10.0889    0.0000 O   0  0  0  0  0  0  0  0  0  0  0  0
    3.4635   -8.5971    0.0000 O   0  0  0  0  0  0  0  0  0  0  0  0
    2.1203   -7.1053    0.0000 C   0  0  0  0  0  0  0  0  0  0  0  0
  2  1  1  6
  2  3  1  0
  3  4  1  0
  4  5  2  0
  4  6  1  0
  6  7  1  0
  7  8  1  0
  8  9  1  0
  9 10  1  0
 10 11  2  0
 10 12  2  0
 10 13  1  0
 13 14  1  0
  2 15  1  0
 15 16  1  0
 16 17  1  0
 17 18  2  0
 17 19  2  0
 17 20  1  0
 20  2  1  0
 14  7  1  0
M  CHG  1   7   1
M  END
>  <Compound_ID>  (888) 
C45085311

>  <Active>  (888) 
0.0

>  <Smiles>  (888) 
C[C@@]1(NC(=O)C[NH+]2CCS(=O)(=O)CC2)CCS(=O)(=O)C1

>  <canonical_smi>  (888) 
C[C@@]1(NC(=O)C[NH+]2CCS(=O)(=O)CC2)CCS(=O)(=O)C1

>  <Set>  (888) 
G2 inactive

>  <Set_type>  (888) 
Train

>  <MW>  (888) 
325.43

>  <HBD>  (888) 
2

>  <HBA>  (888) 
5

>  <NRB>  (888) 
3

>  <NR>  (888) 
2

>  <NAR>  (888) 
0

>  <PSA>  (888) 
101.82

>  <Standard Type>  (888) 
nan

>  <Standard Relation>  (888) 
nan

>  <Standard Units>  (888) 
nan

>  <Standard Value>  (888) 
nan

>  <Assay ChEMBL ID>  (888) 
nan

>  <Assay Description>  (888) 
nan

>  <BAO Label>  (888) 
nan

$$$$

     RDKit          2D

 19 21  0  0  0  0  0  0  0  0999 V2000
   -0.5773   -4.2803    0.0000 O   0  0  0  0  0  0  0  0  0  0  0  0
    0.8899   -3.9684    0.0000 C   0  0  0  0  0  0  0  0  0  0  0  0
    2.0046   -4.9721    0.0000 N   0  0  0  0  0  0  0  0  0  0  0  0
    3.3037   -4.2221    0.0000 C   0  0  0  0  0  0  0  0  0  0  0  0
    2.9918   -2.7549    0.0000 C   0  0  0  0  0  0  0  0  0  0  0  0
    1.5000   -2.5981    0.0000 N   0  0  0  0  0  0  0  0  0  0  0  0
    0.7500   -1.2990    0.0000 C   0  0  0  0  0  0  0  0  0  0  0  0
    1.5000    0.0000    0.0000 C   0  0  0  0  0  0  0  0  0  0  0  0
    0.7500    1.2990    0.0000 C   0  0  0  0  0  0  0  0  0  0  0  0
   -0.7500    1.2990    0.0000 N   0  0  0  0  0  4  0  0  0  0  0  0
   -1.5000    2.5981    0.0000 C   0  0  0  0  0  0  0  0  0  0  0  0
   -0.7500    3.8971    0.0000 N   0  0  0  0  0  0  0  0  0  0  0  0
   -1.3601    5.2674    0.0000 N   0  0  0  0  0  0  0  0  0  0  0  0
   -0.2454    6.2711    0.0000 C   0  0  0  0  0  0  0  0  0  0  0  0
    1.0537    5.5211    0.0000 S   0  0  0  0  0  0  0  0  0  0  0  0
    0.7418    4.0539    0.0000 C   0  0  0  0  0  0  0  0  0  0  0  0
    1.7455    2.9392    0.0000 S   0  0  0  0  0  0  0  0  0  0  0  0
   -1.5000    0.0000    0.0000 C   0  0  0  0  0  0  0  0  0  0  0  0
   -0.7500   -1.2990    0.0000 C   0  0  0  0  0  0  0  0  0  0  0  0
  1  2  2  0
  2  3  1  0
  3  4  1  0
  4  5  1  0
  5  6  1  0
  6  7  1  0
  7  8  1  0
  8  9  1  0
  9 10  1  0
 10 11  1  0
 11 12  1  0
 12 13  1  0
 13 14  2  0
 14 15  1  0
 15 16  1  0
 16 17  2  0
 10 18  1  0
 18 19  1  0
  6  2  1  0
 19  7  1  0
 16 12  1  0
M  CHG  1  10   1
M  END
>  <Compound_ID>  (889) 
C49320305

>  <Active>  (889) 
0.0

>  <Smiles>  (889) 
O=C1NCCN1C1CC[NH+](Cn2ncsc2=S)CC1

>  <canonical_smi>  (889) 
O=C1NCCN1C1CC[NH+](Cn2ncsc2=S)CC1

>  <Set>  (889) 
G2 inactive

>  <Set_type>  (889) 
Train

>  <MW>  (889) 
300.43

>  <HBD>  (889) 
2

>  <HBA>  (889) 
3

>  <NRB>  (889) 
3

>  <NR>  (889) 
3

>  <NAR>  (889) 
1

>  <PSA>  (889) 
54.6

>  <Standard Type>  (889) 
nan

>  <Standard Relation>  (889) 
nan

>  <Standard Units>  (889) 
nan

>  <Standard Value>  (889) 
nan

>  <Assay ChEMBL ID>  (889) 
nan

>  <Assay Description>  (889) 
nan

>  <BAO Label>  (889) 
nan

$$$$

     RDKit          2D

 20 22  0  0  0  0  0  0  0  0999 V2000
   -0.0000  -11.1073    0.0000 C   0  0  0  0  0  0  0  0  0  0  0  0
   -0.0000   -9.6073    0.0000 S   0  0  0  0  0  0  0  0  0  0  0  0
    1.5000   -9.6073    0.0000 O   0  0  0  0  0  0  0  0  0  0  0  0
   -1.5000   -9.6073    0.0000 O   0  0  0  0  0  0  0  0  0  0  0  0
   -0.0000   -8.1073    0.0000 N   0  0  0  0  0  0  0  0  0  0  0  0
   -1.2990   -7.3573    0.0000 C   0  0  0  0  0  0  0  0  0  0  0  0
   -1.2990   -5.8573    0.0000 C   0  0  0  0  0  0  0  0  0  0  0  0
   -0.0000   -5.1073    0.0000 N   0  0  0  0  0  0  0  0  0  0  0  0
   -0.0000   -3.6073    0.0000 C   0  0  0  0  0  0  0  0  0  0  0  0
   -1.2135   -2.7256    0.0000 N   0  0  0  0  0  0  0  0  0  0  0  0
   -0.7500   -1.2990    0.0000 C   0  0  0  0  0  0  0  0  0  0  0  0
    0.7500   -1.2990    0.0000 C   0  0  0  0  0  0  0  0  0  0  0  0
    1.2135   -2.7256    0.0000 S   0  0  0  0  0  0  0  0  0  0  0  0
    1.5000    0.0000    0.0000 C   0  0  0  0  0  0  0  0  0  0  0  0
    3.0000    0.0000    0.0000 N   0  0  0  0  0  4  0  0  0  0  0  0
    0.7500    1.2990    0.0000 C   0  0  0  0  0  0  0  0  0  0  0  0
   -0.7500    1.2990    0.0000 C   0  0  0  0  0  0  0  0  0  0  0  0
   -1.5000    0.0000    0.0000 C   0  0  0  0  0  0  0  0  0  0  0  0
    1.2990   -5.8573    0.0000 C   0  0  0  0  0  0  0  0  0  0  0  0
    1.2990   -7.3573    0.0000 C   0  0  0  0  0  0  0  0  0  0  0  0
  1  2  1  0
  2  3  2  0
  2  4  2  0
  2  5  1  0
  5  6  1  0
  6  7  1  0
  7  8  1  0
  8  9  1  0
  9 10  2  0
 10 11  1  0
 11 12  2  0
 12 13  1  0
 12 14  1  0
 14 15  1  6
 14 16  1  0
 16 17  1  0
 17 18  1  0
  8 19  1  0
 19 20  1  0
 20  5  1  0
 13  9  1  0
 18 11  1  0
M  CHG  1  15   1
M  END
>  <Compound_ID>  (890) 
C62097580

>  <Active>  (890) 
0.0

>  <Smiles>  (890) 
CS(=O)(=O)N1CCN(c2nc3c(s2)[C@@H]([NH3+])CCC3)CC1

>  <canonical_smi>  (890) 
CS(=O)(=O)N1CCN(c2nc3c(s2)[C@@H]([NH3+])CCC3)CC1

>  <Set>  (890) 
G2 inactive

>  <Set_type>  (890) 
Train

>  <MW>  (890) 
317.46

>  <HBD>  (890) 
1

>  <HBA>  (890) 
4

>  <NRB>  (890) 
2

>  <NR>  (890) 
3

>  <NAR>  (890) 
1

>  <PSA>  (890) 
81.15

>  <Standard Type>  (890) 
nan

>  <Standard Relation>  (890) 
nan

>  <Standard Units>  (890) 
nan

>  <Standard Value>  (890) 
nan

>  <Assay ChEMBL ID>  (890) 
nan

>  <Assay Description>  (890) 
nan

>  <BAO Label>  (890) 
nan

$$$$

     RDKit          2D

 22 24  0  0  0  0  0  0  0  0999 V2000
    4.1385    4.6502    0.0000 C   0  0  0  0  0  0  0  0  0  0  0  0
    2.6761    4.9840    0.0000 C   0  0  0  0  0  0  0  0  0  0  0  0
    2.2340    6.4173    0.0000 O   0  0  0  0  0  0  0  0  0  0  0  0
    1.6559    3.8844    0.0000 C   0  0  0  0  0  0  0  0  0  0  0  0
    0.1935    4.2182    0.0000 C   0  0  0  0  0  0  0  0  0  0  0  0
   -0.8268    3.1186    0.0000 C   0  0  0  0  0  0  0  0  0  0  0  0
   -2.2892    3.4524    0.0000 N   0  0  0  0  0  0  0  0  0  0  0  0
   -2.7313    4.8857    0.0000 C   0  0  0  0  0  0  0  0  0  0  0  0
   -4.1937    5.2195    0.0000 C   0  0  0  0  0  0  0  0  0  0  0  0
   -5.2140    4.1199    0.0000 N   0  0  0  0  0  4  0  0  0  0  0  0
   -4.7718    2.6866    0.0000 C   0  0  0  0  0  0  0  0  0  0  0  0
   -3.3094    2.3528    0.0000 C   0  0  0  0  0  0  0  0  0  0  0  0
   -0.3846    1.6852    0.0000 C   0  0  0  0  0  0  0  0  0  0  0  0
    1.0777    1.3515    0.0000 C   0  0  0  0  0  0  0  0  0  0  0  0
    2.0980    2.4510    0.0000 C   0  0  0  0  0  0  0  0  0  0  0  0
    1.7286    0.0000    0.0000 N   0  0  0  0  0  0  0  0  0  0  0  0
    3.2286   -0.0000    0.0000 C   0  0  0  0  0  0  0  0  0  0  0  0
    1.0777   -1.3515    0.0000 C   0  0  0  0  0  0  0  0  0  0  0  0
    2.0130   -2.5242    0.0000 O   0  0  0  0  0  0  0  0  0  0  0  0
   -0.3846   -1.6852    0.0000 C   0  0  0  0  0  0  0  0  0  0  0  0
   -1.5574   -0.7500    0.0000 C   0  0  0  0  0  0  0  0  0  0  0  0
   -1.5574    0.7500    0.0000 O   0  0  0  0  0  0  0  0  0  0  0  0
  1  2  1  0
  2  3  2  0
  2  4  1  0
  4  5  2  0
  5  6  1  0
  6  7  1  0
  7  8  1  0
  8  9  1  0
  9 10  1  0
 10 11  1  0
 11 12  1  0
  6 13  2  0
 13 14  1  0
 14 15  2  0
 14 16  1  0
 16 17  1  0
 16 18  1  0
 18 19  2  0
 18 20  1  0
 20 21  1  0
 21 22  1  0
 15  4  1  0
 12  7  1  0
 22 13  1  0
M  CHG  1  10   1
M  END
>  <Compound_ID>  (891) 
C62562708

>  <Active>  (891) 
0.0

>  <Smiles>  (891) 
CC(=O)c1cc(N2CC[NH2+]CC2)c2c(c1)N(C)C(=O)CCO2

>  <canonical_smi>  (891) 
CC(=O)c1cc(N2CC[NH2+]CC2)c2c(c1)N(C)C(=O)CCO2

>  <Set>  (891) 
G2 inactive

>  <Set_type>  (891) 
Train

>  <MW>  (891) 
304.37

>  <HBD>  (891) 
1

>  <HBA>  (891) 
4

>  <NRB>  (891) 
2

>  <NR>  (891) 
3

>  <NAR>  (891) 
1

>  <PSA>  (891) 
66.46

>  <Standard Type>  (891) 
nan

>  <Standard Relation>  (891) 
nan

>  <Standard Units>  (891) 
nan

>  <Standard Value>  (891) 
nan

>  <Assay ChEMBL ID>  (891) 
nan

>  <Assay Description>  (891) 
nan

>  <BAO Label>  (891) 
nan

$$$$

     RDKit          2D

 21 22  0  0  0  0  0  0  0  0999 V2000
   -1.8086   -3.4460    0.0000 C   0  0  0  0  0  0  0  0  0  0  0  0
   -0.3991   -2.9329    0.0000 C   0  0  0  0  0  0  0  0  0  0  0  0
    0.7500   -3.8971    0.0000 C   0  0  0  0  0  0  0  0  0  0  0  0
    1.5000   -2.5981    0.0000 C   0  0  0  0  0  0  0  0  0  0  0  0
    3.0000   -2.5981    0.0000 O   0  0  0  0  0  0  0  0  0  0  0  0
    0.7500   -1.2990    0.0000 N   0  0  0  0  0  0  0  0  0  0  0  0
    1.5000    0.0000    0.0000 C   0  0  0  0  0  0  0  0  0  0  0  0
    0.7500    1.2990    0.0000 C   0  0  0  0  0  0  0  0  0  0  0  0
   -0.7500    1.2990    0.0000 C   0  0  0  0  0  0  0  0  0  0  0  0
   -1.5000    2.5981    0.0000 N   0  0  0  0  0  0  0  0  0  0  0  0
   -0.7500    3.8971    0.0000 S   0  0  0  0  0  0  0  0  0  0  0  0
    0.0000    5.1962    0.0000 C   0  0  0  0  0  0  0  0  0  0  0  0
    0.5490    3.1471    0.0000 O   0  0  0  0  0  0  0  0  0  0  0  0
   -2.0490    4.6471    0.0000 O   0  0  0  0  0  0  0  0  0  0  0  0
   -1.5000    0.0000    0.0000 C   0  0  0  0  0  0  0  0  0  0  0  0
   -0.7500   -1.2990    0.0000 C   0  0  0  0  0  0  0  0  0  0  0  0
    2.1595   -4.4101    0.0000 C   0  0  0  0  0  0  0  0  0  0  0  0
    2.4200   -5.8874    0.0000 C   0  0  0  0  0  0  0  0  0  0  0  0
    1.2709   -6.8515    0.0000 N   0  0  0  0  0  4  0  0  0  0  0  0
   -0.1386   -6.3385    0.0000 C   0  0  0  0  0  0  0  0  0  0  0  0
   -0.3991   -4.8613    0.0000 C   0  0  0  0  0  0  0  0  0  0  0  0
  1  2  1  0
  2  3  1  0
  3  4  1  0
  4  5  2  0
  4  6  1  0
  6  7  1  0
  7  8  1  0
  8  9  1  0
  9 10  1  0
 10 11  1  0
 11 12  1  0
 11 13  2  0
 11 14  2  0
  9 15  1  0
 15 16  1  0
  3 17  1  0
 17 18  1  0
 18 19  1  0
 19 20  1  0
 20 21  1  0
 21  3  1  0
 16  6  1  0
M  CHG  1  19   1
M  END
>  <Compound_ID>  (892) 
C62848989

>  <Active>  (892) 
0.0

>  <Smiles>  (892) 
CCC1(C(=O)N2CCC(NS(C)(=O)=O)CC2)CC[NH2+]CC1

>  <canonical_smi>  (892) 
CCC1(C(=O)N2CCC(NS(C)(=O)=O)CC2)CC[NH2+]CC1

>  <Set>  (892) 
G2 inactive

>  <Set_type>  (892) 
Train

>  <MW>  (892) 
318.46

>  <HBD>  (892) 
2

>  <HBA>  (892) 
3

>  <NRB>  (892) 
4

>  <NR>  (892) 
2

>  <NAR>  (892) 
0

>  <PSA>  (892) 
83.09

>  <Standard Type>  (892) 
nan

>  <Standard Relation>  (892) 
nan

>  <Standard Units>  (892) 
nan

>  <Standard Value>  (892) 
nan

>  <Assay ChEMBL ID>  (892) 
nan

>  <Assay Description>  (892) 
nan

>  <BAO Label>  (892) 
nan

$$$$

     RDKit          2D

 23 25  0  0  0  0  0  0  0  0999 V2000
    1.8478   -6.4639    0.0000 C   0  0  0  0  0  0  0  0  0  0  0  0
    2.0046   -4.9721    0.0000 N   0  0  0  0  0  0  0  0  0  0  0  0
    3.3037   -4.2221    0.0000 C   0  0  0  0  0  0  0  0  0  0  0  0
    4.6740   -4.8322    0.0000 O   0  0  0  0  0  0  0  0  0  0  0  0
    2.9918   -2.7549    0.0000 C   0  0  0  0  0  0  0  0  0  0  0  0
    1.5000   -2.5981    0.0000 C   0  0  0  0  0  0  0  0  0  0  0  0
    0.7500   -1.2990    0.0000 N   0  0  0  0  0  0  0  0  0  0  0  0
    1.5000    0.0000    0.0000 C   0  0  0  0  0  0  0  0  0  0  0  0
    0.7500    1.2990    0.0000 C   0  0  0  0  0  0  0  0  0  0  0  0
   -0.7500    1.2990    0.0000 C   0  0  0  0  0  0  0  0  0  0  0  0
   -2.1595    1.8121    0.0000 C   0  0  0  0  0  0  0  0  0  0  0  0
   -2.4200    3.2893    0.0000 N   0  0  0  0  0  0  0  0  0  0  0  0
   -3.3086    0.8479    0.0000 O   0  0  0  0  0  0  0  0  0  0  0  0
   -0.4895    2.7762    0.0000 N   0  0  0  0  0  4  0  0  0  0  0  0
    0.9200    3.2893    0.0000 C   0  0  0  0  0  0  0  0  0  0  0  0
    1.1805    4.7665    0.0000 C   0  0  0  0  0  0  0  0  0  0  0  0
    0.0314    5.7307    0.0000 C   0  0  0  0  0  0  0  0  0  0  0  0
   -1.3781    5.2176    0.0000 C   0  0  0  0  0  0  0  0  0  0  0  0
   -1.6386    3.7404    0.0000 C   0  0  0  0  0  0  0  0  0  0  0  0
   -1.5000    0.0000    0.0000 C   0  0  0  0  0  0  0  0  0  0  0  0
   -0.7500   -1.2990    0.0000 C   0  0  0  0  0  0  0  0  0  0  0  0
    0.8899   -3.9684    0.0000 C   0  0  0  0  0  0  0  0  0  0  0  0
   -0.5773   -4.2803    0.0000 O   0  0  0  0  0  0  0  0  0  0  0  0
  1  2  1  0
  2  3  1  0
  3  4  2  0
  3  5  1  0
  5  6  1  0
  6  7  1  6
  7  8  1  0
  8  9  1  0
  9 10  1  0
 10 11  1  0
 11 12  1  0
 11 13  2  0
 10 14  1  0
 14 15  1  0
 15 16  1  0
 16 17  1  0
 17 18  1  0
 18 19  1  0
 10 20  1  0
 20 21  1  0
  6 22  1  0
 22 23  2  0
 22  2  1  0
 21  7  1  0
 19 14  1  0
M  CHG  1  14   1
M  END
>  <Compound_ID>  (893) 
C18324525

>  <Active>  (893) 
0.0

>  <Smiles>  (893) 
CN1C(=O)C[C@@H](N2CCC(C(N)=O)([NH+]3CCCCC3)CC2)C1=O

>  <canonical_smi>  (893) 
CN1C(=O)C[C@@H](N2CCC(C(N)=O)([NH+]3CCCCC3)CC2)C1=O

>  <Set>  (893) 
G2 inactive

>  <Set_type>  (893) 
Train

>  <MW>  (893) 
323.42

>  <HBD>  (893) 
2

>  <HBA>  (893) 
4

>  <NRB>  (893) 
3

>  <NR>  (893) 
3

>  <NAR>  (893) 
0

>  <PSA>  (893) 
88.15

>  <Standard Type>  (893) 
nan

>  <Standard Relation>  (893) 
nan

>  <Standard Units>  (893) 
nan

>  <Standard Value>  (893) 
nan

>  <Assay ChEMBL ID>  (893) 
nan

>  <Assay Description>  (893) 
nan

>  <BAO Label>  (893) 
nan

$$$$

     RDKit          2D

 24 26  0  0  0  0  0  0  0  0999 V2000
   -0.0000   -5.1073    0.0000 C   0  0  0  0  0  0  0  0  0  0  0  0
   -0.0000   -3.6073    0.0000 C   0  0  0  0  0  0  0  0  0  0  0  0
    1.2135   -2.7256    0.0000 S   0  0  0  0  0  0  0  0  0  0  0  0
    0.7500   -1.2990    0.0000 C   0  0  0  0  0  0  0  0  0  0  0  0
    1.5000    0.0000    0.0000 N   0  0  0  0  0  0  0  0  0  0  0  0
    0.7500    1.2990    0.0000 C   0  0  0  0  0  0  0  0  0  0  0  0
   -0.7500    1.2990    0.0000 C   0  0  0  0  0  0  0  0  0  0  0  0
   -1.5000    2.5981    0.0000 C   0  0  0  0  0  0  0  0  0  0  0  0
   -3.0000    2.5981    0.0000 O   0  0  0  0  0  0  0  0  0  0  0  0
   -0.7500    3.8971    0.0000 N   0  0  0  0  0  0  0  0  0  0  0  0
   -1.3601    5.2674    0.0000 C   0  0  0  0  0  0  0  0  0  0  0  0
   -0.2454    6.2711    0.0000 C   0  0  0  0  0  0  0  0  0  0  0  0
   -0.4022    7.7629    0.0000 N   0  0  0  0  0  4  0  0  0  0  0  0
    0.8113    8.6446    0.0000 C   0  0  0  0  0  0  0  0  0  0  0  0
   -1.7725    8.3730    0.0000 C   0  0  0  0  0  0  0  0  0  0  0  0
    1.0537    5.5211    0.0000 C   0  0  0  0  0  0  0  0  0  0  0  0
    0.7418    4.0539    0.0000 C   0  0  0  0  0  0  0  0  0  0  0  0
    1.7455    2.9392    0.0000 C   0  0  0  0  0  0  0  0  0  0  0  0
    3.2127    3.2511    0.0000 O   0  0  0  0  0  0  0  0  0  0  0  0
   -1.5000    0.0000    0.0000 C   0  0  0  0  0  0  0  0  0  0  0  0
   -3.0000    0.0000    0.0000 O   0  0  0  0  0  0  0  0  0  0  0  0
   -0.7500   -1.2990    0.0000 N   0  0  0  0  0  0  0  0  0  0  0  0
   -1.2135   -2.7256    0.0000 C   0  0  0  0  0  0  0  0  0  0  0  0
   -2.6401   -3.1891    0.0000 C   0  0  0  0  0  0  0  0  0  0  0  0
  1  2  1  0
  2  3  1  0
  3  4  1  0
  4  5  2  0
  5  6  1  0
  6  7  2  0
  7  8  1  0
  8  9  2  0
  8 10  1  0
 10 11  1  0
 11 12  1  0
 12 13  1  6
 13 14  1  0
 13 15  1  0
 12 16  1  0
 16 17  1  0
 17 18  1  1
 18 19  1  0
  7 20  1  0
 20 21  2  0
 20 22  1  0
 22 23  1  0
 23 24  1  0
 23  2  2  0
 22  4  1  0
 17 10  1  0
M  CHG  1  13   1
M  END
>  <Compound_ID>  (894) 
C65489525

>  <Active>  (894) 
0.0

>  <Smiles>  (894) 
Cc1sc2ncc(C(=O)N3C[C@H]([NH+](C)C)C[C@H]3CO)c(=O)n2c1C

>  <canonical_smi>  (894) 
Cc1sc2ncc(C(=O)N3C[C@H]([NH+](C)C)C[C@H]3CO)c(=O)n2c1C

>  <Set>  (894) 
G2 inactive

>  <Set_type>  (894) 
Train

>  <MW>  (894) 
351.45

>  <HBD>  (894) 
2

>  <HBA>  (894) 
4

>  <NRB>  (894) 
3

>  <NR>  (894) 
3

>  <NAR>  (894) 
2

>  <PSA>  (894) 
79.35

>  <Standard Type>  (894) 
nan

>  <Standard Relation>  (894) 
nan

>  <Standard Units>  (894) 
nan

>  <Standard Value>  (894) 
nan

>  <Assay ChEMBL ID>  (894) 
nan

>  <Assay Description>  (894) 
nan

>  <BAO Label>  (894) 
nan

$$$$

     RDKit          2D

 22 24  0  0  0  0  0  0  0  0999 V2000
   -2.7986   -7.8846    0.0000 C   0  0  0  0  0  0  0  0  0  0  0  0
   -1.9170   -6.6710    0.0000 C   0  0  0  0  0  0  0  0  0  0  0  0
   -0.4252   -6.8278    0.0000 N   0  0  0  0  0  0  0  0  0  0  0  0
    0.4565   -5.6143    0.0000 C   0  0  0  0  0  0  0  0  0  0  0  0
   -0.1536   -4.2440    0.0000 O   0  0  0  0  0  0  0  0  0  0  0  0
    1.9483   -5.7711    0.0000 C   0  0  0  0  0  0  0  0  0  0  0  0
    2.6983   -7.0701    0.0000 C   0  0  0  0  0  0  0  0  0  0  0  0
    4.1655   -6.7583    0.0000 C   0  0  0  0  0  0  0  0  0  0  0  0
    5.2802   -7.7620    0.0000 N   0  0  0  0  0  4  0  0  0  0  0  0
    4.3223   -5.2665    0.0000 C   0  0  0  0  0  0  0  0  0  0  0  0
    2.9520   -4.6564    0.0000 N   0  0  0  0  0  0  0  0  0  0  0  0
    2.6401   -3.1891    0.0000 C   0  0  0  0  0  0  0  0  0  0  0  0
    1.2135   -2.7256    0.0000 O   0  0  0  0  0  0  0  0  0  0  0  0
    3.7548   -2.1855    0.0000 C   0  0  0  0  0  0  0  0  0  0  0  0
    5.2220   -2.4973    0.0000 N   0  0  0  0  0  0  0  0  0  0  0  0
    5.9720   -1.1983    0.0000 O   0  0  0  0  0  0  0  0  0  0  0  0
    4.9684   -0.0836    0.0000 C   0  0  0  0  0  0  0  0  0  0  0  0
    3.5980   -0.6937    0.0000 C   0  0  0  0  0  0  0  0  0  0  0  0
    2.3845    0.1880    0.0000 C   0  0  0  0  0  0  0  0  0  0  0  0
    2.5413    1.6798    0.0000 C   0  0  0  0  0  0  0  0  0  0  0  0
    3.9116    2.2899    0.0000 C   0  0  0  0  0  0  0  0  0  0  0  0
    5.1251    1.4082    0.0000 C   0  0  0  0  0  0  0  0  0  0  0  0
  1  2  1  0
  2  3  1  0
  3  4  1  0
  4  5  2  0
  6  4  1  1
  6  7  1  0
  7  8  1  0
  8  9  1  6
  8 10  1  0
 10 11  1  0
 11 12  1  0
 12 13  2  0
 12 14  1  0
 14 15  2  0
 15 16  1  0
 16 17  1  0
 17 18  2  0
 18 19  1  0
 19 20  1  0
 20 21  1  0
 21 22  1  0
 11  6  1  0
 18 14  1  0
 22 17  1  0
M  CHG  1   9   1
M  END
>  <Compound_ID>  (895) 
C67589055

>  <Active>  (895) 
0.0

>  <Smiles>  (895) 
CCNC(=O)[C@@H]1C[C@@H]([NH3+])CN1C(=O)c1noc2c1CCCC2

>  <canonical_smi>  (895) 
CCNC(=O)[C@@H]1C[C@@H]([NH3+])CN1C(=O)c1noc2c1CCCC2

>  <Set>  (895) 
G2 inactive

>  <Set_type>  (895) 
Train

>  <MW>  (895) 
307.37

>  <HBD>  (895) 
2

>  <HBA>  (895) 
4

>  <NRB>  (895) 
3

>  <NR>  (895) 
3

>  <NAR>  (895) 
1

>  <PSA>  (895) 
103.08

>  <Standard Type>  (895) 
nan

>  <Standard Relation>  (895) 
nan

>  <Standard Units>  (895) 
nan

>  <Standard Value>  (895) 
nan

>  <Assay ChEMBL ID>  (895) 
nan

>  <Assay Description>  (895) 
nan

>  <BAO Label>  (895) 
nan

$$$$

     RDKit          2D

 22 25  0  0  0  0  0  0  0  0999 V2000
   -6.2940    7.2357    0.0000 Cl  0  0  0  0  0  0  0  0  0  0  0  0
   -5.1793    6.2320    0.0000 C   0  0  0  0  0  0  0  0  0  0  0  0
   -3.7527    6.6955    0.0000 C   0  0  0  0  0  0  0  0  0  0  0  0
   -2.6380    5.6918    0.0000 C   0  0  0  0  0  0  0  0  0  0  0  0
   -2.9499    4.2246    0.0000 C   0  0  0  0  0  0  0  0  0  0  0  0
   -1.8351    3.2209    0.0000 C   0  0  0  0  0  0  0  0  0  0  0  0
   -0.4086    3.6844    0.0000 C   0  0  0  0  0  0  0  0  0  0  0  0
    0.7062    2.6807    0.0000 C   0  0  0  0  0  0  0  0  0  0  0  0
    2.1328    3.1443    0.0000 C   0  0  0  0  0  0  0  0  0  0  0  0
    2.5963    4.5709    0.0000 C   0  0  0  0  0  0  0  0  0  0  0  0
    4.0963    4.5709    0.0000 C   0  0  0  0  0  0  0  0  0  0  0  0
    4.5598    3.1443    0.0000 C   0  0  0  0  0  0  0  0  0  0  0  0
    3.3463    2.2626    0.0000 O   0  0  0  0  0  0  0  0  0  0  0  0
    0.3943    1.2135    0.0000 N   0  0  0  0  0  0  0  0  0  0  0  0
    1.2760    0.0000    0.0000 N   0  0  0  0  0  0  0  0  0  0  0  0
    0.3943   -1.2135    0.0000 C   0  0  0  0  0  0  0  0  0  0  0  0
   -1.0323   -0.7500    0.0000 N   0  0  0  0  0  0  0  0  0  0  0  0
   -1.0323    0.7500    0.0000 C   0  0  0  0  0  0  0  0  0  0  0  0
   -2.1470    1.7537    0.0000 N   0  0  0  0  0  0  0  0  0  0  0  0
   -4.3764    3.7611    0.0000 C   0  0  0  0  0  0  0  0  0  0  0  0
   -4.6883    2.2939    0.0000 Cl  0  0  0  0  0  0  0  0  0  0  0  0
   -5.4912    4.7648    0.0000 C   0  0  0  0  0  0  0  0  0  0  0  0
  1  2  1  0
  2  3  2  0
  3  4  1  0
  4  5  2  0
  6  5  1  6
  6  7  1  0
  7  8  1  0
  8  9  1  1
  9 10  2  0
 10 11  1  0
 11 12  2  0
 12 13  1  0
  8 14  1  0
 14 15  1  0
 15 16  2  0
 16 17  1  0
 17 18  2  0
 18 19  1  0
  5 20  1  0
 20 21  1  0
 20 22  2  0
 22  2  1  0
 19  6  1  0
 13  9  1  0
 18 14  1  0
M  END
>  <Compound_ID>  (896) 
C00531703

>  <Active>  (896) 
0.0

>  <Smiles>  (896) 
Clc1ccc([C@@H]2C[C@@H](c3ccco3)n3ncnc3N2)c(Cl)c1

>  <canonical_smi>  (896) 
Clc1ccc([C@@H]2C[C@@H](c3ccco3)n3ncnc3N2)c(Cl)c1

>  <Set>  (896) 
G2 inactive

>  <Set_type>  (896) 
Train

>  <MW>  (896) 
335.19

>  <HBD>  (896) 
1

>  <HBA>  (896) 
4

>  <NRB>  (896) 
2

>  <NR>  (896) 
4

>  <NAR>  (896) 
3

>  <PSA>  (896) 
55.88

>  <Standard Type>  (896) 
nan

>  <Standard Relation>  (896) 
nan

>  <Standard Units>  (896) 
nan

>  <Standard Value>  (896) 
nan

>  <Assay ChEMBL ID>  (896) 
nan

>  <Assay Description>  (896) 
nan

>  <BAO Label>  (896) 
nan

$$$$

     RDKit          2D

 23 26  0  0  0  0  0  0  0  0999 V2000
   -2.7707   -1.1807    0.0000 F   0  0  0  0  0  0  0  0  0  0  0  0
   -3.8855   -0.1771    0.0000 C   0  0  0  0  0  0  0  0  0  0  0  0
   -5.3120   -0.6406    0.0000 C   0  0  0  0  0  0  0  0  0  0  0  0
   -6.4268    0.3631    0.0000 C   0  0  0  0  0  0  0  0  0  0  0  0
   -6.1149    1.8303    0.0000 C   0  0  0  0  0  0  0  0  0  0  0  0
   -4.6883    2.2939    0.0000 C   0  0  0  0  0  0  0  0  0  0  0  0
   -4.3764    3.7611    0.0000 Cl  0  0  0  0  0  0  0  0  0  0  0  0
   -3.5736    1.2902    0.0000 C   0  0  0  0  0  0  0  0  0  0  0  0
   -2.1470    1.7537    0.0000 C   0  0  0  0  0  0  0  0  0  0  0  0
   -1.8351    3.2209    0.0000 C   0  0  0  0  0  0  0  0  0  0  0  0
   -0.4086    3.6844    0.0000 C   0  0  0  0  0  0  0  0  0  0  0  0
   -0.0967    5.1517    0.0000 C   0  0  0  0  0  0  0  0  0  0  0  0
    1.3299    5.6152    0.0000 C   0  0  0  0  0  0  0  0  0  0  0  0
    1.6418    7.0824    0.0000 C   0  0  0  0  0  0  0  0  0  0  0  0
    0.5271    8.0861    0.0000 C   0  0  0  0  0  0  0  0  0  0  0  0
   -0.8995    7.6226    0.0000 C   0  0  0  0  0  0  0  0  0  0  0  0
   -1.2114    6.1554    0.0000 C   0  0  0  0  0  0  0  0  0  0  0  0
    0.7062    2.6807    0.0000 N   0  0  0  0  0  0  0  0  0  0  0  0
    0.3943    1.2135    0.0000 C   0  0  0  0  0  0  0  0  0  0  0  0
    1.2760    0.0000    0.0000 N   0  0  0  0  0  0  0  0  0  0  0  0
    0.3943   -1.2135    0.0000 N   0  0  0  0  0  0  0  0  0  0  0  0
   -1.0323   -0.7500    0.0000 N   0  0  0  0  0  0  0  0  0  0  0  0
   -1.0323    0.7500    0.0000 N   0  0  0  0  0  0  0  0  0  0  0  0
  1  2  1  0
  2  3  2  0
  3  4  1  0
  4  5  2  0
  5  6  1  0
  6  7  1  0
  6  8  2  0
  9  8  1  6
  9 10  1  0
 10 11  2  0
 11 12  1  0
 12 13  2  0
 13 14  1  0
 14 15  2  0
 15 16  1  0
 16 17  2  0
 11 18  1  0
 18 19  2  0
 19 20  1  0
 20 21  1  0
 21 22  2  0
 22 23  1  0
  8  2  1  0
 23  9  1  0
 17 12  1  0
 23 19  1  0
M  END
>  <Compound_ID>  (897) 
C01788042

>  <Active>  (897) 
0.0

>  <Smiles>  (897) 
Fc1cccc(Cl)c1[C@@H]1C=C(c2ccccc2)N=C2NN=NN21

>  <canonical_smi>  (897) 
Fc1cccc(Cl)c1[C@@H]1C=C(c2ccccc2)N=C2NN=NN21

>  <Set>  (897) 
G2 inactive

>  <Set_type>  (897) 
Train

>  <MW>  (897) 
327.75

>  <HBD>  (897) 
1

>  <HBA>  (897) 
2

>  <NRB>  (897) 
2

>  <NR>  (897) 
4

>  <NAR>  (897) 
2

>  <PSA>  (897) 
52.35

>  <Standard Type>  (897) 
nan

>  <Standard Relation>  (897) 
nan

>  <Standard Units>  (897) 
nan

>  <Standard Value>  (897) 
nan

>  <Assay ChEMBL ID>  (897) 
nan

>  <Assay Description>  (897) 
nan

>  <BAO Label>  (897) 
nan

$$$$

     RDKit          2D

 24 26  0  0  0  0  0  0  0  0999 V2000
   -3.6375   -5.2496    0.0000 C   0  0  0  0  0  0  0  0  0  0  0  0
   -2.4240   -6.1312    0.0000 C   0  0  0  0  0  0  0  0  0  0  0  0
   -1.0537   -5.5211    0.0000 N   0  0  0  0  0  0  0  0  0  0  0  0
   -0.7418   -4.0539    0.0000 C   0  0  0  0  0  0  0  0  0  0  0  0
   -1.7455   -2.9392    0.0000 O   0  0  0  0  0  0  0  0  0  0  0  0
    0.7500   -3.8971    0.0000 C   0  0  0  0  0  0  0  0  0  0  0  0
    1.5000   -2.5981    0.0000 C   0  0  0  0  0  0  0  0  0  0  0  0
    0.7500   -1.2990    0.0000 C   0  0  0  0  0  0  0  0  0  0  0  0
   -0.7500   -1.2990    0.0000 C   0  0  0  0  0  0  0  0  0  0  0  0
   -1.5000   -0.0000    0.0000 C   0  0  0  0  0  0  0  0  0  0  0  0
   -0.7500    1.2990    0.0000 C   0  0  0  0  0  0  0  0  0  0  0  0
    0.7500    1.2990    0.0000 C   0  0  0  0  0  0  0  0  0  0  0  0
    1.5000   -0.0000    0.0000 C   0  0  0  0  0  0  0  0  0  0  0  0
    3.0000   -0.0000    0.0000 O   0  0  0  0  0  0  0  0  0  0  0  0
    1.3601   -5.2674    0.0000 S   0  0  0  0  0  0  0  0  0  0  0  0
    0.2454   -6.2711    0.0000 C   0  0  0  0  0  0  0  0  0  0  0  0
    0.4022   -7.7629    0.0000 N   0  0  0  0  0  0  0  0  0  0  0  0
    1.7725   -8.3730    0.0000 C   0  0  0  0  0  0  0  0  0  0  0  0
    1.9293   -9.8648    0.0000 C   0  0  0  0  0  0  0  0  0  0  0  0
    3.2996  -10.4749    0.0000 C   0  0  0  0  0  0  0  0  0  0  0  0
    4.5131   -9.5932    0.0000 C   0  0  0  0  0  0  0  0  0  0  0  0
    5.8835  -10.2033    0.0000 C   0  0  0  0  0  0  0  0  0  0  0  0
    4.3563   -8.1014    0.0000 C   0  0  0  0  0  0  0  0  0  0  0  0
    2.9860   -7.4913    0.0000 C   0  0  0  0  0  0  0  0  0  0  0  0
  1  2  1  0
  2  3  1  0
  3  4  1  0
  4  5  2  0
  4  6  1  0
  6  7  2  0
  7  8  1  0
  8  9  2  0
  9 10  1  0
 10 11  2  0
 11 12  1  0
 12 13  2  0
 13 14  1  0
  6 15  1  0
 15 16  1  0
 16 17  2  0
 17 18  1  0
 18 19  2  0
 19 20  1  0
 20 21  2  0
 21 22  1  0
 21 23  1  0
 23 24  2  0
 16  3  1  0
 24 18  1  0
 13  8  1  0
M  END
>  <Compound_ID>  (898) 
C13941007

>  <Active>  (898) 
0.0

>  <Smiles>  (898) 
CCN1C(=O)/C(=C\c2ccccc2O)S/C1=N\c1ccc(C)cc1

>  <canonical_smi>  (898) 
CCN1C(=O)/C(=C\c2ccccc2O)S/C1=N\c1ccc(C)cc1

>  <Set>  (898) 
G2 inactive

>  <Set_type>  (898) 
Train

>  <MW>  (898) 
338.43

>  <HBD>  (898) 
1

>  <HBA>  (898) 
3

>  <NRB>  (898) 
3

>  <NR>  (898) 
3

>  <NAR>  (898) 
2

>  <PSA>  (898) 
52.9

>  <Standard Type>  (898) 
nan

>  <Standard Relation>  (898) 
nan

>  <Standard Units>  (898) 
nan

>  <Standard Value>  (898) 
nan

>  <Assay ChEMBL ID>  (898) 
nan

>  <Assay Description>  (898) 
nan

>  <BAO Label>  (898) 
nan

$$$$

     RDKit          2D

 34 38  0  0  0  0  0  0  0  0999 V2000
    3.0000   -7.7942    0.0000 C   0  0  0  0  0  0  0  0  0  0  0  0
    1.5000   -7.7942    0.0000 S   0  0  0  0  0  0  0  0  0  0  0  0
    0.7500   -6.4952    0.0000 C   0  0  0  0  0  0  0  0  0  0  0  0
    1.5000   -5.1962    0.0000 C   0  0  0  0  0  0  0  0  0  0  0  0
    0.7500   -3.8971    0.0000 C   0  0  0  0  0  0  0  0  0  0  0  0
    1.5000   -2.5981    0.0000 C   0  0  0  0  0  0  0  0  0  0  0  0
    0.7500   -1.2990    0.0000 N   0  0  0  0  0  4  0  0  0  0  0  0
    1.5000    0.0000    0.0000 N   0  0  0  0  0  0  0  0  0  0  0  0
    0.7500    1.2990    0.0000 P   0  0  0  0  0  5  0  0  0  0  0  0
    0.4895    2.7762    0.0000 O   0  0  0  0  0  0  0  0  0  0  0  0
    2.1595    1.8121    0.0000 S   0  0  0  0  0  0  0  0  0  0  0  0
    1.6465    3.2216    0.0000 O   0  0  0  0  0  0  0  0  0  0  0  0
    3.5691    2.3251    0.0000 O   0  0  0  0  0  0  0  0  0  0  0  0
    2.6726    0.4025    0.0000 O   0  0  0  0  0  0  0  0  0  0  0  0
    4.1498    0.1421    0.0000 C   0  0  0  0  0  0  0  0  0  0  0  0
    4.6628   -1.2675    0.0000 C   0  0  0  0  0  0  0  0  0  0  0  0
    6.1400   -1.5280    0.0000 C   0  0  0  0  0  0  0  0  0  0  0  0
    7.1042   -0.3789    0.0000 C   0  0  0  0  0  0  0  0  0  0  0  0
    6.5912    1.0307    0.0000 C   0  0  0  0  0  0  0  0  0  0  0  0
    5.1140    1.2911    0.0000 C   0  0  0  0  0  0  0  0  0  0  0  0
   -0.7500    1.2990    0.0000 O   0  0  0  0  0  0  0  0  0  0  0  0
   -1.5000    0.0000    0.0000 C   0  0  0  0  0  0  0  0  0  0  0  0
   -0.7500   -1.2990    0.0000 C   0  0  0  0  0  0  0  0  0  0  0  0
   -1.5000   -2.5981    0.0000 C   0  0  0  0  0  0  0  0  0  0  0  0
   -0.7500   -3.8971    0.0000 C   0  0  0  0  0  0  0  0  0  0  0  0
   -1.5000   -5.1962    0.0000 C   0  0  0  0  0  0  0  0  0  0  0  0
   -0.7500   -6.4952    0.0000 C   0  0  0  0  0  0  0  0  0  0  0  0
   -1.5000   -7.7942    0.0000 C   0  0  0  0  0  0  0  0  0  0  0  0
   -3.0000   -7.7942    0.0000 C   0  0  0  0  0  0  0  0  0  0  0  0
   -3.7500   -6.4952    0.0000 C   0  0  0  0  0  0  0  0  0  0  0  0
   -5.2500   -6.4952    0.0000 C   0  0  0  0  0  0  0  0  0  0  0  0
   -6.0000   -7.7942    0.0000 C   0  0  0  0  0  0  0  0  0  0  0  0
   -5.2500   -9.0933    0.0000 C   0  0  0  0  0  0  0  0  0  0  0  0
   -3.7500   -9.0933    0.0000 C   0  0  0  0  0  0  0  0  0  0  0  0
  1  2  1  0
  2  3  1  0
  3  4  2  0
  4  5  1  0
  5  6  1  1
  6  7  1  0
  7  8  1  0
  8  9  1  0
  9 10  2  0
  9 11  1  6
 11 12  2  0
 11 13  2  0
 11 14  1  0
 14 15  1  0
 15 16  2  0
 16 17  1  0
 17 18  2  0
 18 19  1  0
 19 20  2  0
  9 21  1  0
 21 22  1  0
 23 22  1  1
 23 24  1  0
 25 24  1  1
 25 26  1  0
 26 27  2  0
 27 28  1  0
 28 29  1  0
 29 30  2  0
 30 31  1  0
 31 32  2  0
 32 33  1  0
 33 34  2  0
 27  3  1  0
 34 29  1  0
 25  5  1  0
 23  7  1  0
 20 15  1  0
M  CHG  1   7   1
M  END
>  <Compound_ID>  (899) 
C39469602

>  <Active>  (899) 
0.0

>  <Smiles>  (899) 
CSC1=C[C@@H]2C[NH+]3N[P@@](=O)(S(=O)(=O)Oc4ccccc4)OC[C@@H]3C[C@@H]2C=C1Cc1ccccc1

>  <canonical_smi>  (899) 
CSC1=C[C@@H]2C[NH+]3N[P@@](=O)(S(=O)(=O)Oc4ccccc4)OC[C@@H]3C[C@@H]2C=C1Cc1ccccc1

>  <Set>  (899) 
G2 inactive

>  <Set_type>  (899) 
Train

>  <MW>  (899) 
519.61

>  <HBD>  (899) 
2

>  <HBA>  (899) 
7

>  <NRB>  (899) 
6

>  <NR>  (899) 
5

>  <NAR>  (899) 
2

>  <PSA>  (899) 
86.14

>  <Standard Type>  (899) 
nan

>  <Standard Relation>  (899) 
nan

>  <Standard Units>  (899) 
nan

>  <Standard Value>  (899) 
nan

>  <Assay ChEMBL ID>  (899) 
nan

>  <Assay Description>  (899) 
nan

>  <BAO Label>  (899) 
nan

$$$$

     RDKit          2D

 19 20  0  0  0  0  0  0  0  0999 V2000
    5.0260   -1.2990    0.0000 C   0  0  0  0  0  0  0  0  0  0  0  0
    3.5260   -1.2990    0.0000 C   0  0  0  0  0  0  0  0  0  0  0  0
    2.7760    0.0000    0.0000 C   0  0  0  0  0  0  0  0  0  0  0  0
    1.2760    0.0000    0.0000 C   0  0  0  0  0  0  0  0  0  0  0  0
    0.3943    1.2135    0.0000 N   0  0  0  0  0  0  0  0  0  0  0  0
   -1.0323    0.7500    0.0000 C   0  0  0  0  0  0  0  0  0  0  0  0
   -2.2458    1.6317    0.0000 N   0  0  0  0  0  0  0  0  0  0  0  0
   -2.0890    3.1235    0.0000 C   0  0  0  0  0  0  0  0  0  0  0  0
   -3.3025    4.0051    0.0000 C   0  0  0  0  0  0  0  0  0  0  0  0
   -4.5161    4.8868    0.0000 F   0  0  0  0  0  0  0  0  0  0  0  0
   -2.4209    5.2187    0.0000 F   0  0  0  0  0  0  0  0  0  0  0  0
   -4.1842    2.7916    0.0000 F   0  0  0  0  0  0  0  0  0  0  0  0
   -3.6161    1.0216    0.0000 C   0  0  0  0  0  0  0  0  0  0  0  0
   -4.4978   -0.1920    0.0000 C   0  0  0  0  0  0  0  0  0  0  0  0
   -5.1079    1.1784    0.0000 C   0  0  0  0  0  0  0  0  0  0  0  0
   -1.0323   -0.7500    0.0000 S   0  0  0  0  0  0  0  0  0  0  0  0
    0.3943   -1.2135    0.0000 C   0  0  0  0  0  0  0  0  0  0  0  0
    0.8578   -2.6401    0.0000 C   0  0  0  0  0  0  0  0  0  0  0  0
   -0.1459   -3.7548    0.0000 O   0  0  0  0  0  0  0  0  0  0  0  0
  1  2  1  0
  2  3  1  0
  3  4  1  0
  4  5  1  0
  5  6  2  0
  6  7  1  0
  7  8  1  0
  8  9  1  0
  9 10  1  0
  9 11  1  0
  9 12  1  0
  7 13  1  0
 13 14  1  0
 14 15  1  0
  6 16  1  0
 16 17  1  0
 17 18  1  0
 18 19  2  0
 17  4  2  0
 15 13  1  0
M  END
>  <Compound_ID>  (900) 
C54967490

>  <Active>  (900) 
0.0

>  <Smiles>  (900) 
CCCc1nc(N(CC(F)(F)F)C2CC2)sc1C=O

>  <canonical_smi>  (900) 
CCCc1nc(N(CC(F)(F)F)C2CC2)sc1C=O

>  <Set>  (900) 
G2 inactive

>  <Set_type>  (900) 
Train

>  <MW>  (900) 
292.33

>  <HBD>  (900) 
0

>  <HBA>  (900) 
3

>  <NRB>  (900) 
6

>  <NR>  (900) 
2

>  <NAR>  (900) 
1

>  <PSA>  (900) 
33.2

>  <Standard Type>  (900) 
nan

>  <Standard Relation>  (900) 
nan

>  <Standard Units>  (900) 
nan

>  <Standard Value>  (900) 
nan

>  <Assay ChEMBL ID>  (900) 
nan

>  <Assay Description>  (900) 
nan

>  <BAO Label>  (900) 
nan

$$$$

     RDKit          2D

 21 23  0  0  0  0  0  0  0  0999 V2000
    6.3398   -1.5069    0.0000 C   0  0  0  0  0  0  0  0  0  0  0  0
    5.3361   -0.3922    0.0000 C   0  0  0  0  0  0  0  0  0  0  0  0
    5.7997    1.0344    0.0000 C   0  0  0  0  0  0  0  0  0  0  0  0
    4.7960    2.1491    0.0000 C   0  0  0  0  0  0  0  0  0  0  0  0
    5.2595    3.5757    0.0000 C   0  0  0  0  0  0  0  0  0  0  0  0
    3.3287    1.8373    0.0000 C   0  0  0  0  0  0  0  0  0  0  0  0
    2.8652    0.4107    0.0000 O   0  0  0  0  0  0  0  0  0  0  0  0
    2.3250    2.9520    0.0000 N   0  0  0  0  0  0  0  0  0  0  0  0
    0.8578    2.6401    0.0000 C   0  0  0  0  0  0  0  0  0  0  0  0
    0.3943    1.2135    0.0000 C   0  0  0  0  0  0  0  0  0  0  0  0
    1.2760    0.0000    0.0000 C   0  0  0  0  0  0  0  0  0  0  0  0
    0.3943   -1.2135    0.0000 C   0  0  0  0  0  0  0  0  0  0  0  0
   -1.0323   -0.7500    0.0000 C   0  0  0  0  0  0  0  0  0  0  0  0
   -2.2458   -1.6317    0.0000 C   0  0  0  0  0  0  0  0  0  0  0  0
   -2.8559   -3.0020    0.0000 C   0  0  0  0  0  0  0  0  0  0  0  0
   -3.7376   -1.7885    0.0000 C   0  0  0  0  0  0  0  0  0  0  0  0
   -5.1079   -1.1784    0.0000 C   0  0  0  0  0  0  0  0  0  0  0  0
   -1.0323    0.7500    0.0000 O   0  0  0  0  0  0  0  0  0  0  0  0
    2.7886    4.3786    0.0000 C   0  0  0  0  0  0  0  0  0  0  0  0
    2.4767    5.8458    0.0000 C   0  0  0  0  0  0  0  0  0  0  0  0
    3.9033    5.3823    0.0000 C   0  0  0  0  0  0  0  0  0  0  0  0
  1  2  1  0
  2  3  1  0
  3  4  2  0
  4  5  1  0
  4  6  1  0
  6  7  2  0
  6  8  1  0
  8  9  1  0
  9 10  1  0
 10 11  2  0
 11 12  1  0
 12 13  2  0
 14 13  1  6
 14 15  1  0
 15 16  1  0
 16 17  1  6
 13 18  1  0
  8 19  1  0
 19 20  1  0
 20 21  1  0
 18 10  1  0
 21 19  1  0
 16 14  1  0
M  END
>  <Compound_ID>  (901) 
C58398513

>  <Active>  (901) 
0.0

>  <Smiles>  (901) 
CC/C=C(/C)C(=O)N(Cc1ccc([C@@H]2C[C@@H]2C)o1)C1CC1

>  <canonical_smi>  (901) 
CC/C=C(/C)C(=O)N(Cc1ccc([C@@H]2C[C@@H]2C)o1)C1CC1

>  <Set>  (901) 
G2 inactive

>  <Set_type>  (901) 
Train

>  <MW>  (901) 
287.4

>  <HBD>  (901) 
0

>  <HBA>  (901) 
2

>  <NRB>  (901) 
6

>  <NR>  (901) 
3

>  <NAR>  (901) 
1

>  <PSA>  (901) 
33.45

>  <Standard Type>  (901) 
nan

>  <Standard Relation>  (901) 
nan

>  <Standard Units>  (901) 
nan

>  <Standard Value>  (901) 
nan

>  <Assay ChEMBL ID>  (901) 
nan

>  <Assay Description>  (901) 
nan

>  <BAO Label>  (901) 
nan

$$$$

     RDKit          2D

 35 36  0  0  0  0  0  0  0  0999 V2000
   -5.3120   -0.6406    0.0000 C   0  0  0  0  0  0  0  0  0  0  0  0
   -5.0002    0.8266    0.0000 C   0  0  0  0  0  0  0  0  0  0  0  0
   -3.5736    1.2902    0.0000 C   0  0  0  0  0  0  0  0  0  0  0  0
   -4.0371    2.7168    0.0000 C   0  0  0  0  0  0  0  0  0  0  0  0
   -3.1101   -0.1364    0.0000 C   0  0  0  0  0  0  0  0  0  0  0  0
   -2.1470    1.7537    0.0000 C   0  0  0  0  0  0  0  0  0  0  0  0
   -1.8351    3.2209    0.0000 C   0  0  0  0  0  0  0  0  0  0  0  0
   -0.4086    3.6844    0.0000 C   0  0  0  0  0  0  0  0  0  0  0  0
    0.7062    2.6807    0.0000 C   0  0  0  0  0  0  0  0  0  0  0  0
    2.1328    3.1443    0.0000 N   0  0  0  0  0  0  0  0  0  0  0  0
    3.2475    2.1406    0.0000 C   0  0  0  0  0  0  0  0  0  0  0  0
    2.4446    4.6115    0.0000 C   0  0  0  0  0  0  0  0  0  0  0  0
    1.3299    5.6152    0.0000 C   0  0  0  0  0  0  0  0  0  0  0  0
   -0.0967    5.1517    0.0000 O   0  0  0  0  0  0  0  0  0  0  0  0
    1.6418    7.0824    0.0000 O   0  0  0  0  0  0  0  0  0  0  0  0
    0.5271    8.0861    0.0000 C   0  0  0  0  0  0  0  0  0  0  0  0
    1.5307    9.2008    0.0000 C   0  0  0  0  0  0  0  0  0  0  0  0
   -0.4766    6.9714    0.0000 C   0  0  0  0  0  0  0  0  0  0  0  0
   -0.5877    9.0898    0.0000 C   0  0  0  0  0  0  0  0  0  0  0  0
    3.8712    5.0750    0.0000 C   0  0  0  0  0  0  0  0  0  0  0  0
    4.1831    6.5422    0.0000 C   0  0  0  0  0  0  0  0  0  0  0  0
    4.9859    4.0713    0.0000 C   0  0  0  0  0  0  0  0  0  0  0  0
    0.3943    1.2135    0.0000 C   0  0  0  0  0  0  0  0  0  0  0  0
    1.2760    0.0000    0.0000 C   0  0  0  0  0  0  0  0  0  0  0  0
    2.7760    0.0000    0.0000 C   0  0  0  0  0  0  0  0  0  0  0  0
    3.5260   -1.2990    0.0000 C   0  0  0  0  0  0  0  0  0  0  0  0
    2.7760   -2.5981    0.0000 N   0  0  0  0  0  4  0  0  0  0  0  0
    5.0260   -1.2990    0.0000 C   0  0  0  0  0  0  0  0  0  0  0  0
    5.7760    0.0000    0.0000 O   0  0  0  0  0  0  0  0  0  0  0  0
    5.7760   -2.5981    0.0000 O   0  0  0  0  0  0  0  0  0  0  0  0
    7.2760   -2.5981    0.0000 C   0  0  0  0  0  0  0  0  0  0  0  0
    8.0260   -3.8971    0.0000 C   0  0  0  0  0  0  0  0  0  0  0  0
    0.3943   -1.2135    0.0000 C   0  0  0  0  0  0  0  0  0  0  0  0
   -1.0323   -0.7500    0.0000 N   0  0  0  0  0  0  0  0  0  0  0  0
   -1.0323    0.7500    0.0000 C   0  0  0  0  0  0  0  0  0  0  0  0
  1  2  2  0
  2  3  1  0
  3  4  1  0
  3  5  1  0
  3  6  1  0
  6  7  2  0
  7  8  1  0
  8  9  2  0
  9 10  1  0
 10 11  1  0
 10 12  1  0
 12 13  1  0
 13 14  2  0
 13 15  1  0
 15 16  1  0
 16 17  1  0
 16 18  1  0
 16 19  1  0
 12 20  1  6
 20 21  1  0
 20 22  1  0
 23  9  1  1
 23 24  1  0
 24 25  1  0
 25 26  1  0
 26 27  1  6
 26 28  1  0
 28 29  2  0
 28 30  1  0
 30 31  1  0
 31 32  1  0
 24 33  2  0
 33 34  1  0
 34 35  2  0
 35  6  1  0
 35 23  1  0
M  CHG  1  27   1
M  END
>  <Compound_ID>  (902) 
C39568848

>  <Active>  (902) 
0.0

>  <Smiles>  (902) 
C=CC(C)(C)C1=CC=C(N(C)[C@H](C(=O)OC(C)(C)C)C(C)C)[C@H]2C(C[C@@H]([NH3+])C(=O)OCC)=CN=C12

>  <canonical_smi>  (902) 
C=CC(C)(C)C1=CC=C(N(C)[C@H](C(=O)OC(C)(C)C)C(C)C)[C@H]2C(C[C@@H]([NH3+])C(=O)OCC)=CN=C12

>  <Set>  (902) 
G2 inactive

>  <Set_type>  (902) 
Train

>  <MW>  (902) 
486.68

>  <HBD>  (902) 
1

>  <HBA>  (902) 
5

>  <NRB>  (902) 
10

>  <NR>  (902) 
2

>  <NAR>  (902) 
0

>  <PSA>  (902) 
95.84

>  <Standard Type>  (902) 
nan

>  <Standard Relation>  (902) 
nan

>  <Standard Units>  (902) 
nan

>  <Standard Value>  (902) 
nan

>  <Assay ChEMBL ID>  (902) 
nan

>  <Assay Description>  (902) 
nan

>  <BAO Label>  (902) 
nan

$$$$

     RDKit          2D

 37 40  0  0  0  0  0  0  0  0999 V2000
    2.7722  -10.2324    0.0000 C   0  0  0  0  0  0  0  0  0  0  0  0
    3.7759   -9.1177    0.0000 C   0  0  0  0  0  0  0  0  0  0  0  0
    5.2432   -9.4296    0.0000 N   0  0  0  0  0  4  0  0  0  0  0  0
    5.8533  -10.7999    0.0000 C   0  0  0  0  0  0  0  0  0  0  0  0
    7.3450  -10.6431    0.0000 C   0  0  0  0  0  0  0  0  0  0  0  0
    7.6569   -9.1759    0.0000 C   0  0  0  0  0  0  0  0  0  0  0  0
    6.3579   -8.4259    0.0000 C   0  0  0  0  0  0  0  0  0  0  0  0
    6.2011   -6.9341    0.0000 C   0  0  0  0  0  0  0  0  0  0  0  0
    4.8308   -6.3240    0.0000 N   0  0  0  0  0  0  0  0  0  0  0  0
    4.6740   -4.8322    0.0000 C   0  0  0  0  0  0  0  0  0  0  0  0
    5.8875   -3.9505    0.0000 O   0  0  0  0  0  0  0  0  0  0  0  0
    3.3037   -4.2221    0.0000 C   0  0  0  0  0  0  0  0  0  0  0  0
    2.0046   -4.9721    0.0000 C   0  0  0  0  0  0  0  0  0  0  0  0
    0.8899   -3.9684    0.0000 N   0  0  0  0  0  0  0  0  0  0  0  0
    1.5000   -2.5981    0.0000 N   0  0  0  0  0  0  0  0  0  0  0  0
    0.7500   -1.2990    0.0000 C   0  0  0  0  0  0  0  0  0  0  0  0
    1.5000    0.0000    0.0000 C   0  0  0  0  0  0  0  0  0  0  0  0
    0.7500    1.2990    0.0000 C   0  0  0  0  0  0  0  0  0  0  0  0
   -0.7500    1.2990    0.0000 C   0  0  0  0  0  0  0  0  0  0  0  0
   -1.5000    2.5981    0.0000 C   0  0  0  0  0  0  0  0  0  0  0  0
   -1.5000    0.0000    0.0000 C   0  0  0  0  0  0  0  0  0  0  0  0
   -3.0000    0.0000    0.0000 C   0  0  0  0  0  0  0  0  0  0  0  0
   -0.7500   -1.2990    0.0000 C   0  0  0  0  0  0  0  0  0  0  0  0
    2.9918   -2.7549    0.0000 C   0  0  0  0  0  0  0  0  0  0  0  0
    3.9955   -1.6402    0.0000 C   0  0  0  0  0  0  0  0  0  0  0  0
    5.4627   -1.9520    0.0000 C   0  0  0  0  0  0  0  0  0  0  0  0
    6.4664   -0.8373    0.0000 C   0  0  0  0  0  0  0  0  0  0  0  0
    6.0029    0.5893    0.0000 N   0  0  0  0  0  0  0  0  0  0  0  0
    7.0066    1.7040    0.0000 C   0  0  0  0  0  0  0  0  0  0  0  0
    6.5430    3.1306    0.0000 O   0  0  0  0  0  0  0  0  0  0  0  0
    8.4738    1.3921    0.0000 O   0  0  0  0  0  0  0  0  0  0  0  0
    9.4775    2.5068    0.0000 C   0  0  0  0  0  0  0  0  0  0  0  0
   10.5922    1.5032    0.0000 C   0  0  0  0  0  0  0  0  0  0  0  0
    8.3628    3.5105    0.0000 C   0  0  0  0  0  0  0  0  0  0  0  0
   10.4812    3.6216    0.0000 C   0  0  0  0  0  0  0  0  0  0  0  0
    4.5356    0.9012    0.0000 C   0  0  0  0  0  0  0  0  0  0  0  0
    3.5320   -0.2136    0.0000 C   0  0  0  0  0  0  0  0  0  0  0  0
  1  2  1  0
  2  3  1  0
  3  4  1  0
  4  5  1  0
  5  6  1  0
  6  7  1  0
  7  8  1  1
  8  9  1  0
  9 10  1  0
 10 11  2  0
 10 12  1  0
 12 13  1  0
 13 14  2  0
 14 15  1  0
 15 16  1  0
 16 17  2  0
 17 18  1  0
 18 19  2  0
 19 20  1  0
 19 21  1  0
 21 22  1  0
 21 23  2  0
 15 24  1  0
 24 25  1  0
 25 26  1  0
 26 27  1  0
 27 28  1  0
 28 29  1  0
 29 30  2  0
 29 31  1  0
 31 32  1  0
 32 33  1  0
 32 34  1  0
 32 35  1  0
 28 36  1  0
 36 37  1  0
  7  3  1  0
 24 12  2  0
 37 25  1  0
 23 16  1  0
M  CHG  1   3   1
M  END
>  <Compound_ID>  (903) 
C09227895

>  <Active>  (903) 
0.0

>  <Smiles>  (903) 
CC[NH+]1CCC[C@@H]1CNC(=O)c1cnn(-c2ccc(C)c(C)c2)c1C1CCN(C(=O)OC(C)(C)C)CC1

>  <canonical_smi>  (903) 
CC[NH+]1CCC[C@@H]1CNC(=O)c1cnn(-c2ccc(C)c(C)c2)c1C1CCN(C(=O)OC(C)(C)C)CC1

>  <Set>  (903) 
G2 inactive

>  <Set_type>  (903) 
Train

>  <MW>  (903) 
510.7

>  <HBD>  (903) 
2

>  <HBA>  (903) 
4

>  <NRB>  (903) 
6

>  <NR>  (903) 
4

>  <NAR>  (903) 
2

>  <PSA>  (903) 
80.9

>  <Standard Type>  (903) 
nan

>  <Standard Relation>  (903) 
nan

>  <Standard Units>  (903) 
nan

>  <Standard Value>  (903) 
nan

>  <Assay ChEMBL ID>  (903) 
nan

>  <Assay Description>  (903) 
nan

>  <BAO Label>  (903) 
nan

$$$$

     RDKit          2D

 36 39  0  0  0  0  0  0  0  0999 V2000
    3.0000   -1.5000    0.0000 C   0  0  0  0  0  0  0  0  0  0  0  0
    3.0000    0.0000    0.0000 C   0  0  0  0  0  0  0  0  0  0  0  0
    3.0000    1.5000    0.0000 C   0  0  0  0  0  0  0  0  0  0  0  0
    4.5000    0.0000    0.0000 C   0  0  0  0  0  0  0  0  0  0  0  0
    1.5000    0.0000    0.0000 C   0  0  0  0  0  0  0  0  0  0  0  0
    0.7500   -1.2990    0.0000 C   0  0  0  0  0  0  0  0  0  0  0  0
   -0.7500   -1.2990    0.0000 C   0  0  0  0  0  0  0  0  0  0  0  0
   -1.5000    0.0000    0.0000 C   0  0  0  0  0  0  0  0  0  0  0  0
   -3.0000    0.0000    0.0000 C   0  0  0  0  0  0  0  0  0  0  0  0
   -3.8817   -1.2135    0.0000 N   0  0  0  0  0  0  0  0  0  0  0  0
   -5.3083   -0.7500    0.0000 O   0  0  0  0  0  0  0  0  0  0  0  0
   -5.3083    0.7500    0.0000 C   0  0  0  0  0  0  0  0  0  0  0  0
   -6.5218    1.6317    0.0000 C   0  0  0  0  0  0  0  0  0  0  0  0
   -6.3650    3.1235    0.0000 N   0  0  0  0  0  4  0  0  0  0  0  0
   -4.9947    3.7336    0.0000 C   0  0  0  0  0  0  0  0  0  0  0  0
   -4.8379    5.2253    0.0000 C   0  0  0  0  0  0  0  0  0  0  0  0
   -6.0514    6.1070    0.0000 C   0  0  0  0  0  0  0  0  0  0  0  0
   -7.4217    5.4969    0.0000 C   0  0  0  0  0  0  0  0  0  0  0  0
   -8.6353    6.3786    0.0000 C   0  0  0  0  0  0  0  0  0  0  0  0
  -10.0056    5.7685    0.0000 O   0  0  0  0  0  0  0  0  0  0  0  0
   -8.4785    7.8704    0.0000 N   0  0  0  0  0  0  0  0  0  0  0  0
   -9.6920    8.7521    0.0000 C   0  0  0  0  0  0  0  0  0  0  0  0
   -9.5352   10.2438    0.0000 C   0  0  0  0  0  0  0  0  0  0  0  0
  -10.7487   11.1255    0.0000 C   0  0  0  0  0  0  0  0  0  0  0  0
  -10.5919   12.6173    0.0000 S   0  0  0  0  0  0  0  0  0  0  0  0
  -11.8055   13.4990    0.0000 C   0  0  0  0  0  0  0  0  0  0  0  0
  -11.6487   14.9908    0.0000 C   0  0  0  0  0  0  0  0  0  0  0  0
  -12.8622   15.8724    0.0000 C   0  0  0  0  0  0  0  0  0  0  0  0
  -14.2325   15.2623    0.0000 C   0  0  0  0  0  0  0  0  0  0  0  0
  -15.4460   16.1440    0.0000 Cl  0  0  0  0  0  0  0  0  0  0  0  0
  -14.3893   13.7706    0.0000 C   0  0  0  0  0  0  0  0  0  0  0  0
  -13.1758   12.8889    0.0000 C   0  0  0  0  0  0  0  0  0  0  0  0
   -7.5785    4.0051    0.0000 C   0  0  0  0  0  0  0  0  0  0  0  0
   -3.8817    1.2135    0.0000 N   0  0  0  0  0  0  0  0  0  0  0  0
   -0.7500    1.2990    0.0000 C   0  0  0  0  0  0  0  0  0  0  0  0
    0.7500    1.2990    0.0000 C   0  0  0  0  0  0  0  0  0  0  0  0
  1  2  1  0
  2  3  1  0
  2  4  1  0
  2  5  1  0
  5  6  2  0
  6  7  1  0
  7  8  2  0
  8  9  1  0
  9 10  2  0
 10 11  1  0
 11 12  1  0
 12 13  1  0
 13 14  1  0
 14 15  1  0
 15 16  1  0
 16 17  1  0
 17 18  1  0
 18 19  1  1
 19 20  2  0
 19 21  1  0
 21 22  1  0
 22 23  1  0
 23 24  1  0
 24 25  1  0
 25 26  1  0
 26 27  2  0
 27 28  1  0
 28 29  2  0
 29 30  1  0
 29 31  1  0
 31 32  2  0
 18 33  1  0
 12 34  2  0
  8 35  1  0
 35 36  2  0
 36  5  1  0
 34  9  1  0
 33 14  1  0
 32 26  1  0
M  CHG  1  14   1
M  END
>  <Compound_ID>  (904) 
C38903644

>  <Active>  (904) 
0.0

>  <Smiles>  (904) 
CC(C)(C)c1ccc(-c2noc(C[NH+]3CCC[C@H](C(=O)NCCCSc4ccc(Cl)cc4)C3)n2)cc1

>  <canonical_smi>  (904) 
CC(C)(C)c1ccc(-c2noc(C[NH+]3CCC[C@H](C(=O)NCCCSc4ccc(Cl)cc4)C3)n2)cc1

>  <Set>  (904) 
G2 inactive

>  <Set_type>  (904) 
Train

>  <MW>  (904) 
528.14

>  <HBD>  (904) 
2

>  <HBA>  (904) 
5

>  <NRB>  (904) 
9

>  <NR>  (904) 
4

>  <NAR>  (904) 
3

>  <PSA>  (904) 
72.46

>  <Standard Type>  (904) 
nan

>  <Standard Relation>  (904) 
nan

>  <Standard Units>  (904) 
nan

>  <Standard Value>  (904) 
nan

>  <Assay ChEMBL ID>  (904) 
nan

>  <Assay Description>  (904) 
nan

>  <BAO Label>  (904) 
nan

$$$$

     RDKit          2D

 33 36  0  0  0  0  0  0  0  0999 V2000
   12.0488   -3.2711    0.0000 C   0  0  0  0  0  0  0  0  0  0  0  0
   10.7498   -4.0211    0.0000 C   0  0  0  0  0  0  0  0  0  0  0  0
    9.4508   -3.2711    0.0000 C   0  0  0  0  0  0  0  0  0  0  0  0
   10.7498   -5.5211    0.0000 C   0  0  0  0  0  0  0  0  0  0  0  0
    9.4508   -6.2711    0.0000 N   0  0  0  0  0  4  0  0  0  0  0  0
    8.1517   -5.5211    0.0000 C   0  0  0  0  0  0  0  0  0  0  0  0
    6.8527   -6.2711    0.0000 C   0  0  0  0  0  0  0  0  0  0  0  0
    6.8527   -7.7711    0.0000 C   0  0  0  0  0  0  0  0  0  0  0  0
    8.1517   -8.5211    0.0000 O   0  0  0  0  0  0  0  0  0  0  0  0
    5.5537   -8.5211    0.0000 C   0  0  0  0  0  0  0  0  0  0  0  0
    4.2546   -7.7711    0.0000 C   0  0  0  0  0  0  0  0  0  0  0  0
    4.2546   -6.2711    0.0000 C   0  0  0  0  0  0  0  0  0  0  0  0
    5.5537   -5.5211    0.0000 C   0  0  0  0  0  0  0  0  0  0  0  0
    5.2418   -4.0539    0.0000 O   0  0  0  0  0  0  0  0  0  0  0  0
    3.7500   -3.8971    0.0000 C   0  0  0  0  0  0  0  0  0  0  0  0
    3.0000   -2.5981    0.0000 C   0  0  0  0  0  0  0  0  0  0  0  0
    1.5000   -2.5981    0.0000 C   0  0  0  0  0  0  0  0  0  0  0  0
    0.7500   -3.8971    0.0000 C   0  0  0  0  0  0  0  0  0  0  0  0
   -0.7500   -3.8971    0.0000 C   0  0  0  0  0  0  0  0  0  0  0  0
   -1.5000   -5.1962    0.0000 Br  0  0  0  0  0  0  0  0  0  0  0  0
   -1.5000   -2.5981    0.0000 C   0  0  0  0  0  0  0  0  0  0  0  0
   -0.7500   -1.2990    0.0000 C   0  0  0  0  0  0  0  0  0  0  0  0
    0.7500   -1.2990    0.0000 C   0  0  0  0  0  0  0  0  0  0  0  0
    1.5000    0.0000    0.0000 O   0  0  0  0  0  0  0  0  0  0  0  0
    0.7500    1.2990    0.0000 C   0  0  0  0  0  0  0  0  0  0  0  0
   -0.7500    1.2990    0.0000 O   0  0  0  0  0  0  0  0  0  0  0  0
   -1.5000    0.0000    0.0000 C   0  0  0  0  0  0  0  0  0  0  0  0
    3.1399   -5.2674    0.0000 C   0  0  0  0  0  0  0  0  0  0  0  0
    1.6727   -5.5793    0.0000 O   0  0  0  0  0  0  0  0  0  0  0  0
    9.4508   -7.7711    0.0000 C   0  0  0  0  0  0  0  0  0  0  0  0
   10.7498   -8.5211    0.0000 C   0  0  0  0  0  0  0  0  0  0  0  0
   10.7498  -10.0211    0.0000 C   0  0  0  0  0  0  0  0  0  0  0  0
   12.0488   -7.7711    0.0000 C   0  0  0  0  0  0  0  0  0  0  0  0
  1  2  1  0
  2  3  1  0
  2  4  1  0
  4  5  1  0
  5  6  1  0
  6  7  1  0
  7  8  2  0
  8  9  1  0
  8 10  1  0
 10 11  2  0
 11 12  1  0
 12 13  2  0
 13 14  1  0
 14 15  1  0
 15 16  2  0
 16 17  1  0
 17 18  2  0
 18 19  1  0
 19 20  1  0
 19 21  2  0
 21 22  1  0
 22 23  2  0
 23 24  1  0
 24 25  1  0
 25 26  1  0
 26 27  1  0
 15 28  1  0
 28 29  2  0
  5 30  1  0
 30 31  1  0
 31 32  1  0
 31 33  1  0
 13  7  1  0
 23 17  1  0
 28 12  1  0
 27 22  1  0
M  CHG  1   5   1
M  END
>  <Compound_ID>  (905) 
C41513717

>  <Active>  (905) 
0.0

>  <Smiles>  (905) 
CC(C)C[NH+](Cc1c(O)ccc2c1O/C(=C/c1cc(Br)cc3c1OCOC3)C2=O)CC(C)C

>  <canonical_smi>  (905) 
CC(C)C[NH+](Cc1c(O)ccc2c1O/C(=C/c1cc(Br)cc3c1OCOC3)C2=O)CC(C)C

>  <Set>  (905) 
G2 inactive

>  <Set_type>  (905) 
Train

>  <MW>  (905) 
517.44

>  <HBD>  (905) 
2

>  <HBA>  (905) 
5

>  <NRB>  (905) 
7

>  <NR>  (905) 
4

>  <NAR>  (905) 
2

>  <PSA>  (905) 
69.43

>  <Standard Type>  (905) 
nan

>  <Standard Relation>  (905) 
nan

>  <Standard Units>  (905) 
nan

>  <Standard Value>  (905) 
nan

>  <Assay ChEMBL ID>  (905) 
nan

>  <Assay Description>  (905) 
nan

>  <BAO Label>  (905) 
nan

$$$$

     RDKit          2D

 33 38  0  0  0  0  0  0  0  0999 V2000
    3.0000    0.0000    0.0000 O   0  0  0  0  0  0  0  0  0  0  0  0
    1.5000    0.0000    0.0000 C   0  0  0  0  0  0  0  0  0  0  0  0
    0.7500   -1.2990    0.0000 C   0  0  0  0  0  0  0  0  0  0  0  0
   -0.7500   -1.2990    0.0000 C   0  0  0  0  0  0  0  0  0  0  0  0
   -1.5000    0.0000    0.0000 C   0  0  0  0  0  0  0  0  0  0  0  0
   -0.7500    1.2990    0.0000 C   0  0  0  0  0  0  0  0  0  0  0  0
    0.7500    1.2990    0.0000 C   0  0  0  0  0  0  0  0  0  0  0  0
    1.5000    2.5981    0.0000 C   0  0  0  0  0  0  0  0  0  0  0  0
    3.0000    2.5981    0.0000 C   0  0  0  0  0  0  0  0  0  0  0  0
    3.8817    3.8116    0.0000 C   0  0  0  0  0  0  0  0  0  0  0  0
    5.3083    3.3481    0.0000 C   0  0  0  0  0  0  0  0  0  0  0  0
    5.3083    1.8481    0.0000 N   0  0  0  0  0  4  0  0  0  0  0  0
    3.8817    1.3846    0.0000 C   0  0  0  0  0  0  0  0  0  0  0  0
    0.7500    3.8971    0.0000 N   0  0  0  0  0  0  0  0  0  0  0  0
    1.2135    5.3237    0.0000 N   0  0  0  0  0  0  0  0  0  0  0  0
    0.0000    6.2054    0.0000 C   0  0  0  0  0  0  0  0  0  0  0  0
    0.0000    7.7054    0.0000 S   0  0  0  0  0  0  0  0  0  0  0  0
    1.2990    8.4554    0.0000 C   0  0  0  0  0  0  0  0  0  0  0  0
    1.2990    9.9554    0.0000 C   0  0  0  0  0  0  0  0  0  0  0  0
    2.5981   10.7054    0.0000 C   0  0  0  0  0  0  0  0  0  0  0  0
    2.5981   12.2054    0.0000 C   0  0  0  0  0  0  0  0  0  0  0  0
    1.2990   12.9554    0.0000 C   0  0  0  0  0  0  0  0  0  0  0  0
   -0.0000   12.2054    0.0000 C   0  0  0  0  0  0  0  0  0  0  0  0
   -0.0000   10.7054    0.0000 C   0  0  0  0  0  0  0  0  0  0  0  0
    2.5981    7.7054    0.0000 C   0  0  0  0  0  0  0  0  0  0  0  0
    2.5981    6.2054    0.0000 C   0  0  0  0  0  0  0  0  0  0  0  0
    3.8971    5.4554    0.0000 C   0  0  0  0  0  0  0  0  0  0  0  0
    5.1962    6.2054    0.0000 C   0  0  0  0  0  0  0  0  0  0  0  0
    5.1962    7.7054    0.0000 C   0  0  0  0  0  0  0  0  0  0  0  0
    3.8971    8.4554    0.0000 C   0  0  0  0  0  0  0  0  0  0  0  0
   -1.2135    5.3237    0.0000 N   0  0  0  0  0  0  0  0  0  0  0  0
   -0.7500    3.8971    0.0000 C   0  0  0  0  0  0  0  0  0  0  0  0
   -1.5000    2.5981    0.0000 N   0  0  0  0  0  0  0  0  0  0  0  0
  1  2  2  0
  2  3  1  0
  3  4  1  0
  4  5  1  0
  5  6  1  0
  6  7  2  0
  7  8  1  0
  8  9  1  6
  9 10  2  0
 10 11  1  0
 11 12  2  0
 12 13  1  0
  8 14  1  0
 14 15  1  0
 15 16  1  0
 16 17  1  0
 17 18  1  0
 18 19  1  0
 19 20  2  0
 20 21  1  0
 21 22  2  0
 22 23  1  0
 23 24  2  0
 18 25  1  0
 25 26  2  0
 26 27  1  0
 27 28  2  0
 28 29  1  0
 29 30  2  0
 16 31  2  0
 31 32  1  0
 32 33  1  6
  7  2  1  0
 13  9  1  0
 32 14  1  0
 33  6  1  0
 24 19  1  0
 30 25  1  0
M  CHG  1  12   1
M  END
>  <Compound_ID>  (906) 
C39916074

>  <Active>  (906) 
0.0

>  <Smiles>  (906) 
O=C1CCCC2=C1[C@@H](C1=CC=[NH+]C1)N1NC(SC(c3ccccc3)c3ccccc3)=N[C@H]1N2

>  <canonical_smi>  (906) 
O=C1CCCC2=C1[C@@H](C1=CC=[NH+]C1)N1NC(SC(c3ccccc3)c3ccccc3)=N[C@H]1N2

>  <Set>  (906) 
G2 inactive

>  <Set_type>  (906) 
Train

>  <MW>  (906) 
456.6

>  <HBD>  (906) 
3

>  <HBA>  (906) 
5

>  <NRB>  (906) 
4

>  <NR>  (906) 
6

>  <NAR>  (906) 
2

>  <PSA>  (906) 
70.7

>  <Standard Type>  (906) 
nan

>  <Standard Relation>  (906) 
nan

>  <Standard Units>  (906) 
nan

>  <Standard Value>  (906) 
nan

>  <Assay ChEMBL ID>  (906) 
nan

>  <Assay Description>  (906) 
nan

>  <BAO Label>  (906) 
nan

$$$$

     RDKit          2D

 29 32  0  0  0  0  0  0  0  0999 V2000
    0.0000   -8.1073    0.0000 O   0  0  0  0  0  0  0  0  0  0  0  0
   -1.2990   -7.3573    0.0000 C   0  0  0  0  0  0  0  0  0  0  0  0
   -1.2990   -5.8573    0.0000 N   0  0  0  0  0  0  0  0  0  0  0  0
   -0.0000   -5.1073    0.0000 C   0  0  0  0  0  0  0  0  0  0  0  0
   -0.0000   -3.6073    0.0000 C   0  0  0  0  0  0  0  0  0  0  0  0
    1.2135   -2.7256    0.0000 C   0  0  0  0  0  0  0  0  0  0  0  0
    0.7500   -1.2990    0.0000 C   0  0  0  0  0  0  0  0  0  0  0  0
    1.5000    0.0000    0.0000 C   0  0  0  0  0  0  0  0  0  0  0  0
    0.7500    1.2990    0.0000 C   0  0  0  0  0  0  0  0  0  0  0  0
    1.5000    2.5981    0.0000 Cl  0  0  0  0  0  0  0  0  0  0  0  0
   -0.7500    1.2990    0.0000 C   0  0  0  0  0  0  0  0  0  0  0  0
   -1.5000    0.0000    0.0000 C   0  0  0  0  0  0  0  0  0  0  0  0
   -0.7500   -1.2990    0.0000 C   0  0  0  0  0  0  0  0  0  0  0  0
   -1.2135   -2.7256    0.0000 N   0  0  0  0  0  4  0  0  0  0  0  0
   -2.5981   -8.1073    0.0000 C   0  0  0  0  0  0  0  0  0  0  0  0
   -2.7549   -9.5991    0.0000 C   0  0  0  0  0  0  0  0  0  0  0  0
   -4.2221   -9.9110    0.0000 C   0  0  0  0  0  0  0  0  0  0  0  0
   -4.8322  -11.2813    0.0000 C   0  0  0  0  0  0  0  0  0  0  0  0
   -6.3240  -11.4381    0.0000 O   0  0  0  0  0  0  0  0  0  0  0  0
   -6.9341  -12.8084    0.0000 C   0  0  0  0  0  0  0  0  0  0  0  0
   -8.4259  -12.9652    0.0000 C   0  0  0  0  0  0  0  0  0  0  0  0
   -9.3075  -11.7516    0.0000 F   0  0  0  0  0  0  0  0  0  0  0  0
   -9.0360  -14.3355    0.0000 C   0  0  0  0  0  0  0  0  0  0  0  0
   -8.1543  -15.5490    0.0000 C   0  0  0  0  0  0  0  0  0  0  0  0
   -6.6625  -15.3922    0.0000 C   0  0  0  0  0  0  0  0  0  0  0  0
   -6.0524  -14.0219    0.0000 C   0  0  0  0  0  0  0  0  0  0  0  0
   -4.5606  -13.8651    0.0000 F   0  0  0  0  0  0  0  0  0  0  0  0
   -4.9721   -8.6119    0.0000 O   0  0  0  0  0  0  0  0  0  0  0  0
   -3.9684   -7.4972    0.0000 N   0  0  0  0  0  0  0  0  0  0  0  0
  1  2  2  0
  2  3  1  0
  3  4  1  0
  5  4  1  1
  5  6  1  0
  6  7  2  0
  7  8  1  0
  8  9  2  0
  9 10  1  0
  9 11  1  0
 11 12  2  0
 12 13  1  0
 13 14  2  0
 15  2  1  1
 15 16  1  0
 16 17  2  0
 17 18  1  0
 18 19  1  0
 19 20  1  0
 20 21  2  0
 21 22  1  0
 21 23  1  0
 23 24  2  0
 24 25  1  0
 25 26  2  0
 26 27  1  0
 17 28  1  0
 28 29  1  0
 14  5  1  0
 29 15  1  0
 13  7  1  0
 26 20  1  0
M  CHG  1  14   1
M  END
>  <Compound_ID>  (907) 
C64103669

>  <Active>  (907) 
0.0

>  <Smiles>  (907) 
O=C(NC[C@@H]1C=c2cc(Cl)ccc2=[NH+]1)[C@H]1C=C(COc2c(F)cccc2F)ON1

>  <canonical_smi>  (907) 
O=C(NC[C@@H]1C=c2cc(Cl)ccc2=[NH+]1)[C@H]1C=C(COc2c(F)cccc2F)ON1

>  <Set>  (907) 
G2 inactive

>  <Set_type>  (907) 
Train

>  <MW>  (907) 
420.82

>  <HBD>  (907) 
3

>  <HBA>  (907) 
4

>  <NRB>  (907) 
6

>  <NR>  (907) 
4

>  <NAR>  (907) 
2

>  <PSA>  (907) 
73.56

>  <Standard Type>  (907) 
nan

>  <Standard Relation>  (907) 
nan

>  <Standard Units>  (907) 
nan

>  <Standard Value>  (907) 
nan

>  <Assay ChEMBL ID>  (907) 
nan

>  <Assay Description>  (907) 
nan

>  <BAO Label>  (907) 
nan

$$$$

     RDKit          2D

 32 35  0  0  0  0  0  0  0  0999 V2000
   -4.6883    2.2939    0.0000 H   0  0  0  0  0  0  0  0  0  0  0  0
   -3.5736    1.2902    0.0000 N   0  0  0  0  0  0  0  0  0  0  0  0
   -2.1470    1.7537    0.0000 C   0  0  0  0  0  0  0  0  0  0  0  0
   -1.8351    3.2209    0.0000 C   0  0  0  0  0  0  0  0  0  0  0  0
   -2.9499    4.2246    0.0000 C   0  0  0  0  0  0  0  0  0  0  0  0
   -2.6380    5.6918    0.0000 C   0  0  0  0  0  0  0  0  0  0  0  0
   -3.6417    6.8066    0.0000 C   0  0  0  0  0  0  0  0  0  0  0  0
   -2.8917    8.1056    0.0000 C   0  0  0  0  0  0  0  0  0  0  0  0
   -1.4245    7.7937    0.0000 C   0  0  0  0  0  0  0  0  0  0  0  0
   -0.3097    8.7974    0.0000 C   0  0  0  0  0  0  0  0  0  0  0  0
    1.1168    8.3339    0.0000 C   0  0  0  0  0  0  0  0  0  0  0  0
    2.2316    9.3376    0.0000 C   0  0  0  0  0  0  0  0  0  0  0  0
    1.9197   10.8048    0.0000 C   0  0  0  0  0  0  0  0  0  0  0  0
    3.0344   11.8085    0.0000 Cl  0  0  0  0  0  0  0  0  0  0  0  0
    0.4931   11.2683    0.0000 C   0  0  0  0  0  0  0  0  0  0  0  0
   -0.6216   10.2646    0.0000 C   0  0  0  0  0  0  0  0  0  0  0  0
   -1.2677    6.3019    0.0000 O   0  0  0  0  0  0  0  0  0  0  0  0
   -0.4086    3.6844    0.0000 C   0  0  0  0  0  0  0  0  0  0  0  0
   -0.0967    5.1517    0.0000 O   0  0  0  0  0  0  0  0  0  0  0  0
    0.7062    2.6807    0.0000 N   0  0  0  0  0  0  0  0  0  0  0  0
    0.3943    1.2135    0.0000 C   0  0  0  0  0  0  0  0  0  0  0  0
    1.2760    0.0000    0.0000 S   0  0  0  0  0  0  0  0  0  0  0  0
    0.3943   -1.2135    0.0000 N   0  0  0  0  0  0  0  0  0  0  0  0
   -1.0323   -0.7500    0.0000 C   0  0  0  0  0  0  0  0  0  0  0  0
   -2.2458   -1.6317    0.0000 S   0  0  0  0  0  0  0  0  0  0  0  0
   -3.1275   -0.4182    0.0000 O   0  0  0  0  0  0  0  0  0  0  0  0
   -1.3641   -2.8452    0.0000 O   0  0  0  0  0  0  0  0  0  0  0  0
   -3.4593   -2.5134    0.0000 C   0  0  0  0  0  0  0  0  0  0  0  0
   -4.8297   -1.9033    0.0000 C   0  0  0  0  0  0  0  0  0  0  0  0
   -6.0432   -2.7849    0.0000 C   0  0  0  0  0  0  0  0  0  0  0  0
   -4.9864   -0.4115    0.0000 C   0  0  0  0  0  0  0  0  0  0  0  0
   -1.0323    0.7500    0.0000 N   0  0  0  0  0  0  0  0  0  0  0  0
  1  2  1  0
  2  3  2  0
  3  4  1  0
  4  5  2  0
  5  6  1  0
  6  7  2  0
  7  8  1  0
  8  9  2  0
  9 10  1  0
 10 11  2  0
 11 12  1  0
 12 13  2  0
 13 14  1  0
 13 15  1  0
 15 16  2  0
  9 17  1  0
  4 18  1  0
 18 19  2  0
 18 20  1  0
 20 21  2  0
 21 22  1  0
 22 23  1  0
 23 24  2  0
 24 25  1  0
 25 26  2  0
 25 27  2  0
 25 28  1  0
 28 29  1  0
 29 30  1  0
 29 31  1  0
 24 32  1  0
 32  3  1  0
 17  6  1  0
 32 21  1  0
 16 10  1  0
M  END
>  <Compound_ID>  (908) 
C20206971

>  <Active>  (908) 
0.0

>  <Smiles>  (908) 
[H]/N=C1C(=C\c2ccc(-c3ccc(Cl)cc3)o2)\C(=O)N=C2SN=C(S(=O)(=O)CC(C)C)N2\1

>  <canonical_smi>  (908) 
[H]/N=C1C(=C\c2ccc(-c3ccc(Cl)cc3)o2)\C(=O)N=C2SN=C(S(=O)(=O)CC(C)C)N2\1

>  <Set>  (908) 
G2 inactive

>  <Set_type>  (908) 
Train

>  <MW>  (908) 
476.97

>  <HBD>  (908) 
1

>  <HBA>  (908) 
6

>  <NRB>  (908) 
4

>  <NR>  (908) 
4

>  <NAR>  (908) 
2

>  <PSA>  (908) 
116.16

>  <Standard Type>  (908) 
nan

>  <Standard Relation>  (908) 
nan

>  <Standard Units>  (908) 
nan

>  <Standard Value>  (908) 
nan

>  <Assay ChEMBL ID>  (908) 
nan

>  <Assay Description>  (908) 
nan

>  <BAO Label>  (908) 
nan

$$$$

     RDKit          2D

 31 34  0  0  0  0  0  0  0  0999 V2000
   -6.4952   -7.3573    0.0000 C   0  0  0  0  0  0  0  0  0  0  0  0
   -5.1962   -8.1073    0.0000 O   0  0  0  0  0  0  0  0  0  0  0  0
   -3.8971   -7.3573    0.0000 C   0  0  0  0  0  0  0  0  0  0  0  0
   -3.8971   -5.8573    0.0000 C   0  0  0  0  0  0  0  0  0  0  0  0
   -2.5981   -5.1073    0.0000 C   0  0  0  0  0  0  0  0  0  0  0  0
   -1.2990   -5.8573    0.0000 C   0  0  0  0  0  0  0  0  0  0  0  0
   -0.0000   -5.1073    0.0000 C   0  0  0  0  0  0  0  0  0  0  0  0
    1.2990   -5.8573    0.0000 C   0  0  0  0  0  0  0  0  0  0  0  0
    1.2990   -7.3573    0.0000 C   0  0  0  0  0  0  0  0  0  0  0  0
    0.0000   -8.1073    0.0000 O   0  0  0  0  0  0  0  0  0  0  0  0
    2.5981   -8.1073    0.0000 N   0  0  0  0  0  0  0  0  0  0  0  0
    2.5981   -9.6073    0.0000 C   0  0  0  0  0  0  0  0  0  0  0  0
    1.2990  -10.3573    0.0000 C   0  0  0  0  0  0  0  0  0  0  0  0
    1.2990  -11.8573    0.0000 C   0  0  0  0  0  0  0  0  0  0  0  0
    2.5981  -12.6073    0.0000 C   0  0  0  0  0  0  0  0  0  0  0  0
    2.5981  -14.1073    0.0000 C   0  0  0  0  0  0  0  0  0  0  0  0
    3.8971  -11.8573    0.0000 C   0  0  0  0  0  0  0  0  0  0  0  0
    3.8971  -10.3573    0.0000 C   0  0  0  0  0  0  0  0  0  0  0  0
    5.1962   -9.6073    0.0000 C   0  0  0  0  0  0  0  0  0  0  0  0
   -0.0000   -3.6073    0.0000 N   0  0  0  0  0  0  0  0  0  0  0  0
    1.2135   -2.7256    0.0000 C   0  0  0  0  0  0  0  0  0  0  0  0
    0.7500   -1.2990    0.0000 C   0  0  0  0  0  0  0  0  0  0  0  0
    1.5000    0.0000    0.0000 C   0  0  0  0  0  0  0  0  0  0  0  0
    0.7500    1.2990    0.0000 C   0  0  0  0  0  0  0  0  0  0  0  0
   -0.7500    1.2990    0.0000 C   0  0  0  0  0  0  0  0  0  0  0  0
   -1.5000    0.0000    0.0000 C   0  0  0  0  0  0  0  0  0  0  0  0
   -0.7500   -1.2990    0.0000 C   0  0  0  0  0  0  0  0  0  0  0  0
   -1.2135   -2.7256    0.0000 C   0  0  0  0  0  0  0  0  0  0  0  0
   -2.6401   -3.1891    0.0000 O   0  0  0  0  0  0  0  0  0  0  0  0
   -1.2990   -7.3573    0.0000 C   0  0  0  0  0  0  0  0  0  0  0  0
   -2.5981   -8.1073    0.0000 C   0  0  0  0  0  0  0  0  0  0  0  0
  1  2  1  0
  2  3  1  0
  3  4  2  0
  4  5  1  0
  5  6  2  0
  6  7  1  0
  7  8  1  6
  8  9  1  0
  9 10  2  0
  9 11  1  0
 11 12  1  0
 12 13  2  0
 13 14  1  0
 14 15  2  0
 15 16  1  0
 15 17  1  0
 17 18  2  0
 18 19  1  0
  7 20  1  0
 20 21  1  0
 21 22  1  0
 22 23  2  0
 23 24  1  0
 24 25  2  0
 25 26  1  0
 26 27  2  0
 27 28  1  0
 28 29  2  0
  6 30  1  0
 30 31  2  0
 31  3  1  0
 18 12  1  0
 28 20  1  0
 27 22  1  0
M  END
>  <Compound_ID>  (909) 
C15720932

>  <Active>  (909) 
0.0

>  <Smiles>  (909) 
COc1ccc([C@@H](CC(=O)Nc2ccc(C)cc2C)N2Cc3ccccc3C2=O)cc1

>  <canonical_smi>  (909) 
COc1ccc([C@@H](CC(=O)Nc2ccc(C)cc2C)N2Cc3ccccc3C2=O)cc1

>  <Set>  (909) 
G2 inactive

>  <Set_type>  (909) 
Train

>  <MW>  (909) 
414.51

>  <HBD>  (909) 
1

>  <HBA>  (909) 
3

>  <NRB>  (909) 
6

>  <NR>  (909) 
4

>  <NAR>  (909) 
3

>  <PSA>  (909) 
58.64

>  <Standard Type>  (909) 
nan

>  <Standard Relation>  (909) 
nan

>  <Standard Units>  (909) 
nan

>  <Standard Value>  (909) 
nan

>  <Assay ChEMBL ID>  (909) 
nan

>  <Assay Description>  (909) 
nan

>  <BAO Label>  (909) 
nan

$$$$

     RDKit          2D

 32 35  0  0  0  0  0  0  0  0999 V2000
   -0.0000   -5.1073    0.0000 C   0  0  0  0  0  0  0  0  0  0  0  0
   -0.0000   -3.6073    0.0000 C   0  0  0  0  0  0  0  0  0  0  0  0
    1.2135   -2.7256    0.0000 N   0  0  0  0  0  0  0  0  0  0  0  0
    0.7500   -1.2990    0.0000 C   0  0  0  0  0  0  0  0  0  0  0  0
    1.5000    0.0000    0.0000 C   0  0  0  0  0  0  0  0  0  0  0  0
    0.7500    1.2990    0.0000 C   0  0  0  0  0  0  0  0  0  0  0  0
    1.5000    2.5981    0.0000 C   0  0  0  0  0  0  0  0  0  0  0  0
    0.7500    3.8971    0.0000 O   0  0  0  0  0  0  0  0  0  0  0  0
    3.0000    2.5981    0.0000 N   0  0  0  0  0  0  0  0  0  0  0  0
    3.7500    3.8971    0.0000 C   0  0  0  0  0  0  0  0  0  0  0  0
    3.7500    1.2990    0.0000 C   0  0  0  0  0  0  0  0  0  0  0  0
    5.2500    1.2990    0.0000 C   0  0  0  0  0  0  0  0  0  0  0  0
    6.0000   -0.0000    0.0000 C   0  0  0  0  0  0  0  0  0  0  0  0
    7.5000   -0.0000    0.0000 C   0  0  0  0  0  0  0  0  0  0  0  0
    8.2500   -1.2990    0.0000 C   0  0  0  0  0  0  0  0  0  0  0  0
    9.7500   -1.2990    0.0000 C   0  0  0  0  0  0  0  0  0  0  0  0
   10.6317   -0.0855    0.0000 C   0  0  0  0  0  0  0  0  0  0  0  0
   12.0583   -0.5490    0.0000 C   0  0  0  0  0  0  0  0  0  0  0  0
   13.2718    0.3326    0.0000 C   0  0  0  0  0  0  0  0  0  0  0  0
   14.6421   -0.2775    0.0000 C   0  0  0  0  0  0  0  0  0  0  0  0
   15.8556    0.6042    0.0000 C   0  0  0  0  0  0  0  0  0  0  0  0
   15.6988    2.0960    0.0000 C   0  0  0  0  0  0  0  0  0  0  0  0
   16.9124    2.9777    0.0000 F   0  0  0  0  0  0  0  0  0  0  0  0
   14.3285    2.7061    0.0000 C   0  0  0  0  0  0  0  0  0  0  0  0
   13.1150    1.8244    0.0000 C   0  0  0  0  0  0  0  0  0  0  0  0
   12.0583   -2.0490    0.0000 N   0  0  0  0  0  0  0  0  0  0  0  0
   10.6317   -2.5126    0.0000 N   0  0  0  0  0  0  0  0  0  0  0  0
   -0.7500    1.2990    0.0000 C   0  0  0  0  0  0  0  0  0  0  0  0
   -1.5000    0.0000    0.0000 C   0  0  0  0  0  0  0  0  0  0  0  0
   -0.7500   -1.2990    0.0000 C   0  0  0  0  0  0  0  0  0  0  0  0
   -1.2135   -2.7256    0.0000 N   0  0  0  0  0  0  0  0  0  0  0  0
   -2.6401   -3.1891    0.0000 C   0  0  0  0  0  0  0  0  0  0  0  0
  1  2  1  0
  2  3  2  0
  3  4  1  0
  4  5  2  0
  5  6  1  0
  6  7  1  0
  7  8  2  0
  7  9  1  0
  9 10  1  0
  9 11  1  0
 11 12  1  0
 12 13  1  0
 13 14  1  0
 14 15  1  0
 15 16  1  0
 16 17  2  0
 17 18  1  0
 18 19  1  0
 19 20  2  0
 20 21  1  0
 21 22  2  0
 22 23  1  0
 22 24  1  0
 24 25  2  0
 18 26  2  0
 26 27  1  0
  6 28  2  0
 28 29  1  0
 29 30  2  0
 30 31  1  0
 31 32  1  0
 31  2  1  0
 30  4  1  0
 27 16  1  0
 25 19  1  0
M  END
>  <Compound_ID>  (910) 
C60298358

>  <Active>  (910) 
0.0

>  <Smiles>  (910) 
Cc1nc2cc(C(=O)N(C)CCCCCc3cc(-c4ccc(F)cc4)n[nH]3)ccc2n1C

>  <canonical_smi>  (910) 
Cc1nc2cc(C(=O)N(C)CCCCCc3cc(-c4ccc(F)cc4)n[nH]3)ccc2n1C

>  <Set>  (910) 
G2 inactive

>  <Set_type>  (910) 
Train

>  <MW>  (910) 
433.53

>  <HBD>  (910) 
1

>  <HBA>  (910) 
3

>  <NRB>  (910) 
8

>  <NR>  (910) 
4

>  <NAR>  (910) 
4

>  <PSA>  (910) 
66.81

>  <Standard Type>  (910) 
nan

>  <Standard Relation>  (910) 
nan

>  <Standard Units>  (910) 
nan

>  <Standard Value>  (910) 
nan

>  <Assay ChEMBL ID>  (910) 
nan

>  <Assay Description>  (910) 
nan

>  <BAO Label>  (910) 
nan

$$$$

     RDKit          2D

 31 34  0  0  0  0  0  0  0  0999 V2000
   -4.9294    1.5000    0.0000 C   0  0  0  0  0  0  0  0  0  0  0  0
   -3.6304    0.7500    0.0000 C   0  0  0  0  0  0  0  0  0  0  0  0
   -2.3313    1.5000    0.0000 N   0  0  0  0  0  0  0  0  0  0  0  0
   -1.0323    0.7500    0.0000 C   0  0  0  0  0  0  0  0  0  0  0  0
    0.3943    1.2135    0.0000 C   0  0  0  0  0  0  0  0  0  0  0  0
    0.8578    2.6401    0.0000 C   0  0  0  0  0  0  0  0  0  0  0  0
    2.3250    2.9520    0.0000 C   0  0  0  0  0  0  0  0  0  0  0  0
    2.7886    4.3786    0.0000 C   0  0  0  0  0  0  0  0  0  0  0  0
    1.7849    5.4933    0.0000 C   0  0  0  0  0  0  0  0  0  0  0  0
    0.3177    5.1814    0.0000 C   0  0  0  0  0  0  0  0  0  0  0  0
   -0.1459    3.7548    0.0000 C   0  0  0  0  0  0  0  0  0  0  0  0
    1.2760    0.0000    0.0000 C   0  0  0  0  0  0  0  0  0  0  0  0
    2.7760    0.0000    0.0000 C   0  0  0  0  0  0  0  0  0  0  0  0
    0.3943   -1.2135    0.0000 N   0  0  0  0  0  0  0  0  0  0  0  0
   -1.0323   -0.7500    0.0000 N   0  0  0  0  0  0  0  0  0  0  0  0
   -2.3313   -1.5000    0.0000 C   0  0  0  0  0  0  0  0  0  0  0  0
   -2.3313   -3.0000    0.0000 N   0  0  0  0  0  0  0  0  0  0  0  0
   -3.6304   -3.7500    0.0000 C   0  0  0  0  0  0  0  0  0  0  0  0
   -3.6304   -5.2500    0.0000 C   0  0  0  0  0  0  0  0  0  0  0  0
   -4.9294   -6.0000    0.0000 C   0  0  0  0  0  0  0  0  0  0  0  0
   -4.9294   -7.5000    0.0000 N   0  0  0  0  0  4  0  0  0  0  0  0
   -6.2284   -8.2500    0.0000 C   0  0  0  0  0  0  0  0  0  0  0  0
   -3.6304   -8.2500    0.0000 C   0  0  0  0  0  0  0  0  0  0  0  0
   -3.6304   -0.7500    0.0000 C   0  0  0  0  0  0  0  0  0  0  0  0
   -4.9294   -1.5000    0.0000 C   0  0  0  0  0  0  0  0  0  0  0  0
   -6.2284   -0.7500    0.0000 C   0  0  0  0  0  0  0  0  0  0  0  0
   -6.2284    0.7500    0.0000 C   0  0  0  0  0  0  0  0  0  0  0  0
   -7.5275    1.5000    0.0000 C   0  0  0  0  0  0  0  0  0  0  0  0
   -8.8265    0.7500    0.0000 C   0  0  0  0  0  0  0  0  0  0  0  0
   -8.8265   -0.7500    0.0000 C   0  0  0  0  0  0  0  0  0  0  0  0
   -7.5275   -1.5000    0.0000 C   0  0  0  0  0  0  0  0  0  0  0  0
  1  2  1  0
  2  3  2  0
  3  4  1  0
  4  5  2  0
  5  6  1  0
  6  7  2  0
  7  8  1  0
  8  9  2  0
  9 10  1  0
 10 11  2  0
  5 12  1  0
 12 13  1  0
 12 14  2  0
 14 15  1  0
 15 16  1  0
 16 17  1  0
 17 18  1  0
 18 19  1  0
 19 20  1  0
 20 21  1  0
 21 22  1  0
 21 23  1  0
 16 24  2  0
 24 25  1  0
 25 26  1  0
 26 27  2  0
 27 28  1  0
 28 29  2  0
 29 30  1  0
 30 31  2  0
 24  2  1  0
 31 26  1  0
 15  4  1  0
 11  6  1  0
M  CHG  1  21   1
M  END
>  <Compound_ID>  (911) 
C05554694

>  <Active>  (911) 
0.0

>  <Smiles>  (911) 
Cc1nc2c(-c3ccccc3)c(C)nn2c(NCCC[NH+](C)C)c1Cc1ccccc1

>  <canonical_smi>  (911) 
Cc1nc2c(-c3ccccc3)c(C)nn2c(NCCC[NH+](C)C)c1Cc1ccccc1

>  <Set>  (911) 
G2 inactive

>  <Set_type>  (911) 
Train

>  <MW>  (911) 
414.58

>  <HBD>  (911) 
2

>  <HBA>  (911) 
3

>  <NRB>  (911) 
8

>  <NR>  (911) 
4

>  <NAR>  (911) 
4

>  <PSA>  (911) 
46.66

>  <Standard Type>  (911) 
nan

>  <Standard Relation>  (911) 
nan

>  <Standard Units>  (911) 
nan

>  <Standard Value>  (911) 
nan

>  <Assay ChEMBL ID>  (911) 
nan

>  <Assay Description>  (911) 
nan

>  <BAO Label>  (911) 
nan

$$$$

     RDKit          2D

 30 32  0  0  0  0  0  0  0  0999 V2000
   -2.3652   -8.8367    0.0000 C   0  0  0  0  0  0  0  0  0  0  0  0
   -1.4836   -7.6232    0.0000 C   0  0  0  0  0  0  0  0  0  0  0  0
    0.0082   -7.7800    0.0000 C   0  0  0  0  0  0  0  0  0  0  0  0
    0.8899   -6.5665    0.0000 C   0  0  0  0  0  0  0  0  0  0  0  0
   -0.4091   -5.8165    0.0000 C   0  0  0  0  0  0  0  0  0  0  0  0
   -1.7082   -6.5665    0.0000 C   0  0  0  0  0  0  0  0  0  0  0  0
   -3.0072   -5.8165    0.0000 C   0  0  0  0  0  0  0  0  0  0  0  0
    2.0046   -7.5702    0.0000 C   0  0  0  0  0  0  0  0  0  0  0  0
    3.3037   -6.8202    0.0000 C   0  0  0  0  0  0  0  0  0  0  0  0
    2.9918   -5.3529    0.0000 C   0  0  0  0  0  0  0  0  0  0  0  0
    1.5000   -5.1962    0.0000 N   0  0  0  0  0  0  0  0  0  0  0  0
    0.7500   -3.8971    0.0000 C   0  0  0  0  0  0  0  0  0  0  0  0
   -0.7500   -3.8971    0.0000 O   0  0  0  0  0  0  0  0  0  0  0  0
    1.5000   -2.5981    0.0000 C   0  0  0  0  0  0  0  0  0  0  0  0
    0.7500   -1.2990    0.0000 C   0  0  0  0  0  0  0  0  0  0  0  0
    1.5000    0.0000    0.0000 C   0  0  0  0  0  0  0  0  0  0  0  0
    3.0000    0.0000    0.0000 O   0  0  0  0  0  0  0  0  0  0  0  0
    0.7500    1.2990    0.0000 N   0  0  0  0  0  0  0  0  0  0  0  0
   -0.7500    1.2990    0.0000 C   0  0  0  0  0  0  0  0  0  0  0  0
   -1.5000    0.0000    0.0000 C   0  0  0  0  0  0  0  0  0  0  0  0
   -0.7500   -1.2990    0.0000 N   0  0  0  0  0  4  0  0  0  0  0  0
   -1.5000   -2.5981    0.0000 C   0  0  0  0  0  0  0  0  0  0  0  0
   -3.0000   -2.5981    0.0000 C   0  0  0  0  0  0  0  0  0  0  0  0
   -3.7500   -3.8971    0.0000 C   0  0  0  0  0  0  0  0  0  0  0  0
   -5.2500   -3.8971    0.0000 C   0  0  0  0  0  0  0  0  0  0  0  0
   -6.0000   -2.5981    0.0000 C   0  0  0  0  0  0  0  0  0  0  0  0
   -7.5000   -2.5981    0.0000 F   0  0  0  0  0  0  0  0  0  0  0  0
   -5.2500   -1.2990    0.0000 C   0  0  0  0  0  0  0  0  0  0  0  0
   -3.7500   -1.2990    0.0000 C   0  0  0  0  0  0  0  0  0  0  0  0
   -3.0000    0.0000    0.0000 Cl  0  0  0  0  0  0  0  0  0  0  0  0
  1  2  2  0
  2  3  1  0
  3  4  1  0
  4  5  1  0
  5  6  1  0
  6  7  2  0
  4  8  1  0
  8  9  1  0
  9 10  1  0
 10 11  1  0
 11 12  1  0
 12 13  2  0
 12 14  1  0
 15 14  1  6
 15 16  1  0
 16 17  2  0
 16 18  1  0
 18 19  1  0
 19 20  1  0
 20 21  1  0
 21 22  1  0
 22 23  1  0
 23 24  2  0
 24 25  1  0
 25 26  2  0
 26 27  1  0
 26 28  1  0
 28 29  2  0
 29 30  1  0
 11  4  1  0
 21 15  1  0
 29 23  1  0
M  CHG  1  21   1
M  END
>  <Compound_ID>  (912) 
C11815979

>  <Active>  (912) 
0.0

>  <Smiles>  (912) 
C=CCC1(CC=C)CCCN1C(=O)C[C@H]1C(=O)NCC[NH+]1Cc1ccc(F)cc1Cl

>  <canonical_smi>  (912) 
C=CCC1(CC=C)CCCN1C(=O)C[C@H]1C(=O)NCC[NH+]1Cc1ccc(F)cc1Cl

>  <Set>  (912) 
G2 inactive

>  <Set_type>  (912) 
Train

>  <MW>  (912) 
434.96

>  <HBD>  (912) 
2

>  <HBA>  (912) 
2

>  <NRB>  (912) 
8

>  <NR>  (912) 
3

>  <NAR>  (912) 
1

>  <PSA>  (912) 
53.85

>  <Standard Type>  (912) 
nan

>  <Standard Relation>  (912) 
nan

>  <Standard Units>  (912) 
nan

>  <Standard Value>  (912) 
nan

>  <Assay ChEMBL ID>  (912) 
nan

>  <Assay Description>  (912) 
nan

>  <BAO Label>  (912) 
nan

$$$$

     RDKit          2D

 23 25  0  0  0  0  0  0  0  0999 V2000
    2.4642   13.5117    0.0000 C   0  0  0  0  0  0  0  0  0  0  0  0
    3.0537   12.1324    0.0000 C   0  0  0  0  0  0  0  0  0  0  0  0
    4.5430   11.9533    0.0000 C   0  0  0  0  0  0  0  0  0  0  0  0
    2.1540   10.9322    0.0000 C   0  0  0  0  0  0  0  0  0  0  0  0
    2.7436    9.5529    0.0000 N   0  0  0  0  0  0  0  0  0  0  0  0
    1.9742    8.2653    0.0000 C   0  0  0  0  0  0  0  0  0  0  0  0
    2.9611    7.1357    0.0000 C   0  0  0  0  0  0  0  0  0  0  0  0
    2.6273    5.6733    0.0000 C   0  0  0  0  0  0  0  0  0  0  0  0
    3.7269    4.6530    0.0000 O   0  0  0  0  0  0  0  0  0  0  0  0
    1.1940    5.2311    0.0000 N   0  0  0  0  0  0  0  0  0  0  0  0
    0.8602    3.7687    0.0000 C   0  0  0  0  0  0  0  0  0  0  0  0
   -0.5191    3.1792    0.0000 N   0  0  0  0  0  0  0  0  0  0  0  0
   -0.3846    1.6852    0.0000 C   0  0  0  0  0  0  0  0  0  0  0  0
    1.0777    1.3515    0.0000 C   0  0  0  0  0  0  0  0  0  0  0  0
    1.8471    2.6391    0.0000 S   0  0  0  0  0  0  0  0  0  0  0  0
    1.7286    0.0000    0.0000 C   0  0  0  0  0  0  0  0  0  0  0  0
    1.0777   -1.3515    0.0000 C   0  0  0  0  0  0  0  0  0  0  0  0
   -0.3846   -1.6852    0.0000 C   0  0  0  0  0  0  0  0  0  0  0  0
   -1.5574   -0.7500    0.0000 C   0  0  0  0  0  0  0  0  0  0  0  0
   -1.5574    0.7500    0.0000 C   0  0  0  0  0  0  0  0  0  0  0  0
    4.3404    7.7252    0.0000 C   0  0  0  0  0  0  0  0  0  0  0  0
    4.2059    9.2191    0.0000 C   0  0  0  0  0  0  0  0  0  0  0  0
    5.3356   10.2061    0.0000 O   0  0  0  0  0  0  0  0  0  0  0  0
  1  2  1  0
  2  3  1  0
  2  4  1  0
  4  5  1  0
  5  6  1  0
  6  7  1  0
  7  8  1  6
  8  9  2  0
  8 10  1  0
 10 11  1  0
 11 12  2  0
 12 13  1  0
 13 14  2  0
 14 15  1  0
 14 16  1  0
 16 17  1  0
 17 18  1  0
 18 19  1  0
 19 20  1  0
  7 21  1  0
 21 22  1  0
 22 23  2  0
 22  5  1  0
 15 11  1  0
 20 13  1  0
M  END
>  <Compound_ID>  (913) 
C29781938

>  <Active>  (913) 
0.0

>  <Smiles>  (913) 
CC(C)CN1C[C@@H](C(=O)Nc2nc3c(s2)CCCCC3)CC1=O

>  <canonical_smi>  (913) 
CC(C)CN1C[C@@H](C(=O)Nc2nc3c(s2)CCCCC3)CC1=O

>  <Set>  (913) 
G2 inactive

>  <Set_type>  (913) 
Train

>  <MW>  (913) 
335.47

>  <HBD>  (913) 
1

>  <HBA>  (913) 
3

>  <NRB>  (913) 
4

>  <NR>  (913) 
3

>  <NAR>  (913) 
1

>  <PSA>  (913) 
62.3

>  <Standard Type>  (913) 
nan

>  <Standard Relation>  (913) 
nan

>  <Standard Units>  (913) 
nan

>  <Standard Value>  (913) 
nan

>  <Assay ChEMBL ID>  (913) 
nan

>  <Assay Description>  (913) 
nan

>  <BAO Label>  (913) 
nan

$$$$

     RDKit          2D

 22 24  0  0  0  0  0  0  0  0999 V2000
   -2.4240   -6.1312    0.0000 O   0  0  0  0  0  0  0  0  0  0  0  0
   -1.0537   -5.5211    0.0000 C   0  0  0  0  0  0  0  0  0  0  0  0
    0.2454   -6.2711    0.0000 N   0  0  0  0  0  0  0  0  0  0  0  0
    1.3601   -5.2674    0.0000 C   0  0  0  0  0  0  0  0  0  0  0  0
    2.8273   -5.5793    0.0000 O   0  0  0  0  0  0  0  0  0  0  0  0
    0.7500   -3.8971    0.0000 C   0  0  0  0  0  0  0  0  0  0  0  0
    1.5000   -2.5981    0.0000 C   0  0  0  0  0  0  0  0  0  0  0  0
    0.7500   -1.2990    0.0000 C   0  0  0  0  0  0  0  0  0  0  0  0
    1.5000    0.0000    0.0000 C   0  0  0  0  0  0  0  0  0  0  0  0
    0.7500    1.2990    0.0000 C   0  0  0  0  0  0  0  0  0  0  0  0
   -0.7500    1.2990    0.0000 C   0  0  0  0  0  0  0  0  0  0  0  0
   -1.5000    2.5981    0.0000 O   0  0  0  0  0  0  0  0  0  0  0  0
   -0.7500    3.8971    0.0000 C   0  0  0  0  0  0  0  0  0  0  0  0
    0.7500    3.8971    0.0000 C   0  0  0  0  0  0  0  0  0  0  0  0
    1.5000    5.1962    0.0000 C   0  0  0  0  0  0  0  0  0  0  0  0
    0.7500    6.4952    0.0000 C   0  0  0  0  0  0  0  0  0  0  0  0
    1.5000    7.7942    0.0000 Cl  0  0  0  0  0  0  0  0  0  0  0  0
   -0.7500    6.4952    0.0000 C   0  0  0  0  0  0  0  0  0  0  0  0
   -1.5000    5.1962    0.0000 N   0  0  0  0  0  0  0  0  0  0  0  0
   -1.5000    0.0000    0.0000 C   0  0  0  0  0  0  0  0  0  0  0  0
   -0.7500   -1.2990    0.0000 C   0  0  0  0  0  0  0  0  0  0  0  0
   -0.7418   -4.0539    0.0000 S   0  0  0  0  0  0  0  0  0  0  0  0
  1  2  2  0
  2  3  1  0
  3  4  1  0
  4  5  2  0
  4  6  1  0
  6  7  1  6
  7  8  1  0
  8  9  2  0
  9 10  1  0
 10 11  2  0
 11 12  1  0
 12 13  1  0
 13 14  2  0
 14 15  1  0
 15 16  2  0
 16 17  1  0
 16 18  1  0
 18 19  2  0
 11 20  1  0
 20 21  2  0
  6 22  1  0
 22  2  1  0
 21  8  1  0
 19 13  1  0
M  END
>  <Compound_ID>  (914) 
C45373995

>  <Active>  (914) 
0.0

>  <Smiles>  (914) 
O=C1NC(=O)[C@@H](Cc2ccc(Oc3ccc(Cl)cn3)cc2)S1

>  <canonical_smi>  (914) 
O=C1NC(=O)[C@@H](Cc2ccc(Oc3ccc(Cl)cn3)cc2)S1

>  <Set>  (914) 
G2 inactive

>  <Set_type>  (914) 
Train

>  <MW>  (914) 
334.78

>  <HBD>  (914) 
1

>  <HBA>  (914) 
5

>  <NRB>  (914) 
4

>  <NR>  (914) 
3

>  <NAR>  (914) 
2

>  <PSA>  (914) 
68.29

>  <Standard Type>  (914) 
nan

>  <Standard Relation>  (914) 
nan

>  <Standard Units>  (914) 
nan

>  <Standard Value>  (914) 
nan

>  <Assay ChEMBL ID>  (914) 
nan

>  <Assay Description>  (914) 
nan

>  <BAO Label>  (914) 
nan

$$$$

     RDKit          2D

 25 28  0  0  0  0  0  0  0  0999 V2000
   -4.8405   -2.5981    0.0000 C   0  0  0  0  0  0  0  0  0  0  0  0
   -5.5905   -1.2990    0.0000 C   0  0  0  0  0  0  0  0  0  0  0  0
   -7.0905   -1.2990    0.0000 C   0  0  0  0  0  0  0  0  0  0  0  0
   -7.8405   -0.0000    0.0000 C   0  0  0  0  0  0  0  0  0  0  0  0
   -7.0905    1.2990    0.0000 C   0  0  0  0  0  0  0  0  0  0  0  0
   -5.5905    1.2990    0.0000 C   0  0  0  0  0  0  0  0  0  0  0  0
   -4.8405    2.5981    0.0000 C   0  0  0  0  0  0  0  0  0  0  0  0
   -4.8405   -0.0000    0.0000 C   0  0  0  0  0  0  0  0  0  0  0  0
   -3.3405   -0.0000    0.0000 N   0  0  0  0  0  0  0  0  0  0  0  0
   -2.4589    1.2135    0.0000 C   0  0  0  0  0  0  0  0  0  0  0  0
   -2.9224    2.6401    0.0000 O   0  0  0  0  0  0  0  0  0  0  0  0
   -1.0323    0.7500    0.0000 C   0  0  0  0  0  0  0  0  0  0  0  0
    0.3943    1.2135    0.0000 C   0  0  0  0  0  0  0  0  0  0  0  0
    0.8578    2.6401    0.0000 C   0  0  0  0  0  0  0  0  0  0  0  0
    2.3250    2.9520    0.0000 C   0  0  0  0  0  0  0  0  0  0  0  0
    2.7886    4.3786    0.0000 C   0  0  0  0  0  0  0  0  0  0  0  0
    1.7849    5.4933    0.0000 C   0  0  0  0  0  0  0  0  0  0  0  0
    2.2484    6.9199    0.0000 Br  0  0  0  0  0  0  0  0  0  0  0  0
    0.3177    5.1814    0.0000 C   0  0  0  0  0  0  0  0  0  0  0  0
   -0.1459    3.7548    0.0000 C   0  0  0  0  0  0  0  0  0  0  0  0
    1.2760    0.0000    0.0000 N   0  0  0  0  0  0  0  0  0  0  0  0
    0.3943   -1.2135    0.0000 O   0  0  0  0  0  0  0  0  0  0  0  0
   -1.0323   -0.7500    0.0000 C   0  0  0  0  0  0  0  0  0  0  0  0
   -2.4589   -1.2135    0.0000 C   0  0  0  0  0  0  0  0  0  0  0  0
   -2.9224   -2.6401    0.0000 O   0  0  0  0  0  0  0  0  0  0  0  0
  1  2  1  0
  2  3  2  0
  3  4  1  0
  4  5  2  0
  5  6  1  0
  6  7  1  0
  6  8  2  0
  8  9  1  0
  9 10  1  0
 10 11  2  0
 10 12  1  0
 12 13  2  0
 13 14  1  0
 14 15  2  0
 15 16  1  0
 16 17  2  0
 17 18  1  0
 17 19  1  0
 19 20  2  0
 13 21  1  0
 21 22  1  0
 23 22  1  6
 23 24  1  0
 24 25  2  0
  8  2  1  0
 24  9  1  0
 23 12  1  0
 20 14  1  0
M  END
>  <Compound_ID>  (915) 
C18081235

>  <Active>  (915) 
0.0

>  <Smiles>  (915) 
Cc1cccc(C)c1N1C(=O)C2=C(c3ccc(Br)cc3)NO[C@@H]2C1=O

>  <canonical_smi>  (915) 
Cc1cccc(C)c1N1C(=O)C2=C(c3ccc(Br)cc3)NO[C@@H]2C1=O

>  <Set>  (915) 
G2 inactive

>  <Set_type>  (915) 
Train

>  <MW>  (915) 
399.24

>  <HBD>  (915) 
1

>  <HBA>  (915) 
4

>  <NRB>  (915) 
2

>  <NR>  (915) 
4

>  <NAR>  (915) 
2

>  <PSA>  (915) 
58.64

>  <Standard Type>  (915) 
nan

>  <Standard Relation>  (915) 
nan

>  <Standard Units>  (915) 
nan

>  <Standard Value>  (915) 
nan

>  <Assay ChEMBL ID>  (915) 
nan

>  <Assay Description>  (915) 
nan

>  <BAO Label>  (915) 
nan

$$$$

     RDKit          2D

 19 22  0  0  0  0  0  0  0  0999 V2000
    3.4979    5.4853    0.0000 Br  0  0  0  0  0  0  0  0  0  0  0  0
    2.2844    4.6036    0.0000 C   0  0  0  0  0  0  0  0  0  0  0  0
    0.8578    5.0672    0.0000 C   0  0  0  0  0  0  0  0  0  0  0  0
   -0.0239    3.8536    0.0000 C   0  0  0  0  0  0  0  0  0  0  0  0
    0.8578    2.6401    0.0000 C   0  0  0  0  0  0  0  0  0  0  0  0
    0.3943    1.2135    0.0000 C   0  0  0  0  0  0  0  0  0  0  0  0
    1.2760    0.0000    0.0000 N   0  0  0  0  0  0  0  0  0  0  0  0
    0.3943   -1.2135    0.0000 N   0  0  0  0  0  0  0  0  0  0  0  0
    0.3943   -2.7135    0.0000 C   0  0  0  0  0  0  0  0  0  0  0  0
    1.6078   -3.5952    0.0000 C   0  0  0  0  0  0  0  0  0  0  0  0
    3.0344   -3.1317    0.0000 C   0  0  0  0  0  0  0  0  0  0  0  0
    3.9161   -4.3452    0.0000 C   0  0  0  0  0  0  0  0  0  0  0  0
    3.0344   -5.5587    0.0000 C   0  0  0  0  0  0  0  0  0  0  0  0
    1.6078   -5.0952    0.0000 S   0  0  0  0  0  0  0  0  0  0  0  0
   -1.0323   -3.1771    0.0000 N   0  0  0  0  0  0  0  0  0  0  0  0
   -1.9140   -1.9635    0.0000 N   0  0  0  0  0  0  0  0  0  0  0  0
   -1.0323   -0.7500    0.0000 C   0  0  0  0  0  0  0  0  0  0  0  0
   -1.0323    0.7500    0.0000 S   0  0  0  0  0  0  0  0  0  0  0  0
    2.2844    3.1036    0.0000 S   0  0  0  0  0  0  0  0  0  0  0  0
  1  2  1  0
  2  3  2  0
  3  4  1  0
  4  5  2  0
  5  6  1  0
  6  7  2  0
  7  8  1  0
  8  9  1  0
  9 10  1  0
 10 11  2  0
 11 12  1  0
 12 13  2  0
 13 14  1  0
  9 15  2  0
 15 16  1  0
 16 17  2  0
 17 18  1  0
  5 19  1  0
 19  2  1  0
 18  6  1  0
 17  8  1  0
 14 10  1  0
M  END
>  <Compound_ID>  (916) 
C40286005

>  <Active>  (916) 
0.0

>  <Smiles>  (916) 
Brc1ccc(-c2nn3c(-c4cccs4)nnc3s2)s1

>  <canonical_smi>  (916) 
Brc1ccc(-c2nn3c(-c4cccs4)nnc3s2)s1

>  <Set>  (916) 
G2 inactive

>  <Set_type>  (916) 
Train

>  <MW>  (916) 
369.29

>  <HBD>  (916) 
0

>  <HBA>  (916) 
3

>  <NRB>  (916) 
2

>  <NR>  (916) 
4

>  <NAR>  (916) 
4

>  <PSA>  (916) 
43.08

>  <Standard Type>  (916) 
nan

>  <Standard Relation>  (916) 
nan

>  <Standard Units>  (916) 
nan

>  <Standard Value>  (916) 
nan

>  <Assay ChEMBL ID>  (916) 
nan

>  <Assay Description>  (916) 
nan

>  <BAO Label>  (916) 
nan

$$$$

     RDKit          2D

 28 31  0  0  0  0  0  0  0  0999 V2000
    3.0000    0.0000    0.0000 C   0  0  0  0  0  0  0  0  0  0  0  0
    1.5000    0.0000    0.0000 C   0  0  0  0  0  0  0  0  0  0  0  0
    0.7500   -1.2990    0.0000 C   0  0  0  0  0  0  0  0  0  0  0  0
   -0.7500   -1.2990    0.0000 C   0  0  0  0  0  0  0  0  0  0  0  0
   -1.5000    0.0000    0.0000 C   0  0  0  0  0  0  0  0  0  0  0  0
   -3.0000    0.0000    0.0000 C   0  0  0  0  0  0  0  0  0  0  0  0
   -4.4095   -0.5130    0.0000 C   0  0  0  0  0  0  0  0  0  0  0  0
   -2.7395   -1.4772    0.0000 C   0  0  0  0  0  0  0  0  0  0  0  0
   -3.7500    1.2990    0.0000 C   0  0  0  0  0  0  0  0  0  0  0  0
   -5.2500    1.2990    0.0000 O   0  0  0  0  0  0  0  0  0  0  0  0
   -3.0000    2.5981    0.0000 C   0  0  0  0  0  0  0  0  0  0  0  0
   -1.5000    2.5981    0.0000 C   0  0  0  0  0  0  0  0  0  0  0  0
   -0.7500    1.2990    0.0000 C   0  0  0  0  0  0  0  0  0  0  0  0
    0.0000    2.5981    0.0000 C   0  0  0  0  0  0  0  0  0  0  0  0
    0.7500    1.2990    0.0000 C   0  0  0  0  0  0  0  0  0  0  0  0
    1.5000    2.5981    0.0000 C   0  0  0  0  0  0  0  0  0  0  0  0
    3.0000    2.5981    0.0000 O   0  0  0  0  0  0  0  0  0  0  0  0
    3.7500    3.8971    0.0000 C   0  0  0  0  0  0  0  0  0  0  0  0
    5.2500    3.8971    0.0000 C   0  0  0  0  0  0  0  0  0  0  0  0
    6.0000    5.1962    0.0000 C   0  0  0  0  0  0  0  0  0  0  0  0
    7.5000    5.1962    0.0000 O   0  0  0  0  0  0  0  0  0  0  0  0
    8.2500    6.4952    0.0000 C   0  0  0  0  0  0  0  0  0  0  0  0
    9.7500    6.4952    0.0000 O   0  0  0  0  0  0  0  0  0  0  0  0
    7.5000    7.7942    0.0000 C   0  0  0  0  0  0  0  0  0  0  0  0
    6.0000    7.7942    0.0000 C   0  0  0  0  0  0  0  0  0  0  0  0
    5.2500    6.4952    0.0000 C   0  0  0  0  0  0  0  0  0  0  0  0
    3.7500    6.4952    0.0000 C   0  0  0  0  0  0  0  0  0  0  0  0
    3.0000    5.1962    0.0000 C   0  0  0  0  0  0  0  0  0  0  0  0
  1  2  1  0
  2  3  2  0
  3  4  1  0
  5  4  1  1
  5  6  1  0
  6  7  1  0
  6  8  1  0
  6  9  1  0
  9 10  2  0
  9 11  1  0
 11 12  1  0
 12 13  1  0
 13 14  1  1
 13 15  1  0
 15 16  1  6
 16 17  1  0
 17 18  1  0
 18 19  2  0
 19 20  1  0
 20 21  1  6
 21 22  1  0
 22 23  2  0
 22 24  1  0
 24 25  1  0
 25 26  2  0
 26 27  1  0
 27 28  2  0
 15  2  1  0
 28 18  1  0
 13  5  1  0
 26 20  1  0
M  END
>  <Compound_ID>  (917) 
C05645225

>  <Active>  (917) 
0.0

>  <Smiles>  (917) 
CC1=CC[C@H]2C(C)(C)C(=O)CC[C@]2(C)[C@@H]1COC1=C[C@H]2OC(=O)CC=C2C=C1

>  <canonical_smi>  (917) 
CC1=CC[C@H]2C(C)(C)C(=O)CC[C@]2(C)[C@@H]1COC1=C[C@H]2OC(=O)CC=C2C=C1

>  <Set>  (917) 
G2 inactive

>  <Set_type>  (917) 
Train

>  <MW>  (917) 
382.5

>  <HBD>  (917) 
0

>  <HBA>  (917) 
4

>  <NRB>  (917) 
3

>  <NR>  (917) 
4

>  <NAR>  (917) 
0

>  <PSA>  (917) 
52.6

>  <Standard Type>  (917) 
nan

>  <Standard Relation>  (917) 
nan

>  <Standard Units>  (917) 
nan

>  <Standard Value>  (917) 
nan

>  <Assay ChEMBL ID>  (917) 
nan

>  <Assay Description>  (917) 
nan

>  <BAO Label>  (917) 
nan

$$$$

     RDKit          2D

 26 29  0  0  0  0  0  0  0  0999 V2000
   -2.2987    7.0746    0.0000 C   0  0  0  0  0  0  0  0  0  0  0  0
   -1.8351    5.6480    0.0000 C   0  0  0  0  0  0  0  0  0  0  0  0
   -2.7168    4.4344    0.0000 S   0  0  0  0  0  0  0  0  0  0  0  0
   -1.8351    3.2209    0.0000 C   0  0  0  0  0  0  0  0  0  0  0  0
   -2.1470    1.7537    0.0000 N   0  0  0  0  0  0  0  0  0  0  0  0
   -1.0323    0.7500    0.0000 C   0  0  0  0  0  0  0  0  0  0  0  0
    0.3943    1.2135    0.0000 N   0  0  0  0  0  0  0  0  0  0  0  0
    0.7062    2.6807    0.0000 C   0  0  0  0  0  0  0  0  0  0  0  0
    2.1328    3.1443    0.0000 O   0  0  0  0  0  0  0  0  0  0  0  0
   -0.4086    3.6844    0.0000 C   0  0  0  0  0  0  0  0  0  0  0  0
   -0.4086    5.1844    0.0000 C   0  0  0  0  0  0  0  0  0  0  0  0
    0.8050    6.0661    0.0000 C   0  0  0  0  0  0  0  0  0  0  0  0
    1.2760    0.0000    0.0000 C   0  0  0  0  0  0  0  0  0  0  0  0
    0.3943   -1.2135    0.0000 C   0  0  0  0  0  0  0  0  0  0  0  0
   -1.0323   -0.7500    0.0000 C   0  0  0  0  0  0  0  0  0  0  0  0
   -2.2458   -1.6317    0.0000 C   0  0  0  0  0  0  0  0  0  0  0  0
   -2.0890   -3.1235    0.0000 C   0  0  0  0  0  0  0  0  0  0  0  0
   -3.3025   -4.0051    0.0000 C   0  0  0  0  0  0  0  0  0  0  0  0
   -3.1458   -5.4969    0.0000 C   0  0  0  0  0  0  0  0  0  0  0  0
   -1.7754   -6.1070    0.0000 C   0  0  0  0  0  0  0  0  0  0  0  0
   -1.6186   -7.5988    0.0000 O   0  0  0  0  0  0  0  0  0  0  0  0
   -2.8322   -8.4805    0.0000 C   0  0  0  0  0  0  0  0  0  0  0  0
   -2.6754   -9.9723    0.0000 C   0  0  0  0  0  0  0  0  0  0  0  0
   -4.2025   -7.8704    0.0000 C   0  0  0  0  0  0  0  0  0  0  0  0
   -0.5619   -5.2253    0.0000 C   0  0  0  0  0  0  0  0  0  0  0  0
   -0.7187   -3.7336    0.0000 C   0  0  0  0  0  0  0  0  0  0  0  0
  1  2  1  0
  2  3  1  0
  3  4  1  0
  4  5  1  0
  5  6  2  0
  6  7  1  0
  7  8  1  0
  8  9  2  0
  8 10  1  0
 10 11  1  0
 11 12  1  0
  7 13  1  0
 13 14  1  0
 14 15  1  0
 15 16  2  0
 16 17  1  0
 17 18  2  0
 18 19  1  0
 19 20  2  0
 20 21  1  0
 21 22  1  0
 22 23  1  0
 22 24  1  0
 20 25  1  0
 25 26  2  0
 11  2  2  0
 26 17  1  0
 10  4  2  0
 15  6  1  0
M  END
>  <Compound_ID>  (918) 
C59269888

>  <Active>  (918) 
0.0

>  <Smiles>  (918) 
Cc1sc2nc3n(c(=O)c2c1C)CC/C3=C\c1ccc(OC(C)C)cc1

>  <canonical_smi>  (918) 
Cc1sc2nc3n(c(=O)c2c1C)CC/C3=C\c1ccc(OC(C)C)cc1

>  <Set>  (918) 
G2 inactive

>  <Set_type>  (918) 
Train

>  <MW>  (918) 
366.49

>  <HBD>  (918) 
0

>  <HBA>  (918) 
3

>  <NRB>  (918) 
3

>  <NR>  (918) 
4

>  <NAR>  (918) 
3

>  <PSA>  (918) 
44.12

>  <Standard Type>  (918) 
nan

>  <Standard Relation>  (918) 
nan

>  <Standard Units>  (918) 
nan

>  <Standard Value>  (918) 
nan

>  <Assay ChEMBL ID>  (918) 
nan

>  <Assay Description>  (918) 
nan

>  <BAO Label>  (918) 
nan

$$$$

     RDKit          2D

 23 25  0  0  0  0  0  0  0  0999 V2000
    5.6097   -7.0058    0.0000 C   0  0  0  0  0  0  0  0  0  0  0  0
    4.1831   -6.5422    0.0000 C   0  0  0  0  0  0  0  0  0  0  0  0
    3.8712   -5.0750    0.0000 C   0  0  0  0  0  0  0  0  0  0  0  0
    2.4446   -4.6115    0.0000 C   0  0  0  0  0  0  0  0  0  0  0  0
    2.1328   -3.1443    0.0000 C   0  0  0  0  0  0  0  0  0  0  0  0
    0.7062   -2.6807    0.0000 N   0  0  0  0  0  0  0  0  0  0  0  0
   -0.4086   -3.6844    0.0000 C   0  0  0  0  0  0  0  0  0  0  0  0
   -0.0967   -5.1517    0.0000 O   0  0  0  0  0  0  0  0  0  0  0  0
   -1.8351   -3.2209    0.0000 N   0  0  0  0  0  0  0  0  0  0  0  0
   -2.9499   -4.2246    0.0000 C   0  0  0  0  0  0  0  0  0  0  0  0
   -4.3764   -3.7611    0.0000 C   0  0  0  0  0  0  0  0  0  0  0  0
   -2.1470   -1.7537    0.0000 C   0  0  0  0  0  0  0  0  0  0  0  0
   -3.5736   -1.2902    0.0000 O   0  0  0  0  0  0  0  0  0  0  0  0
   -1.0323   -0.7500    0.0000 C   0  0  0  0  0  0  0  0  0  0  0  0
   -1.0323    0.7500    0.0000 C   0  0  0  0  0  0  0  0  0  0  0  0
    0.3943    1.2135    0.0000 C   0  0  0  0  0  0  0  0  0  0  0  0
    1.2760    0.0000    0.0000 S   0  0  0  0  0  0  0  0  0  0  0  0
    0.3943   -1.2135    0.0000 C   0  0  0  0  0  0  0  0  0  0  0  0
    0.3943    2.7135    0.0000 C   0  0  0  0  0  0  0  0  0  0  0  0
   -1.0323    3.1771    0.0000 C   0  0  0  0  0  0  0  0  0  0  0  0
   -1.4958    4.6036    0.0000 C   0  0  0  0  0  0  0  0  0  0  0  0
   -1.9140    1.9635    0.0000 C   0  0  0  0  0  0  0  0  0  0  0  0
   -3.4140    1.9635    0.0000 C   0  0  0  0  0  0  0  0  0  0  0  0
  1  2  1  0
  2  3  1  0
  3  4  1  0
  4  5  1  0
  5  6  1  0
  6  7  1  0
  7  8  2  0
  7  9  1  0
  9 10  1  0
 10 11  1  0
  9 12  1  0
 12 13  2  0
 12 14  1  0
 14 15  1  0
 15 16  2  0
 16 17  1  0
 17 18  1  0
 16 19  1  0
 19 20  1  0
 20 21  1  0
 20 22  2  0
 22 23  1  0
 18  6  1  0
 18 14  2  0
 22 15  1  0
M  END
>  <Compound_ID>  (919) 
C34724982

>  <Active>  (919) 
0.0

>  <Smiles>  (919) 
CCCCCn1c(=O)n(CC)c(=O)c2c3c(sc21)CC(C)=C3C

>  <canonical_smi>  (919) 
CCCCCn1c(=O)n(CC)c(=O)c2c3c(sc21)CC(C)=C3C

>  <Set>  (919) 
G2 inactive

>  <Set_type>  (919) 
Train

>  <MW>  (919) 
332.47

>  <HBD>  (919) 
0

>  <HBA>  (919) 
2

>  <NRB>  (919) 
5

>  <NR>  (919) 
3

>  <NAR>  (919) 
2

>  <PSA>  (919) 
44.0

>  <Standard Type>  (919) 
nan

>  <Standard Relation>  (919) 
nan

>  <Standard Units>  (919) 
nan

>  <Standard Value>  (919) 
nan

>  <Assay ChEMBL ID>  (919) 
nan

>  <Assay Description>  (919) 
nan

>  <BAO Label>  (919) 
nan

$$$$

     RDKit          2D

 20 21  0  0  0  0  0  0  0  0999 V2000
    3.0000    0.0000    0.0000 C   0  0  0  0  0  0  0  0  0  0  0  0
    1.5000    0.0000    0.0000 C   0  0  0  0  0  0  0  0  0  0  0  0
    0.7500   -1.2990    0.0000 C   0  0  0  0  0  0  0  0  0  0  0  0
   -0.7500   -1.2990    0.0000 C   0  0  0  0  0  0  0  0  0  0  0  0
   -1.5000    0.0000    0.0000 C   0  0  0  0  0  0  0  0  0  0  0  0
   -3.0000    0.0000    0.0000 C   0  0  0  0  0  0  0  0  0  0  0  0
   -0.7500    1.2990    0.0000 C   0  0  0  0  0  0  0  0  0  0  0  0
   -1.5000    2.5981    0.0000 C   0  0  0  0  0  0  0  0  0  0  0  0
   -3.0000    2.5981    0.0000 O   0  0  0  0  0  0  0  0  0  0  0  0
   -0.7500    3.8971    0.0000 C   0  0  0  0  0  0  0  0  0  0  0  0
   -1.5000    5.1962    0.0000 O   0  0  0  0  0  0  0  0  0  0  0  0
   -0.7500    6.4952    0.0000 C   0  0  0  0  0  0  0  0  0  0  0  0
    0.7500    6.4952    0.0000 O   0  0  0  0  0  0  0  0  0  0  0  0
   -1.5000    7.7942    0.0000 C   0  0  0  0  0  0  0  0  0  0  0  0
   -2.9918    7.9510    0.0000 C   0  0  0  0  0  0  0  0  0  0  0  0
   -3.3037    9.4182    0.0000 C   0  0  0  0  0  0  0  0  0  0  0  0
   -2.0046   10.1682    0.0000 C   0  0  0  0  0  0  0  0  0  0  0  0
   -1.8478   11.6600    0.0000 Br  0  0  0  0  0  0  0  0  0  0  0  0
   -0.8899    9.1645    0.0000 O   0  0  0  0  0  0  0  0  0  0  0  0
    0.7500    1.2990    0.0000 C   0  0  0  0  0  0  0  0  0  0  0  0
  1  2  1  0
  2  3  2  0
  3  4  1  0
  4  5  2  0
  5  6  1  0
  5  7  1  0
  7  8  1  0
  8  9  2  0
  8 10  1  0
 10 11  1  0
 11 12  1  0
 12 13  2  0
 12 14  1  0
 14 15  2  0
 15 16  1  0
 16 17  2  0
 17 18  1  0
 17 19  1  0
  7 20  2  0
 20  2  1  0
 19 14  1  0
M  END
>  <Compound_ID>  (920) 
C00453328

>  <Active>  (920) 
0.0

>  <Smiles>  (920) 
Cc1ccc(C)c(C(=O)COC(=O)c2ccc(Br)o2)c1

>  <canonical_smi>  (920) 
Cc1ccc(C)c(C(=O)COC(=O)c2ccc(Br)o2)c1

>  <Set>  (920) 
G2 inactive

>  <Set_type>  (920) 
Train

>  <MW>  (920) 
337.17

>  <HBD>  (920) 
0

>  <HBA>  (920) 
4

>  <NRB>  (920) 
4

>  <NR>  (920) 
2

>  <NAR>  (920) 
2

>  <PSA>  (920) 
56.51

>  <Standard Type>  (920) 
nan

>  <Standard Relation>  (920) 
nan

>  <Standard Units>  (920) 
nan

>  <Standard Value>  (920) 
nan

>  <Assay ChEMBL ID>  (920) 
nan

>  <Assay Description>  (920) 
nan

>  <BAO Label>  (920) 
nan

$$$$

     RDKit          2D

 22 24  0  0  0  0  0  0  0  0999 V2000
    3.0000    0.0000    0.0000 C   0  0  0  0  0  0  0  0  0  0  0  0
    1.5000    0.0000    0.0000 C   0  0  0  0  0  0  0  0  0  0  0  0
    0.7500   -1.2990    0.0000 C   0  0  0  0  0  0  0  0  0  0  0  0
   -0.7500   -1.2990    0.0000 C   0  0  0  0  0  0  0  0  0  0  0  0
   -1.5000    0.0000    0.0000 C   0  0  0  0  0  0  0  0  0  0  0  0
   -3.0000    0.0000    0.0000 C   0  0  0  0  0  0  0  0  0  0  0  0
   -3.7500    1.2990    0.0000 S   0  0  0  0  0  0  0  0  0  0  0  0
   -5.2500    1.2990    0.0000 C   0  0  0  0  0  0  0  0  0  0  0  0
   -6.1317    0.0855    0.0000 N   0  0  0  0  0  0  0  0  0  0  0  0
   -7.5583    0.5490    0.0000 N   0  0  0  0  0  0  0  0  0  0  0  0
   -7.5583    2.0490    0.0000 C   0  0  0  0  0  0  0  0  0  0  0  0
   -8.7718    2.9307    0.0000 C   0  0  0  0  0  0  0  0  0  0  0  0
   -8.6150    4.4225    0.0000 C   0  0  0  0  0  0  0  0  0  0  0  0
   -9.8285    5.3042    0.0000 N   0  0  0  0  0  0  0  0  0  0  0  0
  -11.1988    4.6941    0.0000 C   0  0  0  0  0  0  0  0  0  0  0  0
  -11.3556    3.2023    0.0000 C   0  0  0  0  0  0  0  0  0  0  0  0
  -10.1421    2.3206    0.0000 N   0  0  0  0  0  0  0  0  0  0  0  0
   -6.1317    2.5126    0.0000 N   0  0  0  0  0  0  0  0  0  0  0  0
   -5.6682    3.9391    0.0000 C   0  0  0  0  0  0  0  0  0  0  0  0
   -0.7500    1.2990    0.0000 C   0  0  0  0  0  0  0  0  0  0  0  0
    0.7500    1.2990    0.0000 C   0  0  0  0  0  0  0  0  0  0  0  0
    1.5000    2.5981    0.0000 C   0  0  0  0  0  0  0  0  0  0  0  0
  1  2  1  0
  2  3  2  0
  3  4  1  0
  4  5  2  0
  5  6  1  0
  6  7  1  0
  7  8  1  0
  8  9  2  0
  9 10  1  0
 10 11  2  0
 11 12  1  0
 12 13  2  0
 13 14  1  0
 14 15  2  0
 15 16  1  0
 16 17  2  0
 11 18  1  0
 18 19  1  0
  5 20  1  0
 20 21  2  0
 21 22  1  0
 21  2  1  0
 18  8  1  0
 17 12  1  0
M  END
>  <Compound_ID>  (921) 
C00531097

>  <Active>  (921) 
0.0

>  <Smiles>  (921) 
Cc1ccc(CSc2nnc(-c3cnccn3)n2C)cc1C

>  <canonical_smi>  (921) 
Cc1ccc(CSc2nnc(-c3cnccn3)n2C)cc1C

>  <Set>  (921) 
G2 inactive

>  <Set_type>  (921) 
Train

>  <MW>  (921) 
311.41

>  <HBD>  (921) 
0

>  <HBA>  (921) 
5

>  <NRB>  (921) 
4

>  <NR>  (921) 
3

>  <NAR>  (921) 
3

>  <PSA>  (921) 
56.49

>  <Standard Type>  (921) 
nan

>  <Standard Relation>  (921) 
nan

>  <Standard Units>  (921) 
nan

>  <Standard Value>  (921) 
nan

>  <Assay ChEMBL ID>  (921) 
nan

>  <Assay Description>  (921) 
nan

>  <BAO Label>  (921) 
nan

$$$$

     RDKit          2D

 23 26  0  0  0  0  0  0  0  0999 V2000
   -3.4140    1.9635    0.0000 C   0  0  0  0  0  0  0  0  0  0  0  0
   -1.9140    1.9635    0.0000 C   0  0  0  0  0  0  0  0  0  0  0  0
   -1.0323    3.1771    0.0000 N   0  0  0  0  0  0  0  0  0  0  0  0
    0.3943    2.7135    0.0000 N   0  0  0  0  0  0  0  0  0  0  0  0
    1.6078    3.5952    0.0000 C   0  0  0  0  0  0  0  0  0  0  0  0
    2.9781    2.9851    0.0000 C   0  0  0  0  0  0  0  0  0  0  0  0
    4.1917    3.8668    0.0000 C   0  0  0  0  0  0  0  0  0  0  0  0
    4.0349    5.3586    0.0000 C   0  0  0  0  0  0  0  0  0  0  0  0
    2.6646    5.9687    0.0000 C   0  0  0  0  0  0  0  0  0  0  0  0
    1.4510    5.0870    0.0000 C   0  0  0  0  0  0  0  0  0  0  0  0
    0.3943    1.2135    0.0000 C   0  0  0  0  0  0  0  0  0  0  0  0
    1.2760    0.0000    0.0000 N   0  0  0  0  0  4  0  0  0  0  0  0
    0.3943   -1.2135    0.0000 C   0  0  0  0  0  0  0  0  0  0  0  0
    0.8578   -2.6401    0.0000 C   0  0  0  0  0  0  0  0  0  0  0  0
   -0.1459   -3.7548    0.0000 C   0  0  0  0  0  0  0  0  0  0  0  0
    0.3177   -5.1814    0.0000 C   0  0  0  0  0  0  0  0  0  0  0  0
    1.7849   -5.4933    0.0000 C   0  0  0  0  0  0  0  0  0  0  0  0
    2.2484   -6.9199    0.0000 C   0  0  0  0  0  0  0  0  0  0  0  0
    2.7119   -8.3464    0.0000 N   0  0  0  0  0  0  0  0  0  0  0  0
    2.7886   -4.3786    0.0000 C   0  0  0  0  0  0  0  0  0  0  0  0
    2.3250   -2.9520    0.0000 C   0  0  0  0  0  0  0  0  0  0  0  0
   -1.0323   -0.7500    0.0000 N   0  0  0  0  0  0  0  0  0  0  0  0
   -1.0323    0.7500    0.0000 C   0  0  0  0  0  0  0  0  0  0  0  0
  1  2  1  0
  2  3  1  0
  3  4  1  0
  4  5  1  0
  5  6  1  0
  6  7  1  0
  7  8  1  0
  8  9  1  0
  9 10  1  0
  4 11  1  0
 11 12  2  0
 12 13  1  0
 13 14  1  0
 14 15  2  0
 15 16  1  0
 16 17  2  0
 17 18  1  0
 18 19  3  0
 17 20  1  0
 20 21  2  0
 13 22  2  0
 22 23  1  0
 23  2  2  0
 10  5  1  0
 23 11  1  0
 21 14  1  0
M  CHG  1  12   1
M  END
>  <Compound_ID>  (922) 
C20272038

>  <Active>  (922) 
0.0

>  <Smiles>  (922) 
Cc1[nH]n(C2CCCCC2)c2[nH+]c(-c3ccc(C#N)cc3)nc1-2

>  <canonical_smi>  (922) 
Cc1[nH]n(C2CCCCC2)c2[nH+]c(-c3ccc(C#N)cc3)nc1-2

>  <Set>  (922) 
G2 inactive

>  <Set_type>  (922) 
Train

>  <MW>  (922) 
306.39

>  <HBD>  (922) 
1

>  <HBA>  (922) 
2

>  <NRB>  (922) 
2

>  <NR>  (922) 
4

>  <NAR>  (922) 
3

>  <PSA>  (922) 
71.54

>  <Standard Type>  (922) 
nan

>  <Standard Relation>  (922) 
nan

>  <Standard Units>  (922) 
nan

>  <Standard Value>  (922) 
nan

>  <Assay ChEMBL ID>  (922) 
nan

>  <Assay Description>  (922) 
nan

>  <BAO Label>  (922) 
nan

$$$$

     RDKit          2D

 20 22  0  0  0  0  0  0  0  0999 V2000
    3.0000    0.0000    0.0000 C   0  0  0  0  0  0  0  0  0  0  0  0
    1.5000    0.0000    0.0000 C   0  0  0  0  0  0  0  0  0  0  0  0
    0.7500   -1.2990    0.0000 C   0  0  0  0  0  0  0  0  0  0  0  0
   -0.7500   -1.2990    0.0000 C   0  0  0  0  0  0  0  0  0  0  0  0
   -1.5000    0.0000    0.0000 N   0  0  0  0  0  0  0  0  0  0  0  0
   -2.9672    0.3119    0.0000 C   0  0  0  0  0  0  0  0  0  0  0  0
   -3.1240    1.8037    0.0000 C   0  0  0  0  0  0  0  0  0  0  0  0
   -4.4231    2.5537    0.0000 C   0  0  0  0  0  0  0  0  0  0  0  0
   -4.4231    4.0537    0.0000 N   0  0  0  0  0  0  0  0  0  0  0  0
   -5.7221    4.8037    0.0000 C   0  0  0  0  0  0  0  0  0  0  0  0
   -7.0924    4.1935    0.0000 S   0  0  0  0  0  0  0  0  0  0  0  0
   -8.0961    5.3083    0.0000 N   0  0  0  0  0  0  0  0  0  0  0  0
   -7.3461    6.6073    0.0000 C   0  0  0  0  0  0  0  0  0  0  0  0
   -7.9562    7.9776    0.0000 Cl  0  0  0  0  0  0  0  0  0  0  0  0
   -5.8789    6.2954    0.0000 C   0  0  0  0  0  0  0  0  0  0  0  0
   -4.7642    7.2991    0.0000 C   0  0  0  0  0  0  0  0  0  0  0  0
   -3.6494    8.3028    0.0000 N   0  0  0  0  0  0  0  0  0  0  0  0
   -1.7537    2.4138    0.0000 N   0  0  0  0  0  4  0  0  0  0  0  0
   -0.7500    1.2990    0.0000 C   0  0  0  0  0  0  0  0  0  0  0  0
    0.7500    1.2990    0.0000 C   0  0  0  0  0  0  0  0  0  0  0  0
  1  2  1  0
  2  3  1  0
  3  4  2  0
  4  5  1  0
  5  6  1  0
  6  7  2  0
  7  8  1  0
  8  9  1  0
  9 10  1  0
 10 11  1  0
 11 12  1  0
 12 13  2  0
 13 14  1  0
 13 15  1  0
 15 16  1  0
 16 17  3  0
  7 18  1  0
 18 19  2  0
 19 20  1  0
 20  2  2  0
 19  5  1  0
 15 10  2  0
M  CHG  1  18   1
M  END
>  <Compound_ID>  (923) 
C48706790

>  <Active>  (923) 
0.0

>  <Smiles>  (923) 
Cc1ccn2cc(CNc3snc(Cl)c3C#N)[nH+]c2c1

>  <canonical_smi>  (923) 
Cc1ccn2cc(CNc3snc(Cl)c3C#N)[nH+]c2c1

>  <Set>  (923) 
G2 inactive

>  <Set_type>  (923) 
Train

>  <MW>  (923) 
304.79

>  <HBD>  (923) 
1

>  <HBA>  (923) 
3

>  <NRB>  (923) 
3

>  <NR>  (923) 
3

>  <NAR>  (923) 
3

>  <PSA>  (923) 
67.26

>  <Standard Type>  (923) 
nan

>  <Standard Relation>  (923) 
nan

>  <Standard Units>  (923) 
nan

>  <Standard Value>  (923) 
nan

>  <Assay ChEMBL ID>  (923) 
nan

>  <Assay Description>  (923) 
nan

>  <BAO Label>  (923) 
nan

$$$$

     RDKit          2D

 22 24  0  0  0  0  0  0  0  0999 V2000
    4.2098   -1.2990    0.0000 O   0  0  0  0  0  0  0  0  0  0  0  0
    3.4598   -0.0000    0.0000 N   0  0  0  0  0  0  0  0  0  0  0  0
    1.9598    0.0000    0.0000 C   0  0  0  0  0  0  0  0  0  0  0  0
    1.3858   -1.3858    0.0000 C   0  0  0  0  0  0  0  0  0  0  0  0
   -0.0000   -1.9598    0.0000 C   0  0  0  0  0  0  0  0  0  0  0  0
   -1.3858   -1.3858    0.0000 C   0  0  0  0  0  0  0  0  0  0  0  0
   -1.9598    0.0000    0.0000 C   0  0  0  0  0  0  0  0  0  0  0  0
   -1.3858    1.3858    0.0000 C   0  0  0  0  0  0  0  0  0  0  0  0
    0.0000    1.9598    0.0000 C   0  0  0  0  0  0  0  0  0  0  0  0
    1.3858    1.3858    0.0000 C   0  0  0  0  0  0  0  0  0  0  0  0
    2.4465    2.4465    0.0000 N   0  0  0  0  0  0  0  0  0  0  0  0
    3.8954    2.0583    0.0000 C   0  0  0  0  0  0  0  0  0  0  0  0
    4.9560    3.1189    0.0000 C   0  0  0  0  0  0  0  0  0  0  0  0
    4.5678    4.5678    0.0000 N   0  0  0  0  0  0  0  0  0  0  0  0
    5.6285    5.6285    0.0000 C   0  0  0  0  0  0  0  0  0  0  0  0
    7.0773    5.2402    0.0000 C   0  0  0  0  0  0  0  0  0  0  0  0
    8.1380    6.3009    0.0000 C   0  0  0  0  0  0  0  0  0  0  0  0
    7.7498    7.7498    0.0000 C   0  0  0  0  0  0  0  0  0  0  0  0
    6.3009    8.1380    0.0000 C   0  0  0  0  0  0  0  0  0  0  0  0
    5.2402    7.0773    0.0000 N   0  0  0  0  0  4  0  0  0  0  0  0
    3.1189    4.9560    0.0000 C   0  0  0  0  0  0  0  0  0  0  0  0
    2.0583    3.8954    0.0000 C   0  0  0  0  0  0  0  0  0  0  0  0
  1  2  1  0
  2  3  2  0
  3  4  1  0
  4  5  1  0
  5  6  1  0
  6  7  1  0
  7  8  1  0
  8  9  1  0
  9 10  1  0
 10 11  1  6
 11 12  1  0
 12 13  1  0
 13 14  1  0
 14 15  1  0
 15 16  2  0
 16 17  1  0
 17 18  2  0
 18 19  1  0
 19 20  2  0
 14 21  1  0
 21 22  1  0
 10  3  1  0
 22 11  1  0
 20 15  1  0
M  CHG  1  20   1
M  END
>  <Compound_ID>  (924) 
C05605185

>  <Active>  (924) 
0.0

>  <Smiles>  (924) 
O/N=C1\CCCCCC[C@@H]1N1CCN(c2cccc[nH+]2)CC1

>  <canonical_smi>  (924) 
O/N=C1\CCCCCC[C@@H]1N1CCN(c2cccc[nH+]2)CC1

>  <Set>  (924) 
G2 inactive

>  <Set_type>  (924) 
Train

>  <MW>  (924) 
303.43

>  <HBD>  (924) 
1

>  <HBA>  (924) 
3

>  <NRB>  (924) 
2

>  <NR>  (924) 
3

>  <NAR>  (924) 
1

>  <PSA>  (924) 
53.21

>  <Standard Type>  (924) 
nan

>  <Standard Relation>  (924) 
nan

>  <Standard Units>  (924) 
nan

>  <Standard Value>  (924) 
nan

>  <Assay ChEMBL ID>  (924) 
nan

>  <Assay Description>  (924) 
nan

>  <BAO Label>  (924) 
nan

$$$$

     RDKit          2D

 23 27  0  0  0  0  0  0  0  0999 V2000
    1.2135   -2.7256    0.0000 C   0  0  0  0  0  0  0  0  0  0  0  0
    0.7500   -1.2990    0.0000 C   0  0  0  0  0  0  0  0  0  0  0  0
    1.5000    0.0000    0.0000 C   0  0  0  0  0  0  0  0  0  0  0  0
    0.7500    1.2990    0.0000 C   0  0  0  0  0  0  0  0  0  0  0  0
   -0.7500    1.2990    0.0000 C   0  0  0  0  0  0  0  0  0  0  0  0
   -1.5000    0.0000    0.0000 C   0  0  0  0  0  0  0  0  0  0  0  0
   -0.7500   -1.2990    0.0000 C   0  0  0  0  0  0  0  0  0  0  0  0
   -1.2135   -2.7256    0.0000 N   0  0  0  0  0  4  0  0  0  0  0  0
   -0.0000   -3.6073    0.0000 C   0  0  0  0  0  0  0  0  0  0  0  0
   -0.0000   -5.1073    0.0000 C   0  0  0  0  0  0  0  0  0  0  0  0
    1.2135   -5.9890    0.0000 N   0  0  0  0  0  0  0  0  0  0  0  0
    0.7500   -7.4156    0.0000 N   0  0  0  0  0  0  0  0  0  0  0  0
   -0.7500   -7.4156    0.0000 C   0  0  0  0  0  0  0  0  0  0  0  0
   -1.2135   -8.8421    0.0000 N   0  0  0  0  0  0  0  0  0  0  0  0
   -0.0000   -9.7238    0.0000 N   0  0  0  0  0  0  0  0  0  0  0  0
    1.2135   -8.8421    0.0000 C   0  0  0  0  0  0  0  0  0  0  0  0
    2.6401   -9.3057    0.0000 C   0  0  0  0  0  0  0  0  0  0  0  0
    2.9520  -10.7729    0.0000 C   0  0  0  0  0  0  0  0  0  0  0  0
    4.3786  -11.2364    0.0000 C   0  0  0  0  0  0  0  0  0  0  0  0
    5.4933  -10.2327    0.0000 C   0  0  0  0  0  0  0  0  0  0  0  0
    5.1814   -8.7655    0.0000 C   0  0  0  0  0  0  0  0  0  0  0  0
    3.7548   -8.3020    0.0000 C   0  0  0  0  0  0  0  0  0  0  0  0
   -1.2135   -5.9890    0.0000 S   0  0  0  0  0  0  0  0  0  0  0  0
  1  2  2  0
  2  3  1  0
  3  4  2  0
  4  5  1  0
  5  6  2  0
  6  7  1  0
  7  8  2  0
  8  9  1  0
  9 10  1  0
 10 11  1  1
 11 12  1  0
 12 13  1  0
 13 14  2  0
 14 15  1  0
 15 16  2  0
 16 17  1  0
 17 18  2  0
 18 19  1  0
 19 20  2  0
 20 21  1  0
 21 22  2  0
 13 23  1  0
  9  1  1  1
 23 10  1  0
  7  2  1  0
 16 12  1  0
 22 17  1  0
M  CHG  1   8   1
M  END
>  <Compound_ID>  (925) 
C64600271

>  <Active>  (925) 
0.0

>  <Smiles>  (925) 
C1=c2ccccc2=[NH+][C@@H]1[C@H]1Nn2c(nnc2-c2ccccc2)S1

>  <canonical_smi>  (925) 
C1=c2ccccc2=[NH+][C@@H]1[C@H]1Nn2c(nnc2-c2ccccc2)S1

>  <Set>  (925) 
G2 inactive

>  <Set_type>  (925) 
Train

>  <MW>  (925) 
320.4

>  <HBD>  (925) 
2

>  <HBA>  (925) 
4

>  <NRB>  (925) 
2

>  <NR>  (925) 
5

>  <NAR>  (925) 
3

>  <PSA>  (925) 
56.71

>  <Standard Type>  (925) 
nan

>  <Standard Relation>  (925) 
nan

>  <Standard Units>  (925) 
nan

>  <Standard Value>  (925) 
nan

>  <Assay ChEMBL ID>  (925) 
nan

>  <Assay Description>  (925) 
nan

>  <BAO Label>  (925) 
nan

$$$$

     RDKit          2D

 24 26  0  0  0  0  0  0  0  0999 V2000
    3.0000    0.0000    0.0000 C   0  0  0  0  0  0  0  0  0  0  0  0
    1.5000    0.0000    0.0000 C   0  0  0  0  0  0  0  0  0  0  0  0
    0.7500   -1.2990    0.0000 C   0  0  0  0  0  0  0  0  0  0  0  0
   -0.7500   -1.2990    0.0000 C   0  0  0  0  0  0  0  0  0  0  0  0
   -1.5000    0.0000    0.0000 C   0  0  0  0  0  0  0  0  0  0  0  0
   -0.7500    1.2990    0.0000 C   0  0  0  0  0  0  0  0  0  0  0  0
    0.7500    1.2990    0.0000 C   0  0  0  0  0  0  0  0  0  0  0  0
    1.5000    2.5981    0.0000 N   0  0  0  0  0  0  0  0  0  0  0  0
    0.7500    3.8971    0.0000 C   0  0  0  0  0  0  0  0  0  0  0  0
   -0.7500    3.8971    0.0000 O   0  0  0  0  0  0  0  0  0  0  0  0
    1.5000    5.1962    0.0000 C   0  0  0  0  0  0  0  0  0  0  0  0
    3.0000    5.1962    0.0000 C   0  0  0  0  0  0  0  0  0  0  0  0
    3.7500    6.4952    0.0000 C   0  0  0  0  0  0  0  0  0  0  0  0
    3.0000    7.7942    0.0000 C   0  0  0  0  0  0  0  0  0  0  0  0
    3.7500    9.0933    0.0000 N   0  0  0  0  0  0  0  0  0  0  0  0
    3.1399   10.4636    0.0000 C   0  0  0  0  0  0  0  0  0  0  0  0
    4.2546   11.4673    0.0000 C   0  0  0  0  0  0  0  0  0  0  0  0
    5.5537   10.7173    0.0000 C   0  0  0  0  0  0  0  0  0  0  0  0
    5.2418    9.2501    0.0000 C   0  0  0  0  0  0  0  0  0  0  0  0
    1.5000    7.7942    0.0000 C   0  0  0  0  0  0  0  0  0  0  0  0
    0.7500    9.0933    0.0000 N   0  0  0  0  0  4  0  0  0  0  0  0
    1.5000   10.3923    0.0000 O   0  0  0  0  0  0  0  0  0  0  0  0
   -0.7500    9.0933    0.0000 O   0  0  0  0  0  1  0  0  0  0  0  0
    0.7500    6.4952    0.0000 C   0  0  0  0  0  0  0  0  0  0  0  0
  2  1  1  1
  2  3  1  0
  3  4  1  0
  4  5  1  0
  5  6  1  0
  6  7  1  0
  7  8  1  6
  8  9  1  0
  9 10  2  0
  9 11  1  0
 11 12  2  0
 12 13  1  0
 13 14  2  0
 14 15  1  0
 15 16  1  0
 16 17  1  0
 17 18  1  0
 18 19  1  0
 14 20  1  0
 20 21  1  0
 21 22  2  0
 21 23  1  0
 20 24  2  0
  7  2  1  0
 24 11  1  0
 19 15  1  0
M  CHG  2  21   1  23  -1
M  END
>  <Compound_ID>  (926) 
C15797175

>  <Active>  (926) 
0.0

>  <Smiles>  (926) 
C[C@H]1CCCC[C@@H]1NC(=O)c1ccc(N2CCCC2)c([N+](=O)[O-])c1

>  <canonical_smi>  (926) 
C[C@H]1CCCC[C@@H]1NC(=O)c1ccc(N2CCCC2)c([N+](=O)[O-])c1

>  <Set>  (926) 
G2 inactive

>  <Set_type>  (926) 
Train

>  <MW>  (926) 
331.42

>  <HBD>  (926) 
1

>  <HBA>  (926) 
4

>  <NRB>  (926) 
4

>  <NR>  (926) 
3

>  <NAR>  (926) 
1

>  <PSA>  (926) 
75.48

>  <Standard Type>  (926) 
nan

>  <Standard Relation>  (926) 
nan

>  <Standard Units>  (926) 
nan

>  <Standard Value>  (926) 
nan

>  <Assay ChEMBL ID>  (926) 
nan

>  <Assay Description>  (926) 
nan

>  <BAO Label>  (926) 
nan

$$$$

     RDKit          2D

 29 31  0  0  0  0  0  0  0  0999 V2000
    0.7500   -6.4952    0.0000 H   0  0  0  0  0  0  0  0  0  0  0  0
    1.5000   -5.1962    0.0000 N   0  0  0  0  0  0  0  0  0  0  0  0
    0.7500   -3.8971    0.0000 C   0  0  0  0  0  0  0  0  0  0  0  0
    1.5000   -2.5981    0.0000 C   0  0  0  0  0  0  0  0  0  0  0  0
    3.0000   -2.5981    0.0000 C   0  0  0  0  0  0  0  0  0  0  0  0
    4.5000   -2.5981    0.0000 N   0  0  0  0  0  0  0  0  0  0  0  0
    0.7500   -1.2990    0.0000 C   0  0  0  0  0  0  0  0  0  0  0  0
    1.5000    0.0000    0.0000 C   0  0  0  0  0  0  0  0  0  0  0  0
    0.7500    1.2990    0.0000 C   0  0  0  0  0  0  0  0  0  0  0  0
   -0.7500    1.2990    0.0000 C   0  0  0  0  0  0  0  0  0  0  0  0
   -1.5000    0.0000    0.0000 C   0  0  0  0  0  0  0  0  0  0  0  0
   -0.7500   -1.2990    0.0000 C   0  0  0  0  0  0  0  0  0  0  0  0
   -1.5000   -2.5981    0.0000 C   0  0  0  0  0  0  0  0  0  0  0  0
   -3.0000   -2.5981    0.0000 C   0  0  0  0  0  0  0  0  0  0  0  0
   -3.7500   -1.2990    0.0000 C   0  0  0  0  0  0  0  0  0  0  0  0
   -5.2500   -1.2990    0.0000 C   0  0  0  0  0  0  0  0  0  0  0  0
   -6.0000   -2.5981    0.0000 C   0  0  0  0  0  0  0  0  0  0  0  0
   -7.5000   -2.5981    0.0000 N   0  0  0  0  0  0  0  0  0  0  0  0
   -8.2500   -1.2990    0.0000 C   0  0  0  0  0  0  0  0  0  0  0  0
   -9.7500   -1.2990    0.0000 C   0  0  0  0  0  0  0  0  0  0  0  0
   -8.2500   -3.8971    0.0000 C   0  0  0  0  0  0  0  0  0  0  0  0
   -9.7500   -3.8971    0.0000 C   0  0  0  0  0  0  0  0  0  0  0  0
   -5.2500   -3.8971    0.0000 C   0  0  0  0  0  0  0  0  0  0  0  0
   -3.7500   -3.8971    0.0000 C   0  0  0  0  0  0  0  0  0  0  0  0
   -0.7500   -3.8971    0.0000 C   0  0  0  0  0  0  0  0  0  0  0  0
   -2.1595   -4.4101    0.0000 C   0  0  0  0  0  0  0  0  0  0  0  0
   -3.5691   -4.9232    0.0000 N   0  0  0  0  0  0  0  0  0  0  0  0
   -0.4895   -5.3743    0.0000 C   0  0  0  0  0  0  0  0  0  0  0  0
   -0.2291   -6.8515    0.0000 N   0  0  0  0  0  0  0  0  0  0  0  0
  1  2  1  0
  2  3  2  0
  3  4  1  0
  4  5  1  6
  5  6  3  0
  4  7  1  0
  7  8  2  0
  8  9  1  0
  9 10  1  0
 10 11  1  0
 12 11  1  6
 12 13  1  0
 13 14  1  1
 14 15  2  0
 15 16  1  0
 16 17  2  0
 17 18  1  0
 18 19  1  0
 19 20  1  0
 18 21  1  0
 21 22  1  0
 17 23  1  0
 23 24  2  0
 13 25  1  0
 25 26  1  0
 26 27  3  0
 25 28  1  0
 28 29  3  0
 25  3  1  0
 12  7  1  0
 24 14  1  0
M  END
>  <Compound_ID>  (927) 
C04656821

>  <Active>  (927) 
0.0

>  <Smiles>  (927) 
[H]/N=C1/[C@@H](C#N)C2=CCCC[C@H]2[C@H](c2ccc(N(CC)CC)cc2)C1(C#N)C#N

>  <canonical_smi>  (927) 
[H]/N=C1/[C@@H](C#N)C2=CCCC[C@H]2[C@H](c2ccc(N(CC)CC)cc2)C1(C#N)C#N

>  <Set>  (927) 
G2 inactive

>  <Set_type>  (927) 
Train

>  <MW>  (927) 
371.49

>  <HBD>  (927) 
1

>  <HBA>  (927) 
4

>  <NRB>  (927) 
4

>  <NR>  (927) 
3

>  <NAR>  (927) 
1

>  <PSA>  (927) 
98.46

>  <Standard Type>  (927) 
nan

>  <Standard Relation>  (927) 
nan

>  <Standard Units>  (927) 
nan

>  <Standard Value>  (927) 
nan

>  <Assay ChEMBL ID>  (927) 
nan

>  <Assay Description>  (927) 
nan

>  <BAO Label>  (927) 
nan

$$$$

     RDKit          2D

 24 26  0  0  0  0  0  0  0  0999 V2000
    2.5981   -8.1073    0.0000 C   0  0  0  0  0  0  0  0  0  0  0  0
    1.2990   -7.3573    0.0000 C   0  0  0  0  0  0  0  0  0  0  0  0
   -0.0000   -8.1073    0.0000 O   0  0  0  0  0  0  0  0  0  0  0  0
   -0.0000   -9.6073    0.0000 C   0  0  0  0  0  0  0  0  0  0  0  0
   -1.2990  -10.3573    0.0000 C   0  0  0  0  0  0  0  0  0  0  0  0
   -1.2990  -11.8573    0.0000 C   0  0  0  0  0  0  0  0  0  0  0  0
   -0.0000  -12.6073    0.0000 C   0  0  0  0  0  0  0  0  0  0  0  0
   -0.0000  -14.1073    0.0000 Cl  0  0  0  0  0  0  0  0  0  0  0  0
    1.2990  -11.8573    0.0000 C   0  0  0  0  0  0  0  0  0  0  0  0
    1.2990  -10.3573    0.0000 C   0  0  0  0  0  0  0  0  0  0  0  0
    2.5981   -9.6073    0.0000 Cl  0  0  0  0  0  0  0  0  0  0  0  0
    1.2990   -5.8573    0.0000 C   0  0  0  0  0  0  0  0  0  0  0  0
    2.5981   -5.1073    0.0000 O   0  0  0  0  0  0  0  0  0  0  0  0
   -0.0000   -5.1073    0.0000 N   0  0  0  0  0  0  0  0  0  0  0  0
   -0.0000   -3.6073    0.0000 C   0  0  0  0  0  0  0  0  0  0  0  0
   -1.2135   -2.7256    0.0000 N   0  0  0  0  0  0  0  0  0  0  0  0
   -0.7500   -1.2990    0.0000 C   0  0  0  0  0  0  0  0  0  0  0  0
    0.7500   -1.2990    0.0000 C   0  0  0  0  0  0  0  0  0  0  0  0
    1.2135   -2.7256    0.0000 S   0  0  0  0  0  0  0  0  0  0  0  0
    1.5000    0.0000    0.0000 C   0  0  0  0  0  0  0  0  0  0  0  0
    0.7500    1.2990    0.0000 N   0  0  0  0  0  0  0  0  0  0  0  0
    1.5000    2.5981    0.0000 C   0  0  0  0  0  0  0  0  0  0  0  0
   -0.7500    1.2990    0.0000 C   0  0  0  0  0  0  0  0  0  0  0  0
   -1.5000    0.0000    0.0000 C   0  0  0  0  0  0  0  0  0  0  0  0
  2  1  1  6
  2  3  1  0
  3  4  1  0
  4  5  2  0
  5  6  1  0
  6  7  2  0
  7  8  1  0
  7  9  1  0
  9 10  2  0
 10 11  1  0
  2 12  1  0
 12 13  2  0
 12 14  1  0
 14 15  2  0
 15 16  1  0
 16 17  1  0
 17 18  2  0
 18 19  1  0
 18 20  1  0
 20 21  1  0
 21 22  1  0
 21 23  1  0
 23 24  1  0
 10  4  1  0
 19 15  1  0
 24 17  1  0
M  END
>  <Compound_ID>  (928) 
C24152283

>  <Active>  (928) 
0.0

>  <Smiles>  (928) 
C[C@H](Oc1ccc(Cl)cc1Cl)C(=O)/N=c1/[nH]c2c(s1)CN(C)CC2

>  <canonical_smi>  (928) 
C[C@H](Oc1ccc(Cl)cc1Cl)C(=O)/N=c1/[nH]c2c(s1)CN(C)CC2

>  <Set>  (928) 
G2 inactive

>  <Set_type>  (928) 
Train

>  <MW>  (928) 
386.3

>  <HBD>  (928) 
1

>  <HBA>  (928) 
3

>  <NRB>  (928) 
3

>  <NR>  (928) 
3

>  <NAR>  (928) 
2

>  <PSA>  (928) 
57.69

>  <Standard Type>  (928) 
nan

>  <Standard Relation>  (928) 
nan

>  <Standard Units>  (928) 
nan

>  <Standard Value>  (928) 
nan

>  <Assay ChEMBL ID>  (928) 
nan

>  <Assay Description>  (928) 
nan

>  <BAO Label>  (928) 
nan

$$$$

     RDKit          2D

 25 27  0  0  0  0  0  0  0  0999 V2000
    3.7500   -1.2990    0.0000 C   0  0  0  0  0  0  0  0  0  0  0  0
    3.0000    0.0000    0.0000 C   0  0  0  0  0  0  0  0  0  0  0  0
    1.5000    0.0000    0.0000 C   0  0  0  0  0  0  0  0  0  0  0  0
    0.7500   -1.2990    0.0000 N   0  0  0  0  0  0  0  0  0  0  0  0
   -0.7500   -1.2990    0.0000 C   0  0  0  0  0  0  0  0  0  0  0  0
   -1.5000   -2.5981    0.0000 N   0  0  0  0  0  0  0  0  0  0  0  0
   -0.7500   -3.8971    0.0000 C   0  0  0  0  0  0  0  0  0  0  0  0
    0.7418   -4.0539    0.0000 C   0  0  0  0  0  0  0  0  0  0  0  0
    1.7455   -2.9392    0.0000 C   0  0  0  0  0  0  0  0  0  0  0  0
    1.0537   -5.5211    0.0000 N   0  0  0  0  0  0  0  0  0  0  0  0
   -0.2454   -6.2711    0.0000 N   0  0  0  0  0  0  0  0  0  0  0  0
   -0.4022   -7.7629    0.0000 C   0  0  0  0  0  0  0  0  0  0  0  0
   -1.7725   -8.3730    0.0000 C   0  0  0  0  0  0  0  0  0  0  0  0
    0.8113   -8.6446    0.0000 C   0  0  0  0  0  0  0  0  0  0  0  0
   -1.3601   -5.2674    0.0000 C   0  0  0  0  0  0  0  0  0  0  0  0
   -2.8273   -5.5793    0.0000 C   0  0  0  0  0  0  0  0  0  0  0  0
   -1.5000    0.0000    0.0000 C   0  0  0  0  0  0  0  0  0  0  0  0
   -0.7500    1.2990    0.0000 C   0  0  0  0  0  0  0  0  0  0  0  0
    0.7500    1.2990    0.0000 N   0  0  0  0  0  0  0  0  0  0  0  0
   -1.7537    2.4138    0.0000 C   0  0  0  0  0  0  0  0  0  0  0  0
   -1.4418    3.8810    0.0000 C   0  0  0  0  0  0  0  0  0  0  0  0
   -3.1240    1.8037    0.0000 N   0  0  0  0  0  0  0  0  0  0  0  0
   -2.9672    0.3119    0.0000 N   0  0  0  0  0  0  0  0  0  0  0  0
   -4.0819   -0.6918    0.0000 C   0  0  0  0  0  0  0  0  0  0  0  0
   -5.5085   -0.2283    0.0000 C   0  0  0  0  0  0  0  0  0  0  0  0
  1  2  1  0
  2  3  1  0
  3  4  2  0
  4  5  1  0
  5  6  1  0
  6  7  1  0
  7  8  1  0
  8  9  1  0
  8 10  2  0
 10 11  1  0
 11 12  1  0
 12 13  1  0
 12 14  1  0
 11 15  1  0
 15 16  1  0
  5 17  2  0
 17 18  1  0
 18 19  2  0
 18 20  1  0
 20 21  1  0
 20 22  2  0
 22 23  1  0
 23 24  1  0
 24 25  1  0
 19  3  1  0
 15  7  2  0
 23 17  1  0
M  END
>  <Compound_ID>  (929) 
C57355562

>  <Active>  (929) 
0.0

>  <Smiles>  (929) 
CCc1nc(Nc2c(C)nn(C(C)C)c2C)c2c(n1)c(C)nn2CC

>  <canonical_smi>  (929) 
CCc1nc(Nc2c(C)nn(C(C)C)c2C)c2c(n1)c(C)nn2CC

>  <Set>  (929) 
G2 inactive

>  <Set_type>  (929) 
Train

>  <MW>  (929) 
341.46

>  <HBD>  (929) 
1

>  <HBA>  (929) 
5

>  <NRB>  (929) 
5

>  <NR>  (929) 
3

>  <NAR>  (929) 
3

>  <PSA>  (929) 
73.45

>  <Standard Type>  (929) 
nan

>  <Standard Relation>  (929) 
nan

>  <Standard Units>  (929) 
nan

>  <Standard Value>  (929) 
nan

>  <Assay ChEMBL ID>  (929) 
nan

>  <Assay Description>  (929) 
nan

>  <BAO Label>  (929) 
nan

$$$$

     RDKit          2D

 25 29  0  0  0  0  0  0  0  0999 V2000
    3.0613   -7.3456    0.0000 O   0  0  0  0  0  0  0  0  0  0  0  0
    1.8478   -6.4639    0.0000 C   0  0  0  0  0  0  0  0  0  0  0  0
    0.4775   -7.0740    0.0000 N   0  0  0  0  0  0  0  0  0  0  0  0
    0.3207   -8.5658    0.0000 N   0  0  0  0  0  0  0  0  0  0  0  0
   -1.0496   -9.1759    0.0000 C   0  0  0  0  0  0  0  0  0  0  0  0
   -1.2064  -10.6676    0.0000 C   0  0  0  0  0  0  0  0  0  0  0  0
   -0.0917  -11.6713    0.0000 C   0  0  0  0  0  0  0  0  0  0  0  0
   -0.7018  -13.0417    0.0000 C   0  0  0  0  0  0  0  0  0  0  0  0
   -2.1936  -12.8849    0.0000 C   0  0  0  0  0  0  0  0  0  0  0  0
   -2.5054  -11.4176    0.0000 O   0  0  0  0  0  0  0  0  0  0  0  0
    2.0046   -4.9721    0.0000 C   0  0  0  0  0  0  0  0  0  0  0  0
    0.8899   -3.9684    0.0000 C   0  0  0  0  0  0  0  0  0  0  0  0
    1.5000   -2.5981    0.0000 C   0  0  0  0  0  0  0  0  0  0  0  0
    0.7500   -1.2990    0.0000 C   0  0  0  0  0  0  0  0  0  0  0  0
    1.5000    0.0000    0.0000 C   0  0  0  0  0  0  0  0  0  0  0  0
    0.7500    1.2990    0.0000 C   0  0  0  0  0  0  0  0  0  0  0  0
   -0.7500    1.2990    0.0000 C   0  0  0  0  0  0  0  0  0  0  0  0
   -1.5000    0.0000    0.0000 C   0  0  0  0  0  0  0  0  0  0  0  0
    1.7010   -0.7500    0.0000 C   0  0  0  0  0  0  0  0  0  0  0  0
    3.0000   -0.0000    0.0000 C   0  0  0  0  0  0  0  0  0  0  0  0
    2.2500    1.2990    0.0000 C   0  0  0  0  0  0  0  0  0  0  0  0
    2.2500   -1.2990    0.0000 C   0  0  0  0  0  0  0  0  0  0  0  0
   -0.7500   -1.2990    0.0000 C   0  0  0  0  0  0  0  0  0  0  0  0
    2.9918   -2.7549    0.0000 N   0  0  0  0  0  0  0  0  0  0  0  0
    3.3037   -4.2221    0.0000 N   0  0  0  0  0  0  0  0  0  0  0  0
  1  2  2  0
  2  3  1  0
  3  4  1  0
  4  5  2  0
  5  6  1  0
  6  7  2  0
  7  8  1  0
  8  9  2  0
  9 10  1  0
 11  2  1  6
 11 12  1  0
 12 13  2  0
 13 14  1  0
 14 15  1  0
 15 16  1  0
 16 17  1  0
 17 18  1  0
 18 19  1  0
 19 20  1  0
 20 21  1  0
 20 22  1  0
 18 23  1  0
 13 24  1  0
 24 25  2  0
 10  6  1  0
 25 11  1  0
 22 14  1  0
 23 14  1  0
 21 16  1  0
M  END
>  <Compound_ID>  (930) 
C39770020

>  <Active>  (930) 
0.0

>  <Smiles>  (930) 
O=C(N/N=C/c1ccco1)[C@@H]1C=C(C23CC4CC(CC(C4)C2)C3)N=N1

>  <canonical_smi>  (930) 
O=C(N/N=C/c1ccco1)[C@@H]1C=C(C23CC4CC(CC(C4)C2)C3)N=N1

>  <Set>  (930) 
G2 inactive

>  <Set_type>  (930) 
Train

>  <MW>  (930) 
338.41

>  <HBD>  (930) 
1

>  <HBA>  (930) 
2

>  <NRB>  (930) 
4

>  <NR>  (930) 
6

>  <NAR>  (930) 
1

>  <PSA>  (930) 
79.32

>  <Standard Type>  (930) 
nan

>  <Standard Relation>  (930) 
nan

>  <Standard Units>  (930) 
nan

>  <Standard Value>  (930) 
nan

>  <Assay ChEMBL ID>  (930) 
nan

>  <Assay Description>  (930) 
nan

>  <BAO Label>  (930) 
nan

$$$$

     RDKit          2D

 24 26  0  0  0  0  0  0  0  0999 V2000
   -0.7500   -6.4952    0.0000 O   0  0  0  0  0  0  0  0  0  0  0  0
   -1.5000   -5.1962    0.0000 C   0  0  0  0  0  0  0  0  0  0  0  0
   -3.0000   -5.1962    0.0000 N   0  0  0  0  0  0  0  0  0  0  0  0
   -3.7500   -6.4952    0.0000 N   0  0  0  0  0  0  0  0  0  0  0  0
   -5.2500   -6.4952    0.0000 C   0  0  0  0  0  0  0  0  0  0  0  0
   -6.0000   -5.1962    0.0000 C   0  0  0  0  0  0  0  0  0  0  0  0
   -5.2500   -3.8971    0.0000 C   0  0  0  0  0  0  0  0  0  0  0  0
   -6.0000   -2.5981    0.0000 C   0  0  0  0  0  0  0  0  0  0  0  0
   -7.5000   -2.5981    0.0000 C   0  0  0  0  0  0  0  0  0  0  0  0
   -8.2500   -1.2990    0.0000 N   0  0  0  0  0  4  0  0  0  0  0  0
   -9.7500   -1.2990    0.0000 O   0  0  0  0  0  0  0  0  0  0  0  0
   -7.5000    0.0000    0.0000 O   0  0  0  0  0  1  0  0  0  0  0  0
   -8.2500   -3.8971    0.0000 C   0  0  0  0  0  0  0  0  0  0  0  0
   -7.5000   -5.1962    0.0000 C   0  0  0  0  0  0  0  0  0  0  0  0
   -0.7500   -3.8971    0.0000 C   0  0  0  0  0  0  0  0  0  0  0  0
    0.7500   -3.8971    0.0000 C   0  0  0  0  0  0  0  0  0  0  0  0
    1.5000   -2.5981    0.0000 O   0  0  0  0  0  0  0  0  0  0  0  0
    0.7500   -1.2990    0.0000 C   0  0  0  0  0  0  0  0  0  0  0  0
    1.5000    0.0000    0.0000 C   0  0  0  0  0  0  0  0  0  0  0  0
    0.7500    1.2990    0.0000 C   0  0  0  0  0  0  0  0  0  0  0  0
   -0.7500    1.2990    0.0000 C   0  0  0  0  0  0  0  0  0  0  0  0
   -1.5000    0.0000    0.0000 C   0  0  0  0  0  0  0  0  0  0  0  0
   -0.7500   -1.2990    0.0000 C   0  0  0  0  0  0  0  0  0  0  0  0
   -1.5000   -2.5981    0.0000 O   0  0  0  0  0  0  0  0  0  0  0  0
  1  2  2  0
  2  3  1  0
  3  4  1  0
  4  5  2  0
  5  6  1  0
  6  7  2  0
  7  8  1  0
  8  9  2  0
  9 10  1  0
 10 11  2  0
 10 12  1  0
  9 13  1  0
 13 14  2  0
 15  2  1  1
 15 16  1  0
 16 17  1  0
 17 18  1  0
 18 19  2  0
 19 20  1  0
 20 21  2  0
 21 22  1  0
 22 23  2  0
 23 24  1  0
 14  6  1  0
 24 15  1  0
 23 18  1  0
M  CHG  2  10   1  12  -1
M  END
>  <Compound_ID>  (931) 
C30760488

>  <Active>  (931) 
0.0

>  <Smiles>  (931) 
O=C(N/N=C\c1ccc([N+](=O)[O-])cc1)[C@@H]1COc2ccccc2O1

>  <canonical_smi>  (931) 
O=C(N/N=C\c1ccc([N+](=O)[O-])cc1)[C@@H]1COc2ccccc2O1

>  <Set>  (931) 
G2 inactive

>  <Set_type>  (931) 
Train

>  <MW>  (931) 
327.3

>  <HBD>  (931) 
1

>  <HBA>  (931) 
5

>  <NRB>  (931) 
4

>  <NR>  (931) 
3

>  <NAR>  (931) 
2

>  <PSA>  (931) 
103.06

>  <Standard Type>  (931) 
nan

>  <Standard Relation>  (931) 
nan

>  <Standard Units>  (931) 
nan

>  <Standard Value>  (931) 
nan

>  <Assay ChEMBL ID>  (931) 
nan

>  <Assay Description>  (931) 
nan

>  <BAO Label>  (931) 
nan

$$$$

     RDKit          2D

 18 19  0  0  0  0  0  0  0  0999 V2000
    2.7760    0.0000    0.0000 C   0  0  0  0  0  0  0  0  0  0  0  0
    1.2760    0.0000    0.0000 C   0  0  0  0  0  0  0  0  0  0  0  0
    0.3943    1.2135    0.0000 N   0  0  0  0  0  0  0  0  0  0  0  0
   -1.0323    0.7500    0.0000 N   0  0  0  0  0  0  0  0  0  0  0  0
   -2.2458    1.6317    0.0000 C   0  0  0  0  0  0  0  0  0  0  0  0
   -1.0323   -0.7500    0.0000 C   0  0  0  0  0  0  0  0  0  0  0  0
   -2.2458   -1.6317    0.0000 C   0  0  0  0  0  0  0  0  0  0  0  0
   -2.2458   -3.1317    0.0000 N   0  0  0  0  0  0  0  0  0  0  0  0
   -3.6724   -3.5952    0.0000 N   0  0  0  0  0  0  0  0  0  0  0  0
   -4.5541   -2.3817    0.0000 C   0  0  0  0  0  0  0  0  0  0  0  0
   -6.0541   -2.3817    0.0000 N   0  0  0  0  0  0  0  0  0  0  0  0
   -6.8041   -1.0826    0.0000 C   0  0  0  0  0  0  0  0  0  0  0  0
   -8.3041   -1.0826    0.0000 C   0  0  0  0  0  0  0  0  0  0  0  0
   -9.0541    0.2164    0.0000 C   0  0  0  0  0  0  0  0  0  0  0  0
   -9.0541   -2.3817    0.0000 C   0  0  0  0  0  0  0  0  0  0  0  0
   -3.6724   -1.1682    0.0000 S   0  0  0  0  0  0  0  0  0  0  0  0
    0.3943   -1.2135    0.0000 C   0  0  0  0  0  0  0  0  0  0  0  0
    0.8578   -2.6401    0.0000 Cl  0  0  0  0  0  0  0  0  0  0  0  0
  1  2  1  0
  2  3  2  0
  3  4  1  0
  4  5  1  0
  4  6  1  0
  6  7  1  0
  7  8  2  0
  8  9  1  0
  9 10  2  0
 10 11  1  0
 11 12  1  0
 12 13  1  0
 13 14  1  0
 13 15  1  0
 10 16  1  0
  6 17  2  0
 17 18  1  0
 17  2  1  0
 16  7  1  0
M  END
>  <Compound_ID>  (932) 
C00214081

>  <Active>  (932) 
0.0

>  <Smiles>  (932) 
Cc1nn(C)c(-c2nnc(NCC(C)C)s2)c1Cl

>  <canonical_smi>  (932) 
Cc1nn(C)c(-c2nnc(NCC(C)C)s2)c1Cl

>  <Set>  (932) 
G2 inactive

>  <Set_type>  (932) 
Train

>  <MW>  (932) 
285.8

>  <HBD>  (932) 
1

>  <HBA>  (932) 
4

>  <NRB>  (932) 
4

>  <NR>  (932) 
2

>  <NAR>  (932) 
2

>  <PSA>  (932) 
55.63

>  <Standard Type>  (932) 
nan

>  <Standard Relation>  (932) 
nan

>  <Standard Units>  (932) 
nan

>  <Standard Value>  (932) 
nan

>  <Assay ChEMBL ID>  (932) 
nan

>  <Assay Description>  (932) 
nan

>  <BAO Label>  (932) 
nan

$$$$

     RDKit          2D

 20 22  0  0  0  0  0  0  0  0999 V2000
    1.9509   -5.5501    0.0000 O   0  0  0  0  0  0  0  0  0  0  0  0
    3.4182   -5.2382    0.0000 C   0  0  0  0  0  0  0  0  0  0  0  0
    4.4218   -6.3529    0.0000 O   0  0  0  0  0  1  0  0  0  0  0  0
    3.8817   -3.8116    0.0000 C   0  0  0  0  0  0  0  0  0  0  0  0
    5.3083   -3.3481    0.0000 S   0  0  0  0  0  0  0  0  0  0  0  0
    5.3083   -1.8481    0.0000 C   0  0  0  0  0  0  0  0  0  0  0  0
    3.8817   -1.3846    0.0000 C   0  0  0  0  0  0  0  0  0  0  0  0
    3.0000   -2.5981    0.0000 C   0  0  0  0  0  0  0  0  0  0  0  0
    1.5000   -2.5981    0.0000 O   0  0  0  0  0  0  0  0  0  0  0  0
    0.7500   -1.2990    0.0000 C   0  0  0  0  0  0  0  0  0  0  0  0
    1.5000    0.0000    0.0000 C   0  0  0  0  0  0  0  0  0  0  0  0
    0.7500    1.2990    0.0000 C   0  0  0  0  0  0  0  0  0  0  0  0
   -0.7500    1.2990    0.0000 C   0  0  0  0  0  0  0  0  0  0  0  0
   -1.5000    0.0000    0.0000 C   0  0  0  0  0  0  0  0  0  0  0  0
   -0.7500   -1.2990    0.0000 C   0  0  0  0  0  0  0  0  0  0  0  0
   -1.5000   -2.5981    0.0000 N   0  0  0  0  0  0  0  0  0  0  0  0
   -0.8899   -3.9684    0.0000 C   0  0  0  0  0  0  0  0  0  0  0  0
   -2.0046   -4.9721    0.0000 C   0  0  0  0  0  0  0  0  0  0  0  0
   -3.3037   -4.2221    0.0000 N   0  0  0  0  0  4  0  0  0  0  0  0
   -2.9918   -2.7549    0.0000 C   0  0  0  0  0  0  0  0  0  0  0  0
  1  2  2  0
  2  3  1  0
  2  4  1  0
  4  5  1  0
  5  6  1  0
  6  7  2  0
  7  8  1  0
  8  9  1  0
 10  9  1  6
 10 11  1  0
 11 12  1  0
 12 13  1  0
 13 14  1  0
 14 15  1  0
 15 16  1  6
 16 17  1  0
 17 18  2  0
 18 19  1  0
 19 20  2  0
  8  4  2  0
 15 10  1  0
 20 16  1  0
M  CHG  2   3  -1  19   1
M  END
>  <Compound_ID>  (933) 
C31978231

>  <Active>  (933) 
0.0

>  <Smiles>  (933) 
O=C([O-])c1sccc1O[C@H]1CCCC[C@H]1n1cc[nH+]c1

>  <canonical_smi>  (933) 
O=C([O-])c1sccc1O[C@H]1CCCC[C@H]1n1cc[nH+]c1

>  <Set>  (933) 
G2 inactive

>  <Set_type>  (933) 
Train

>  <MW>  (933) 
292.36

>  <HBD>  (933) 
0

>  <HBA>  (933) 
3

>  <NRB>  (933) 
4

>  <NR>  (933) 
3

>  <NAR>  (933) 
2

>  <PSA>  (933) 
68.43

>  <Standard Type>  (933) 
nan

>  <Standard Relation>  (933) 
nan

>  <Standard Units>  (933) 
nan

>  <Standard Value>  (933) 
nan

>  <Assay ChEMBL ID>  (933) 
nan

>  <Assay Description>  (933) 
nan

>  <BAO Label>  (933) 
nan

$$$$

     RDKit          2D

 20 21  0  0  0  0  0  0  0  0999 V2000
    6.0270   -1.4833    0.0000 C   0  0  0  0  0  0  0  0  0  0  0  0
    4.5851   -1.8968    0.0000 C   0  0  0  0  0  0  0  0  0  0  0  0
    3.4031   -0.9733    0.0000 N   0  0  0  0  0  0  0  0  0  0  0  0
    2.1595   -1.8121    0.0000 C   0  0  0  0  0  0  0  0  0  0  0  0
    0.7500   -1.2990    0.0000 C   0  0  0  0  0  0  0  0  0  0  0  0
    0.4895   -2.7762    0.0000 N   0  0  0  0  0  0  0  0  0  0  0  0
   -0.9200   -3.2893    0.0000 C   0  0  0  0  0  0  0  0  0  0  0  0
   -2.0691   -2.3251    0.0000 O   0  0  0  0  0  0  0  0  0  0  0  0
   -1.1805   -4.7665    0.0000 C   0  0  0  0  0  0  0  0  0  0  0  0
   -2.5900   -5.2795    0.0000 C   0  0  0  0  0  0  0  0  0  0  0  0
   -3.9996   -5.7926    0.0000 F   0  0  0  0  0  0  0  0  0  0  0  0
   -2.0770   -6.6891    0.0000 F   0  0  0  0  0  0  0  0  0  0  0  0
   -3.1031   -3.8700    0.0000 F   0  0  0  0  0  0  0  0  0  0  0  0
    1.5000    0.0000    0.0000 C   0  0  0  0  0  0  0  0  0  0  0  0
    0.7500    1.2990    0.0000 C   0  0  0  0  0  0  0  0  0  0  0  0
   -0.7500    1.2990    0.0000 C   0  0  0  0  0  0  0  0  0  0  0  0
   -1.5000    0.0000    0.0000 C   0  0  0  0  0  0  0  0  0  0  0  0
   -0.7500   -1.2990    0.0000 C   0  0  0  0  0  0  0  0  0  0  0  0
    2.5730   -3.2540    0.0000 N   0  0  0  0  0  0  0  0  0  0  0  0
    4.0721   -3.3063    0.0000 O   0  0  0  0  0  0  0  0  0  0  0  0
  1  2  1  0
  2  3  2  0
  3  4  1  0
  4  5  1  0
  5  6  1  0
  6  7  1  0
  7  8  2  0
  7  9  1  0
  9 10  1  0
 10 11  1  0
 10 12  1  0
 10 13  1  0
  5 14  1  0
 14 15  1  0
 15 16  1  0
 16 17  1  0
 17 18  1  0
  4 19  2  0
 19 20  1  0
 20  2  1  0
 18  5  1  0
M  END
>  <Compound_ID>  (934) 
C44611844

>  <Active>  (934) 
0.0

>  <Smiles>  (934) 
Cc1nc(C2(NC(=O)CC(F)(F)F)CCCCC2)no1

>  <canonical_smi>  (934) 
Cc1nc(C2(NC(=O)CC(F)(F)F)CCCCC2)no1

>  <Set>  (934) 
G2 inactive

>  <Set_type>  (934) 
Train

>  <MW>  (934) 
291.27

>  <HBD>  (934) 
1

>  <HBA>  (934) 
4

>  <NRB>  (934) 
3

>  <NR>  (934) 
2

>  <NAR>  (934) 
1

>  <PSA>  (934) 
68.02

>  <Standard Type>  (934) 
nan

>  <Standard Relation>  (934) 
nan

>  <Standard Units>  (934) 
nan

>  <Standard Value>  (934) 
nan

>  <Assay ChEMBL ID>  (934) 
nan

>  <Assay Description>  (934) 
nan

>  <BAO Label>  (934) 
nan

$$$$

     RDKit          2D

 19 20  0  0  0  0  0  0  0  0999 V2000
    5.2500   -1.2990    0.0000 C   0  0  0  0  0  0  0  0  0  0  0  0
    3.7500   -1.2990    0.0000 C   0  0  0  0  0  0  0  0  0  0  0  0
    3.0000    0.0000    0.0000 C   0  0  0  0  0  0  0  0  0  0  0  0
    1.5000    0.0000    0.0000 C   0  0  0  0  0  0  0  0  0  0  0  0
    0.7500   -1.2990    0.0000 C   0  0  0  0  0  0  0  0  0  0  0  0
   -0.7500   -1.2990    0.0000 C   0  0  0  0  0  0  0  0  0  0  0  0
   -1.5000    0.0000    0.0000 C   0  0  0  0  0  0  0  0  0  0  0  0
   -3.0000    0.0000    0.0000 C   0  0  0  0  0  0  0  0  0  0  0  0
   -4.5000    0.0000    0.0000 N   0  0  0  0  0  0  0  0  0  0  0  0
   -0.7500    1.2990    0.0000 C   0  0  0  0  0  0  0  0  0  0  0  0
   -1.5000    2.5981    0.0000 S   0  0  0  0  0  0  0  0  0  0  0  0
   -0.7500    3.8971    0.0000 C   0  0  0  0  0  0  0  0  0  0  0  0
   -1.3601    5.2674    0.0000 N   0  0  0  0  0  0  0  0  0  0  0  0
   -0.2454    6.2711    0.0000 N   0  0  0  0  0  0  0  0  0  0  0  0
    1.0537    5.5211    0.0000 C   0  0  0  0  0  0  0  0  0  0  0  0
    2.4240    6.1312    0.0000 O   0  0  0  0  0  0  0  0  0  0  0  0
    0.7418    4.0539    0.0000 N   0  0  0  0  0  0  0  0  0  0  0  0
    1.7455    2.9392    0.0000 C   0  0  0  0  0  0  0  0  0  0  0  0
    0.7500    1.2990    0.0000 C   0  0  0  0  0  0  0  0  0  0  0  0
  1  2  1  0
  2  3  1  0
  4  3  1  1
  4  5  1  0
  5  6  1  0
  6  7  1  0
  7  8  1  6
  8  9  3  0
  7 10  1  0
 10 11  1  6
 11 12  1  0
 12 13  2  0
 13 14  1  0
 14 15  1  0
 15 16  2  0
 15 17  1  0
 17 18  1  0
 10 19  1  0
 19  4  1  0
 17 12  1  0
M  END
>  <Compound_ID>  (935) 
C61592786

>  <Active>  (935) 
0.0

>  <Smiles>  (935) 
CCC[C@H]1CC[C@H](C#N)[C@H](Sc2n[nH]c(=O)n2C)C1

>  <canonical_smi>  (935) 
CCC[C@H]1CC[C@H](C#N)[C@H](Sc2n[nH]c(=O)n2C)C1

>  <Set>  (935) 
G2 inactive

>  <Set_type>  (935) 
Train

>  <MW>  (935) 
280.4

>  <HBD>  (935) 
1

>  <HBA>  (935) 
4

>  <NRB>  (935) 
4

>  <NR>  (935) 
2

>  <NAR>  (935) 
1

>  <PSA>  (935) 
74.47

>  <Standard Type>  (935) 
nan

>  <Standard Relation>  (935) 
nan

>  <Standard Units>  (935) 
nan

>  <Standard Value>  (935) 
nan

>  <Assay ChEMBL ID>  (935) 
nan

>  <Assay Description>  (935) 
nan

>  <BAO Label>  (935) 
nan

$$$$

     RDKit          2D

 26 30  0  0  0  0  0  0  0  0999 V2000
   -5.8891   -6.0410    0.0000 O   0  0  0  0  0  0  0  0  0  0  0  0
   -4.4218   -6.3529    0.0000 C   0  0  0  0  0  0  0  0  0  0  0  0
   -3.4182   -5.2382    0.0000 N   0  0  0  0  0  0  0  0  0  0  0  0
   -3.8817   -3.8116    0.0000 C   0  0  0  0  0  0  0  0  0  0  0  0
   -5.3083   -3.3481    0.0000 C   0  0  0  0  0  0  0  0  0  0  0  0
   -5.3083   -1.8481    0.0000 C   0  0  0  0  0  0  0  0  0  0  0  0
   -3.8817   -1.3846    0.0000 N   0  0  0  0  0  0  0  0  0  0  0  0
   -3.0000   -2.5981    0.0000 N   0  0  0  0  0  0  0  0  0  0  0  0
   -1.5000   -2.5981    0.0000 C   0  0  0  0  0  0  0  0  0  0  0  0
   -0.7500   -3.8971    0.0000 C   0  0  0  0  0  0  0  0  0  0  0  0
    0.7500   -3.8971    0.0000 C   0  0  0  0  0  0  0  0  0  0  0  0
    1.5000   -2.5981    0.0000 C   0  0  0  0  0  0  0  0  0  0  0  0
    0.7500   -1.2990    0.0000 C   0  0  0  0  0  0  0  0  0  0  0  0
    1.5000    0.0000    0.0000 C   0  0  0  0  0  0  0  0  0  0  0  0
    0.7500    1.2990    0.0000 C   0  0  0  0  0  0  0  0  0  0  0  0
   -0.7500    1.2990    0.0000 C   0  0  0  0  0  0  0  0  0  0  0  0
   -1.5000    0.0000    0.0000 C   0  0  0  0  0  0  0  0  0  0  0  0
   -0.7500   -1.2990    0.0000 C   0  0  0  0  0  0  0  0  0  0  0  0
   -3.9583   -7.7795    0.0000 C   0  0  0  0  0  0  0  0  0  0  0  0
   -2.5317   -8.2430    0.0000 C   0  0  0  0  0  0  0  0  0  0  0  0
   -2.5317   -9.7430    0.0000 C   0  0  0  0  0  0  0  0  0  0  0  0
   -1.3182  -10.6247    0.0000 C   0  0  0  0  0  0  0  0  0  0  0  0
    0.1736  -10.7815    0.0000 C   0  0  0  0  0  0  0  0  0  0  0  0
   -0.7081  -11.9950    0.0000 C   0  0  0  0  0  0  0  0  0  0  0  0
   -3.9583  -10.2065    0.0000 N   0  0  0  0  0  0  0  0  0  0  0  0
   -4.8400   -8.9930    0.0000 N   0  0  0  0  0  0  0  0  0  0  0  0
  1  2  2  0
  2  3  1  0
  3  4  1  0
  4  5  2  0
  5  6  1  0
  6  7  2  0
  7  8  1  0
  9  8  1  6
  9 10  1  0
 10 11  1  0
 11 12  1  0
 12 13  1  0
 13 14  2  0
 14 15  1  0
 15 16  2  0
 16 17  1  0
 17 18  2  0
  2 19  1  0
 19 20  1  0
 20 21  2  0
 21 22  1  0
 22 23  1  0
 23 24  1  0
 21 25  1  0
 25 26  1  0
  8  4  1  0
 18  9  1  0
 26 19  2  0
 18 13  1  0
 24 22  1  0
M  END
>  <Compound_ID>  (936) 
C66672494

>  <Active>  (936) 
0.0

>  <Smiles>  (936) 
O=C(Nc1ccnn1[C@H]1CCCc2ccccc21)c1cc(C2CC2)[nH]n1

>  <canonical_smi>  (936) 
O=C(Nc1ccnn1[C@H]1CCCc2ccccc21)c1cc(C2CC2)[nH]n1

>  <Set>  (936) 
G2 inactive

>  <Set_type>  (936) 
Train

>  <MW>  (936) 
347.42

>  <HBD>  (936) 
2

>  <HBA>  (936) 
3

>  <NRB>  (936) 
4

>  <NR>  (936) 
5

>  <NAR>  (936) 
3

>  <PSA>  (936) 
75.6

>  <Standard Type>  (936) 
nan

>  <Standard Relation>  (936) 
nan

>  <Standard Units>  (936) 
nan

>  <Standard Value>  (936) 
nan

>  <Assay ChEMBL ID>  (936) 
nan

>  <Assay Description>  (936) 
nan

>  <BAO Label>  (936) 
nan

$$$$

     RDKit          2D

 23 25  0  0  0  0  0  0  0  0999 V2000
    6.3441   -0.2291    0.0000 C   0  0  0  0  0  0  0  0  0  0  0  0
    5.3022   -1.3081    0.0000 C   0  0  0  0  0  0  0  0  0  0  0  0
    4.3380   -0.1591    0.0000 C   0  0  0  0  0  0  0  0  0  0  0  0
    6.4842   -2.2316    0.0000 C   0  0  0  0  0  0  0  0  0  0  0  0
    5.9711   -3.6412    0.0000 N   0  0  0  0  0  0  0  0  0  0  0  0
    6.8099   -4.8847    0.0000 Cl  0  0  0  0  0  0  0  0  0  0  0  0
    4.4721   -3.5888    0.0000 C   0  0  0  0  0  0  0  0  0  0  0  0
    3.5486   -4.7708    0.0000 O   0  0  0  0  0  0  0  0  0  0  0  0
    4.0586   -2.1469    0.0000 N   0  0  0  0  0  0  0  0  0  0  0  0
    2.6491   -1.6339    0.0000 C   0  0  0  0  0  0  0  0  0  0  0  0
    1.5000   -2.5981    0.0000 C   0  0  0  0  0  0  0  0  0  0  0  0
    0.7500   -1.2990    0.0000 C   0  0  0  0  0  0  0  0  0  0  0  0
    1.5000    0.0000    0.0000 C   0  0  0  0  0  0  0  0  0  0  0  0
    0.7500    1.2990    0.0000 C   0  0  0  0  0  0  0  0  0  0  0  0
   -0.7500    1.2990    0.0000 C   0  0  0  0  0  0  0  0  0  0  0  0
   -1.5000    0.0000    0.0000 C   0  0  0  0  0  0  0  0  0  0  0  0
   -0.7500   -1.2990    0.0000 C   0  0  0  0  0  0  0  0  0  0  0  0
    0.0905   -3.1111    0.0000 C   0  0  0  0  0  0  0  0  0  0  0  0
   -0.1700   -4.5883    0.0000 C   0  0  0  0  0  0  0  0  0  0  0  0
    0.9791   -5.5525    0.0000 N   0  0  0  0  0  0  0  0  0  0  0  0
    0.7186   -7.0297    0.0000 F   0  0  0  0  0  0  0  0  0  0  0  0
    2.3886   -5.0395    0.0000 C   0  0  0  0  0  0  0  0  0  0  0  0
    2.6491   -3.5623    0.0000 C   0  0  0  0  0  0  0  0  0  0  0  0
  1  2  1  0
  2  3  1  0
  2  4  1  0
  4  5  1  0
  5  6  1  0
  5  7  1  0
  7  8  2  0
  7  9  1  0
  9 10  1  0
 10 11  1  0
 11 12  1  0
 12 13  1  0
 13 14  1  0
 14 15  1  0
 15 16  1  0
 16 17  1  0
 11 18  1  0
 18 19  1  0
 19 20  1  0
 20 21  1  0
 20 22  1  0
 22 23  1  0
  9  2  1  0
 23 11  1  0
 17 12  1  0
M  END
>  <Compound_ID>  (937) 
C39486968

>  <Active>  (937) 
0.0

>  <Smiles>  (937) 
CC1(C)CN(Cl)C(=O)N1CC1(C2CCCCC2)CCN(F)CC1

>  <canonical_smi>  (937) 
CC1(C)CN(Cl)C(=O)N1CC1(C2CCCCC2)CCN(F)CC1

>  <Set>  (937) 
G2 inactive

>  <Set_type>  (937) 
Train

>  <MW>  (937) 
345.89

>  <HBD>  (937) 
0

>  <HBA>  (937) 
2

>  <NRB>  (937) 
3

>  <NR>  (937) 
3

>  <NAR>  (937) 
0

>  <PSA>  (937) 
26.79

>  <Standard Type>  (937) 
nan

>  <Standard Relation>  (937) 
nan

>  <Standard Units>  (937) 
nan

>  <Standard Value>  (937) 
nan

>  <Assay ChEMBL ID>  (937) 
nan

>  <Assay Description>  (937) 
nan

>  <BAO Label>  (937) 
nan

$$$$

     RDKit          2D

 26 29  0  0  0  0  0  0  0  0999 V2000
  -11.3556   -8.3984    0.0000 C   0  0  0  0  0  0  0  0  0  0  0  0
  -10.1421   -7.5168    0.0000 C   0  0  0  0  0  0  0  0  0  0  0  0
   -8.7718   -8.1269    0.0000 C   0  0  0  0  0  0  0  0  0  0  0  0
   -7.5583   -7.2452    0.0000 N   0  0  0  0  0  0  0  0  0  0  0  0
   -6.1317   -7.7087    0.0000 C   0  0  0  0  0  0  0  0  0  0  0  0
   -5.2500   -6.4952    0.0000 C   0  0  0  0  0  0  0  0  0  0  0  0
   -3.7500   -6.4952    0.0000 C   0  0  0  0  0  0  0  0  0  0  0  0
   -3.0000   -7.7942    0.0000 C   0  0  0  0  0  0  0  0  0  0  0  0
   -1.5000   -7.7942    0.0000 C   0  0  0  0  0  0  0  0  0  0  0  0
   -0.7500   -6.4952    0.0000 N   0  0  0  0  0  0  0  0  0  0  0  0
   -1.5000   -5.1962    0.0000 C   0  0  0  0  0  0  0  0  0  0  0  0
   -0.7500   -3.8971    0.0000 N   0  0  0  0  0  0  0  0  0  0  0  0
    0.7500   -3.8971    0.0000 C   0  0  0  0  0  0  0  0  0  0  0  0
    1.5000   -2.5981    0.0000 C   0  0  0  0  0  0  0  0  0  0  0  0
    0.7500   -1.2990    0.0000 C   0  0  0  0  0  0  0  0  0  0  0  0
    2.2500   -1.2990    0.0000 O   0  0  0  0  0  0  0  0  0  0  0  0
    1.5000    0.0000    0.0000 C   0  0  0  0  0  0  0  0  0  0  0  0
    0.7500    1.2990    0.0000 C   0  0  0  0  0  0  0  0  0  0  0  0
   -0.7500    1.2990    0.0000 C   0  0  0  0  0  0  0  0  0  0  0  0
   -1.5000    0.0000    0.0000 C   0  0  0  0  0  0  0  0  0  0  0  0
   -0.7500   -1.2990    0.0000 C   0  0  0  0  0  0  0  0  0  0  0  0
   -1.5000   -2.5981    0.0000 C   0  0  0  0  0  0  0  0  0  0  0  0
   -3.0000   -5.1962    0.0000 N   0  0  0  0  0  0  0  0  0  0  0  0
   -6.1317   -5.2817    0.0000 C   0  0  0  0  0  0  0  0  0  0  0  0
   -5.6682   -3.8551    0.0000 C   0  0  0  0  0  0  0  0  0  0  0  0
   -7.5583   -5.7452    0.0000 N   0  0  0  0  0  0  0  0  0  0  0  0
  1  2  1  0
  2  3  1  0
  3  4  1  0
  4  5  1  0
  5  6  2  0
  6  7  1  0
  7  8  2  0
  8  9  1  0
  9 10  2  0
 10 11  1  0
 11 12  1  0
 12 13  1  0
 13 14  1  0
 14 15  1  0
 15 16  1  6
 15 17  1  0
 17 18  1  0
 18 19  1  0
 19 20  1  0
 21 20  1  1
 21 22  1  0
 11 23  2  0
  6 24  1  0
 24 25  1  0
 24 26  2  0
 26  4  1  0
 23  7  1  0
 22 12  1  0
 21 15  1  0
M  END
>  <Compound_ID>  (938) 
C43641810

>  <Active>  (938) 
0.0

>  <Smiles>  (938) 
CCCn1cc(-c2ccnc(N3CC[C@]4(O)CCCC[C@@H]4C3)n2)c(C)n1

>  <canonical_smi>  (938) 
CCCn1cc(-c2ccnc(N3CC[C@]4(O)CCCC[C@@H]4C3)n2)c(C)n1

>  <Set>  (938) 
G2 inactive

>  <Set_type>  (938) 
Train

>  <MW>  (938) 
355.49

>  <HBD>  (938) 
1

>  <HBA>  (938) 
5

>  <NRB>  (938) 
4

>  <NR>  (938) 
4

>  <NAR>  (938) 
2

>  <PSA>  (938) 
67.07

>  <Standard Type>  (938) 
nan

>  <Standard Relation>  (938) 
nan

>  <Standard Units>  (938) 
nan

>  <Standard Value>  (938) 
nan

>  <Assay ChEMBL ID>  (938) 
nan

>  <Assay Description>  (938) 
nan

>  <BAO Label>  (938) 
nan

$$$$

     RDKit          2D

 26 29  0  0  0  0  0  0  0  0999 V2000
   -8.1759   -5.7300    0.0000 O   0  0  0  0  0  0  0  0  0  0  0  0
   -6.8056   -5.1199    0.0000 S   0  0  0  0  0  0  0  0  0  0  0  0
   -7.5556   -3.8209    0.0000 O   0  0  0  0  0  0  0  0  0  0  0  0
   -6.3421   -6.5465    0.0000 C   0  0  0  0  0  0  0  0  0  0  0  0
   -4.8421   -6.5465    0.0000 C   0  0  0  0  0  0  0  0  0  0  0  0
   -4.3786   -5.1199    0.0000 C   0  0  0  0  0  0  0  0  0  0  0  0
   -2.9520   -4.6564    0.0000 N   0  0  0  0  0  0  0  0  0  0  0  0
   -2.6401   -3.1891    0.0000 N   0  0  0  0  0  0  0  0  0  0  0  0
   -1.2135   -2.7256    0.0000 C   0  0  0  0  0  0  0  0  0  0  0  0
   -0.0000   -3.6073    0.0000 C   0  0  0  0  0  0  0  0  0  0  0  0
    0.0000   -5.1073    0.0000 O   0  0  0  0  0  0  0  0  0  0  0  0
    1.2135   -2.7256    0.0000 N   0  0  0  0  0  0  0  0  0  0  0  0
    2.6401   -3.1891    0.0000 C   0  0  0  0  0  0  0  0  0  0  0  0
    2.9520   -4.6564    0.0000 C   0  0  0  0  0  0  0  0  0  0  0  0
    1.8373   -5.6601    0.0000 C   0  0  0  0  0  0  0  0  0  0  0  0
    2.1491   -7.1273    0.0000 C   0  0  0  0  0  0  0  0  0  0  0  0
    3.5757   -7.5908    0.0000 C   0  0  0  0  0  0  0  0  0  0  0  0
    4.6904   -6.5871    0.0000 C   0  0  0  0  0  0  0  0  0  0  0  0
    4.3786   -5.1199    0.0000 C   0  0  0  0  0  0  0  0  0  0  0  0
    0.7500   -1.2990    0.0000 C   0  0  0  0  0  0  0  0  0  0  0  0
    1.5000    0.0000    0.0000 C   0  0  0  0  0  0  0  0  0  0  0  0
    0.7500    1.2990    0.0000 C   0  0  0  0  0  0  0  0  0  0  0  0
   -0.7500    1.2990    0.0000 C   0  0  0  0  0  0  0  0  0  0  0  0
   -1.5000    0.0000    0.0000 C   0  0  0  0  0  0  0  0  0  0  0  0
   -0.7500   -1.2990    0.0000 C   0  0  0  0  0  0  0  0  0  0  0  0
   -5.5921   -4.2382    0.0000 C   0  0  0  0  0  0  0  0  0  0  0  0
  1  2  2  0
  2  3  2  0
  2  4  1  0
  4  5  1  0
  5  6  1  0
  6  7  1  1
  7  8  2  0
  8  9  1  0
  9 10  2  0
 10 11  1  0
 10 12  1  0
 12 13  1  0
 13 14  1  0
 14 15  2  0
 15 16  1  0
 16 17  2  0
 17 18  1  0
 18 19  2  0
 12 20  1  0
 20 21  2  0
 21 22  1  0
 22 23  2  0
 23 24  1  0
 24 25  2  0
  6 26  1  0
 26  2  1  0
 25  9  1  0
 19 14  1  0
 25 20  1  0
M  END
>  <Compound_ID>  (939) 
C06452674

>  <Active>  (939) 
0.0

>  <Smiles>  (939) 
O=S1(=O)CC[C@H](/N=N/c2c(O)n(Cc3ccccc3)c3ccccc23)C1

>  <canonical_smi>  (939) 
O=S1(=O)CC[C@H](/N=N/c2c(O)n(Cc3ccccc3)c3ccccc23)C1

>  <Set>  (939) 
G2 inactive

>  <Set_type>  (939) 
Train

>  <MW>  (939) 
369.45

>  <HBD>  (939) 
1

>  <HBA>  (939) 
3

>  <NRB>  (939) 
4

>  <NR>  (939) 
4

>  <NAR>  (939) 
3

>  <PSA>  (939) 
84.02

>  <Standard Type>  (939) 
nan

>  <Standard Relation>  (939) 
nan

>  <Standard Units>  (939) 
nan

>  <Standard Value>  (939) 
nan

>  <Assay ChEMBL ID>  (939) 
nan

>  <Assay Description>  (939) 
nan

>  <BAO Label>  (939) 
nan

$$$$

     RDKit          2D

 33 36  0  0  0  0  0  0  0  0999 V2000
    9.7500    1.2990    0.0000 C   0  0  0  0  0  0  0  0  0  0  0  0
    8.2500    1.2990    0.0000 C   0  0  0  0  0  0  0  0  0  0  0  0
    7.5000   -0.0000    0.0000 C   0  0  0  0  0  0  0  0  0  0  0  0
    6.0000   -0.0000    0.0000 C   0  0  0  0  0  0  0  0  0  0  0  0
    5.2500   -1.2990    0.0000 N   0  0  0  0  0  0  0  0  0  0  0  0
    3.7500   -1.2990    0.0000 C   0  0  0  0  0  0  0  0  0  0  0  0
    3.0000   -2.5981    0.0000 C   0  0  0  0  0  0  0  0  0  0  0  0
    3.7500   -3.8971    0.0000 O   0  0  0  0  0  0  0  0  0  0  0  0
    1.5000   -2.5981    0.0000 N   0  0  0  0  0  0  0  0  0  0  0  0
    0.7500   -1.2990    0.0000 C   0  0  0  0  0  0  0  0  0  0  0  0
    1.5000    0.0000    0.0000 C   0  0  0  0  0  0  0  0  0  0  0  0
    0.7500    1.2990    0.0000 C   0  0  0  0  0  0  0  0  0  0  0  0
   -0.7500    1.2990    0.0000 C   0  0  0  0  0  0  0  0  0  0  0  0
   -1.5000    0.0000    0.0000 C   0  0  0  0  0  0  0  0  0  0  0  0
   -0.7500   -1.2990    0.0000 C   0  0  0  0  0  0  0  0  0  0  0  0
   -1.5000   -2.5981    0.0000 N   0  0  0  0  0  0  0  0  0  0  0  0
   -2.9672   -2.9099    0.0000 C   0  0  0  0  0  0  0  0  0  0  0  0
   -3.1240   -4.4017    0.0000 C   0  0  0  0  0  0  0  0  0  0  0  0
   -1.7537   -5.0118    0.0000 C   0  0  0  0  0  0  0  0  0  0  0  0
   -0.7500   -3.8971    0.0000 C   0  0  0  0  0  0  0  0  0  0  0  0
    0.7500   -3.8971    0.0000 C   0  0  0  0  0  0  0  0  0  0  0  0
    1.5000   -5.1962    0.0000 C   0  0  0  0  0  0  0  0  0  0  0  0
    2.9918   -5.3529    0.0000 C   0  0  0  0  0  0  0  0  0  0  0  0
    3.3037   -6.8202    0.0000 C   0  0  0  0  0  0  0  0  0  0  0  0
    2.0046   -7.5702    0.0000 C   0  0  0  0  0  0  0  0  0  0  0  0
    0.8899   -6.5665    0.0000 O   0  0  0  0  0  0  0  0  0  0  0  0
    6.0000   -2.5981    0.0000 C   0  0  0  0  0  0  0  0  0  0  0  0
    5.2500   -3.8971    0.0000 O   0  0  0  0  0  0  0  0  0  0  0  0
    7.5000   -2.5981    0.0000 N   0  0  0  0  0  0  0  0  0  0  0  0
    8.2500   -3.8971    0.0000 C   0  0  0  0  0  0  0  0  0  0  0  0
    9.5490   -3.1471    0.0000 C   0  0  0  0  0  0  0  0  0  0  0  0
    6.9510   -4.6471    0.0000 C   0  0  0  0  0  0  0  0  0  0  0  0
    9.0000   -5.1962    0.0000 C   0  0  0  0  0  0  0  0  0  0  0  0
  1  2  1  0
  2  3  1  0
  3  4  1  0
  4  5  1  0
  5  6  1  0
  6  7  1  0
  7  8  2  0
  7  9  1  0
  9 10  1  0
 10 11  2  0
 11 12  1  0
 12 13  2  0
 13 14  1  0
 14 15  2  0
 15 16  1  0
 16 17  1  0
 17 18  2  0
 18 19  1  0
 19 20  2  0
 20 21  1  0
 21 22  1  6
 22 23  2  0
 23 24  1  0
 24 25  2  0
 25 26  1  0
  5 27  1  0
 27 28  2  0
 27 29  1  0
 29 30  1  0
 30 31  1  0
 30 32  1  0
 30 33  1  0
 21  9  1  0
 26 22  1  0
 15 10  1  0
 20 16  1  0
M  END
>  <Compound_ID>  (940) 
C35231503

>  <Active>  (940) 
0.0

>  <Smiles>  (940) 
CCCCN(CC(=O)N1c2ccccc2-n2cccc2[C@H]1c1ccco1)C(=O)NC(C)(C)C

>  <canonical_smi>  (940) 
CCCCN(CC(=O)N1c2ccccc2-n2cccc2[C@H]1c1ccco1)C(=O)NC(C)(C)C

>  <Set>  (940) 
G2 inactive

>  <Set_type>  (940) 
Train

>  <MW>  (940) 
448.57

>  <HBD>  (940) 
1

>  <HBA>  (940) 
3

>  <NRB>  (940) 
6

>  <NR>  (940) 
4

>  <NAR>  (940) 
3

>  <PSA>  (940) 
70.72

>  <Standard Type>  (940) 
nan

>  <Standard Relation>  (940) 
nan

>  <Standard Units>  (940) 
nan

>  <Standard Value>  (940) 
nan

>  <Assay ChEMBL ID>  (940) 
nan

>  <Assay Description>  (940) 
nan

>  <BAO Label>  (940) 
nan

$$$$

     RDKit          2D

 32 34  0  0  0  0  0  0  0  0999 V2000
  -11.8983   -3.7634    0.0000 C   0  0  0  0  0  0  0  0  0  0  0  0
  -11.2882   -5.1337    0.0000 O   0  0  0  0  0  0  0  0  0  0  0  0
   -9.7965   -5.2905    0.0000 C   0  0  0  0  0  0  0  0  0  0  0  0
   -8.9148   -4.0770    0.0000 C   0  0  0  0  0  0  0  0  0  0  0  0
   -7.4230   -4.2338    0.0000 C   0  0  0  0  0  0  0  0  0  0  0  0
   -6.5413   -3.0203    0.0000 C   0  0  0  0  0  0  0  0  0  0  0  0
   -7.1514   -1.6499    0.0000 O   0  0  0  0  0  0  0  0  0  0  0  0
   -5.0495   -3.1771    0.0000 O   0  0  0  0  0  0  0  0  0  0  0  0
   -4.1679   -1.9635    0.0000 C   0  0  0  0  0  0  0  0  0  0  0  0
   -5.0495   -0.7500    0.0000 C   0  0  0  0  0  0  0  0  0  0  0  0
   -5.0495    0.7500    0.0000 C   0  0  0  0  0  0  0  0  0  0  0  0
   -6.4761    1.2135    0.0000 C   0  0  0  0  0  0  0  0  0  0  0  0
   -4.1679    1.9635    0.0000 C   0  0  0  0  0  0  0  0  0  0  0  0
   -2.7413    2.4271    0.0000 C   0  0  0  0  0  0  0  0  0  0  0  0
   -1.3147    1.9635    0.0000 C   0  0  0  0  0  0  0  0  0  0  0  0
   -0.4330    0.7500    0.0000 C   0  0  0  0  0  0  0  0  0  0  0  0
    0.5707    1.8647    0.0000 C   0  0  0  0  0  0  0  0  0  0  0  0
    0.8660    0.0000    0.0000 O   0  0  0  0  0  0  0  0  0  0  0  0
   -0.4330   -0.7500    0.0000 C   0  0  0  0  0  0  0  0  0  0  0  0
   -1.3147   -1.9635    0.0000 C   0  0  0  0  0  0  0  0  0  0  0  0
   -0.4330   -3.1771    0.0000 O   0  0  0  0  0  0  0  0  0  0  0  0
   -2.7413   -2.4271    0.0000 C   0  0  0  0  0  0  0  0  0  0  0  0
   -2.7413   -3.9271    0.0000 C   0  0  0  0  0  0  0  0  0  0  0  0
   -4.0403   -4.6771    0.0000 C   0  0  0  0  0  0  0  0  0  0  0  0
   -1.4422   -4.6771    0.0000 C   0  0  0  0  0  0  0  0  0  0  0  0
   -6.8129   -5.6041    0.0000 C   0  0  0  0  0  0  0  0  0  0  0  0
   -7.6946   -6.8176    0.0000 C   0  0  0  0  0  0  0  0  0  0  0  0
   -7.0845   -8.1879    0.0000 O   0  0  0  0  0  0  0  0  0  0  0  0
   -7.9661   -9.4015    0.0000 C   0  0  0  0  0  0  0  0  0  0  0  0
   -9.1864   -6.6608    0.0000 C   0  0  0  0  0  0  0  0  0  0  0  0
  -10.0680   -7.8744    0.0000 O   0  0  0  0  0  0  0  0  0  0  0  0
  -11.5598   -7.7176    0.0000 C   0  0  0  0  0  0  0  0  0  0  0  0
  1  2  1  0
  2  3  1  0
  3  4  2  0
  4  5  1  0
  5  6  1  0
  6  7  2  0
  6  8  1  0
  9  8  1  6
  9 10  1  0
 10 11  1  0
 11 12  1  0
 11 13  2  0
 13 14  1  0
 14 15  1  0
 15 16  1  0
 16 17  1  6
 16 18  1  0
 19 18  1  6
 19 20  1  0
 20 21  1  6
 20 22  1  0
 22 23  1  6
 23 24  1  0
 23 25  1  0
  5 26  2  0
 26 27  1  0
 27 28  1  0
 28 29  1  0
 27 30  2  0
 30 31  1  0
 31 32  1  0
 30  3  1  0
 22  9  1  0
 19 16  1  0
M  END
>  <Compound_ID>  (941) 
C38191162

>  <Active>  (941) 
0.0

>  <Smiles>  (941) 
COc1cc(C(=O)O[C@@H]2C/C(C)=C\CC[C@@]3(C)O[C@@H]3[C@H](O)[C@@H]2C(C)C)cc(OC)c1OC

>  <canonical_smi>  (941) 
COc1cc(C(=O)O[C@@H]2C/C(C)=C\CC[C@@]3(C)O[C@@H]3[C@H](O)[C@@H]2C(C)C)cc(OC)c1OC

>  <Set>  (941) 
G2 inactive

>  <Set_type>  (941) 
Train

>  <MW>  (941) 
448.56

>  <HBD>  (941) 
1

>  <HBA>  (941) 
7

>  <NRB>  (941) 
6

>  <NR>  (941) 
3

>  <NAR>  (941) 
1

>  <PSA>  (941) 
86.75

>  <Standard Type>  (941) 
nan

>  <Standard Relation>  (941) 
nan

>  <Standard Units>  (941) 
nan

>  <Standard Value>  (941) 
nan

>  <Assay ChEMBL ID>  (941) 
nan

>  <Assay Description>  (941) 
nan

>  <BAO Label>  (941) 
nan

$$$$

     RDKit          2D

 24 27  0  0  0  0  0  0  0  0999 V2000
    2.9356    0.6734    0.0000 O   0  0  0  0  0  0  0  0  0  0  0  0
    3.2475    2.1406    0.0000 N   0  0  0  0  0  4  0  0  0  0  0  0
    4.6741    2.6041    0.0000 O   0  0  0  0  0  1  0  0  0  0  0  0
    2.1328    3.1443    0.0000 C   0  0  0  0  0  0  0  0  0  0  0  0
    2.4446    4.6115    0.0000 C   0  0  0  0  0  0  0  0  0  0  0  0
    3.8712    5.0750    0.0000 Cl  0  0  0  0  0  0  0  0  0  0  0  0
    1.3299    5.6152    0.0000 C   0  0  0  0  0  0  0  0  0  0  0  0
   -0.0967    5.1517    0.0000 C   0  0  0  0  0  0  0  0  0  0  0  0
   -1.2114    6.1554    0.0000 O   0  0  0  0  0  0  0  0  0  0  0  0
   -0.4086    3.6844    0.0000 C   0  0  0  0  0  0  0  0  0  0  0  0
    0.7062    2.6807    0.0000 C   0  0  0  0  0  0  0  0  0  0  0  0
    0.3943    1.2135    0.0000 C   0  0  0  0  0  0  0  0  0  0  0  0
    1.2760    0.0000    0.0000 C   0  0  0  0  0  0  0  0  0  0  0  0
    0.3943   -1.2135    0.0000 C   0  0  0  0  0  0  0  0  0  0  0  0
   -1.0323   -0.7500    0.0000 C   0  0  0  0  0  0  0  0  0  0  0  0
   -1.0323    0.7500    0.0000 C   0  0  0  0  0  0  0  0  0  0  0  0
   -2.1470    1.7537    0.0000 C   0  0  0  0  0  0  0  0  0  0  0  0
   -3.5736    1.2902    0.0000 C   0  0  0  0  0  0  0  0  0  0  0  0
   -4.6883    2.2939    0.0000 C   0  0  0  0  0  0  0  0  0  0  0  0
   -6.1149    1.8303    0.0000 C   0  0  0  0  0  0  0  0  0  0  0  0
   -6.4268    0.3631    0.0000 C   0  0  0  0  0  0  0  0  0  0  0  0
   -5.3120   -0.6406    0.0000 C   0  0  0  0  0  0  0  0  0  0  0  0
   -3.8855   -0.1771    0.0000 C   0  0  0  0  0  0  0  0  0  0  0  0
   -1.8351    3.2209    0.0000 N   0  0  0  0  0  0  0  0  0  0  0  0
  1  2  2  0
  2  3  1  0
  2  4  1  0
  4  5  2  0
  5  6  1  0
  5  7  1  0
  7  8  2  0
  8  9  1  0
  8 10  1  0
 10 11  2  0
 11 12  1  0
 12 13  1  6
 13 14  2  0
 14 15  1  0
 16 15  1  6
 16 17  1  0
 17 18  1  0
 18 19  1  6
 19 20  1  0
 20 21  2  0
 21 22  1  0
 22 23  1  0
 17 24  1  1
 11  4  1  0
 16 12  1  0
 23 18  1  0
 24 10  1  0
M  CHG  2   2   1   3  -1
M  END
>  <Compound_ID>  (942) 
C15218452

>  <Active>  (942) 
0.0

>  <Smiles>  (942) 
O=[N+]([O-])c1c(Cl)cc(O)c2c1[C@@H]1C=CC[C@@H]1[C@@H]([C@H]1CC=CCC1)N2

>  <canonical_smi>  (942) 
O=[N+]([O-])c1c(Cl)cc(O)c2c1[C@@H]1C=CC[C@@H]1[C@@H]([C@H]1CC=CCC1)N2

>  <Set>  (942) 
G2 inactive

>  <Set_type>  (942) 
Train

>  <MW>  (942) 
346.81

>  <HBD>  (942) 
2

>  <HBA>  (942) 
4

>  <NRB>  (942) 
2

>  <NR>  (942) 
4

>  <NAR>  (942) 
1

>  <PSA>  (942) 
75.4

>  <Standard Type>  (942) 
nan

>  <Standard Relation>  (942) 
nan

>  <Standard Units>  (942) 
nan

>  <Standard Value>  (942) 
nan

>  <Assay ChEMBL ID>  (942) 
nan

>  <Assay Description>  (942) 
nan

>  <BAO Label>  (942) 
nan

$$$$

     RDKit          2D

 28 31  0  0  0  0  0  0  0  0999 V2000
   -0.8113   -8.6446    0.0000 C   0  0  0  0  0  0  0  0  0  0  0  0
    0.4022   -7.7629    0.0000 C   0  0  0  0  0  0  0  0  0  0  0  0
    0.2454   -6.2711    0.0000 C   0  0  0  0  0  0  0  0  0  0  0  0
    1.3601   -5.2674    0.0000 S   0  0  0  0  0  0  0  0  0  0  0  0
    0.7500   -3.8971    0.0000 C   0  0  0  0  0  0  0  0  0  0  0  0
    1.5000   -2.5981    0.0000 N   0  0  0  0  0  0  0  0  0  0  0  0
    0.7500   -1.2990    0.0000 C   0  0  0  0  0  0  0  0  0  0  0  0
    1.5000    0.0000    0.0000 C   0  0  0  0  0  0  0  0  0  0  0  0
    0.7500    1.2990    0.0000 C   0  0  0  0  0  0  0  0  0  0  0  0
   -0.7500    1.2990    0.0000 C   0  0  0  0  0  0  0  0  0  0  0  0
   -1.5000    0.0000    0.0000 C   0  0  0  0  0  0  0  0  0  0  0  0
   -0.7500   -1.2990    0.0000 N   0  0  0  0  0  0  0  0  0  0  0  0
   -0.7418   -4.0539    0.0000 N   0  0  0  0  0  0  0  0  0  0  0  0
   -1.7455   -2.9392    0.0000 C   0  0  0  0  0  0  0  0  0  0  0  0
   -1.2820   -1.5126    0.0000 C   0  0  0  0  0  0  0  0  0  0  0  0
   -2.2856   -0.3979    0.0000 C   0  0  0  0  0  0  0  0  0  0  0  0
   -3.7529   -0.7098    0.0000 C   0  0  0  0  0  0  0  0  0  0  0  0
   -4.2164   -2.1363    0.0000 C   0  0  0  0  0  0  0  0  0  0  0  0
   -3.2127   -3.2511    0.0000 C   0  0  0  0  0  0  0  0  0  0  0  0
   -1.0537   -5.5211    0.0000 C   0  0  0  0  0  0  0  0  0  0  0  0
   -2.4240   -6.1312    0.0000 O   0  0  0  0  0  0  0  0  0  0  0  0
    1.7725   -8.3730    0.0000 C   0  0  0  0  0  0  0  0  0  0  0  0
    1.9293   -9.8648    0.0000 C   0  0  0  0  0  0  0  0  0  0  0  0
    3.2996  -10.4749    0.0000 C   0  0  0  0  0  0  0  0  0  0  0  0
    4.5131   -9.5932    0.0000 C   0  0  0  0  0  0  0  0  0  0  0  0
    4.3563   -8.1014    0.0000 C   0  0  0  0  0  0  0  0  0  0  0  0
    5.5699   -7.2198    0.0000 N   0  0  0  0  0  0  0  0  0  0  0  0
    2.9860   -7.4913    0.0000 C   0  0  0  0  0  0  0  0  0  0  0  0
  1  2  1  0
  2  3  2  0
  3  4  1  0
  4  5  1  0
  5  6  2  0
  6  7  1  0
  7  8  2  0
  8  9  1  0
  9 10  2  0
 10 11  1  0
 11 12  2  0
  5 13  1  0
 13 14  1  0
 14 15  1  0
 15 16  1  0
 16 17  1  0
 17 18  1  0
 18 19  1  0
 13 20  1  0
 20 21  2  0
  2 22  1  0
 22 23  2  0
 23 24  1  0
 24 25  2  0
 25 26  1  0
 26 27  1  0
 26 28  2  0
 20  3  1  0
 28 22  1  0
 12  7  1  0
 19 14  1  0
M  END
>  <Compound_ID>  (943) 
C39863096

>  <Active>  (943) 
0.0

>  <Smiles>  (943) 
C/C(=C1/S/C(=N/c2ccccn2)N(C2CCCCC2)C1=O)c1cccc(N)c1

>  <canonical_smi>  (943) 
C/C(=C1/S/C(=N/c2ccccn2)N(C2CCCCC2)C1=O)c1cccc(N)c1

>  <Set>  (943) 
G2 inactive

>  <Set_type>  (943) 
Train

>  <MW>  (943) 
392.53

>  <HBD>  (943) 
1

>  <HBA>  (943) 
4

>  <NRB>  (943) 
3

>  <NR>  (943) 
4

>  <NAR>  (943) 
2

>  <PSA>  (943) 
71.58

>  <Standard Type>  (943) 
nan

>  <Standard Relation>  (943) 
nan

>  <Standard Units>  (943) 
nan

>  <Standard Value>  (943) 
nan

>  <Assay ChEMBL ID>  (943) 
nan

>  <Assay Description>  (943) 
nan

>  <BAO Label>  (943) 
nan

$$$$

     RDKit          2D

 14 14  0  0  0  0  0  0  0  0999 V2000
    3.0000    0.0000    0.0000 C   0  0  0  0  0  0  0  0  0  0  0  0
    1.5000    0.0000    0.0000 C   0  0  0  0  0  0  0  0  0  0  0  0
    0.7500   -1.2990    0.0000 C   0  0  0  0  0  0  0  0  0  0  0  0
   -0.7500   -1.2990    0.0000 C   0  0  0  0  0  0  0  0  0  0  0  0
   -1.5000    0.0000    0.0000 O   0  0  0  0  0  0  0  0  0  0  0  0
   -0.7500    1.2990    0.0000 P   0  0  0  0  0  5  0  0  0  0  0  0
   -2.1595    1.8121    0.0000 O   0  0  0  0  0  0  0  0  0  0  0  0
   -0.4895    2.7762    0.0000 O   0  0  0  0  0  0  0  0  0  0  0  0
    0.9200    3.2893    0.0000 C   0  0  0  0  0  0  0  0  0  0  0  0
    1.1805    4.7665    0.0000 C   0  0  0  0  0  0  0  0  0  0  0  0
    1.4410    6.2437    0.0000 Cl  0  0  0  0  0  0  0  0  0  0  0  0
    2.6577    4.5060    0.0000 Cl  0  0  0  0  0  0  0  0  0  0  0  0
   -0.2967    5.0270    0.0000 Cl  0  0  0  0  0  0  0  0  0  0  0  0
    0.7500    1.2990    0.0000 O   0  0  0  0  0  0  0  0  0  0  0  0
  2  1  1  6
  2  3  1  0
  3  4  1  0
  4  5  1  0
  5  6  1  0
  6  7  2  0
  6  8  1  1
  8  9  1  0
  9 10  1  0
 10 11  1  0
 10 12  1  0
 10 13  1  0
  6 14  1  0
 14  2  1  0
M  END
>  <Compound_ID>  (944) 
C01868626

>  <Active>  (944) 
0.0

>  <Smiles>  (944) 
C[C@@H]1CCO[P@@](=O)(OCC(Cl)(Cl)Cl)O1

>  <canonical_smi>  (944) 
C[C@@H]1CCO[P@@](=O)(OCC(Cl)(Cl)Cl)O1

>  <Set>  (944) 
G2 inactive

>  <Set_type>  (944) 
Train

>  <MW>  (944) 
283.48

>  <HBD>  (944) 
0

>  <HBA>  (944) 
4

>  <NRB>  (944) 
2

>  <NR>  (944) 
1

>  <NAR>  (944) 
0

>  <PSA>  (944) 
44.76

>  <Standard Type>  (944) 
nan

>  <Standard Relation>  (944) 
nan

>  <Standard Units>  (944) 
nan

>  <Standard Value>  (944) 
nan

>  <Assay ChEMBL ID>  (944) 
nan

>  <Assay Description>  (944) 
nan

>  <BAO Label>  (944) 
nan

$$$$

     RDKit          2D

 16 17  0  0  0  0  0  0  0  0999 V2000
   -3.6375   -5.2496    0.0000 C   0  0  0  0  0  0  0  0  0  0  0  0
   -2.4240   -6.1312    0.0000 S   0  0  0  0  0  0  0  0  0  0  0  0
   -1.0537   -5.5211    0.0000 C   0  0  0  0  0  0  0  0  0  0  0  0
    0.2454   -6.2711    0.0000 N   0  0  0  0  0  0  0  0  0  0  0  0
    1.3601   -5.2674    0.0000 N   0  0  0  0  0  0  0  0  0  0  0  0
    0.7500   -3.8971    0.0000 C   0  0  0  0  0  0  0  0  0  0  0  0
    1.5000   -2.5981    0.0000 S   0  0  0  0  0  0  0  0  0  0  0  0
    0.7500   -1.2990    0.0000 C   0  0  0  0  0  0  0  0  0  0  0  0
    1.5000    0.0000    0.0000 C   0  0  0  0  0  0  0  0  0  0  0  0
    0.7500    1.2990    0.0000 C   0  0  0  0  0  0  0  0  0  0  0  0
    1.5000    2.5981    0.0000 C   0  0  0  0  0  0  0  0  0  0  0  0
   -0.7500    1.2990    0.0000 N   0  0  0  0  0  0  0  0  0  0  0  0
   -1.5000    0.0000    0.0000 C   0  0  0  0  0  0  0  0  0  0  0  0
   -3.0000    0.0000    0.0000 C   0  0  0  0  0  0  0  0  0  0  0  0
   -0.7500   -1.2990    0.0000 N   0  0  0  0  0  0  0  0  0  0  0  0
   -0.7418   -4.0539    0.0000 S   0  0  0  0  0  0  0  0  0  0  0  0
  1  2  1  0
  2  3  1  0
  3  4  2  0
  4  5  1  0
  5  6  2  0
  6  7  1  0
  7  8  1  0
  8  9  2  0
  9 10  1  0
 10 11  1  0
 10 12  2  0
 12 13  1  0
 13 14  1  0
 13 15  2  0
  6 16  1  0
 16  3  1  0
 15  8  1  0
M  END
>  <Compound_ID>  (945) 
C36397534

>  <Active>  (945) 
0.0

>  <Smiles>  (945) 
CSc1nnc(Sc2cc(C)nc(C)n2)s1

>  <canonical_smi>  (945) 
CSc1nnc(Sc2cc(C)nc(C)n2)s1

>  <Set>  (945) 
G2 inactive

>  <Set_type>  (945) 
Train

>  <MW>  (945) 
270.41

>  <HBD>  (945) 
0

>  <HBA>  (945) 
6

>  <NRB>  (945) 
3

>  <NR>  (945) 
2

>  <NAR>  (945) 
2

>  <PSA>  (945) 
51.56

>  <Standard Type>  (945) 
nan

>  <Standard Relation>  (945) 
nan

>  <Standard Units>  (945) 
nan

>  <Standard Value>  (945) 
nan

>  <Assay ChEMBL ID>  (945) 
nan

>  <Assay Description>  (945) 
nan

>  <BAO Label>  (945) 
nan

$$$$

     RDKit          2D

 16 17  0  0  0  0  0  0  0  0999 V2000
    2.6491   -3.5623    0.0000 O   0  0  0  0  0  0  0  0  0  0  0  0
    1.5000   -2.5981    0.0000 S   0  0  0  0  0  0  0  0  0  0  0  0
    2.6491   -1.6339    0.0000 O   0  0  0  0  0  0  0  0  0  0  0  0
    0.7500   -1.2990    0.0000 C   0  0  0  0  0  0  0  0  0  0  0  0
    1.5000    0.0000    0.0000 C   0  0  0  0  0  0  0  0  0  0  0  0
    0.7500    1.2990    0.0000 C   0  0  0  0  0  0  0  0  0  0  0  0
   -0.7500    1.2990    0.0000 C   0  0  0  0  0  0  0  0  0  0  0  0
   -1.5000    0.0000    0.0000 C   0  0  0  0  0  0  0  0  0  0  0  0
   -0.7500   -1.2990    0.0000 C   0  0  0  0  0  0  0  0  0  0  0  0
   -1.5000   -2.5981    0.0000 N   0  0  0  0  0  0  0  0  0  0  0  0
   -0.7500   -3.8971    0.0000 C   0  0  0  0  0  0  0  0  0  0  0  0
    0.7500   -3.8971    0.0000 N   0  0  0  0  0  0  0  0  0  0  0  0
    1.5000   -5.1962    0.0000 C   0  0  0  0  0  0  0  0  0  0  0  0
    0.7500   -6.4952    0.0000 C   0  0  0  0  0  0  0  0  0  0  0  0
    1.5000   -7.7942    0.0000 C   0  0  0  0  0  0  0  0  0  0  0  0
    0.7500   -9.0933    0.0000 Cl  0  0  0  0  0  0  0  0  0  0  0  0
  1  2  2  0
  2  3  2  0
  2  4  1  0
  4  5  2  0
  5  6  1  0
  6  7  2  0
  7  8  1  0
  8  9  2  0
  9 10  1  0
 10 11  2  0
 11 12  1  0
 12 13  1  0
 13 14  1  0
 14 15  1  0
 15 16  1  0
 12  2  1  0
  9  4  1  0
M  END
>  <Compound_ID>  (946) 
C41066810

>  <Active>  (946) 
0.0

>  <Smiles>  (946) 
O=S1(=O)c2ccccc2N=CN1CCCCl

>  <canonical_smi>  (946) 
O=S1(=O)c2ccccc2N=CN1CCCCl

>  <Set>  (946) 
G2 inactive

>  <Set_type>  (946) 
Train

>  <MW>  (946) 
258.73

>  <HBD>  (946) 
0

>  <HBA>  (946) 
2

>  <NRB>  (946) 
3

>  <NR>  (946) 
2

>  <NAR>  (946) 
1

>  <PSA>  (946) 
49.74

>  <Standard Type>  (946) 
nan

>  <Standard Relation>  (946) 
nan

>  <Standard Units>  (946) 
nan

>  <Standard Value>  (946) 
nan

>  <Assay ChEMBL ID>  (946) 
nan

>  <Assay Description>  (946) 
nan

>  <BAO Label>  (946) 
nan

$$$$

     RDKit          2D

 24 26  0  0  0  0  0  0  0  0999 V2000
    6.7500   -1.2990    0.0000 N   0  0  0  0  0  0  0  0  0  0  0  0
    5.2500   -1.2990    0.0000 S   0  0  0  0  0  0  0  0  0  0  0  0
    5.2500    0.2010    0.0000 O   0  0  0  0  0  0  0  0  0  0  0  0
    5.2500   -2.7990    0.0000 O   0  0  0  0  0  0  0  0  0  0  0  0
    3.7500   -1.2990    0.0000 N   0  0  0  0  0  0  0  0  0  0  0  0
    3.0000    0.0000    0.0000 C   0  0  0  0  0  0  0  0  0  0  0  0
    1.5000    0.0000    0.0000 C   0  0  0  0  0  0  0  0  0  0  0  0
    0.7500   -1.2990    0.0000 C   0  0  0  0  0  0  0  0  0  0  0  0
   -0.7500   -1.2990    0.0000 C   0  0  0  0  0  0  0  0  0  0  0  0
   -1.5000    0.0000    0.0000 C   0  0  0  0  0  0  0  0  0  0  0  0
   -0.7500    1.2990    0.0000 C   0  0  0  0  0  0  0  0  0  0  0  0
    0.7500    1.2990    0.0000 C   0  0  0  0  0  0  0  0  0  0  0  0
    1.5000    2.5981    0.0000 C   0  0  0  0  0  0  0  0  0  0  0  0
    3.0000    2.5981    0.0000 C   0  0  0  0  0  0  0  0  0  0  0  0
    3.7500    3.8971    0.0000 C   0  0  0  0  0  0  0  0  0  0  0  0
    3.0000    5.1962    0.0000 C   0  0  0  0  0  0  0  0  0  0  0  0
    3.7500    6.4952    0.0000 C   0  0  0  0  0  0  0  0  0  0  0  0
    5.2500    6.4952    0.0000 N   0  0  0  0  0  0  0  0  0  0  0  0
    6.1317    7.7087    0.0000 C   0  0  0  0  0  0  0  0  0  0  0  0
    7.5583    7.2452    0.0000 C   0  0  0  0  0  0  0  0  0  0  0  0
    7.5583    5.7452    0.0000 C   0  0  0  0  0  0  0  0  0  0  0  0
    6.1317    5.2817    0.0000 N   0  0  0  0  0  0  0  0  0  0  0  0
    1.5000    5.1962    0.0000 C   0  0  0  0  0  0  0  0  0  0  0  0
    0.7500    3.8971    0.0000 C   0  0  0  0  0  0  0  0  0  0  0  0
  1  2  1  0
  2  3  2  0
  2  4  2  0
  2  5  1  0
  5  6  1  0
  6  7  1  0
  7  8  2  0
  8  9  1  0
  9 10  2  0
 10 11  1  0
 11 12  2  0
 12 13  1  0
 13 14  2  0
 14 15  1  0
 15 16  2  0
 16 17  1  0
 17 18  1  0
 18 19  1  0
 19 20  2  0
 20 21  1  0
 21 22  2  0
 16 23  1  0
 23 24  2  0
 12  7  1  0
 24 13  1  0
 22 18  1  0
M  END
>  <Compound_ID>  (947) 
C66104308

>  <Active>  (947) 
0.0

>  <Smiles>  (947) 
NS(=O)(=O)NCc1ccccc1-c1ccc(Cn2cccn2)cc1

>  <canonical_smi>  (947) 
NS(=O)(=O)NCc1ccccc1-c1ccc(Cn2cccn2)cc1

>  <Set>  (947) 
G2 inactive

>  <Set_type>  (947) 
Train

>  <MW>  (947) 
342.42

>  <HBD>  (947) 
2

>  <HBA>  (947) 
3

>  <NRB>  (947) 
6

>  <NR>  (947) 
3

>  <NAR>  (947) 
3

>  <PSA>  (947) 
90.01

>  <Standard Type>  (947) 
nan

>  <Standard Relation>  (947) 
nan

>  <Standard Units>  (947) 
nan

>  <Standard Value>  (947) 
nan

>  <Assay ChEMBL ID>  (947) 
nan

>  <Assay Description>  (947) 
nan

>  <BAO Label>  (947) 
nan

$$$$

     RDKit          2D

 28 30  0  0  0  0  0  0  0  0999 V2000
    0.7500   -9.0933    0.0000 C   0  0  0  0  0  0  0  0  0  0  0  0
    1.5000   -7.7942    0.0000 C   0  0  0  0  0  0  0  0  0  0  0  0
    0.7500   -6.4952    0.0000 C   0  0  0  0  0  0  0  0  0  0  0  0
    1.5000   -5.1962    0.0000 N   0  0  0  0  0  4  0  0  0  0  0  0
    0.7500   -3.8971    0.0000 C   0  0  0  0  0  0  0  0  0  0  0  0
    1.5000   -2.5981    0.0000 C   0  0  0  0  0  0  0  0  0  0  0  0
    0.7500   -1.2990    0.0000 C   0  0  0  0  0  0  0  0  0  0  0  0
    1.5000    0.0000    0.0000 C   0  0  0  0  0  0  0  0  0  0  0  0
    0.7500    1.2990    0.0000 C   0  0  0  0  0  0  0  0  0  0  0  0
   -0.7500    1.2990    0.0000 C   0  0  0  0  0  0  0  0  0  0  0  0
   -1.5000    0.0000    0.0000 C   0  0  0  0  0  0  0  0  0  0  0  0
   -0.7500   -1.2990    0.0000 C   0  0  0  0  0  0  0  0  0  0  0  0
   -0.7500   -6.4952    0.0000 C   0  0  0  0  0  0  0  0  0  0  0  0
   -1.5000   -5.1962    0.0000 C   0  0  0  0  0  0  0  0  0  0  0  0
   -0.7500   -3.8971    0.0000 O   0  0  0  0  0  1  0  0  0  0  0  0
   -3.0000   -5.1962    0.0000 N   0  0  0  0  0  0  0  0  0  0  0  0
   -3.7500   -6.4952    0.0000 C   0  0  0  0  0  0  0  0  0  0  0  0
   -5.2500   -6.4952    0.0000 O   0  0  0  0  0  0  0  0  0  0  0  0
   -3.0000   -7.7942    0.0000 N   0  0  0  0  0  0  0  0  0  0  0  0
   -3.7500   -9.0933    0.0000 C   0  0  0  0  0  0  0  0  0  0  0  0
   -5.2500   -9.0933    0.0000 C   0  0  0  0  0  0  0  0  0  0  0  0
   -6.0000  -10.3923    0.0000 C   0  0  0  0  0  0  0  0  0  0  0  0
   -5.2500  -11.6913    0.0000 C   0  0  0  0  0  0  0  0  0  0  0  0
   -3.7500  -11.6913    0.0000 C   0  0  0  0  0  0  0  0  0  0  0  0
   -3.0000  -10.3923    0.0000 C   0  0  0  0  0  0  0  0  0  0  0  0
   -1.5000  -10.3923    0.0000 C   0  0  0  0  0  0  0  0  0  0  0  0
   -1.5000   -7.7942    0.0000 C   0  0  0  0  0  0  0  0  0  0  0  0
   -0.7500   -9.0933    0.0000 O   0  0  0  0  0  0  0  0  0  0  0  0
  1  2  1  0
  3  2  1  1
  3  4  1  0
  4  5  1  0
  5  6  2  0
  6  7  1  0
  7  8  2  0
  8  9  1  0
  9 10  1  0
 10 11  1  0
 11 12  1  0
  3 13  1  0
 13 14  2  0
 14 15  1  0
 14 16  1  0
 16 17  1  0
 17 18  2  0
 17 19  1  0
 19 20  1  0
 20 21  2  0
 21 22  1  0
 22 23  2  0
 23 24  1  0
 24 25  2  0
 25 26  1  0
 19 27  1  0
 27 28  2  0
 12  7  1  0
 27 13  1  0
 25 20  1  0
M  CHG  2   4   1  15  -1
M  END
>  <Compound_ID>  (948) 
C49908084

>  <Active>  (948) 
0.0

>  <Smiles>  (948) 
CC[C@H]([NH2+]/C=C/C1=CCCCC1)c1c([O-])[nH]c(=O)n(-c2ccccc2C)c1=O

>  <canonical_smi>  (948) 
CC[C@H]([NH2+]/C=C/C1=CCCCC1)c1c([O-])[nH]c(=O)n(-c2ccccc2C)c1=O

>  <Set>  (948) 
G2 inactive

>  <Set_type>  (948) 
Train

>  <MW>  (948) 
381.48

>  <HBD>  (948) 
2

>  <HBA>  (948) 
3

>  <NRB>  (948) 
6

>  <NR>  (948) 
3

>  <NAR>  (948) 
2

>  <PSA>  (948) 
94.53

>  <Standard Type>  (948) 
nan

>  <Standard Relation>  (948) 
nan

>  <Standard Units>  (948) 
nan

>  <Standard Value>  (948) 
nan

>  <Assay ChEMBL ID>  (948) 
nan

>  <Assay Description>  (948) 
nan

>  <BAO Label>  (948) 
nan

$$$$

     RDKit          2D

 25 28  0  0  0  0  0  0  0  0999 V2000
   -9.3921   -1.5765    0.0000 O   0  0  0  0  0  0  0  0  0  0  0  0
   -8.0218   -0.9664    0.0000 C   0  0  0  0  0  0  0  0  0  0  0  0
   -6.8083   -1.8481    0.0000 C   0  0  0  0  0  0  0  0  0  0  0  0
   -5.3817   -1.3846    0.0000 C   0  0  0  0  0  0  0  0  0  0  0  0
   -4.5000   -2.5981    0.0000 C   0  0  0  0  0  0  0  0  0  0  0  0
   -3.0000   -2.5981    0.0000 S   0  0  0  0  0  0  0  0  0  0  0  0
   -3.0000   -1.0981    0.0000 O   0  0  0  0  0  0  0  0  0  0  0  0
   -3.0000   -4.0981    0.0000 O   0  0  0  0  0  0  0  0  0  0  0  0
   -1.5000   -2.5981    0.0000 N   0  0  0  0  0  0  0  0  0  0  0  0
   -0.7500   -3.8971    0.0000 C   0  0  0  0  0  0  0  0  0  0  0  0
    0.7500   -3.8971    0.0000 C   0  0  0  0  0  0  0  0  0  0  0  0
    1.5000   -2.5981    0.0000 C   0  0  0  0  0  0  0  0  0  0  0  0
    0.7500   -1.2990    0.0000 C   0  0  0  0  0  0  0  0  0  0  0  0
    1.5000    0.0000    0.0000 C   0  0  0  0  0  0  0  0  0  0  0  0
    0.7500    1.2990    0.0000 C   0  0  0  0  0  0  0  0  0  0  0  0
   -0.7500    1.2990    0.0000 C   0  0  0  0  0  0  0  0  0  0  0  0
   -1.5000    0.0000    0.0000 C   0  0  0  0  0  0  0  0  0  0  0  0
   -0.7500   -1.2990    0.0000 C   0  0  0  0  0  0  0  0  0  0  0  0
   -5.3817   -3.8116    0.0000 C   0  0  0  0  0  0  0  0  0  0  0  0
   -6.8083   -3.3481    0.0000 N   0  0  0  0  0  0  0  0  0  0  0  0
   -7.8650    0.5254    0.0000 N   0  0  0  0  0  0  0  0  0  0  0  0
   -8.9797    1.5291    0.0000 C   0  0  0  0  0  0  0  0  0  0  0  0
   -8.3696    2.8994    0.0000 C   0  0  0  0  0  0  0  0  0  0  0  0
   -6.8778    2.7426    0.0000 C   0  0  0  0  0  0  0  0  0  0  0  0
   -6.5660    1.2754    0.0000 C   0  0  0  0  0  0  0  0  0  0  0  0
  1  2  2  0
  2  3  1  0
  3  4  2  0
  4  5  1  0
  5  6  1  0
  6  7  2  0
  6  8  2  0
  6  9  1  0
  9 10  1  0
 10 11  1  0
 11 12  1  0
 13 12  1  6
 13 14  1  0
 14 15  1  0
 15 16  1  0
 16 17  1  0
 18 17  1  1
  5 19  2  0
 19 20  1  0
  2 21  1  0
 21 22  1  0
 22 23  1  0
 23 24  1  0
 24 25  1  0
 20  3  1  0
 25 21  1  0
 18  9  1  0
 18 13  1  0
M  END
>  <Compound_ID>  (949) 
C45797671

>  <Active>  (949) 
0.0

>  <Smiles>  (949) 
O=C(c1cc(S(=O)(=O)N2CCC[C@H]3CCCC[C@@H]32)c[nH]1)N1CCCC1

>  <canonical_smi>  (949) 
O=C(c1cc(S(=O)(=O)N2CCC[C@H]3CCCC[C@@H]32)c[nH]1)N1CCCC1

>  <Set>  (949) 
G2 inactive

>  <Set_type>  (949) 
Train

>  <MW>  (949) 
365.5

>  <HBD>  (949) 
1

>  <HBA>  (949) 
3

>  <NRB>  (949) 
3

>  <NR>  (949) 
4

>  <NAR>  (949) 
1

>  <PSA>  (949) 
73.48

>  <Standard Type>  (949) 
nan

>  <Standard Relation>  (949) 
nan

>  <Standard Units>  (949) 
nan

>  <Standard Value>  (949) 
nan

>  <Assay ChEMBL ID>  (949) 
nan

>  <Assay Description>  (949) 
nan

>  <BAO Label>  (949) 
nan

$$$$

     RDKit          2D

 35 39  0  0  0  0  0  0  0  0999 V2000
   -4.4095   -8.3073    0.0000 C   0  0  0  0  0  0  0  0  0  0  0  0
   -3.0000   -7.7942    0.0000 C   0  0  0  0  0  0  0  0  0  0  0  0
   -2.7395   -9.2714    0.0000 C   0  0  0  0  0  0  0  0  0  0  0  0
   -1.5000   -7.7942    0.0000 C   0  0  0  0  0  0  0  0  0  0  0  0
   -0.7500   -6.4952    0.0000 C   0  0  0  0  0  0  0  0  0  0  0  0
   -1.5000   -5.1962    0.0000 C   0  0  0  0  0  0  0  0  0  0  0  0
   -3.0000   -5.1962    0.0000 C   0  0  0  0  0  0  0  0  0  0  0  0
   -3.7500   -3.8971    0.0000 C   0  0  0  0  0  0  0  0  0  0  0  0
   -3.0000   -2.5981    0.0000 C   0  0  0  0  0  0  0  0  0  0  0  0
   -3.7500   -1.2990    0.0000 O   0  0  0  0  0  0  0  0  0  0  0  0
   -5.2500   -1.2990    0.0000 C   0  0  0  0  0  0  0  0  0  0  0  0
   -6.0000   -0.0000    0.0000 C   0  0  0  0  0  0  0  0  0  0  0  0
   -5.2500    1.2990    0.0000 O   0  0  0  0  0  0  0  0  0  0  0  0
   -7.5000   -0.0000    0.0000 N   0  0  0  0  0  0  0  0  0  0  0  0
   -8.2500    1.2990    0.0000 C   0  0  0  0  0  0  0  0  0  0  0  0
   -7.5000    2.5981    0.0000 C   0  0  0  0  0  0  0  0  0  0  0  0
   -8.2500    3.8971    0.0000 C   0  0  0  0  0  0  0  0  0  0  0  0
   -9.7500    3.8971    0.0000 C   0  0  0  0  0  0  0  0  0  0  0  0
  -10.5000    5.1962    0.0000 C   0  0  0  0  0  0  0  0  0  0  0  0
   -9.7500    6.4952    0.0000 C   0  0  0  0  0  0  0  0  0  0  0  0
  -10.5000    7.7942    0.0000 O   0  0  0  0  0  0  0  0  0  0  0  0
  -10.5000    2.5981    0.0000 C   0  0  0  0  0  0  0  0  0  0  0  0
   -9.7500    1.2990    0.0000 C   0  0  0  0  0  0  0  0  0  0  0  0
   -1.5000   -2.5981    0.0000 C   0  0  0  0  0  0  0  0  0  0  0  0
   -0.7500   -1.2990    0.0000 C   0  0  0  0  0  0  0  0  0  0  0  0
    0.7500   -1.2990    0.0000 C   0  0  0  0  0  0  0  0  0  0  0  0
    1.5000   -2.5981    0.0000 C   0  0  0  0  0  0  0  0  0  0  0  0
    3.0000   -2.5981    0.0000 O   0  0  0  0  0  0  0  0  0  0  0  0
    0.7500   -3.8971    0.0000 O   0  0  0  0  0  0  0  0  0  0  0  0
   -0.7500   -3.8971    0.0000 C   0  0  0  0  0  0  0  0  0  0  0  0
    1.5000    0.0000    0.0000 C   0  0  0  0  0  0  0  0  0  0  0  0
    0.7500    1.2990    0.0000 C   0  0  0  0  0  0  0  0  0  0  0  0
   -0.7500    1.2990    0.0000 C   0  0  0  0  0  0  0  0  0  0  0  0
   -1.5000    0.0000    0.0000 C   0  0  0  0  0  0  0  0  0  0  0  0
   -3.7500   -6.4952    0.0000 O   0  0  0  0  0  0  0  0  0  0  0  0
  1  2  1  0
  2  3  1  0
  2  4  1  0
  4  5  1  0
  5  6  1  0
  6  7  2  0
  7  8  1  0
  8  9  2  0
  9 10  1  0
 10 11  1  0
 11 12  1  0
 12 13  2  0
 12 14  1  0
 14 15  1  0
 15 16  2  0
 16 17  1  0
 17 18  2  0
 18 19  1  0
 19 20  1  0
 20 21  1  0
 18 22  1  0
 22 23  2  0
  9 24  1  0
 24 25  1  0
 25 26  2  0
 26 27  1  0
 27 28  2  0
 27 29  1  0
 29 30  1  0
 26 31  1  0
 31 32  1  0
 32 33  1  0
 33 34  1  0
  7 35  1  0
 35  2  1  0
 30  6  1  0
 23 15  1  0
 30 24  2  0
 34 25  1  0
M  END
>  <Compound_ID>  (950) 
C08791397

>  <Active>  (950) 
0.0

>  <Smiles>  (950) 
CC1(C)CCc2c(cc(OCC(=O)Nc3ccc(CCO)cc3)c3c4c(c(=O)oc23)CCCC4)O1

>  <canonical_smi>  (950) 
CC1(C)CCc2c(cc(OCC(=O)Nc3ccc(CCO)cc3)c3c4c(c(=O)oc23)CCCC4)O1

>  <Set>  (950) 
G2 inactive

>  <Set_type>  (950) 
Train

>  <MW>  (950) 
477.56

>  <HBD>  (950) 
2

>  <HBA>  (950) 
6

>  <NRB>  (950) 
6

>  <NR>  (950) 
5

>  <NAR>  (950) 
3

>  <PSA>  (950) 
98.0

>  <Standard Type>  (950) 
nan

>  <Standard Relation>  (950) 
nan

>  <Standard Units>  (950) 
nan

>  <Standard Value>  (950) 
nan

>  <Assay ChEMBL ID>  (950) 
nan

>  <Assay Description>  (950) 
nan

>  <BAO Label>  (950) 
nan

$$$$

     RDKit          2D

 37 40  0  0  0  0  0  0  0  0999 V2000
    6.7500    1.2990    0.0000 C   0  0  0  0  0  0  0  0  0  0  0  0
    5.2500    1.2990    0.0000 C   0  0  0  0  0  0  0  0  0  0  0  0
    4.5000    0.0000    0.0000 N   0  0  0  0  0  0  0  0  0  0  0  0
    5.2500   -1.2990    0.0000 C   0  0  0  0  0  0  0  0  0  0  0  0
    6.7500   -1.2990    0.0000 C   0  0  0  0  0  0  0  0  0  0  0  0
    3.0000    0.0000    0.0000 S   0  0  0  0  0  0  0  0  0  0  0  0
    3.0000   -1.5000    0.0000 O   0  0  0  0  0  0  0  0  0  0  0  0
    3.0000    1.5000    0.0000 O   0  0  0  0  0  0  0  0  0  0  0  0
    1.5000    0.0000    0.0000 C   0  0  0  0  0  0  0  0  0  0  0  0
    0.7500   -1.2990    0.0000 C   0  0  0  0  0  0  0  0  0  0  0  0
   -0.7500   -1.2990    0.0000 C   0  0  0  0  0  0  0  0  0  0  0  0
   -1.5000    0.0000    0.0000 C   0  0  0  0  0  0  0  0  0  0  0  0
   -0.7500    1.2990    0.0000 C   0  0  0  0  0  0  0  0  0  0  0  0
    0.7500    1.2990    0.0000 C   0  0  0  0  0  0  0  0  0  0  0  0
   -1.7537    2.4138    0.0000 N   0  0  0  0  0  0  0  0  0  0  0  0
   -3.1240    1.8037    0.0000 C   0  0  0  0  0  0  0  0  0  0  0  0
   -4.4231    2.5537    0.0000 C   0  0  0  0  0  0  0  0  0  0  0  0
   -4.4231    4.0537    0.0000 C   0  0  0  0  0  0  0  0  0  0  0  0
   -5.7221    4.8037    0.0000 C   0  0  0  0  0  0  0  0  0  0  0  0
   -7.0211    4.0537    0.0000 O   0  0  0  0  0  0  0  0  0  0  0  0
   -5.7221    6.3037    0.0000 N   0  0  0  0  0  0  0  0  0  0  0  0
   -7.0211    7.0537    0.0000 C   0  0  0  0  0  0  0  0  0  0  0  0
   -7.0211    8.5537    0.0000 C   0  0  0  0  0  0  0  0  0  0  0  0
   -5.5439    8.2932    0.0000 N   0  0  0  0  0  4  0  0  0  0  0  0
   -5.0309    6.8836    0.0000 C   0  0  0  0  0  0  0  0  0  0  0  0
   -3.5537    6.6232    0.0000 C   0  0  0  0  0  0  0  0  0  0  0  0
   -2.5895    7.7722    0.0000 C   0  0  0  0  0  0  0  0  0  0  0  0
   -3.1025    9.1818    0.0000 C   0  0  0  0  0  0  0  0  0  0  0  0
   -4.5797    9.4422    0.0000 C   0  0  0  0  0  0  0  0  0  0  0  0
   -8.4983    8.2932    0.0000 C   0  0  0  0  0  0  0  0  0  0  0  0
   -9.4625    9.4422    0.0000 C   0  0  0  0  0  0  0  0  0  0  0  0
   -8.9495   10.8518    0.0000 C   0  0  0  0  0  0  0  0  0  0  0  0
   -7.4723   11.1123    0.0000 C   0  0  0  0  0  0  0  0  0  0  0  0
   -6.5081    9.9632    0.0000 C   0  0  0  0  0  0  0  0  0  0  0  0
   -2.9672    0.3119    0.0000 N   0  0  0  0  0  0  0  0  0  0  0  0
   -4.0819   -0.6918    0.0000 C   0  0  0  0  0  0  0  0  0  0  0  0
   -5.5085   -0.2283    0.0000 C   0  0  0  0  0  0  0  0  0  0  0  0
  1  2  1  0
  2  3  1  0
  3  4  1  0
  4  5  1  0
  3  6  1  0
  6  7  2  0
  6  8  2  0
  6  9  1  0
  9 10  2  0
 10 11  1  0
 11 12  2  0
 12 13  1  0
 13 14  2  0
 13 15  1  0
 15 16  2  0
 16 17  1  0
 17 18  1  0
 18 19  1  0
 19 20  2  0
 19 21  1  0
 21 22  1  0
 22 23  1  0
 23 24  1  0
 24 25  1  0
 25 26  1  0
 26 27  1  0
 27 28  1  0
 28 29  1  0
 23 30  1  0
 30 31  1  0
 31 32  1  0
 32 33  1  0
 33 34  1  0
 16 35  1  0
 35 36  1  0
 36 37  1  0
 14  9  1  0
 34 23  1  0
 35 12  1  0
 29 24  1  0
M  CHG  1  24   1
M  END
>  <Compound_ID>  (951) 
C13146527

>  <Active>  (951) 
0.0

>  <Smiles>  (951) 
CCN(CC)S(=O)(=O)c1ccc2c(c1)nc(CCC(=O)NCC1([NH+]3CCCCC3)CCCCC1)n2CC

>  <canonical_smi>  (951) 
CCN(CC)S(=O)(=O)c1ccc2c(c1)nc(CCC(=O)NCC1([NH+]3CCCCC3)CCCCC1)n2CC

>  <Set>  (951) 
G2 inactive

>  <Set_type>  (951) 
Train

>  <MW>  (951) 
532.78

>  <HBD>  (951) 
2

>  <HBA>  (951) 
4

>  <NRB>  (951) 
11

>  <NR>  (951) 
4

>  <NAR>  (951) 
2

>  <PSA>  (951) 
88.74

>  <Standard Type>  (951) 
nan

>  <Standard Relation>  (951) 
nan

>  <Standard Units>  (951) 
nan

>  <Standard Value>  (951) 
nan

>  <Assay ChEMBL ID>  (951) 
nan

>  <Assay Description>  (951) 
nan

>  <BAO Label>  (951) 
nan

$$$$

     RDKit          2D

 35 39  0  0  0  0  0  0  0  0999 V2000
   -4.0051   -9.6858    0.0000 C   0  0  0  0  0  0  0  0  0  0  0  0
   -3.1235   -8.4723    0.0000 C   0  0  0  0  0  0  0  0  0  0  0  0
   -1.6317   -8.6291    0.0000 C   0  0  0  0  0  0  0  0  0  0  0  0
   -1.0216   -9.9994    0.0000 N   0  0  0  0  0  4  0  0  0  0  0  0
   -1.9033  -11.2129    0.0000 C   0  0  0  0  0  0  0  0  0  0  0  0
   -1.2931  -12.5833    0.0000 C   0  0  0  0  0  0  0  0  0  0  0  0
   -2.1748  -13.7968    0.0000 C   0  0  0  0  0  0  0  0  0  0  0  0
   -1.7113  -15.2234    0.0000 C   0  0  0  0  0  0  0  0  0  0  0  0
   -2.9248  -16.1050    0.0000 N   0  0  0  0  0  0  0  0  0  0  0  0
   -4.1383  -15.2234    0.0000 C   0  0  0  0  0  0  0  0  0  0  0  0
   -3.6748  -13.7968    0.0000 N   0  0  0  0  0  0  0  0  0  0  0  0
   -0.7500   -7.4156    0.0000 C   0  0  0  0  0  0  0  0  0  0  0  0
   -1.2135   -5.9890    0.0000 C   0  0  0  0  0  0  0  0  0  0  0  0
   -2.6401   -5.5255    0.0000 O   0  0  0  0  0  0  0  0  0  0  0  0
   -0.0000   -5.1073    0.0000 N   0  0  0  0  0  0  0  0  0  0  0  0
   -0.0000   -3.6073    0.0000 C   0  0  0  0  0  0  0  0  0  0  0  0
    1.2135   -2.7256    0.0000 N   0  0  0  0  0  0  0  0  0  0  0  0
    0.7500   -1.2990    0.0000 C   0  0  0  0  0  0  0  0  0  0  0  0
    1.5000    0.0000    0.0000 C   0  0  0  0  0  0  0  0  0  0  0  0
    0.7500    1.2990    0.0000 C   0  0  0  0  0  0  0  0  0  0  0  0
   -0.7500    1.2990    0.0000 C   0  0  0  0  0  0  0  0  0  0  0  0
   -1.5000    0.0000    0.0000 C   0  0  0  0  0  0  0  0  0  0  0  0
   -0.7500   -1.2990    0.0000 C   0  0  0  0  0  0  0  0  0  0  0  0
   -1.2135   -2.7256    0.0000 S   0  0  0  0  0  0  0  0  0  0  0  0
    1.2135   -5.9890    0.0000 N   0  0  0  0  0  0  0  0  0  0  0  0
    0.7500   -7.4156    0.0000 C   0  0  0  0  0  0  0  0  0  0  0  0
    1.6317   -8.6291    0.0000 C   0  0  0  0  0  0  0  0  0  0  0  0
    3.1235   -8.4723    0.0000 S   0  0  0  0  0  0  0  0  0  0  0  0
    4.0051   -9.6858    0.0000 C   0  0  0  0  0  0  0  0  0  0  0  0
    3.3950  -11.0561    0.0000 C   0  0  0  0  0  0  0  0  0  0  0  0
    4.2767  -12.2697    0.0000 C   0  0  0  0  0  0  0  0  0  0  0  0
    5.7685  -12.1129    0.0000 C   0  0  0  0  0  0  0  0  0  0  0  0
    6.6502  -13.3264    0.0000 Cl  0  0  0  0  0  0  0  0  0  0  0  0
    6.3786  -10.7426    0.0000 C   0  0  0  0  0  0  0  0  0  0  0  0
    5.4969   -9.5290    0.0000 C   0  0  0  0  0  0  0  0  0  0  0  0
  1  2  1  0
  3  2  1  1
  3  4  1  0
  4  5  1  0
  5  6  1  0
  6  7  1  0
  7  8  2  0
  8  9  1  0
  9 10  1  0
 10 11  2  0
  3 12  1  0
 12 13  1  6
 13 14  2  0
 13 15  1  0
 15 16  1  0
 16 17  2  0
 17 18  1  0
 18 19  2  0
 19 20  1  0
 20 21  2  0
 21 22  1  0
 22 23  2  0
 23 24  1  0
 15 25  1  0
 25 26  2  0
 26 27  1  0
 27 28  1  0
 28 29  1  0
 29 30  2  0
 30 31  1  0
 31 32  2  0
 32 33  1  0
 32 34  1  0
 34 35  2  0
 11  7  1  0
 26 12  1  0
 35 29  1  0
 24 16  1  0
 23 18  1  0
M  CHG  1   4   1
M  END
>  <Compound_ID>  (952) 
C20573354

>  <Active>  (952) 
0.0

>  <Smiles>  (952) 
CC[C@H]([NH2+]CCc1c[nH]cn1)[C@@H]1C(=O)N(c2nc3ccccc3s2)N=C1CSc1ccc(Cl)cc1

>  <canonical_smi>  (952) 
CC[C@H]([NH2+]CCc1c[nH]cn1)[C@@H]1C(=O)N(c2nc3ccccc3s2)N=C1CSc1ccc(Cl)cc1

>  <Set>  (952) 
G2 inactive

>  <Set_type>  (952) 
Train

>  <MW>  (952) 
526.11

>  <HBD>  (952) 
2

>  <HBA>  (952) 
4

>  <NRB>  (952) 
10

>  <NR>  (952) 
5

>  <NAR>  (952) 
4

>  <PSA>  (952) 
90.85

>  <Standard Type>  (952) 
nan

>  <Standard Relation>  (952) 
nan

>  <Standard Units>  (952) 
nan

>  <Standard Value>  (952) 
nan

>  <Assay ChEMBL ID>  (952) 
nan

>  <Assay Description>  (952) 
nan

>  <BAO Label>  (952) 
nan

$$$$

     RDKit          2D

 38 40  0  0  0  0  0  0  0  0999 V2000
    3.7500   -1.2990    0.0000 C   0  0  0  0  0  0  0  0  0  0  0  0
    3.0000    0.0000    0.0000 O   0  0  0  0  0  0  0  0  0  0  0  0
    1.5000    0.0000    0.0000 C   0  0  0  0  0  0  0  0  0  0  0  0
    0.7500   -1.2990    0.0000 C   0  0  0  0  0  0  0  0  0  0  0  0
   -0.7500   -1.2990    0.0000 C   0  0  0  0  0  0  0  0  0  0  0  0
   -1.5000    0.0000    0.0000 C   0  0  0  0  0  0  0  0  0  0  0  0
   -3.0000    0.0000    0.0000 C   0  0  0  0  0  0  0  0  0  0  0  0
   -3.7500    1.2990    0.0000 C   0  0  0  0  0  0  0  0  0  0  0  0
   -5.2500    1.2990    0.0000 N   0  0  0  0  0  0  0  0  0  0  0  0
   -6.0000    2.5981    0.0000 C   0  0  0  0  0  0  0  0  0  0  0  0
   -7.5000    2.5981    0.0000 C   0  0  0  0  0  0  0  0  0  0  0  0
   -8.2500    3.8971    0.0000 C   0  0  0  0  0  0  0  0  0  0  0  0
   -9.7500    3.8971    0.0000 C   0  0  0  0  0  0  0  0  0  0  0  0
  -10.5000    2.5981    0.0000 C   0  0  0  0  0  0  0  0  0  0  0  0
  -12.0000    2.5981    0.0000 C   0  0  0  0  0  0  0  0  0  0  0  0
  -12.0000    4.0981    0.0000 C   0  0  0  0  0  0  0  0  0  0  0  0
  -12.0000    1.0981    0.0000 C   0  0  0  0  0  0  0  0  0  0  0  0
  -13.5000    2.5981    0.0000 C   0  0  0  0  0  0  0  0  0  0  0  0
   -9.7500    1.2990    0.0000 C   0  0  0  0  0  0  0  0  0  0  0  0
   -8.2500    1.2990    0.0000 C   0  0  0  0  0  0  0  0  0  0  0  0
   -6.0000    0.0000    0.0000 C   0  0  0  0  0  0  0  0  0  0  0  0
   -5.2500   -1.2990    0.0000 C   0  0  0  0  0  0  0  0  0  0  0  0
   -5.8601   -2.6694    0.0000 N   0  0  0  0  0  0  0  0  0  0  0  0
   -4.7454   -3.6731    0.0000 C   0  0  0  0  0  0  0  0  0  0  0  0
   -4.9022   -5.1648    0.0000 C   0  0  0  0  0  0  0  0  0  0  0  0
   -6.2725   -5.7749    0.0000 O   0  0  0  0  0  0  0  0  0  0  0  0
   -3.6887   -6.0465    0.0000 N   0  0  0  0  0  0  0  0  0  0  0  0
   -3.8454   -7.5383    0.0000 C   0  0  0  0  0  0  0  0  0  0  0  0
   -2.6319   -8.4200    0.0000 C   0  0  0  0  0  0  0  0  0  0  0  0
   -2.7887   -9.9118    0.0000 N   0  0  0  0  0  4  0  0  0  0  0  0
   -1.5752  -10.7934    0.0000 C   0  0  0  0  0  0  0  0  0  0  0  0
   -4.1590  -10.5219    0.0000 C   0  0  0  0  0  0  0  0  0  0  0  0
   -3.4463   -2.9231    0.0000 C   0  0  0  0  0  0  0  0  0  0  0  0
   -3.7582   -1.4558    0.0000 S   0  0  0  0  0  0  0  0  0  0  0  0
   -0.7500    1.2990    0.0000 C   0  0  0  0  0  0  0  0  0  0  0  0
    0.7500    1.2990    0.0000 C   0  0  0  0  0  0  0  0  0  0  0  0
    1.5000    2.5981    0.0000 O   0  0  0  0  0  0  0  0  0  0  0  0
    0.7500    3.8971    0.0000 C   0  0  0  0  0  0  0  0  0  0  0  0
  1  2  1  0
  2  3  1  0
  3  4  2  0
  4  5  1  0
  5  6  2  0
  6  7  1  0
  7  8  1  0
  8  9  1  0
  9 10  1  0
 10 11  1  0
 11 12  2  0
 12 13  1  0
 13 14  2  0
 14 15  1  0
 15 16  1  0
 15 17  1  0
 15 18  1  0
 14 19  1  0
 19 20  2  0
  9 21  1  0
 21 22  1  0
 22 23  2  0
 23 24  1  0
 24 25  1  0
 25 26  2  0
 25 27  1  0
 27 28  1  0
 28 29  1  0
 29 30  1  0
 30 31  1  0
 30 32  1  0
 24 33  2  0
 33 34  1  0
  6 35  1  0
 35 36  2  0
 36 37  1  0
 37 38  1  0
 36  3  1  0
 20 11  1  0
 34 22  1  0
M  CHG  1  30   1
M  END
>  <Compound_ID>  (953) 
C35807801

>  <Active>  (953) 
0.0

>  <Smiles>  (953) 
COc1ccc(CCN(Cc2ccc(C(C)(C)C)cc2)Cc2nc(C(=O)NCC[NH+](C)C)cs2)cc1OC

>  <canonical_smi>  (953) 
COc1ccc(CCN(Cc2ccc(C(C)(C)C)cc2)Cc2nc(C(=O)NCC[NH+](C)C)cs2)cc1OC

>  <Set>  (953) 
G2 inactive

>  <Set_type>  (953) 
Train

>  <MW>  (953) 
539.77

>  <HBD>  (953) 
2

>  <HBA>  (953) 
5

>  <NRB>  (953) 
13

>  <NR>  (953) 
3

>  <NAR>  (953) 
3

>  <PSA>  (953) 
68.13

>  <Standard Type>  (953) 
nan

>  <Standard Relation>  (953) 
nan

>  <Standard Units>  (953) 
nan

>  <Standard Value>  (953) 
nan

>  <Assay ChEMBL ID>  (953) 
nan

>  <Assay Description>  (953) 
nan

>  <BAO Label>  (953) 
nan

$$$$

     RDKit          2D

 36 39  0  0  0  0  0  0  0  0999 V2000
   10.2135  -10.5199    0.0000 C   0  0  0  0  0  0  0  0  0  0  0  0
    8.7135  -10.5199    0.0000 C   0  0  0  0  0  0  0  0  0  0  0  0
    7.9635   -9.2208    0.0000 C   0  0  0  0  0  0  0  0  0  0  0  0
    8.7135   -7.9218    0.0000 O   0  0  0  0  0  0  0  0  0  0  0  0
    6.4635   -9.2208    0.0000 O   0  0  0  0  0  0  0  0  0  0  0  0
    5.7135   -7.9218    0.0000 C   0  0  0  0  0  0  0  0  0  0  0  0
    4.2135   -7.9218    0.0000 C   0  0  0  0  0  0  0  0  0  0  0  0
    3.4635   -9.2208    0.0000 O   0  0  0  0  0  0  0  0  0  0  0  0
    3.4635   -6.6227    0.0000 C   0  0  0  0  0  0  0  0  0  0  0  0
    4.8338   -6.0126    0.0000 O   0  0  0  0  0  0  0  0  0  0  0  0
    4.9906   -4.5208    0.0000 C   0  0  0  0  0  0  0  0  0  0  0  0
    4.4783   -3.9102    0.0000 O   0  0  0  0  0  0  0  0  0  0  0  0
    6.3610   -3.9107    0.0000 C   0  0  0  0  0  0  0  0  0  0  0  0
    6.5177   -2.4190    0.0000 C   0  0  0  0  0  0  0  0  0  0  0  0
    2.2500   -7.5044    0.0000 C   0  0  0  0  0  0  0  0  0  0  0  0
    2.2500   -9.0044    0.0000 C   0  0  0  0  0  0  0  0  0  0  0  0
    1.0365   -6.6227    0.0000 C   0  0  0  0  0  0  0  0  0  0  0  0
    1.5000   -5.1962    0.0000 C   0  0  0  0  0  0  0  0  0  0  0  0
    0.7500   -3.8971    0.0000 C   0  0  0  0  0  0  0  0  0  0  0  0
    1.5000   -2.5981    0.0000 C   0  0  0  0  0  0  0  0  0  0  0  0
    3.0000   -2.5981    0.0000 C   0  0  0  0  0  0  0  0  0  0  0  0
    3.7500   -1.2990    0.0000 O   0  0  0  0  0  0  0  0  0  0  0  0
    3.7500   -3.8971    0.0000 C   0  0  0  0  0  0  0  0  0  0  0  0
    3.0000   -5.1962    0.0000 C   0  0  0  0  0  0  0  0  0  0  0  0
    4.4854   -4.9873    0.0000 C   0  0  0  0  0  0  0  0  0  0  0  0
    0.7500   -1.2990    0.0000 C   0  0  0  0  0  0  0  0  0  0  0  0
    2.2500   -1.2990    0.0000 C   0  0  0  0  0  0  0  0  0  0  0  0
    1.5000    0.0000    0.0000 C   0  0  0  0  0  0  0  0  0  0  0  0
    0.7500    1.2990    0.0000 C   0  0  0  0  0  0  0  0  0  0  0  0
   -0.7500    1.2990    0.0000 C   0  0  0  0  0  0  0  0  0  0  0  0
   -1.5000    2.5981    0.0000 O   0  0  0  0  0  0  0  0  0  0  0  0
   -1.5000    0.0000    0.0000 C   0  0  0  0  0  0  0  0  0  0  0  0
   -0.7500   -1.2990    0.0000 C   0  0  0  0  0  0  0  0  0  0  0  0
   -1.5000   -2.5981    0.0000 C   0  0  0  0  0  0  0  0  0  0  0  0
   -0.7500   -3.8971    0.0000 C   0  0  0  0  0  0  0  0  0  0  0  0
   -1.5000   -5.1962    0.0000 Cl  0  0  0  0  0  0  0  0  0  0  0  0
  1  2  1  0
  2  3  1  0
  3  4  2  0
  3  5  1  0
  5  6  1  0
  6  7  1  0
  7  8  2  0
  7  9  1  0
  9 10  1  1
 10 11  1  0
 11 12  2  0
 11 13  1  0
 13 14  1  0
  9 15  1  0
 15 16  1  6
 15 17  1  0
 18 17  1  1
 18 19  1  0
 19 20  1  0
 20 21  1  1
 21 22  1  1
 21 23  1  0
 23 24  1  0
 24 25  1  1
 20 26  1  0
 26 27  1  1
 26 28  1  0
 28 29  2  0
 29 30  1  0
 30 31  2  0
 30 32  1  0
 32 33  2  0
 33 34  1  0
 34 35  1  0
 35 36  1  6
 24  9  1  0
 33 26  1  0
 24 18  1  0
 19 35  1  6
M  END
>  <Compound_ID>  (954) 
C04245690

>  <Active>  (954) 
0.0

>  <Smiles>  (954) 
CCC(=O)OCC(=O)[C@]1(OC(=O)CC)[C@H](C)C[C@H]2[C@H]3[C@H]([C@@H](O)C[C@@]21C)[C@@]1(C)C=CC(=O)C=C1C[C@H]3Cl

>  <canonical_smi>  (954) 
CCC(=O)OCC(=O)[C@]1(OC(=O)CC)[C@H](C)C[C@H]2[C@H]3[C@H]([C@@H](O)C[C@@]21C)[C@@]1(C)C=CC(=O)C=C1C[C@H]3Cl

>  <Set>  (954) 
G2 inactive

>  <Set_type>  (954) 
Train

>  <MW>  (954) 
521.05

>  <HBD>  (954) 
1

>  <HBA>  (954) 
7

>  <NRB>  (954) 
6

>  <NR>  (954) 
4

>  <NAR>  (954) 
0

>  <PSA>  (954) 
106.97

>  <Standard Type>  (954) 
nan

>  <Standard Relation>  (954) 
nan

>  <Standard Units>  (954) 
nan

>  <Standard Value>  (954) 
nan

>  <Assay ChEMBL ID>  (954) 
nan

>  <Assay Description>  (954) 
nan

>  <BAO Label>  (954) 
nan

$$$$

     RDKit          2D

 36 40  0  0  0  0  0  0  0  0999 V2000
   -3.0000   -7.7942    0.0000 O   0  0  0  0  0  0  0  0  0  0  0  0
   -3.7500   -6.4952    0.0000 C   0  0  0  0  0  0  0  0  0  0  0  0
   -3.0000   -5.1962    0.0000 C   0  0  0  0  0  0  0  0  0  0  0  0
   -1.5000   -5.1962    0.0000 C   0  0  0  0  0  0  0  0  0  0  0  0
   -0.7500   -3.8971    0.0000 N   0  0  0  0  0  0  0  0  0  0  0  0
    0.7500   -3.8971    0.0000 C   0  0  0  0  0  0  0  0  0  0  0  0
    1.5000   -5.1962    0.0000 S   0  0  0  0  0  0  0  0  0  0  0  0
    1.5000   -2.5981    0.0000 N   0  0  0  0  0  0  0  0  0  0  0  0
    0.7500   -1.2990    0.0000 C   0  0  0  0  0  0  0  0  0  0  0  0
    1.5000    0.0000    0.0000 C   0  0  0  0  0  0  0  0  0  0  0  0
    0.7500    1.2990    0.0000 C   0  0  0  0  0  0  0  0  0  0  0  0
   -0.7500    1.2990    0.0000 C   0  0  0  0  0  0  0  0  0  0  0  0
   -1.5000    0.0000    0.0000 C   0  0  0  0  0  0  0  0  0  0  0  0
   -0.7500   -1.2990    0.0000 C   0  0  0  0  0  0  0  0  0  0  0  0
   -1.5000   -2.5981    0.0000 C   0  0  0  0  0  0  0  0  0  0  0  0
   -3.0000   -2.5981    0.0000 O   0  0  0  0  0  0  0  0  0  0  0  0
   -5.2500   -6.4952    0.0000 N   0  0  0  0  0  0  0  0  0  0  0  0
   -6.0000   -7.7942    0.0000 C   0  0  0  0  0  0  0  0  0  0  0  0
   -7.5000   -7.7942    0.0000 C   0  0  0  0  0  0  0  0  0  0  0  0
   -8.3817   -9.0078    0.0000 C   0  0  0  0  0  0  0  0  0  0  0  0
   -9.8083   -8.5442    0.0000 N   0  0  0  0  0  0  0  0  0  0  0  0
  -11.0218   -9.4259    0.0000 C   0  0  0  0  0  0  0  0  0  0  0  0
  -12.3921   -8.8158    0.0000 C   0  0  0  0  0  0  0  0  0  0  0  0
  -13.6056   -9.6975    0.0000 C   0  0  0  0  0  0  0  0  0  0  0  0
  -13.4488  -11.1893    0.0000 C   0  0  0  0  0  0  0  0  0  0  0  0
  -12.0785  -11.7994    0.0000 C   0  0  0  0  0  0  0  0  0  0  0  0
  -10.8650  -10.9177    0.0000 C   0  0  0  0  0  0  0  0  0  0  0  0
   -9.8083   -7.0442    0.0000 N   0  0  0  0  0  0  0  0  0  0  0  0
   -8.3817   -6.5807    0.0000 C   0  0  0  0  0  0  0  0  0  0  0  0
   -7.9182   -5.1541    0.0000 C   0  0  0  0  0  0  0  0  0  0  0  0
   -6.4509   -4.8423    0.0000 C   0  0  0  0  0  0  0  0  0  0  0  0
   -5.9874   -3.4157    0.0000 C   0  0  0  0  0  0  0  0  0  0  0  0
   -6.9911   -2.3009    0.0000 C   0  0  0  0  0  0  0  0  0  0  0  0
   -6.5276   -0.8744    0.0000 F   0  0  0  0  0  0  0  0  0  0  0  0
   -8.4583   -2.6128    0.0000 C   0  0  0  0  0  0  0  0  0  0  0  0
   -8.9218   -4.0394    0.0000 C   0  0  0  0  0  0  0  0  0  0  0  0
  1  2  2  0
  2  3  1  0
  3  4  1  0
  4  5  1  0
  5  6  1  0
  6  7  2  0
  6  8  1  0
  8  9  1  0
  9 10  2  0
 10 11  1  0
 11 12  2  0
 12 13  1  0
 13 14  2  0
 14 15  1  0
 15 16  2  0
  2 17  1  0
 17 18  1  0
 18 19  1  0
 19 20  2  0
 20 21  1  0
 21 22  1  0
 22 23  2  0
 23 24  1  0
 24 25  2  0
 25 26  1  0
 26 27  2  0
 21 28  1  0
 28 29  2  0
 29 30  1  0
 30 31  2  0
 31 32  1  0
 32 33  2  0
 33 34  1  0
 33 35  1  0
 35 36  2  0
 15  5  1  0
 29 19  1  0
 36 30  1  0
 14  9  1  0
 27 22  1  0
M  END
>  <Compound_ID>  (955) 
C10908693

>  <Active>  (955) 
0.0

>  <Smiles>  (955) 
O=C(CCn1c(=S)[nH]c2ccccc2c1=O)NCc1cn(-c2ccccc2)nc1-c1ccc(F)cc1

>  <canonical_smi>  (955) 
O=C(CCn1c(=S)[nH]c2ccccc2c1=O)NCc1cn(-c2ccccc2)nc1-c1ccc(F)cc1

>  <Set>  (955) 
G2 inactive

>  <Set_type>  (955) 
Train

>  <MW>  (955) 
499.57

>  <HBD>  (955) 
2

>  <HBA>  (955) 
4

>  <NRB>  (955) 
7

>  <NR>  (955) 
5

>  <NAR>  (955) 
5

>  <PSA>  (955) 
84.71

>  <Standard Type>  (955) 
nan

>  <Standard Relation>  (955) 
nan

>  <Standard Units>  (955) 
nan

>  <Standard Value>  (955) 
nan

>  <Assay ChEMBL ID>  (955) 
nan

>  <Assay Description>  (955) 
nan

>  <BAO Label>  (955) 
nan

$$$$

     RDKit          2D

 31 34  0  0  0  0  0  0  0  0999 V2000
   10.0840   -9.3335    0.0000 C   0  0  0  0  0  0  0  0  0  0  0  0
    8.7136   -9.9436    0.0000 C   0  0  0  0  0  0  0  0  0  0  0  0
    7.5001   -9.0619    0.0000 C   0  0  0  0  0  0  0  0  0  0  0  0
    6.1298   -9.6721    0.0000 N   0  0  0  0  0  0  0  0  0  0  0  0
    4.8308   -8.9221    0.0000 C   0  0  0  0  0  0  0  0  0  0  0  0
    4.6740   -7.4303    0.0000 C   0  0  0  0  0  0  0  0  0  0  0  0
    3.3037   -6.8202    0.0000 C   0  0  0  0  0  0  0  0  0  0  0  0
    2.0046   -7.5702    0.0000 C   0  0  0  0  0  0  0  0  0  0  0  0
    0.8899   -6.5665    0.0000 S   0  0  0  0  0  0  0  0  0  0  0  0
    1.5000   -5.1962    0.0000 C   0  0  0  0  0  0  0  0  0  0  0  0
    0.7500   -3.8971    0.0000 N   0  0  0  0  0  0  0  0  0  0  0  0
    1.5000   -2.5981    0.0000 C   0  0  0  0  0  0  0  0  0  0  0  0
    3.0000   -2.5981    0.0000 O   0  0  0  0  0  0  0  0  0  0  0  0
    0.7500   -1.2990    0.0000 C   0  0  0  0  0  0  0  0  0  0  0  0
    1.5000    0.0000    0.0000 C   0  0  0  0  0  0  0  0  0  0  0  0
    0.7500    1.2990    0.0000 C   0  0  0  0  0  0  0  0  0  0  0  0
   -0.7500    1.2990    0.0000 C   0  0  0  0  0  0  0  0  0  0  0  0
   -1.5000    2.5981    0.0000 S   0  0  0  0  0  0  0  0  0  0  0  0
   -0.7500    3.8971    0.0000 C   0  0  0  0  0  0  0  0  0  0  0  0
   -1.5000    5.1962    0.0000 C   0  0  0  0  0  0  0  0  0  0  0  0
   -2.9918    5.3529    0.0000 C   0  0  0  0  0  0  0  0  0  0  0  0
   -3.3037    6.8202    0.0000 S   0  0  0  0  0  0  0  0  0  0  0  0
   -2.0046    7.5702    0.0000 C   0  0  0  0  0  0  0  0  0  0  0  0
   -0.8899    6.5665    0.0000 N   0  0  0  0  0  0  0  0  0  0  0  0
   -1.5000    0.0000    0.0000 C   0  0  0  0  0  0  0  0  0  0  0  0
   -0.7500   -1.2990    0.0000 C   0  0  0  0  0  0  0  0  0  0  0  0
    2.9918   -5.3529    0.0000 N   0  0  0  0  0  0  0  0  0  0  0  0
    3.7160   -9.9258    0.0000 N   0  0  0  0  0  0  0  0  0  0  0  0
    4.3261  -11.2961    0.0000 N   0  0  0  0  0  0  0  0  0  0  0  0
    5.8179  -11.1393    0.0000 C   0  0  0  0  0  0  0  0  0  0  0  0
    6.8216  -12.2540    0.0000 S   0  0  0  0  0  0  0  0  0  0  0  0
  1  2  2  0
  2  3  1  0
  3  4  1  0
  4  5  1  0
  5  6  1  0
  6  7  1  0
  7  8  2  0
  8  9  1  0
  9 10  1  0
 10 11  1  0
 11 12  1  0
 12 13  2  0
 12 14  1  0
 14 15  2  0
 15 16  1  0
 16 17  2  0
 17 18  1  0
 18 19  1  0
 19 20  1  0
 20 21  2  0
 21 22  1  0
 22 23  1  0
 23 24  2  0
 17 25  1  0
 25 26  2  0
 10 27  2  0
  5 28  2  0
 28 29  1  0
 29 30  1  0
 30 31  2  0
 30  4  1  0
 27  7  1  0
 26 14  1  0
 24 20  1  0
M  END
>  <Compound_ID>  (956) 
C25682149

>  <Active>  (956) 
0.0

>  <Smiles>  (956) 
C=CCn1c(Cc2csc(NC(=O)c3ccc(SCc4cscn4)cc3)n2)n[nH]c1=S

>  <canonical_smi>  (956) 
C=CCn1c(Cc2csc(NC(=O)c3ccc(SCc4cscn4)cc3)n2)n[nH]c1=S

>  <Set>  (956) 
G2 inactive

>  <Set_type>  (956) 
Train

>  <MW>  (956) 
486.67

>  <HBD>  (956) 
2

>  <HBA>  (956) 
6

>  <NRB>  (956) 
9

>  <NR>  (956) 
4

>  <NAR>  (956) 
4

>  <PSA>  (956) 
88.49

>  <Standard Type>  (956) 
nan

>  <Standard Relation>  (956) 
nan

>  <Standard Units>  (956) 
nan

>  <Standard Value>  (956) 
nan

>  <Assay ChEMBL ID>  (956) 
nan

>  <Assay Description>  (956) 
nan

>  <BAO Label>  (956) 
nan

$$$$

     RDKit          2D

 38 42  0  0  0  0  0  0  0  0999 V2000
    2.6004    0.7041    0.0000 C   0  0  0  0  0  0  0  0  0  0  0  0
    1.2760    0.0000    0.0000 C   0  0  0  0  0  0  0  0  0  0  0  0
    2.6004   -0.7041    0.0000 C   0  0  0  0  0  0  0  0  0  0  0  0
    0.3943    1.2135    0.0000 C   0  0  0  0  0  0  0  0  0  0  0  0
   -1.0323    0.7500    0.0000 C   0  0  0  0  0  0  0  0  0  0  0  0
   -1.0323   -0.7500    0.0000 C   0  0  0  0  0  0  0  0  0  0  0  0
    0.3943   -1.2135    0.0000 C   0  0  0  0  0  0  0  0  0  0  0  0
    0.8578   -2.6401    0.0000 C   0  0  0  0  0  0  0  0  0  0  0  0
    1.8209   -0.7500    0.0000 C   0  0  0  0  0  0  0  0  0  0  0  0
    3.0344   -1.6317    0.0000 C   0  0  0  0  0  0  0  0  0  0  0  0
    4.4047   -1.0216    0.0000 O   0  0  0  0  0  0  0  0  0  0  0  0
    5.6183   -1.9033    0.0000 C   0  0  0  0  0  0  0  0  0  0  0  0
    6.9886   -1.2931    0.0000 C   0  0  0  0  0  0  0  0  0  0  0  0
    7.1454    0.1986    0.0000 O   0  0  0  0  0  0  0  0  0  0  0  0
    8.2021   -2.1748    0.0000 C   0  0  0  0  0  0  0  0  0  0  0  0
    9.5724   -1.5647    0.0000 N   0  0  0  0  0  0  0  0  0  0  0  0
   10.7859   -2.4464    0.0000 C   0  0  0  0  0  0  0  0  0  0  0  0
   12.1563   -1.8363    0.0000 C   0  0  0  0  0  0  0  0  0  0  0  0
   12.3131   -0.3445    0.0000 N   0  0  0  0  0  0  0  0  0  0  0  0
   13.6834    0.2656    0.0000 C   0  0  0  0  0  0  0  0  0  0  0  0
   14.8969   -0.6161    0.0000 C   0  0  0  0  0  0  0  0  0  0  0  0
   14.7401   -2.1079    0.0000 O   0  0  0  0  0  0  0  0  0  0  0  0
   16.2672   -0.0060    0.0000 C   0  0  0  0  0  0  0  0  0  0  0  0
   17.4807   -0.8877    0.0000 O   0  0  0  0  0  0  0  0  0  0  0  0
   18.8511   -0.2775    0.0000 N   0  0  0  0  0  0  0  0  0  0  0  0
   20.0646   -1.1592    0.0000 C   0  0  0  0  0  0  0  0  0  0  0  0
   20.0646   -2.6592    0.0000 C   0  0  0  0  0  0  0  0  0  0  0  0
   21.4912   -3.1228    0.0000 C   0  0  0  0  0  0  0  0  0  0  0  0
   22.9178   -2.6592    0.0000 C   0  0  0  0  0  0  0  0  0  0  0  0
   22.9178   -1.1592    0.0000 C   0  0  0  0  0  0  0  0  0  0  0  0
   21.4912   -0.6957    0.0000 C   0  0  0  0  0  0  0  0  0  0  0  0
   21.0276    0.7309    0.0000 C   0  0  0  0  0  0  0  0  0  0  0  0
   20.6095   -1.9092    0.0000 C   0  0  0  0  0  0  0  0  0  0  0  0
   19.2850   -1.2051    0.0000 C   0  0  0  0  0  0  0  0  0  0  0  0
   19.2850   -2.6134    0.0000 C   0  0  0  0  0  0  0  0  0  0  0  0
   11.0995    0.5372    0.0000 C   0  0  0  0  0  0  0  0  0  0  0  0
    9.7292   -0.0729    0.0000 C   0  0  0  0  0  0  0  0  0  0  0  0
    1.8209    0.7500    0.0000 C   0  0  0  0  0  0  0  0  0  0  0  0
  1  2  1  0
  2  3  1  0
  2  4  1  0
  4  5  1  1
  5  6  1  0
  6  7  1  0
  7  8  1  6
  7  9  1  0
  9 10  2  0
 10 11  1  0
 11 12  1  0
 12 13  1  0
 13 14  1  1
 13 15  1  0
 15 16  1  0
 16 17  1  0
 17 18  1  0
 18 19  1  0
 19 20  1  0
 20 21  1  0
 21 22  1  6
 21 23  1  0
 23 24  1  0
 24 25  1  0
 25 26  2  0
 26 27  1  0
 28 27  1  1
 28 29  1  0
 29 30  1  0
 30 31  1  0
 31 32  1  6
 31 33  1  0
 33 34  1  0
 33 35  1  0
 19 36  1  0
 36 37  1  0
  9 38  1  0
  7  2  1  0
 37 16  1  0
 38  4  1  0
 31 26  1  0
 33 28  1  0
M  END
>  <Compound_ID>  (957) 
C28297159

>  <Active>  (957) 
0.0

>  <Smiles>  (957) 
CC1(C)[C@H]2CC[C@]1(C)/C(=C/OC[C@@H](O)CN1CCN(C[C@@H](O)CO/N=C3\C[C@@H]4CC[C@@]3(C)C4(C)C)CC1)C2

>  <canonical_smi>  (957) 
CC1(C)[C@H]2CC[C@]1(C)/C(=C/OC[C@@H](O)CN1CCN(C[C@@H](O)CO/N=C3\C[C@@H]4CC[C@@]3(C)C4(C)C)CC1)C2

>  <Set>  (957) 
G2 inactive

>  <Set_type>  (957) 
Train

>  <MW>  (957) 
531.78

>  <HBD>  (957) 
2

>  <HBA>  (957) 
6

>  <NRB>  (957) 
10

>  <NR>  (957) 
5

>  <NAR>  (957) 
0

>  <PSA>  (957) 
77.76

>  <Standard Type>  (957) 
nan

>  <Standard Relation>  (957) 
nan

>  <Standard Units>  (957) 
nan

>  <Standard Value>  (957) 
nan

>  <Assay ChEMBL ID>  (957) 
nan

>  <Assay Description>  (957) 
nan

>  <BAO Label>  (957) 
nan

$$$$

     RDKit          2D

 40 43  0  0  0  0  0  0  0  0999 V2000
    5.2500   -1.2990    0.0000 C   0  0  0  0  0  0  0  0  0  0  0  0
    3.7500   -1.2990    0.0000 C   0  0  0  0  0  0  0  0  0  0  0  0
    3.0000    0.0000    0.0000 O   0  0  0  0  0  0  0  0  0  0  0  0
    1.5000    0.0000    0.0000 C   0  0  0  0  0  0  0  0  0  0  0  0
    0.7500   -1.2990    0.0000 C   0  0  0  0  0  0  0  0  0  0  0  0
   -0.7500   -1.2990    0.0000 C   0  0  0  0  0  0  0  0  0  0  0  0
   -1.5000   -2.5981    0.0000 N   0  0  0  0  0  0  0  0  0  0  0  0
   -3.0000   -2.5981    0.0000 C   0  0  0  0  0  0  0  0  0  0  0  0
   -3.7500   -1.2990    0.0000 C   0  0  0  0  0  0  0  0  0  0  0  0
   -5.2500   -1.2990    0.0000 C   0  0  0  0  0  0  0  0  0  0  0  0
   -6.7500   -1.2990    0.0000 N   0  0  0  0  0  0  0  0  0  0  0  0
   -3.0000    0.0000    0.0000 C   0  0  0  0  0  0  0  0  0  0  0  0
   -3.7500    1.2990    0.0000 N   0  0  0  0  0  0  0  0  0  0  0  0
   -3.0000    2.5981    0.0000 C   0  0  0  0  0  0  0  0  0  0  0  0
   -1.5000    2.5981    0.0000 C   0  0  0  0  0  0  0  0  0  0  0  0
   -0.7500    3.8971    0.0000 C   0  0  0  0  0  0  0  0  0  0  0  0
   -1.5000    5.1962    0.0000 C   0  0  0  0  0  0  0  0  0  0  0  0
   -0.7500    6.4952    0.0000 O   0  0  0  0  0  0  0  0  0  0  0  0
    0.7500    6.4952    0.0000 C   0  0  0  0  0  0  0  0  0  0  0  0
    1.5000    7.7942    0.0000 C   0  0  0  0  0  0  0  0  0  0  0  0
    3.0000    7.7942    0.0000 C   0  0  0  0  0  0  0  0  0  0  0  0
    3.7500    9.0933    0.0000 C   0  0  0  0  0  0  0  0  0  0  0  0
    3.0000   10.3923    0.0000 C   0  0  0  0  0  0  0  0  0  0  0  0
    1.5000   10.3923    0.0000 C   0  0  0  0  0  0  0  0  0  0  0  0
    0.7500    9.0933    0.0000 N   0  0  0  0  0  0  0  0  0  0  0  0
   -3.0000    5.1962    0.0000 C   0  0  0  0  0  0  0  0  0  0  0  0
   -3.7500    6.4952    0.0000 Cl  0  0  0  0  0  0  0  0  0  0  0  0
   -3.7500    3.8971    0.0000 C   0  0  0  0  0  0  0  0  0  0  0  0
   -1.5000    0.0000    0.0000 C   0  0  0  0  0  0  0  0  0  0  0  0
   -0.7500    1.2990    0.0000 C   0  0  0  0  0  0  0  0  0  0  0  0
    0.7500    1.2990    0.0000 C   0  0  0  0  0  0  0  0  0  0  0  0
    1.5000    2.5981    0.0000 N   0  0  0  0  0  0  0  0  0  0  0  0
    3.0000    2.5981    0.0000 C   0  0  0  0  0  0  0  0  0  0  0  0
    3.7500    1.2990    0.0000 O   0  0  0  0  0  0  0  0  0  0  0  0
    3.7500    3.8971    0.0000 C   0  0  0  0  0  0  0  0  0  0  0  0
    5.2500    3.8971    0.0000 C   0  0  0  0  0  0  0  0  0  0  0  0
    6.0000    5.1962    0.0000 C   0  0  0  0  0  0  0  0  0  0  0  0
    7.5000    5.1962    0.0000 N   0  0  0  0  0  0  0  0  0  0  0  0
    8.2500    6.4952    0.0000 C   0  0  0  0  0  0  0  0  0  0  0  0
    8.2500    3.8971    0.0000 C   0  0  0  0  0  0  0  0  0  0  0  0
  1  2  1  0
  2  3  1  0
  3  4  1  0
  4  5  2  0
  5  6  1  0
  6  7  2  0
  7  8  1  0
  8  9  2  0
  9 10  1  0
 10 11  3  0
  9 12  1  0
 12 13  1  0
 13 14  1  0
 14 15  2  0
 15 16  1  0
 16 17  2  0
 17 18  1  0
 18 19  1  0
 19 20  1  0
 20 21  2  0
 21 22  1  0
 22 23  2  0
 23 24  1  0
 24 25  2  0
 17 26  1  0
 26 27  1  0
 26 28  2  0
 12 29  2  0
 29 30  1  0
 30 31  2  0
 31 32  1  0
 32 33  1  0
 33 34  2  0
 33 35  1  0
 35 36  2  0
 36 37  1  0
 37 38  1  0
 38 39  1  0
 38 40  1  0
 31  4  1  0
 29  6  1  0
 28 14  1  0
 25 20  1  0
M  END
>  <Compound_ID>  (958) 
CHEMBL180022

>  <Active>  (958) 
1.0

>  <Smiles>  (958) 
CCOc1cc2ncc(C#N)c(Nc3ccc(OCc4ccccn4)c(Cl)c3)c2cc1NC(=O)/C=C/CN(C)C

>  <canonical_smi>  (958) 
CCOc1cc2ncc(C#N)c(Nc3ccc(OCc4ccccn4)c(Cl)c3)c2cc1NC(=O)/C=C/CN(C)C

>  <Set>  (958) 
G2 active

>  <Set_type>  (958) 
Test

>  <MW>  (958) 
557.05

>  <HBD>  (958) 
2

>  <HBA>  (958) 
8

>  <NRB>  (958) 
11

>  <NR>  (958) 
4

>  <NAR>  (958) 
4

>  <PSA>  (958) 
112.4

>  <Standard Type>  (958) 
nan

>  <Standard Relation>  (958) 
nan

>  <Standard Units>  (958) 
nan

>  <Standard Value>  (958) 
nan

>  <Assay ChEMBL ID>  (958) 
nan

>  <Assay Description>  (958) 
nan

>  <BAO Label>  (958) 
nan

$$$$

     RDKit          2D

 33 36  0  0  0  0  0  0  0  0999 V2000
    5.2500  -14.2894    0.0000 C   0  0  0  0  0  0  0  0  0  0  0  0
    4.5000  -12.9904    0.0000 N   0  0  0  0  0  0  0  0  0  0  0  0
    3.0000  -12.9904    0.0000 C   0  0  0  0  0  0  0  0  0  0  0  0
    2.2500  -11.6913    0.0000 C   0  0  0  0  0  0  0  0  0  0  0  0
    3.0000  -10.3923    0.0000 N   0  0  0  0  0  0  0  0  0  0  0  0
    2.2500   -9.0933    0.0000 C   0  0  0  0  0  0  0  0  0  0  0  0
    3.0000   -7.7942    0.0000 C   0  0  0  0  0  0  0  0  0  0  0  0
    2.2500   -6.4952    0.0000 C   0  0  0  0  0  0  0  0  0  0  0  0
    1.5000   -5.1962    0.0000 C   0  0  0  0  0  0  0  0  0  0  0  0
    0.7500   -3.8971    0.0000 C   0  0  0  0  0  0  0  0  0  0  0  0
   -0.7500   -3.8971    0.0000 O   0  0  0  0  0  0  0  0  0  0  0  0
    1.5000   -2.5981    0.0000 N   0  0  0  0  0  0  0  0  0  0  0  0
    0.7500   -1.2990    0.0000 C   0  0  0  0  0  0  0  0  0  0  0  0
    1.5000    0.0000    0.0000 C   0  0  0  0  0  0  0  0  0  0  0  0
    0.7500    1.2990    0.0000 C   0  0  0  0  0  0  0  0  0  0  0  0
    1.5000    2.5981    0.0000 C   0  0  0  0  0  0  0  0  0  0  0  0
    3.0000    2.5981    0.0000 N   0  0  0  0  0  0  0  0  0  0  0  0
    3.7500    3.8971    0.0000 C   0  0  0  0  0  0  0  0  0  0  0  0
    5.2500    3.8971    0.0000 C   0  0  0  0  0  0  0  0  0  0  0  0
    6.0000    5.1962    0.0000 C   0  0  0  0  0  0  0  0  0  0  0  0
    5.2500    6.4952    0.0000 C   0  0  0  0  0  0  0  0  0  0  0  0
    6.0000    7.7942    0.0000 F   0  0  0  0  0  0  0  0  0  0  0  0
    3.7500    6.4952    0.0000 C   0  0  0  0  0  0  0  0  0  0  0  0
    3.0000    7.7942    0.0000 Cl  0  0  0  0  0  0  0  0  0  0  0  0
    3.0000    5.1962    0.0000 C   0  0  0  0  0  0  0  0  0  0  0  0
    0.7500    3.8971    0.0000 N   0  0  0  0  0  0  0  0  0  0  0  0
   -0.7500    3.8971    0.0000 C   0  0  0  0  0  0  0  0  0  0  0  0
   -1.5000    2.5981    0.0000 N   0  0  0  0  0  0  0  0  0  0  0  0
   -0.7500    1.2990    0.0000 C   0  0  0  0  0  0  0  0  0  0  0  0
   -1.5000    0.0000    0.0000 C   0  0  0  0  0  0  0  0  0  0  0  0
   -0.7500   -1.2990    0.0000 N   0  0  0  0  0  0  0  0  0  0  0  0
    4.5000  -10.3923    0.0000 C   0  0  0  0  0  0  0  0  0  0  0  0
    5.2500  -11.6913    0.0000 C   0  0  0  0  0  0  0  0  0  0  0  0
  1  2  1  0
  2  3  1  0
  3  4  1  0
  4  5  1  0
  5  6  1  0
  6  7  1  0
  7  8  1  0
  8  9  3  0
  9 10  1  0
 10 11  2  0
 10 12  1  0
 12 13  1  0
 13 14  2  0
 14 15  1  0
 15 16  2  0
 16 17  1  0
 17 18  1  0
 18 19  2  0
 19 20  1  0
 20 21  2  0
 21 22  1  0
 21 23  1  0
 23 24  1  0
 23 25  2  0
 16 26  1  0
 26 27  2  0
 27 28  1  0
 28 29  2  0
 29 30  1  0
 30 31  2  0
  5 32  1  0
 32 33  1  0
 33  2  1  0
 31 13  1  0
 29 15  1  0
 25 18  1  0
M  END
>  <Compound_ID>  (959) 
CHEMBL203599

>  <Active>  (959) 
1.0

>  <Smiles>  (959) 
CN1CCN(CCC#CC(=O)Nc2cc3c(Nc4ccc(F)c(Cl)c4)ncnc3cn2)CC1

>  <canonical_smi>  (959) 
CN1CCN(CCC#CC(=O)Nc2cc3c(Nc4ccc(F)c(Cl)c4)ncnc3cn2)CC1

>  <Set>  (959) 
G2 active

>  <Set_type>  (959) 
Test

>  <MW>  (959) 
467.94

>  <HBD>  (959) 
2

>  <HBA>  (959) 
7

>  <NRB>  (959) 
5

>  <NR>  (959) 
4

>  <NAR>  (959) 
3

>  <PSA>  (959) 
86.28

>  <Standard Type>  (959) 
nan

>  <Standard Relation>  (959) 
nan

>  <Standard Units>  (959) 
nan

>  <Standard Value>  (959) 
nan

>  <Assay ChEMBL ID>  (959) 
nan

>  <Assay Description>  (959) 
nan

>  <BAO Label>  (959) 
nan

$$$$

     RDKit          2D

 27 30  0  0  0  0  0  0  0  0999 V2000
    6.0000   -0.0000    0.0000 Br  0  0  0  0  0  0  0  0  0  0  0  0
    5.2500   -1.2990    0.0000 C   0  0  0  0  0  0  0  0  0  0  0  0
    6.0000   -2.5981    0.0000 C   0  0  0  0  0  0  0  0  0  0  0  0
    5.2500   -3.8971    0.0000 C   0  0  0  0  0  0  0  0  0  0  0  0
    3.7500   -3.8971    0.0000 C   0  0  0  0  0  0  0  0  0  0  0  0
    3.0000   -2.5981    0.0000 C   0  0  0  0  0  0  0  0  0  0  0  0
    1.5000   -2.5981    0.0000 N   0  0  0  0  0  0  0  0  0  0  0  0
    0.7500   -1.2990    0.0000 C   0  0  0  0  0  0  0  0  0  0  0  0
    1.5000    0.0000    0.0000 N   0  0  0  0  0  0  0  0  0  0  0  0
    0.7500    1.2990    0.0000 C   0  0  0  0  0  0  0  0  0  0  0  0
   -0.7500    1.2990    0.0000 N   0  0  0  0  0  0  0  0  0  0  0  0
   -1.5000    0.0000    0.0000 C   0  0  0  0  0  0  0  0  0  0  0  0
   -3.0000    0.0000    0.0000 C   0  0  0  0  0  0  0  0  0  0  0  0
   -3.7500   -1.2990    0.0000 N   0  0  0  0  0  0  0  0  0  0  0  0
   -3.0000   -2.5981    0.0000 C   0  0  0  0  0  0  0  0  0  0  0  0
   -3.7500   -3.8971    0.0000 N   0  0  0  0  0  0  0  0  0  0  0  0
   -5.2500   -3.8971    0.0000 C   0  0  0  0  0  0  0  0  0  0  0  0
   -6.0000   -5.1962    0.0000 C   0  0  0  0  0  0  0  0  0  0  0  0
   -7.5000   -5.1962    0.0000 N   0  0  0  0  0  0  0  0  0  0  0  0
   -8.2500   -3.8971    0.0000 C   0  0  0  0  0  0  0  0  0  0  0  0
   -9.7500   -3.8971    0.0000 C   0  0  0  0  0  0  0  0  0  0  0  0
  -10.5000   -5.1962    0.0000 O   0  0  0  0  0  0  0  0  0  0  0  0
   -9.7500   -6.4952    0.0000 C   0  0  0  0  0  0  0  0  0  0  0  0
   -8.2500   -6.4952    0.0000 C   0  0  0  0  0  0  0  0  0  0  0  0
   -1.5000   -2.5981    0.0000 C   0  0  0  0  0  0  0  0  0  0  0  0
   -0.7500   -1.2990    0.0000 C   0  0  0  0  0  0  0  0  0  0  0  0
    3.7500   -1.2990    0.0000 C   0  0  0  0  0  0  0  0  0  0  0  0
  1  2  1  0
  2  3  2  0
  3  4  1  0
  4  5  2  0
  5  6  1  0
  6  7  1  0
  7  8  1  0
  8  9  2  0
  9 10  1  0
 10 11  2  0
 11 12  1  0
 12 13  2  0
 13 14  1  0
 14 15  2  0
 15 16  1  0
 16 17  1  0
 17 18  1  0
 18 19  1  0
 19 20  1  0
 20 21  1  0
 21 22  1  0
 22 23  1  0
 23 24  1  0
 15 25  1  0
 25 26  2  0
  6 27  2  0
 27  2  1  0
 26  8  1  0
 26 12  1  0
 24 19  1  0
M  END
>  <Compound_ID>  (960) 
CHEMBL162622

>  <Active>  (960) 
1.0

>  <Smiles>  (960) 
Brc1cccc(Nc2ncnc3cnc(NCCN4CCOCC4)cc23)c1

>  <canonical_smi>  (960) 
Brc1cccc(Nc2ncnc3cnc(NCCN4CCOCC4)cc23)c1

>  <Set>  (960) 
G2 active

>  <Set_type>  (960) 
Test

>  <MW>  (960) 
429.32

>  <HBD>  (960) 
2

>  <HBA>  (960) 
7

>  <NRB>  (960) 
6

>  <NR>  (960) 
4

>  <NAR>  (960) 
3

>  <PSA>  (960) 
75.2

>  <Standard Type>  (960) 
nan

>  <Standard Relation>  (960) 
nan

>  <Standard Units>  (960) 
nan

>  <Standard Value>  (960) 
nan

>  <Assay ChEMBL ID>  (960) 
nan

>  <Assay Description>  (960) 
nan

>  <BAO Label>  (960) 
nan

$$$$

     RDKit          2D

 27 30  0  0  0  0  0  0  0  0999 V2000
    6.0000   -0.0000    0.0000 Br  0  0  0  0  0  0  0  0  0  0  0  0
    5.2500   -1.2990    0.0000 C   0  0  0  0  0  0  0  0  0  0  0  0
    6.0000   -2.5981    0.0000 C   0  0  0  0  0  0  0  0  0  0  0  0
    5.2500   -3.8971    0.0000 C   0  0  0  0  0  0  0  0  0  0  0  0
    3.7500   -3.8971    0.0000 C   0  0  0  0  0  0  0  0  0  0  0  0
    3.0000   -2.5981    0.0000 C   0  0  0  0  0  0  0  0  0  0  0  0
    1.5000   -2.5981    0.0000 N   0  0  0  0  0  0  0  0  0  0  0  0
    0.7500   -1.2990    0.0000 C   0  0  0  0  0  0  0  0  0  0  0  0
    1.5000    0.0000    0.0000 N   0  0  0  0  0  0  0  0  0  0  0  0
    0.7500    1.2990    0.0000 C   0  0  0  0  0  0  0  0  0  0  0  0
   -0.7500    1.2990    0.0000 N   0  0  0  0  0  0  0  0  0  0  0  0
   -1.5000    0.0000    0.0000 C   0  0  0  0  0  0  0  0  0  0  0  0
   -3.0000    0.0000    0.0000 C   0  0  0  0  0  0  0  0  0  0  0  0
   -3.7500   -1.2990    0.0000 N   0  0  0  0  0  0  0  0  0  0  0  0
   -3.0000   -2.5981    0.0000 C   0  0  0  0  0  0  0  0  0  0  0  0
   -3.7500   -3.8971    0.0000 N   0  0  0  0  0  0  0  0  0  0  0  0
   -5.2500   -3.8971    0.0000 C   0  0  0  0  0  0  0  0  0  0  0  0
   -6.0000   -5.1962    0.0000 C   0  0  0  0  0  0  0  0  0  0  0  0
   -7.5000   -5.1962    0.0000 N   0  0  0  0  0  0  0  0  0  0  0  0
   -8.2500   -3.8971    0.0000 C   0  0  0  0  0  0  0  0  0  0  0  0
   -9.7500   -3.8971    0.0000 C   0  0  0  0  0  0  0  0  0  0  0  0
  -10.5000   -5.1962    0.0000 O   0  0  0  0  0  0  0  0  0  0  0  0
   -9.7500   -6.4952    0.0000 C   0  0  0  0  0  0  0  0  0  0  0  0
   -8.2500   -6.4952    0.0000 C   0  0  0  0  0  0  0  0  0  0  0  0
   -1.5000   -2.5981    0.0000 N   0  0  0  0  0  0  0  0  0  0  0  0
   -0.7500   -1.2990    0.0000 C   0  0  0  0  0  0  0  0  0  0  0  0
    3.7500   -1.2990    0.0000 C   0  0  0  0  0  0  0  0  0  0  0  0
  1  2  1  0
  2  3  2  0
  3  4  1  0
  4  5  2  0
  5  6  1  0
  6  7  1  0
  7  8  1  0
  8  9  2  0
  9 10  1  0
 10 11  2  0
 11 12  1  0
 12 13  2  0
 13 14  1  0
 14 15  2  0
 15 16  1  0
 16 17  1  0
 17 18  1  0
 18 19  1  0
 19 20  1  0
 20 21  1  0
 21 22  1  0
 22 23  1  0
 23 24  1  0
 15 25  1  0
 25 26  2  0
  6 27  2  0
 27  2  1  0
 26  8  1  0
 26 12  1  0
 24 19  1  0
M  END
>  <Compound_ID>  (961) 
CHEMBL294475

>  <Active>  (961) 
1.0

>  <Smiles>  (961) 
Brc1cccc(Nc2ncnc3cnc(NCCN4CCOCC4)nc23)c1

>  <canonical_smi>  (961) 
Brc1cccc(Nc2ncnc3cnc(NCCN4CCOCC4)nc23)c1

>  <Set>  (961) 
G2 active

>  <Set_type>  (961) 
Test

>  <MW>  (961) 
430.31

>  <HBD>  (961) 
2

>  <HBA>  (961) 
8

>  <NRB>  (961) 
6

>  <NR>  (961) 
4

>  <NAR>  (961) 
3

>  <PSA>  (961) 
88.09

>  <Standard Type>  (961) 
nan

>  <Standard Relation>  (961) 
nan

>  <Standard Units>  (961) 
nan

>  <Standard Value>  (961) 
nan

>  <Assay ChEMBL ID>  (961) 
nan

>  <Assay Description>  (961) 
nan

>  <BAO Label>  (961) 
nan

$$$$

     RDKit          2D

 32 35  0  0  0  0  0  0  0  0999 V2000
   -0.7500   -3.8971    0.0000 O   0  0  0  0  0  0  0  0  0  0  0  0
    0.7500   -3.8971    0.0000 C   0  0  0  0  0  0  0  0  0  0  0  0
    1.5000   -5.1962    0.0000 C   0  0  0  0  0  0  0  0  0  0  0  0
    2.2500   -6.4952    0.0000 C   0  0  0  0  0  0  0  0  0  0  0  0
    3.0000   -7.7942    0.0000 C   0  0  0  0  0  0  0  0  0  0  0  0
    2.2500   -9.0933    0.0000 C   0  0  0  0  0  0  0  0  0  0  0  0
    3.0000  -10.3923    0.0000 N   0  0  0  0  0  0  0  0  0  0  0  0
    2.2500  -11.6913    0.0000 C   0  0  0  0  0  0  0  0  0  0  0  0
    3.0000  -12.9904    0.0000 C   0  0  0  0  0  0  0  0  0  0  0  0
    4.5000  -12.9904    0.0000 C   0  0  0  0  0  0  0  0  0  0  0  0
    5.2500  -11.6913    0.0000 C   0  0  0  0  0  0  0  0  0  0  0  0
    4.5000  -10.3923    0.0000 C   0  0  0  0  0  0  0  0  0  0  0  0
    1.5000   -2.5981    0.0000 N   0  0  0  0  0  0  0  0  0  0  0  0
    0.7500   -1.2990    0.0000 C   0  0  0  0  0  0  0  0  0  0  0  0
    1.5000    0.0000    0.0000 C   0  0  0  0  0  0  0  0  0  0  0  0
    0.7500    1.2990    0.0000 C   0  0  0  0  0  0  0  0  0  0  0  0
    1.5000    2.5981    0.0000 C   0  0  0  0  0  0  0  0  0  0  0  0
    3.0000    2.5981    0.0000 N   0  0  0  0  0  0  0  0  0  0  0  0
    3.7500    3.8971    0.0000 C   0  0  0  0  0  0  0  0  0  0  0  0
    5.2500    3.8971    0.0000 C   0  0  0  0  0  0  0  0  0  0  0  0
    6.0000    5.1962    0.0000 C   0  0  0  0  0  0  0  0  0  0  0  0
    5.2500    6.4952    0.0000 C   0  0  0  0  0  0  0  0  0  0  0  0
    6.0000    7.7942    0.0000 F   0  0  0  0  0  0  0  0  0  0  0  0
    3.7500    6.4952    0.0000 C   0  0  0  0  0  0  0  0  0  0  0  0
    3.0000    7.7942    0.0000 Cl  0  0  0  0  0  0  0  0  0  0  0  0
    3.0000    5.1962    0.0000 C   0  0  0  0  0  0  0  0  0  0  0  0
    0.7500    3.8971    0.0000 N   0  0  0  0  0  0  0  0  0  0  0  0
   -0.7500    3.8971    0.0000 C   0  0  0  0  0  0  0  0  0  0  0  0
   -1.5000    2.5981    0.0000 N   0  0  0  0  0  0  0  0  0  0  0  0
   -0.7500    1.2990    0.0000 C   0  0  0  0  0  0  0  0  0  0  0  0
   -1.5000    0.0000    0.0000 C   0  0  0  0  0  0  0  0  0  0  0  0
   -0.7500   -1.2990    0.0000 N   0  0  0  0  0  0  0  0  0  0  0  0
  1  2  2  0
  2  3  1  0
  3  4  3  0
  4  5  1  0
  5  6  1  0
  6  7  1  0
  7  8  1  0
  8  9  1  0
  9 10  1  0
 10 11  1  0
 11 12  1  0
  2 13  1  0
 13 14  1  0
 14 15  2  0
 15 16  1  0
 16 17  2  0
 17 18  1  0
 18 19  1  0
 19 20  2  0
 20 21  1  0
 21 22  2  0
 22 23  1  0
 22 24  1  0
 24 25  1  0
 24 26  2  0
 17 27  1  0
 27 28  2  0
 28 29  1  0
 29 30  2  0
 30 31  1  0
 31 32  2  0
 12  7  1  0
 32 14  1  0
 30 16  1  0
 26 19  1  0
M  END
>  <Compound_ID>  (962) 
CHEMBL205059

>  <Active>  (962) 
1.0

>  <Smiles>  (962) 
O=C(C#CCCN1CCCCC1)Nc1cc2c(Nc3ccc(F)c(Cl)c3)ncnc2cn1

>  <canonical_smi>  (962) 
O=C(C#CCCN1CCCCC1)Nc1cc2c(Nc3ccc(F)c(Cl)c3)ncnc2cn1

>  <Set>  (962) 
G2 active

>  <Set_type>  (962) 
Test

>  <MW>  (962) 
452.92

>  <HBD>  (962) 
2

>  <HBA>  (962) 
6

>  <NRB>  (962) 
5

>  <NR>  (962) 
4

>  <NAR>  (962) 
3

>  <PSA>  (962) 
83.04

>  <Standard Type>  (962) 
nan

>  <Standard Relation>  (962) 
nan

>  <Standard Units>  (962) 
nan

>  <Standard Value>  (962) 
nan

>  <Assay ChEMBL ID>  (962) 
nan

>  <Assay Description>  (962) 
nan

>  <BAO Label>  (962) 
nan

$$$$

     RDKit          2D

 35 40  0  0  0  0  0  0  0  0999 V2000
   -6.4952  -11.8573    0.0000 N   0  0  0  0  0  0  0  0  0  0  0  0
   -5.1962  -12.6073    0.0000 C   0  0  0  0  0  0  0  0  0  0  0  0
   -5.1962  -14.1073    0.0000 O   0  0  0  0  0  0  0  0  0  0  0  0
   -3.8971  -11.8573    0.0000 C   0  0  0  0  0  0  0  0  0  0  0  0
   -3.8971  -10.3573    0.0000 C   0  0  0  0  0  0  0  0  0  0  0  0
   -2.5981   -9.6073    0.0000 C   0  0  0  0  0  0  0  0  0  0  0  0
   -1.2990  -10.3573    0.0000 N   0  0  0  0  0  0  0  0  0  0  0  0
   -0.0000   -9.6073    0.0000 C   0  0  0  0  0  0  0  0  0  0  0  0
   -0.0000   -8.1073    0.0000 C   0  0  0  0  0  0  0  0  0  0  0  0
    1.2990   -7.3573    0.0000 C   0  0  0  0  0  0  0  0  0  0  0  0
    1.2990   -5.8573    0.0000 C   0  0  0  0  0  0  0  0  0  0  0  0
   -0.0000   -5.1073    0.0000 C   0  0  0  0  0  0  0  0  0  0  0  0
   -0.0000   -3.6073    0.0000 C   0  0  0  0  0  0  0  0  0  0  0  0
    1.2135   -2.7256    0.0000 C   0  0  0  0  0  0  0  0  0  0  0  0
    0.7500   -1.2990    0.0000 C   0  0  0  0  0  0  0  0  0  0  0  0
    1.5000    0.0000    0.0000 N   0  0  0  0  0  0  0  0  0  0  0  0
    0.7500    1.2990    0.0000 C   0  0  0  0  0  0  0  0  0  0  0  0
   -0.7500    1.2990    0.0000 C   0  0  0  0  0  0  0  0  0  0  0  0
   -1.5000    0.0000    0.0000 C   0  0  0  0  0  0  0  0  0  0  0  0
   -3.0000    0.0000    0.0000 N   0  0  0  0  0  0  0  0  0  0  0  0
   -3.7500    1.2990    0.0000 C   0  0  0  0  0  0  0  0  0  0  0  0
   -3.0000    2.5981    0.0000 C   0  0  0  0  0  0  0  0  0  0  0  0
   -3.7500    3.8971    0.0000 C   0  0  0  0  0  0  0  0  0  0  0  0
   -5.2500    3.8971    0.0000 C   0  0  0  0  0  0  0  0  0  0  0  0
   -6.2537    5.0118    0.0000 N   0  0  0  0  0  0  0  0  0  0  0  0
   -7.6240    4.4017    0.0000 C   0  0  0  0  0  0  0  0  0  0  0  0
   -7.4672    2.9099    0.0000 C   0  0  0  0  0  0  0  0  0  0  0  0
   -6.0000    2.5981    0.0000 C   0  0  0  0  0  0  0  0  0  0  0  0
   -5.2500    1.2990    0.0000 C   0  0  0  0  0  0  0  0  0  0  0  0
   -0.7500   -1.2990    0.0000 C   0  0  0  0  0  0  0  0  0  0  0  0
   -1.2135   -2.7256    0.0000 S   0  0  0  0  0  0  0  0  0  0  0  0
   -1.2990   -5.8573    0.0000 C   0  0  0  0  0  0  0  0  0  0  0  0
   -1.2990   -7.3573    0.0000 C   0  0  0  0  0  0  0  0  0  0  0  0
   -1.2990  -11.8573    0.0000 C   0  0  0  0  0  0  0  0  0  0  0  0
   -2.5981  -12.6073    0.0000 C   0  0  0  0  0  0  0  0  0  0  0  0
  1  2  1  0
  2  3  2  0
  2  4  1  0
  4  5  1  0
  5  6  1  0
  6  7  1  0
  7  8  1  0
  8  9  1  0
  9 10  2  0
 10 11  1  0
 11 12  2  0
 12 13  1  0
 13 14  2  0
 14 15  1  0
 15 16  2  0
 16 17  1  0
 17 18  2  0
 18 19  1  0
 19 20  1  0
 20 21  1  0
 21 22  2  0
 22 23  1  0
 23 24  2  0
 24 25  1  0
 25 26  1  0
 26 27  2  0
 27 28  1  0
 28 29  2  0
 19 30  2  0
 30 31  1  0
 12 32  1  0
 32 33  2  0
  7 34  1  0
 34 35  1  0
 35  4  1  0
 33  9  1  0
 31 13  1  0
 30 15  1  0
 29 21  1  0
 28 24  1  0
M  END
>  <Compound_ID>  (963) 
CHEMBL431977

>  <Active>  (963) 
1.0

>  <Smiles>  (963) 
NC(=O)C1CCN(Cc2ccc(-c3cc4nccc(Nc5ccc6[nH]ccc6c5)c4s3)cc2)CC1

>  <canonical_smi>  (963) 
NC(=O)C1CCN(Cc2ccc(-c3cc4nccc(Nc5ccc6[nH]ccc6c5)c4s3)cc2)CC1

>  <Set>  (963) 
G2 active

>  <Set_type>  (963) 
Test

>  <MW>  (963) 
481.63

>  <HBD>  (963) 
3

>  <HBA>  (963) 
4

>  <NRB>  (963) 
6

>  <NR>  (963) 
6

>  <NAR>  (963) 
5

>  <PSA>  (963) 
87.04

>  <Standard Type>  (963) 
nan

>  <Standard Relation>  (963) 
nan

>  <Standard Units>  (963) 
nan

>  <Standard Value>  (963) 
nan

>  <Assay ChEMBL ID>  (963) 
nan

>  <Assay Description>  (963) 
nan

>  <BAO Label>  (963) 
nan

$$$$

     RDKit          2D

 34 38  0  0  0  0  0  0  0  0999 V2000
    6.0000   -5.1962    0.0000 Cl  0  0  0  0  0  0  0  0  0  0  0  0
    5.2500   -3.8971    0.0000 C   0  0  0  0  0  0  0  0  0  0  0  0
    3.7500   -3.8971    0.0000 C   0  0  0  0  0  0  0  0  0  0  0  0
    3.0000   -2.5981    0.0000 C   0  0  0  0  0  0  0  0  0  0  0  0
    1.5000   -2.5981    0.0000 N   0  0  0  0  0  0  0  0  0  0  0  0
    0.7500   -1.2990    0.0000 C   0  0  0  0  0  0  0  0  0  0  0  0
    1.5000    0.0000    0.0000 N   0  0  0  0  0  0  0  0  0  0  0  0
    0.7500    1.2990    0.0000 C   0  0  0  0  0  0  0  0  0  0  0  0
   -0.7500    1.2990    0.0000 N   0  0  0  0  0  0  0  0  0  0  0  0
   -1.5000    0.0000    0.0000 C   0  0  0  0  0  0  0  0  0  0  0  0
   -2.9672   -0.3119    0.0000 N   0  0  0  0  0  0  0  0  0  0  0  0
   -3.1240   -1.8037    0.0000 N   0  0  0  0  0  0  0  0  0  0  0  0
   -1.7537   -2.4138    0.0000 C   0  0  0  0  0  0  0  0  0  0  0  0
   -1.4418   -3.8810    0.0000 O   0  0  0  0  0  0  0  0  0  0  0  0
   -2.5565   -4.8847    0.0000 C   0  0  0  0  0  0  0  0  0  0  0  0
   -2.2447   -6.3519    0.0000 C   0  0  0  0  0  0  0  0  0  0  0  0
   -3.3594   -7.3556    0.0000 N   0  0  0  0  0  0  0  0  0  0  0  0
   -4.7860   -6.8921    0.0000 C   0  0  0  0  0  0  0  0  0  0  0  0
   -5.9007   -7.8958    0.0000 C   0  0  0  0  0  0  0  0  0  0  0  0
   -5.5888   -9.3630    0.0000 O   0  0  0  0  0  0  0  0  0  0  0  0
   -4.1622   -9.8265    0.0000 C   0  0  0  0  0  0  0  0  0  0  0  0
   -3.0475   -8.8228    0.0000 C   0  0  0  0  0  0  0  0  0  0  0  0
   -0.7500   -1.2990    0.0000 C   0  0  0  0  0  0  0  0  0  0  0  0
    3.7500   -1.2990    0.0000 C   0  0  0  0  0  0  0  0  0  0  0  0
    5.2500   -1.2990    0.0000 C   0  0  0  0  0  0  0  0  0  0  0  0
    6.0000   -2.5981    0.0000 C   0  0  0  0  0  0  0  0  0  0  0  0
    7.5000   -2.5981    0.0000 O   0  0  0  0  0  0  0  0  0  0  0  0
    8.2500   -1.2990    0.0000 C   0  0  0  0  0  0  0  0  0  0  0  0
    9.7500   -1.2990    0.0000 C   0  0  0  0  0  0  0  0  0  0  0  0
   10.5000   -2.5981    0.0000 C   0  0  0  0  0  0  0  0  0  0  0  0
   12.0000   -2.5981    0.0000 C   0  0  0  0  0  0  0  0  0  0  0  0
   12.7500   -1.2990    0.0000 C   0  0  0  0  0  0  0  0  0  0  0  0
   12.0000   -0.0000    0.0000 C   0  0  0  0  0  0  0  0  0  0  0  0
   10.5000   -0.0000    0.0000 N   0  0  0  0  0  0  0  0  0  0  0  0
  1  2  1  0
  2  3  2  0
  3  4  1  0
  4  5  1  0
  5  6  1  0
  6  7  2  0
  7  8  1  0
  8  9  2  0
  9 10  1  0
 10 11  1  0
 11 12  1  0
 12 13  2  0
 13 14  1  0
 14 15  1  0
 15 16  1  0
 16 17  1  0
 17 18  1  0
 18 19  1  0
 19 20  1  0
 20 21  1  0
 21 22  1  0
 13 23  1  0
  4 24  2  0
 24 25  1  0
 25 26  2  0
 26 27  1  0
 27 28  1  0
 28 29  1  0
 29 30  2  0
 30 31  1  0
 31 32  2  0
 32 33  1  0
 33 34  2  0
 26  2  1  0
 34 29  1  0
 23  6  1  0
 23 10  2  0
 22 17  1  0
M  END
>  <Compound_ID>  (964) 
CHEMBL271705

>  <Active>  (964) 
1.0

>  <Smiles>  (964) 
Clc1cc(Nc2ncnc3[nH]nc(OCCN4CCOCC4)c23)ccc1OCc1ccccn1

>  <canonical_smi>  (964) 
Clc1cc(Nc2ncnc3[nH]nc(OCCN4CCOCC4)c23)ccc1OCc1ccccn1

>  <Set>  (964) 
G2 active

>  <Set_type>  (964) 
Test

>  <MW>  (964) 
481.94

>  <HBD>  (964) 
2

>  <HBA>  (964) 
9

>  <NRB>  (964) 
9

>  <NR>  (964) 
5

>  <NAR>  (964) 
4

>  <PSA>  (964) 
110.31

>  <Standard Type>  (964) 
nan

>  <Standard Relation>  (964) 
nan

>  <Standard Units>  (964) 
nan

>  <Standard Value>  (964) 
nan

>  <Assay ChEMBL ID>  (964) 
nan

>  <Assay Description>  (964) 
nan

>  <BAO Label>  (964) 
nan

$$$$

     RDKit          2D

 34 37  0  0  0  0  0  0  0  0999 V2000
   -7.5000   -5.1962    0.0000 C   0  0  0  0  0  0  0  0  0  0  0  0
   -6.0000   -5.1962    0.0000 C   0  0  0  0  0  0  0  0  0  0  0  0
   -5.2500   -3.8971    0.0000 C   0  0  0  0  0  0  0  0  0  0  0  0
   -6.0000   -2.5981    0.0000 O   0  0  0  0  0  0  0  0  0  0  0  0
   -3.7500   -3.8971    0.0000 N   0  0  0  0  0  0  0  0  0  0  0  0
   -3.0000   -2.5981    0.0000 C   0  0  0  0  0  0  0  0  0  0  0  0
   -1.5000   -2.5981    0.0000 N   0  0  0  0  0  0  0  0  0  0  0  0
   -0.7500   -1.2990    0.0000 C   0  0  0  0  0  0  0  0  0  0  0  0
    0.7500   -1.2990    0.0000 C   0  0  0  0  0  0  0  0  0  0  0  0
    1.5000   -2.5981    0.0000 N   0  0  0  0  0  0  0  0  0  0  0  0
    3.0000   -2.5981    0.0000 C   0  0  0  0  0  0  0  0  0  0  0  0
    3.7500   -3.8971    0.0000 C   0  0  0  0  0  0  0  0  0  0  0  0
    5.2500   -3.8971    0.0000 C   0  0  0  0  0  0  0  0  0  0  0  0
    6.0000   -2.5981    0.0000 C   0  0  0  0  0  0  0  0  0  0  0  0
    7.5000   -2.5981    0.0000 F   0  0  0  0  0  0  0  0  0  0  0  0
    5.2500   -1.2990    0.0000 C   0  0  0  0  0  0  0  0  0  0  0  0
    6.0000   -0.0000    0.0000 Cl  0  0  0  0  0  0  0  0  0  0  0  0
    3.7500   -1.2990    0.0000 C   0  0  0  0  0  0  0  0  0  0  0  0
    1.5000    0.0000    0.0000 N   0  0  0  0  0  0  0  0  0  0  0  0
    0.7500    1.2990    0.0000 C   0  0  0  0  0  0  0  0  0  0  0  0
   -0.7500    1.2990    0.0000 N   0  0  0  0  0  0  0  0  0  0  0  0
   -1.5000    0.0000    0.0000 C   0  0  0  0  0  0  0  0  0  0  0  0
   -3.0000    0.0000    0.0000 C   0  0  0  0  0  0  0  0  0  0  0  0
   -3.7500   -1.2990    0.0000 C   0  0  0  0  0  0  0  0  0  0  0  0
   -5.2500   -1.2990    0.0000 O   0  0  0  0  0  0  0  0  0  0  0  0
   -6.0000    0.0000    0.0000 C   0  0  0  0  0  0  0  0  0  0  0  0
   -7.5000    0.0000    0.0000 C   0  0  0  0  0  0  0  0  0  0  0  0
   -8.2500    1.2990    0.0000 C   0  0  0  0  0  0  0  0  0  0  0  0
   -9.7500    1.2990    0.0000 N   0  0  0  0  0  0  0  0  0  0  0  0
  -10.5000    2.5981    0.0000 C   0  0  0  0  0  0  0  0  0  0  0  0
  -12.0000    2.5981    0.0000 C   0  0  0  0  0  0  0  0  0  0  0  0
  -12.7500    1.2990    0.0000 O   0  0  0  0  0  0  0  0  0  0  0  0
  -12.0000    0.0000    0.0000 C   0  0  0  0  0  0  0  0  0  0  0  0
  -10.5000    0.0000    0.0000 C   0  0  0  0  0  0  0  0  0  0  0  0
  1  2  2  0
  2  3  1  0
  3  4  2  0
  3  5  1  0
  5  6  1  0
  6  7  2  0
  7  8  1  0
  8  9  2  0
  9 10  1  0
 10 11  1  0
 11 12  2  0
 12 13  1  0
 13 14  2  0
 14 15  1  0
 14 16  1  0
 16 17  1  0
 16 18  2  0
  9 19  1  0
 19 20  2  0
 20 21  1  0
 21 22  2  0
 22 23  1  0
 23 24  2  0
 24 25  1  0
 25 26  1  0
 26 27  1  0
 27 28  1  0
 28 29  1  0
 29 30  1  0
 30 31  1  0
 31 32  1  0
 32 33  1  0
 33 34  1  0
 24  6  1  0
 34 29  1  0
 22  8  1  0
 18 11  1  0
M  END
>  <Compound_ID>  (965) 
CHEMBL31656

>  <Active>  (965) 
1.0

>  <Smiles>  (965) 
C=CC(=O)Nc1nc2c(Nc3ccc(F)c(Cl)c3)ncnc2cc1OCCCN1CCOCC1

>  <canonical_smi>  (965) 
C=CC(=O)Nc1nc2c(Nc3ccc(F)c(Cl)c3)ncnc2cc1OCCCN1CCOCC1

>  <Set>  (965) 
G2 active

>  <Set_type>  (965) 
Test

>  <MW>  (965) 
486.94

>  <HBD>  (965) 
2

>  <HBA>  (965) 
8

>  <NRB>  (965) 
9

>  <NR>  (965) 
4

>  <NAR>  (965) 
3

>  <PSA>  (965) 
101.5

>  <Standard Type>  (965) 
nan

>  <Standard Relation>  (965) 
nan

>  <Standard Units>  (965) 
nan

>  <Standard Value>  (965) 
nan

>  <Assay ChEMBL ID>  (965) 
nan

>  <Assay Description>  (965) 
nan

>  <BAO Label>  (965) 
nan

$$$$

     RDKit          2D

 34 37  0  0  0  0  0  0  0  0999 V2000
   -7.5000   -5.1962    0.0000 C   0  0  0  0  0  0  0  0  0  0  0  0
   -6.0000   -5.1962    0.0000 C   0  0  0  0  0  0  0  0  0  0  0  0
   -5.2500   -3.8971    0.0000 C   0  0  0  0  0  0  0  0  0  0  0  0
   -6.0000   -2.5981    0.0000 O   0  0  0  0  0  0  0  0  0  0  0  0
   -3.7500   -3.8971    0.0000 N   0  0  0  0  0  0  0  0  0  0  0  0
   -3.0000   -2.5981    0.0000 C   0  0  0  0  0  0  0  0  0  0  0  0
   -1.5000   -2.5981    0.0000 N   0  0  0  0  0  0  0  0  0  0  0  0
   -0.7500   -1.2990    0.0000 C   0  0  0  0  0  0  0  0  0  0  0  0
    0.7500   -1.2990    0.0000 C   0  0  0  0  0  0  0  0  0  0  0  0
    1.5000   -2.5981    0.0000 C   0  0  0  0  0  0  0  0  0  0  0  0
    3.0000   -2.5981    0.0000 C   0  0  0  0  0  0  0  0  0  0  0  0
    3.7500   -3.8971    0.0000 C   0  0  0  0  0  0  0  0  0  0  0  0
    5.2500   -3.8971    0.0000 C   0  0  0  0  0  0  0  0  0  0  0  0
    6.0000   -2.5981    0.0000 C   0  0  0  0  0  0  0  0  0  0  0  0
    7.5000   -2.5981    0.0000 F   0  0  0  0  0  0  0  0  0  0  0  0
    5.2500   -1.2990    0.0000 C   0  0  0  0  0  0  0  0  0  0  0  0
    6.0000   -0.0000    0.0000 Cl  0  0  0  0  0  0  0  0  0  0  0  0
    3.7500   -1.2990    0.0000 C   0  0  0  0  0  0  0  0  0  0  0  0
    1.5000    0.0000    0.0000 N   0  0  0  0  0  0  0  0  0  0  0  0
    0.7500    1.2990    0.0000 C   0  0  0  0  0  0  0  0  0  0  0  0
   -0.7500    1.2990    0.0000 N   0  0  0  0  0  0  0  0  0  0  0  0
   -1.5000    0.0000    0.0000 C   0  0  0  0  0  0  0  0  0  0  0  0
   -3.0000    0.0000    0.0000 C   0  0  0  0  0  0  0  0  0  0  0  0
   -3.7500   -1.2990    0.0000 C   0  0  0  0  0  0  0  0  0  0  0  0
   -5.2500   -1.2990    0.0000 O   0  0  0  0  0  0  0  0  0  0  0  0
   -6.0000    0.0000    0.0000 C   0  0  0  0  0  0  0  0  0  0  0  0
   -7.5000    0.0000    0.0000 C   0  0  0  0  0  0  0  0  0  0  0  0
   -8.2500    1.2990    0.0000 C   0  0  0  0  0  0  0  0  0  0  0  0
   -9.7500    1.2990    0.0000 N   0  0  0  0  0  0  0  0  0  0  0  0
  -10.5000    2.5981    0.0000 C   0  0  0  0  0  0  0  0  0  0  0  0
  -12.0000    2.5981    0.0000 C   0  0  0  0  0  0  0  0  0  0  0  0
  -12.7500    1.2990    0.0000 O   0  0  0  0  0  0  0  0  0  0  0  0
  -12.0000    0.0000    0.0000 C   0  0  0  0  0  0  0  0  0  0  0  0
  -10.5000    0.0000    0.0000 C   0  0  0  0  0  0  0  0  0  0  0  0
  1  2  2  0
  2  3  1  0
  3  4  2  0
  3  5  1  0
  5  6  1  0
  6  7  2  0
  7  8  1  0
  8  9  2  0
  9 10  1  0
 10 11  1  0
 11 12  2  0
 12 13  1  0
 13 14  2  0
 14 15  1  0
 14 16  1  0
 16 17  1  0
 16 18  2  0
  9 19  1  0
 19 20  2  0
 20 21  1  0
 21 22  2  0
 22 23  1  0
 23 24  2  0
 24 25  1  0
 25 26  1  0
 26 27  1  0
 27 28  1  0
 28 29  1  0
 29 30  1  0
 30 31  1  0
 31 32  1  0
 32 33  1  0
 33 34  1  0
 24  6  1  0
 34 29  1  0
 22  8  1  0
 18 11  1  0
M  END
>  <Compound_ID>  (966) 
CHEMBL489897

>  <Active>  (966) 
1.0

>  <Smiles>  (966) 
C=CC(=O)Nc1nc2c(Cc3ccc(F)c(Cl)c3)ncnc2cc1OCCCN1CCOCC1

>  <canonical_smi>  (966) 
C=CC(=O)Nc1nc2c(Cc3ccc(F)c(Cl)c3)ncnc2cc1OCCCN1CCOCC1

>  <Set>  (966) 
G2 active

>  <Set_type>  (966) 
Test

>  <MW>  (966) 
485.95

>  <HBD>  (966) 
1

>  <HBA>  (966) 
7

>  <NRB>  (966) 
9

>  <NR>  (966) 
4

>  <NAR>  (966) 
3

>  <PSA>  (966) 
89.47

>  <Standard Type>  (966) 
nan

>  <Standard Relation>  (966) 
nan

>  <Standard Units>  (966) 
nan

>  <Standard Value>  (966) 
nan

>  <Assay ChEMBL ID>  (966) 
nan

>  <Assay Description>  (966) 
nan

>  <BAO Label>  (966) 
nan

$$$$

     RDKit          2D

 41 46  0  0  0  0  0  0  0  0999 V2000
   -5.2500   -3.8971    0.0000 C   0  0  0  0  0  0  0  0  0  0  0  0
   -3.7500   -3.8971    0.0000 O   0  0  0  0  0  0  0  0  0  0  0  0
   -3.0000   -2.5981    0.0000 C   0  0  0  0  0  0  0  0  0  0  0  0
   -1.5000   -2.5981    0.0000 C   0  0  0  0  0  0  0  0  0  0  0  0
   -0.7500   -1.2990    0.0000 C   0  0  0  0  0  0  0  0  0  0  0  0
    0.7500   -1.2990    0.0000 C   0  0  0  0  0  0  0  0  0  0  0  0
    1.5000   -2.5981    0.0000 N   0  0  0  0  0  0  0  0  0  0  0  0
    3.0000   -2.5981    0.0000 C   0  0  0  0  0  0  0  0  0  0  0  0
    3.7500   -3.8971    0.0000 C   0  0  0  0  0  0  0  0  0  0  0  0
    5.2500   -3.8971    0.0000 C   0  0  0  0  0  0  0  0  0  0  0  0
    6.0000   -2.5981    0.0000 C   0  0  0  0  0  0  0  0  0  0  0  0
    7.5000   -2.5981    0.0000 C   0  0  0  0  0  0  0  0  0  0  0  0
    8.3817   -3.8116    0.0000 N   0  0  0  0  0  0  0  0  0  0  0  0
    9.8083   -3.3481    0.0000 C   0  0  0  0  0  0  0  0  0  0  0  0
   11.1073   -4.0981    0.0000 C   0  0  0  0  0  0  0  0  0  0  0  0
   12.4063   -3.3481    0.0000 C   0  0  0  0  0  0  0  0  0  0  0  0
   12.4063   -1.8481    0.0000 C   0  0  0  0  0  0  0  0  0  0  0  0
   11.1073   -1.0981    0.0000 C   0  0  0  0  0  0  0  0  0  0  0  0
    9.8083   -1.8481    0.0000 C   0  0  0  0  0  0  0  0  0  0  0  0
    8.3817   -1.3846    0.0000 S   0  0  0  0  0  0  0  0  0  0  0  0
    5.2500   -1.2990    0.0000 C   0  0  0  0  0  0  0  0  0  0  0  0
    6.0000   -0.0000    0.0000 O   0  0  0  0  0  0  0  0  0  0  0  0
    5.2500    1.2990    0.0000 C   0  0  0  0  0  0  0  0  0  0  0  0
    3.7500   -1.2990    0.0000 C   0  0  0  0  0  0  0  0  0  0  0  0
    1.5000    0.0000    0.0000 N   0  0  0  0  0  0  0  0  0  0  0  0
    0.7500    1.2990    0.0000 C   0  0  0  0  0  0  0  0  0  0  0  0
   -0.7500    1.2990    0.0000 N   0  0  0  0  0  0  0  0  0  0  0  0
   -1.5000    0.0000    0.0000 C   0  0  0  0  0  0  0  0  0  0  0  0
   -3.0000    0.0000    0.0000 C   0  0  0  0  0  0  0  0  0  0  0  0
   -3.7500   -1.2990    0.0000 C   0  0  0  0  0  0  0  0  0  0  0  0
   -5.2500   -1.2990    0.0000 O   0  0  0  0  0  0  0  0  0  0  0  0
   -6.0000    0.0000    0.0000 C   0  0  0  0  0  0  0  0  0  0  0  0
   -7.5000    0.0000    0.0000 C   0  0  0  0  0  0  0  0  0  0  0  0
   -8.2500    1.2990    0.0000 C   0  0  0  0  0  0  0  0  0  0  0  0
   -9.7500    1.2990    0.0000 N   0  0  0  0  0  0  0  0  0  0  0  0
  -10.5000    2.5981    0.0000 C   0  0  0  0  0  0  0  0  0  0  0  0
  -12.0000    2.5981    0.0000 C   0  0  0  0  0  0  0  0  0  0  0  0
  -12.7500    1.2990    0.0000 N   0  0  0  0  0  0  0  0  0  0  0  0
  -14.2500    1.2990    0.0000 C   0  0  0  0  0  0  0  0  0  0  0  0
  -12.0000    0.0000    0.0000 C   0  0  0  0  0  0  0  0  0  0  0  0
  -10.5000    0.0000    0.0000 C   0  0  0  0  0  0  0  0  0  0  0  0
  1  2  1  0
  2  3  1  0
  3  4  2  0
  4  5  1  0
  5  6  2  0
  6  7  1  0
  7  8  1  0
  8  9  2  0
  9 10  1  0
 10 11  2  0
 11 12  1  0
 12 13  2  0
 13 14  1  0
 14 15  2  0
 15 16  1  0
 16 17  2  0
 17 18  1  0
 18 19  2  0
 19 20  1  0
 11 21  1  0
 21 22  1  0
 22 23  1  0
 21 24  2  0
  6 25  1  0
 25 26  2  0
 26 27  1  0
 27 28  2  0
 28 29  1  0
 29 30  2  0
 30 31  1  0
 31 32  1  0
 32 33  1  0
 33 34  1  0
 34 35  1  0
 35 36  1  0
 36 37  1  0
 37 38  1  0
 38 39  1  0
 38 40  1  0
 40 41  1  0
 30  3  1  0
 41 35  1  0
 28  5  1  0
 24  8  1  0
 20 12  1  0
 19 14  1  0
M  END
>  <Compound_ID>  (967) 
CHEMBL593860

>  <Active>  (967) 
1.0

>  <Smiles>  (967) 
COc1cc2c(Nc3ccc(-c4nc5ccccc5s4)c(OC)c3)ncnc2cc1OCCCN1CCN(C)CC1

>  <canonical_smi>  (967) 
COc1cc2c(Nc3ccc(-c4nc5ccccc5s4)c(OC)c3)ncnc2cc1OCCCN1CCN(C)CC1

>  <Set>  (967) 
G2 active

>  <Set_type>  (967) 
Test

>  <MW>  (967) 
570.72

>  <HBD>  (967) 
1

>  <HBA>  (967) 
9

>  <NRB>  (967) 
10

>  <NR>  (967) 
6

>  <NAR>  (967) 
5

>  <PSA>  (967) 
84.87

>  <Standard Type>  (967) 
nan

>  <Standard Relation>  (967) 
nan

>  <Standard Units>  (967) 
nan

>  <Standard Value>  (967) 
nan

>  <Assay ChEMBL ID>  (967) 
nan

>  <Assay Description>  (967) 
nan

>  <BAO Label>  (967) 
nan

$$$$

     RDKit          2D

 35 39  0  0  0  0  0  0  0  0999 V2000
   -5.6213   -4.5165    0.0000 C   0  0  0  0  0  0  0  0  0  0  0  0
   -4.3223   -5.2665    0.0000 C   0  0  0  0  0  0  0  0  0  0  0  0
   -4.1655   -6.7583    0.0000 C   0  0  0  0  0  0  0  0  0  0  0  0
   -2.6983   -7.0701    0.0000 C   0  0  0  0  0  0  0  0  0  0  0  0
   -2.0882   -8.4404    0.0000 C   0  0  0  0  0  0  0  0  0  0  0  0
   -0.5964   -8.5972    0.0000 O   0  0  0  0  0  0  0  0  0  0  0  0
   -2.9699   -9.6540    0.0000 N   0  0  0  0  0  0  0  0  0  0  0  0
   -4.4616   -9.4972    0.0000 C   0  0  0  0  0  0  0  0  0  0  0  0
   -5.3433  -10.7107    0.0000 C   0  0  0  0  0  0  0  0  0  0  0  0
   -4.7332  -12.0810    0.0000 N   0  0  0  0  0  0  0  0  0  0  0  0
   -5.6149  -13.2945    0.0000 C   0  0  0  0  0  0  0  0  0  0  0  0
   -3.2414  -12.2378    0.0000 C   0  0  0  0  0  0  0  0  0  0  0  0
   -2.3597  -11.0243    0.0000 C   0  0  0  0  0  0  0  0  0  0  0  0
   -1.9483   -5.7711    0.0000 N   0  0  0  0  0  0  0  0  0  0  0  0
   -2.9520   -4.6564    0.0000 C   0  0  0  0  0  0  0  0  0  0  0  0
   -2.6401   -3.1891    0.0000 C   0  0  0  0  0  0  0  0  0  0  0  0
   -1.2135   -2.7256    0.0000 C   0  0  0  0  0  0  0  0  0  0  0  0
   -0.0000   -3.6073    0.0000 C   0  0  0  0  0  0  0  0  0  0  0  0
    0.0000   -5.1073    0.0000 O   0  0  0  0  0  0  0  0  0  0  0  0
    1.2135   -2.7256    0.0000 N   0  0  0  0  0  0  0  0  0  0  0  0
    0.7500   -1.2990    0.0000 C   0  0  0  0  0  0  0  0  0  0  0  0
    1.5000    0.0000    0.0000 N   0  0  0  0  0  0  0  0  0  0  0  0
    0.7500    1.2990    0.0000 C   0  0  0  0  0  0  0  0  0  0  0  0
   -0.7500    1.2990    0.0000 N   0  0  0  0  0  0  0  0  0  0  0  0
   -1.5000    0.0000    0.0000 C   0  0  0  0  0  0  0  0  0  0  0  0
   -3.0000    0.0000    0.0000 N   0  0  0  0  0  0  0  0  0  0  0  0
   -3.7500    1.2990    0.0000 C   0  0  0  0  0  0  0  0  0  0  0  0
   -3.0000    2.5981    0.0000 C   0  0  0  0  0  0  0  0  0  0  0  0
   -3.7500    3.8971    0.0000 C   0  0  0  0  0  0  0  0  0  0  0  0
   -5.2500    3.8971    0.0000 C   0  0  0  0  0  0  0  0  0  0  0  0
   -6.0000    5.1962    0.0000 F   0  0  0  0  0  0  0  0  0  0  0  0
   -6.0000    2.5981    0.0000 C   0  0  0  0  0  0  0  0  0  0  0  0
   -7.5000    2.5981    0.0000 Cl  0  0  0  0  0  0  0  0  0  0  0  0
   -5.2500    1.2990    0.0000 C   0  0  0  0  0  0  0  0  0  0  0  0
   -0.7500   -1.2990    0.0000 C   0  0  0  0  0  0  0  0  0  0  0  0
  1  2  1  0
  2  3  1  0
  3  4  2  0
  4  5  1  0
  5  6  2  0
  5  7  1  0
  7  8  1  0
  8  9  1  0
  9 10  1  0
 10 11  1  0
 10 12  1  0
 12 13  1  0
  4 14  1  0
 14 15  1  0
 15 16  1  0
 16 17  2  0
 17 18  1  0
 18 19  2  0
 18 20  1  0
 20 21  1  0
 21 22  2  0
 22 23  1  0
 23 24  2  0
 24 25  1  0
 25 26  1  0
 26 27  1  0
 27 28  2  0
 28 29  1  0
 29 30  2  0
 30 31  1  0
 30 32  1  0
 32 33  1  0
 32 34  2  0
 25 35  2  0
 15  2  2  0
 35 17  1  0
 13  7  1  0
 35 21  1  0
 34 27  1  0
M  END
>  <Compound_ID>  (968) 
CHEMBL305246

>  <Active>  (968) 
1.0

>  <Smiles>  (968) 
Cc1cc(C(=O)N2CCN(C)CC2)[nH]c1/C=C1\C(=O)Nc2ncnc(Nc3ccc(F)c(Cl)c3)c21

>  <canonical_smi>  (968) 
Cc1cc(C(=O)N2CCN(C)CC2)[nH]c1/C=C1\C(=O)Nc2ncnc(Nc3ccc(F)c(Cl)c3)c21

>  <Set>  (968) 
G2 active

>  <Set_type>  (968) 
Test

>  <MW>  (968) 
495.95

>  <HBD>  (968) 
3

>  <HBA>  (968) 
6

>  <NRB>  (968) 
4

>  <NR>  (968) 
5

>  <NAR>  (968) 
3

>  <PSA>  (968) 
106.25

>  <Standard Type>  (968) 
nan

>  <Standard Relation>  (968) 
nan

>  <Standard Units>  (968) 
nan

>  <Standard Value>  (968) 
nan

>  <Assay ChEMBL ID>  (968) 
nan

>  <Assay Description>  (968) 
nan

>  <BAO Label>  (968) 
nan

$$$$

     RDKit          2D

 37 41  0  0  0  0  0  0  0  0999 V2000
   -7.0526  -11.4523    0.0000 C   0  0  0  0  0  0  0  0  0  0  0  0
   -5.6260  -10.9888    0.0000 C   0  0  0  0  0  0  0  0  0  0  0  0
   -4.5113  -11.9925    0.0000 O   0  0  0  0  0  0  0  0  0  0  0  0
   -5.3142   -9.5216    0.0000 N   0  0  0  0  0  0  0  0  0  0  0  0
   -6.4289   -8.5179    0.0000 C   0  0  0  0  0  0  0  0  0  0  0  0
   -6.1170   -7.0506    0.0000 C   0  0  0  0  0  0  0  0  0  0  0  0
   -4.6904   -6.5871    0.0000 N   0  0  0  0  0  0  0  0  0  0  0  0
   -4.3786   -5.1199    0.0000 C   0  0  0  0  0  0  0  0  0  0  0  0
   -2.9520   -4.6564    0.0000 C   0  0  0  0  0  0  0  0  0  0  0  0
   -2.6401   -3.1891    0.0000 O   0  0  0  0  0  0  0  0  0  0  0  0
   -1.2135   -2.7256    0.0000 C   0  0  0  0  0  0  0  0  0  0  0  0
   -0.0000   -3.6073    0.0000 N   0  0  0  0  0  0  0  0  0  0  0  0
    1.2135   -2.7256    0.0000 N   0  0  0  0  0  0  0  0  0  0  0  0
    0.7500   -1.2990    0.0000 C   0  0  0  0  0  0  0  0  0  0  0  0
    1.5000    0.0000    0.0000 N   0  0  0  0  0  0  0  0  0  0  0  0
    0.7500    1.2990    0.0000 C   0  0  0  0  0  0  0  0  0  0  0  0
   -0.7500    1.2990    0.0000 N   0  0  0  0  0  0  0  0  0  0  0  0
   -1.5000    0.0000    0.0000 C   0  0  0  0  0  0  0  0  0  0  0  0
   -3.0000    0.0000    0.0000 N   0  0  0  0  0  0  0  0  0  0  0  0
   -3.7500    1.2990    0.0000 C   0  0  0  0  0  0  0  0  0  0  0  0
   -3.0000    2.5981    0.0000 C   0  0  0  0  0  0  0  0  0  0  0  0
   -3.7500    3.8971    0.0000 C   0  0  0  0  0  0  0  0  0  0  0  0
   -5.2500    3.8971    0.0000 C   0  0  0  0  0  0  0  0  0  0  0  0
   -6.0000    5.1962    0.0000 O   0  0  0  0  0  0  0  0  0  0  0  0
   -5.2500    6.4952    0.0000 C   0  0  0  0  0  0  0  0  0  0  0  0
   -6.0000    7.7942    0.0000 C   0  0  0  0  0  0  0  0  0  0  0  0
   -5.2500    9.0933    0.0000 C   0  0  0  0  0  0  0  0  0  0  0  0
   -6.0000   10.3923    0.0000 C   0  0  0  0  0  0  0  0  0  0  0  0
   -7.5000   10.3923    0.0000 C   0  0  0  0  0  0  0  0  0  0  0  0
   -8.2500    9.0933    0.0000 C   0  0  0  0  0  0  0  0  0  0  0  0
   -7.5000    7.7942    0.0000 N   0  0  0  0  0  0  0  0  0  0  0  0
   -6.0000    2.5981    0.0000 C   0  0  0  0  0  0  0  0  0  0  0  0
   -7.5000    2.5981    0.0000 Cl  0  0  0  0  0  0  0  0  0  0  0  0
   -5.2500    1.2990    0.0000 C   0  0  0  0  0  0  0  0  0  0  0  0
   -0.7500   -1.2990    0.0000 C   0  0  0  0  0  0  0  0  0  0  0  0
   -3.5757   -7.5908    0.0000 C   0  0  0  0  0  0  0  0  0  0  0  0
   -3.8876   -9.0580    0.0000 C   0  0  0  0  0  0  0  0  0  0  0  0
  1  2  1  0
  2  3  2  0
  2  4  1  0
  4  5  1  0
  5  6  1  0
  6  7  1  0
  7  8  1  0
  8  9  1  0
  9 10  1  0
 10 11  1  0
 11 12  2  0
 12 13  1  0
 13 14  1  0
 14 15  2  0
 15 16  1  0
 16 17  2  0
 17 18  1  0
 18 19  1  0
 19 20  1  0
 20 21  2  0
 21 22  1  0
 22 23  2  0
 23 24  1  0
 24 25  1  0
 25 26  1  0
 26 27  2  0
 27 28  1  0
 28 29  2  0
 29 30  1  0
 30 31  2  0
 23 32  1  0
 32 33  1  0
 32 34  2  0
 18 35  2  0
  7 36  1  0
 36 37  1  0
 37  4  1  0
 35 11  1  0
 35 14  1  0
 34 20  1  0
 31 26  1  0
M  END
>  <Compound_ID>  (969) 
CHEMBL258270

>  <Active>  (969) 
1.0

>  <Smiles>  (969) 
CC(=O)N1CCN(CCOc2n[nH]c3ncnc(Nc4ccc(OCc5ccccn5)c(Cl)c4)c23)CC1

>  <canonical_smi>  (969) 
CC(=O)N1CCN(CCOc2n[nH]c3ncnc(Nc4ccc(OCc5ccccn5)c(Cl)c4)c23)CC1

>  <Set>  (969) 
G2 active

>  <Set_type>  (969) 
Test

>  <MW>  (969) 
523.0

>  <HBD>  (969) 
2

>  <HBA>  (969) 
9

>  <NRB>  (969) 
9

>  <NR>  (969) 
5

>  <NAR>  (969) 
4

>  <PSA>  (969) 
121.39

>  <Standard Type>  (969) 
nan

>  <Standard Relation>  (969) 
nan

>  <Standard Units>  (969) 
nan

>  <Standard Value>  (969) 
nan

>  <Assay ChEMBL ID>  (969) 
nan

>  <Assay Description>  (969) 
nan

>  <BAO Label>  (969) 
nan

$$$$

     RDKit          2D

 35 39  0  0  0  0  0  0  0  0999 V2000
    3.7500   -1.2990    0.0000 C   0  0  0  0  0  0  0  0  0  0  0  0
    3.0000    0.0000    0.0000 O   0  0  0  0  0  0  0  0  0  0  0  0
    1.5000    0.0000    0.0000 C   0  0  0  0  0  0  0  0  0  0  0  0
    0.7500   -1.2990    0.0000 C   0  0  0  0  0  0  0  0  0  0  0  0
   -0.7500   -1.2990    0.0000 C   0  0  0  0  0  0  0  0  0  0  0  0
   -1.5000   -2.5981    0.0000 C   0  0  0  0  0  0  0  0  0  0  0  0
   -0.7500   -3.8971    0.0000 N   0  0  0  0  0  0  0  0  0  0  0  0
   -1.5000   -5.1962    0.0000 C   0  0  0  0  0  0  0  0  0  0  0  0
   -2.7990   -5.9462    0.0000 C   0  0  0  0  0  0  0  0  0  0  0  0
   -1.5000   -6.6962    0.0000 C   0  0  0  0  0  0  0  0  0  0  0  0
   -0.7500   -7.9952    0.0000 C   0  0  0  0  0  0  0  0  0  0  0  0
    0.7500   -7.9952    0.0000 C   0  0  0  0  0  0  0  0  0  0  0  0
    1.5000   -9.2942    0.0000 C   0  0  0  0  0  0  0  0  0  0  0  0
    0.7500  -10.5933    0.0000 C   0  0  0  0  0  0  0  0  0  0  0  0
   -0.7500  -10.5933    0.0000 C   0  0  0  0  0  0  0  0  0  0  0  0
   -1.5000   -9.2942    0.0000 C   0  0  0  0  0  0  0  0  0  0  0  0
   -3.0000   -2.5981    0.0000 C   0  0  0  0  0  0  0  0  0  0  0  0
   -3.7500   -3.8971    0.0000 C   0  0  0  0  0  0  0  0  0  0  0  0
   -4.5000   -5.1962    0.0000 N   0  0  0  0  0  0  0  0  0  0  0  0
   -3.7500   -1.2990    0.0000 C   0  0  0  0  0  0  0  0  0  0  0  0
   -3.0000    0.0000    0.0000 N   0  0  0  0  0  0  0  0  0  0  0  0
   -1.5000    0.0000    0.0000 C   0  0  0  0  0  0  0  0  0  0  0  0
   -0.7500    1.2990    0.0000 C   0  0  0  0  0  0  0  0  0  0  0  0
    0.7500    1.2990    0.0000 C   0  0  0  0  0  0  0  0  0  0  0  0
    1.5000    2.5981    0.0000 O   0  0  0  0  0  0  0  0  0  0  0  0
    0.7500    3.8971    0.0000 C   0  0  0  0  0  0  0  0  0  0  0  0
    1.5000    5.1962    0.0000 C   0  0  0  0  0  0  0  0  0  0  0  0
    0.7500    6.4952    0.0000 C   0  0  0  0  0  0  0  0  0  0  0  0
    1.5000    7.7942    0.0000 N   0  0  0  0  0  0  0  0  0  0  0  0
    3.0000    7.7942    0.0000 C   0  0  0  0  0  0  0  0  0  0  0  0
    3.7500    9.0933    0.0000 C   0  0  0  0  0  0  0  0  0  0  0  0
    3.0000   10.3923    0.0000 N   0  0  0  0  0  0  0  0  0  0  0  0
    3.7500   11.6913    0.0000 C   0  0  0  0  0  0  0  0  0  0  0  0
    1.5000   10.3923    0.0000 C   0  0  0  0  0  0  0  0  0  0  0  0
    0.7500    9.0933    0.0000 C   0  0  0  0  0  0  0  0  0  0  0  0
  1  2  1  0
  2  3  1  0
  3  4  2  0
  4  5  1  0
  5  6  2  0
  6  7  1  0
  8  7  1  1
  8  9  1  0
  9 10  1  0
 10 11  1  6
 11 12  2  0
 12 13  1  0
 13 14  2  0
 14 15  1  0
 15 16  2  0
  6 17  1  0
 17 18  1  0
 18 19  3  0
 17 20  2  0
 20 21  1  0
 21 22  2  0
 22 23  1  0
 23 24  2  0
 24 25  1  0
 25 26  1  0
 26 27  1  0
 27 28  1  0
 28 29  1  0
 29 30  1  0
 30 31  1  0
 31 32  1  0
 32 33  1  0
 32 34  1  0
 34 35  1  0
 24  3  1  0
 35 29  1  0
 22  5  1  0
 10  8  1  0
 16 11  1  0
M  END
>  <Compound_ID>  (970) 
CHEMBL248393

>  <Active>  (970) 
1.0

>  <Smiles>  (970) 
COc1cc2c(N[C@@H]3C[C@H]3c3ccccc3)c(C#N)cnc2cc1OCCCN1CCN(C)CC1

>  <canonical_smi>  (970) 
COc1cc2c(N[C@@H]3C[C@H]3c3ccccc3)c(C#N)cnc2cc1OCCCN1CCN(C)CC1

>  <Set>  (970) 
G2 active

>  <Set_type>  (970) 
Test

>  <MW>  (970) 
471.61

>  <HBD>  (970) 
1

>  <HBA>  (970) 
7

>  <NRB>  (970) 
9

>  <NR>  (970) 
5

>  <NAR>  (970) 
3

>  <PSA>  (970) 
73.65

>  <Standard Type>  (970) 
nan

>  <Standard Relation>  (970) 
nan

>  <Standard Units>  (970) 
nan

>  <Standard Value>  (970) 
nan

>  <Assay ChEMBL ID>  (970) 
nan

>  <Assay Description>  (970) 
nan

>  <BAO Label>  (970) 
nan

$$$$

     RDKit          2D

 31 34  0  0  0  0  0  0  0  0999 V2000
   -0.7500   -3.8971    0.0000 O   0  0  0  0  0  0  0  0  0  0  0  0
    0.7500   -3.8971    0.0000 C   0  0  0  0  0  0  0  0  0  0  0  0
    1.5000   -5.1962    0.0000 C   0  0  0  0  0  0  0  0  0  0  0  0
    2.2500   -6.4952    0.0000 C   0  0  0  0  0  0  0  0  0  0  0  0
    3.0000   -7.7942    0.0000 C   0  0  0  0  0  0  0  0  0  0  0  0
    2.2500   -9.0933    0.0000 N   0  0  0  0  0  0  0  0  0  0  0  0
    0.7500   -9.0933    0.0000 C   0  0  0  0  0  0  0  0  0  0  0  0
   -0.0000  -10.3923    0.0000 C   0  0  0  0  0  0  0  0  0  0  0  0
    0.7500  -11.6913    0.0000 O   0  0  0  0  0  0  0  0  0  0  0  0
    2.2500  -11.6913    0.0000 C   0  0  0  0  0  0  0  0  0  0  0  0
    3.0000  -10.3923    0.0000 C   0  0  0  0  0  0  0  0  0  0  0  0
    1.5000   -2.5981    0.0000 N   0  0  0  0  0  0  0  0  0  0  0  0
    0.7500   -1.2990    0.0000 C   0  0  0  0  0  0  0  0  0  0  0  0
    1.5000    0.0000    0.0000 C   0  0  0  0  0  0  0  0  0  0  0  0
    0.7500    1.2990    0.0000 C   0  0  0  0  0  0  0  0  0  0  0  0
    1.5000    2.5981    0.0000 C   0  0  0  0  0  0  0  0  0  0  0  0
    3.0000    2.5981    0.0000 N   0  0  0  0  0  0  0  0  0  0  0  0
    3.7500    3.8971    0.0000 C   0  0  0  0  0  0  0  0  0  0  0  0
    5.2500    3.8971    0.0000 C   0  0  0  0  0  0  0  0  0  0  0  0
    6.0000    5.1962    0.0000 C   0  0  0  0  0  0  0  0  0  0  0  0
    5.2500    6.4952    0.0000 C   0  0  0  0  0  0  0  0  0  0  0  0
    6.0000    7.7942    0.0000 F   0  0  0  0  0  0  0  0  0  0  0  0
    3.7500    6.4952    0.0000 C   0  0  0  0  0  0  0  0  0  0  0  0
    3.0000    7.7942    0.0000 Cl  0  0  0  0  0  0  0  0  0  0  0  0
    3.0000    5.1962    0.0000 C   0  0  0  0  0  0  0  0  0  0  0  0
    0.7500    3.8971    0.0000 N   0  0  0  0  0  0  0  0  0  0  0  0
   -0.7500    3.8971    0.0000 C   0  0  0  0  0  0  0  0  0  0  0  0
   -1.5000    2.5981    0.0000 N   0  0  0  0  0  0  0  0  0  0  0  0
   -0.7500    1.2990    0.0000 C   0  0  0  0  0  0  0  0  0  0  0  0
   -1.5000    0.0000    0.0000 C   0  0  0  0  0  0  0  0  0  0  0  0
   -0.7500   -1.2990    0.0000 N   0  0  0  0  0  0  0  0  0  0  0  0
  1  2  2  0
  2  3  1  0
  3  4  3  0
  4  5  1  0
  5  6  1  0
  6  7  1  0
  7  8  1  0
  8  9  1  0
  9 10  1  0
 10 11  1  0
  2 12  1  0
 12 13  1  0
 13 14  2  0
 14 15  1  0
 15 16  2  0
 16 17  1  0
 17 18  1  0
 18 19  2  0
 19 20  1  0
 20 21  2  0
 21 22  1  0
 21 23  1  0
 23 24  1  0
 23 25  2  0
 16 26  1  0
 26 27  2  0
 27 28  1  0
 28 29  2  0
 29 30  1  0
 30 31  2  0
 11  6  1  0
 31 13  1  0
 29 15  1  0
 25 18  1  0
M  END
>  <Compound_ID>  (971) 
CHEMBL202556

>  <Active>  (971) 
1.0

>  <Smiles>  (971) 
O=C(C#CCN1CCOCC1)Nc1cc2c(Nc3ccc(F)c(Cl)c3)ncnc2cn1

>  <canonical_smi>  (971) 
O=C(C#CCN1CCOCC1)Nc1cc2c(Nc3ccc(F)c(Cl)c3)ncnc2cn1

>  <Set>  (971) 
G2 active

>  <Set_type>  (971) 
Test

>  <MW>  (971) 
440.87

>  <HBD>  (971) 
2

>  <HBA>  (971) 
7

>  <NRB>  (971) 
4

>  <NR>  (971) 
4

>  <NAR>  (971) 
3

>  <PSA>  (971) 
92.27

>  <Standard Type>  (971) 
nan

>  <Standard Relation>  (971) 
nan

>  <Standard Units>  (971) 
nan

>  <Standard Value>  (971) 
nan

>  <Assay ChEMBL ID>  (971) 
nan

>  <Assay Description>  (971) 
nan

>  <BAO Label>  (971) 
nan

$$$$

     RDKit          2D

 27 30  0  0  0  0  0  0  0  0999 V2000
    6.0000   -0.0000    0.0000 Br  0  0  0  0  0  0  0  0  0  0  0  0
    5.2500   -1.2990    0.0000 C   0  0  0  0  0  0  0  0  0  0  0  0
    6.0000   -2.5981    0.0000 C   0  0  0  0  0  0  0  0  0  0  0  0
    5.2500   -3.8971    0.0000 C   0  0  0  0  0  0  0  0  0  0  0  0
    3.7500   -3.8971    0.0000 C   0  0  0  0  0  0  0  0  0  0  0  0
    3.0000   -2.5981    0.0000 C   0  0  0  0  0  0  0  0  0  0  0  0
    1.5000   -2.5981    0.0000 N   0  0  0  0  0  0  0  0  0  0  0  0
    0.7500   -1.2990    0.0000 C   0  0  0  0  0  0  0  0  0  0  0  0
    1.5000    0.0000    0.0000 N   0  0  0  0  0  0  0  0  0  0  0  0
    0.7500    1.2990    0.0000 C   0  0  0  0  0  0  0  0  0  0  0  0
   -0.7500    1.2990    0.0000 N   0  0  0  0  0  0  0  0  0  0  0  0
   -1.5000    0.0000    0.0000 C   0  0  0  0  0  0  0  0  0  0  0  0
   -3.0000    0.0000    0.0000 C   0  0  0  0  0  0  0  0  0  0  0  0
   -3.7500   -1.2990    0.0000 C   0  0  0  0  0  0  0  0  0  0  0  0
   -5.2500   -1.2990    0.0000 N   0  0  0  0  0  0  0  0  0  0  0  0
   -6.0000    0.0000    0.0000 C   0  0  0  0  0  0  0  0  0  0  0  0
   -7.5000   -0.0000    0.0000 C   0  0  0  0  0  0  0  0  0  0  0  0
   -8.2500    1.2990    0.0000 N   0  0  0  0  0  0  0  0  0  0  0  0
   -7.5000    2.5981    0.0000 C   0  0  0  0  0  0  0  0  0  0  0  0
   -8.2500    3.8971    0.0000 C   0  0  0  0  0  0  0  0  0  0  0  0
   -9.7500    3.8971    0.0000 O   0  0  0  0  0  0  0  0  0  0  0  0
  -10.5000    2.5981    0.0000 C   0  0  0  0  0  0  0  0  0  0  0  0
   -9.7500    1.2990    0.0000 C   0  0  0  0  0  0  0  0  0  0  0  0
   -3.0000   -2.5981    0.0000 N   0  0  0  0  0  0  0  0  0  0  0  0
   -1.5000   -2.5981    0.0000 C   0  0  0  0  0  0  0  0  0  0  0  0
   -0.7500   -1.2990    0.0000 C   0  0  0  0  0  0  0  0  0  0  0  0
    3.7500   -1.2990    0.0000 C   0  0  0  0  0  0  0  0  0  0  0  0
  1  2  1  0
  2  3  2  0
  3  4  1  0
  4  5  2  0
  5  6  1  0
  6  7  1  0
  7  8  1  0
  8  9  2  0
  9 10  1  0
 10 11  2  0
 11 12  1  0
 12 13  2  0
 13 14  1  0
 14 15  1  0
 15 16  1  0
 16 17  1  0
 17 18  1  0
 18 19  1  0
 19 20  1  0
 20 21  1  0
 21 22  1  0
 22 23  1  0
 14 24  2  0
 24 25  1  0
 25 26  2  0
  6 27  2  0
 27  2  1  0
 26  8  1  0
 26 12  1  0
 23 18  1  0
M  END
>  <Compound_ID>  (972) 
CHEMBL128987

>  <Active>  (972) 
1.0

>  <Smiles>  (972) 
Brc1cccc(Nc2ncnc3cc(NCCN4CCOCC4)ncc23)c1

>  <canonical_smi>  (972) 
Brc1cccc(Nc2ncnc3cc(NCCN4CCOCC4)ncc23)c1

>  <Set>  (972) 
G2 active

>  <Set_type>  (972) 
Test

>  <MW>  (972) 
429.32

>  <HBD>  (972) 
2

>  <HBA>  (972) 
7

>  <NRB>  (972) 
6

>  <NR>  (972) 
4

>  <NAR>  (972) 
3

>  <PSA>  (972) 
75.2

>  <Standard Type>  (972) 
nan

>  <Standard Relation>  (972) 
nan

>  <Standard Units>  (972) 
nan

>  <Standard Value>  (972) 
nan

>  <Assay ChEMBL ID>  (972) 
nan

>  <Assay Description>  (972) 
nan

>  <BAO Label>  (972) 
nan

$$$$

     RDKit          2D

 29 33  0  0  0  0  0  0  0  0999 V2000
    6.0000   -0.0000    0.0000 Br  0  0  0  0  0  0  0  0  0  0  0  0
    5.2500   -1.2990    0.0000 C   0  0  0  0  0  0  0  0  0  0  0  0
    6.0000   -2.5981    0.0000 C   0  0  0  0  0  0  0  0  0  0  0  0
    5.2500   -3.8971    0.0000 C   0  0  0  0  0  0  0  0  0  0  0  0
    3.7500   -3.8971    0.0000 C   0  0  0  0  0  0  0  0  0  0  0  0
    3.0000   -2.5981    0.0000 C   0  0  0  0  0  0  0  0  0  0  0  0
    1.5000   -2.5981    0.0000 N   0  0  0  0  0  0  0  0  0  0  0  0
    0.7500   -1.2990    0.0000 C   0  0  0  0  0  0  0  0  0  0  0  0
    1.5000    0.0000    0.0000 N   0  0  0  0  0  0  0  0  0  0  0  0
    0.7500    1.2990    0.0000 C   0  0  0  0  0  0  0  0  0  0  0  0
   -0.7500    1.2990    0.0000 N   0  0  0  0  0  0  0  0  0  0  0  0
   -1.5000    0.0000    0.0000 C   0  0  0  0  0  0  0  0  0  0  0  0
   -3.0000    0.0000    0.0000 C   0  0  0  0  0  0  0  0  0  0  0  0
   -3.7500   -1.2990    0.0000 C   0  0  0  0  0  0  0  0  0  0  0  0
   -3.0000   -2.5981    0.0000 C   0  0  0  0  0  0  0  0  0  0  0  0
   -4.0037   -3.7128    0.0000 C   0  0  0  0  0  0  0  0  0  0  0  0
   -5.3740   -3.1027    0.0000 N   0  0  0  0  0  0  0  0  0  0  0  0
   -5.2172   -1.6109    0.0000 N   0  0  0  0  0  0  0  0  0  0  0  0
   -6.3319   -0.6072    0.0000 C   0  0  0  0  0  0  0  0  0  0  0  0
   -7.7585   -1.0707    0.0000 C   0  0  0  0  0  0  0  0  0  0  0  0
   -8.8732   -0.0670    0.0000 N   0  0  0  0  0  0  0  0  0  0  0  0
   -8.5614    1.4002    0.0000 C   0  0  0  0  0  0  0  0  0  0  0  0
   -9.6761    2.4039    0.0000 C   0  0  0  0  0  0  0  0  0  0  0  0
  -11.1027    1.9404    0.0000 O   0  0  0  0  0  0  0  0  0  0  0  0
  -11.4145    0.4731    0.0000 C   0  0  0  0  0  0  0  0  0  0  0  0
  -10.2998   -0.5306    0.0000 C   0  0  0  0  0  0  0  0  0  0  0  0
   -1.5000   -2.5981    0.0000 C   0  0  0  0  0  0  0  0  0  0  0  0
   -0.7500   -1.2990    0.0000 C   0  0  0  0  0  0  0  0  0  0  0  0
    3.7500   -1.2990    0.0000 C   0  0  0  0  0  0  0  0  0  0  0  0
  1  2  1  0
  2  3  2  0
  3  4  1  0
  4  5  2  0
  5  6  1  0
  6  7  1  0
  7  8  1  0
  8  9  2  0
  9 10  1  0
 10 11  2  0
 11 12  1  0
 12 13  2  0
 13 14  1  0
 14 15  2  0
 15 16  1  0
 16 17  2  0
 17 18  1  0
 18 19  1  0
 19 20  1  0
 20 21  1  0
 21 22  1  0
 22 23  1  0
 23 24  1  0
 24 25  1  0
 25 26  1  0
 15 27  1  0
 27 28  2  0
  6 29  2  0
 29  2  1  0
 28  8  1  0
 28 12  1  0
 18 14  1  0
 26 21  1  0
M  END
>  <Compound_ID>  (973) 
CHEMBL38199

>  <Active>  (973) 
1.0

>  <Smiles>  (973) 
Brc1cccc(Nc2ncnc3cc4c(cnn4CCN4CCOCC4)cc23)c1

>  <canonical_smi>  (973) 
Brc1cccc(Nc2ncnc3cc4c(cnn4CCN4CCOCC4)cc23)c1

>  <Set>  (973) 
G2 active

>  <Set_type>  (973) 
Test

>  <MW>  (973) 
453.34

>  <HBD>  (973) 
1

>  <HBA>  (973) 
6

>  <NRB>  (973) 
5

>  <NR>  (973) 
5

>  <NAR>  (973) 
4

>  <PSA>  (973) 
68.1

>  <Standard Type>  (973) 
nan

>  <Standard Relation>  (973) 
nan

>  <Standard Units>  (973) 
nan

>  <Standard Value>  (973) 
nan

>  <Assay ChEMBL ID>  (973) 
nan

>  <Assay Description>  (973) 
nan

>  <BAO Label>  (973) 
nan

$$$$

     RDKit          2D

 30 34  0  0  0  0  0  0  0  0999 V2000
   -9.3957   -0.8844    0.0000 O   0  0  0  0  0  0  0  0  0  0  0  0
   -8.3350    0.1763    0.0000 C   0  0  0  0  0  0  0  0  0  0  0  0
   -6.8862   -0.2119    0.0000 C   0  0  0  0  0  0  0  0  0  0  0  0
   -6.4979   -1.6608    0.0000 C   0  0  0  0  0  0  0  0  0  0  0  0
   -5.0490   -2.0490    0.0000 N   0  0  0  0  0  0  0  0  0  0  0  0
   -4.2990   -3.3481    0.0000 C   0  0  0  0  0  0  0  0  0  0  0  0
   -3.0000   -2.5981    0.0000 C   0  0  0  0  0  0  0  0  0  0  0  0
   -1.5000   -2.5981    0.0000 C   0  0  0  0  0  0  0  0  0  0  0  0
   -0.7500   -1.2990    0.0000 C   0  0  0  0  0  0  0  0  0  0  0  0
    0.7500   -1.2990    0.0000 C   0  0  0  0  0  0  0  0  0  0  0  0
    1.5000   -2.5981    0.0000 N   0  0  0  0  0  0  0  0  0  0  0  0
    3.0000   -2.5981    0.0000 C   0  0  0  0  0  0  0  0  0  0  0  0
    3.7500   -3.8971    0.0000 C   0  0  0  0  0  0  0  0  0  0  0  0
    5.2500   -3.8971    0.0000 C   0  0  0  0  0  0  0  0  0  0  0  0
    6.0000   -2.5981    0.0000 C   0  0  0  0  0  0  0  0  0  0  0  0
    5.2500   -1.2990    0.0000 C   0  0  0  0  0  0  0  0  0  0  0  0
    6.0000   -0.0000    0.0000 Br  0  0  0  0  0  0  0  0  0  0  0  0
    3.7500   -1.2990    0.0000 C   0  0  0  0  0  0  0  0  0  0  0  0
    1.5000    0.0000    0.0000 N   0  0  0  0  0  0  0  0  0  0  0  0
    0.7500    1.2990    0.0000 C   0  0  0  0  0  0  0  0  0  0  0  0
   -0.7500    1.2990    0.0000 N   0  0  0  0  0  0  0  0  0  0  0  0
   -1.5000    0.0000    0.0000 C   0  0  0  0  0  0  0  0  0  0  0  0
   -3.0000    0.0000    0.0000 C   0  0  0  0  0  0  0  0  0  0  0  0
   -3.7500   -1.2990    0.0000 C   0  0  0  0  0  0  0  0  0  0  0  0
   -8.7233    1.6252    0.0000 N   0  0  0  0  0  0  0  0  0  0  0  0
   -7.6626    2.6859    0.0000 C   0  0  0  0  0  0  0  0  0  0  0  0
   -8.0508    4.1347    0.0000 C   0  0  0  0  0  0  0  0  0  0  0  0
   -9.4997    4.5230    0.0000 O   0  0  0  0  0  0  0  0  0  0  0  0
  -10.5604    3.4623    0.0000 C   0  0  0  0  0  0  0  0  0  0  0  0
  -10.1722    2.0134    0.0000 C   0  0  0  0  0  0  0  0  0  0  0  0
  1  2  2  0
  2  3  1  0
  3  4  1  0
  4  5  1  0
  5  6  1  0
  6  7  1  0
  7  8  2  0
  8  9  1  0
  9 10  2  0
 10 11  1  0
 11 12  1  0
 12 13  2  0
 13 14  1  0
 14 15  2  0
 15 16  1  0
 16 17  1  0
 16 18  2  0
 10 19  1  0
 19 20  2  0
 20 21  1  0
 21 22  2  0
 22 23  1  0
 23 24  2  0
  2 25  1  0
 25 26  1  0
 26 27  1  0
 27 28  1  0
 28 29  1  0
 29 30  1  0
 24  5  1  0
 30 25  1  0
 24  7  1  0
 22  9  1  0
 18 12  1  0
M  END
>  <Compound_ID>  (974) 
CHEMBL489313

>  <Active>  (974) 
1.0

>  <Smiles>  (974) 
O=C(CCN1Cc2cc3c(Nc4cccc(Br)c4)ncnc3cc21)N1CCOCC1

>  <canonical_smi>  (974) 
O=C(CCN1Cc2cc3c(Nc4cccc(Br)c4)ncnc3cc21)N1CCOCC1

>  <Set>  (974) 
G2 active

>  <Set_type>  (974) 
Test

>  <MW>  (974) 
468.36

>  <HBD>  (974) 
1

>  <HBA>  (974) 
6

>  <NRB>  (974) 
5

>  <NR>  (974) 
5

>  <NAR>  (974) 
3

>  <PSA>  (974) 
70.59

>  <Standard Type>  (974) 
nan

>  <Standard Relation>  (974) 
nan

>  <Standard Units>  (974) 
nan

>  <Standard Value>  (974) 
nan

>  <Assay ChEMBL ID>  (974) 
nan

>  <Assay Description>  (974) 
nan

>  <BAO Label>  (974) 
nan

$$$$

     RDKit          2D

 31 35  0  0  0  0  0  0  0  0999 V2000
    7.5000   -2.5981    0.0000 F   0  0  0  0  0  0  0  0  0  0  0  0
    6.0000   -2.5981    0.0000 C   0  0  0  0  0  0  0  0  0  0  0  0
    5.2500   -3.8971    0.0000 C   0  0  0  0  0  0  0  0  0  0  0  0
    3.7500   -3.8971    0.0000 C   0  0  0  0  0  0  0  0  0  0  0  0
    3.0000   -2.5981    0.0000 C   0  0  0  0  0  0  0  0  0  0  0  0
    1.5000   -2.5981    0.0000 N   0  0  0  0  0  0  0  0  0  0  0  0
    0.7500   -1.2990    0.0000 C   0  0  0  0  0  0  0  0  0  0  0  0
    1.5000    0.0000    0.0000 N   0  0  0  0  0  0  0  0  0  0  0  0
    0.7500    1.2990    0.0000 C   0  0  0  0  0  0  0  0  0  0  0  0
   -0.7500    1.2990    0.0000 N   0  0  0  0  0  0  0  0  0  0  0  0
   -1.5000    0.0000    0.0000 C   0  0  0  0  0  0  0  0  0  0  0  0
   -2.9672   -0.3119    0.0000 N   0  0  0  0  0  0  0  0  0  0  0  0
   -3.1240   -1.8037    0.0000 C   0  0  0  0  0  0  0  0  0  0  0  0
   -4.4231   -2.5537    0.0000 N   0  0  0  0  0  0  0  0  0  0  0  0
   -5.7221   -1.8037    0.0000 C   0  0  0  0  0  0  0  0  0  0  0  0
   -5.7221   -0.3037    0.0000 C   0  0  0  0  0  0  0  0  0  0  0  0
   -7.0211    0.4463    0.0000 C   0  0  0  0  0  0  0  0  0  0  0  0
   -8.3202   -0.3037    0.0000 C   0  0  0  0  0  0  0  0  0  0  0  0
   -9.6192    0.4463    0.0000 C   0  0  0  0  0  0  0  0  0  0  0  0
   -9.6192    1.9463    0.0000 N   0  0  0  0  0  0  0  0  0  0  0  0
  -10.8327    2.8280    0.0000 C   0  0  0  0  0  0  0  0  0  0  0  0
  -10.3692    4.2546    0.0000 C   0  0  0  0  0  0  0  0  0  0  0  0
   -8.8692    4.2546    0.0000 C   0  0  0  0  0  0  0  0  0  0  0  0
   -8.4057    2.8280    0.0000 C   0  0  0  0  0  0  0  0  0  0  0  0
   -8.3202   -1.8037    0.0000 C   0  0  0  0  0  0  0  0  0  0  0  0
   -7.0211   -2.5537    0.0000 C   0  0  0  0  0  0  0  0  0  0  0  0
   -1.7537   -2.4138    0.0000 S   0  0  0  0  0  0  0  0  0  0  0  0
   -0.7500   -1.2990    0.0000 C   0  0  0  0  0  0  0  0  0  0  0  0
    3.7500   -1.2990    0.0000 C   0  0  0  0  0  0  0  0  0  0  0  0
    5.2500   -1.2990    0.0000 C   0  0  0  0  0  0  0  0  0  0  0  0
    6.0000   -0.0000    0.0000 Cl  0  0  0  0  0  0  0  0  0  0  0  0
  1  2  1  0
  2  3  2  0
  3  4  1  0
  4  5  2  0
  5  6  1  0
  6  7  1  0
  7  8  2  0
  8  9  1  0
  9 10  2  0
 10 11  1  0
 11 12  1  0
 12 13  2  0
 13 14  1  0
 14 15  1  0
 15 16  2  0
 16 17  1  0
 17 18  2  0
 18 19  1  0
 19 20  1  0
 20 21  1  0
 21 22  1  0
 22 23  1  0
 23 24  1  0
 18 25  1  0
 25 26  2  0
 13 27  1  0
 27 28  1  0
  5 29  1  0
 29 30  2  0
 30 31  1  0
 30  2  1  0
 28  7  1  0
 28 11  2  0
 26 15  1  0
 24 20  1  0
M  END
>  <Compound_ID>  (975) 
CHEMBL470219

>  <Active>  (975) 
1.0

>  <Smiles>  (975) 
Fc1ccc(Nc2ncnc3nc(Nc4ccc(CN5CCCC5)cc4)sc23)cc1Cl

>  <canonical_smi>  (975) 
Fc1ccc(Nc2ncnc3nc(Nc4ccc(CN5CCCC5)cc4)sc23)cc1Cl

>  <Set>  (975) 
G2 active

>  <Set_type>  (975) 
Test

>  <MW>  (975) 
454.96

>  <HBD>  (975) 
2

>  <HBA>  (975) 
6

>  <NRB>  (975) 
6

>  <NR>  (975) 
5

>  <NAR>  (975) 
4

>  <PSA>  (975) 
65.97

>  <Standard Type>  (975) 
nan

>  <Standard Relation>  (975) 
nan

>  <Standard Units>  (975) 
nan

>  <Standard Value>  (975) 
nan

>  <Assay ChEMBL ID>  (975) 
nan

>  <Assay Description>  (975) 
nan

>  <BAO Label>  (975) 
nan

$$$$

     RDKit          2D

 40 43  0  0  0  0  0  0  0  0999 V2000
    3.7500   -6.4952    0.0000 C   0  0  0  0  0  0  0  0  0  0  0  0
    3.0000   -5.1962    0.0000 C   0  0  0  0  0  0  0  0  0  0  0  0
    1.5000   -5.1962    0.0000 O   0  0  0  0  0  0  0  0  0  0  0  0
    0.7500   -3.8971    0.0000 C   0  0  0  0  0  0  0  0  0  0  0  0
    1.5000   -2.5981    0.0000 C   0  0  0  0  0  0  0  0  0  0  0  0
    0.7500   -1.2990    0.0000 C   0  0  0  0  0  0  0  0  0  0  0  0
    1.5000    0.0000    0.0000 N   0  0  0  0  0  0  0  0  0  0  0  0
    0.7500    1.2990    0.0000 C   0  0  0  0  0  0  0  0  0  0  0  0
   -0.7500    1.2990    0.0000 N   0  0  0  0  0  0  0  0  0  0  0  0
   -1.5000    0.0000    0.0000 C   0  0  0  0  0  0  0  0  0  0  0  0
   -3.0000    0.0000    0.0000 N   0  0  0  0  0  0  0  0  0  0  0  0
   -3.7500    1.2990    0.0000 C   0  0  0  0  0  0  0  0  0  0  0  0
   -3.0000    2.5981    0.0000 C   0  0  0  0  0  0  0  0  0  0  0  0
   -3.7500    3.8971    0.0000 C   0  0  0  0  0  0  0  0  0  0  0  0
   -3.0000    5.1962    0.0000 O   0  0  0  0  0  0  0  0  0  0  0  0
   -5.2500    3.8971    0.0000 C   0  0  0  0  0  0  0  0  0  0  0  0
   -6.0000    5.1962    0.0000 O   0  0  0  0  0  0  0  0  0  0  0  0
   -7.5000    5.1962    0.0000 C   0  0  0  0  0  0  0  0  0  0  0  0
   -8.2500    6.4952    0.0000 C   0  0  0  0  0  0  0  0  0  0  0  0
   -7.5000    7.7942    0.0000 C   0  0  0  0  0  0  0  0  0  0  0  0
   -8.2500    9.0933    0.0000 C   0  0  0  0  0  0  0  0  0  0  0  0
   -9.7500    9.0933    0.0000 C   0  0  0  0  0  0  0  0  0  0  0  0
  -10.5000    7.7942    0.0000 C   0  0  0  0  0  0  0  0  0  0  0  0
  -12.0000    7.7942    0.0000 F   0  0  0  0  0  0  0  0  0  0  0  0
   -9.7500    6.4952    0.0000 C   0  0  0  0  0  0  0  0  0  0  0  0
   -6.0000    2.5981    0.0000 C   0  0  0  0  0  0  0  0  0  0  0  0
   -5.2500    1.2990    0.0000 C   0  0  0  0  0  0  0  0  0  0  0  0
   -6.0000    0.0000    0.0000 O   0  0  0  0  0  0  0  0  0  0  0  0
   -0.7500   -1.2990    0.0000 C   0  0  0  0  0  0  0  0  0  0  0  0
   -1.5000   -2.5981    0.0000 C   0  0  0  0  0  0  0  0  0  0  0  0
   -0.7500   -3.8971    0.0000 C   0  0  0  0  0  0  0  0  0  0  0  0
   -1.5000   -5.1962    0.0000 N   0  0  0  0  0  0  0  0  0  0  0  0
   -3.0000   -5.1962    0.0000 C   0  0  0  0  0  0  0  0  0  0  0  0
   -3.7500   -3.8971    0.0000 O   0  0  0  0  0  0  0  0  0  0  0  0
   -3.7500   -6.4952    0.0000 C   0  0  0  0  0  0  0  0  0  0  0  0
   -5.2500   -6.4952    0.0000 C   0  0  0  0  0  0  0  0  0  0  0  0
   -6.0000   -7.7942    0.0000 C   0  0  0  0  0  0  0  0  0  0  0  0
   -7.5000   -7.7942    0.0000 N   0  0  0  0  0  0  0  0  0  0  0  0
   -8.2500   -9.0933    0.0000 C   0  0  0  0  0  0  0  0  0  0  0  0
   -8.2500   -6.4952    0.0000 C   0  0  0  0  0  0  0  0  0  0  0  0
  1  2  1  0
  2  3  1  0
  3  4  1  0
  4  5  2  0
  5  6  1  0
  6  7  2  0
  7  8  1  0
  8  9  2  0
  9 10  1  0
 10 11  1  0
 11 12  1  0
 12 13  2  0
 13 14  1  0
 14 15  2  0
 14 16  1  0
 16 17  1  0
 17 18  1  0
 18 19  1  0
 19 20  2  0
 20 21  1  0
 21 22  2  0
 22 23  1  0
 23 24  1  0
 23 25  2  0
 16 26  2  0
 26 27  1  0
 27 28  2  0
 10 29  2  0
 29 30  1  0
 30 31  2  0
 31 32  1  0
 32 33  1  0
 33 34  2  0
 33 35  1  0
 35 36  2  0
 36 37  1  0
 37 38  1  0
 38 39  1  0
 38 40  1  0
 31  4  1  0
 29  6  1  0
 27 12  1  0
 25 19  1  0
M  END
>  <Compound_ID>  (976) 
CHEMBL428741

>  <Active>  (976) 
1.0

>  <Smiles>  (976) 
CCOc1cc2ncnc(NC3=CC(=O)C(OCc4cccc(F)c4)=CC3=O)c2cc1NC(=O)/C=C/CN(C)C

>  <canonical_smi>  (976) 
CCOc1cc2ncnc(NC3=CC(=O)C(OCc4cccc(F)c4)=CC3=O)c2cc1NC(=O)/C=C/CN(C)C

>  <Set>  (976) 
G2 active

>  <Set_type>  (976) 
Test

>  <MW>  (976) 
545.57

>  <HBD>  (976) 
2

>  <HBA>  (976) 
9

>  <NRB>  (976) 
11

>  <NR>  (976) 
4

>  <NAR>  (976) 
3

>  <PSA>  (976) 
122.75

>  <Standard Type>  (976) 
nan

>  <Standard Relation>  (976) 
nan

>  <Standard Units>  (976) 
nan

>  <Standard Value>  (976) 
nan

>  <Assay ChEMBL ID>  (976) 
nan

>  <Assay Description>  (976) 
nan

>  <BAO Label>  (976) 
nan

$$$$

     RDKit          2D

 29 32  0  0  0  0  0  0  0  0999 V2000
    3.7500  -11.6913    0.0000 C   0  0  0  0  0  0  0  0  0  0  0  0
    3.0000  -10.3923    0.0000 N   0  0  0  0  0  0  0  0  0  0  0  0
    1.5000  -10.3923    0.0000 C   0  0  0  0  0  0  0  0  0  0  0  0
    0.7500   -9.0933    0.0000 C   0  0  0  0  0  0  0  0  0  0  0  0
    1.5000   -7.7942    0.0000 N   0  0  0  0  0  0  0  0  0  0  0  0
    0.7500   -6.4952    0.0000 C   0  0  0  0  0  0  0  0  0  0  0  0
    1.5000   -5.1962    0.0000 C   0  0  0  0  0  0  0  0  0  0  0  0
    0.7500   -3.8971    0.0000 C   0  0  0  0  0  0  0  0  0  0  0  0
    1.5000   -2.5981    0.0000 N   0  0  0  0  0  0  0  0  0  0  0  0
    0.7500   -1.2990    0.0000 C   0  0  0  0  0  0  0  0  0  0  0  0
    1.5000    0.0000    0.0000 C   0  0  0  0  0  0  0  0  0  0  0  0
    0.7500    1.2990    0.0000 C   0  0  0  0  0  0  0  0  0  0  0  0
    1.5000    2.5981    0.0000 N   0  0  0  0  0  0  0  0  0  0  0  0
    0.7500    3.8971    0.0000 C   0  0  0  0  0  0  0  0  0  0  0  0
   -0.7500    3.8971    0.0000 N   0  0  0  0  0  0  0  0  0  0  0  0
   -1.5000    2.5981    0.0000 C   0  0  0  0  0  0  0  0  0  0  0  0
   -3.0000    2.5981    0.0000 N   0  0  0  0  0  0  0  0  0  0  0  0
   -3.7500    3.8971    0.0000 C   0  0  0  0  0  0  0  0  0  0  0  0
   -3.0000    5.1962    0.0000 C   0  0  0  0  0  0  0  0  0  0  0  0
   -3.7500    6.4952    0.0000 C   0  0  0  0  0  0  0  0  0  0  0  0
   -5.2500    6.4952    0.0000 C   0  0  0  0  0  0  0  0  0  0  0  0
   -6.0000    5.1962    0.0000 C   0  0  0  0  0  0  0  0  0  0  0  0
   -7.5000    5.1962    0.0000 Br  0  0  0  0  0  0  0  0  0  0  0  0
   -5.2500    3.8971    0.0000 C   0  0  0  0  0  0  0  0  0  0  0  0
   -0.7500    1.2990    0.0000 C   0  0  0  0  0  0  0  0  0  0  0  0
   -1.5000    0.0000    0.0000 C   0  0  0  0  0  0  0  0  0  0  0  0
   -0.7500   -1.2990    0.0000 N   0  0  0  0  0  0  0  0  0  0  0  0
    3.0000   -7.7942    0.0000 C   0  0  0  0  0  0  0  0  0  0  0  0
    3.7500   -9.0933    0.0000 C   0  0  0  0  0  0  0  0  0  0  0  0
  1  2  1  0
  2  3  1  0
  3  4  1  0
  4  5  1  0
  5  6  1  0
  6  7  1  0
  7  8  1  0
  8  9  1  0
  9 10  1  0
 10 11  2  0
 11 12  1  0
 12 13  2  0
 13 14  1  0
 14 15  2  0
 15 16  1  0
 16 17  1  0
 17 18  1  0
 18 19  2  0
 19 20  1  0
 20 21  2  0
 21 22  1  0
 22 23  1  0
 22 24  2  0
 16 25  2  0
 25 26  1  0
 26 27  2  0
  5 28  1  0
 28 29  1  0
 29  2  1  0
 27 10  1  0
 25 12  1  0
 24 18  1  0
M  END
>  <Compound_ID>  (977) 
CHEMBL340484

>  <Active>  (977) 
1.0

>  <Smiles>  (977) 
CN1CCN(CCCNc2cc3ncnc(Nc4cccc(Br)c4)c3cn2)CC1

>  <canonical_smi>  (977) 
CN1CCN(CCCNc2cc3ncnc(Nc4cccc(Br)c4)c3cn2)CC1

>  <Set>  (977) 
G2 active

>  <Set_type>  (977) 
Test

>  <MW>  (977) 
456.39

>  <HBD>  (977) 
2

>  <HBA>  (977) 
7

>  <NRB>  (977) 
7

>  <NR>  (977) 
4

>  <NAR>  (977) 
3

>  <PSA>  (977) 
69.21

>  <Standard Type>  (977) 
nan

>  <Standard Relation>  (977) 
nan

>  <Standard Units>  (977) 
nan

>  <Standard Value>  (977) 
nan

>  <Assay ChEMBL ID>  (977) 
nan

>  <Assay Description>  (977) 
nan

>  <BAO Label>  (977) 
nan

$$$$

     RDKit          2D

 30 33  0  0  0  0  0  0  0  0999 V2000
    7.5000   -7.7942    0.0000 C   0  0  0  0  0  0  0  0  0  0  0  0
    6.0000   -7.7942    0.0000 C   0  0  0  0  0  0  0  0  0  0  0  0
    5.2500   -6.4952    0.0000 O   0  0  0  0  0  0  0  0  0  0  0  0
    3.7500   -6.4952    0.0000 N   0  0  0  0  0  0  0  0  0  0  0  0
    3.0000   -5.1962    0.0000 C   0  0  0  0  0  0  0  0  0  0  0  0
    1.5000   -5.1962    0.0000 C   0  0  0  0  0  0  0  0  0  0  0  0
    0.7500   -6.4952    0.0000 C   0  0  0  0  0  0  0  0  0  0  0  0
    1.5000   -7.7942    0.0000 N   0  0  0  0  0  0  0  0  0  0  0  0
   -0.7500   -6.4952    0.0000 N   0  0  0  0  0  0  0  0  0  0  0  0
   -1.5000   -5.1962    0.0000 C   0  0  0  0  0  0  0  0  0  0  0  0
   -0.7500   -3.8971    0.0000 N   0  0  0  0  0  0  0  0  0  0  0  0
    0.7500   -3.8971    0.0000 C   0  0  0  0  0  0  0  0  0  0  0  0
    1.5000   -2.5981    0.0000 N   0  0  0  0  0  0  0  0  0  0  0  0
    0.7500   -1.2990    0.0000 C   0  0  0  0  0  0  0  0  0  0  0  0
    1.5000    0.0000    0.0000 C   0  0  0  0  0  0  0  0  0  0  0  0
    0.7500    1.2990    0.0000 C   0  0  0  0  0  0  0  0  0  0  0  0
   -0.7500    1.2990    0.0000 C   0  0  0  0  0  0  0  0  0  0  0  0
   -1.5000    0.0000    0.0000 C   0  0  0  0  0  0  0  0  0  0  0  0
   -2.9672    0.3119    0.0000 C   0  0  0  0  0  0  0  0  0  0  0  0
   -3.1240    1.8037    0.0000 N   0  0  0  0  0  0  0  0  0  0  0  0
   -1.7537    2.4138    0.0000 N   0  0  0  0  0  0  0  0  0  0  0  0
   -1.4418    3.8810    0.0000 C   0  0  0  0  0  0  0  0  0  0  0  0
   -2.5565    4.8847    0.0000 C   0  0  0  0  0  0  0  0  0  0  0  0
   -2.2447    6.3519    0.0000 C   0  0  0  0  0  0  0  0  0  0  0  0
   -3.3594    7.3556    0.0000 C   0  0  0  0  0  0  0  0  0  0  0  0
   -4.7860    6.8921    0.0000 C   0  0  0  0  0  0  0  0  0  0  0  0
   -5.0978    5.4248    0.0000 C   0  0  0  0  0  0  0  0  0  0  0  0
   -6.5244    4.9613    0.0000 F   0  0  0  0  0  0  0  0  0  0  0  0
   -3.9831    4.4211    0.0000 C   0  0  0  0  0  0  0  0  0  0  0  0
   -0.7500   -1.2990    0.0000 C   0  0  0  0  0  0  0  0  0  0  0  0
  1  2  1  0
  2  3  1  0
  3  4  1  0
  4  5  2  0
  5  6  1  0
  6  7  2  0
  7  8  1  0
  7  9  1  0
  9 10  2  0
 10 11  1  0
 11 12  2  0
 12 13  1  0
 13 14  1  0
 14 15  2  0
 15 16  1  0
 16 17  2  0
 17 18  1  0
 18 19  1  0
 19 20  2  0
 20 21  1  0
 21 22  1  0
 22 23  1  0
 23 24  2  0
 24 25  1  0
 25 26  2  0
 26 27  1  0
 27 28  1  0
 27 29  2  0
 18 30  2  0
 12  6  1  0
 30 14  1  0
 21 17  1  0
 29 23  1  0
M  END
>  <Compound_ID>  (978) 
CHEMBL402294

>  <Active>  (978) 
1.0

>  <Smiles>  (978) 
CCO/N=C/c1c(N)ncnc1Nc1ccc2c(cnn2Cc2cccc(F)c2)c1

>  <canonical_smi>  (978) 
CCO/N=C/c1c(N)ncnc1Nc1ccc2c(cnn2Cc2cccc(F)c2)c1

>  <Set>  (978) 
G2 active

>  <Set_type>  (978) 
Test

>  <MW>  (978) 
405.44

>  <HBD>  (978) 
2

>  <HBA>  (978) 
6

>  <NRB>  (978) 
7

>  <NR>  (978) 
4

>  <NAR>  (978) 
4

>  <PSA>  (978) 
103.24

>  <Standard Type>  (978) 
nan

>  <Standard Relation>  (978) 
nan

>  <Standard Units>  (978) 
nan

>  <Standard Value>  (978) 
nan

>  <Assay ChEMBL ID>  (978) 
nan

>  <Assay Description>  (978) 
nan

>  <BAO Label>  (978) 
nan

$$$$

     RDKit          2D

 34 38  0  0  0  0  0  0  0  0999 V2000
    3.7500   -1.2990    0.0000 C   0  0  0  0  0  0  0  0  0  0  0  0
    3.0000    0.0000    0.0000 O   0  0  0  0  0  0  0  0  0  0  0  0
    1.5000    0.0000    0.0000 C   0  0  0  0  0  0  0  0  0  0  0  0
    0.7500   -1.2990    0.0000 C   0  0  0  0  0  0  0  0  0  0  0  0
   -0.7500   -1.2990    0.0000 C   0  0  0  0  0  0  0  0  0  0  0  0
   -1.5000   -2.5981    0.0000 C   0  0  0  0  0  0  0  0  0  0  0  0
   -0.7500   -3.8971    0.0000 N   0  0  0  0  0  0  0  0  0  0  0  0
   -1.5000   -5.1962    0.0000 C   0  0  0  0  0  0  0  0  0  0  0  0
   -2.7990   -5.9462    0.0000 C   0  0  0  0  0  0  0  0  0  0  0  0
   -1.5000   -6.6962    0.0000 C   0  0  0  0  0  0  0  0  0  0  0  0
   -0.7500   -7.9952    0.0000 C   0  0  0  0  0  0  0  0  0  0  0  0
    0.7500   -7.9952    0.0000 C   0  0  0  0  0  0  0  0  0  0  0  0
    1.5000   -9.2942    0.0000 C   0  0  0  0  0  0  0  0  0  0  0  0
    0.7500  -10.5933    0.0000 C   0  0  0  0  0  0  0  0  0  0  0  0
   -0.7500  -10.5933    0.0000 C   0  0  0  0  0  0  0  0  0  0  0  0
   -1.5000   -9.2942    0.0000 C   0  0  0  0  0  0  0  0  0  0  0  0
   -3.0000   -2.5981    0.0000 C   0  0  0  0  0  0  0  0  0  0  0  0
   -3.7500   -3.8971    0.0000 C   0  0  0  0  0  0  0  0  0  0  0  0
   -4.5000   -5.1962    0.0000 N   0  0  0  0  0  0  0  0  0  0  0  0
   -3.7500   -1.2990    0.0000 C   0  0  0  0  0  0  0  0  0  0  0  0
   -3.0000    0.0000    0.0000 N   0  0  0  0  0  0  0  0  0  0  0  0
   -1.5000    0.0000    0.0000 C   0  0  0  0  0  0  0  0  0  0  0  0
   -0.7500    1.2990    0.0000 C   0  0  0  0  0  0  0  0  0  0  0  0
    0.7500    1.2990    0.0000 C   0  0  0  0  0  0  0  0  0  0  0  0
    1.5000    2.5981    0.0000 O   0  0  0  0  0  0  0  0  0  0  0  0
    0.7500    3.8971    0.0000 C   0  0  0  0  0  0  0  0  0  0  0  0
    1.5000    5.1962    0.0000 C   0  0  0  0  0  0  0  0  0  0  0  0
    0.7500    6.4952    0.0000 C   0  0  0  0  0  0  0  0  0  0  0  0
    1.5000    7.7942    0.0000 N   0  0  0  0  0  0  0  0  0  0  0  0
    3.0000    7.7942    0.0000 C   0  0  0  0  0  0  0  0  0  0  0  0
    3.7500    9.0933    0.0000 C   0  0  0  0  0  0  0  0  0  0  0  0
    3.0000   10.3923    0.0000 O   0  0  0  0  0  0  0  0  0  0  0  0
    1.5000   10.3923    0.0000 C   0  0  0  0  0  0  0  0  0  0  0  0
    0.7500    9.0933    0.0000 C   0  0  0  0  0  0  0  0  0  0  0  0
  1  2  1  0
  2  3  1  0
  3  4  2  0
  4  5  1  0
  5  6  2  0
  6  7  1  0
  8  7  1  1
  8  9  1  0
  9 10  1  0
 10 11  1  6
 11 12  2  0
 12 13  1  0
 13 14  2  0
 14 15  1  0
 15 16  2  0
  6 17  1  0
 17 18  1  0
 18 19  3  0
 17 20  2  0
 20 21  1  0
 21 22  2  0
 22 23  1  0
 23 24  2  0
 24 25  1  0
 25 26  1  0
 26 27  1  0
 27 28  1  0
 28 29  1  0
 29 30  1  0
 30 31  1  0
 31 32  1  0
 32 33  1  0
 33 34  1  0
 24  3  1  0
 34 29  1  0
 22  5  1  0
 10  8  1  0
 16 11  1  0
M  END
>  <Compound_ID>  (979) 
CHEMBL248392

>  <Active>  (979) 
1.0

>  <Smiles>  (979) 
COc1cc2c(N[C@@H]3C[C@H]3c3ccccc3)c(C#N)cnc2cc1OCCCN1CCOCC1

>  <canonical_smi>  (979) 
COc1cc2c(N[C@@H]3C[C@H]3c3ccccc3)c(C#N)cnc2cc1OCCCN1CCOCC1

>  <Set>  (979) 
G2 active

>  <Set_type>  (979) 
Test

>  <MW>  (979) 
458.56

>  <HBD>  (979) 
1

>  <HBA>  (979) 
7

>  <NRB>  (979) 
9

>  <NR>  (979) 
5

>  <NAR>  (979) 
3

>  <PSA>  (979) 
79.64

>  <Standard Type>  (979) 
nan

>  <Standard Relation>  (979) 
nan

>  <Standard Units>  (979) 
nan

>  <Standard Value>  (979) 
nan

>  <Assay ChEMBL ID>  (979) 
nan

>  <Assay Description>  (979) 
nan

>  <BAO Label>  (979) 
nan

$$$$

     RDKit          2D

 29 32  0  0  0  0  0  0  0  0999 V2000
    6.0000   -0.0000    0.0000 Br  0  0  0  0  0  0  0  0  0  0  0  0
    5.2500   -1.2990    0.0000 C   0  0  0  0  0  0  0  0  0  0  0  0
    6.0000   -2.5981    0.0000 C   0  0  0  0  0  0  0  0  0  0  0  0
    5.2500   -3.8971    0.0000 C   0  0  0  0  0  0  0  0  0  0  0  0
    3.7500   -3.8971    0.0000 C   0  0  0  0  0  0  0  0  0  0  0  0
    3.0000   -2.5981    0.0000 C   0  0  0  0  0  0  0  0  0  0  0  0
    1.5000   -2.5981    0.0000 N   0  0  0  0  0  0  0  0  0  0  0  0
    0.7500   -1.2990    0.0000 C   0  0  0  0  0  0  0  0  0  0  0  0
    1.5000    0.0000    0.0000 N   0  0  0  0  0  0  0  0  0  0  0  0
    0.7500    1.2990    0.0000 C   0  0  0  0  0  0  0  0  0  0  0  0
   -0.7500    1.2990    0.0000 N   0  0  0  0  0  0  0  0  0  0  0  0
   -1.5000    0.0000    0.0000 C   0  0  0  0  0  0  0  0  0  0  0  0
   -3.0000    0.0000    0.0000 C   0  0  0  0  0  0  0  0  0  0  0  0
   -3.7500   -1.2990    0.0000 C   0  0  0  0  0  0  0  0  0  0  0  0
   -5.2500   -1.2990    0.0000 N   0  0  0  0  0  0  0  0  0  0  0  0
   -6.0000    0.0000    0.0000 C   0  0  0  0  0  0  0  0  0  0  0  0
   -7.5000   -0.0000    0.0000 C   0  0  0  0  0  0  0  0  0  0  0  0
   -8.2500    1.2990    0.0000 C   0  0  0  0  0  0  0  0  0  0  0  0
   -9.7500    1.2990    0.0000 C   0  0  0  0  0  0  0  0  0  0  0  0
  -10.5000    2.5981    0.0000 N   0  0  0  0  0  0  0  0  0  0  0  0
   -9.7500    3.8971    0.0000 C   0  0  0  0  0  0  0  0  0  0  0  0
  -10.5000    5.1962    0.0000 C   0  0  0  0  0  0  0  0  0  0  0  0
  -12.0000    5.1962    0.0000 O   0  0  0  0  0  0  0  0  0  0  0  0
  -12.7500    3.8971    0.0000 C   0  0  0  0  0  0  0  0  0  0  0  0
  -12.0000    2.5981    0.0000 C   0  0  0  0  0  0  0  0  0  0  0  0
   -3.0000   -2.5981    0.0000 N   0  0  0  0  0  0  0  0  0  0  0  0
   -1.5000   -2.5981    0.0000 C   0  0  0  0  0  0  0  0  0  0  0  0
   -0.7500   -1.2990    0.0000 C   0  0  0  0  0  0  0  0  0  0  0  0
    3.7500   -1.2990    0.0000 C   0  0  0  0  0  0  0  0  0  0  0  0
  1  2  1  0
  2  3  2  0
  3  4  1  0
  4  5  2  0
  5  6  1  0
  6  7  1  0
  7  8  1  0
  8  9  2  0
  9 10  1  0
 10 11  2  0
 11 12  1  0
 12 13  2  0
 13 14  1  0
 14 15  1  0
 15 16  1  0
 16 17  1  0
 17 18  1  0
 18 19  1  0
 19 20  1  0
 20 21  1  0
 21 22  1  0
 22 23  1  0
 23 24  1  0
 24 25  1  0
 14 26  2  0
 26 27  1  0
 27 28  2  0
  6 29  2  0
 29  2  1  0
 28  8  1  0
 28 12  1  0
 25 20  1  0
M  END
>  <Compound_ID>  (980) 
CHEMBL126384

>  <Active>  (980) 
1.0

>  <Smiles>  (980) 
Brc1cccc(Nc2ncnc3cc(NCCCCN4CCOCC4)ncc23)c1

>  <canonical_smi>  (980) 
Brc1cccc(Nc2ncnc3cc(NCCCCN4CCOCC4)ncc23)c1

>  <Set>  (980) 
G2 active

>  <Set_type>  (980) 
Test

>  <MW>  (980) 
457.38

>  <HBD>  (980) 
2

>  <HBA>  (980) 
7

>  <NRB>  (980) 
8

>  <NR>  (980) 
4

>  <NAR>  (980) 
3

>  <PSA>  (980) 
75.2

>  <Standard Type>  (980) 
nan

>  <Standard Relation>  (980) 
nan

>  <Standard Units>  (980) 
nan

>  <Standard Value>  (980) 
nan

>  <Assay ChEMBL ID>  (980) 
nan

>  <Assay Description>  (980) 
nan

>  <BAO Label>  (980) 
nan

$$$$

     RDKit          2D

 35 38  0  0  0  0  0  0  0  0999 V2000
  -11.7233   -9.4194    0.0000 C   0  0  0  0  0  0  0  0  0  0  0  0
  -11.3350   -7.9705    0.0000 O   0  0  0  0  0  0  0  0  0  0  0  0
   -9.8862   -7.5823    0.0000 C   0  0  0  0  0  0  0  0  0  0  0  0
   -9.4979   -6.1334    0.0000 C   0  0  0  0  0  0  0  0  0  0  0  0
   -8.0490   -5.7452    0.0000 N   0  0  0  0  0  0  0  0  0  0  0  0
   -7.2990   -4.4462    0.0000 C   0  0  0  0  0  0  0  0  0  0  0  0
   -6.0000   -5.1962    0.0000 C   0  0  0  0  0  0  0  0  0  0  0  0
   -4.7010   -5.9462    0.0000 C   0  0  0  0  0  0  0  0  0  0  0  0
   -4.7010   -7.4462    0.0000 N   0  0  0  0  0  0  0  0  0  0  0  0
   -3.4019   -5.1962    0.0000 O   0  0  0  0  0  0  0  0  0  0  0  0
   -5.2500   -3.8971    0.0000 N   0  0  0  0  0  0  0  0  0  0  0  0
   -6.0000   -2.5981    0.0000 C   0  0  0  0  0  0  0  0  0  0  0  0
   -3.7500   -3.8971    0.0000 C   0  0  0  0  0  0  0  0  0  0  0  0
   -3.0000   -2.5981    0.0000 C   0  0  0  0  0  0  0  0  0  0  0  0
   -1.5000   -2.5981    0.0000 C   0  0  0  0  0  0  0  0  0  0  0  0
   -0.7500   -1.2990    0.0000 C   0  0  0  0  0  0  0  0  0  0  0  0
    0.7500   -1.2990    0.0000 C   0  0  0  0  0  0  0  0  0  0  0  0
    1.5000   -2.5981    0.0000 N   0  0  0  0  0  0  0  0  0  0  0  0
    3.0000   -2.5981    0.0000 C   0  0  0  0  0  0  0  0  0  0  0  0
    3.7500   -3.8971    0.0000 C   0  0  0  0  0  0  0  0  0  0  0  0
    5.2500   -3.8971    0.0000 C   0  0  0  0  0  0  0  0  0  0  0  0
    6.0000   -2.5981    0.0000 C   0  0  0  0  0  0  0  0  0  0  0  0
    5.2500   -1.2990    0.0000 C   0  0  0  0  0  0  0  0  0  0  0  0
    6.0000   -0.0000    0.0000 Cl  0  0  0  0  0  0  0  0  0  0  0  0
    3.7500   -1.2990    0.0000 C   0  0  0  0  0  0  0  0  0  0  0  0
    3.0000   -0.0000    0.0000 F   0  0  0  0  0  0  0  0  0  0  0  0
    1.5000    0.0000    0.0000 N   0  0  0  0  0  0  0  0  0  0  0  0
    0.7500    1.2990    0.0000 C   0  0  0  0  0  0  0  0  0  0  0  0
   -0.7500    1.2990    0.0000 N   0  0  0  0  0  0  0  0  0  0  0  0
   -1.5000    0.0000    0.0000 C   0  0  0  0  0  0  0  0  0  0  0  0
   -3.0000    0.0000    0.0000 C   0  0  0  0  0  0  0  0  0  0  0  0
   -3.7500   -1.2990    0.0000 C   0  0  0  0  0  0  0  0  0  0  0  0
   -5.2500   -1.2990    0.0000 O   0  0  0  0  0  0  0  0  0  0  0  0
   -6.0000    0.0000    0.0000 C   0  0  0  0  0  0  0  0  0  0  0  0
   -6.7500   -6.4952    0.0000 C   0  0  0  0  0  0  0  0  0  0  0  0
  1  2  1  0
  2  3  1  0
  3  4  1  0
  4  5  1  0
  5  6  1  0
  6  7  1  0
  7  8  1  0
  8  9  1  0
  8 10  2  0
  7 11  1  0
 11 12  1  0
 11 13  1  0
 13 14  1  0
 14 15  2  0
 15 16  1  0
 16 17  2  0
 17 18  1  0
 18 19  1  0
 19 20  2  0
 20 21  1  0
 21 22  2  0
 22 23  1  0
 23 24  1  0
 23 25  2  0
 25 26  1  0
 17 27  1  0
 27 28  2  0
 28 29  1  0
 29 30  2  0
 30 31  1  0
 31 32  2  0
 32 33  1  0
 33 34  1  0
  7 35  1  0
 35  5  1  0
 32 14  1  0
 30 16  1  0
 25 19  1  0
M  END
>  <Compound_ID>  (981) 
CHEMBL207815

>  <Active>  (981) 
1.0

>  <Smiles>  (981) 
COCCN1CC(C(N)=O)(N(C)Cc2cc3c(Nc4cccc(Cl)c4F)ncnc3cc2OC)C1

>  <canonical_smi>  (981) 
COCCN1CC(C(N)=O)(N(C)Cc2cc3c(Nc4cccc(Cl)c4F)ncnc3cc2OC)C1

>  <Set>  (981) 
G2 active

>  <Set_type>  (981) 
Test

>  <MW>  (981) 
502.98

>  <HBD>  (981) 
2

>  <HBA>  (981) 
8

>  <NRB>  (981) 
10

>  <NR>  (981) 
4

>  <NAR>  (981) 
3

>  <PSA>  (981) 
105.84

>  <Standard Type>  (981) 
nan

>  <Standard Relation>  (981) 
nan

>  <Standard Units>  (981) 
nan

>  <Standard Value>  (981) 
nan

>  <Assay ChEMBL ID>  (981) 
nan

>  <Assay Description>  (981) 
nan

>  <BAO Label>  (981) 
nan

$$$$

     RDKit          2D

 41 44  0  0  0  0  0  0  0  0999 V2000
    5.2500   -1.2990    0.0000 C   0  0  0  0  0  0  0  0  0  0  0  0
    3.7500   -1.2990    0.0000 C   0  0  0  0  0  0  0  0  0  0  0  0
    3.0000    0.0000    0.0000 O   0  0  0  0  0  0  0  0  0  0  0  0
    1.5000    0.0000    0.0000 C   0  0  0  0  0  0  0  0  0  0  0  0
    0.7500   -1.2990    0.0000 C   0  0  0  0  0  0  0  0  0  0  0  0
   -0.7500   -1.2990    0.0000 C   0  0  0  0  0  0  0  0  0  0  0  0
   -1.5000   -2.5981    0.0000 N   0  0  0  0  0  0  0  0  0  0  0  0
   -3.0000   -2.5981    0.0000 C   0  0  0  0  0  0  0  0  0  0  0  0
   -3.7500   -1.2990    0.0000 C   0  0  0  0  0  0  0  0  0  0  0  0
   -5.2500   -1.2990    0.0000 C   0  0  0  0  0  0  0  0  0  0  0  0
   -6.7500   -1.2990    0.0000 N   0  0  0  0  0  0  0  0  0  0  0  0
   -3.0000    0.0000    0.0000 C   0  0  0  0  0  0  0  0  0  0  0  0
   -3.7500    1.2990    0.0000 N   0  0  0  0  0  0  0  0  0  0  0  0
   -3.0000    2.5981    0.0000 C   0  0  0  0  0  0  0  0  0  0  0  0
   -1.5000    2.5981    0.0000 C   0  0  0  0  0  0  0  0  0  0  0  0
   -0.7500    3.8971    0.0000 C   0  0  0  0  0  0  0  0  0  0  0  0
   -1.5000    5.1962    0.0000 C   0  0  0  0  0  0  0  0  0  0  0  0
   -0.7500    6.4952    0.0000 O   0  0  0  0  0  0  0  0  0  0  0  0
    0.7500    6.4952    0.0000 C   0  0  0  0  0  0  0  0  0  0  0  0
    1.5000    7.7942    0.0000 C   0  0  0  0  0  0  0  0  0  0  0  0
    3.0000    7.7942    0.0000 C   0  0  0  0  0  0  0  0  0  0  0  0
    3.7500    9.0933    0.0000 C   0  0  0  0  0  0  0  0  0  0  0  0
    3.0000   10.3923    0.0000 C   0  0  0  0  0  0  0  0  0  0  0  0
    1.5000   10.3923    0.0000 C   0  0  0  0  0  0  0  0  0  0  0  0
    0.7500   11.6913    0.0000 Cl  0  0  0  0  0  0  0  0  0  0  0  0
    0.7500    9.0933    0.0000 C   0  0  0  0  0  0  0  0  0  0  0  0
   -3.0000    5.1962    0.0000 C   0  0  0  0  0  0  0  0  0  0  0  0
   -3.7500    6.4952    0.0000 Cl  0  0  0  0  0  0  0  0  0  0  0  0
   -3.7500    3.8971    0.0000 C   0  0  0  0  0  0  0  0  0  0  0  0
   -1.5000    0.0000    0.0000 C   0  0  0  0  0  0  0  0  0  0  0  0
   -0.7500    1.2990    0.0000 C   0  0  0  0  0  0  0  0  0  0  0  0
    0.7500    1.2990    0.0000 C   0  0  0  0  0  0  0  0  0  0  0  0
    1.5000    2.5981    0.0000 N   0  0  0  0  0  0  0  0  0  0  0  0
    3.0000    2.5981    0.0000 C   0  0  0  0  0  0  0  0  0  0  0  0
    3.7500    1.2990    0.0000 O   0  0  0  0  0  0  0  0  0  0  0  0
    3.7500    3.8971    0.0000 C   0  0  0  0  0  0  0  0  0  0  0  0
    5.2500    3.8971    0.0000 C   0  0  0  0  0  0  0  0  0  0  0  0
    6.0000    5.1962    0.0000 C   0  0  0  0  0  0  0  0  0  0  0  0
    7.5000    5.1962    0.0000 N   0  0  0  0  0  0  0  0  0  0  0  0
    8.2500    6.4952    0.0000 C   0  0  0  0  0  0  0  0  0  0  0  0
    8.2500    3.8971    0.0000 C   0  0  0  0  0  0  0  0  0  0  0  0
  1  2  1  0
  2  3  1  0
  3  4  1  0
  4  5  2  0
  5  6  1  0
  6  7  2  0
  7  8  1  0
  8  9  2  0
  9 10  1  0
 10 11  3  0
  9 12  1  0
 12 13  1  0
 13 14  1  0
 14 15  2  0
 15 16  1  0
 16 17  2  0
 17 18  1  0
 18 19  1  0
 19 20  1  0
 20 21  2  0
 21 22  1  0
 22 23  2  0
 23 24  1  0
 24 25  1  0
 24 26  2  0
 17 27  1  0
 27 28  1  0
 27 29  2  0
 12 30  2  0
 30 31  1  0
 31 32  2  0
 32 33  1  0
 33 34  1  0
 34 35  2  0
 34 36  1  0
 36 37  2  0
 37 38  1  0
 38 39  1  0
 39 40  1  0
 39 41  1  0
 32  4  1  0
 30  6  1  0
 29 14  1  0
 26 20  1  0
M  END
>  <Compound_ID>  (982) 
CHEMBL179363

>  <Active>  (982) 
1.0

>  <Smiles>  (982) 
CCOc1cc2ncc(C#N)c(Nc3ccc(OCc4cccc(Cl)c4)c(Cl)c3)c2cc1NC(=O)/C=C/CN(C)C

>  <canonical_smi>  (982) 
CCOc1cc2ncc(C#N)c(Nc3ccc(OCc4cccc(Cl)c4)c(Cl)c3)c2cc1NC(=O)/C=C/CN(C)C

>  <Set>  (982) 
G2 active

>  <Set_type>  (982) 
Test

>  <MW>  (982) 
590.51

>  <HBD>  (982) 
2

>  <HBA>  (982) 
7

>  <NRB>  (982) 
11

>  <NR>  (982) 
4

>  <NAR>  (982) 
4

>  <PSA>  (982) 
99.51

>  <Standard Type>  (982) 
nan

>  <Standard Relation>  (982) 
nan

>  <Standard Units>  (982) 
nan

>  <Standard Value>  (982) 
nan

>  <Assay ChEMBL ID>  (982) 
nan

>  <Assay Description>  (982) 
nan

>  <BAO Label>  (982) 
nan

$$$$

     RDKit          2D

 36 40  0  0  0  0  0  0  0  0999 V2000
  -10.3968   -8.4412    0.0000 O   0  0  0  0  0  0  0  0  0  0  0  0
   -8.9702   -7.9777    0.0000 C   0  0  0  0  0  0  0  0  0  0  0  0
   -8.6583   -6.5105    0.0000 C   0  0  0  0  0  0  0  0  0  0  0  0
   -7.2317   -6.0469    0.0000 C   0  0  0  0  0  0  0  0  0  0  0  0
   -6.1170   -7.0506    0.0000 N   0  0  0  0  0  0  0  0  0  0  0  0
   -4.6904   -6.5871    0.0000 C   0  0  0  0  0  0  0  0  0  0  0  0
   -4.3786   -5.1199    0.0000 C   0  0  0  0  0  0  0  0  0  0  0  0
   -2.9520   -4.6564    0.0000 C   0  0  0  0  0  0  0  0  0  0  0  0
   -2.6401   -3.1891    0.0000 O   0  0  0  0  0  0  0  0  0  0  0  0
   -1.2135   -2.7256    0.0000 C   0  0  0  0  0  0  0  0  0  0  0  0
   -0.0000   -3.6073    0.0000 N   0  0  0  0  0  0  0  0  0  0  0  0
    1.2135   -2.7256    0.0000 N   0  0  0  0  0  0  0  0  0  0  0  0
    0.7500   -1.2990    0.0000 C   0  0  0  0  0  0  0  0  0  0  0  0
    1.5000    0.0000    0.0000 N   0  0  0  0  0  0  0  0  0  0  0  0
    0.7500    1.2990    0.0000 C   0  0  0  0  0  0  0  0  0  0  0  0
   -0.7500    1.2990    0.0000 N   0  0  0  0  0  0  0  0  0  0  0  0
   -1.5000    0.0000    0.0000 C   0  0  0  0  0  0  0  0  0  0  0  0
   -3.0000    0.0000    0.0000 N   0  0  0  0  0  0  0  0  0  0  0  0
   -3.7500    1.2990    0.0000 C   0  0  0  0  0  0  0  0  0  0  0  0
   -3.0000    2.5981    0.0000 C   0  0  0  0  0  0  0  0  0  0  0  0
   -3.7500    3.8971    0.0000 C   0  0  0  0  0  0  0  0  0  0  0  0
   -5.2500    3.8971    0.0000 C   0  0  0  0  0  0  0  0  0  0  0  0
   -6.0000    5.1962    0.0000 O   0  0  0  0  0  0  0  0  0  0  0  0
   -5.2500    6.4952    0.0000 C   0  0  0  0  0  0  0  0  0  0  0  0
   -6.0000    7.7942    0.0000 C   0  0  0  0  0  0  0  0  0  0  0  0
   -5.2500    9.0933    0.0000 C   0  0  0  0  0  0  0  0  0  0  0  0
   -6.0000   10.3923    0.0000 C   0  0  0  0  0  0  0  0  0  0  0  0
   -7.5000   10.3923    0.0000 C   0  0  0  0  0  0  0  0  0  0  0  0
   -8.2500    9.0933    0.0000 C   0  0  0  0  0  0  0  0  0  0  0  0
   -7.5000    7.7942    0.0000 N   0  0  0  0  0  0  0  0  0  0  0  0
   -6.0000    2.5981    0.0000 C   0  0  0  0  0  0  0  0  0  0  0  0
   -7.5000    2.5981    0.0000 Cl  0  0  0  0  0  0  0  0  0  0  0  0
   -5.2500    1.2990    0.0000 C   0  0  0  0  0  0  0  0  0  0  0  0
   -0.7500   -1.2990    0.0000 C   0  0  0  0  0  0  0  0  0  0  0  0
   -6.4289   -8.5179    0.0000 C   0  0  0  0  0  0  0  0  0  0  0  0
   -7.8555   -8.9814    0.0000 C   0  0  0  0  0  0  0  0  0  0  0  0
  1  2  1  0
  2  3  1  0
  3  4  1  0
  4  5  1  0
  5  6  1  0
  6  7  1  0
  7  8  1  0
  8  9  1  0
  9 10  1  0
 10 11  2  0
 11 12  1  0
 12 13  1  0
 13 14  2  0
 14 15  1  0
 15 16  2  0
 16 17  1  0
 17 18  1  0
 18 19  1  0
 19 20  2  0
 20 21  1  0
 21 22  2  0
 22 23  1  0
 23 24  1  0
 24 25  1  0
 25 26  2  0
 26 27  1  0
 27 28  2  0
 28 29  1  0
 29 30  2  0
 22 31  1  0
 31 32  1  0
 31 33  2  0
 17 34  2  0
  5 35  1  0
 35 36  1  0
 36  2  1  0
 34 10  1  0
 34 13  1  0
 33 19  1  0
 30 25  1  0
M  END
>  <Compound_ID>  (983) 
CHEMBL257860

>  <Active>  (983) 
1.0

>  <Smiles>  (983) 
OC1CCN(CCCOc2n[nH]c3ncnc(Nc4ccc(OCc5ccccn5)c(Cl)c4)c23)CC1

>  <canonical_smi>  (983) 
OC1CCN(CCCOc2n[nH]c3ncnc(Nc4ccc(OCc5ccccn5)c(Cl)c4)c23)CC1

>  <Set>  (983) 
G2 active

>  <Set_type>  (983) 
Test

>  <MW>  (983) 
510.0

>  <HBD>  (983) 
3

>  <HBA>  (983) 
9

>  <NRB>  (983) 
10

>  <NR>  (983) 
5

>  <NAR>  (983) 
4

>  <PSA>  (983) 
121.31

>  <Standard Type>  (983) 
nan

>  <Standard Relation>  (983) 
nan

>  <Standard Units>  (983) 
nan

>  <Standard Value>  (983) 
nan

>  <Assay ChEMBL ID>  (983) 
nan

>  <Assay Description>  (983) 
nan

>  <BAO Label>  (983) 
nan

$$$$

     RDKit          2D

 36 40  0  0  0  0  0  0  0  0999 V2000
    1.5000   -7.7942    0.0000 N   0  0  0  0  0  0  0  0  0  0  0  0
    0.7500   -6.4952    0.0000 C   0  0  0  0  0  0  0  0  0  0  0  0
   -0.7500   -6.4952    0.0000 N   0  0  0  0  0  0  0  0  0  0  0  0
   -1.5000   -5.1962    0.0000 C   0  0  0  0  0  0  0  0  0  0  0  0
   -0.7500   -3.8971    0.0000 N   0  0  0  0  0  0  0  0  0  0  0  0
    0.7500   -3.8971    0.0000 C   0  0  0  0  0  0  0  0  0  0  0  0
    1.5000   -2.5981    0.0000 N   0  0  0  0  0  0  0  0  0  0  0  0
    0.7500   -1.2990    0.0000 C   0  0  0  0  0  0  0  0  0  0  0  0
    1.5000    0.0000    0.0000 C   0  0  0  0  0  0  0  0  0  0  0  0
    0.7500    1.2990    0.0000 C   0  0  0  0  0  0  0  0  0  0  0  0
   -0.7500    1.2990    0.0000 C   0  0  0  0  0  0  0  0  0  0  0  0
   -1.5000    0.0000    0.0000 C   0  0  0  0  0  0  0  0  0  0  0  0
   -2.9672    0.3119    0.0000 C   0  0  0  0  0  0  0  0  0  0  0  0
   -3.1240    1.8037    0.0000 N   0  0  0  0  0  0  0  0  0  0  0  0
   -1.7537    2.4138    0.0000 N   0  0  0  0  0  0  0  0  0  0  0  0
   -1.4418    3.8810    0.0000 C   0  0  0  0  0  0  0  0  0  0  0  0
   -2.5565    4.8847    0.0000 C   0  0  0  0  0  0  0  0  0  0  0  0
   -2.2447    6.3519    0.0000 C   0  0  0  0  0  0  0  0  0  0  0  0
   -3.3594    7.3556    0.0000 C   0  0  0  0  0  0  0  0  0  0  0  0
   -4.7860    6.8921    0.0000 C   0  0  0  0  0  0  0  0  0  0  0  0
   -5.0978    5.4248    0.0000 C   0  0  0  0  0  0  0  0  0  0  0  0
   -6.5244    4.9613    0.0000 F   0  0  0  0  0  0  0  0  0  0  0  0
   -3.9831    4.4211    0.0000 C   0  0  0  0  0  0  0  0  0  0  0  0
   -0.7500   -1.2990    0.0000 C   0  0  0  0  0  0  0  0  0  0  0  0
    1.5000   -5.1962    0.0000 C   0  0  0  0  0  0  0  0  0  0  0  0
    3.0000   -5.1962    0.0000 C   0  0  0  0  0  0  0  0  0  0  0  0
    3.7500   -6.4952    0.0000 N   0  0  0  0  0  0  0  0  0  0  0  0
    5.2500   -6.4952    0.0000 N   0  0  0  0  0  0  0  0  0  0  0  0
    6.0000   -7.7942    0.0000 C   0  0  0  0  0  0  0  0  0  0  0  0
    7.5000   -7.7942    0.0000 C   0  0  0  0  0  0  0  0  0  0  0  0
    8.2500   -6.4952    0.0000 N   0  0  0  0  0  0  0  0  0  0  0  0
    9.7500   -6.4952    0.0000 C   0  0  0  0  0  0  0  0  0  0  0  0
   10.5000   -7.7942    0.0000 C   0  0  0  0  0  0  0  0  0  0  0  0
   12.0000   -7.7942    0.0000 O   0  0  0  0  0  0  0  0  0  0  0  0
    7.5000   -5.1962    0.0000 C   0  0  0  0  0  0  0  0  0  0  0  0
    6.0000   -5.1962    0.0000 C   0  0  0  0  0  0  0  0  0  0  0  0
  1  2  1  0
  2  3  2  0
  3  4  1  0
  4  5  2  0
  5  6  1  0
  6  7  1  0
  7  8  1  0
  8  9  2  0
  9 10  1  0
 10 11  2  0
 11 12  1  0
 12 13  1  0
 13 14  2  0
 14 15  1  0
 15 16  1  0
 16 17  1  0
 17 18  2  0
 18 19  1  0
 19 20  2  0
 20 21  1  0
 21 22  1  0
 21 23  2  0
 12 24  2  0
  6 25  2  0
 25 26  1  0
 26 27  2  0
 27 28  1  0
 28 29  1  0
 29 30  1  0
 30 31  1  0
 31 32  1  0
 32 33  1  0
 33 34  1  0
 31 35  1  0
 35 36  1  0
 25  2  1  0
 36 28  1  0
 24  8  1  0
 15 11  1  0
 23 17  1  0
M  END
>  <Compound_ID>  (984) 
CHEMBL514566

>  <Active>  (984) 
1.0

>  <Smiles>  (984) 
Nc1ncnc(Nc2ccc3c(cnn3Cc3cccc(F)c3)c2)c1/C=N/N1CCN(CCO)CC1

>  <canonical_smi>  (984) 
Nc1ncnc(Nc2ccc3c(cnn3Cc3cccc(F)c3)c2)c1/C=N/N1CCN(CCO)CC1

>  <Set>  (984) 
G2 active

>  <Set_type>  (984) 
Test

>  <MW>  (984) 
489.56

>  <HBD>  (984) 
3

>  <HBA>  (984) 
8

>  <NRB>  (984) 
8

>  <NR>  (984) 
5

>  <NAR>  (984) 
4

>  <PSA>  (984) 
120.72

>  <Standard Type>  (984) 
nan

>  <Standard Relation>  (984) 
nan

>  <Standard Units>  (984) 
nan

>  <Standard Value>  (984) 
nan

>  <Assay ChEMBL ID>  (984) 
nan

>  <Assay Description>  (984) 
nan

>  <BAO Label>  (984) 
nan

$$$$

     RDKit          2D

 31 34  0  0  0  0  0  0  0  0999 V2000
    0.7500   -6.4952    0.0000 C   0  0  0  0  0  0  0  0  0  0  0  0
    1.5000   -5.1962    0.0000 O   0  0  0  0  0  0  0  0  0  0  0  0
    0.7500   -3.8971    0.0000 C   0  0  0  0  0  0  0  0  0  0  0  0
    1.5000   -2.5981    0.0000 C   0  0  0  0  0  0  0  0  0  0  0  0
    0.7500   -1.2990    0.0000 C   0  0  0  0  0  0  0  0  0  0  0  0
    1.5000    0.0000    0.0000 N   0  0  0  0  0  0  0  0  0  0  0  0
    0.7500    1.2990    0.0000 C   0  0  0  0  0  0  0  0  0  0  0  0
   -0.7500    1.2990    0.0000 N   0  0  0  0  0  0  0  0  0  0  0  0
   -1.5000    0.0000    0.0000 C   0  0  0  0  0  0  0  0  0  0  0  0
   -3.0000    0.0000    0.0000 N   0  0  0  0  0  0  0  0  0  0  0  0
   -3.7500    1.2990    0.0000 C   0  0  0  0  0  0  0  0  0  0  0  0
   -3.0000    2.5981    0.0000 C   0  0  0  0  0  0  0  0  0  0  0  0
   -3.7500    3.8971    0.0000 C   0  0  0  0  0  0  0  0  0  0  0  0
   -5.2500    3.8971    0.0000 C   0  0  0  0  0  0  0  0  0  0  0  0
   -6.0000    5.1962    0.0000 F   0  0  0  0  0  0  0  0  0  0  0  0
   -6.0000    2.5981    0.0000 C   0  0  0  0  0  0  0  0  0  0  0  0
   -7.5000    2.5981    0.0000 Cl  0  0  0  0  0  0  0  0  0  0  0  0
   -5.2500    1.2990    0.0000 C   0  0  0  0  0  0  0  0  0  0  0  0
   -0.7500   -1.2990    0.0000 C   0  0  0  0  0  0  0  0  0  0  0  0
   -1.5000   -2.5981    0.0000 C   0  0  0  0  0  0  0  0  0  0  0  0
   -0.7500   -3.8971    0.0000 C   0  0  0  0  0  0  0  0  0  0  0  0
   -1.5000   -5.1962    0.0000 O   0  0  0  0  0  0  0  0  0  0  0  0
   -3.0000   -5.1962    0.0000 C   0  0  0  0  0  0  0  0  0  0  0  0
   -3.7500   -6.4952    0.0000 C   0  0  0  0  0  0  0  0  0  0  0  0
   -5.2500   -6.4952    0.0000 N   0  0  0  0  0  0  0  0  0  0  0  0
   -6.0000   -5.1962    0.0000 C   0  0  0  0  0  0  0  0  0  0  0  0
   -7.5000   -5.1962    0.0000 C   0  0  0  0  0  0  0  0  0  0  0  0
   -8.2500   -6.4952    0.0000 N   0  0  0  0  0  0  0  0  0  0  0  0
   -9.7500   -6.4952    0.0000 C   0  0  0  0  0  0  0  0  0  0  0  0
   -7.5000   -7.7942    0.0000 C   0  0  0  0  0  0  0  0  0  0  0  0
   -6.0000   -7.7942    0.0000 C   0  0  0  0  0  0  0  0  0  0  0  0
  1  2  1  0
  2  3  1  0
  3  4  2  0
  4  5  1  0
  5  6  2  0
  6  7  1  0
  7  8  2  0
  8  9  1  0
  9 10  1  0
 10 11  1  0
 11 12  2  0
 12 13  1  0
 13 14  2  0
 14 15  1  0
 14 16  1  0
 16 17  1  0
 16 18  2  0
  9 19  2  0
 19 20  1  0
 20 21  2  0
 21 22  1  0
 22 23  1  0
 23 24  1  0
 24 25  1  0
 25 26  1  0
 26 27  1  0
 27 28  1  0
 28 29  1  0
 28 30  1  0
 30 31  1  0
 21  3  1  0
 31 25  1  0
 19  5  1  0
 18 11  1  0
M  END
>  <Compound_ID>  (985) 
CHEMBL300791

>  <Active>  (985) 
1.0

>  <Smiles>  (985) 
COc1cc2ncnc(Nc3ccc(F)c(Cl)c3)c2cc1OCCN1CCN(C)CC1

>  <canonical_smi>  (985) 
COc1cc2ncnc(Nc3ccc(F)c(Cl)c3)c2cc1OCCN1CCN(C)CC1

>  <Set>  (985) 
G2 active

>  <Set_type>  (985) 
Test

>  <MW>  (985) 
445.93

>  <HBD>  (985) 
1

>  <HBA>  (985) 
7

>  <NRB>  (985) 
7

>  <NR>  (985) 
4

>  <NAR>  (985) 
3

>  <PSA>  (985) 
62.75

>  <Standard Type>  (985) 
nan

>  <Standard Relation>  (985) 
nan

>  <Standard Units>  (985) 
nan

>  <Standard Value>  (985) 
nan

>  <Assay ChEMBL ID>  (985) 
nan

>  <Assay Description>  (985) 
nan

>  <BAO Label>  (985) 
nan

$$$$

     RDKit          2D

 32 36  0  0  0  0  0  0  0  0999 V2000
    7.5000   -2.5981    0.0000 F   0  0  0  0  0  0  0  0  0  0  0  0
    6.0000   -2.5981    0.0000 C   0  0  0  0  0  0  0  0  0  0  0  0
    5.2500   -3.8971    0.0000 C   0  0  0  0  0  0  0  0  0  0  0  0
    3.7500   -3.8971    0.0000 C   0  0  0  0  0  0  0  0  0  0  0  0
    3.0000   -2.5981    0.0000 C   0  0  0  0  0  0  0  0  0  0  0  0
    1.5000   -2.5981    0.0000 N   0  0  0  0  0  0  0  0  0  0  0  0
    0.7500   -1.2990    0.0000 C   0  0  0  0  0  0  0  0  0  0  0  0
    1.5000    0.0000    0.0000 N   0  0  0  0  0  0  0  0  0  0  0  0
    0.7500    1.2990    0.0000 C   0  0  0  0  0  0  0  0  0  0  0  0
   -0.7500    1.2990    0.0000 N   0  0  0  0  0  0  0  0  0  0  0  0
   -1.5000    0.0000    0.0000 C   0  0  0  0  0  0  0  0  0  0  0  0
   -2.9672   -0.3119    0.0000 N   0  0  0  0  0  0  0  0  0  0  0  0
   -3.1240   -1.8037    0.0000 C   0  0  0  0  0  0  0  0  0  0  0  0
   -4.4231   -2.5537    0.0000 N   0  0  0  0  0  0  0  0  0  0  0  0
   -5.7221   -1.8037    0.0000 C   0  0  0  0  0  0  0  0  0  0  0  0
   -5.7221   -0.3037    0.0000 C   0  0  0  0  0  0  0  0  0  0  0  0
   -7.0211    0.4463    0.0000 C   0  0  0  0  0  0  0  0  0  0  0  0
   -8.3202   -0.3037    0.0000 C   0  0  0  0  0  0  0  0  0  0  0  0
   -9.6192    0.4463    0.0000 C   0  0  0  0  0  0  0  0  0  0  0  0
   -9.6192    1.9463    0.0000 N   0  0  0  0  0  0  0  0  0  0  0  0
   -8.3202    2.6963    0.0000 C   0  0  0  0  0  0  0  0  0  0  0  0
   -8.3202    4.1963    0.0000 C   0  0  0  0  0  0  0  0  0  0  0  0
   -9.6192    4.9463    0.0000 C   0  0  0  0  0  0  0  0  0  0  0  0
  -10.9182    4.1963    0.0000 C   0  0  0  0  0  0  0  0  0  0  0  0
  -10.9182    2.6963    0.0000 C   0  0  0  0  0  0  0  0  0  0  0  0
   -8.3202   -1.8037    0.0000 C   0  0  0  0  0  0  0  0  0  0  0  0
   -7.0211   -2.5537    0.0000 C   0  0  0  0  0  0  0  0  0  0  0  0
   -1.7537   -2.4138    0.0000 S   0  0  0  0  0  0  0  0  0  0  0  0
   -0.7500   -1.2990    0.0000 C   0  0  0  0  0  0  0  0  0  0  0  0
    3.7500   -1.2990    0.0000 C   0  0  0  0  0  0  0  0  0  0  0  0
    5.2500   -1.2990    0.0000 C   0  0  0  0  0  0  0  0  0  0  0  0
    6.0000   -0.0000    0.0000 Cl  0  0  0  0  0  0  0  0  0  0  0  0
  1  2  1  0
  2  3  2  0
  3  4  1  0
  4  5  2  0
  5  6  1  0
  6  7  1  0
  7  8  2  0
  8  9  1  0
  9 10  2  0
 10 11  1  0
 11 12  1  0
 12 13  2  0
 13 14  1  0
 14 15  1  0
 15 16  2  0
 16 17  1  0
 17 18  2  0
 18 19  1  0
 19 20  1  0
 20 21  1  0
 21 22  1  0
 22 23  1  0
 23 24  1  0
 24 25  1  0
 18 26  1  0
 26 27  2  0
 13 28  1  0
 28 29  1  0
  5 30  1  0
 30 31  2  0
 31 32  1  0
 31  2  1  0
 29  7  1  0
 29 11  2  0
 27 15  1  0
 25 20  1  0
M  END
>  <Compound_ID>  (986) 
CHEMBL470011

>  <Active>  (986) 
1.0

>  <Smiles>  (986) 
Fc1ccc(Nc2ncnc3nc(Nc4ccc(CN5CCCCC5)cc4)sc23)cc1Cl

>  <canonical_smi>  (986) 
Fc1ccc(Nc2ncnc3nc(Nc4ccc(CN5CCCCC5)cc4)sc23)cc1Cl

>  <Set>  (986) 
G2 active

>  <Set_type>  (986) 
Test

>  <MW>  (986) 
468.99

>  <HBD>  (986) 
2

>  <HBA>  (986) 
6

>  <NRB>  (986) 
6

>  <NR>  (986) 
5

>  <NAR>  (986) 
4

>  <PSA>  (986) 
65.97

>  <Standard Type>  (986) 
nan

>  <Standard Relation>  (986) 
nan

>  <Standard Units>  (986) 
nan

>  <Standard Value>  (986) 
nan

>  <Assay ChEMBL ID>  (986) 
nan

>  <Assay Description>  (986) 
nan

>  <BAO Label>  (986) 
nan

$$$$

     RDKit          2D

 39 43  0  0  0  0  0  0  0  0999 V2000
  -13.9844    0.3095    0.0000 C   0  0  0  0  0  0  0  0  0  0  0  0
  -12.4926    0.1528    0.0000 S   0  0  0  0  0  0  0  0  0  0  0  0
  -12.6494   -1.3390    0.0000 O   0  0  0  0  0  0  0  0  0  0  0  0
  -12.3358    1.6445    0.0000 O   0  0  0  0  0  0  0  0  0  0  0  0
  -11.0008   -0.0040    0.0000 C   0  0  0  0  0  0  0  0  0  0  0  0
  -10.3907   -1.3744    0.0000 C   0  0  0  0  0  0  0  0  0  0  0  0
   -8.8990   -1.5312    0.0000 N   0  0  0  0  0  0  0  0  0  0  0  0
   -8.2888   -2.9015    0.0000 C   0  0  0  0  0  0  0  0  0  0  0  0
   -6.7971   -3.0583    0.0000 C   0  0  0  0  0  0  0  0  0  0  0  0
   -6.0471   -4.3573    0.0000 C   0  0  0  0  0  0  0  0  0  0  0  0
   -4.5798   -4.0454    0.0000 C   0  0  0  0  0  0  0  0  0  0  0  0
   -4.4231   -2.5537    0.0000 C   0  0  0  0  0  0  0  0  0  0  0  0
   -3.1240   -1.8037    0.0000 C   0  0  0  0  0  0  0  0  0  0  0  0
   -1.7537   -2.4138    0.0000 C   0  0  0  0  0  0  0  0  0  0  0  0
   -0.7500   -1.2990    0.0000 C   0  0  0  0  0  0  0  0  0  0  0  0
    0.7500   -1.2990    0.0000 C   0  0  0  0  0  0  0  0  0  0  0  0
    1.5000   -2.5981    0.0000 N   0  0  0  0  0  0  0  0  0  0  0  0
    3.0000   -2.5981    0.0000 C   0  0  0  0  0  0  0  0  0  0  0  0
    3.7500   -3.8971    0.0000 C   0  0  0  0  0  0  0  0  0  0  0  0
    5.2500   -3.8971    0.0000 C   0  0  0  0  0  0  0  0  0  0  0  0
    6.0000   -2.5981    0.0000 C   0  0  0  0  0  0  0  0  0  0  0  0
    7.5000   -2.5981    0.0000 O   0  0  0  0  0  0  0  0  0  0  0  0
    8.2500   -3.8971    0.0000 C   0  0  0  0  0  0  0  0  0  0  0  0
    9.7500   -3.8971    0.0000 C   0  0  0  0  0  0  0  0  0  0  0  0
   10.5000   -5.1962    0.0000 C   0  0  0  0  0  0  0  0  0  0  0  0
   12.0000   -5.1962    0.0000 C   0  0  0  0  0  0  0  0  0  0  0  0
   12.7500   -3.8971    0.0000 C   0  0  0  0  0  0  0  0  0  0  0  0
   12.0000   -2.5981    0.0000 C   0  0  0  0  0  0  0  0  0  0  0  0
   12.7500   -1.2990    0.0000 F   0  0  0  0  0  0  0  0  0  0  0  0
   10.5000   -2.5981    0.0000 C   0  0  0  0  0  0  0  0  0  0  0  0
    5.2500   -1.2990    0.0000 C   0  0  0  0  0  0  0  0  0  0  0  0
    6.0000   -0.0000    0.0000 Cl  0  0  0  0  0  0  0  0  0  0  0  0
    3.7500   -1.2990    0.0000 C   0  0  0  0  0  0  0  0  0  0  0  0
    1.5000    0.0000    0.0000 N   0  0  0  0  0  0  0  0  0  0  0  0
    0.7500    1.2990    0.0000 C   0  0  0  0  0  0  0  0  0  0  0  0
   -0.7500    1.2990    0.0000 N   0  0  0  0  0  0  0  0  0  0  0  0
   -1.5000    0.0000    0.0000 C   0  0  0  0  0  0  0  0  0  0  0  0
   -2.9672   -0.3119    0.0000 S   0  0  0  0  0  0  0  0  0  0  0  0
   -5.7934   -1.9435    0.0000 O   0  0  0  0  0  0  0  0  0  0  0  0
  1  2  1  0
  2  3  2  0
  2  4  2  0
  2  5  1  0
  5  6  1  0
  6  7  1  0
  7  8  1  0
  8  9  1  0
  9 10  2  0
 10 11  1  0
 11 12  2  0
 12 13  1  0
 13 14  2  0
 14 15  1  0
 15 16  2  0
 16 17  1  0
 17 18  1  0
 18 19  2  0
 19 20  1  0
 20 21  2  0
 21 22  1  0
 22 23  1  0
 23 24  1  0
 24 25  2  0
 25 26  1  0
 26 27  2  0
 27 28  1  0
 28 29  1  0
 28 30  2  0
 21 31  1  0
 31 32  1  0
 31 33  2  0
 16 34  1  0
 34 35  2  0
 35 36  1  0
 36 37  2  0
 37 38  1  0
 12 39  1  0
 39  9  1  0
 38 13  1  0
 37 15  1  0
 33 18  1  0
 30 24  1  0
M  END
>  <Compound_ID>  (987) 
CHEMBL480349

>  <Active>  (987) 
1.0

>  <Smiles>  (987) 
CS(=O)(=O)CCNCc1ccc(-c2cc3c(Nc4ccc(OCc5cccc(F)c5)c(Cl)c4)ncnc3s2)o1

>  <canonical_smi>  (987) 
CS(=O)(=O)CCNCc1ccc(-c2cc3c(Nc4ccc(OCc5cccc(F)c5)c(Cl)c4)ncnc3s2)o1

>  <Set>  (987) 
G2 active

>  <Set_type>  (987) 
Test

>  <MW>  (987) 
587.1

>  <HBD>  (987) 
2

>  <HBA>  (987) 
8

>  <NRB>  (987) 
11

>  <NR>  (987) 
5

>  <NAR>  (987) 
5

>  <PSA>  (987) 
106.35

>  <Standard Type>  (987) 
nan

>  <Standard Relation>  (987) 
nan

>  <Standard Units>  (987) 
nan

>  <Standard Value>  (987) 
nan

>  <Assay ChEMBL ID>  (987) 
nan

>  <Assay Description>  (987) 
nan

>  <BAO Label>  (987) 
nan

$$$$

     RDKit          2D

 35 39  0  0  0  0  0  0  0  0999 V2000
   -5.6260  -10.9888    0.0000 O   0  0  0  0  0  0  0  0  0  0  0  0
   -5.3142   -9.5216    0.0000 C   0  0  0  0  0  0  0  0  0  0  0  0
   -6.4289   -8.5179    0.0000 C   0  0  0  0  0  0  0  0  0  0  0  0
   -6.1170   -7.0506    0.0000 C   0  0  0  0  0  0  0  0  0  0  0  0
   -4.6904   -6.5871    0.0000 N   0  0  0  0  0  0  0  0  0  0  0  0
   -4.3786   -5.1199    0.0000 C   0  0  0  0  0  0  0  0  0  0  0  0
   -2.9520   -4.6564    0.0000 C   0  0  0  0  0  0  0  0  0  0  0  0
   -2.6401   -3.1891    0.0000 O   0  0  0  0  0  0  0  0  0  0  0  0
   -1.2135   -2.7256    0.0000 C   0  0  0  0  0  0  0  0  0  0  0  0
   -0.0000   -3.6073    0.0000 N   0  0  0  0  0  0  0  0  0  0  0  0
    1.2135   -2.7256    0.0000 N   0  0  0  0  0  0  0  0  0  0  0  0
    0.7500   -1.2990    0.0000 C   0  0  0  0  0  0  0  0  0  0  0  0
    1.5000    0.0000    0.0000 N   0  0  0  0  0  0  0  0  0  0  0  0
    0.7500    1.2990    0.0000 C   0  0  0  0  0  0  0  0  0  0  0  0
   -0.7500    1.2990    0.0000 N   0  0  0  0  0  0  0  0  0  0  0  0
   -1.5000    0.0000    0.0000 C   0  0  0  0  0  0  0  0  0  0  0  0
   -3.0000    0.0000    0.0000 N   0  0  0  0  0  0  0  0  0  0  0  0
   -3.7500    1.2990    0.0000 C   0  0  0  0  0  0  0  0  0  0  0  0
   -3.0000    2.5981    0.0000 C   0  0  0  0  0  0  0  0  0  0  0  0
   -3.7500    3.8971    0.0000 C   0  0  0  0  0  0  0  0  0  0  0  0
   -5.2500    3.8971    0.0000 C   0  0  0  0  0  0  0  0  0  0  0  0
   -6.0000    5.1962    0.0000 O   0  0  0  0  0  0  0  0  0  0  0  0
   -5.2500    6.4952    0.0000 C   0  0  0  0  0  0  0  0  0  0  0  0
   -6.0000    7.7942    0.0000 C   0  0  0  0  0  0  0  0  0  0  0  0
   -5.2500    9.0933    0.0000 C   0  0  0  0  0  0  0  0  0  0  0  0
   -6.0000   10.3923    0.0000 C   0  0  0  0  0  0  0  0  0  0  0  0
   -7.5000   10.3923    0.0000 C   0  0  0  0  0  0  0  0  0  0  0  0
   -8.2500    9.0933    0.0000 C   0  0  0  0  0  0  0  0  0  0  0  0
   -7.5000    7.7942    0.0000 N   0  0  0  0  0  0  0  0  0  0  0  0
   -6.0000    2.5981    0.0000 C   0  0  0  0  0  0  0  0  0  0  0  0
   -7.5000    2.5981    0.0000 Cl  0  0  0  0  0  0  0  0  0  0  0  0
   -5.2500    1.2990    0.0000 C   0  0  0  0  0  0  0  0  0  0  0  0
   -0.7500   -1.2990    0.0000 C   0  0  0  0  0  0  0  0  0  0  0  0
   -3.5757   -7.5908    0.0000 C   0  0  0  0  0  0  0  0  0  0  0  0
   -3.8876   -9.0580    0.0000 C   0  0  0  0  0  0  0  0  0  0  0  0
  1  2  1  0
  2  3  1  0
  3  4  1  0
  4  5  1  0
  5  6  1  0
  6  7  1  0
  7  8  1  0
  8  9  1  0
  9 10  2  0
 10 11  1  0
 11 12  1  0
 12 13  2  0
 13 14  1  0
 14 15  2  0
 15 16  1  0
 16 17  1  0
 17 18  1  0
 18 19  2  0
 19 20  1  0
 20 21  2  0
 21 22  1  0
 22 23  1  0
 23 24  1  0
 24 25  2  0
 25 26  1  0
 26 27  2  0
 27 28  1  0
 28 29  2  0
 21 30  1  0
 30 31  1  0
 30 32  2  0
 16 33  2  0
  5 34  1  0
 34 35  1  0
 35  2  1  0
 33  9  1  0
 33 12  1  0
 32 18  1  0
 29 24  1  0
M  END
>  <Compound_ID>  (988) 
CHEMBL404405

>  <Active>  (988) 
1.0

>  <Smiles>  (988) 
OC1CCN(CCOc2n[nH]c3ncnc(Nc4ccc(OCc5ccccn5)c(Cl)c4)c23)CC1

>  <canonical_smi>  (988) 
OC1CCN(CCOc2n[nH]c3ncnc(Nc4ccc(OCc5ccccn5)c(Cl)c4)c23)CC1

>  <Set>  (988) 
G2 active

>  <Set_type>  (988) 
Test

>  <MW>  (988) 
495.97

>  <HBD>  (988) 
3

>  <HBA>  (988) 
9

>  <NRB>  (988) 
9

>  <NR>  (988) 
5

>  <NAR>  (988) 
4

>  <PSA>  (988) 
121.31

>  <Standard Type>  (988) 
nan

>  <Standard Relation>  (988) 
nan

>  <Standard Units>  (988) 
nan

>  <Standard Value>  (988) 
nan

>  <Assay ChEMBL ID>  (988) 
nan

>  <Assay Description>  (988) 
nan

>  <BAO Label>  (988) 
nan

$$$$

     RDKit          2D

 36 40  0  0  0  0  0  0  0  0999 V2000
  -10.3968   -8.4412    0.0000 C   0  0  0  0  0  0  0  0  0  0  0  0
   -8.9702   -7.9777    0.0000 N   0  0  0  0  0  0  0  0  0  0  0  0
   -8.6583   -6.5105    0.0000 C   0  0  0  0  0  0  0  0  0  0  0  0
   -7.2317   -6.0469    0.0000 C   0  0  0  0  0  0  0  0  0  0  0  0
   -6.1170   -7.0506    0.0000 N   0  0  0  0  0  0  0  0  0  0  0  0
   -4.6904   -6.5871    0.0000 C   0  0  0  0  0  0  0  0  0  0  0  0
   -4.3786   -5.1199    0.0000 C   0  0  0  0  0  0  0  0  0  0  0  0
   -2.9520   -4.6564    0.0000 C   0  0  0  0  0  0  0  0  0  0  0  0
   -2.6401   -3.1891    0.0000 O   0  0  0  0  0  0  0  0  0  0  0  0
   -1.2135   -2.7256    0.0000 C   0  0  0  0  0  0  0  0  0  0  0  0
   -0.0000   -3.6073    0.0000 N   0  0  0  0  0  0  0  0  0  0  0  0
    1.2135   -2.7256    0.0000 N   0  0  0  0  0  0  0  0  0  0  0  0
    0.7500   -1.2990    0.0000 C   0  0  0  0  0  0  0  0  0  0  0  0
    1.5000    0.0000    0.0000 N   0  0  0  0  0  0  0  0  0  0  0  0
    0.7500    1.2990    0.0000 C   0  0  0  0  0  0  0  0  0  0  0  0
   -0.7500    1.2990    0.0000 N   0  0  0  0  0  0  0  0  0  0  0  0
   -1.5000    0.0000    0.0000 C   0  0  0  0  0  0  0  0  0  0  0  0
   -3.0000    0.0000    0.0000 N   0  0  0  0  0  0  0  0  0  0  0  0
   -3.7500    1.2990    0.0000 C   0  0  0  0  0  0  0  0  0  0  0  0
   -3.0000    2.5981    0.0000 C   0  0  0  0  0  0  0  0  0  0  0  0
   -3.7500    3.8971    0.0000 C   0  0  0  0  0  0  0  0  0  0  0  0
   -5.2500    3.8971    0.0000 C   0  0  0  0  0  0  0  0  0  0  0  0
   -6.0000    5.1962    0.0000 O   0  0  0  0  0  0  0  0  0  0  0  0
   -5.2500    6.4952    0.0000 C   0  0  0  0  0  0  0  0  0  0  0  0
   -6.0000    7.7942    0.0000 C   0  0  0  0  0  0  0  0  0  0  0  0
   -5.2500    9.0933    0.0000 C   0  0  0  0  0  0  0  0  0  0  0  0
   -6.0000   10.3923    0.0000 C   0  0  0  0  0  0  0  0  0  0  0  0
   -7.5000   10.3923    0.0000 C   0  0  0  0  0  0  0  0  0  0  0  0
   -8.2500    9.0933    0.0000 C   0  0  0  0  0  0  0  0  0  0  0  0
   -7.5000    7.7942    0.0000 N   0  0  0  0  0  0  0  0  0  0  0  0
   -6.0000    2.5981    0.0000 C   0  0  0  0  0  0  0  0  0  0  0  0
   -7.5000    2.5981    0.0000 Cl  0  0  0  0  0  0  0  0  0  0  0  0
   -5.2500    1.2990    0.0000 C   0  0  0  0  0  0  0  0  0  0  0  0
   -0.7500   -1.2990    0.0000 C   0  0  0  0  0  0  0  0  0  0  0  0
   -6.4289   -8.5179    0.0000 C   0  0  0  0  0  0  0  0  0  0  0  0
   -7.8555   -8.9814    0.0000 C   0  0  0  0  0  0  0  0  0  0  0  0
  1  2  1  0
  2  3  1  0
  3  4  1  0
  4  5  1  0
  5  6  1  0
  6  7  1  0
  7  8  1  0
  8  9  1  0
  9 10  1  0
 10 11  2  0
 11 12  1  0
 12 13  1  0
 13 14  2  0
 14 15  1  0
 15 16  2  0
 16 17  1  0
 17 18  1  0
 18 19  1  0
 19 20  2  0
 20 21  1  0
 21 22  2  0
 22 23  1  0
 23 24  1  0
 24 25  1  0
 25 26  2  0
 26 27  1  0
 27 28  2  0
 28 29  1  0
 29 30  2  0
 22 31  1  0
 31 32  1  0
 31 33  2  0
 17 34  2  0
  5 35  1  0
 35 36  1  0
 36  2  1  0
 34 10  1  0
 34 13  1  0
 33 19  1  0
 30 25  1  0
M  END
>  <Compound_ID>  (989) 
CHEMBL272935

>  <Active>  (989) 
1.0

>  <Smiles>  (989) 
CN1CCN(CCCOc2n[nH]c3ncnc(Nc4ccc(OCc5ccccn5)c(Cl)c4)c23)CC1

>  <canonical_smi>  (989) 
CN1CCN(CCCOc2n[nH]c3ncnc(Nc4ccc(OCc5ccccn5)c(Cl)c4)c23)CC1

>  <Set>  (989) 
G2 active

>  <Set_type>  (989) 
Test

>  <MW>  (989) 
509.01

>  <HBD>  (989) 
2

>  <HBA>  (989) 
9

>  <NRB>  (989) 
10

>  <NR>  (989) 
5

>  <NAR>  (989) 
4

>  <PSA>  (989) 
104.32

>  <Standard Type>  (989) 
nan

>  <Standard Relation>  (989) 
nan

>  <Standard Units>  (989) 
nan

>  <Standard Value>  (989) 
nan

>  <Assay ChEMBL ID>  (989) 
nan

>  <Assay Description>  (989) 
nan

>  <BAO Label>  (989) 
nan

$$$$

     RDKit          2D

 33 37  0  0  0  0  0  0  0  0999 V2000
    7.5000   -2.5981    0.0000 F   0  0  0  0  0  0  0  0  0  0  0  0
    6.0000   -2.5981    0.0000 C   0  0  0  0  0  0  0  0  0  0  0  0
    5.2500   -3.8971    0.0000 C   0  0  0  0  0  0  0  0  0  0  0  0
    3.7500   -3.8971    0.0000 C   0  0  0  0  0  0  0  0  0  0  0  0
    3.0000   -2.5981    0.0000 C   0  0  0  0  0  0  0  0  0  0  0  0
    1.5000   -2.5981    0.0000 N   0  0  0  0  0  0  0  0  0  0  0  0
    0.7500   -1.2990    0.0000 C   0  0  0  0  0  0  0  0  0  0  0  0
    1.5000    0.0000    0.0000 N   0  0  0  0  0  0  0  0  0  0  0  0
    0.7500    1.2990    0.0000 C   0  0  0  0  0  0  0  0  0  0  0  0
   -0.7500    1.2990    0.0000 N   0  0  0  0  0  0  0  0  0  0  0  0
   -1.5000    0.0000    0.0000 C   0  0  0  0  0  0  0  0  0  0  0  0
   -2.9672   -0.3119    0.0000 N   0  0  0  0  0  0  0  0  0  0  0  0
   -3.1240   -1.8037    0.0000 C   0  0  0  0  0  0  0  0  0  0  0  0
   -4.4231   -2.5537    0.0000 N   0  0  0  0  0  0  0  0  0  0  0  0
   -5.7221   -1.8037    0.0000 C   0  0  0  0  0  0  0  0  0  0  0  0
   -5.7221   -0.3037    0.0000 C   0  0  0  0  0  0  0  0  0  0  0  0
   -7.0211    0.4463    0.0000 C   0  0  0  0  0  0  0  0  0  0  0  0
   -8.3202   -0.3037    0.0000 C   0  0  0  0  0  0  0  0  0  0  0  0
   -9.6192    0.4463    0.0000 C   0  0  0  0  0  0  0  0  0  0  0  0
   -9.6192    1.9463    0.0000 C   0  0  0  0  0  0  0  0  0  0  0  0
  -10.9182    2.6963    0.0000 N   0  0  0  0  0  0  0  0  0  0  0  0
  -10.9182    4.1963    0.0000 C   0  0  0  0  0  0  0  0  0  0  0  0
  -12.2173    4.9463    0.0000 C   0  0  0  0  0  0  0  0  0  0  0  0
  -13.5163    4.1963    0.0000 O   0  0  0  0  0  0  0  0  0  0  0  0
  -13.5163    2.6963    0.0000 C   0  0  0  0  0  0  0  0  0  0  0  0
  -12.2173    1.9463    0.0000 C   0  0  0  0  0  0  0  0  0  0  0  0
   -8.3202   -1.8037    0.0000 C   0  0  0  0  0  0  0  0  0  0  0  0
   -7.0211   -2.5537    0.0000 C   0  0  0  0  0  0  0  0  0  0  0  0
   -1.7537   -2.4138    0.0000 S   0  0  0  0  0  0  0  0  0  0  0  0
   -0.7500   -1.2990    0.0000 C   0  0  0  0  0  0  0  0  0  0  0  0
    3.7500   -1.2990    0.0000 C   0  0  0  0  0  0  0  0  0  0  0  0
    5.2500   -1.2990    0.0000 C   0  0  0  0  0  0  0  0  0  0  0  0
    6.0000   -0.0000    0.0000 Cl  0  0  0  0  0  0  0  0  0  0  0  0
  1  2  1  0
  2  3  2  0
  3  4  1  0
  4  5  2  0
  5  6  1  0
  6  7  1  0
  7  8  2  0
  8  9  1  0
  9 10  2  0
 10 11  1  0
 11 12  1  0
 12 13  2  0
 13 14  1  0
 14 15  1  0
 15 16  2  0
 16 17  1  0
 17 18  2  0
 18 19  1  0
 19 20  1  0
 20 21  1  0
 21 22  1  0
 22 23  1  0
 23 24  1  0
 24 25  1  0
 25 26  1  0
 18 27  1  0
 27 28  2  0
 13 29  1  0
 29 30  1  0
  5 31  1  0
 31 32  2  0
 32 33  1  0
 32  2  1  0
 30  7  1  0
 30 11  2  0
 28 15  1  0
 26 21  1  0
M  END
>  <Compound_ID>  (990) 
CHEMBL470012

>  <Active>  (990) 
1.0

>  <Smiles>  (990) 
Fc1ccc(Nc2ncnc3nc(Nc4ccc(CCN5CCOCC5)cc4)sc23)cc1Cl

>  <canonical_smi>  (990) 
Fc1ccc(Nc2ncnc3nc(Nc4ccc(CCN5CCOCC5)cc4)sc23)cc1Cl

>  <Set>  (990) 
G2 active

>  <Set_type>  (990) 
Test

>  <MW>  (990) 
484.99

>  <HBD>  (990) 
2

>  <HBA>  (990) 
7

>  <NRB>  (990) 
7

>  <NR>  (990) 
5

>  <NAR>  (990) 
4

>  <PSA>  (990) 
75.2

>  <Standard Type>  (990) 
nan

>  <Standard Relation>  (990) 
nan

>  <Standard Units>  (990) 
nan

>  <Standard Value>  (990) 
nan

>  <Assay ChEMBL ID>  (990) 
nan

>  <Assay Description>  (990) 
nan

>  <BAO Label>  (990) 
nan

$$$$

     RDKit          2D

 29 32  0  0  0  0  0  0  0  0999 V2000
   -4.6904   -6.5871    0.0000 O   0  0  0  0  0  0  0  0  0  0  0  0
   -4.3786   -5.1199    0.0000 C   0  0  0  0  0  0  0  0  0  0  0  0
   -2.9520   -4.6564    0.0000 C   0  0  0  0  0  0  0  0  0  0  0  0
   -2.6401   -3.1891    0.0000 O   0  0  0  0  0  0  0  0  0  0  0  0
   -1.2135   -2.7256    0.0000 C   0  0  0  0  0  0  0  0  0  0  0  0
   -0.0000   -3.6073    0.0000 N   0  0  0  0  0  0  0  0  0  0  0  0
    1.2135   -2.7256    0.0000 N   0  0  0  0  0  0  0  0  0  0  0  0
    0.7500   -1.2990    0.0000 C   0  0  0  0  0  0  0  0  0  0  0  0
    1.5000    0.0000    0.0000 N   0  0  0  0  0  0  0  0  0  0  0  0
    0.7500    1.2990    0.0000 C   0  0  0  0  0  0  0  0  0  0  0  0
   -0.7500    1.2990    0.0000 N   0  0  0  0  0  0  0  0  0  0  0  0
   -1.5000    0.0000    0.0000 C   0  0  0  0  0  0  0  0  0  0  0  0
   -3.0000    0.0000    0.0000 N   0  0  0  0  0  0  0  0  0  0  0  0
   -3.7500    1.2990    0.0000 C   0  0  0  0  0  0  0  0  0  0  0  0
   -3.0000    2.5981    0.0000 C   0  0  0  0  0  0  0  0  0  0  0  0
   -3.7500    3.8971    0.0000 C   0  0  0  0  0  0  0  0  0  0  0  0
   -5.2500    3.8971    0.0000 C   0  0  0  0  0  0  0  0  0  0  0  0
   -6.0000    5.1962    0.0000 O   0  0  0  0  0  0  0  0  0  0  0  0
   -5.2500    6.4952    0.0000 C   0  0  0  0  0  0  0  0  0  0  0  0
   -6.0000    7.7942    0.0000 C   0  0  0  0  0  0  0  0  0  0  0  0
   -5.2500    9.0933    0.0000 C   0  0  0  0  0  0  0  0  0  0  0  0
   -6.0000   10.3923    0.0000 C   0  0  0  0  0  0  0  0  0  0  0  0
   -7.5000   10.3923    0.0000 C   0  0  0  0  0  0  0  0  0  0  0  0
   -8.2500    9.0933    0.0000 C   0  0  0  0  0  0  0  0  0  0  0  0
   -7.5000    7.7942    0.0000 N   0  0  0  0  0  0  0  0  0  0  0  0
   -6.0000    2.5981    0.0000 C   0  0  0  0  0  0  0  0  0  0  0  0
   -7.5000    2.5981    0.0000 Cl  0  0  0  0  0  0  0  0  0  0  0  0
   -5.2500    1.2990    0.0000 C   0  0  0  0  0  0  0  0  0  0  0  0
   -0.7500   -1.2990    0.0000 C   0  0  0  0  0  0  0  0  0  0  0  0
  1  2  1  0
  2  3  1  0
  3  4  1  0
  4  5  1  0
  5  6  2  0
  6  7  1  0
  7  8  1  0
  8  9  2  0
  9 10  1  0
 10 11  2  0
 11 12  1  0
 12 13  1  0
 13 14  1  0
 14 15  2  0
 15 16  1  0
 16 17  2  0
 17 18  1  0
 18 19  1  0
 19 20  1  0
 20 21  2  0
 21 22  1  0
 22 23  2  0
 23 24  1  0
 24 25  2  0
 17 26  1  0
 26 27  1  0
 26 28  2  0
 12 29  2  0
 29  5  1  0
 29  8  1  0
 28 14  1  0
 25 20  1  0
M  END
>  <Compound_ID>  (991) 
CHEMBL257861

>  <Active>  (991) 
1.0

>  <Smiles>  (991) 
OCCOc1n[nH]c2ncnc(Nc3ccc(OCc4ccccn4)c(Cl)c3)c12

>  <canonical_smi>  (991) 
OCCOc1n[nH]c2ncnc(Nc3ccc(OCc4ccccn4)c(Cl)c3)c12

>  <Set>  (991) 
G2 active

>  <Set_type>  (991) 
Test

>  <MW>  (991) 
412.84

>  <HBD>  (991) 
3

>  <HBA>  (991) 
8

>  <NRB>  (991) 
8

>  <NR>  (991) 
4

>  <NAR>  (991) 
4

>  <PSA>  (991) 
118.07

>  <Standard Type>  (991) 
nan

>  <Standard Relation>  (991) 
nan

>  <Standard Units>  (991) 
nan

>  <Standard Value>  (991) 
nan

>  <Assay ChEMBL ID>  (991) 
nan

>  <Assay Description>  (991) 
nan

>  <BAO Label>  (991) 
nan

$$$$

     RDKit          2D

 33 37  0  0  0  0  0  0  0  0999 V2000
    1.5000   -7.7942    0.0000 N   0  0  0  0  0  0  0  0  0  0  0  0
    0.7500   -6.4952    0.0000 C   0  0  0  0  0  0  0  0  0  0  0  0
   -0.7500   -6.4952    0.0000 N   0  0  0  0  0  0  0  0  0  0  0  0
   -1.5000   -5.1962    0.0000 C   0  0  0  0  0  0  0  0  0  0  0  0
   -0.7500   -3.8971    0.0000 N   0  0  0  0  0  0  0  0  0  0  0  0
    0.7500   -3.8971    0.0000 C   0  0  0  0  0  0  0  0  0  0  0  0
    1.5000   -2.5981    0.0000 N   0  0  0  0  0  0  0  0  0  0  0  0
    0.7500   -1.2990    0.0000 C   0  0  0  0  0  0  0  0  0  0  0  0
    1.5000    0.0000    0.0000 C   0  0  0  0  0  0  0  0  0  0  0  0
    0.7500    1.2990    0.0000 C   0  0  0  0  0  0  0  0  0  0  0  0
   -0.7500    1.2990    0.0000 C   0  0  0  0  0  0  0  0  0  0  0  0
   -1.5000    0.0000    0.0000 C   0  0  0  0  0  0  0  0  0  0  0  0
   -2.9672    0.3119    0.0000 C   0  0  0  0  0  0  0  0  0  0  0  0
   -3.1240    1.8037    0.0000 N   0  0  0  0  0  0  0  0  0  0  0  0
   -1.7537    2.4138    0.0000 N   0  0  0  0  0  0  0  0  0  0  0  0
   -1.4418    3.8810    0.0000 C   0  0  0  0  0  0  0  0  0  0  0  0
   -2.5565    4.8847    0.0000 C   0  0  0  0  0  0  0  0  0  0  0  0
   -2.2447    6.3519    0.0000 C   0  0  0  0  0  0  0  0  0  0  0  0
   -3.3594    7.3556    0.0000 C   0  0  0  0  0  0  0  0  0  0  0  0
   -4.7860    6.8921    0.0000 C   0  0  0  0  0  0  0  0  0  0  0  0
   -5.0978    5.4248    0.0000 C   0  0  0  0  0  0  0  0  0  0  0  0
   -6.5244    4.9613    0.0000 F   0  0  0  0  0  0  0  0  0  0  0  0
   -3.9831    4.4211    0.0000 C   0  0  0  0  0  0  0  0  0  0  0  0
   -0.7500   -1.2990    0.0000 C   0  0  0  0  0  0  0  0  0  0  0  0
    1.5000   -5.1962    0.0000 C   0  0  0  0  0  0  0  0  0  0  0  0
    3.0000   -5.1962    0.0000 C   0  0  0  0  0  0  0  0  0  0  0  0
    3.7500   -6.4952    0.0000 N   0  0  0  0  0  0  0  0  0  0  0  0
    5.2500   -6.4952    0.0000 N   0  0  0  0  0  0  0  0  0  0  0  0
    6.0000   -7.7942    0.0000 C   0  0  0  0  0  0  0  0  0  0  0  0
    7.5000   -7.7942    0.0000 C   0  0  0  0  0  0  0  0  0  0  0  0
    8.2500   -6.4952    0.0000 O   0  0  0  0  0  0  0  0  0  0  0  0
    7.5000   -5.1962    0.0000 C   0  0  0  0  0  0  0  0  0  0  0  0
    6.0000   -5.1962    0.0000 C   0  0  0  0  0  0  0  0  0  0  0  0
  1  2  1  0
  2  3  2  0
  3  4  1  0
  4  5  2  0
  5  6  1  0
  6  7  1  0
  7  8  1  0
  8  9  2  0
  9 10  1  0
 10 11  2  0
 11 12  1  0
 12 13  1  0
 13 14  2  0
 14 15  1  0
 15 16  1  0
 16 17  1  0
 17 18  2  0
 18 19  1  0
 19 20  2  0
 20 21  1  0
 21 22  1  0
 21 23  2  0
 12 24  2  0
  6 25  2  0
 25 26  1  0
 26 27  2  0
 27 28  1  0
 28 29  1  0
 29 30  1  0
 30 31  1  0
 31 32  1  0
 32 33  1  0
 25  2  1  0
 33 28  1  0
 24  8  1  0
 15 11  1  0
 23 17  1  0
M  END
>  <Compound_ID>  (992) 
CHEMBL498133

>  <Active>  (992) 
1.0

>  <Smiles>  (992) 
Nc1ncnc(Nc2ccc3c(cnn3Cc3cccc(F)c3)c2)c1/C=N/N1CCOCC1

>  <canonical_smi>  (992) 
Nc1ncnc(Nc2ccc3c(cnn3Cc3cccc(F)c3)c2)c1/C=N/N1CCOCC1

>  <Set>  (992) 
G2 active

>  <Set_type>  (992) 
Test

>  <MW>  (992) 
446.49

>  <HBD>  (992) 
2

>  <HBA>  (992) 
7

>  <NRB>  (992) 
6

>  <NR>  (992) 
5

>  <NAR>  (992) 
4

>  <PSA>  (992) 
106.48

>  <Standard Type>  (992) 
nan

>  <Standard Relation>  (992) 
nan

>  <Standard Units>  (992) 
nan

>  <Standard Value>  (992) 
nan

>  <Assay ChEMBL ID>  (992) 
nan

>  <Assay Description>  (992) 
nan

>  <BAO Label>  (992) 
nan

$$$$

     RDKit          2D

 35 40  0  0  0  0  0  0  0  0999 V2000
   -1.0344   -8.1310    0.0000 C   0  0  0  0  0  0  0  0  0  0  0  0
   -2.1491   -7.1273    0.0000 C   0  0  0  0  0  0  0  0  0  0  0  0
   -3.5757   -7.5908    0.0000 C   0  0  0  0  0  0  0  0  0  0  0  0
   -4.6904   -6.5871    0.0000 N   0  0  0  0  0  0  0  0  0  0  0  0
   -4.3786   -5.1199    0.0000 C   0  0  0  0  0  0  0  0  0  0  0  0
   -2.9520   -4.6564    0.0000 C   0  0  0  0  0  0  0  0  0  0  0  0
   -2.6401   -3.1891    0.0000 C   0  0  0  0  0  0  0  0  0  0  0  0
   -1.2135   -2.7256    0.0000 N   0  0  0  0  0  0  0  0  0  0  0  0
   -0.0000   -3.6073    0.0000 N   0  0  0  0  0  0  0  0  0  0  0  0
    1.2135   -2.7256    0.0000 C   0  0  0  0  0  0  0  0  0  0  0  0
    0.7500   -1.2990    0.0000 C   0  0  0  0  0  0  0  0  0  0  0  0
    1.5000    0.0000    0.0000 C   0  0  0  0  0  0  0  0  0  0  0  0
    0.7500    1.2990    0.0000 C   0  0  0  0  0  0  0  0  0  0  0  0
    1.5000    2.5981    0.0000 N   0  0  0  0  0  0  0  0  0  0  0  0
    3.0000    2.5981    0.0000 C   0  0  0  0  0  0  0  0  0  0  0  0
    3.7500    1.2990    0.0000 N   0  0  0  0  0  0  0  0  0  0  0  0
    5.2500    1.2990    0.0000 C   0  0  0  0  0  0  0  0  0  0  0  0
    6.0000    2.5981    0.0000 N   0  0  0  0  0  0  0  0  0  0  0  0
    5.2500    3.8971    0.0000 N   0  0  0  0  0  0  0  0  0  0  0  0
    5.7135    5.3237    0.0000 C   0  0  0  0  0  0  0  0  0  0  0  0
    4.5000    6.2054    0.0000 C   0  0  0  0  0  0  0  0  0  0  0  0
    3.2865    5.3237    0.0000 C   0  0  0  0  0  0  0  0  0  0  0  0
    1.8599    5.7872    0.0000 C   0  0  0  0  0  0  0  0  0  0  0  0
    1.5480    7.2544    0.0000 N   0  0  0  0  0  0  0  0  0  0  0  0
    2.6627    8.2581    0.0000 C   0  0  0  0  0  0  0  0  0  0  0  0
    2.3509    9.7254    0.0000 C   0  0  0  0  0  0  0  0  0  0  0  0
    0.9243   10.1889    0.0000 C   0  0  0  0  0  0  0  0  0  0  0  0
    0.6124   11.6561    0.0000 N   0  0  0  0  0  0  0  0  0  0  0  0
   -0.1904    9.1852    0.0000 C   0  0  0  0  0  0  0  0  0  0  0  0
    0.1214    7.7180    0.0000 C   0  0  0  0  0  0  0  0  0  0  0  0
    3.7500    3.8971    0.0000 C   0  0  0  0  0  0  0  0  0  0  0  0
   -0.7500    1.2990    0.0000 C   0  0  0  0  0  0  0  0  0  0  0  0
   -1.5000    0.0000    0.0000 C   0  0  0  0  0  0  0  0  0  0  0  0
   -0.7500   -1.2990    0.0000 C   0  0  0  0  0  0  0  0  0  0  0  0
   -1.8373   -5.6601    0.0000 C   0  0  0  0  0  0  0  0  0  0  0  0
  1  2  1  0
  2  3  2  0
  3  4  1  0
  4  5  2  0
  5  6  1  0
  6  7  1  0
  7  8  1  0
  8  9  1  0
  9 10  2  0
 10 11  1  0
 11 12  2  0
 12 13  1  0
 13 14  1  0
 14 15  1  0
 15 16  2  0
 16 17  1  0
 17 18  2  0
 18 19  1  0
 19 20  1  0
 20 21  2  0
 21 22  1  0
 22 23  1  0
 23 24  1  0
 24 25  1  0
 25 26  1  0
 26 27  1  0
 27 28  1  0
 27 29  1  0
 29 30  1  0
 22 31  2  0
 13 32  2  0
 32 33  1  0
 33 34  2  0
  6 35  2  0
 35  2  1  0
 34  8  1  0
 34 11  1  0
 31 15  1  0
 31 19  1  0
 30 24  1  0
M  END
>  <Compound_ID>  (993) 
CHEMBL248114

>  <Active>  (993) 
1.0

>  <Smiles>  (993) 
Cc1cncc(Cn2ncc3cc(Nc4ncnn5ccc(CN6CCC(N)CC6)c45)ccc32)c1

>  <canonical_smi>  (993) 
Cc1cncc(Cn2ncc3cc(Nc4ncnn5ccc(CN6CCC(N)CC6)c45)ccc32)c1

>  <Set>  (993) 
G2 active

>  <Set_type>  (993) 
Test

>  <MW>  (993) 
467.58

>  <HBD>  (993) 
2

>  <HBA>  (993) 
7

>  <NRB>  (993) 
6

>  <NR>  (993) 
6

>  <NAR>  (993) 
5

>  <PSA>  (993) 
102.19

>  <Standard Type>  (993) 
nan

>  <Standard Relation>  (993) 
nan

>  <Standard Units>  (993) 
nan

>  <Standard Value>  (993) 
nan

>  <Assay ChEMBL ID>  (993) 
nan

>  <Assay Description>  (993) 
nan

>  <BAO Label>  (993) 
nan

$$$$

     RDKit          2D

 30 33  0  0  0  0  0  0  0  0999 V2000
   -0.7500   -3.8971    0.0000 O   0  0  0  0  0  0  0  0  0  0  0  0
    0.7500   -3.8971    0.0000 C   0  0  0  0  0  0  0  0  0  0  0  0
    1.5000   -5.1962    0.0000 C   0  0  0  0  0  0  0  0  0  0  0  0
    2.2500   -6.4952    0.0000 C   0  0  0  0  0  0  0  0  0  0  0  0
    3.0000   -7.7942    0.0000 C   0  0  0  0  0  0  0  0  0  0  0  0
    2.2500   -9.0933    0.0000 N   0  0  0  0  0  0  0  0  0  0  0  0
    0.7500   -9.0933    0.0000 C   0  0  0  0  0  0  0  0  0  0  0  0
   -0.0000  -10.3923    0.0000 C   0  0  0  0  0  0  0  0  0  0  0  0
    0.7500  -11.6913    0.0000 O   0  0  0  0  0  0  0  0  0  0  0  0
    2.2500  -11.6913    0.0000 C   0  0  0  0  0  0  0  0  0  0  0  0
    3.0000  -10.3923    0.0000 C   0  0  0  0  0  0  0  0  0  0  0  0
    1.5000   -2.5981    0.0000 N   0  0  0  0  0  0  0  0  0  0  0  0
    0.7500   -1.2990    0.0000 C   0  0  0  0  0  0  0  0  0  0  0  0
    1.5000    0.0000    0.0000 C   0  0  0  0  0  0  0  0  0  0  0  0
    0.7500    1.2990    0.0000 C   0  0  0  0  0  0  0  0  0  0  0  0
   -0.7500    1.2990    0.0000 C   0  0  0  0  0  0  0  0  0  0  0  0
   -1.5000    2.5981    0.0000 N   0  0  0  0  0  0  0  0  0  0  0  0
   -3.0000    2.5981    0.0000 C   0  0  0  0  0  0  0  0  0  0  0  0
   -3.7500    1.2990    0.0000 N   0  0  0  0  0  0  0  0  0  0  0  0
   -3.0000    0.0000    0.0000 C   0  0  0  0  0  0  0  0  0  0  0  0
   -3.7500   -1.2990    0.0000 N   0  0  0  0  0  0  0  0  0  0  0  0
   -5.2500   -1.2990    0.0000 C   0  0  0  0  0  0  0  0  0  0  0  0
   -6.0000    0.0000    0.0000 C   0  0  0  0  0  0  0  0  0  0  0  0
   -7.5000    0.0000    0.0000 C   0  0  0  0  0  0  0  0  0  0  0  0
   -8.2500   -1.2990    0.0000 C   0  0  0  0  0  0  0  0  0  0  0  0
   -7.5000   -2.5981    0.0000 C   0  0  0  0  0  0  0  0  0  0  0  0
   -8.2500   -3.8971    0.0000 Br  0  0  0  0  0  0  0  0  0  0  0  0
   -6.0000   -2.5981    0.0000 C   0  0  0  0  0  0  0  0  0  0  0  0
   -1.5000    0.0000    0.0000 C   0  0  0  0  0  0  0  0  0  0  0  0
   -0.7500   -1.2990    0.0000 C   0  0  0  0  0  0  0  0  0  0  0  0
  1  2  2  0
  2  3  1  0
  3  4  3  0
  4  5  1  0
  5  6  1  0
  6  7  1  0
  7  8  1  0
  8  9  1  0
  9 10  1  0
 10 11  1  0
  2 12  1  0
 12 13  1  0
 13 14  2  0
 14 15  1  0
 15 16  2  0
 16 17  1  0
 17 18  2  0
 18 19  1  0
 19 20  2  0
 20 21  1  0
 21 22  1  0
 22 23  2  0
 23 24  1  0
 24 25  2  0
 25 26  1  0
 26 27  1  0
 26 28  2  0
 20 29  1  0
 29 30  2  0
 11  6  1  0
 30 13  1  0
 29 16  1  0
 28 22  1  0
M  END
>  <Compound_ID>  (994) 
CHEMBL93386

>  <Active>  (994) 
1.0

>  <Smiles>  (994) 
O=C(C#CCN1CCOCC1)Nc1ccc2ncnc(Nc3cccc(Br)c3)c2c1

>  <canonical_smi>  (994) 
O=C(C#CCN1CCOCC1)Nc1ccc2ncnc(Nc3cccc(Br)c3)c2c1

>  <Set>  (994) 
G2 active

>  <Set_type>  (994) 
Test

>  <MW>  (994) 
466.34

>  <HBD>  (994) 
2

>  <HBA>  (994) 
6

>  <NRB>  (994) 
4

>  <NR>  (994) 
4

>  <NAR>  (994) 
3

>  <PSA>  (994) 
79.38

>  <Standard Type>  (994) 
nan

>  <Standard Relation>  (994) 
nan

>  <Standard Units>  (994) 
nan

>  <Standard Value>  (994) 
nan

>  <Assay ChEMBL ID>  (994) 
nan

>  <Assay Description>  (994) 
nan

>  <BAO Label>  (994) 
nan

$$$$

     RDKit          2D

 39 42  0  0  0  0  0  0  0  0999 V2000
    5.2500   -1.2990    0.0000 C   0  0  0  0  0  0  0  0  0  0  0  0
    3.7500   -1.2990    0.0000 C   0  0  0  0  0  0  0  0  0  0  0  0
    3.0000    0.0000    0.0000 O   0  0  0  0  0  0  0  0  0  0  0  0
    1.5000    0.0000    0.0000 C   0  0  0  0  0  0  0  0  0  0  0  0
    0.7500   -1.2990    0.0000 C   0  0  0  0  0  0  0  0  0  0  0  0
   -0.7500   -1.2990    0.0000 C   0  0  0  0  0  0  0  0  0  0  0  0
   -1.5000   -2.5981    0.0000 N   0  0  0  0  0  0  0  0  0  0  0  0
   -3.0000   -2.5981    0.0000 C   0  0  0  0  0  0  0  0  0  0  0  0
   -3.7500   -1.2990    0.0000 C   0  0  0  0  0  0  0  0  0  0  0  0
   -5.2500   -1.2990    0.0000 C   0  0  0  0  0  0  0  0  0  0  0  0
   -6.7500   -1.2990    0.0000 N   0  0  0  0  0  0  0  0  0  0  0  0
   -3.0000    0.0000    0.0000 C   0  0  0  0  0  0  0  0  0  0  0  0
   -3.7500    1.2990    0.0000 N   0  0  0  0  0  0  0  0  0  0  0  0
   -3.0000    2.5981    0.0000 C   0  0  0  0  0  0  0  0  0  0  0  0
   -1.5000    2.5981    0.0000 C   0  0  0  0  0  0  0  0  0  0  0  0
   -0.7500    3.8971    0.0000 C   0  0  0  0  0  0  0  0  0  0  0  0
   -1.5000    5.1962    0.0000 C   0  0  0  0  0  0  0  0  0  0  0  0
   -0.7500    6.4952    0.0000 O   0  0  0  0  0  0  0  0  0  0  0  0
    0.7500    6.4952    0.0000 C   0  0  0  0  0  0  0  0  0  0  0  0
    1.5000    7.7942    0.0000 C   0  0  0  0  0  0  0  0  0  0  0  0
    0.8899    9.1645    0.0000 C   0  0  0  0  0  0  0  0  0  0  0  0
    2.0046   10.1682    0.0000 C   0  0  0  0  0  0  0  0  0  0  0  0
    3.3037    9.4182    0.0000 C   0  0  0  0  0  0  0  0  0  0  0  0
    2.9918    7.9510    0.0000 O   0  0  0  0  0  0  0  0  0  0  0  0
   -3.0000    5.1962    0.0000 C   0  0  0  0  0  0  0  0  0  0  0  0
   -3.7500    6.4952    0.0000 Cl  0  0  0  0  0  0  0  0  0  0  0  0
   -3.7500    3.8971    0.0000 C   0  0  0  0  0  0  0  0  0  0  0  0
   -1.5000    0.0000    0.0000 C   0  0  0  0  0  0  0  0  0  0  0  0
   -0.7500    1.2990    0.0000 C   0  0  0  0  0  0  0  0  0  0  0  0
    0.7500    1.2990    0.0000 C   0  0  0  0  0  0  0  0  0  0  0  0
    1.5000    2.5981    0.0000 N   0  0  0  0  0  0  0  0  0  0  0  0
    3.0000    2.5981    0.0000 C   0  0  0  0  0  0  0  0  0  0  0  0
    3.7500    1.2990    0.0000 O   0  0  0  0  0  0  0  0  0  0  0  0
    3.7500    3.8971    0.0000 C   0  0  0  0  0  0  0  0  0  0  0  0
    5.2500    3.8971    0.0000 C   0  0  0  0  0  0  0  0  0  0  0  0
    6.0000    5.1962    0.0000 C   0  0  0  0  0  0  0  0  0  0  0  0
    7.5000    5.1962    0.0000 N   0  0  0  0  0  0  0  0  0  0  0  0
    8.2500    6.4952    0.0000 C   0  0  0  0  0  0  0  0  0  0  0  0
    8.2500    3.8971    0.0000 C   0  0  0  0  0  0  0  0  0  0  0  0
  1  2  1  0
  2  3  1  0
  3  4  1  0
  4  5  2  0
  5  6  1  0
  6  7  2  0
  7  8  1  0
  8  9  2  0
  9 10  1  0
 10 11  3  0
  9 12  1  0
 12 13  1  0
 13 14  1  0
 14 15  2  0
 15 16  1  0
 16 17  2  0
 17 18  1  0
 18 19  1  0
 19 20  1  0
 20 21  2  0
 21 22  1  0
 22 23  2  0
 23 24  1  0
 17 25  1  0
 25 26  1  0
 25 27  2  0
 12 28  2  0
 28 29  1  0
 29 30  2  0
 30 31  1  0
 31 32  1  0
 32 33  2  0
 32 34  1  0
 34 35  2  0
 35 36  1  0
 36 37  1  0
 37 38  1  0
 37 39  1  0
 30  4  1  0
 28  6  1  0
 27 14  1  0
 24 20  1  0
M  END
>  <Compound_ID>  (995) 
CHEMBL176199

>  <Active>  (995) 
1.0

>  <Smiles>  (995) 
CCOc1cc2ncc(C#N)c(Nc3ccc(OCc4ccco4)c(Cl)c3)c2cc1NC(=O)/C=C/CN(C)C

>  <canonical_smi>  (995) 
CCOc1cc2ncc(C#N)c(Nc3ccc(OCc4ccco4)c(Cl)c3)c2cc1NC(=O)/C=C/CN(C)C

>  <Set>  (995) 
G2 active

>  <Set_type>  (995) 
Test

>  <MW>  (995) 
546.03

>  <HBD>  (995) 
2

>  <HBA>  (995) 
8

>  <NRB>  (995) 
11

>  <NR>  (995) 
4

>  <NAR>  (995) 
4

>  <PSA>  (995) 
112.65

>  <Standard Type>  (995) 
nan

>  <Standard Relation>  (995) 
nan

>  <Standard Units>  (995) 
nan

>  <Standard Value>  (995) 
nan

>  <Assay ChEMBL ID>  (995) 
nan

>  <Assay Description>  (995) 
nan

>  <BAO Label>  (995) 
nan

$$$$

     RDKit          2D

 41 45  0  0  0  0  0  0  0  0999 V2000
    5.2500   -1.2990    0.0000 C   0  0  0  0  0  0  0  0  0  0  0  0
    3.7500   -1.2990    0.0000 C   0  0  0  0  0  0  0  0  0  0  0  0
    3.0000    0.0000    0.0000 O   0  0  0  0  0  0  0  0  0  0  0  0
    1.5000    0.0000    0.0000 C   0  0  0  0  0  0  0  0  0  0  0  0
    0.7500   -1.2990    0.0000 C   0  0  0  0  0  0  0  0  0  0  0  0
   -0.7500   -1.2990    0.0000 C   0  0  0  0  0  0  0  0  0  0  0  0
   -1.5000   -2.5981    0.0000 N   0  0  0  0  0  0  0  0  0  0  0  0
   -3.0000   -2.5981    0.0000 C   0  0  0  0  0  0  0  0  0  0  0  0
   -3.7500   -1.2990    0.0000 C   0  0  0  0  0  0  0  0  0  0  0  0
   -5.2500   -1.2990    0.0000 C   0  0  0  0  0  0  0  0  0  0  0  0
   -6.7500   -1.2990    0.0000 N   0  0  0  0  0  0  0  0  0  0  0  0
   -3.0000    0.0000    0.0000 C   0  0  0  0  0  0  0  0  0  0  0  0
   -3.7500    1.2990    0.0000 N   0  0  0  0  0  0  0  0  0  0  0  0
   -3.0000    2.5981    0.0000 C   0  0  0  0  0  0  0  0  0  0  0  0
   -1.5000    2.5981    0.0000 C   0  0  0  0  0  0  0  0  0  0  0  0
   -0.7500    3.8971    0.0000 C   0  0  0  0  0  0  0  0  0  0  0  0
   -1.5000    5.1962    0.0000 C   0  0  0  0  0  0  0  0  0  0  0  0
   -0.7500    6.4952    0.0000 O   0  0  0  0  0  0  0  0  0  0  0  0
    0.7500    6.4952    0.0000 C   0  0  0  0  0  0  0  0  0  0  0  0
    1.5000    7.7942    0.0000 C   0  0  0  0  0  0  0  0  0  0  0  0
    3.0000    7.7942    0.0000 C   0  0  0  0  0  0  0  0  0  0  0  0
    3.7500    9.0933    0.0000 C   0  0  0  0  0  0  0  0  0  0  0  0
    3.0000   10.3923    0.0000 C   0  0  0  0  0  0  0  0  0  0  0  0
    1.5000   10.3923    0.0000 C   0  0  0  0  0  0  0  0  0  0  0  0
    0.7500    9.0933    0.0000 C   0  0  0  0  0  0  0  0  0  0  0  0
   -3.0000    5.1962    0.0000 C   0  0  0  0  0  0  0  0  0  0  0  0
   -3.7500    6.4952    0.0000 Cl  0  0  0  0  0  0  0  0  0  0  0  0
   -3.7500    3.8971    0.0000 C   0  0  0  0  0  0  0  0  0  0  0  0
   -1.5000    0.0000    0.0000 C   0  0  0  0  0  0  0  0  0  0  0  0
   -0.7500    1.2990    0.0000 C   0  0  0  0  0  0  0  0  0  0  0  0
    0.7500    1.2990    0.0000 C   0  0  0  0  0  0  0  0  0  0  0  0
    1.5000    2.5981    0.0000 N   0  0  0  0  0  0  0  0  0  0  0  0
    3.0000    2.5981    0.0000 C   0  0  0  0  0  0  0  0  0  0  0  0
    3.7500    1.2990    0.0000 O   0  0  0  0  0  0  0  0  0  0  0  0
    3.7500    3.8971    0.0000 C   0  0  0  0  0  0  0  0  0  0  0  0
    5.2500    3.8971    0.0000 C   0  0  0  0  0  0  0  0  0  0  0  0
    6.0000    5.1962    0.0000 C   0  0  0  0  0  0  0  0  0  0  0  0
    7.5000    5.1962    0.0000 N   0  0  0  0  0  0  0  0  0  0  0  0
    8.5607    4.1355    0.0000 C   0  0  0  0  0  0  0  0  0  0  0  0
    9.6213    5.1962    0.0000 C   0  0  0  0  0  0  0  0  0  0  0  0
    8.5607    6.2568    0.0000 C   0  0  0  0  0  0  0  0  0  0  0  0
  1  2  1  0
  2  3  1  0
  3  4  1  0
  4  5  2  0
  5  6  1  0
  6  7  2  0
  7  8  1  0
  8  9  2  0
  9 10  1  0
 10 11  3  0
  9 12  1  0
 12 13  1  0
 13 14  1  0
 14 15  2  0
 15 16  1  0
 16 17  2  0
 17 18  1  0
 18 19  1  0
 19 20  1  0
 20 21  2  0
 21 22  1  0
 22 23  2  0
 23 24  1  0
 24 25  2  0
 17 26  1  0
 26 27  1  0
 26 28  2  0
 12 29  2  0
 29 30  1  0
 30 31  2  0
 31 32  1  0
 32 33  1  0
 33 34  2  0
 33 35  1  0
 35 36  2  0
 36 37  1  0
 37 38  1  0
 38 39  1  0
 39 40  1  0
 40 41  1  0
 31  4  1  0
 41 38  1  0
 29  6  1  0
 28 14  1  0
 25 20  1  0
M  END
>  <Compound_ID>  (996) 
CHEMBL368702

>  <Active>  (996) 
1.0

>  <Smiles>  (996) 
CCOc1cc2ncc(C#N)c(Nc3ccc(OCc4ccccc4)c(Cl)c3)c2cc1NC(=O)/C=C/CN1CCC1

>  <canonical_smi>  (996) 
CCOc1cc2ncc(C#N)c(Nc3ccc(OCc4ccccc4)c(Cl)c3)c2cc1NC(=O)/C=C/CN1CCC1

>  <Set>  (996) 
G2 active

>  <Set_type>  (996) 
Test

>  <MW>  (996) 
568.08

>  <HBD>  (996) 
2

>  <HBA>  (996) 
7

>  <NRB>  (996) 
11

>  <NR>  (996) 
5

>  <NAR>  (996) 
4

>  <PSA>  (996) 
99.51

>  <Standard Type>  (996) 
nan

>  <Standard Relation>  (996) 
nan

>  <Standard Units>  (996) 
nan

>  <Standard Value>  (996) 
nan

>  <Assay ChEMBL ID>  (996) 
nan

>  <Assay Description>  (996) 
nan

>  <BAO Label>  (996) 
nan

$$$$

     RDKit          2D

 36 41  0  0  0  0  0  0  0  0999 V2000
   -6.5396   -6.3955    0.0000 O   0  0  0  0  0  0  0  0  0  0  0  0
   -5.0397   -6.3730    0.0000 C   0  0  0  0  0  0  0  0  0  0  0  0
   -4.3688   -7.7146    0.0000 C   0  0  0  0  0  0  0  0  0  0  0  0
   -2.9016   -8.0265    0.0000 N   0  0  0  0  0  0  0  0  0  0  0  0
   -1.7429   -7.0738    0.0000 C   0  0  0  0  0  0  0  0  0  0  0  0
   -1.7654   -5.5740    0.0000 C   0  0  0  0  0  0  0  0  0  0  0  0
   -2.9520   -4.6564    0.0000 N   0  0  0  0  0  0  0  0  0  0  0  0
   -2.6401   -3.1891    0.0000 C   0  0  0  0  0  0  0  0  0  0  0  0
   -1.2135   -2.7256    0.0000 C   0  0  0  0  0  0  0  0  0  0  0  0
   -0.0000   -3.6073    0.0000 C   0  0  0  0  0  0  0  0  0  0  0  0
    1.2135   -2.7256    0.0000 C   0  0  0  0  0  0  0  0  0  0  0  0
    0.7500   -1.2990    0.0000 N   0  0  0  0  0  0  0  0  0  0  0  0
    1.5000    0.0000    0.0000 N   0  0  0  0  0  0  0  0  0  0  0  0
    0.7500    1.2990    0.0000 C   0  0  0  0  0  0  0  0  0  0  0  0
   -0.7500    1.2990    0.0000 N   0  0  0  0  0  0  0  0  0  0  0  0
   -1.5000    0.0000    0.0000 C   0  0  0  0  0  0  0  0  0  0  0  0
   -3.0000    0.0000    0.0000 N   0  0  0  0  0  0  0  0  0  0  0  0
   -3.7500    1.2990    0.0000 C   0  0  0  0  0  0  0  0  0  0  0  0
   -3.0000    2.5981    0.0000 C   0  0  0  0  0  0  0  0  0  0  0  0
   -3.7500    3.8971    0.0000 C   0  0  0  0  0  0  0  0  0  0  0  0
   -5.2500    3.8971    0.0000 C   0  0  0  0  0  0  0  0  0  0  0  0
   -6.0000    2.5981    0.0000 C   0  0  0  0  0  0  0  0  0  0  0  0
   -7.4672    2.9099    0.0000 C   0  0  0  0  0  0  0  0  0  0  0  0
   -7.6240    4.4017    0.0000 N   0  0  0  0  0  0  0  0  0  0  0  0
   -6.2537    5.0118    0.0000 N   0  0  0  0  0  0  0  0  0  0  0  0
   -5.9418    6.4791    0.0000 C   0  0  0  0  0  0  0  0  0  0  0  0
   -7.0565    7.4827    0.0000 C   0  0  0  0  0  0  0  0  0  0  0  0
   -6.7447    8.9500    0.0000 C   0  0  0  0  0  0  0  0  0  0  0  0
   -7.8594    9.9537    0.0000 C   0  0  0  0  0  0  0  0  0  0  0  0
   -9.2860    9.4901    0.0000 C   0  0  0  0  0  0  0  0  0  0  0  0
   -9.5978    8.0229    0.0000 C   0  0  0  0  0  0  0  0  0  0  0  0
  -11.0244    7.5594    0.0000 F   0  0  0  0  0  0  0  0  0  0  0  0
   -8.4831    7.0192    0.0000 C   0  0  0  0  0  0  0  0  0  0  0  0
   -5.2500    1.2990    0.0000 C   0  0  0  0  0  0  0  0  0  0  0  0
   -0.7500   -1.2990    0.0000 C   0  0  0  0  0  0  0  0  0  0  0  0
   -4.4092   -5.0120    0.0000 C   0  0  0  0  0  0  0  0  0  0  0  0
  2  1  1  6
  2  3  1  0
  3  4  1  0
  4  5  1  0
  5  6  1  0
  6  7  1  0
  7  8  1  0
  8  9  1  0
  9 10  1  0
 10 11  2  0
 11 12  1  0
 12 13  1  0
 13 14  2  0
 14 15  1  0
 15 16  2  0
 16 17  1  0
 17 18  1  0
 18 19  2  0
 19 20  1  0
 20 21  2  0
 21 22  1  0
 22 23  1  0
 23 24  2  0
 24 25  1  0
 25 26  1  0
 26 27  1  0
 27 28  2  0
 28 29  1  0
 29 30  2  0
 30 31  1  0
 31 32  1  0
 31 33  2  0
 22 34  2  0
 16 35  1  0
  7 36  1  0
 36  2  1  0
 35  9  2  0
 35 12  1  0
 34 18  1  0
 25 21  1  0
 33 27  1  0
M  END
>  <Compound_ID>  (997) 
CHEMBL233325

>  <Active>  (997) 
1.0

>  <Smiles>  (997) 
O[C@H]1CNCCN(Cc2ccn3ncnc(Nc4ccc5c(cnn5Cc5cccc(F)c5)c4)c23)C1

>  <canonical_smi>  (997) 
O[C@H]1CNCCN(Cc2ccn3ncnc(Nc4ccc5c(cnn5Cc5cccc(F)c5)c4)c23)C1

>  <Set>  (997) 
G2 active

>  <Set_type>  (997) 
Test

>  <MW>  (997) 
486.56

>  <HBD>  (997) 
3

>  <HBA>  (997) 
7

>  <NRB>  (997) 
6

>  <NR>  (997) 
6

>  <NAR>  (997) 
5

>  <PSA>  (997) 
95.54

>  <Standard Type>  (997) 
nan

>  <Standard Relation>  (997) 
nan

>  <Standard Units>  (997) 
nan

>  <Standard Value>  (997) 
nan

>  <Assay ChEMBL ID>  (997) 
nan

>  <Assay Description>  (997) 
nan

>  <BAO Label>  (997) 
nan

$$$$

     RDKit          2D

 29 31  0  0  0  0  0  0  0  0999 V2000
    3.0000   -7.7942    0.0000 O   0  0  0  0  0  0  0  0  0  0  0  0
    1.5000   -7.7942    0.0000 C   0  0  0  0  0  0  0  0  0  0  0  0
    0.7500   -6.4952    0.0000 O   0  0  0  0  0  0  0  0  0  0  0  0
    1.5000   -5.1962    0.0000 C   0  0  0  0  0  0  0  0  0  0  0  0
    0.7500   -3.8971    0.0000 C   0  0  0  0  0  0  0  0  0  0  0  0
    1.5000   -2.5981    0.0000 C   0  0  0  0  0  0  0  0  0  0  0  0
    0.7500   -1.2990    0.0000 C   0  0  0  0  0  0  0  0  0  0  0  0
    1.5000    0.0000    0.0000 C   0  0  0  0  0  0  0  0  0  0  0  0
    0.7500    1.2990    0.0000 C   0  0  0  0  0  0  0  0  0  0  0  0
   -0.7500    1.2990    0.0000 C   0  0  0  0  0  0  0  0  0  0  0  0
   -1.5000    0.0000    0.0000 C   0  0  0  0  0  0  0  0  0  0  0  0
   -0.7500   -1.2990    0.0000 C   0  0  0  0  0  0  0  0  0  0  0  0
    0.7500   -9.0933    0.0000 C   0  0  0  0  0  0  0  0  0  0  0  0
   -0.7500   -9.0933    0.0000 C   0  0  0  0  0  0  0  0  0  0  0  0
   -1.5000  -10.3923    0.0000 C   0  0  0  0  0  0  0  0  0  0  0  0
   -3.0000  -10.3923    0.0000 N   0  0  0  0  0  0  0  0  0  0  0  0
   -3.7500   -9.0933    0.0000 C   0  0  0  0  0  0  0  0  0  0  0  0
   -5.2500   -9.0933    0.0000 C   0  0  0  0  0  0  0  0  0  0  0  0
   -6.0000   -7.7942    0.0000 C   0  0  0  0  0  0  0  0  0  0  0  0
   -7.5000   -7.7942    0.0000 C   0  0  0  0  0  0  0  0  0  0  0  0
   -8.2500   -6.4952    0.0000 O   0  0  0  0  0  0  0  0  0  0  0  0
   -8.2500   -9.0933    0.0000 C   0  0  0  0  0  0  0  0  0  0  0  0
   -7.5000  -10.3923    0.0000 C   0  0  0  0  0  0  0  0  0  0  0  0
   -6.0000  -10.3923    0.0000 C   0  0  0  0  0  0  0  0  0  0  0  0
   -5.2500  -11.6913    0.0000 O   0  0  0  0  0  0  0  0  0  0  0  0
   -0.7500  -11.6913    0.0000 C   0  0  0  0  0  0  0  0  0  0  0  0
    0.7500  -11.6913    0.0000 C   0  0  0  0  0  0  0  0  0  0  0  0
    1.5000  -10.3923    0.0000 C   0  0  0  0  0  0  0  0  0  0  0  0
    3.0000  -10.3923    0.0000 O   0  0  0  0  0  0  0  0  0  0  0  0
  1  2  2  0
  2  3  1  0
  3  4  1  0
  4  5  1  0
  5  6  1  0
  6  7  1  0
  7  8  2  0
  8  9  1  0
  9 10  2  0
 10 11  1  0
 11 12  2  0
  2 13  1  0
 13 14  2  0
 14 15  1  0
 15 16  1  0
 16 17  1  0
 17 18  1  0
 18 19  2  0
 19 20  1  0
 20 21  1  0
 20 22  2  0
 22 23  1  0
 23 24  2  0
 24 25  1  0
 15 26  2  0
 26 27  1  0
 27 28  2  0
 28 29  1  0
 12  7  1  0
 28 13  1  0
 24 18  1  0
M  END
>  <Compound_ID>  (998) 
CHEMBL168533

>  <Active>  (998) 
1.0

>  <Smiles>  (998) 
O=C(OCCCc1ccccc1)c1cc(NCc2cc(O)ccc2O)ccc1O

>  <canonical_smi>  (998) 
O=C(OCCCc1ccccc1)c1cc(NCc2cc(O)ccc2O)ccc1O

>  <Set>  (998) 
G2 active

>  <Set_type>  (998) 
Test

>  <MW>  (998) 
393.44

>  <HBD>  (998) 
4

>  <HBA>  (998) 
6

>  <NRB>  (998) 
8

>  <NR>  (998) 
3

>  <NAR>  (998) 
3

>  <PSA>  (998) 
99.02

>  <Standard Type>  (998) 
nan

>  <Standard Relation>  (998) 
nan

>  <Standard Units>  (998) 
nan

>  <Standard Value>  (998) 
nan

>  <Assay ChEMBL ID>  (998) 
nan

>  <Assay Description>  (998) 
nan

>  <BAO Label>  (998) 
nan

$$$$

     RDKit          2D

 39 44  0  0  0  0  0  0  0  0999 V2000
   -2.5565   -4.8847    0.0000 C   0  0  0  0  0  0  0  0  0  0  0  0
   -1.4418   -3.8810    0.0000 C   0  0  0  0  0  0  0  0  0  0  0  0
   -1.7537   -2.4138    0.0000 C   0  0  0  0  0  0  0  0  0  0  0  0
   -0.7500   -1.2990    0.0000 C   0  0  0  0  0  0  0  0  0  0  0  0
    0.7500   -1.2990    0.0000 C   0  0  0  0  0  0  0  0  0  0  0  0
    1.5000   -2.5981    0.0000 N   0  0  0  0  0  0  0  0  0  0  0  0
    3.0000   -2.5981    0.0000 C   0  0  0  0  0  0  0  0  0  0  0  0
    3.7500   -1.2990    0.0000 C   0  0  0  0  0  0  0  0  0  0  0  0
    5.2500   -1.2990    0.0000 C   0  0  0  0  0  0  0  0  0  0  0  0
    6.0000   -2.5981    0.0000 C   0  0  0  0  0  0  0  0  0  0  0  0
    5.2500   -3.8971    0.0000 C   0  0  0  0  0  0  0  0  0  0  0  0
    6.2537   -5.0118    0.0000 C   0  0  0  0  0  0  0  0  0  0  0  0
    7.6240   -4.4017    0.0000 N   0  0  0  0  0  0  0  0  0  0  0  0
    7.4672   -2.9099    0.0000 N   0  0  0  0  0  0  0  0  0  0  0  0
    8.5819   -1.9062    0.0000 C   0  0  0  0  0  0  0  0  0  0  0  0
   10.0085   -2.3698    0.0000 C   0  0  0  0  0  0  0  0  0  0  0  0
   10.3204   -3.8370    0.0000 C   0  0  0  0  0  0  0  0  0  0  0  0
   11.7470   -4.3005    0.0000 C   0  0  0  0  0  0  0  0  0  0  0  0
   12.8617   -3.2968    0.0000 C   0  0  0  0  0  0  0  0  0  0  0  0
   12.5498   -1.8296    0.0000 C   0  0  0  0  0  0  0  0  0  0  0  0
   11.1232   -1.3661    0.0000 C   0  0  0  0  0  0  0  0  0  0  0  0
    3.7500   -3.8971    0.0000 C   0  0  0  0  0  0  0  0  0  0  0  0
    1.5000    0.0000    0.0000 N   0  0  0  0  0  0  0  0  0  0  0  0
    0.7500    1.2990    0.0000 C   0  0  0  0  0  0  0  0  0  0  0  0
   -0.7500    1.2990    0.0000 N   0  0  0  0  0  0  0  0  0  0  0  0
   -1.5000    0.0000    0.0000 C   0  0  0  0  0  0  0  0  0  0  0  0
   -2.9672   -0.3119    0.0000 N   0  0  0  0  0  0  0  0  0  0  0  0
   -3.1240   -1.8037    0.0000 C   0  0  0  0  0  0  0  0  0  0  0  0
   -4.4231   -2.5537    0.0000 N   0  0  0  0  0  0  0  0  0  0  0  0
   -5.7221   -1.8037    0.0000 C   0  0  0  0  0  0  0  0  0  0  0  0
   -5.7221   -0.3037    0.0000 O   0  0  0  0  0  0  0  0  0  0  0  0
   -7.0211   -2.5537    0.0000 O   0  0  0  0  0  0  0  0  0  0  0  0
   -8.3202   -1.8037    0.0000 C   0  0  0  0  0  0  0  0  0  0  0  0
   -9.6192   -2.5537    0.0000 C   0  0  0  0  0  0  0  0  0  0  0  0
  -10.9182   -1.8037    0.0000 C   0  0  0  0  0  0  0  0  0  0  0  0
  -12.2173   -2.5537    0.0000 C   0  0  0  0  0  0  0  0  0  0  0  0
  -12.2173   -4.0537    0.0000 N   0  0  0  0  0  0  0  0  0  0  0  0
  -10.9182   -4.8037    0.0000 C   0  0  0  0  0  0  0  0  0  0  0  0
   -9.6192   -4.0537    0.0000 C   0  0  0  0  0  0  0  0  0  0  0  0
  1  2  1  0
  2  3  1  0
  3  4  2  0
  4  5  1  0
  5  6  1  0
  6  7  1  0
  7  8  2  0
  8  9  1  0
  9 10  2  0
 10 11  1  0
 11 12  1  0
 12 13  2  0
 13 14  1  0
 14 15  1  0
 15 16  1  0
 16 17  2  0
 17 18  1  0
 18 19  2  0
 19 20  1  0
 20 21  2  0
 11 22  2  0
  5 23  2  0
 23 24  1  0
 24 25  2  0
 25 26  1  0
 26 27  1  0
 27 28  2  0
 28 29  1  0
 29 30  1  0
 30 31  2  0
 30 32  1  0
 32 33  1  0
 33 34  1  0
 34 35  1  0
 35 36  1  0
 36 37  1  0
 37 38  1  0
 38 39  1  0
 28  3  1  0
 39 34  1  0
 26  4  1  0
 22  7  1  0
 14 10  1  0
 21 16  1  0
M  END
>  <Compound_ID>  (999) 
CHEMBL583218

>  <Active>  (999) 
1.0

>  <Smiles>  (999) 
CCC1=C2C(Nc3ccc4c(cnn4Cc4ccccc4)c3)=NC=NC2N=C1NC(=O)OCC1CCNCC1

>  <canonical_smi>  (999) 
CCC1=C2C(Nc3ccc4c(cnn4Cc4ccccc4)c3)=NC=NC2N=C1NC(=O)OCC1CCNCC1

>  <Set>  (999) 
G2 active

>  <Set_type>  (999) 
Test

>  <MW>  (999) 
524.63

>  <HBD>  (999) 
3

>  <HBA>  (999) 
5

>  <NRB>  (999) 
6

>  <NR>  (999) 
6

>  <NAR>  (999) 
3

>  <PSA>  (999) 
117.29

>  <Standard Type>  (999) 
nan

>  <Standard Relation>  (999) 
nan

>  <Standard Units>  (999) 
nan

>  <Standard Value>  (999) 
nan

>  <Assay ChEMBL ID>  (999) 
nan

>  <Assay Description>  (999) 
nan

>  <BAO Label>  (999) 
nan

$$$$

     RDKit          2D

 43 47  0  0  0  0  0  0  0  0999 V2000
    5.2500   -1.2990    0.0000 C   0  0  0  0  0  0  0  0  0  0  0  0
    3.7500   -1.2990    0.0000 C   0  0  0  0  0  0  0  0  0  0  0  0
    3.0000    0.0000    0.0000 O   0  0  0  0  0  0  0  0  0  0  0  0
    1.5000    0.0000    0.0000 C   0  0  0  0  0  0  0  0  0  0  0  0
    0.7500   -1.2990    0.0000 C   0  0  0  0  0  0  0  0  0  0  0  0
   -0.7500   -1.2990    0.0000 C   0  0  0  0  0  0  0  0  0  0  0  0
   -1.5000   -2.5981    0.0000 N   0  0  0  0  0  0  0  0  0  0  0  0
   -3.0000   -2.5981    0.0000 C   0  0  0  0  0  0  0  0  0  0  0  0
   -3.7500   -1.2990    0.0000 C   0  0  0  0  0  0  0  0  0  0  0  0
   -5.2500   -1.2990    0.0000 C   0  0  0  0  0  0  0  0  0  0  0  0
   -6.7500   -1.2990    0.0000 N   0  0  0  0  0  0  0  0  0  0  0  0
   -3.0000    0.0000    0.0000 C   0  0  0  0  0  0  0  0  0  0  0  0
   -3.7500    1.2990    0.0000 N   0  0  0  0  0  0  0  0  0  0  0  0
   -3.0000    2.5981    0.0000 C   0  0  0  0  0  0  0  0  0  0  0  0
   -1.5000    2.5981    0.0000 C   0  0  0  0  0  0  0  0  0  0  0  0
   -0.7500    3.8971    0.0000 C   0  0  0  0  0  0  0  0  0  0  0  0
   -1.5000    5.1962    0.0000 C   0  0  0  0  0  0  0  0  0  0  0  0
   -0.7500    6.4952    0.0000 O   0  0  0  0  0  0  0  0  0  0  0  0
    0.7500    6.4952    0.0000 C   0  0  0  0  0  0  0  0  0  0  0  0
    1.5000    7.7942    0.0000 C   0  0  0  0  0  0  0  0  0  0  0  0
    3.0000    7.7942    0.0000 C   0  0  0  0  0  0  0  0  0  0  0  0
    3.7500    9.0933    0.0000 C   0  0  0  0  0  0  0  0  0  0  0  0
    3.0000   10.3923    0.0000 C   0  0  0  0  0  0  0  0  0  0  0  0
    1.5000   10.3923    0.0000 C   0  0  0  0  0  0  0  0  0  0  0  0
    0.7500    9.0933    0.0000 C   0  0  0  0  0  0  0  0  0  0  0  0
   -3.0000    5.1962    0.0000 C   0  0  0  0  0  0  0  0  0  0  0  0
   -3.7500    6.4952    0.0000 Cl  0  0  0  0  0  0  0  0  0  0  0  0
   -3.7500    3.8971    0.0000 C   0  0  0  0  0  0  0  0  0  0  0  0
   -1.5000    0.0000    0.0000 C   0  0  0  0  0  0  0  0  0  0  0  0
   -0.7500    1.2990    0.0000 C   0  0  0  0  0  0  0  0  0  0  0  0
    0.7500    1.2990    0.0000 C   0  0  0  0  0  0  0  0  0  0  0  0
    1.5000    2.5981    0.0000 N   0  0  0  0  0  0  0  0  0  0  0  0
    3.0000    2.5981    0.0000 C   0  0  0  0  0  0  0  0  0  0  0  0
    3.7500    1.2990    0.0000 O   0  0  0  0  0  0  0  0  0  0  0  0
    3.7500    3.8971    0.0000 C   0  0  0  0  0  0  0  0  0  0  0  0
    5.2500    3.8971    0.0000 C   0  0  0  0  0  0  0  0  0  0  0  0
    6.0000    5.1962    0.0000 C   0  0  0  0  0  0  0  0  0  0  0  0
    7.5000    5.1962    0.0000 N   0  0  0  0  0  0  0  0  0  0  0  0
    8.2500    3.8971    0.0000 C   0  0  0  0  0  0  0  0  0  0  0  0
    9.7500    3.8971    0.0000 C   0  0  0  0  0  0  0  0  0  0  0  0
   10.5000    5.1962    0.0000 C   0  0  0  0  0  0  0  0  0  0  0  0
    9.7500    6.4952    0.0000 C   0  0  0  0  0  0  0  0  0  0  0  0
    8.2500    6.4952    0.0000 C   0  0  0  0  0  0  0  0  0  0  0  0
  1  2  1  0
  2  3  1  0
  3  4  1  0
  4  5  2  0
  5  6  1  0
  6  7  2  0
  7  8  1  0
  8  9  2  0
  9 10  1  0
 10 11  3  0
  9 12  1  0
 12 13  1  0
 13 14  1  0
 14 15  2  0
 15 16  1  0
 16 17  2  0
 17 18  1  0
 18 19  1  0
 19 20  1  0
 20 21  2  0
 21 22  1  0
 22 23  2  0
 23 24  1  0
 24 25  2  0
 17 26  1  0
 26 27  1  0
 26 28  2  0
 12 29  2  0
 29 30  1  0
 30 31  2  0
 31 32  1  0
 32 33  1  0
 33 34  2  0
 33 35  1  0
 35 36  2  0
 36 37  1  0
 37 38  1  0
 38 39  1  0
 39 40  1  0
 40 41  1  0
 41 42  1  0
 42 43  1  0
 31  4  1  0
 43 38  1  0
 29  6  1  0
 28 14  1  0
 25 20  1  0
M  END
>  <Compound_ID>  (1000) 
CHEMBL360958

>  <Active>  (1000) 
1.0

>  <Smiles>  (1000) 
CCOc1cc2ncc(C#N)c(Nc3ccc(OCc4ccccc4)c(Cl)c3)c2cc1NC(=O)/C=C/CN1CCCCC1

>  <canonical_smi>  (1000) 
CCOc1cc2ncc(C#N)c(Nc3ccc(OCc4ccccc4)c(Cl)c3)c2cc1NC(=O)/C=C/CN1CCCCC1

>  <Set>  (1000) 
G2 active

>  <Set_type>  (1000) 
Test

>  <MW>  (1000) 
596.13

>  <HBD>  (1000) 
2

>  <HBA>  (1000) 
7

>  <NRB>  (1000) 
11

>  <NR>  (1000) 
5

>  <NAR>  (1000) 
4

>  <PSA>  (1000) 
99.51

>  <Standard Type>  (1000) 
nan

>  <Standard Relation>  (1000) 
nan

>  <Standard Units>  (1000) 
nan

>  <Standard Value>  (1000) 
nan

>  <Assay ChEMBL ID>  (1000) 
nan

>  <Assay Description>  (1000) 
nan

>  <BAO Label>  (1000) 
nan

$$$$

     RDKit          2D

 36 41  0  0  0  0  0  0  0  0999 V2000
   -5.3142   -9.5216    0.0000 N   0  0  0  0  0  0  0  0  0  0  0  0
   -3.8876   -9.0580    0.0000 C   0  0  0  0  0  0  0  0  0  0  0  0
   -3.5757   -7.5908    0.0000 C   0  0  0  0  0  0  0  0  0  0  0  0
   -4.6904   -6.5871    0.0000 C   0  0  0  0  0  0  0  0  0  0  0  0
   -4.3786   -5.1199    0.0000 C   0  0  0  0  0  0  0  0  0  0  0  0
   -2.9520   -4.6564    0.0000 N   0  0  0  0  0  0  0  0  0  0  0  0
   -2.6401   -3.1891    0.0000 C   0  0  0  0  0  0  0  0  0  0  0  0
   -1.2135   -2.7256    0.0000 C   0  0  0  0  0  0  0  0  0  0  0  0
   -0.0000   -3.6073    0.0000 C   0  0  0  0  0  0  0  0  0  0  0  0
    1.2135   -2.7256    0.0000 C   0  0  0  0  0  0  0  0  0  0  0  0
    0.7500   -1.2990    0.0000 N   0  0  0  0  0  0  0  0  0  0  0  0
    1.5000    0.0000    0.0000 N   0  0  0  0  0  0  0  0  0  0  0  0
    0.7500    1.2990    0.0000 C   0  0  0  0  0  0  0  0  0  0  0  0
   -0.7500    1.2990    0.0000 N   0  0  0  0  0  0  0  0  0  0  0  0
   -1.5000    0.0000    0.0000 C   0  0  0  0  0  0  0  0  0  0  0  0
   -3.0000    0.0000    0.0000 N   0  0  0  0  0  0  0  0  0  0  0  0
   -3.7500    1.2990    0.0000 C   0  0  0  0  0  0  0  0  0  0  0  0
   -3.0000    2.5981    0.0000 C   0  0  0  0  0  0  0  0  0  0  0  0
   -3.7500    3.8971    0.0000 C   0  0  0  0  0  0  0  0  0  0  0  0
   -5.2500    3.8971    0.0000 C   0  0  0  0  0  0  0  0  0  0  0  0
   -6.0000    2.5981    0.0000 C   0  0  0  0  0  0  0  0  0  0  0  0
   -7.4672    2.9099    0.0000 C   0  0  0  0  0  0  0  0  0  0  0  0
   -7.6240    4.4017    0.0000 N   0  0  0  0  0  0  0  0  0  0  0  0
   -6.2537    5.0118    0.0000 N   0  0  0  0  0  0  0  0  0  0  0  0
   -5.9418    6.4791    0.0000 C   0  0  0  0  0  0  0  0  0  0  0  0
   -7.0565    7.4827    0.0000 C   0  0  0  0  0  0  0  0  0  0  0  0
   -6.7447    8.9500    0.0000 C   0  0  0  0  0  0  0  0  0  0  0  0
   -7.8594    9.9537    0.0000 C   0  0  0  0  0  0  0  0  0  0  0  0
   -9.2860    9.4901    0.0000 C   0  0  0  0  0  0  0  0  0  0  0  0
   -9.5978    8.0229    0.0000 C   0  0  0  0  0  0  0  0  0  0  0  0
  -11.0244    7.5594    0.0000 F   0  0  0  0  0  0  0  0  0  0  0  0
   -8.4831    7.0192    0.0000 C   0  0  0  0  0  0  0  0  0  0  0  0
   -5.2500    1.2990    0.0000 C   0  0  0  0  0  0  0  0  0  0  0  0
   -0.7500   -1.2990    0.0000 C   0  0  0  0  0  0  0  0  0  0  0  0
   -1.8373   -5.6601    0.0000 C   0  0  0  0  0  0  0  0  0  0  0  0
   -2.1491   -7.1273    0.0000 C   0  0  0  0  0  0  0  0  0  0  0  0
  1  2  1  0
  2  3  1  0
  3  4  1  0
  4  5  1  0
  5  6  1  0
  6  7  1  0
  7  8  1  0
  8  9  1  0
  9 10  2  0
 10 11  1  0
 11 12  1  0
 12 13  2  0
 13 14  1  0
 14 15  2  0
 15 16  1  0
 16 17  1  0
 17 18  2  0
 18 19  1  0
 19 20  2  0
 20 21  1  0
 21 22  1  0
 22 23  2  0
 23 24  1  0
 24 25  1  0
 25 26  1  0
 26 27  2  0
 27 28  1  0
 28 29  2  0
 29 30  1  0
 30 31  1  0
 30 32  2  0
 21 33  2  0
 15 34  1  0
  6 35  1  0
 35 36  1  0
 36  3  1  0
 34  8  2  0
 34 11  1  0
 33 17  1  0
 24 20  1  0
 32 26  1  0
M  END
>  <Compound_ID>  (1001) 
CHEMBL391778

>  <Active>  (1001) 
1.0

>  <Smiles>  (1001) 
NCC1CCN(Cc2ccn3ncnc(Nc4ccc5c(cnn5Cc5cccc(F)c5)c4)c23)CC1

>  <canonical_smi>  (1001) 
NCC1CCN(Cc2ccn3ncnc(Nc4ccc5c(cnn5Cc5cccc(F)c5)c4)c23)CC1

>  <Set>  (1001) 
G2 active

>  <Set_type>  (1001) 
Test

>  <MW>  (1001) 
484.58

>  <HBD>  (1001) 
2

>  <HBA>  (1001) 
6

>  <NRB>  (1001) 
7

>  <NR>  (1001) 
6

>  <NAR>  (1001) 
5

>  <PSA>  (1001) 
89.3

>  <Standard Type>  (1001) 
nan

>  <Standard Relation>  (1001) 
nan

>  <Standard Units>  (1001) 
nan

>  <Standard Value>  (1001) 
nan

>  <Assay ChEMBL ID>  (1001) 
nan

>  <Assay Description>  (1001) 
nan

>  <BAO Label>  (1001) 
nan

$$$$

     RDKit          2D

 34 38  0  0  0  0  0  0  0  0999 V2000
   -3.8876   -9.0580    0.0000 N   0  0  0  0  0  0  0  0  0  0  0  0
   -3.5757   -7.5908    0.0000 C   0  0  0  0  0  0  0  0  0  0  0  0
   -4.6904   -6.5871    0.0000 C   0  0  0  0  0  0  0  0  0  0  0  0
   -4.3786   -5.1199    0.0000 C   0  0  0  0  0  0  0  0  0  0  0  0
   -2.9520   -4.6564    0.0000 N   0  0  0  0  0  0  0  0  0  0  0  0
   -2.6401   -3.1891    0.0000 C   0  0  0  0  0  0  0  0  0  0  0  0
   -1.2135   -2.7256    0.0000 C   0  0  0  0  0  0  0  0  0  0  0  0
   -0.0000   -3.6073    0.0000 C   0  0  0  0  0  0  0  0  0  0  0  0
    1.2135   -2.7256    0.0000 C   0  0  0  0  0  0  0  0  0  0  0  0
    0.7500   -1.2990    0.0000 N   0  0  0  0  0  0  0  0  0  0  0  0
    1.5000    0.0000    0.0000 N   0  0  0  0  0  0  0  0  0  0  0  0
    0.7500    1.2990    0.0000 C   0  0  0  0  0  0  0  0  0  0  0  0
   -0.7500    1.2990    0.0000 N   0  0  0  0  0  0  0  0  0  0  0  0
   -1.5000    0.0000    0.0000 C   0  0  0  0  0  0  0  0  0  0  0  0
   -3.0000    0.0000    0.0000 N   0  0  0  0  0  0  0  0  0  0  0  0
   -3.7500    1.2990    0.0000 C   0  0  0  0  0  0  0  0  0  0  0  0
   -3.0000    2.5981    0.0000 C   0  0  0  0  0  0  0  0  0  0  0  0
   -3.7500    3.8971    0.0000 C   0  0  0  0  0  0  0  0  0  0  0  0
   -5.2500    3.8971    0.0000 C   0  0  0  0  0  0  0  0  0  0  0  0
   -6.0000    5.1962    0.0000 O   0  0  0  0  0  0  0  0  0  0  0  0
   -5.2500    6.4952    0.0000 C   0  0  0  0  0  0  0  0  0  0  0  0
   -6.0000    7.7942    0.0000 C   0  0  0  0  0  0  0  0  0  0  0  0
   -5.2500    9.0933    0.0000 C   0  0  0  0  0  0  0  0  0  0  0  0
   -6.0000   10.3923    0.0000 C   0  0  0  0  0  0  0  0  0  0  0  0
   -7.5000   10.3923    0.0000 C   0  0  0  0  0  0  0  0  0  0  0  0
   -8.2500    9.0933    0.0000 C   0  0  0  0  0  0  0  0  0  0  0  0
   -9.7500    9.0933    0.0000 F   0  0  0  0  0  0  0  0  0  0  0  0
   -7.5000    7.7942    0.0000 C   0  0  0  0  0  0  0  0  0  0  0  0
   -6.0000    2.5981    0.0000 C   0  0  0  0  0  0  0  0  0  0  0  0
   -7.5000    2.5981    0.0000 Cl  0  0  0  0  0  0  0  0  0  0  0  0
   -5.2500    1.2990    0.0000 C   0  0  0  0  0  0  0  0  0  0  0  0
   -0.7500   -1.2990    0.0000 C   0  0  0  0  0  0  0  0  0  0  0  0
   -1.8373   -5.6601    0.0000 C   0  0  0  0  0  0  0  0  0  0  0  0
   -2.1491   -7.1273    0.0000 C   0  0  0  0  0  0  0  0  0  0  0  0
  1  2  1  0
  2  3  1  0
  3  4  1  0
  4  5  1  0
  5  6  1  0
  6  7  1  0
  7  8  1  0
  8  9  2  0
  9 10  1  0
 10 11  1  0
 11 12  2  0
 12 13  1  0
 13 14  2  0
 14 15  1  0
 15 16  1  0
 16 17  2  0
 17 18  1  0
 18 19  2  0
 19 20  1  0
 20 21  1  0
 21 22  1  0
 22 23  2  0
 23 24  1  0
 24 25  2  0
 25 26  1  0
 26 27  1  0
 26 28  2  0
 19 29  1  0
 29 30  1  0
 29 31  2  0
 14 32  1  0
  5 33  1  0
 33 34  1  0
 34  2  1  0
 32  7  2  0
 32 10  1  0
 31 16  1  0
 28 22  1  0
M  END
>  <Compound_ID>  (1002) 
CHEMBL247710

>  <Active>  (1002) 
1.0

>  <Smiles>  (1002) 
NC1CCN(Cc2ccn3ncnc(Nc4ccc(OCc5cccc(F)c5)c(Cl)c4)c23)CC1

>  <canonical_smi>  (1002) 
NC1CCN(Cc2ccn3ncnc(Nc4ccc(OCc5cccc(F)c5)c(Cl)c4)c23)CC1

>  <Set>  (1002) 
G2 active

>  <Set_type>  (1002) 
Test

>  <MW>  (1002) 
480.98

>  <HBD>  (1002) 
2

>  <HBA>  (1002) 
6

>  <NRB>  (1002) 
7

>  <NR>  (1002) 
5

>  <NAR>  (1002) 
4

>  <PSA>  (1002) 
80.71

>  <Standard Type>  (1002) 
nan

>  <Standard Relation>  (1002) 
nan

>  <Standard Units>  (1002) 
nan

>  <Standard Value>  (1002) 
nan

>  <Assay ChEMBL ID>  (1002) 
nan

>  <Assay Description>  (1002) 
nan

>  <BAO Label>  (1002) 
nan

$$$$

     RDKit          2D

 40 45  0  0  0  0  0  0  0  0999 V2000
   -2.5565   -4.8847    0.0000 C   0  0  0  0  0  0  0  0  0  0  0  0
   -1.4418   -3.8810    0.0000 C   0  0  0  0  0  0  0  0  0  0  0  0
   -1.7537   -2.4138    0.0000 C   0  0  0  0  0  0  0  0  0  0  0  0
   -0.7500   -1.2990    0.0000 C   0  0  0  0  0  0  0  0  0  0  0  0
    0.7500   -1.2990    0.0000 C   0  0  0  0  0  0  0  0  0  0  0  0
    1.5000   -2.5981    0.0000 N   0  0  0  0  0  0  0  0  0  0  0  0
    3.0000   -2.5981    0.0000 C   0  0  0  0  0  0  0  0  0  0  0  0
    3.7500   -1.2990    0.0000 C   0  0  0  0  0  0  0  0  0  0  0  0
    5.2500   -1.2990    0.0000 C   0  0  0  0  0  0  0  0  0  0  0  0
    6.0000   -2.5981    0.0000 C   0  0  0  0  0  0  0  0  0  0  0  0
    5.2500   -3.8971    0.0000 C   0  0  0  0  0  0  0  0  0  0  0  0
    6.2537   -5.0118    0.0000 C   0  0  0  0  0  0  0  0  0  0  0  0
    7.6240   -4.4017    0.0000 N   0  0  0  0  0  0  0  0  0  0  0  0
    7.4672   -2.9099    0.0000 N   0  0  0  0  0  0  0  0  0  0  0  0
    8.5819   -1.9062    0.0000 C   0  0  0  0  0  0  0  0  0  0  0  0
   10.0085   -2.3698    0.0000 C   0  0  0  0  0  0  0  0  0  0  0  0
   10.3204   -3.8370    0.0000 C   0  0  0  0  0  0  0  0  0  0  0  0
   11.7470   -4.3005    0.0000 C   0  0  0  0  0  0  0  0  0  0  0  0
   12.8617   -3.2968    0.0000 C   0  0  0  0  0  0  0  0  0  0  0  0
   12.5498   -1.8296    0.0000 C   0  0  0  0  0  0  0  0  0  0  0  0
   11.1232   -1.3661    0.0000 C   0  0  0  0  0  0  0  0  0  0  0  0
    3.7500   -3.8971    0.0000 C   0  0  0  0  0  0  0  0  0  0  0  0
    1.5000    0.0000    0.0000 N   0  0  0  0  0  0  0  0  0  0  0  0
    0.7500    1.2990    0.0000 C   0  0  0  0  0  0  0  0  0  0  0  0
   -0.7500    1.2990    0.0000 N   0  0  0  0  0  0  0  0  0  0  0  0
   -1.5000    0.0000    0.0000 C   0  0  0  0  0  0  0  0  0  0  0  0
   -2.9672   -0.3119    0.0000 N   0  0  0  0  0  0  0  0  0  0  0  0
   -3.1240   -1.8037    0.0000 C   0  0  0  0  0  0  0  0  0  0  0  0
   -4.4231   -2.5537    0.0000 N   0  0  0  0  0  0  0  0  0  0  0  0
   -5.7221   -1.8037    0.0000 C   0  0  0  0  0  0  0  0  0  0  0  0
   -5.7221   -0.3037    0.0000 O   0  0  0  0  0  0  0  0  0  0  0  0
   -7.0211   -2.5537    0.0000 O   0  0  0  0  0  0  0  0  0  0  0  0
   -8.3202   -1.8037    0.0000 C   0  0  0  0  0  0  0  0  0  0  0  0
   -9.6192   -2.5537    0.0000 C   0  0  0  0  0  0  0  0  0  0  0  0
  -10.9182   -1.8037    0.0000 N   0  0  0  0  0  0  0  0  0  0  0  0
  -10.9182   -0.3037    0.0000 C   0  0  0  0  0  0  0  0  0  0  0  0
  -12.2173    0.4463    0.0000 C   0  0  0  0  0  0  0  0  0  0  0  0
  -13.5163   -0.3037    0.0000 C   0  0  0  0  0  0  0  0  0  0  0  0
  -13.5163   -1.8037    0.0000 C   0  0  0  0  0  0  0  0  0  0  0  0
  -12.2173   -2.5537    0.0000 C   0  0  0  0  0  0  0  0  0  0  0  0
  1  2  1  0
  2  3  1  0
  3  4  2  0
  4  5  1  0
  5  6  1  0
  6  7  1  0
  7  8  2  0
  8  9  1  0
  9 10  2  0
 10 11  1  0
 11 12  1  0
 12 13  2  0
 13 14  1  0
 14 15  1  0
 15 16  1  0
 16 17  2  0
 17 18  1  0
 18 19  2  0
 19 20  1  0
 20 21  2  0
 11 22  2  0
  5 23  2  0
 23 24  1  0
 24 25  2  0
 25 26  1  0
 26 27  1  0
 27 28  2  0
 28 29  1  0
 29 30  1  0
 30 31  2  0
 30 32  1  0
 32 33  1  0
 33 34  1  0
 34 35  1  0
 35 36  1  0
 36 37  1  0
 37 38  1  0
 38 39  1  0
 39 40  1  0
 28  3  1  0
 40 35  1  0
 26  4  1  0
 22  7  1  0
 14 10  1  0
 21 16  1  0
M  END
>  <Compound_ID>  (1003) 
CHEMBL566350

>  <Active>  (1003) 
1.0

>  <Smiles>  (1003) 
CCC1=C2C(Nc3ccc4c(cnn4Cc4ccccc4)c3)=NC=NC2N=C1NC(=O)OCCN1CCCCC1

>  <canonical_smi>  (1003) 
CCC1=C2C(Nc3ccc4c(cnn4Cc4ccccc4)c3)=NC=NC2N=C1NC(=O)OCCN1CCCCC1

>  <Set>  (1003) 
G2 active

>  <Set_type>  (1003) 
Test

>  <MW>  (1003) 
538.66

>  <HBD>  (1003) 
2

>  <HBA>  (1003) 
5

>  <NRB>  (1003) 
7

>  <NR>  (1003) 
6

>  <NAR>  (1003) 
3

>  <PSA>  (1003) 
108.5

>  <Standard Type>  (1003) 
nan

>  <Standard Relation>  (1003) 
nan

>  <Standard Units>  (1003) 
nan

>  <Standard Value>  (1003) 
nan

>  <Assay ChEMBL ID>  (1003) 
nan

>  <Assay Description>  (1003) 
nan

>  <BAO Label>  (1003) 
nan

$$$$

     RDKit          2D

 39 44  0  0  0  0  0  0  0  0999 V2000
   -2.5565   -4.8847    0.0000 C   0  0  0  0  0  0  0  0  0  0  0  0
   -1.4418   -3.8810    0.0000 C   0  0  0  0  0  0  0  0  0  0  0  0
   -1.7537   -2.4138    0.0000 C   0  0  0  0  0  0  0  0  0  0  0  0
   -0.7500   -1.2990    0.0000 C   0  0  0  0  0  0  0  0  0  0  0  0
    0.7500   -1.2990    0.0000 C   0  0  0  0  0  0  0  0  0  0  0  0
    1.5000   -2.5981    0.0000 N   0  0  0  0  0  0  0  0  0  0  0  0
    3.0000   -2.5981    0.0000 C   0  0  0  0  0  0  0  0  0  0  0  0
    3.7500   -1.2990    0.0000 C   0  0  0  0  0  0  0  0  0  0  0  0
    5.2500   -1.2990    0.0000 C   0  0  0  0  0  0  0  0  0  0  0  0
    6.0000   -2.5981    0.0000 C   0  0  0  0  0  0  0  0  0  0  0  0
    5.2500   -3.8971    0.0000 C   0  0  0  0  0  0  0  0  0  0  0  0
    6.2537   -5.0118    0.0000 C   0  0  0  0  0  0  0  0  0  0  0  0
    7.6240   -4.4017    0.0000 N   0  0  0  0  0  0  0  0  0  0  0  0
    7.4672   -2.9099    0.0000 N   0  0  0  0  0  0  0  0  0  0  0  0
    8.5819   -1.9062    0.0000 C   0  0  0  0  0  0  0  0  0  0  0  0
   10.0085   -2.3698    0.0000 C   0  0  0  0  0  0  0  0  0  0  0  0
   10.3204   -3.8370    0.0000 C   0  0  0  0  0  0  0  0  0  0  0  0
   11.7470   -4.3005    0.0000 C   0  0  0  0  0  0  0  0  0  0  0  0
   12.8617   -3.2968    0.0000 C   0  0  0  0  0  0  0  0  0  0  0  0
   12.5498   -1.8296    0.0000 C   0  0  0  0  0  0  0  0  0  0  0  0
   11.1232   -1.3661    0.0000 C   0  0  0  0  0  0  0  0  0  0  0  0
    3.7500   -3.8971    0.0000 C   0  0  0  0  0  0  0  0  0  0  0  0
    1.5000    0.0000    0.0000 N   0  0  0  0  0  0  0  0  0  0  0  0
    0.7500    1.2990    0.0000 C   0  0  0  0  0  0  0  0  0  0  0  0
   -0.7500    1.2990    0.0000 N   0  0  0  0  0  0  0  0  0  0  0  0
   -1.5000    0.0000    0.0000 C   0  0  0  0  0  0  0  0  0  0  0  0
   -2.9672   -0.3119    0.0000 N   0  0  0  0  0  0  0  0  0  0  0  0
   -3.1240   -1.8037    0.0000 C   0  0  0  0  0  0  0  0  0  0  0  0
   -4.4231   -2.5537    0.0000 N   0  0  0  0  0  0  0  0  0  0  0  0
   -5.7221   -1.8037    0.0000 C   0  0  0  0  0  0  0  0  0  0  0  0
   -5.7221   -0.3037    0.0000 O   0  0  0  0  0  0  0  0  0  0  0  0
   -7.0211   -2.5537    0.0000 O   0  0  0  0  0  0  0  0  0  0  0  0
   -8.3202   -1.8037    0.0000 C   0  0  0  0  0  0  0  0  0  0  0  0
   -9.6192   -2.5537    0.0000 C   0  0  0  0  0  0  0  0  0  0  0  0
  -10.9182   -1.8037    0.0000 C   0  0  0  0  0  0  0  0  0  0  0  0
  -12.2173   -2.5537    0.0000 C   0  0  0  0  0  0  0  0  0  0  0  0
  -12.2173   -4.0537    0.0000 C   0  0  0  0  0  0  0  0  0  0  0  0
  -10.9182   -4.8037    0.0000 N   0  0  0  0  0  0  0  0  0  0  0  0
   -9.6192   -4.0537    0.0000 C   0  0  0  0  0  0  0  0  0  0  0  0
  1  2  1  0
  2  3  1  0
  3  4  2  0
  4  5  1  0
  5  6  1  0
  6  7  1  0
  7  8  2  0
  8  9  1  0
  9 10  2  0
 10 11  1  0
 11 12  1  0
 12 13  2  0
 13 14  1  0
 14 15  1  0
 15 16  1  0
 16 17  2  0
 17 18  1  0
 18 19  2  0
 19 20  1  0
 20 21  2  0
 11 22  2  0
  5 23  2  0
 23 24  1  0
 24 25  2  0
 25 26  1  0
 26 27  1  0
 27 28  2  0
 28 29  1  0
 29 30  1  0
 30 31  2  0
 30 32  1  0
 32 33  1  0
 33 34  1  0
 34 35  1  0
 35 36  1  0
 36 37  1  0
 37 38  1  0
 38 39  1  0
 28  3  1  0
 39 34  1  0
 26  4  1  0
 22  7  1  0
 14 10  1  0
 21 16  1  0
M  END
>  <Compound_ID>  (1004) 
CHEMBL584714

>  <Active>  (1004) 
1.0

>  <Smiles>  (1004) 
CCC1=C2C(Nc3ccc4c(cnn4Cc4ccccc4)c3)=NC=NC2N=C1NC(=O)OCC1CCCNC1

>  <canonical_smi>  (1004) 
CCC1=C2C(Nc3ccc4c(cnn4Cc4ccccc4)c3)=NC=NC2N=C1NC(=O)OCC1CCCNC1

>  <Set>  (1004) 
G2 active

>  <Set_type>  (1004) 
Test

>  <MW>  (1004) 
524.63

>  <HBD>  (1004) 
3

>  <HBA>  (1004) 
5

>  <NRB>  (1004) 
6

>  <NR>  (1004) 
6

>  <NAR>  (1004) 
3

>  <PSA>  (1004) 
117.29

>  <Standard Type>  (1004) 
nan

>  <Standard Relation>  (1004) 
nan

>  <Standard Units>  (1004) 
nan

>  <Standard Value>  (1004) 
nan

>  <Assay ChEMBL ID>  (1004) 
nan

>  <Assay Description>  (1004) 
nan

>  <BAO Label>  (1004) 
nan

$$$$

     RDKit          2D

 39 44  0  0  0  0  0  0  0  0999 V2000
   -2.9520   -4.6564    0.0000 C   0  0  0  0  0  0  0  0  0  0  0  0
   -2.6401   -3.1891    0.0000 C   0  0  0  0  0  0  0  0  0  0  0  0
   -1.2135   -2.7256    0.0000 C   0  0  0  0  0  0  0  0  0  0  0  0
   -0.0000   -3.6073    0.0000 C   0  0  0  0  0  0  0  0  0  0  0  0
   -0.0000   -5.1073    0.0000 N   0  0  0  0  0  0  0  0  0  0  0  0
    1.2990   -5.8573    0.0000 C   0  0  0  0  0  0  0  0  0  0  0  0
    2.5981   -5.1073    0.0000 O   0  0  0  0  0  0  0  0  0  0  0  0
    1.2990   -7.3573    0.0000 O   0  0  0  0  0  0  0  0  0  0  0  0
    2.5981   -8.1073    0.0000 C   0  0  0  0  0  0  0  0  0  0  0  0
    2.5981   -9.6073    0.0000 C   0  0  0  0  0  0  0  0  0  0  0  0
    3.8971  -10.3573    0.0000 N   0  0  0  0  0  0  0  0  0  0  0  0
    5.2674   -9.7472    0.0000 C   0  0  0  0  0  0  0  0  0  0  0  0
    6.2711  -10.8619    0.0000 C   0  0  0  0  0  0  0  0  0  0  0  0
    5.5211  -12.1610    0.0000 N   0  0  0  0  0  0  0  0  0  0  0  0
    4.0539  -11.8491    0.0000 C   0  0  0  0  0  0  0  0  0  0  0  0
    1.2135   -2.7256    0.0000 C   0  0  0  0  0  0  0  0  0  0  0  0
    0.7500   -1.2990    0.0000 N   0  0  0  0  0  0  0  0  0  0  0  0
    1.5000    0.0000    0.0000 N   0  0  0  0  0  0  0  0  0  0  0  0
    0.7500    1.2990    0.0000 C   0  0  0  0  0  0  0  0  0  0  0  0
   -0.7500    1.2990    0.0000 N   0  0  0  0  0  0  0  0  0  0  0  0
   -1.5000    0.0000    0.0000 C   0  0  0  0  0  0  0  0  0  0  0  0
   -3.0000    0.0000    0.0000 N   0  0  0  0  0  0  0  0  0  0  0  0
   -3.7500    1.2990    0.0000 C   0  0  0  0  0  0  0  0  0  0  0  0
   -3.0000    2.5981    0.0000 C   0  0  0  0  0  0  0  0  0  0  0  0
   -3.7500    3.8971    0.0000 C   0  0  0  0  0  0  0  0  0  0  0  0
   -5.2500    3.8971    0.0000 C   0  0  0  0  0  0  0  0  0  0  0  0
   -6.0000    2.5981    0.0000 C   0  0  0  0  0  0  0  0  0  0  0  0
   -7.4672    2.9099    0.0000 C   0  0  0  0  0  0  0  0  0  0  0  0
   -7.6240    4.4017    0.0000 N   0  0  0  0  0  0  0  0  0  0  0  0
   -6.2537    5.0118    0.0000 N   0  0  0  0  0  0  0  0  0  0  0  0
   -5.9418    6.4791    0.0000 C   0  0  0  0  0  0  0  0  0  0  0  0
   -7.0565    7.4827    0.0000 C   0  0  0  0  0  0  0  0  0  0  0  0
   -6.7447    8.9500    0.0000 C   0  0  0  0  0  0  0  0  0  0  0  0
   -7.8594    9.9537    0.0000 C   0  0  0  0  0  0  0  0  0  0  0  0
   -9.2860    9.4901    0.0000 C   0  0  0  0  0  0  0  0  0  0  0  0
   -9.5978    8.0229    0.0000 C   0  0  0  0  0  0  0  0  0  0  0  0
   -8.4831    7.0192    0.0000 C   0  0  0  0  0  0  0  0  0  0  0  0
   -5.2500    1.2990    0.0000 C   0  0  0  0  0  0  0  0  0  0  0  0
   -0.7500   -1.2990    0.0000 C   0  0  0  0  0  0  0  0  0  0  0  0
  1  2  1  0
  2  3  1  0
  3  4  1  0
  4  5  1  0
  5  6  1  0
  6  7  2  0
  6  8  1  0
  8  9  1  0
  9 10  1  0
 10 11  1  0
 11 12  1  0
 12 13  2  0
 13 14  1  0
 14 15  2  0
  4 16  2  0
 16 17  1  0
 17 18  1  0
 18 19  2  0
 19 20  1  0
 20 21  2  0
 21 22  1  0
 22 23  1  0
 23 24  2  0
 24 25  1  0
 25 26  2  0
 26 27  1  0
 27 28  1  0
 28 29  2  0
 29 30  1  0
 30 31  1  0
 31 32  1  0
 32 33  2  0
 33 34  1  0
 34 35  2  0
 35 36  1  0
 36 37  2  0
 27 38  2  0
 21 39  1  0
 39  3  2  0
 15 11  1  0
 39 17  1  0
 38 23  1  0
 30 26  1  0
 37 32  1  0
M  END
>  <Compound_ID>  (1005) 
CHEMBL412367

>  <Active>  (1005) 
1.0

>  <Smiles>  (1005) 
CCc1c(NC(=O)OCCn2ccnc2)cn2ncnc(Nc3ccc4c(cnn4Cc4ccccc4)c3)c12

>  <canonical_smi>  (1005) 
CCc1c(NC(=O)OCCn2ccnc2)cn2ncnc(Nc3ccc4c(cnn4Cc4ccccc4)c3)c12

>  <Set>  (1005) 
G2 active

>  <Set_type>  (1005) 
Test

>  <MW>  (1005) 
521.59

>  <HBD>  (1005) 
2

>  <HBA>  (1005) 
7

>  <NRB>  (1005) 
9

>  <NR>  (1005) 
6

>  <NAR>  (1005) 
6

>  <PSA>  (1005) 
116.19

>  <Standard Type>  (1005) 
nan

>  <Standard Relation>  (1005) 
nan

>  <Standard Units>  (1005) 
nan

>  <Standard Value>  (1005) 
nan

>  <Assay ChEMBL ID>  (1005) 
nan

>  <Assay Description>  (1005) 
nan

>  <BAO Label>  (1005) 
nan

$$$$

     RDKit          2D

 39 44  0  0  0  0  0  0  0  0999 V2000
   -2.5565   -4.8847    0.0000 C   0  0  0  0  0  0  0  0  0  0  0  0
   -1.4418   -3.8810    0.0000 C   0  0  0  0  0  0  0  0  0  0  0  0
   -1.7537   -2.4138    0.0000 C   0  0  0  0  0  0  0  0  0  0  0  0
   -0.7500   -1.2990    0.0000 C   0  0  0  0  0  0  0  0  0  0  0  0
    0.7500   -1.2990    0.0000 C   0  0  0  0  0  0  0  0  0  0  0  0
    1.5000   -2.5981    0.0000 N   0  0  0  0  0  0  0  0  0  0  0  0
    3.0000   -2.5981    0.0000 C   0  0  0  0  0  0  0  0  0  0  0  0
    3.7500   -1.2990    0.0000 C   0  0  0  0  0  0  0  0  0  0  0  0
    5.2500   -1.2990    0.0000 C   0  0  0  0  0  0  0  0  0  0  0  0
    6.0000   -2.5981    0.0000 C   0  0  0  0  0  0  0  0  0  0  0  0
    5.2500   -3.8971    0.0000 C   0  0  0  0  0  0  0  0  0  0  0  0
    6.2537   -5.0118    0.0000 C   0  0  0  0  0  0  0  0  0  0  0  0
    7.6240   -4.4017    0.0000 N   0  0  0  0  0  0  0  0  0  0  0  0
    7.4672   -2.9099    0.0000 N   0  0  0  0  0  0  0  0  0  0  0  0
    8.5819   -1.9062    0.0000 C   0  0  0  0  0  0  0  0  0  0  0  0
   10.0085   -2.3698    0.0000 C   0  0  0  0  0  0  0  0  0  0  0  0
   10.3204   -3.8370    0.0000 C   0  0  0  0  0  0  0  0  0  0  0  0
   11.7470   -4.3005    0.0000 C   0  0  0  0  0  0  0  0  0  0  0  0
   12.8617   -3.2968    0.0000 C   0  0  0  0  0  0  0  0  0  0  0  0
   12.5498   -1.8296    0.0000 C   0  0  0  0  0  0  0  0  0  0  0  0
   11.1232   -1.3661    0.0000 C   0  0  0  0  0  0  0  0  0  0  0  0
    3.7500   -3.8971    0.0000 C   0  0  0  0  0  0  0  0  0  0  0  0
    1.5000    0.0000    0.0000 N   0  0  0  0  0  0  0  0  0  0  0  0
    0.7500    1.2990    0.0000 C   0  0  0  0  0  0  0  0  0  0  0  0
   -0.7500    1.2990    0.0000 N   0  0  0  0  0  0  0  0  0  0  0  0
   -1.5000    0.0000    0.0000 C   0  0  0  0  0  0  0  0  0  0  0  0
   -2.9672   -0.3119    0.0000 N   0  0  0  0  0  0  0  0  0  0  0  0
   -3.1240   -1.8037    0.0000 C   0  0  0  0  0  0  0  0  0  0  0  0
   -4.4231   -2.5537    0.0000 N   0  0  0  0  0  0  0  0  0  0  0  0
   -5.7221   -1.8037    0.0000 C   0  0  0  0  0  0  0  0  0  0  0  0
   -5.7221   -0.3037    0.0000 O   0  0  0  0  0  0  0  0  0  0  0  0
   -7.0211   -2.5537    0.0000 O   0  0  0  0  0  0  0  0  0  0  0  0
   -8.3202   -1.8037    0.0000 C   0  0  0  0  0  0  0  0  0  0  0  0
   -9.6192   -2.5537    0.0000 C   0  0  0  0  0  0  0  0  0  0  0  0
  -10.9182   -1.8037    0.0000 N   0  0  0  0  0  0  0  0  0  0  0  0
  -12.2886   -2.4138    0.0000 C   0  0  0  0  0  0  0  0  0  0  0  0
  -13.2923   -1.2990    0.0000 C   0  0  0  0  0  0  0  0  0  0  0  0
  -12.5423    0.0000    0.0000 N   0  0  0  0  0  0  0  0  0  0  0  0
  -11.0750   -0.3119    0.0000 C   0  0  0  0  0  0  0  0  0  0  0  0
  1  2  1  0
  2  3  1  0
  3  4  2  0
  4  5  1  0
  5  6  1  0
  6  7  1  0
  7  8  2  0
  8  9  1  0
  9 10  2  0
 10 11  1  0
 11 12  1  0
 12 13  2  0
 13 14  1  0
 14 15  1  0
 15 16  1  0
 16 17  2  0
 17 18  1  0
 18 19  2  0
 19 20  1  0
 20 21  2  0
 11 22  2  0
  5 23  2  0
 23 24  1  0
 24 25  2  0
 25 26  1  0
 26 27  1  0
 27 28  2  0
 28 29  1  0
 29 30  1  0
 30 31  2  0
 30 32  1  0
 32 33  1  0
 33 34  1  0
 34 35  1  0
 35 36  1  0
 36 37  2  0
 37 38  1  0
 38 39  2  0
 28  3  1  0
 39 35  1  0
 26  4  1  0
 22  7  1  0
 14 10  1  0
 21 16  1  0
M  END
>  <Compound_ID>  (1006) 
CHEMBL566337

>  <Active>  (1006) 
1.0

>  <Smiles>  (1006) 
CCC1=C2C(Nc3ccc4c(cnn4Cc4ccccc4)c3)=NC=NC2N=C1NC(=O)OCCn1ccnc1

>  <canonical_smi>  (1006) 
CCC1=C2C(Nc3ccc4c(cnn4Cc4ccccc4)c3)=NC=NC2N=C1NC(=O)OCCn1ccnc1

>  <Set>  (1006) 
G2 active

>  <Set_type>  (1006) 
Test

>  <MW>  (1006) 
521.59

>  <HBD>  (1006) 
2

>  <HBA>  (1006) 
5

>  <NRB>  (1006) 
7

>  <NR>  (1006) 
6

>  <NAR>  (1006) 
4

>  <PSA>  (1006) 
123.08

>  <Standard Type>  (1006) 
nan

>  <Standard Relation>  (1006) 
nan

>  <Standard Units>  (1006) 
nan

>  <Standard Value>  (1006) 
nan

>  <Assay ChEMBL ID>  (1006) 
nan

>  <Assay Description>  (1006) 
nan

>  <BAO Label>  (1006) 
nan

$$$$

     RDKit          2D

 38 41  0  0  0  0  0  0  0  0999 V2000
    3.7500   -1.2990    0.0000 C   0  0  0  0  0  0  0  0  0  0  0  0
    3.0000    0.0000    0.0000 O   0  0  0  0  0  0  0  0  0  0  0  0
    1.5000    0.0000    0.0000 C   0  0  0  0  0  0  0  0  0  0  0  0
    0.7500   -1.2990    0.0000 C   0  0  0  0  0  0  0  0  0  0  0  0
   -0.7500   -1.2990    0.0000 C   0  0  0  0  0  0  0  0  0  0  0  0
   -1.5000   -2.5981    0.0000 N   0  0  0  0  0  0  0  0  0  0  0  0
   -3.0000   -2.5981    0.0000 C   0  0  0  0  0  0  0  0  0  0  0  0
   -3.7500   -1.2990    0.0000 C   0  0  0  0  0  0  0  0  0  0  0  0
   -5.2500   -1.2990    0.0000 C   0  0  0  0  0  0  0  0  0  0  0  0
   -6.7500   -1.2990    0.0000 N   0  0  0  0  0  0  0  0  0  0  0  0
   -3.0000    0.0000    0.0000 C   0  0  0  0  0  0  0  0  0  0  0  0
   -3.7500    1.2990    0.0000 N   0  0  0  0  0  0  0  0  0  0  0  0
   -3.0000    2.5981    0.0000 C   0  0  0  0  0  0  0  0  0  0  0  0
   -1.5000    2.5981    0.0000 C   0  0  0  0  0  0  0  0  0  0  0  0
   -0.7500    3.8971    0.0000 C   0  0  0  0  0  0  0  0  0  0  0  0
   -1.5000    5.1962    0.0000 C   0  0  0  0  0  0  0  0  0  0  0  0
   -0.7500    6.4952    0.0000 S   0  0  0  0  0  0  0  0  0  0  0  0
    0.7500    6.4952    0.0000 C   0  0  0  0  0  0  0  0  0  0  0  0
    1.6317    7.7087    0.0000 N   0  0  0  0  0  0  0  0  0  0  0  0
    3.0583    7.2452    0.0000 C   0  0  0  0  0  0  0  0  0  0  0  0
    3.0583    5.7452    0.0000 C   0  0  0  0  0  0  0  0  0  0  0  0
    1.6317    5.2817    0.0000 N   0  0  0  0  0  0  0  0  0  0  0  0
    1.1682    3.8551    0.0000 C   0  0  0  0  0  0  0  0  0  0  0  0
   -3.0000    5.1962    0.0000 C   0  0  0  0  0  0  0  0  0  0  0  0
   -3.7500    6.4952    0.0000 Cl  0  0  0  0  0  0  0  0  0  0  0  0
   -3.7500    3.8971    0.0000 C   0  0  0  0  0  0  0  0  0  0  0  0
   -1.5000    0.0000    0.0000 C   0  0  0  0  0  0  0  0  0  0  0  0
   -0.7500    1.2990    0.0000 C   0  0  0  0  0  0  0  0  0  0  0  0
    0.7500    1.2990    0.0000 C   0  0  0  0  0  0  0  0  0  0  0  0
    1.5000    2.5981    0.0000 N   0  0  0  0  0  0  0  0  0  0  0  0
    3.0000    2.5981    0.0000 C   0  0  0  0  0  0  0  0  0  0  0  0
    3.7500    1.2990    0.0000 O   0  0  0  0  0  0  0  0  0  0  0  0
    3.7500    3.8971    0.0000 C   0  0  0  0  0  0  0  0  0  0  0  0
    5.2500    3.8971    0.0000 C   0  0  0  0  0  0  0  0  0  0  0  0
    6.0000    5.1962    0.0000 C   0  0  0  0  0  0  0  0  0  0  0  0
    7.5000    5.1962    0.0000 N   0  0  0  0  0  0  0  0  0  0  0  0
    8.2500    6.4952    0.0000 C   0  0  0  0  0  0  0  0  0  0  0  0
    8.2500    3.8971    0.0000 C   0  0  0  0  0  0  0  0  0  0  0  0
  1  2  1  0
  2  3  1  0
  3  4  2  0
  4  5  1  0
  5  6  2  0
  6  7  1  0
  7  8  2  0
  8  9  1  0
  9 10  3  0
  8 11  1  0
 11 12  1  0
 12 13  1  0
 13 14  2  0
 14 15  1  0
 15 16  2  0
 16 17  1  0
 17 18  1  0
 18 19  2  0
 19 20  1  0
 20 21  2  0
 21 22  1  0
 22 23  1  0
 16 24  1  0
 24 25  1  0
 24 26  2  0
 11 27  2  0
 27 28  1  0
 28 29  2  0
 29 30  1  0
 30 31  1  0
 31 32  2  0
 31 33  1  0
 33 34  2  0
 34 35  1  0
 35 36  1  0
 36 37  1  0
 36 38  1  0
 29  3  1  0
 27  5  1  0
 26 13  1  0
 22 18  1  0
M  END
>  <Compound_ID>  (1007) 
CHEMBL180175

>  <Active>  (1007) 
1.0

>  <Smiles>  (1007) 
COc1cc2ncc(C#N)c(Nc3ccc(Sc4nccn4C)c(Cl)c3)c2cc1NC(=O)/C=C/CN(C)C

>  <canonical_smi>  (1007) 
COc1cc2ncc(C#N)c(Nc3ccc(Sc4nccn4C)c(Cl)c3)c2cc1NC(=O)/C=C/CN(C)C

>  <Set>  (1007) 
G2 active

>  <Set_type>  (1007) 
Test

>  <MW>  (1007) 
548.07

>  <HBD>  (1007) 
2

>  <HBA>  (1007) 
8

>  <NRB>  (1007) 
9

>  <NR>  (1007) 
4

>  <NAR>  (1007) 
4

>  <PSA>  (1007) 
108.1

>  <Standard Type>  (1007) 
nan

>  <Standard Relation>  (1007) 
nan

>  <Standard Units>  (1007) 
nan

>  <Standard Value>  (1007) 
nan

>  <Assay ChEMBL ID>  (1007) 
nan

>  <Assay Description>  (1007) 
nan

>  <BAO Label>  (1007) 
nan

$$$$

     RDKit          2D

 37 40  0  0  0  0  0  0  0  0999 V2000
    3.7500   -1.2990    0.0000 C   0  0  0  0  0  0  0  0  0  0  0  0
    3.0000    0.0000    0.0000 O   0  0  0  0  0  0  0  0  0  0  0  0
    1.5000    0.0000    0.0000 C   0  0  0  0  0  0  0  0  0  0  0  0
    0.7500   -1.2990    0.0000 C   0  0  0  0  0  0  0  0  0  0  0  0
   -0.7500   -1.2990    0.0000 C   0  0  0  0  0  0  0  0  0  0  0  0
   -1.5000   -2.5981    0.0000 N   0  0  0  0  0  0  0  0  0  0  0  0
   -3.0000   -2.5981    0.0000 C   0  0  0  0  0  0  0  0  0  0  0  0
   -3.7500   -1.2990    0.0000 C   0  0  0  0  0  0  0  0  0  0  0  0
   -5.2500   -1.2990    0.0000 C   0  0  0  0  0  0  0  0  0  0  0  0
   -6.7500   -1.2990    0.0000 N   0  0  0  0  0  0  0  0  0  0  0  0
   -3.0000    0.0000    0.0000 C   0  0  0  0  0  0  0  0  0  0  0  0
   -3.7500    1.2990    0.0000 N   0  0  0  0  0  0  0  0  0  0  0  0
   -3.0000    2.5981    0.0000 C   0  0  0  0  0  0  0  0  0  0  0  0
   -1.5000    2.5981    0.0000 C   0  0  0  0  0  0  0  0  0  0  0  0
   -0.7500    3.8971    0.0000 C   0  0  0  0  0  0  0  0  0  0  0  0
   -1.5000    5.1962    0.0000 C   0  0  0  0  0  0  0  0  0  0  0  0
   -0.7500    6.4952    0.0000 S   0  0  0  0  0  0  0  0  0  0  0  0
    0.7500    6.4952    0.0000 C   0  0  0  0  0  0  0  0  0  0  0  0
    1.6317    7.7087    0.0000 N   0  0  0  0  0  0  0  0  0  0  0  0
    3.0583    7.2452    0.0000 C   0  0  0  0  0  0  0  0  0  0  0  0
    3.0583    5.7452    0.0000 C   0  0  0  0  0  0  0  0  0  0  0  0
    1.6317    5.2817    0.0000 S   0  0  0  0  0  0  0  0  0  0  0  0
   -3.0000    5.1962    0.0000 C   0  0  0  0  0  0  0  0  0  0  0  0
   -3.7500    6.4952    0.0000 Cl  0  0  0  0  0  0  0  0  0  0  0  0
   -3.7500    3.8971    0.0000 C   0  0  0  0  0  0  0  0  0  0  0  0
   -1.5000    0.0000    0.0000 C   0  0  0  0  0  0  0  0  0  0  0  0
   -0.7500    1.2990    0.0000 C   0  0  0  0  0  0  0  0  0  0  0  0
    0.7500    1.2990    0.0000 C   0  0  0  0  0  0  0  0  0  0  0  0
    1.5000    2.5981    0.0000 N   0  0  0  0  0  0  0  0  0  0  0  0
    3.0000    2.5981    0.0000 C   0  0  0  0  0  0  0  0  0  0  0  0
    3.7500    1.2990    0.0000 O   0  0  0  0  0  0  0  0  0  0  0  0
    3.7500    3.8971    0.0000 C   0  0  0  0  0  0  0  0  0  0  0  0
    5.2500    3.8971    0.0000 C   0  0  0  0  0  0  0  0  0  0  0  0
    6.0000    5.1962    0.0000 C   0  0  0  0  0  0  0  0  0  0  0  0
    7.5000    5.1962    0.0000 N   0  0  0  0  0  0  0  0  0  0  0  0
    8.2500    6.4952    0.0000 C   0  0  0  0  0  0  0  0  0  0  0  0
    8.2500    3.8971    0.0000 C   0  0  0  0  0  0  0  0  0  0  0  0
  1  2  1  0
  2  3  1  0
  3  4  2  0
  4  5  1  0
  5  6  2  0
  6  7  1  0
  7  8  2  0
  8  9  1  0
  9 10  3  0
  8 11  1  0
 11 12  1  0
 12 13  1  0
 13 14  2  0
 14 15  1  0
 15 16  2  0
 16 17  1  0
 17 18  1  0
 18 19  2  0
 19 20  1  0
 20 21  2  0
 21 22  1  0
 16 23  1  0
 23 24  1  0
 23 25  2  0
 11 26  2  0
 26 27  1  0
 27 28  2  0
 28 29  1  0
 29 30  1  0
 30 31  2  0
 30 32  1  0
 32 33  2  0
 33 34  1  0
 34 35  1  0
 35 36  1  0
 35 37  1  0
 28  3  1  0
 26  5  1  0
 25 13  1  0
 22 18  1  0
M  END
>  <Compound_ID>  (1008) 
CHEMBL179572

>  <Active>  (1008) 
1.0

>  <Smiles>  (1008) 
COc1cc2ncc(C#N)c(Nc3ccc(Sc4nccs4)c(Cl)c3)c2cc1NC(=O)/C=C/CN(C)C

>  <canonical_smi>  (1008) 
COc1cc2ncc(C#N)c(Nc3ccc(Sc4nccs4)c(Cl)c3)c2cc1NC(=O)/C=C/CN(C)C

>  <Set>  (1008) 
G2 active

>  <Set_type>  (1008) 
Test

>  <MW>  (1008) 
551.1

>  <HBD>  (1008) 
2

>  <HBA>  (1008) 
8

>  <NRB>  (1008) 
9

>  <NR>  (1008) 
4

>  <NAR>  (1008) 
4

>  <PSA>  (1008) 
103.17

>  <Standard Type>  (1008) 
nan

>  <Standard Relation>  (1008) 
nan

>  <Standard Units>  (1008) 
nan

>  <Standard Value>  (1008) 
nan

>  <Assay ChEMBL ID>  (1008) 
nan

>  <Assay Description>  (1008) 
nan

>  <BAO Label>  (1008) 
nan

$$$$

     RDKit          2D

 30 33  0  0  0  0  0  0  0  0999 V2000
    3.0000    0.0000    0.0000 F   0  0  0  0  0  0  0  0  0  0  0  0
    1.5000    0.0000    0.0000 C   0  0  0  0  0  0  0  0  0  0  0  0
    0.7500   -1.2990    0.0000 C   0  0  0  0  0  0  0  0  0  0  0  0
   -0.7500   -1.2990    0.0000 C   0  0  0  0  0  0  0  0  0  0  0  0
   -1.5000    0.0000    0.0000 C   0  0  0  0  0  0  0  0  0  0  0  0
   -0.7500    1.2990    0.0000 C   0  0  0  0  0  0  0  0  0  0  0  0
   -1.5000    2.5981    0.0000 C   0  0  0  0  0  0  0  0  0  0  0  0
   -0.7500    3.8971    0.0000 O   0  0  0  0  0  0  0  0  0  0  0  0
   -1.5000    5.1962    0.0000 C   0  0  0  0  0  0  0  0  0  0  0  0
   -0.7500    6.4952    0.0000 C   0  0  0  0  0  0  0  0  0  0  0  0
   -1.5000    7.7942    0.0000 C   0  0  0  0  0  0  0  0  0  0  0  0
   -3.0000    7.7942    0.0000 C   0  0  0  0  0  0  0  0  0  0  0  0
   -3.7500    9.0933    0.0000 N   0  0  0  0  0  0  0  0  0  0  0  0
   -3.0000   10.3923    0.0000 C   0  0  0  0  0  0  0  0  0  0  0  0
   -1.5000   10.3923    0.0000 N   0  0  0  0  0  0  0  0  0  0  0  0
   -0.7500   11.6913    0.0000 C   0  0  0  0  0  0  0  0  0  0  0  0
   -1.5000   12.9904    0.0000 N   0  0  0  0  0  0  0  0  0  0  0  0
   -3.0000   12.9904    0.0000 C   0  0  0  0  0  0  0  0  0  0  0  0
   -3.7500   11.6913    0.0000 C   0  0  0  0  0  0  0  0  0  0  0  0
   -5.2500   11.6913    0.0000 C   0  0  0  0  0  0  0  0  0  0  0  0
   -6.7500   11.6913    0.0000 C   0  0  0  0  0  0  0  0  0  0  0  0
   -8.2500   11.6913    0.0000 C   0  0  0  0  0  0  0  0  0  0  0  0
   -9.1317   10.4778    0.0000 C   0  0  0  0  0  0  0  0  0  0  0  0
  -10.5583   10.9413    0.0000 C   0  0  0  0  0  0  0  0  0  0  0  0
  -10.5583   12.4413    0.0000 N   0  0  0  0  0  0  0  0  0  0  0  0
   -9.1317   12.9049    0.0000 N   0  0  0  0  0  0  0  0  0  0  0  0
   -3.7500    6.4952    0.0000 C   0  0  0  0  0  0  0  0  0  0  0  0
   -3.0000    5.1962    0.0000 C   0  0  0  0  0  0  0  0  0  0  0  0
   -3.7500    3.8971    0.0000 Cl  0  0  0  0  0  0  0  0  0  0  0  0
    0.7500    1.2990    0.0000 C   0  0  0  0  0  0  0  0  0  0  0  0
  1  2  1  0
  2  3  2  0
  3  4  1  0
  4  5  2  0
  5  6  1  0
  6  7  1  0
  7  8  1  0
  8  9  1  0
  9 10  2  0
 10 11  1  0
 11 12  2  0
 12 13  1  0
 13 14  1  0
 14 15  2  0
 15 16  1  0
 16 17  2  0
 17 18  1  0
 18 19  2  0
 19 20  1  0
 20 21  3  0
 21 22  1  0
 22 23  1  0
 23 24  2  0
 24 25  1  0
 25 26  1  0
 12 27  1  0
 27 28  2  0
 28 29  1  0
  6 30  2  0
 30  2  1  0
 28  9  1  0
 19 14  1  0
 26 22  2  0
M  END
>  <Compound_ID>  (1009) 
CHEMBL205284

>  <Active>  (1009) 
1.0

>  <Smiles>  (1009) 
Fc1cccc(COc2ccc(Nc3ncncc3C#Cc3cc[nH]n3)cc2Cl)c1

>  <canonical_smi>  (1009) 
Fc1cccc(COc2ccc(Nc3ncncc3C#Cc3cc[nH]n3)cc2Cl)c1

>  <Set>  (1009) 
G2 active

>  <Set_type>  (1009) 
Test

>  <MW>  (1009) 
419.85

>  <HBD>  (1009) 
2

>  <HBA>  (1009) 
5

>  <NRB>  (1009) 
5

>  <NR>  (1009) 
4

>  <NAR>  (1009) 
4

>  <PSA>  (1009) 
75.72

>  <Standard Type>  (1009) 
nan

>  <Standard Relation>  (1009) 
nan

>  <Standard Units>  (1009) 
nan

>  <Standard Value>  (1009) 
nan

>  <Assay ChEMBL ID>  (1009) 
nan

>  <Assay Description>  (1009) 
nan

>  <BAO Label>  (1009) 
nan

$$$$

     RDKit          2D

 40 45  0  0  0  0  0  0  0  0999 V2000
   -2.5565   -4.8847    0.0000 C   0  0  0  0  0  0  0  0  0  0  0  0
   -1.4418   -3.8810    0.0000 C   0  0  0  0  0  0  0  0  0  0  0  0
   -1.7537   -2.4138    0.0000 C   0  0  0  0  0  0  0  0  0  0  0  0
   -0.7500   -1.2990    0.0000 C   0  0  0  0  0  0  0  0  0  0  0  0
    0.7500   -1.2990    0.0000 C   0  0  0  0  0  0  0  0  0  0  0  0
    1.5000   -2.5981    0.0000 N   0  0  0  0  0  0  0  0  0  0  0  0
    3.0000   -2.5981    0.0000 C   0  0  0  0  0  0  0  0  0  0  0  0
    3.7500   -1.2990    0.0000 C   0  0  0  0  0  0  0  0  0  0  0  0
    5.2500   -1.2990    0.0000 C   0  0  0  0  0  0  0  0  0  0  0  0
    6.0000   -2.5981    0.0000 C   0  0  0  0  0  0  0  0  0  0  0  0
    5.2500   -3.8971    0.0000 C   0  0  0  0  0  0  0  0  0  0  0  0
    6.2537   -5.0118    0.0000 C   0  0  0  0  0  0  0  0  0  0  0  0
    7.6240   -4.4017    0.0000 N   0  0  0  0  0  0  0  0  0  0  0  0
    7.4672   -2.9099    0.0000 N   0  0  0  0  0  0  0  0  0  0  0  0
    8.5819   -1.9062    0.0000 C   0  0  0  0  0  0  0  0  0  0  0  0
   10.0085   -2.3698    0.0000 C   0  0  0  0  0  0  0  0  0  0  0  0
   10.3204   -3.8370    0.0000 C   0  0  0  0  0  0  0  0  0  0  0  0
   11.7470   -4.3005    0.0000 C   0  0  0  0  0  0  0  0  0  0  0  0
   12.8617   -3.2968    0.0000 C   0  0  0  0  0  0  0  0  0  0  0  0
   12.5498   -1.8296    0.0000 C   0  0  0  0  0  0  0  0  0  0  0  0
   11.1232   -1.3661    0.0000 C   0  0  0  0  0  0  0  0  0  0  0  0
    3.7500   -3.8971    0.0000 C   0  0  0  0  0  0  0  0  0  0  0  0
    1.5000    0.0000    0.0000 N   0  0  0  0  0  0  0  0  0  0  0  0
    0.7500    1.2990    0.0000 C   0  0  0  0  0  0  0  0  0  0  0  0
   -0.7500    1.2990    0.0000 N   0  0  0  0  0  0  0  0  0  0  0  0
   -1.5000    0.0000    0.0000 C   0  0  0  0  0  0  0  0  0  0  0  0
   -2.9672   -0.3119    0.0000 N   0  0  0  0  0  0  0  0  0  0  0  0
   -3.1240   -1.8037    0.0000 C   0  0  0  0  0  0  0  0  0  0  0  0
   -4.4231   -2.5537    0.0000 N   0  0  0  0  0  0  0  0  0  0  0  0
   -5.7221   -1.8037    0.0000 C   0  0  0  0  0  0  0  0  0  0  0  0
   -5.7221   -0.3037    0.0000 O   0  0  0  0  0  0  0  0  0  0  0  0
   -7.0211   -2.5537    0.0000 O   0  0  0  0  0  0  0  0  0  0  0  0
   -8.3202   -1.8037    0.0000 C   0  0  0  0  0  0  0  0  0  0  0  0
   -9.6192   -2.5537    0.0000 C   0  0  0  0  0  0  0  0  0  0  0  0
  -10.9182   -1.8037    0.0000 C   0  0  0  0  0  0  0  0  0  0  0  0
  -10.9182   -0.3037    0.0000 C   0  0  0  0  0  0  0  0  0  0  0  0
  -12.2173    0.4463    0.0000 C   0  0  0  0  0  0  0  0  0  0  0  0
  -13.5163   -0.3037    0.0000 N   0  0  0  0  0  0  0  0  0  0  0  0
  -13.5163   -1.8037    0.0000 C   0  0  0  0  0  0  0  0  0  0  0  0
  -12.2173   -2.5537    0.0000 C   0  0  0  0  0  0  0  0  0  0  0  0
  1  2  1  0
  2  3  1  0
  3  4  2  0
  4  5  1  0
  5  6  1  0
  6  7  1  0
  7  8  2  0
  8  9  1  0
  9 10  2  0
 10 11  1  0
 11 12  1  0
 12 13  2  0
 13 14  1  0
 14 15  1  0
 15 16  1  0
 16 17  2  0
 17 18  1  0
 18 19  2  0
 19 20  1  0
 20 21  2  0
 11 22  2  0
  5 23  2  0
 23 24  1  0
 24 25  2  0
 25 26  1  0
 26 27  1  0
 27 28  2  0
 28 29  1  0
 29 30  1  0
 30 31  2  0
 30 32  1  0
 32 33  1  0
 33 34  1  0
 34 35  1  0
 35 36  1  0
 36 37  1  0
 37 38  1  0
 38 39  1  0
 39 40  1  0
 28  3  1  0
 40 35  1  0
 26  4  1  0
 22  7  1  0
 14 10  1  0
 21 16  1  0
M  END
>  <Compound_ID>  (1010) 
CHEMBL578044

>  <Active>  (1010) 
1.0

>  <Smiles>  (1010) 
CCC1=C2C(Nc3ccc4c(cnn4Cc4ccccc4)c3)=NC=NC2N=C1NC(=O)OCCC1CCNCC1

>  <canonical_smi>  (1010) 
CCC1=C2C(Nc3ccc4c(cnn4Cc4ccccc4)c3)=NC=NC2N=C1NC(=O)OCCC1CCNCC1

>  <Set>  (1010) 
G2 active

>  <Set_type>  (1010) 
Test

>  <MW>  (1010) 
538.66

>  <HBD>  (1010) 
3

>  <HBA>  (1010) 
5

>  <NRB>  (1010) 
7

>  <NR>  (1010) 
6

>  <NAR>  (1010) 
3

>  <PSA>  (1010) 
117.29

>  <Standard Type>  (1010) 
nan

>  <Standard Relation>  (1010) 
nan

>  <Standard Units>  (1010) 
nan

>  <Standard Value>  (1010) 
nan

>  <Assay ChEMBL ID>  (1010) 
nan

>  <Assay Description>  (1010) 
nan

>  <BAO Label>  (1010) 
nan

$$$$

     RDKit          2D

 34 39  0  0  0  0  0  0  0  0999 V2000
   -3.8876   -9.0580    0.0000 N   0  0  0  0  0  0  0  0  0  0  0  0
   -3.5757   -7.5908    0.0000 C   0  0  0  0  0  0  0  0  0  0  0  0
   -4.6904   -6.5871    0.0000 C   0  0  0  0  0  0  0  0  0  0  0  0
   -4.3786   -5.1199    0.0000 C   0  0  0  0  0  0  0  0  0  0  0  0
   -2.9520   -4.6564    0.0000 N   0  0  0  0  0  0  0  0  0  0  0  0
   -2.6401   -3.1891    0.0000 C   0  0  0  0  0  0  0  0  0  0  0  0
   -1.2135   -2.7256    0.0000 C   0  0  0  0  0  0  0  0  0  0  0  0
   -0.0000   -3.6073    0.0000 C   0  0  0  0  0  0  0  0  0  0  0  0
    1.2135   -2.7256    0.0000 C   0  0  0  0  0  0  0  0  0  0  0  0
    0.7500   -1.2990    0.0000 N   0  0  0  0  0  0  0  0  0  0  0  0
    1.5000    0.0000    0.0000 N   0  0  0  0  0  0  0  0  0  0  0  0
    0.7500    1.2990    0.0000 C   0  0  0  0  0  0  0  0  0  0  0  0
   -0.7500    1.2990    0.0000 N   0  0  0  0  0  0  0  0  0  0  0  0
   -1.5000    0.0000    0.0000 C   0  0  0  0  0  0  0  0  0  0  0  0
   -3.0000    0.0000    0.0000 N   0  0  0  0  0  0  0  0  0  0  0  0
   -3.7500    1.2990    0.0000 C   0  0  0  0  0  0  0  0  0  0  0  0
   -3.0000    2.5981    0.0000 C   0  0  0  0  0  0  0  0  0  0  0  0
   -3.7500    3.8971    0.0000 C   0  0  0  0  0  0  0  0  0  0  0  0
   -5.2500    3.8971    0.0000 C   0  0  0  0  0  0  0  0  0  0  0  0
   -6.0000    2.5981    0.0000 C   0  0  0  0  0  0  0  0  0  0  0  0
   -7.4672    2.9099    0.0000 C   0  0  0  0  0  0  0  0  0  0  0  0
   -7.6240    4.4017    0.0000 N   0  0  0  0  0  0  0  0  0  0  0  0
   -6.2537    5.0118    0.0000 N   0  0  0  0  0  0  0  0  0  0  0  0
   -5.9418    6.4791    0.0000 C   0  0  0  0  0  0  0  0  0  0  0  0
   -7.0565    7.4827    0.0000 C   0  0  0  0  0  0  0  0  0  0  0  0
   -6.7447    8.9500    0.0000 C   0  0  0  0  0  0  0  0  0  0  0  0
   -7.8594    9.9537    0.0000 C   0  0  0  0  0  0  0  0  0  0  0  0
   -9.2860    9.4901    0.0000 C   0  0  0  0  0  0  0  0  0  0  0  0
   -9.5978    8.0229    0.0000 C   0  0  0  0  0  0  0  0  0  0  0  0
   -8.4831    7.0192    0.0000 N   0  0  0  0  0  0  0  0  0  0  0  0
   -5.2500    1.2990    0.0000 C   0  0  0  0  0  0  0  0  0  0  0  0
   -0.7500   -1.2990    0.0000 C   0  0  0  0  0  0  0  0  0  0  0  0
   -1.8373   -5.6601    0.0000 C   0  0  0  0  0  0  0  0  0  0  0  0
   -2.1491   -7.1273    0.0000 C   0  0  0  0  0  0  0  0  0  0  0  0
  1  2  1  0
  2  3  1  0
  3  4  1  0
  4  5  1  0
  5  6  1  0
  6  7  1  0
  7  8  1  0
  8  9  2  0
  9 10  1  0
 10 11  1  0
 11 12  2  0
 12 13  1  0
 13 14  2  0
 14 15  1  0
 15 16  1  0
 16 17  2  0
 17 18  1  0
 18 19  2  0
 19 20  1  0
 20 21  1  0
 21 22  2  0
 22 23  1  0
 23 24  1  0
 24 25  1  0
 25 26  2  0
 26 27  1  0
 27 28  2  0
 28 29  1  0
 29 30  2  0
 20 31  2  0
 14 32  1  0
  5 33  1  0
 33 34  1  0
 34  2  1  0
 32  7  2  0
 32 10  1  0
 31 16  1  0
 23 19  1  0
 30 25  1  0
M  END
>  <Compound_ID>  (1011) 
CHEMBL247914

>  <Active>  (1011) 
1.0

>  <Smiles>  (1011) 
NC1CCN(Cc2ccn3ncnc(Nc4ccc5c(cnn5Cc5ccccn5)c4)c23)CC1

>  <canonical_smi>  (1011) 
NC1CCN(Cc2ccn3ncnc(Nc4ccc5c(cnn5Cc5ccccn5)c4)c23)CC1

>  <Set>  (1011) 
G2 active

>  <Set_type>  (1011) 
Test

>  <MW>  (1011) 
453.55

>  <HBD>  (1011) 
2

>  <HBA>  (1011) 
7

>  <NRB>  (1011) 
6

>  <NR>  (1011) 
6

>  <NAR>  (1011) 
5

>  <PSA>  (1011) 
102.19

>  <Standard Type>  (1011) 
nan

>  <Standard Relation>  (1011) 
nan

>  <Standard Units>  (1011) 
nan

>  <Standard Value>  (1011) 
nan

>  <Assay ChEMBL ID>  (1011) 
nan

>  <Assay Description>  (1011) 
nan

>  <BAO Label>  (1011) 
nan

$$$$

     RDKit          2D

 38 41  0  0  0  0  0  0  0  0999 V2000
    3.7500   -6.4952    0.0000 C   0  0  0  0  0  0  0  0  0  0  0  0
    3.0000   -5.1962    0.0000 C   0  0  0  0  0  0  0  0  0  0  0  0
    1.5000   -5.1962    0.0000 O   0  0  0  0  0  0  0  0  0  0  0  0
    0.7500   -3.8971    0.0000 C   0  0  0  0  0  0  0  0  0  0  0  0
    1.5000   -2.5981    0.0000 C   0  0  0  0  0  0  0  0  0  0  0  0
    0.7500   -1.2990    0.0000 C   0  0  0  0  0  0  0  0  0  0  0  0
    1.5000    0.0000    0.0000 N   0  0  0  0  0  0  0  0  0  0  0  0
    0.7500    1.2990    0.0000 C   0  0  0  0  0  0  0  0  0  0  0  0
   -0.7500    1.2990    0.0000 N   0  0  0  0  0  0  0  0  0  0  0  0
   -1.5000    0.0000    0.0000 C   0  0  0  0  0  0  0  0  0  0  0  0
   -3.0000    0.0000    0.0000 N   0  0  0  0  0  0  0  0  0  0  0  0
   -3.7500    1.2990    0.0000 C   0  0  0  0  0  0  0  0  0  0  0  0
   -3.0000    2.5981    0.0000 C   0  0  0  0  0  0  0  0  0  0  0  0
   -3.7500    3.8971    0.0000 C   0  0  0  0  0  0  0  0  0  0  0  0
   -3.0000    5.1962    0.0000 O   0  0  0  0  0  0  0  0  0  0  0  0
   -5.2500    3.8971    0.0000 C   0  0  0  0  0  0  0  0  0  0  0  0
   -6.0000    5.1962    0.0000 O   0  0  0  0  0  0  0  0  0  0  0  0
   -7.5000    5.1962    0.0000 C   0  0  0  0  0  0  0  0  0  0  0  0
   -8.2500    6.4952    0.0000 C   0  0  0  0  0  0  0  0  0  0  0  0
   -9.7418    6.6520    0.0000 C   0  0  0  0  0  0  0  0  0  0  0  0
  -10.0537    8.1192    0.0000 C   0  0  0  0  0  0  0  0  0  0  0  0
   -8.7546    8.8692    0.0000 C   0  0  0  0  0  0  0  0  0  0  0  0
   -7.6399    7.8655    0.0000 S   0  0  0  0  0  0  0  0  0  0  0  0
   -6.0000    2.5981    0.0000 C   0  0  0  0  0  0  0  0  0  0  0  0
   -5.2500    1.2990    0.0000 C   0  0  0  0  0  0  0  0  0  0  0  0
   -6.0000    0.0000    0.0000 O   0  0  0  0  0  0  0  0  0  0  0  0
   -0.7500   -1.2990    0.0000 C   0  0  0  0  0  0  0  0  0  0  0  0
   -1.5000   -2.5981    0.0000 C   0  0  0  0  0  0  0  0  0  0  0  0
   -0.7500   -3.8971    0.0000 C   0  0  0  0  0  0  0  0  0  0  0  0
   -1.5000   -5.1962    0.0000 N   0  0  0  0  0  0  0  0  0  0  0  0
   -3.0000   -5.1962    0.0000 C   0  0  0  0  0  0  0  0  0  0  0  0
   -3.7500   -3.8971    0.0000 O   0  0  0  0  0  0  0  0  0  0  0  0
   -3.7500   -6.4952    0.0000 C   0  0  0  0  0  0  0  0  0  0  0  0
   -5.2500   -6.4952    0.0000 C   0  0  0  0  0  0  0  0  0  0  0  0
   -6.0000   -7.7942    0.0000 C   0  0  0  0  0  0  0  0  0  0  0  0
   -7.5000   -7.7942    0.0000 N   0  0  0  0  0  0  0  0  0  0  0  0
   -8.2500   -9.0933    0.0000 C   0  0  0  0  0  0  0  0  0  0  0  0
   -8.2500   -6.4952    0.0000 C   0  0  0  0  0  0  0  0  0  0  0  0
  1  2  1  0
  2  3  1  0
  3  4  1  0
  4  5  2  0
  5  6  1  0
  6  7  2  0
  7  8  1  0
  8  9  2  0
  9 10  1  0
 10 11  1  0
 11 12  1  0
 12 13  2  0
 13 14  1  0
 14 15  2  0
 14 16  1  0
 16 17  1  0
 17 18  1  0
 18 19  1  0
 19 20  2  0
 20 21  1  0
 21 22  2  0
 22 23  1  0
 16 24  2  0
 24 25  1  0
 25 26  2  0
 10 27  2  0
 27 28  1  0
 28 29  2  0
 29 30  1  0
 30 31  1  0
 31 32  2  0
 31 33  1  0
 33 34  2  0
 34 35  1  0
 35 36  1  0
 36 37  1  0
 36 38  1  0
 29  4  1  0
 27  6  1  0
 25 12  1  0
 23 19  1  0
M  END
>  <Compound_ID>  (1012) 
CHEMBL243839

>  <Active>  (1012) 
1.0

>  <Smiles>  (1012) 
CCOc1cc2ncnc(NC3=CC(=O)C(OCc4cccs4)=CC3=O)c2cc1NC(=O)/C=C/CN(C)C

>  <canonical_smi>  (1012) 
CCOc1cc2ncnc(NC3=CC(=O)C(OCc4cccs4)=CC3=O)c2cc1NC(=O)/C=C/CN(C)C

>  <Set>  (1012) 
G2 active

>  <Set_type>  (1012) 
Test

>  <MW>  (1012) 
533.61

>  <HBD>  (1012) 
2

>  <HBA>  (1012) 
9

>  <NRB>  (1012) 
11

>  <NR>  (1012) 
4

>  <NAR>  (1012) 
3

>  <PSA>  (1012) 
122.75

>  <Standard Type>  (1012) 
nan

>  <Standard Relation>  (1012) 
nan

>  <Standard Units>  (1012) 
nan

>  <Standard Value>  (1012) 
nan

>  <Assay ChEMBL ID>  (1012) 
nan

>  <Assay Description>  (1012) 
nan

>  <BAO Label>  (1012) 
nan

$$$$

     RDKit          2D

 41 46  0  0  0  0  0  0  0  0999 V2000
   -0.4702  -13.1562    0.0000 O   0  0  0  0  0  0  0  0  0  0  0  0
    1.0216  -12.9994    0.0000 C   0  0  0  0  0  0  0  0  0  0  0  0
    1.6317  -11.6291    0.0000 O   0  0  0  0  0  0  0  0  0  0  0  0
    0.7500  -10.4156    0.0000 C   0  0  0  0  0  0  0  0  0  0  0  0
   -0.7500  -10.4156    0.0000 C   0  0  0  0  0  0  0  0  0  0  0  0
   -1.2135   -8.9890    0.0000 N   0  0  0  0  0  0  0  0  0  0  0  0
    0.0000   -8.1073    0.0000 C   0  0  0  0  0  0  0  0  0  0  0  0
   -0.0000   -6.6073    0.0000 C   0  0  0  0  0  0  0  0  0  0  0  0
   -0.0000   -5.1073    0.0000 C   0  0  0  0  0  0  0  0  0  0  0  0
   -0.0000   -3.6073    0.0000 C   0  0  0  0  0  0  0  0  0  0  0  0
    1.2135   -2.7256    0.0000 C   0  0  0  0  0  0  0  0  0  0  0  0
    0.7500   -1.2990    0.0000 C   0  0  0  0  0  0  0  0  0  0  0  0
    1.5000    0.0000    0.0000 N   0  0  0  0  0  0  0  0  0  0  0  0
    0.7500    1.2990    0.0000 C   0  0  0  0  0  0  0  0  0  0  0  0
   -0.7500    1.2990    0.0000 N   0  0  0  0  0  0  0  0  0  0  0  0
   -1.5000    0.0000    0.0000 C   0  0  0  0  0  0  0  0  0  0  0  0
   -3.0000    0.0000    0.0000 N   0  0  0  0  0  0  0  0  0  0  0  0
   -3.7500    1.2990    0.0000 C   0  0  0  0  0  0  0  0  0  0  0  0
   -3.0000    2.5981    0.0000 C   0  0  0  0  0  0  0  0  0  0  0  0
   -3.7500    3.8971    0.0000 C   0  0  0  0  0  0  0  0  0  0  0  0
   -5.2500    3.8971    0.0000 C   0  0  0  0  0  0  0  0  0  0  0  0
   -6.0000    5.1962    0.0000 O   0  0  0  0  0  0  0  0  0  0  0  0
   -5.2500    6.4952    0.0000 C   0  0  0  0  0  0  0  0  0  0  0  0
   -6.0000    7.7942    0.0000 C   0  0  0  0  0  0  0  0  0  0  0  0
   -5.2500    9.0933    0.0000 C   0  0  0  0  0  0  0  0  0  0  0  0
   -6.0000   10.3923    0.0000 C   0  0  0  0  0  0  0  0  0  0  0  0
   -7.5000   10.3923    0.0000 C   0  0  0  0  0  0  0  0  0  0  0  0
   -8.2500    9.0933    0.0000 C   0  0  0  0  0  0  0  0  0  0  0  0
   -7.5000    7.7942    0.0000 N   0  0  0  0  0  0  0  0  0  0  0  0
   -6.0000    2.5981    0.0000 C   0  0  0  0  0  0  0  0  0  0  0  0
   -7.5000    2.5981    0.0000 Cl  0  0  0  0  0  0  0  0  0  0  0  0
   -5.2500    1.2990    0.0000 C   0  0  0  0  0  0  0  0  0  0  0  0
   -0.7500   -1.2990    0.0000 C   0  0  0  0  0  0  0  0  0  0  0  0
   -1.2135   -2.7256    0.0000 S   0  0  0  0  0  0  0  0  0  0  0  0
    1.2135   -8.9890    0.0000 C   0  0  0  0  0  0  0  0  0  0  0  0
    1.9033  -14.2129    0.0000 N   0  0  0  0  0  0  0  0  0  0  0  0
    1.2931  -15.5833    0.0000 C   0  0  0  0  0  0  0  0  0  0  0  0
    2.1748  -16.7968    0.0000 C   0  0  0  0  0  0  0  0  0  0  0  0
    3.6666  -16.6400    0.0000 O   0  0  0  0  0  0  0  0  0  0  0  0
    4.2767  -15.2697    0.0000 C   0  0  0  0  0  0  0  0  0  0  0  0
    3.3950  -14.0561    0.0000 C   0  0  0  0  0  0  0  0  0  0  0  0
  1  2  2  0
  2  3  1  0
  4  3  1  1
  4  5  1  0
  5  6  1  0
  6  7  1  0
  7  8  1  6
  8  9  3  0
  9 10  1  0
 10 11  2  0
 11 12  1  0
 12 13  2  0
 13 14  1  0
 14 15  2  0
 15 16  1  0
 16 17  1  0
 17 18  1  0
 18 19  2  0
 19 20  1  0
 20 21  2  0
 21 22  1  0
 22 23  1  0
 23 24  1  0
 24 25  2  0
 25 26  1  0
 26 27  2  0
 27 28  1  0
 28 29  2  0
 21 30  1  0
 30 31  1  0
 30 32  2  0
 16 33  2  0
 33 34  1  0
  7 35  1  0
  2 36  1  0
 36 37  1  0
 37 38  1  0
 38 39  1  0
 39 40  1  0
 40 41  1  0
 35  4  1  0
 41 36  1  0
 34 10  1  0
 33 12  1  0
 32 18  1  0
 29 24  1  0
M  END
>  <Compound_ID>  (1013) 
CHEMBL504117

>  <Active>  (1013) 
1.0

>  <Smiles>  (1013) 
O=C(O[C@H]1CN[C@H](C#Cc2cc3ncnc(Nc4ccc(OCc5ccccn5)c(Cl)c4)c3s2)C1)N1CCOCC1

>  <canonical_smi>  (1013) 
O=C(O[C@H]1CN[C@H](C#Cc2cc3ncnc(Nc4ccc(OCc5ccccn5)c(Cl)c4)c3s2)C1)N1CCOCC1

>  <Set>  (1013) 
G2 active

>  <Set_type>  (1013) 
Test

>  <MW>  (1013) 
591.09

>  <HBD>  (1013) 
2

>  <HBA>  (1013) 
9

>  <NRB>  (1013) 
6

>  <NR>  (1013) 
6

>  <NAR>  (1013) 
4

>  <PSA>  (1013) 
110.73

>  <Standard Type>  (1013) 
nan

>  <Standard Relation>  (1013) 
nan

>  <Standard Units>  (1013) 
nan

>  <Standard Value>  (1013) 
nan

>  <Assay ChEMBL ID>  (1013) 
nan

>  <Assay Description>  (1013) 
nan

>  <BAO Label>  (1013) 
nan

$$$$

     RDKit          2D

 34 39  0  0  0  0  0  0  0  0999 V2000
   -5.2802   -7.7620    0.0000 N   0  0  0  0  0  0  0  0  0  0  0  0
   -4.1655   -6.7583    0.0000 C   0  0  0  0  0  0  0  0  0  0  0  0
   -2.6983   -7.0701    0.0000 C   0  0  0  0  0  0  0  0  0  0  0  0
   -1.9483   -5.7711    0.0000 C   0  0  0  0  0  0  0  0  0  0  0  0
   -2.9520   -4.6564    0.0000 N   0  0  0  0  0  0  0  0  0  0  0  0
   -2.6401   -3.1891    0.0000 C   0  0  0  0  0  0  0  0  0  0  0  0
   -1.2135   -2.7256    0.0000 C   0  0  0  0  0  0  0  0  0  0  0  0
   -0.0000   -3.6073    0.0000 C   0  0  0  0  0  0  0  0  0  0  0  0
    1.2135   -2.7256    0.0000 C   0  0  0  0  0  0  0  0  0  0  0  0
    0.7500   -1.2990    0.0000 N   0  0  0  0  0  0  0  0  0  0  0  0
    1.5000    0.0000    0.0000 N   0  0  0  0  0  0  0  0  0  0  0  0
    0.7500    1.2990    0.0000 C   0  0  0  0  0  0  0  0  0  0  0  0
   -0.7500    1.2990    0.0000 N   0  0  0  0  0  0  0  0  0  0  0  0
   -1.5000    0.0000    0.0000 C   0  0  0  0  0  0  0  0  0  0  0  0
   -3.0000    0.0000    0.0000 N   0  0  0  0  0  0  0  0  0  0  0  0
   -3.7500    1.2990    0.0000 C   0  0  0  0  0  0  0  0  0  0  0  0
   -3.0000    2.5981    0.0000 C   0  0  0  0  0  0  0  0  0  0  0  0
   -3.7500    3.8971    0.0000 C   0  0  0  0  0  0  0  0  0  0  0  0
   -5.2500    3.8971    0.0000 C   0  0  0  0  0  0  0  0  0  0  0  0
   -6.0000    2.5981    0.0000 C   0  0  0  0  0  0  0  0  0  0  0  0
   -7.4672    2.9099    0.0000 C   0  0  0  0  0  0  0  0  0  0  0  0
   -7.6240    4.4017    0.0000 N   0  0  0  0  0  0  0  0  0  0  0  0
   -6.2537    5.0118    0.0000 N   0  0  0  0  0  0  0  0  0  0  0  0
   -5.9418    6.4791    0.0000 C   0  0  0  0  0  0  0  0  0  0  0  0
   -7.0565    7.4827    0.0000 C   0  0  0  0  0  0  0  0  0  0  0  0
   -6.7447    8.9500    0.0000 C   0  0  0  0  0  0  0  0  0  0  0  0
   -7.8594    9.9537    0.0000 C   0  0  0  0  0  0  0  0  0  0  0  0
   -9.2860    9.4901    0.0000 C   0  0  0  0  0  0  0  0  0  0  0  0
   -9.5978    8.0229    0.0000 C   0  0  0  0  0  0  0  0  0  0  0  0
  -11.0244    7.5594    0.0000 F   0  0  0  0  0  0  0  0  0  0  0  0
   -8.4831    7.0192    0.0000 C   0  0  0  0  0  0  0  0  0  0  0  0
   -5.2500    1.2990    0.0000 C   0  0  0  0  0  0  0  0  0  0  0  0
   -0.7500   -1.2990    0.0000 C   0  0  0  0  0  0  0  0  0  0  0  0
   -4.3223   -5.2665    0.0000 C   0  0  0  0  0  0  0  0  0  0  0  0
  2  1  1  6
  2  3  1  0
  3  4  1  0
  4  5  1  0
  5  6  1  0
  6  7  1  0
  7  8  1  0
  8  9  2  0
  9 10  1  0
 10 11  1  0
 11 12  2  0
 12 13  1  0
 13 14  2  0
 14 15  1  0
 15 16  1  0
 16 17  2  0
 17 18  1  0
 18 19  2  0
 19 20  1  0
 20 21  1  0
 21 22  2  0
 22 23  1  0
 23 24  1  0
 24 25  1  0
 25 26  2  0
 26 27  1  0
 27 28  2  0
 28 29  1  0
 29 30  1  0
 29 31  2  0
 20 32  2  0
 14 33  1  0
  5 34  1  0
 34  2  1  0
 33  7  2  0
 33 10  1  0
 32 16  1  0
 23 19  1  0
 31 25  1  0
M  END
>  <Compound_ID>  (1014) 
CHEMBL246687

>  <Active>  (1014) 
1.0

>  <Smiles>  (1014) 
N[C@H]1CCN(Cc2ccn3ncnc(Nc4ccc5c(cnn5Cc5cccc(F)c5)c4)c23)C1

>  <canonical_smi>  (1014) 
N[C@H]1CCN(Cc2ccn3ncnc(Nc4ccc5c(cnn5Cc5cccc(F)c5)c4)c23)C1

>  <Set>  (1014) 
G2 active

>  <Set_type>  (1014) 
Test

>  <MW>  (1014) 
456.53

>  <HBD>  (1014) 
2

>  <HBA>  (1014) 
6

>  <NRB>  (1014) 
6

>  <NR>  (1014) 
6

>  <NAR>  (1014) 
5

>  <PSA>  (1014) 
89.3

>  <Standard Type>  (1014) 
nan

>  <Standard Relation>  (1014) 
nan

>  <Standard Units>  (1014) 
nan

>  <Standard Value>  (1014) 
nan

>  <Assay ChEMBL ID>  (1014) 
nan

>  <Assay Description>  (1014) 
nan

>  <BAO Label>  (1014) 
nan

$$$$

     RDKit          2D

 28 31  0  0  0  0  0  0  0  0999 V2000
    7.5000   -2.5981    0.0000 F   0  0  0  0  0  0  0  0  0  0  0  0
    6.0000   -2.5981    0.0000 C   0  0  0  0  0  0  0  0  0  0  0  0
    5.2500   -3.8971    0.0000 C   0  0  0  0  0  0  0  0  0  0  0  0
    3.7500   -3.8971    0.0000 C   0  0  0  0  0  0  0  0  0  0  0  0
    3.0000   -2.5981    0.0000 C   0  0  0  0  0  0  0  0  0  0  0  0
    1.5000   -2.5981    0.0000 N   0  0  0  0  0  0  0  0  0  0  0  0
    0.7500   -1.2990    0.0000 C   0  0  0  0  0  0  0  0  0  0  0  0
    1.5000    0.0000    0.0000 N   0  0  0  0  0  0  0  0  0  0  0  0
    0.7500    1.2990    0.0000 C   0  0  0  0  0  0  0  0  0  0  0  0
   -0.7500    1.2990    0.0000 N   0  0  0  0  0  0  0  0  0  0  0  0
   -1.5000    0.0000    0.0000 C   0  0  0  0  0  0  0  0  0  0  0  0
   -3.0000    0.0000    0.0000 C   0  0  0  0  0  0  0  0  0  0  0  0
   -3.7500   -1.2990    0.0000 C   0  0  0  0  0  0  0  0  0  0  0  0
   -3.0000   -2.5981    0.0000 C   0  0  0  0  0  0  0  0  0  0  0  0
   -3.7500   -3.8971    0.0000 C   0  0  0  0  0  0  0  0  0  0  0  0
   -4.5000   -5.1962    0.0000 C   0  0  0  0  0  0  0  0  0  0  0  0
   -5.2500   -6.4952    0.0000 C   0  0  0  0  0  0  0  0  0  0  0  0
   -6.7500   -6.4952    0.0000 N   0  0  0  0  0  0  0  0  0  0  0  0
   -7.5000   -5.1962    0.0000 C   0  0  0  0  0  0  0  0  0  0  0  0
   -9.0000   -5.1962    0.0000 C   0  0  0  0  0  0  0  0  0  0  0  0
   -9.7500   -6.4952    0.0000 O   0  0  0  0  0  0  0  0  0  0  0  0
   -9.0000   -7.7942    0.0000 C   0  0  0  0  0  0  0  0  0  0  0  0
   -7.5000   -7.7942    0.0000 C   0  0  0  0  0  0  0  0  0  0  0  0
   -1.5000   -2.5981    0.0000 C   0  0  0  0  0  0  0  0  0  0  0  0
   -0.7500   -1.2990    0.0000 C   0  0  0  0  0  0  0  0  0  0  0  0
    3.7500   -1.2990    0.0000 C   0  0  0  0  0  0  0  0  0  0  0  0
    5.2500   -1.2990    0.0000 C   0  0  0  0  0  0  0  0  0  0  0  0
    6.0000   -0.0000    0.0000 Cl  0  0  0  0  0  0  0  0  0  0  0  0
  1  2  1  0
  2  3  2  0
  3  4  1  0
  4  5  2  0
  5  6  1  0
  6  7  1  0
  7  8  2  0
  8  9  1  0
  9 10  2  0
 10 11  1  0
 11 12  2  0
 12 13  1  0
 13 14  2  0
 14 15  1  0
 15 16  3  0
 16 17  1  0
 17 18  1  0
 18 19  1  0
 19 20  1  0
 20 21  1  0
 21 22  1  0
 22 23  1  0
 14 24  1  0
 24 25  2  0
  5 26  1  0
 26 27  2  0
 27 28  1  0
 27  2  1  0
 25  7  1  0
 25 11  1  0
 23 18  1  0
M  END
>  <Compound_ID>  (1015) 
CHEMBL251498

>  <Active>  (1015) 
1.0

>  <Smiles>  (1015) 
Fc1ccc(Nc2ncnc3ccc(C#CCN4CCOCC4)cc23)cc1Cl

>  <canonical_smi>  (1015) 
Fc1ccc(Nc2ncnc3ccc(C#CCN4CCOCC4)cc23)cc1Cl

>  <Set>  (1015) 
G2 active

>  <Set_type>  (1015) 
Test

>  <MW>  (1015) 
396.85

>  <HBD>  (1015) 
1

>  <HBA>  (1015) 
5

>  <NRB>  (1015) 
3

>  <NR>  (1015) 
4

>  <NAR>  (1015) 
3

>  <PSA>  (1015) 
50.28

>  <Standard Type>  (1015) 
nan

>  <Standard Relation>  (1015) 
nan

>  <Standard Units>  (1015) 
nan

>  <Standard Value>  (1015) 
nan

>  <Assay ChEMBL ID>  (1015) 
nan

>  <Assay Description>  (1015) 
nan

>  <BAO Label>  (1015) 
nan

$$$$

     RDKit          2D

 30 33  0  0  0  0  0  0  0  0999 V2000
   -0.7500   -3.8971    0.0000 O   0  0  0  0  0  0  0  0  0  0  0  0
    0.7500   -3.8971    0.0000 C   0  0  0  0  0  0  0  0  0  0  0  0
    1.5000   -5.1962    0.0000 C   0  0  0  0  0  0  0  0  0  0  0  0
    2.2500   -6.4952    0.0000 C   0  0  0  0  0  0  0  0  0  0  0  0
    3.0000   -7.7942    0.0000 C   0  0  0  0  0  0  0  0  0  0  0  0
    2.2500   -9.0933    0.0000 N   0  0  0  0  0  0  0  0  0  0  0  0
    0.7500   -9.0933    0.0000 C   0  0  0  0  0  0  0  0  0  0  0  0
   -0.0000  -10.3923    0.0000 C   0  0  0  0  0  0  0  0  0  0  0  0
    0.7500  -11.6913    0.0000 C   0  0  0  0  0  0  0  0  0  0  0  0
    2.2500  -11.6913    0.0000 C   0  0  0  0  0  0  0  0  0  0  0  0
    3.0000  -10.3923    0.0000 C   0  0  0  0  0  0  0  0  0  0  0  0
    1.5000   -2.5981    0.0000 N   0  0  0  0  0  0  0  0  0  0  0  0
    0.7500   -1.2990    0.0000 C   0  0  0  0  0  0  0  0  0  0  0  0
    1.5000    0.0000    0.0000 C   0  0  0  0  0  0  0  0  0  0  0  0
    0.7500    1.2990    0.0000 C   0  0  0  0  0  0  0  0  0  0  0  0
   -0.7500    1.2990    0.0000 C   0  0  0  0  0  0  0  0  0  0  0  0
   -1.5000    2.5981    0.0000 N   0  0  0  0  0  0  0  0  0  0  0  0
   -3.0000    2.5981    0.0000 C   0  0  0  0  0  0  0  0  0  0  0  0
   -3.7500    1.2990    0.0000 N   0  0  0  0  0  0  0  0  0  0  0  0
   -3.0000    0.0000    0.0000 C   0  0  0  0  0  0  0  0  0  0  0  0
   -3.7500   -1.2990    0.0000 N   0  0  0  0  0  0  0  0  0  0  0  0
   -5.2500   -1.2990    0.0000 C   0  0  0  0  0  0  0  0  0  0  0  0
   -6.0000    0.0000    0.0000 C   0  0  0  0  0  0  0  0  0  0  0  0
   -7.5000    0.0000    0.0000 C   0  0  0  0  0  0  0  0  0  0  0  0
   -8.2500   -1.2990    0.0000 C   0  0  0  0  0  0  0  0  0  0  0  0
   -7.5000   -2.5981    0.0000 C   0  0  0  0  0  0  0  0  0  0  0  0
   -8.2500   -3.8971    0.0000 Br  0  0  0  0  0  0  0  0  0  0  0  0
   -6.0000   -2.5981    0.0000 C   0  0  0  0  0  0  0  0  0  0  0  0
   -1.5000    0.0000    0.0000 C   0  0  0  0  0  0  0  0  0  0  0  0
   -0.7500   -1.2990    0.0000 C   0  0  0  0  0  0  0  0  0  0  0  0
  1  2  2  0
  2  3  1  0
  3  4  3  0
  4  5  1  0
  5  6  1  0
  6  7  1  0
  7  8  1  0
  8  9  1  0
  9 10  1  0
 10 11  1  0
  2 12  1  0
 12 13  1  0
 13 14  2  0
 14 15  1  0
 15 16  2  0
 16 17  1  0
 17 18  2  0
 18 19  1  0
 19 20  2  0
 20 21  1  0
 21 22  1  0
 22 23  2  0
 23 24  1  0
 24 25  2  0
 25 26  1  0
 26 27  1  0
 26 28  2  0
 20 29  1  0
 29 30  2  0
 11  6  1  0
 30 13  1  0
 29 16  1  0
 28 22  1  0
M  END
>  <Compound_ID>  (1016) 
CHEMBL90595

>  <Active>  (1016) 
1.0

>  <Smiles>  (1016) 
O=C(C#CCN1CCCCC1)Nc1ccc2ncnc(Nc3cccc(Br)c3)c2c1

>  <canonical_smi>  (1016) 
O=C(C#CCN1CCCCC1)Nc1ccc2ncnc(Nc3cccc(Br)c3)c2c1

>  <Set>  (1016) 
G2 active

>  <Set_type>  (1016) 
Test

>  <MW>  (1016) 
464.37

>  <HBD>  (1016) 
2

>  <HBA>  (1016) 
5

>  <NRB>  (1016) 
4

>  <NR>  (1016) 
4

>  <NAR>  (1016) 
3

>  <PSA>  (1016) 
70.15

>  <Standard Type>  (1016) 
nan

>  <Standard Relation>  (1016) 
nan

>  <Standard Units>  (1016) 
nan

>  <Standard Value>  (1016) 
nan

>  <Assay ChEMBL ID>  (1016) 
nan

>  <Assay Description>  (1016) 
nan

>  <BAO Label>  (1016) 
nan

$$$$

     RDKit          2D

 33 37  0  0  0  0  0  0  0  0999 V2000
    3.7500   -1.2990    0.0000 C   0  0  0  0  0  0  0  0  0  0  0  0
    3.0000    0.0000    0.0000 O   0  0  0  0  0  0  0  0  0  0  0  0
    1.5000    0.0000    0.0000 C   0  0  0  0  0  0  0  0  0  0  0  0
    0.7500   -1.2990    0.0000 C   0  0  0  0  0  0  0  0  0  0  0  0
   -0.7500   -1.2990    0.0000 C   0  0  0  0  0  0  0  0  0  0  0  0
   -1.5000   -2.5981    0.0000 N   0  0  0  0  0  0  0  0  0  0  0  0
   -3.0000   -2.5981    0.0000 C   0  0  0  0  0  0  0  0  0  0  0  0
   -3.7500   -1.2990    0.0000 C   0  0  0  0  0  0  0  0  0  0  0  0
   -5.2500   -1.2990    0.0000 C   0  0  0  0  0  0  0  0  0  0  0  0
   -6.7500   -1.2990    0.0000 N   0  0  0  0  0  0  0  0  0  0  0  0
   -3.0000    0.0000    0.0000 C   0  0  0  0  0  0  0  0  0  0  0  0
   -3.7500    1.2990    0.0000 N   0  0  0  0  0  0  0  0  0  0  0  0
   -5.2500    1.2990    0.0000 C   0  0  0  0  0  0  0  0  0  0  0  0
   -6.5490    0.5490    0.0000 C   0  0  0  0  0  0  0  0  0  0  0  0
   -6.5490    2.0490    0.0000 C   0  0  0  0  0  0  0  0  0  0  0  0
   -7.2990    3.3481    0.0000 C   0  0  0  0  0  0  0  0  0  0  0  0
   -6.5490    4.6471    0.0000 C   0  0  0  0  0  0  0  0  0  0  0  0
   -7.2990    5.9462    0.0000 C   0  0  0  0  0  0  0  0  0  0  0  0
   -8.7990    5.9462    0.0000 C   0  0  0  0  0  0  0  0  0  0  0  0
   -9.5490    4.6471    0.0000 C   0  0  0  0  0  0  0  0  0  0  0  0
   -8.7990    3.3481    0.0000 C   0  0  0  0  0  0  0  0  0  0  0  0
   -1.5000    0.0000    0.0000 C   0  0  0  0  0  0  0  0  0  0  0  0
   -0.7500    1.2990    0.0000 C   0  0  0  0  0  0  0  0  0  0  0  0
    0.7500    1.2990    0.0000 C   0  0  0  0  0  0  0  0  0  0  0  0
    1.5000    2.5981    0.0000 O   0  0  0  0  0  0  0  0  0  0  0  0
    0.7500    3.8971    0.0000 C   0  0  0  0  0  0  0  0  0  0  0  0
    1.5000    5.1962    0.0000 C   0  0  0  0  0  0  0  0  0  0  0  0
    0.7500    6.4952    0.0000 N   0  0  0  0  0  0  0  0  0  0  0  0
    1.5000    7.7942    0.0000 C   0  0  0  0  0  0  0  0  0  0  0  0
    0.7500    9.0933    0.0000 C   0  0  0  0  0  0  0  0  0  0  0  0
   -0.7500    9.0933    0.0000 O   0  0  0  0  0  0  0  0  0  0  0  0
   -1.5000    7.7942    0.0000 C   0  0  0  0  0  0  0  0  0  0  0  0
   -0.7500    6.4952    0.0000 C   0  0  0  0  0  0  0  0  0  0  0  0
  1  2  1  0
  2  3  1  0
  3  4  2  0
  4  5  1  0
  5  6  2  0
  6  7  1  0
  7  8  2  0
  8  9  1  0
  9 10  3  0
  8 11  1  0
 11 12  1  0
 13 12  1  6
 13 14  1  0
 14 15  1  0
 15 16  1  1
 16 17  2  0
 17 18  1  0
 18 19  2  0
 19 20  1  0
 20 21  2  0
 11 22  2  0
 22 23  1  0
 23 24  2  0
 24 25  1  0
 25 26  1  0
 26 27  1  0
 27 28  1  0
 28 29  1  0
 29 30  1  0
 30 31  1  0
 31 32  1  0
 32 33  1  0
 24  3  1  0
 33 28  1  0
 22  5  1  0
 15 13  1  0
 21 16  1  0
M  END
>  <Compound_ID>  (1017) 
CHEMBL401054

>  <Active>  (1017) 
1.0

>  <Smiles>  (1017) 
COc1cc2ncc(C#N)c(N[C@@H]3C[C@H]3c3ccccc3)c2cc1OCCN1CCOCC1

>  <canonical_smi>  (1017) 
COc1cc2ncc(C#N)c(N[C@@H]3C[C@H]3c3ccccc3)c2cc1OCCN1CCOCC1

>  <Set>  (1017) 
G2 active

>  <Set_type>  (1017) 
Test

>  <MW>  (1017) 
444.54

>  <HBD>  (1017) 
1

>  <HBA>  (1017) 
7

>  <NRB>  (1017) 
8

>  <NR>  (1017) 
5

>  <NAR>  (1017) 
3

>  <PSA>  (1017) 
79.64

>  <Standard Type>  (1017) 
nan

>  <Standard Relation>  (1017) 
nan

>  <Standard Units>  (1017) 
nan

>  <Standard Value>  (1017) 
nan

>  <Assay ChEMBL ID>  (1017) 
nan

>  <Assay Description>  (1017) 
nan

>  <BAO Label>  (1017) 
nan

$$$$

     RDKit          2D

 32 35  0  0  0  0  0  0  0  0999 V2000
   -1.5000  -12.9904    0.0000 C   0  0  0  0  0  0  0  0  0  0  0  0
   -0.0000  -12.9904    0.0000 C   0  0  0  0  0  0  0  0  0  0  0  0
    0.7500  -11.6913    0.0000 N   0  0  0  0  0  0  0  0  0  0  0  0
   -0.0000  -10.3923    0.0000 C   0  0  0  0  0  0  0  0  0  0  0  0
    0.7500   -9.0933    0.0000 C   0  0  0  0  0  0  0  0  0  0  0  0
    2.2500   -9.0933    0.0000 N   0  0  0  0  0  0  0  0  0  0  0  0
    3.0000   -7.7942    0.0000 C   0  0  0  0  0  0  0  0  0  0  0  0
    2.2500   -6.4952    0.0000 C   0  0  0  0  0  0  0  0  0  0  0  0
    1.5000   -5.1962    0.0000 C   0  0  0  0  0  0  0  0  0  0  0  0
    0.7500   -3.8971    0.0000 C   0  0  0  0  0  0  0  0  0  0  0  0
   -0.7500   -3.8971    0.0000 O   0  0  0  0  0  0  0  0  0  0  0  0
    1.5000   -2.5981    0.0000 N   0  0  0  0  0  0  0  0  0  0  0  0
    0.7500   -1.2990    0.0000 C   0  0  0  0  0  0  0  0  0  0  0  0
    1.5000    0.0000    0.0000 C   0  0  0  0  0  0  0  0  0  0  0  0
    0.7500    1.2990    0.0000 C   0  0  0  0  0  0  0  0  0  0  0  0
   -0.7500    1.2990    0.0000 C   0  0  0  0  0  0  0  0  0  0  0  0
   -1.5000    2.5981    0.0000 N   0  0  0  0  0  0  0  0  0  0  0  0
   -3.0000    2.5981    0.0000 C   0  0  0  0  0  0  0  0  0  0  0  0
   -3.7500    1.2990    0.0000 N   0  0  0  0  0  0  0  0  0  0  0  0
   -3.0000    0.0000    0.0000 C   0  0  0  0  0  0  0  0  0  0  0  0
   -3.7500   -1.2990    0.0000 N   0  0  0  0  0  0  0  0  0  0  0  0
   -5.2500   -1.2990    0.0000 C   0  0  0  0  0  0  0  0  0  0  0  0
   -6.0000    0.0000    0.0000 C   0  0  0  0  0  0  0  0  0  0  0  0
   -7.5000    0.0000    0.0000 C   0  0  0  0  0  0  0  0  0  0  0  0
   -8.2500   -1.2990    0.0000 C   0  0  0  0  0  0  0  0  0  0  0  0
   -7.5000   -2.5981    0.0000 C   0  0  0  0  0  0  0  0  0  0  0  0
   -8.2500   -3.8971    0.0000 Br  0  0  0  0  0  0  0  0  0  0  0  0
   -6.0000   -2.5981    0.0000 C   0  0  0  0  0  0  0  0  0  0  0  0
   -1.5000    0.0000    0.0000 C   0  0  0  0  0  0  0  0  0  0  0  0
   -0.7500   -1.2990    0.0000 C   0  0  0  0  0  0  0  0  0  0  0  0
    3.0000  -10.3923    0.0000 C   0  0  0  0  0  0  0  0  0  0  0  0
    2.2500  -11.6913    0.0000 C   0  0  0  0  0  0  0  0  0  0  0  0
  1  2  1  0
  2  3  1  0
  3  4  1  0
  4  5  1  0
  5  6  1  0
  6  7  1  0
  7  8  1  0
  8  9  3  0
  9 10  1  0
 10 11  2  0
 10 12  1  0
 12 13  1  0
 13 14  2  0
 14 15  1  0
 15 16  2  0
 16 17  1  0
 17 18  2  0
 18 19  1  0
 19 20  2  0
 20 21  1  0
 21 22  1  0
 22 23  2  0
 23 24  1  0
 24 25  2  0
 25 26  1  0
 26 27  1  0
 26 28  2  0
 20 29  1  0
 29 30  2  0
  6 31  1  0
 31 32  1  0
 32  3  1  0
 30 13  1  0
 29 16  1  0
 28 22  1  0
M  END
>  <Compound_ID>  (1018) 
CHEMBL92356

>  <Active>  (1018) 
1.0

>  <Smiles>  (1018) 
CCN1CCN(CC#CC(=O)Nc2ccc3ncnc(Nc4cccc(Br)c4)c3c2)CC1

>  <canonical_smi>  (1018) 
CCN1CCN(CC#CC(=O)Nc2ccc3ncnc(Nc4cccc(Br)c4)c3c2)CC1

>  <Set>  (1018) 
G2 active

>  <Set_type>  (1018) 
Test

>  <MW>  (1018) 
493.41

>  <HBD>  (1018) 
2

>  <HBA>  (1018) 
6

>  <NRB>  (1018) 
5

>  <NR>  (1018) 
4

>  <NAR>  (1018) 
3

>  <PSA>  (1018) 
73.39

>  <Standard Type>  (1018) 
nan

>  <Standard Relation>  (1018) 
nan

>  <Standard Units>  (1018) 
nan

>  <Standard Value>  (1018) 
nan

>  <Assay ChEMBL ID>  (1018) 
nan

>  <Assay Description>  (1018) 
nan

>  <BAO Label>  (1018) 
nan

$$$$

     RDKit          2D

 36 40  0  0  0  0  0  0  0  0999 V2000
   -0.7500   -3.8971    0.0000 O   0  0  0  0  0  0  0  0  0  0  0  0
    0.7500   -3.8971    0.0000 C   0  0  0  0  0  0  0  0  0  0  0  0
    1.5000   -5.1962    0.0000 C   0  0  0  0  0  0  0  0  0  0  0  0
    0.7500   -6.4952    0.0000 C   0  0  0  0  0  0  0  0  0  0  0  0
    1.5000   -7.7942    0.0000 C   0  0  0  0  0  0  0  0  0  0  0  0
    0.7500   -9.0933    0.0000 N   0  0  0  0  0  0  0  0  0  0  0  0
   -0.7500   -9.0933    0.0000 C   0  0  0  0  0  0  0  0  0  0  0  0
   -1.5000  -10.3923    0.0000 C   0  0  0  0  0  0  0  0  0  0  0  0
   -0.7500  -11.6913    0.0000 C   0  0  0  0  0  0  0  0  0  0  0  0
   -1.5000  -12.9904    0.0000 N   0  0  0  0  0  0  0  0  0  0  0  0
   -3.0000  -12.9904    0.0000 C   0  0  0  0  0  0  0  0  0  0  0  0
   -3.7500  -14.2894    0.0000 C   0  0  0  0  0  0  0  0  0  0  0  0
   -3.0000  -15.5885    0.0000 C   0  0  0  0  0  0  0  0  0  0  0  0
   -1.5000  -15.5885    0.0000 C   0  0  0  0  0  0  0  0  0  0  0  0
   -0.7500  -14.2894    0.0000 C   0  0  0  0  0  0  0  0  0  0  0  0
    0.7500  -11.6913    0.0000 C   0  0  0  0  0  0  0  0  0  0  0  0
    1.5000  -10.3923    0.0000 C   0  0  0  0  0  0  0  0  0  0  0  0
    1.5000   -2.5981    0.0000 N   0  0  0  0  0  0  0  0  0  0  0  0
    0.7500   -1.2990    0.0000 C   0  0  0  0  0  0  0  0  0  0  0  0
    1.5000    0.0000    0.0000 C   0  0  0  0  0  0  0  0  0  0  0  0
    0.7500    1.2990    0.0000 C   0  0  0  0  0  0  0  0  0  0  0  0
   -0.7500    1.2990    0.0000 C   0  0  0  0  0  0  0  0  0  0  0  0
   -1.5000    2.5981    0.0000 N   0  0  0  0  0  0  0  0  0  0  0  0
   -3.0000    2.5981    0.0000 C   0  0  0  0  0  0  0  0  0  0  0  0
   -3.7500    1.2990    0.0000 N   0  0  0  0  0  0  0  0  0  0  0  0
   -3.0000    0.0000    0.0000 C   0  0  0  0  0  0  0  0  0  0  0  0
   -3.7500   -1.2990    0.0000 N   0  0  0  0  0  0  0  0  0  0  0  0
   -5.2500   -1.2990    0.0000 C   0  0  0  0  0  0  0  0  0  0  0  0
   -6.0000    0.0000    0.0000 C   0  0  0  0  0  0  0  0  0  0  0  0
   -7.5000    0.0000    0.0000 C   0  0  0  0  0  0  0  0  0  0  0  0
   -8.2500   -1.2990    0.0000 C   0  0  0  0  0  0  0  0  0  0  0  0
   -7.5000   -2.5981    0.0000 C   0  0  0  0  0  0  0  0  0  0  0  0
   -8.2500   -3.8971    0.0000 Br  0  0  0  0  0  0  0  0  0  0  0  0
   -6.0000   -2.5981    0.0000 C   0  0  0  0  0  0  0  0  0  0  0  0
   -1.5000    0.0000    0.0000 C   0  0  0  0  0  0  0  0  0  0  0  0
   -0.7500   -1.2990    0.0000 C   0  0  0  0  0  0  0  0  0  0  0  0
  1  2  2  0
  2  3  1  0
  3  4  2  0
  4  5  1  0
  5  6  1  0
  6  7  1  0
  7  8  1  0
  8  9  1  0
  9 10  1  0
 10 11  1  0
 11 12  1  0
 12 13  1  0
 13 14  1  0
 14 15  1  0
  9 16  1  0
 16 17  1  0
  2 18  1  0
 18 19  1  0
 19 20  2  0
 20 21  1  0
 21 22  2  0
 22 23  1  0
 23 24  2  0
 24 25  1  0
 25 26  2  0
 26 27  1  0
 27 28  1  0
 28 29  2  0
 29 30  1  0
 30 31  2  0
 31 32  1  0
 32 33  1  0
 32 34  2  0
 26 35  1  0
 35 36  2  0
 17  6  1  0
 36 19  1  0
 15 10  1  0
 35 22  1  0
 34 28  1  0
M  END
>  <Compound_ID>  (1019) 
CHEMBL94109

>  <Active>  (1019) 
1.0

>  <Smiles>  (1019) 
O=C(/C=C/CN1CCC(N2CCCCC2)CC1)Nc1ccc2ncnc(Nc3cccc(Br)c3)c2c1

>  <canonical_smi>  (1019) 
O=C(/C=C/CN1CCC(N2CCCCC2)CC1)Nc1ccc2ncnc(Nc3cccc(Br)c3)c2c1

>  <Set>  (1019) 
G2 active

>  <Set_type>  (1019) 
Test

>  <MW>  (1019) 
549.52

>  <HBD>  (1019) 
2

>  <HBA>  (1019) 
6

>  <NRB>  (1019) 
7

>  <NR>  (1019) 
5

>  <NAR>  (1019) 
3

>  <PSA>  (1019) 
73.39

>  <Standard Type>  (1019) 
nan

>  <Standard Relation>  (1019) 
nan

>  <Standard Units>  (1019) 
nan

>  <Standard Value>  (1019) 
nan

>  <Assay ChEMBL ID>  (1019) 
nan

>  <Assay Description>  (1019) 
nan

>  <BAO Label>  (1019) 
nan

$$$$

     RDKit          2D

 34 38  0  0  0  0  0  0  0  0999 V2000
    3.7500   -1.2990    0.0000 C   0  0  0  0  0  0  0  0  0  0  0  0
    3.0000    0.0000    0.0000 O   0  0  0  0  0  0  0  0  0  0  0  0
    1.5000    0.0000    0.0000 C   0  0  0  0  0  0  0  0  0  0  0  0
    0.7500   -1.2990    0.0000 C   0  0  0  0  0  0  0  0  0  0  0  0
   -0.7500   -1.2990    0.0000 C   0  0  0  0  0  0  0  0  0  0  0  0
   -1.5000   -2.5981    0.0000 N   0  0  0  0  0  0  0  0  0  0  0  0
   -3.0000   -2.5981    0.0000 C   0  0  0  0  0  0  0  0  0  0  0  0
   -3.7500   -1.2990    0.0000 C   0  0  0  0  0  0  0  0  0  0  0  0
   -5.2500   -1.2990    0.0000 C   0  0  0  0  0  0  0  0  0  0  0  0
   -6.7500   -1.2990    0.0000 N   0  0  0  0  0  0  0  0  0  0  0  0
   -3.0000    0.0000    0.0000 C   0  0  0  0  0  0  0  0  0  0  0  0
   -3.7500    1.2990    0.0000 N   0  0  0  0  0  0  0  0  0  0  0  0
   -5.2500    1.2990    0.0000 C   0  0  0  0  0  0  0  0  0  0  0  0
   -6.5490    0.5490    0.0000 C   0  0  0  0  0  0  0  0  0  0  0  0
   -6.5490    2.0490    0.0000 C   0  0  0  0  0  0  0  0  0  0  0  0
   -7.2990    3.3481    0.0000 C   0  0  0  0  0  0  0  0  0  0  0  0
   -6.5490    4.6471    0.0000 C   0  0  0  0  0  0  0  0  0  0  0  0
   -7.2990    5.9462    0.0000 C   0  0  0  0  0  0  0  0  0  0  0  0
   -8.7990    5.9462    0.0000 C   0  0  0  0  0  0  0  0  0  0  0  0
   -9.5490    4.6471    0.0000 C   0  0  0  0  0  0  0  0  0  0  0  0
   -8.7990    3.3481    0.0000 C   0  0  0  0  0  0  0  0  0  0  0  0
   -1.5000    0.0000    0.0000 C   0  0  0  0  0  0  0  0  0  0  0  0
   -0.7500    1.2990    0.0000 C   0  0  0  0  0  0  0  0  0  0  0  0
    0.7500    1.2990    0.0000 C   0  0  0  0  0  0  0  0  0  0  0  0
    1.5000    2.5981    0.0000 O   0  0  0  0  0  0  0  0  0  0  0  0
    0.7500    3.8971    0.0000 C   0  0  0  0  0  0  0  0  0  0  0  0
    1.5000    5.1962    0.0000 C   0  0  0  0  0  0  0  0  0  0  0  0
    0.7500    6.4952    0.0000 C   0  0  0  0  0  0  0  0  0  0  0  0
    1.5000    7.7942    0.0000 C   0  0  0  0  0  0  0  0  0  0  0  0
    3.0000    7.7942    0.0000 C   0  0  0  0  0  0  0  0  0  0  0  0
    3.7500    9.0933    0.0000 C   0  0  0  0  0  0  0  0  0  0  0  0
    3.0000   10.3923    0.0000 C   0  0  0  0  0  0  0  0  0  0  0  0
    1.5000   10.3923    0.0000 N   0  0  0  0  0  0  0  0  0  0  0  0
    0.7500    9.0933    0.0000 C   0  0  0  0  0  0  0  0  0  0  0  0
  1  2  1  0
  2  3  1  0
  3  4  2  0
  4  5  1  0
  5  6  2  0
  6  7  1  0
  7  8  2  0
  8  9  1  0
  9 10  3  0
  8 11  1  0
 11 12  1  0
 13 12  1  6
 13 14  1  0
 14 15  1  0
 15 16  1  1
 16 17  2  0
 17 18  1  0
 18 19  2  0
 19 20  1  0
 20 21  2  0
 11 22  2  0
 22 23  1  0
 23 24  2  0
 24 25  1  0
 25 26  1  0
 26 27  1  0
 27 28  1  0
 28 29  1  0
 29 30  2  0
 30 31  1  0
 31 32  2  0
 32 33  1  0
 33 34  2  0
 24  3  1  0
 34 29  1  0
 22  5  1  0
 15 13  1  0
 21 16  1  0
M  END
>  <Compound_ID>  (1020) 
CHEMBL248222

>  <Active>  (1020) 
1.0

>  <Smiles>  (1020) 
COc1cc2ncc(C#N)c(N[C@@H]3C[C@H]3c3ccccc3)c2cc1OCCCc1cccnc1

>  <canonical_smi>  (1020) 
COc1cc2ncc(C#N)c(N[C@@H]3C[C@H]3c3ccccc3)c2cc1OCCCc1cccnc1

>  <Set>  (1020) 
G2 active

>  <Set_type>  (1020) 
Test

>  <MW>  (1020) 
450.54

>  <HBD>  (1020) 
1

>  <HBA>  (1020) 
6

>  <NRB>  (1020) 
9

>  <NR>  (1020) 
5

>  <NAR>  (1020) 
4

>  <PSA>  (1020) 
80.06

>  <Standard Type>  (1020) 
nan

>  <Standard Relation>  (1020) 
nan

>  <Standard Units>  (1020) 
nan

>  <Standard Value>  (1020) 
nan

>  <Assay ChEMBL ID>  (1020) 
nan

>  <Assay Description>  (1020) 
nan

>  <BAO Label>  (1020) 
nan

$$$$

     RDKit          2D

 30 33  0  0  0  0  0  0  0  0999 V2000
    0.7500   -6.4952    0.0000 C   0  0  0  0  0  0  0  0  0  0  0  0
    1.5000   -5.1962    0.0000 O   0  0  0  0  0  0  0  0  0  0  0  0
    0.7500   -3.8971    0.0000 C   0  0  0  0  0  0  0  0  0  0  0  0
    1.5000   -2.5981    0.0000 C   0  0  0  0  0  0  0  0  0  0  0  0
    0.7500   -1.2990    0.0000 C   0  0  0  0  0  0  0  0  0  0  0  0
    1.5000    0.0000    0.0000 N   0  0  0  0  0  0  0  0  0  0  0  0
    0.7500    1.2990    0.0000 C   0  0  0  0  0  0  0  0  0  0  0  0
   -0.7500    1.2990    0.0000 N   0  0  0  0  0  0  0  0  0  0  0  0
   -1.5000    0.0000    0.0000 C   0  0  0  0  0  0  0  0  0  0  0  0
   -3.0000    0.0000    0.0000 N   0  0  0  0  0  0  0  0  0  0  0  0
   -3.7500    1.2990    0.0000 C   0  0  0  0  0  0  0  0  0  0  0  0
   -3.0000    2.5981    0.0000 C   0  0  0  0  0  0  0  0  0  0  0  0
   -3.7500    3.8971    0.0000 C   0  0  0  0  0  0  0  0  0  0  0  0
   -5.2500    3.8971    0.0000 C   0  0  0  0  0  0  0  0  0  0  0  0
   -6.0000    5.1962    0.0000 F   0  0  0  0  0  0  0  0  0  0  0  0
   -6.0000    2.5981    0.0000 C   0  0  0  0  0  0  0  0  0  0  0  0
   -7.5000    2.5981    0.0000 Cl  0  0  0  0  0  0  0  0  0  0  0  0
   -5.2500    1.2990    0.0000 C   0  0  0  0  0  0  0  0  0  0  0  0
   -0.7500   -1.2990    0.0000 C   0  0  0  0  0  0  0  0  0  0  0  0
   -1.5000   -2.5981    0.0000 C   0  0  0  0  0  0  0  0  0  0  0  0
   -0.7500   -3.8971    0.0000 C   0  0  0  0  0  0  0  0  0  0  0  0
   -1.5000   -5.1962    0.0000 O   0  0  0  0  0  0  0  0  0  0  0  0
   -3.0000   -5.1962    0.0000 C   0  0  0  0  0  0  0  0  0  0  0  0
   -3.7500   -6.4952    0.0000 C   0  0  0  0  0  0  0  0  0  0  0  0
   -5.2500   -6.4952    0.0000 C   0  0  0  0  0  0  0  0  0  0  0  0
   -6.0000   -7.7942    0.0000 N   0  0  0  0  0  0  0  0  0  0  0  0
   -5.3899   -9.1645    0.0000 C   0  0  0  0  0  0  0  0  0  0  0  0
   -6.5046  -10.1682    0.0000 C   0  0  0  0  0  0  0  0  0  0  0  0
   -7.8037   -9.4182    0.0000 C   0  0  0  0  0  0  0  0  0  0  0  0
   -7.4918   -7.9510    0.0000 C   0  0  0  0  0  0  0  0  0  0  0  0
  1  2  1  0
  2  3  1  0
  3  4  2  0
  4  5  1  0
  5  6  2  0
  6  7  1  0
  7  8  2  0
  8  9  1  0
  9 10  1  0
 10 11  1  0
 11 12  2  0
 12 13  1  0
 13 14  2  0
 14 15  1  0
 14 16  1  0
 16 17  1  0
 16 18  2  0
  9 19  2  0
 19 20  1  0
 20 21  2  0
 21 22  1  0
 22 23  1  0
 23 24  1  0
 24 25  1  0
 25 26  1  0
 26 27  1  0
 27 28  1  0
 28 29  1  0
 29 30  1  0
 21  3  1  0
 30 26  1  0
 19  5  1  0
 18 11  1  0
M  END
>  <Compound_ID>  (1021) 
CHEMBL299672

>  <Active>  (1021) 
1.0

>  <Smiles>  (1021) 
COc1cc2ncnc(Nc3ccc(F)c(Cl)c3)c2cc1OCCCN1CCCC1

>  <canonical_smi>  (1021) 
COc1cc2ncnc(Nc3ccc(F)c(Cl)c3)c2cc1OCCCN1CCCC1

>  <Set>  (1021) 
G2 active

>  <Set_type>  (1021) 
Test

>  <MW>  (1021) 
430.91

>  <HBD>  (1021) 
1

>  <HBA>  (1021) 
6

>  <NRB>  (1021) 
8

>  <NR>  (1021) 
4

>  <NAR>  (1021) 
3

>  <PSA>  (1021) 
59.51

>  <Standard Type>  (1021) 
nan

>  <Standard Relation>  (1021) 
nan

>  <Standard Units>  (1021) 
nan

>  <Standard Value>  (1021) 
nan

>  <Assay ChEMBL ID>  (1021) 
nan

>  <Assay Description>  (1021) 
nan

>  <BAO Label>  (1021) 
nan

$$$$

     RDKit          2D

 30 33  0  0  0  0  0  0  0  0999 V2000
   -0.7500   -3.8971    0.0000 O   0  0  0  0  0  0  0  0  0  0  0  0
    0.7500   -3.8971    0.0000 C   0  0  0  0  0  0  0  0  0  0  0  0
    1.5000   -5.1962    0.0000 C   0  0  0  0  0  0  0  0  0  0  0  0
    0.7500   -6.4952    0.0000 C   0  0  0  0  0  0  0  0  0  0  0  0
    1.5000   -7.7942    0.0000 C   0  0  0  0  0  0  0  0  0  0  0  0
    0.7500   -9.0933    0.0000 N   0  0  0  0  0  0  0  0  0  0  0  0
   -0.7500   -9.0933    0.0000 C   0  0  0  0  0  0  0  0  0  0  0  0
   -1.5000  -10.3923    0.0000 C   0  0  0  0  0  0  0  0  0  0  0  0
   -0.7500  -11.6913    0.0000 O   0  0  0  0  0  0  0  0  0  0  0  0
    0.7500  -11.6913    0.0000 C   0  0  0  0  0  0  0  0  0  0  0  0
    1.5000  -10.3923    0.0000 C   0  0  0  0  0  0  0  0  0  0  0  0
    1.5000   -2.5981    0.0000 N   0  0  0  0  0  0  0  0  0  0  0  0
    0.7500   -1.2990    0.0000 C   0  0  0  0  0  0  0  0  0  0  0  0
    1.5000    0.0000    0.0000 C   0  0  0  0  0  0  0  0  0  0  0  0
    0.7500    1.2990    0.0000 C   0  0  0  0  0  0  0  0  0  0  0  0
   -0.7500    1.2990    0.0000 C   0  0  0  0  0  0  0  0  0  0  0  0
   -1.5000    2.5981    0.0000 N   0  0  0  0  0  0  0  0  0  0  0  0
   -3.0000    2.5981    0.0000 C   0  0  0  0  0  0  0  0  0  0  0  0
   -3.7500    1.2990    0.0000 N   0  0  0  0  0  0  0  0  0  0  0  0
   -3.0000    0.0000    0.0000 C   0  0  0  0  0  0  0  0  0  0  0  0
   -3.7500   -1.2990    0.0000 N   0  0  0  0  0  0  0  0  0  0  0  0
   -5.2500   -1.2990    0.0000 C   0  0  0  0  0  0  0  0  0  0  0  0
   -6.0000    0.0000    0.0000 C   0  0  0  0  0  0  0  0  0  0  0  0
   -7.5000    0.0000    0.0000 C   0  0  0  0  0  0  0  0  0  0  0  0
   -8.2500   -1.2990    0.0000 C   0  0  0  0  0  0  0  0  0  0  0  0
   -7.5000   -2.5981    0.0000 C   0  0  0  0  0  0  0  0  0  0  0  0
   -8.2500   -3.8971    0.0000 Br  0  0  0  0  0  0  0  0  0  0  0  0
   -6.0000   -2.5981    0.0000 C   0  0  0  0  0  0  0  0  0  0  0  0
   -1.5000    0.0000    0.0000 C   0  0  0  0  0  0  0  0  0  0  0  0
   -0.7500   -1.2990    0.0000 C   0  0  0  0  0  0  0  0  0  0  0  0
  1  2  2  0
  2  3  1  0
  3  4  2  0
  4  5  1  0
  5  6  1  0
  6  7  1  0
  7  8  1  0
  8  9  1  0
  9 10  1  0
 10 11  1  0
  2 12  1  0
 12 13  1  0
 13 14  2  0
 14 15  1  0
 15 16  2  0
 16 17  1  0
 17 18  2  0
 18 19  1  0
 19 20  2  0
 20 21  1  0
 21 22  1  0
 22 23  2  0
 23 24  1  0
 24 25  2  0
 25 26  1  0
 26 27  1  0
 26 28  2  0
 20 29  1  0
 29 30  2  0
 11  6  1  0
 30 13  1  0
 29 16  1  0
 28 22  1  0
M  END
>  <Compound_ID>  (1022) 
CHEMBL316127

>  <Active>  (1022) 
1.0

>  <Smiles>  (1022) 
O=C(/C=C/CN1CCOCC1)Nc1ccc2ncnc(Nc3cccc(Br)c3)c2c1

>  <canonical_smi>  (1022) 
O=C(/C=C/CN1CCOCC1)Nc1ccc2ncnc(Nc3cccc(Br)c3)c2c1

>  <Set>  (1022) 
G2 active

>  <Set_type>  (1022) 
Test

>  <MW>  (1022) 
468.36

>  <HBD>  (1022) 
2

>  <HBA>  (1022) 
6

>  <NRB>  (1022) 
6

>  <NR>  (1022) 
4

>  <NAR>  (1022) 
3

>  <PSA>  (1022) 
79.38

>  <Standard Type>  (1022) 
nan

>  <Standard Relation>  (1022) 
nan

>  <Standard Units>  (1022) 
nan

>  <Standard Value>  (1022) 
nan

>  <Assay ChEMBL ID>  (1022) 
nan

>  <Assay Description>  (1022) 
nan

>  <BAO Label>  (1022) 
nan

$$$$

     RDKit          2D

 31 34  0  0  0  0  0  0  0  0999 V2000
    3.0000    0.0000    0.0000 F   0  0  0  0  0  0  0  0  0  0  0  0
    1.5000    0.0000    0.0000 C   0  0  0  0  0  0  0  0  0  0  0  0
    0.7500   -1.2990    0.0000 C   0  0  0  0  0  0  0  0  0  0  0  0
   -0.7500   -1.2990    0.0000 C   0  0  0  0  0  0  0  0  0  0  0  0
   -1.5000    0.0000    0.0000 C   0  0  0  0  0  0  0  0  0  0  0  0
   -0.7500    1.2990    0.0000 C   0  0  0  0  0  0  0  0  0  0  0  0
   -1.5000    2.5981    0.0000 C   0  0  0  0  0  0  0  0  0  0  0  0
   -0.7500    3.8971    0.0000 O   0  0  0  0  0  0  0  0  0  0  0  0
   -1.5000    5.1962    0.0000 C   0  0  0  0  0  0  0  0  0  0  0  0
   -0.7500    6.4952    0.0000 C   0  0  0  0  0  0  0  0  0  0  0  0
   -1.5000    7.7942    0.0000 C   0  0  0  0  0  0  0  0  0  0  0  0
   -3.0000    7.7942    0.0000 C   0  0  0  0  0  0  0  0  0  0  0  0
   -3.7500    9.0933    0.0000 N   0  0  0  0  0  0  0  0  0  0  0  0
   -3.0000   10.3923    0.0000 C   0  0  0  0  0  0  0  0  0  0  0  0
   -1.5000   10.3923    0.0000 N   0  0  0  0  0  0  0  0  0  0  0  0
   -0.7500   11.6913    0.0000 C   0  0  0  0  0  0  0  0  0  0  0  0
   -1.5000   12.9904    0.0000 N   0  0  0  0  0  0  0  0  0  0  0  0
   -3.0000   12.9904    0.0000 C   0  0  0  0  0  0  0  0  0  0  0  0
   -3.7500   11.6913    0.0000 C   0  0  0  0  0  0  0  0  0  0  0  0
   -5.2500   11.6913    0.0000 C   0  0  0  0  0  0  0  0  0  0  0  0
   -6.7500   11.6913    0.0000 C   0  0  0  0  0  0  0  0  0  0  0  0
   -8.2500   11.6913    0.0000 C   0  0  0  0  0  0  0  0  0  0  0  0
   -9.0000   12.9904    0.0000 N   0  0  0  0  0  0  0  0  0  0  0  0
  -10.5000   12.9904    0.0000 C   0  0  0  0  0  0  0  0  0  0  0  0
  -11.2500   11.6913    0.0000 C   0  0  0  0  0  0  0  0  0  0  0  0
  -10.5000   10.3923    0.0000 C   0  0  0  0  0  0  0  0  0  0  0  0
   -9.0000   10.3923    0.0000 N   0  0  0  0  0  0  0  0  0  0  0  0
   -3.7500    6.4952    0.0000 C   0  0  0  0  0  0  0  0  0  0  0  0
   -3.0000    5.1962    0.0000 C   0  0  0  0  0  0  0  0  0  0  0  0
   -3.7500    3.8971    0.0000 Cl  0  0  0  0  0  0  0  0  0  0  0  0
    0.7500    1.2990    0.0000 C   0  0  0  0  0  0  0  0  0  0  0  0
  1  2  1  0
  2  3  2  0
  3  4  1  0
  4  5  2  0
  5  6  1  0
  6  7  1  0
  7  8  1  0
  8  9  1  0
  9 10  2  0
 10 11  1  0
 11 12  2  0
 12 13  1  0
 13 14  1  0
 14 15  2  0
 15 16  1  0
 16 17  2  0
 17 18  1  0
 18 19  2  0
 19 20  1  0
 20 21  3  0
 21 22  1  0
 22 23  2  0
 23 24  1  0
 24 25  2  0
 25 26  1  0
 26 27  2  0
 12 28  1  0
 28 29  2  0
 29 30  1  0
  6 31  2  0
 31  2  1  0
 29  9  1  0
 19 14  1  0
 27 22  1  0
M  END
>  <Compound_ID>  (1023) 
CHEMBL207869

>  <Active>  (1023) 
1.0

>  <Smiles>  (1023) 
Fc1cccc(COc2ccc(Nc3ncncc3C#Cc3ncccn3)cc2Cl)c1

>  <canonical_smi>  (1023) 
Fc1cccc(COc2ccc(Nc3ncncc3C#Cc3ncccn3)cc2Cl)c1

>  <Set>  (1023) 
G2 active

>  <Set_type>  (1023) 
Test

>  <MW>  (1023) 
431.86

>  <HBD>  (1023) 
1

>  <HBA>  (1023) 
6

>  <NRB>  (1023) 
5

>  <NR>  (1023) 
4

>  <NAR>  (1023) 
4

>  <PSA>  (1023) 
72.82

>  <Standard Type>  (1023) 
nan

>  <Standard Relation>  (1023) 
nan

>  <Standard Units>  (1023) 
nan

>  <Standard Value>  (1023) 
nan

>  <Assay ChEMBL ID>  (1023) 
nan

>  <Assay Description>  (1023) 
nan

>  <BAO Label>  (1023) 
nan

$$$$

     RDKit          2D

 31 34  0  0  0  0  0  0  0  0999 V2000
    0.7500   -6.4952    0.0000 C   0  0  0  0  0  0  0  0  0  0  0  0
    1.5000   -5.1962    0.0000 O   0  0  0  0  0  0  0  0  0  0  0  0
    0.7500   -3.8971    0.0000 C   0  0  0  0  0  0  0  0  0  0  0  0
    1.5000   -2.5981    0.0000 C   0  0  0  0  0  0  0  0  0  0  0  0
    0.7500   -1.2990    0.0000 C   0  0  0  0  0  0  0  0  0  0  0  0
    1.5000    0.0000    0.0000 N   0  0  0  0  0  0  0  0  0  0  0  0
    0.7500    1.2990    0.0000 C   0  0  0  0  0  0  0  0  0  0  0  0
   -0.7500    1.2990    0.0000 N   0  0  0  0  0  0  0  0  0  0  0  0
   -1.5000    0.0000    0.0000 C   0  0  0  0  0  0  0  0  0  0  0  0
   -3.0000    0.0000    0.0000 N   0  0  0  0  0  0  0  0  0  0  0  0
   -3.7500    1.2990    0.0000 C   0  0  0  0  0  0  0  0  0  0  0  0
   -3.0000    2.5981    0.0000 C   0  0  0  0  0  0  0  0  0  0  0  0
   -3.7500    3.8971    0.0000 C   0  0  0  0  0  0  0  0  0  0  0  0
   -5.2500    3.8971    0.0000 C   0  0  0  0  0  0  0  0  0  0  0  0
   -6.0000    5.1962    0.0000 F   0  0  0  0  0  0  0  0  0  0  0  0
   -6.0000    2.5981    0.0000 C   0  0  0  0  0  0  0  0  0  0  0  0
   -7.5000    2.5981    0.0000 Cl  0  0  0  0  0  0  0  0  0  0  0  0
   -5.2500    1.2990    0.0000 C   0  0  0  0  0  0  0  0  0  0  0  0
   -0.7500   -1.2990    0.0000 C   0  0  0  0  0  0  0  0  0  0  0  0
   -1.5000   -2.5981    0.0000 C   0  0  0  0  0  0  0  0  0  0  0  0
   -0.7500   -3.8971    0.0000 C   0  0  0  0  0  0  0  0  0  0  0  0
   -1.5000   -5.1962    0.0000 O   0  0  0  0  0  0  0  0  0  0  0  0
   -3.0000   -5.1962    0.0000 C   0  0  0  0  0  0  0  0  0  0  0  0
   -3.7500   -6.4952    0.0000 C   0  0  0  0  0  0  0  0  0  0  0  0
   -5.2500   -6.4952    0.0000 C   0  0  0  0  0  0  0  0  0  0  0  0
   -6.0000   -7.7942    0.0000 N   0  0  0  0  0  0  0  0  0  0  0  0
   -7.5000   -7.7942    0.0000 C   0  0  0  0  0  0  0  0  0  0  0  0
   -8.2500   -9.0933    0.0000 C   0  0  0  0  0  0  0  0  0  0  0  0
   -7.5000  -10.3923    0.0000 C   0  0  0  0  0  0  0  0  0  0  0  0
   -6.0000  -10.3923    0.0000 C   0  0  0  0  0  0  0  0  0  0  0  0
   -5.2500   -9.0933    0.0000 C   0  0  0  0  0  0  0  0  0  0  0  0
  1  2  1  0
  2  3  1  0
  3  4  2  0
  4  5  1  0
  5  6  2  0
  6  7  1  0
  7  8  2  0
  8  9  1  0
  9 10  1  0
 10 11  1  0
 11 12  2  0
 12 13  1  0
 13 14  2  0
 14 15  1  0
 14 16  1  0
 16 17  1  0
 16 18  2  0
  9 19  2  0
 19 20  1  0
 20 21  2  0
 21 22  1  0
 22 23  1  0
 23 24  1  0
 24 25  1  0
 25 26  1  0
 26 27  1  0
 27 28  1  0
 28 29  1  0
 29 30  1  0
 30 31  1  0
 21  3  1  0
 31 26  1  0
 19  5  1  0
 18 11  1  0
M  END
>  <Compound_ID>  (1024) 
CHEMBL291514

>  <Active>  (1024) 
1.0

>  <Smiles>  (1024) 
COc1cc2ncnc(Nc3ccc(F)c(Cl)c3)c2cc1OCCCN1CCCCC1

>  <canonical_smi>  (1024) 
COc1cc2ncnc(Nc3ccc(F)c(Cl)c3)c2cc1OCCCN1CCCCC1

>  <Set>  (1024) 
G2 active

>  <Set_type>  (1024) 
Test

>  <MW>  (1024) 
444.94

>  <HBD>  (1024) 
1

>  <HBA>  (1024) 
6

>  <NRB>  (1024) 
8

>  <NR>  (1024) 
4

>  <NAR>  (1024) 
3

>  <PSA>  (1024) 
59.51

>  <Standard Type>  (1024) 
nan

>  <Standard Relation>  (1024) 
nan

>  <Standard Units>  (1024) 
nan

>  <Standard Value>  (1024) 
nan

>  <Assay ChEMBL ID>  (1024) 
nan

>  <Assay Description>  (1024) 
nan

>  <BAO Label>  (1024) 
nan

$$$$

     RDKit          2D

 22 25  0  0  0  0  0  0  0  0999 V2000
    3.0000    0.0000    0.0000 N   0  0  0  0  0  0  0  0  0  0  0  0
    1.5000    0.0000    0.0000 C   0  0  0  0  0  0  0  0  0  0  0  0
    0.7500   -1.2990    0.0000 N   0  0  0  0  0  0  0  0  0  0  0  0
   -0.7500   -1.2990    0.0000 C   0  0  0  0  0  0  0  0  0  0  0  0
   -1.5000    0.0000    0.0000 N   0  0  0  0  0  0  0  0  0  0  0  0
   -0.7500    1.2990    0.0000 C   0  0  0  0  0  0  0  0  0  0  0  0
    0.7500    1.2990    0.0000 C   0  0  0  0  0  0  0  0  0  0  0  0
    1.2135    2.7256    0.0000 C   0  0  0  0  0  0  0  0  0  0  0  0
    2.6401    3.1891    0.0000 C   0  0  0  0  0  0  0  0  0  0  0  0
    3.7548    2.1855    0.0000 C   0  0  0  0  0  0  0  0  0  0  0  0
    5.1814    2.6490    0.0000 C   0  0  0  0  0  0  0  0  0  0  0  0
    5.4933    4.1162    0.0000 C   0  0  0  0  0  0  0  0  0  0  0  0
    4.3786    5.1199    0.0000 C   0  0  0  0  0  0  0  0  0  0  0  0
    4.6904    6.5871    0.0000 O   0  0  0  0  0  0  0  0  0  0  0  0
    2.9520    4.6564    0.0000 C   0  0  0  0  0  0  0  0  0  0  0  0
   -0.0000    3.6073    0.0000 C   0  0  0  0  0  0  0  0  0  0  0  0
   -1.2135    2.7256    0.0000 N   0  0  0  0  0  0  0  0  0  0  0  0
   -2.6401    3.1891    0.0000 C   0  0  0  0  0  0  0  0  0  0  0  0
   -3.8536    2.3075    0.0000 C   0  0  0  0  0  0  0  0  0  0  0  0
   -5.0672    3.1891    0.0000 C   0  0  0  0  0  0  0  0  0  0  0  0
   -4.6036    4.6157    0.0000 C   0  0  0  0  0  0  0  0  0  0  0  0
   -3.1036    4.6157    0.0000 C   0  0  0  0  0  0  0  0  0  0  0  0
  1  2  1  0
  2  3  2  0
  3  4  1  0
  4  5  2  0
  5  6  1  0
  6  7  2  0
  7  8  1  0
  8  9  1  0
  9 10  2  0
 10 11  1  0
 11 12  2  0
 12 13  1  0
 13 14  1  0
 13 15  2  0
  8 16  2  0
 16 17  1  0
 17 18  1  0
 18 19  1  0
 19 20  1  0
 20 21  1  0
 21 22  1  0
  7  2  1  0
 15  9  1  0
 22 18  1  0
 17  6  1  0
M  END
>  <Compound_ID>  (1025) 
CHEMBL169390

>  <Active>  (1025) 
1.0

>  <Smiles>  (1025) 
Nc1ncnc2c1c(-c1cccc(O)c1)cn2C1CCCC1

>  <canonical_smi>  (1025) 
Nc1ncnc2c1c(-c1cccc(O)c1)cn2C1CCCC1

>  <Set>  (1025) 
G2 active

>  <Set_type>  (1025) 
Test

>  <MW>  (1025) 
294.36

>  <HBD>  (1025) 
2

>  <HBA>  (1025) 
4

>  <NRB>  (1025) 
2

>  <NR>  (1025) 
4

>  <NAR>  (1025) 
3

>  <PSA>  (1025) 
76.96

>  <Standard Type>  (1025) 
nan

>  <Standard Relation>  (1025) 
nan

>  <Standard Units>  (1025) 
nan

>  <Standard Value>  (1025) 
nan

>  <Assay ChEMBL ID>  (1025) 
nan

>  <Assay Description>  (1025) 
nan

>  <BAO Label>  (1025) 
nan

$$$$

     RDKit          2D

 33 37  0  0  0  0  0  0  0  0999 V2000
   -5.2500   -6.4952    0.0000 C   0  0  0  0  0  0  0  0  0  0  0  0
   -6.0000   -5.1962    0.0000 O   0  0  0  0  0  0  0  0  0  0  0  0
   -5.2500   -3.8971    0.0000 C   0  0  0  0  0  0  0  0  0  0  0  0
   -3.7500   -3.8971    0.0000 C   0  0  0  0  0  0  0  0  0  0  0  0
   -3.0000   -2.5981    0.0000 C   0  0  0  0  0  0  0  0  0  0  0  0
   -1.5000   -2.5981    0.0000 N   0  0  0  0  0  0  0  0  0  0  0  0
   -0.7500   -1.2990    0.0000 C   0  0  0  0  0  0  0  0  0  0  0  0
   -1.5000    0.0000    0.0000 C   0  0  0  0  0  0  0  0  0  0  0  0
   -0.7500    1.2990    0.0000 C   0  0  0  0  0  0  0  0  0  0  0  0
   -0.0000    2.5981    0.0000 N   0  0  0  0  0  0  0  0  0  0  0  0
   -3.0000    0.0000    0.0000 C   0  0  0  0  0  0  0  0  0  0  0  0
   -3.7500    1.2990    0.0000 N   0  0  0  0  0  0  0  0  0  0  0  0
   -3.0000    2.5981    0.0000 C   0  0  0  0  0  0  0  0  0  0  0  0
   -1.7010    3.3481    0.0000 C   0  0  0  0  0  0  0  0  0  0  0  0
   -3.0000    4.0981    0.0000 C   0  0  0  0  0  0  0  0  0  0  0  0
   -3.7500    5.3971    0.0000 C   0  0  0  0  0  0  0  0  0  0  0  0
   -5.2500    5.3971    0.0000 C   0  0  0  0  0  0  0  0  0  0  0  0
   -6.0000    6.6962    0.0000 C   0  0  0  0  0  0  0  0  0  0  0  0
   -5.2500    7.9952    0.0000 C   0  0  0  0  0  0  0  0  0  0  0  0
   -6.0000    9.2942    0.0000 O   0  0  0  0  0  0  0  0  0  0  0  0
   -5.2500   10.5933    0.0000 C   0  0  0  0  0  0  0  0  0  0  0  0
   -6.0000   11.8923    0.0000 C   0  0  0  0  0  0  0  0  0  0  0  0
   -5.2500   13.1913    0.0000 C   0  0  0  0  0  0  0  0  0  0  0  0
   -3.7500   13.1913    0.0000 C   0  0  0  0  0  0  0  0  0  0  0  0
   -3.0000   11.8923    0.0000 C   0  0  0  0  0  0  0  0  0  0  0  0
   -3.7500   10.5933    0.0000 C   0  0  0  0  0  0  0  0  0  0  0  0
   -3.7500    7.9952    0.0000 C   0  0  0  0  0  0  0  0  0  0  0  0
   -3.0000    6.6962    0.0000 C   0  0  0  0  0  0  0  0  0  0  0  0
   -3.7500   -1.2990    0.0000 C   0  0  0  0  0  0  0  0  0  0  0  0
   -5.2500   -1.2990    0.0000 C   0  0  0  0  0  0  0  0  0  0  0  0
   -6.0000   -2.5981    0.0000 C   0  0  0  0  0  0  0  0  0  0  0  0
   -7.5000   -2.5981    0.0000 O   0  0  0  0  0  0  0  0  0  0  0  0
   -8.2500   -3.8971    0.0000 C   0  0  0  0  0  0  0  0  0  0  0  0
  1  2  1  0
  2  3  1  0
  3  4  2  0
  4  5  1  0
  5  6  2  0
  6  7  1  0
  7  8  2  0
  8  9  1  0
  9 10  3  0
  8 11  1  0
 11 12  1  0
 13 12  1  1
 13 14  1  0
 14 15  1  0
 15 16  1  6
 16 17  2  0
 17 18  1  0
 18 19  2  0
 19 20  1  0
 20 21  1  0
 21 22  2  0
 22 23  1  0
 23 24  2  0
 24 25  1  0
 25 26  2  0
 19 27  1  0
 27 28  2  0
 11 29  2  0
 29 30  1  0
 30 31  2  0
 31 32  1  0
 32 33  1  0
 31  3  1  0
 29  5  1  0
 15 13  1  0
 28 16  1  0
 26 21  1  0
M  END
>  <Compound_ID>  (1026) 
CHEMBL245996

>  <Active>  (1026) 
1.0

>  <Smiles>  (1026) 
COc1cc2ncc(C#N)c(N[C@@H]3C[C@H]3c3ccc(Oc4ccccc4)cc3)c2cc1OC

>  <canonical_smi>  (1026) 
COc1cc2ncc(C#N)c(N[C@@H]3C[C@H]3c3ccc(Oc4ccccc4)cc3)c2cc1OC

>  <Set>  (1026) 
G2 active

>  <Set_type>  (1026) 
Test

>  <MW>  (1026) 
437.5

>  <HBD>  (1026) 
1

>  <HBA>  (1026) 
6

>  <NRB>  (1026) 
7

>  <NR>  (1026) 
5

>  <NAR>  (1026) 
4

>  <PSA>  (1026) 
76.4

>  <Standard Type>  (1026) 
nan

>  <Standard Relation>  (1026) 
nan

>  <Standard Units>  (1026) 
nan

>  <Standard Value>  (1026) 
nan

>  <Assay ChEMBL ID>  (1026) 
nan

>  <Assay Description>  (1026) 
nan

>  <BAO Label>  (1026) 
nan

$$$$

     RDKit          2D

 35 40  0  0  0  0  0  0  0  0999 V2000
   -2.2500   -6.4952    0.0000 N   0  0  0  0  0  0  0  0  0  0  0  0
   -1.5000   -5.1962    0.0000 C   0  0  0  0  0  0  0  0  0  0  0  0
   -0.7500   -3.8971    0.0000 C   0  0  0  0  0  0  0  0  0  0  0  0
    0.7500   -3.8971    0.0000 C   0  0  0  0  0  0  0  0  0  0  0  0
    1.5000   -2.5981    0.0000 N   0  0  0  0  0  0  0  0  0  0  0  0
    0.7500   -1.2990    0.0000 C   0  0  0  0  0  0  0  0  0  0  0  0
    1.5000    0.0000    0.0000 C   0  0  0  0  0  0  0  0  0  0  0  0
    0.7500    1.2990    0.0000 C   0  0  0  0  0  0  0  0  0  0  0  0
    1.5000    2.5981    0.0000 C   0  0  0  0  0  0  0  0  0  0  0  0
    3.0000    2.5981    0.0000 C   0  0  0  0  0  0  0  0  0  0  0  0
    3.7500    3.8971    0.0000 C   0  0  0  0  0  0  0  0  0  0  0  0
    3.0000    5.1962    0.0000 C   0  0  0  0  0  0  0  0  0  0  0  0
    3.7500    6.4952    0.0000 C   0  0  0  0  0  0  0  0  0  0  0  0
    5.2500    6.4952    0.0000 N   0  0  0  0  0  0  0  0  0  0  0  0
    6.0000    5.1962    0.0000 C   0  0  0  0  0  0  0  0  0  0  0  0
    7.5000    5.1962    0.0000 C   0  0  0  0  0  0  0  0  0  0  0  0
    8.2500    6.4952    0.0000 O   0  0  0  0  0  0  0  0  0  0  0  0
    7.5000    7.7942    0.0000 C   0  0  0  0  0  0  0  0  0  0  0  0
    6.0000    7.7942    0.0000 C   0  0  0  0  0  0  0  0  0  0  0  0
    1.5000    5.1962    0.0000 C   0  0  0  0  0  0  0  0  0  0  0  0
    0.7500    3.8971    0.0000 C   0  0  0  0  0  0  0  0  0  0  0  0
   -0.7500    1.2990    0.0000 C   0  0  0  0  0  0  0  0  0  0  0  0
   -1.5000    0.0000    0.0000 C   0  0  0  0  0  0  0  0  0  0  0  0
   -0.7500   -1.2990    0.0000 C   0  0  0  0  0  0  0  0  0  0  0  0
   -1.5000   -2.5981    0.0000 C   0  0  0  0  0  0  0  0  0  0  0  0
   -3.0000   -2.5981    0.0000 N   0  0  0  0  0  0  0  0  0  0  0  0
   -3.7500   -1.2990    0.0000 C   0  0  0  0  0  0  0  0  0  0  0  0
   -5.0490   -0.5490    0.0000 C   0  0  0  0  0  0  0  0  0  0  0  0
   -3.7500    0.2010    0.0000 C   0  0  0  0  0  0  0  0  0  0  0  0
   -3.0000    1.5000    0.0000 C   0  0  0  0  0  0  0  0  0  0  0  0
   -1.5000    1.5000    0.0000 C   0  0  0  0  0  0  0  0  0  0  0  0
   -0.7500    2.7990    0.0000 C   0  0  0  0  0  0  0  0  0  0  0  0
   -1.5000    4.0981    0.0000 C   0  0  0  0  0  0  0  0  0  0  0  0
   -3.0000    4.0981    0.0000 C   0  0  0  0  0  0  0  0  0  0  0  0
   -3.7500    2.7990    0.0000 C   0  0  0  0  0  0  0  0  0  0  0  0
  1  2  3  0
  2  3  1  0
  3  4  2  0
  4  5  1  0
  5  6  2  0
  6  7  1  0
  7  8  2  0
  8  9  1  0
  9 10  2  0
 10 11  1  0
 11 12  2  0
 12 13  1  0
 13 14  1  0
 14 15  1  0
 15 16  1  0
 16 17  1  0
 17 18  1  0
 18 19  1  0
 12 20  1  0
 20 21  2  0
  8 22  1  0
 22 23  2  0
 23 24  1  0
 24 25  2  0
 25 26  1  0
 27 26  1  6
 27 28  1  0
 28 29  1  0
 29 30  1  1
 30 31  2  0
 31 32  1  0
 32 33  2  0
 33 34  1  0
 34 35  2  0
 25  3  1  0
 29 27  1  0
 35 30  1  0
 24  6  1  0
 21  9  1  0
 19 14  1  0
M  END
>  <Compound_ID>  (1027) 
CHEMBL399438

>  <Active>  (1027) 
1.0

>  <Smiles>  (1027) 
N#Cc1cnc2cc(-c3ccc(CN4CCOCC4)cc3)ccc2c1N[C@@H]1C[C@H]1c1ccccc1

>  <canonical_smi>  (1027) 
N#Cc1cnc2cc(-c3ccc(CN4CCOCC4)cc3)ccc2c1N[C@@H]1C[C@H]1c1ccccc1

>  <Set>  (1027) 
G2 active

>  <Set_type>  (1027) 
Test

>  <MW>  (1027) 
460.58

>  <HBD>  (1027) 
1

>  <HBA>  (1027) 
5

>  <NRB>  (1027) 
6

>  <NR>  (1027) 
6

>  <NAR>  (1027) 
4

>  <PSA>  (1027) 
61.18

>  <Standard Type>  (1027) 
nan

>  <Standard Relation>  (1027) 
nan

>  <Standard Units>  (1027) 
nan

>  <Standard Value>  (1027) 
nan

>  <Assay ChEMBL ID>  (1027) 
nan

>  <Assay Description>  (1027) 
nan

>  <BAO Label>  (1027) 
nan

$$$$

     RDKit          2D

 42 48  0  0  0  0  0  0  0  0999 V2000
   -0.4702  -13.1562    0.0000 O   0  0  0  0  0  0  0  0  0  0  0  0
    1.0216  -12.9994    0.0000 C   0  0  0  0  0  0  0  0  0  0  0  0
    1.6317  -11.6291    0.0000 O   0  0  0  0  0  0  0  0  0  0  0  0
    0.7500  -10.4156    0.0000 C   0  0  0  0  0  0  0  0  0  0  0  0
   -0.7500  -10.4156    0.0000 C   0  0  0  0  0  0  0  0  0  0  0  0
   -1.2135   -8.9890    0.0000 N   0  0  0  0  0  0  0  0  0  0  0  0
    0.0000   -8.1073    0.0000 C   0  0  0  0  0  0  0  0  0  0  0  0
   -0.0000   -6.6073    0.0000 C   0  0  0  0  0  0  0  0  0  0  0  0
   -0.0000   -5.1073    0.0000 C   0  0  0  0  0  0  0  0  0  0  0  0
   -0.0000   -3.6073    0.0000 C   0  0  0  0  0  0  0  0  0  0  0  0
    1.2135   -2.7256    0.0000 C   0  0  0  0  0  0  0  0  0  0  0  0
    0.7500   -1.2990    0.0000 C   0  0  0  0  0  0  0  0  0  0  0  0
    1.5000    0.0000    0.0000 N   0  0  0  0  0  0  0  0  0  0  0  0
    0.7500    1.2990    0.0000 C   0  0  0  0  0  0  0  0  0  0  0  0
   -0.7500    1.2990    0.0000 N   0  0  0  0  0  0  0  0  0  0  0  0
   -1.5000    0.0000    0.0000 C   0  0  0  0  0  0  0  0  0  0  0  0
   -3.0000    0.0000    0.0000 N   0  0  0  0  0  0  0  0  0  0  0  0
   -3.7500    1.2990    0.0000 C   0  0  0  0  0  0  0  0  0  0  0  0
   -3.0000    2.5981    0.0000 C   0  0  0  0  0  0  0  0  0  0  0  0
   -3.7500    3.8971    0.0000 C   0  0  0  0  0  0  0  0  0  0  0  0
   -5.2500    3.8971    0.0000 C   0  0  0  0  0  0  0  0  0  0  0  0
   -6.0000    2.5981    0.0000 C   0  0  0  0  0  0  0  0  0  0  0  0
   -7.4672    2.9099    0.0000 C   0  0  0  0  0  0  0  0  0  0  0  0
   -7.6240    4.4017    0.0000 C   0  0  0  0  0  0  0  0  0  0  0  0
   -6.2537    5.0118    0.0000 N   0  0  0  0  0  0  0  0  0  0  0  0
   -5.9418    6.4791    0.0000 C   0  0  0  0  0  0  0  0  0  0  0  0
   -7.0565    7.4827    0.0000 C   0  0  0  0  0  0  0  0  0  0  0  0
   -6.7447    8.9500    0.0000 C   0  0  0  0  0  0  0  0  0  0  0  0
   -7.8594    9.9537    0.0000 C   0  0  0  0  0  0  0  0  0  0  0  0
   -9.2860    9.4901    0.0000 C   0  0  0  0  0  0  0  0  0  0  0  0
   -9.5978    8.0229    0.0000 C   0  0  0  0  0  0  0  0  0  0  0  0
   -8.4831    7.0192    0.0000 C   0  0  0  0  0  0  0  0  0  0  0  0
   -5.2500    1.2990    0.0000 C   0  0  0  0  0  0  0  0  0  0  0  0
   -0.7500   -1.2990    0.0000 C   0  0  0  0  0  0  0  0  0  0  0  0
   -1.2135   -2.7256    0.0000 S   0  0  0  0  0  0  0  0  0  0  0  0
    1.2135   -8.9890    0.0000 C   0  0  0  0  0  0  0  0  0  0  0  0
    1.9033  -14.2129    0.0000 N   0  0  0  0  0  0  0  0  0  0  0  0
    1.2931  -15.5833    0.0000 C   0  0  0  0  0  0  0  0  0  0  0  0
    2.1748  -16.7968    0.0000 C   0  0  0  0  0  0  0  0  0  0  0  0
    3.6666  -16.6400    0.0000 O   0  0  0  0  0  0  0  0  0  0  0  0
    4.2767  -15.2697    0.0000 C   0  0  0  0  0  0  0  0  0  0  0  0
    3.3950  -14.0561    0.0000 C   0  0  0  0  0  0  0  0  0  0  0  0
  1  2  2  0
  2  3  1  0
  4  3  1  1
  4  5  1  0
  5  6  1  0
  6  7  1  0
  7  8  1  6
  8  9  3  0
  9 10  1  0
 10 11  2  0
 11 12  1  0
 12 13  2  0
 13 14  1  0
 14 15  2  0
 15 16  1  0
 16 17  1  0
 17 18  1  0
 18 19  2  0
 19 20  1  0
 20 21  2  0
 21 22  1  0
 22 23  1  0
 23 24  2  0
 24 25  1  0
 25 26  1  0
 26 27  1  0
 27 28  2  0
 28 29  1  0
 29 30  2  0
 30 31  1  0
 31 32  2  0
 22 33  2  0
 16 34  2  0
 34 35  1  0
  7 36  1  0
  2 37  1  0
 37 38  1  0
 38 39  1  0
 39 40  1  0
 40 41  1  0
 41 42  1  0
 36  4  1  0
 42 37  1  0
 35 10  1  0
 34 12  1  0
 33 18  1  0
 25 21  1  0
 32 27  1  0
M  END
>  <Compound_ID>  (1028) 
CHEMBL500217

>  <Active>  (1028) 
1.0

>  <Smiles>  (1028) 
O=C(O[C@H]1CN[C@H](C#Cc2cc3ncnc(Nc4ccc5c(ccn5Cc5ccccc5)c4)c3s2)C1)N1CCOCC1

>  <canonical_smi>  (1028) 
O=C(O[C@H]1CN[C@H](C#Cc2cc3ncnc(Nc4ccc5c(ccn5Cc5ccccc5)c4)c3s2)C1)N1CCOCC1

>  <Set>  (1028) 
G2 active

>  <Set_type>  (1028) 
Test

>  <MW>  (1028) 
578.7

>  <HBD>  (1028) 
2

>  <HBA>  (1028) 
7

>  <NRB>  (1028) 
5

>  <NR>  (1028) 
7

>  <NAR>  (1028) 
5

>  <PSA>  (1028) 
93.54

>  <Standard Type>  (1028) 
nan

>  <Standard Relation>  (1028) 
nan

>  <Standard Units>  (1028) 
nan

>  <Standard Value>  (1028) 
nan

>  <Assay ChEMBL ID>  (1028) 
nan

>  <Assay Description>  (1028) 
nan

>  <BAO Label>  (1028) 
nan

$$$$

     RDKit          2D

 40 45  0  0  0  0  0  0  0  0999 V2000
   -2.5565   -4.8847    0.0000 C   0  0  0  0  0  0  0  0  0  0  0  0
   -1.4418   -3.8810    0.0000 C   0  0  0  0  0  0  0  0  0  0  0  0
   -1.7537   -2.4138    0.0000 C   0  0  0  0  0  0  0  0  0  0  0  0
   -0.7500   -1.2990    0.0000 C   0  0  0  0  0  0  0  0  0  0  0  0
    0.7500   -1.2990    0.0000 C   0  0  0  0  0  0  0  0  0  0  0  0
    1.5000   -2.5981    0.0000 N   0  0  0  0  0  0  0  0  0  0  0  0
    3.0000   -2.5981    0.0000 C   0  0  0  0  0  0  0  0  0  0  0  0
    3.7500   -1.2990    0.0000 C   0  0  0  0  0  0  0  0  0  0  0  0
    5.2500   -1.2990    0.0000 C   0  0  0  0  0  0  0  0  0  0  0  0
    6.0000   -2.5981    0.0000 C   0  0  0  0  0  0  0  0  0  0  0  0
    5.2500   -3.8971    0.0000 C   0  0  0  0  0  0  0  0  0  0  0  0
    6.2537   -5.0118    0.0000 C   0  0  0  0  0  0  0  0  0  0  0  0
    7.6240   -4.4017    0.0000 N   0  0  0  0  0  0  0  0  0  0  0  0
    7.4672   -2.9099    0.0000 N   0  0  0  0  0  0  0  0  0  0  0  0
    8.5819   -1.9062    0.0000 C   0  0  0  0  0  0  0  0  0  0  0  0
   10.0085   -2.3698    0.0000 C   0  0  0  0  0  0  0  0  0  0  0  0
   10.3204   -3.8370    0.0000 C   0  0  0  0  0  0  0  0  0  0  0  0
   11.7470   -4.3005    0.0000 C   0  0  0  0  0  0  0  0  0  0  0  0
   12.8617   -3.2968    0.0000 C   0  0  0  0  0  0  0  0  0  0  0  0
   12.5498   -1.8296    0.0000 C   0  0  0  0  0  0  0  0  0  0  0  0
   11.1232   -1.3661    0.0000 C   0  0  0  0  0  0  0  0  0  0  0  0
    3.7500   -3.8971    0.0000 C   0  0  0  0  0  0  0  0  0  0  0  0
    1.5000    0.0000    0.0000 N   0  0  0  0  0  0  0  0  0  0  0  0
    0.7500    1.2990    0.0000 C   0  0  0  0  0  0  0  0  0  0  0  0
   -0.7500    1.2990    0.0000 N   0  0  0  0  0  0  0  0  0  0  0  0
   -1.5000    0.0000    0.0000 C   0  0  0  0  0  0  0  0  0  0  0  0
   -2.9672   -0.3119    0.0000 N   0  0  0  0  0  0  0  0  0  0  0  0
   -3.1240   -1.8037    0.0000 C   0  0  0  0  0  0  0  0  0  0  0  0
   -4.4231   -2.5537    0.0000 N   0  0  0  0  0  0  0  0  0  0  0  0
   -5.7221   -1.8037    0.0000 C   0  0  0  0  0  0  0  0  0  0  0  0
   -5.7221   -0.3037    0.0000 O   0  0  0  0  0  0  0  0  0  0  0  0
   -7.0211   -2.5537    0.0000 O   0  0  0  0  0  0  0  0  0  0  0  0
   -8.3202   -1.8037    0.0000 C   0  0  0  0  0  0  0  0  0  0  0  0
   -9.6192   -2.5537    0.0000 C   0  0  0  0  0  0  0  0  0  0  0  0
  -10.9182   -1.8037    0.0000 N   0  0  0  0  0  0  0  0  0  0  0  0
  -10.9182   -0.3037    0.0000 C   0  0  0  0  0  0  0  0  0  0  0  0
  -12.2173    0.4463    0.0000 C   0  0  0  0  0  0  0  0  0  0  0  0
  -13.5163   -0.3037    0.0000 O   0  0  0  0  0  0  0  0  0  0  0  0
  -13.5163   -1.8037    0.0000 C   0  0  0  0  0  0  0  0  0  0  0  0
  -12.2173   -2.5537    0.0000 C   0  0  0  0  0  0  0  0  0  0  0  0
  1  2  1  0
  2  3  1  0
  3  4  2  0
  4  5  1  0
  5  6  1  0
  6  7  1  0
  7  8  2  0
  8  9  1  0
  9 10  2  0
 10 11  1  0
 11 12  1  0
 12 13  2  0
 13 14  1  0
 14 15  1  0
 15 16  1  0
 16 17  2  0
 17 18  1  0
 18 19  2  0
 19 20  1  0
 20 21  2  0
 11 22  2  0
  5 23  2  0
 23 24  1  0
 24 25  2  0
 25 26  1  0
 26 27  1  0
 27 28  2  0
 28 29  1  0
 29 30  1  0
 30 31  2  0
 30 32  1  0
 32 33  1  0
 33 34  1  0
 34 35  1  0
 35 36  1  0
 36 37  1  0
 37 38  1  0
 38 39  1  0
 39 40  1  0
 28  3  1  0
 40 35  1  0
 26  4  1  0
 22  7  1  0
 14 10  1  0
 21 16  1  0
M  END
>  <Compound_ID>  (1029) 
CHEMBL578255

>  <Active>  (1029) 
1.0

>  <Smiles>  (1029) 
CCC1=C2C(Nc3ccc4c(cnn4Cc4ccccc4)c3)=NC=NC2N=C1NC(=O)OCCN1CCOCC1

>  <canonical_smi>  (1029) 
CCC1=C2C(Nc3ccc4c(cnn4Cc4ccccc4)c3)=NC=NC2N=C1NC(=O)OCCN1CCOCC1

>  <Set>  (1029) 
G2 active

>  <Set_type>  (1029) 
Test

>  <MW>  (1029) 
540.63

>  <HBD>  (1029) 
2

>  <HBA>  (1029) 
6

>  <NRB>  (1029) 
7

>  <NR>  (1029) 
6

>  <NAR>  (1029) 
3

>  <PSA>  (1029) 
117.73

>  <Standard Type>  (1029) 
nan

>  <Standard Relation>  (1029) 
nan

>  <Standard Units>  (1029) 
nan

>  <Standard Value>  (1029) 
nan

>  <Assay ChEMBL ID>  (1029) 
nan

>  <Assay Description>  (1029) 
nan

>  <BAO Label>  (1029) 
nan

$$$$

     RDKit          2D

 32 36  0  0  0  0  0  0  0  0999 V2000
    3.7500   -1.2990    0.0000 C   0  0  0  0  0  0  0  0  0  0  0  0
    3.0000    0.0000    0.0000 O   0  0  0  0  0  0  0  0  0  0  0  0
    1.5000    0.0000    0.0000 C   0  0  0  0  0  0  0  0  0  0  0  0
    0.7500   -1.2990    0.0000 C   0  0  0  0  0  0  0  0  0  0  0  0
   -0.7500   -1.2990    0.0000 C   0  0  0  0  0  0  0  0  0  0  0  0
   -1.5000   -2.5981    0.0000 N   0  0  0  0  0  0  0  0  0  0  0  0
   -3.0000   -2.5981    0.0000 C   0  0  0  0  0  0  0  0  0  0  0  0
   -3.7500   -1.2990    0.0000 C   0  0  0  0  0  0  0  0  0  0  0  0
   -5.2500   -1.2990    0.0000 C   0  0  0  0  0  0  0  0  0  0  0  0
   -6.7500   -1.2990    0.0000 N   0  0  0  0  0  0  0  0  0  0  0  0
   -3.0000    0.0000    0.0000 C   0  0  0  0  0  0  0  0  0  0  0  0
   -3.7500    1.2990    0.0000 N   0  0  0  0  0  0  0  0  0  0  0  0
   -5.2500    1.2990    0.0000 C   0  0  0  0  0  0  0  0  0  0  0  0
   -6.5490    0.5490    0.0000 C   0  0  0  0  0  0  0  0  0  0  0  0
   -6.5490    2.0490    0.0000 C   0  0  0  0  0  0  0  0  0  0  0  0
   -7.2990    3.3481    0.0000 C   0  0  0  0  0  0  0  0  0  0  0  0
   -6.5490    4.6471    0.0000 C   0  0  0  0  0  0  0  0  0  0  0  0
   -7.2990    5.9462    0.0000 C   0  0  0  0  0  0  0  0  0  0  0  0
   -8.7990    5.9462    0.0000 C   0  0  0  0  0  0  0  0  0  0  0  0
   -9.5490    4.6471    0.0000 C   0  0  0  0  0  0  0  0  0  0  0  0
   -8.7990    3.3481    0.0000 C   0  0  0  0  0  0  0  0  0  0  0  0
   -1.5000    0.0000    0.0000 C   0  0  0  0  0  0  0  0  0  0  0  0
   -0.7500    1.2990    0.0000 C   0  0  0  0  0  0  0  0  0  0  0  0
    0.7500    1.2990    0.0000 C   0  0  0  0  0  0  0  0  0  0  0  0
    1.5000    2.5981    0.0000 O   0  0  0  0  0  0  0  0  0  0  0  0
    0.7500    3.8971    0.0000 C   0  0  0  0  0  0  0  0  0  0  0  0
    1.5000    5.1962    0.0000 C   0  0  0  0  0  0  0  0  0  0  0  0
    3.0000    5.1962    0.0000 C   0  0  0  0  0  0  0  0  0  0  0  0
    3.7500    6.4952    0.0000 C   0  0  0  0  0  0  0  0  0  0  0  0
    3.0000    7.7942    0.0000 C   0  0  0  0  0  0  0  0  0  0  0  0
    1.5000    7.7942    0.0000 C   0  0  0  0  0  0  0  0  0  0  0  0
    0.7500    6.4952    0.0000 C   0  0  0  0  0  0  0  0  0  0  0  0
  1  2  1  0
  2  3  1  0
  3  4  2  0
  4  5  1  0
  5  6  2  0
  6  7  1  0
  7  8  2  0
  8  9  1  0
  9 10  3  0
  8 11  1  0
 11 12  1  0
 13 12  1  6
 13 14  1  0
 14 15  1  0
 15 16  1  1
 16 17  2  0
 17 18  1  0
 18 19  2  0
 19 20  1  0
 20 21  2  0
 11 22  2  0
 22 23  1  0
 23 24  2  0
 24 25  1  0
 25 26  1  0
 26 27  1  0
 27 28  2  0
 28 29  1  0
 29 30  2  0
 30 31  1  0
 31 32  2  0
 24  3  1  0
 32 27  1  0
 22  5  1  0
 15 13  1  0
 21 16  1  0
M  END
>  <Compound_ID>  (1030) 
CHEMBL248220

>  <Active>  (1030) 
1.0

>  <Smiles>  (1030) 
COc1cc2ncc(C#N)c(N[C@@H]3C[C@H]3c3ccccc3)c2cc1OCc1ccccc1

>  <canonical_smi>  (1030) 
COc1cc2ncc(C#N)c(N[C@@H]3C[C@H]3c3ccccc3)c2cc1OCc1ccccc1

>  <Set>  (1030) 
G2 active

>  <Set_type>  (1030) 
Test

>  <MW>  (1030) 
421.5

>  <HBD>  (1030) 
1

>  <HBA>  (1030) 
5

>  <NRB>  (1030) 
7

>  <NR>  (1030) 
5

>  <NAR>  (1030) 
4

>  <PSA>  (1030) 
67.17

>  <Standard Type>  (1030) 
nan

>  <Standard Relation>  (1030) 
nan

>  <Standard Units>  (1030) 
nan

>  <Standard Value>  (1030) 
nan

>  <Assay ChEMBL ID>  (1030) 
nan

>  <Assay Description>  (1030) 
nan

>  <BAO Label>  (1030) 
nan

$$$$

     RDKit          2D

 28 30  0  0  0  0  0  0  0  0999 V2000
   -0.7500   -6.4952    0.0000 O   0  0  0  0  0  0  0  0  0  0  0  0
    0.7500   -6.4952    0.0000 C   0  0  0  0  0  0  0  0  0  0  0  0
    1.5000   -5.1962    0.0000 O   0  0  0  0  0  0  0  0  0  0  0  0
    0.7500   -3.8971    0.0000 C   0  0  0  0  0  0  0  0  0  0  0  0
    1.5000   -2.5981    0.0000 C   0  0  0  0  0  0  0  0  0  0  0  0
    0.7500   -1.2990    0.0000 C   0  0  0  0  0  0  0  0  0  0  0  0
    1.5000    0.0000    0.0000 C   0  0  0  0  0  0  0  0  0  0  0  0
    0.7500    1.2990    0.0000 C   0  0  0  0  0  0  0  0  0  0  0  0
   -0.7500    1.2990    0.0000 C   0  0  0  0  0  0  0  0  0  0  0  0
   -1.5000    0.0000    0.0000 C   0  0  0  0  0  0  0  0  0  0  0  0
   -0.7500   -1.2990    0.0000 C   0  0  0  0  0  0  0  0  0  0  0  0
    1.5000   -7.7942    0.0000 C   0  0  0  0  0  0  0  0  0  0  0  0
    0.7500   -9.0933    0.0000 C   0  0  0  0  0  0  0  0  0  0  0  0
    1.5000  -10.3923    0.0000 C   0  0  0  0  0  0  0  0  0  0  0  0
    0.7500  -11.6913    0.0000 N   0  0  0  0  0  0  0  0  0  0  0  0
   -0.7500  -11.6913    0.0000 C   0  0  0  0  0  0  0  0  0  0  0  0
   -1.5000  -12.9904    0.0000 C   0  0  0  0  0  0  0  0  0  0  0  0
   -3.0000  -12.9904    0.0000 C   0  0  0  0  0  0  0  0  0  0  0  0
   -3.7500  -14.2894    0.0000 C   0  0  0  0  0  0  0  0  0  0  0  0
   -5.2500  -14.2894    0.0000 O   0  0  0  0  0  0  0  0  0  0  0  0
   -3.0000  -15.5885    0.0000 C   0  0  0  0  0  0  0  0  0  0  0  0
   -1.5000  -15.5885    0.0000 C   0  0  0  0  0  0  0  0  0  0  0  0
   -0.7500  -14.2894    0.0000 C   0  0  0  0  0  0  0  0  0  0  0  0
    0.7500  -14.2894    0.0000 O   0  0  0  0  0  0  0  0  0  0  0  0
    3.0000  -10.3923    0.0000 C   0  0  0  0  0  0  0  0  0  0  0  0
    3.7500   -9.0933    0.0000 C   0  0  0  0  0  0  0  0  0  0  0  0
    3.0000   -7.7942    0.0000 C   0  0  0  0  0  0  0  0  0  0  0  0
    3.7500   -6.4952    0.0000 O   0  0  0  0  0  0  0  0  0  0  0  0
  1  2  2  0
  2  3  1  0
  3  4  1  0
  4  5  1  0
  5  6  1  0
  6  7  2  0
  7  8  1  0
  8  9  2  0
  9 10  1  0
 10 11  2  0
  2 12  1  0
 12 13  2  0
 13 14  1  0
 14 15  1  0
 15 16  1  0
 16 17  1  0
 17 18  2  0
 18 19  1  0
 19 20  1  0
 19 21  2  0
 21 22  1  0
 22 23  2  0
 23 24  1  0
 14 25  2  0
 25 26  1  0
 26 27  2  0
 27 28  1  0
 11  6  1  0
 27 12  1  0
 23 17  1  0
M  END
>  <Compound_ID>  (1031) 
CHEMBL168366

>  <Active>  (1031) 
1.0

>  <Smiles>  (1031) 
O=C(OCCc1ccccc1)c1cc(NCc2cc(O)ccc2O)ccc1O

>  <canonical_smi>  (1031) 
O=C(OCCc1ccccc1)c1cc(NCc2cc(O)ccc2O)ccc1O

>  <Set>  (1031) 
G2 active

>  <Set_type>  (1031) 
Test

>  <MW>  (1031) 
379.41

>  <HBD>  (1031) 
4

>  <HBA>  (1031) 
6

>  <NRB>  (1031) 
7

>  <NR>  (1031) 
3

>  <NAR>  (1031) 
3

>  <PSA>  (1031) 
99.02

>  <Standard Type>  (1031) 
nan

>  <Standard Relation>  (1031) 
nan

>  <Standard Units>  (1031) 
nan

>  <Standard Value>  (1031) 
nan

>  <Assay ChEMBL ID>  (1031) 
nan

>  <Assay Description>  (1031) 
nan

>  <BAO Label>  (1031) 
nan

$$$$

     RDKit          2D

 36 41  0  0  0  0  0  0  0  0999 V2000
   -1.0344   -8.1310    0.0000 F   0  0  0  0  0  0  0  0  0  0  0  0
   -2.1491   -7.1273    0.0000 C   0  0  0  0  0  0  0  0  0  0  0  0
   -3.5757   -7.5908    0.0000 C   0  0  0  0  0  0  0  0  0  0  0  0
   -4.6904   -6.5871    0.0000 C   0  0  0  0  0  0  0  0  0  0  0  0
   -4.3786   -5.1199    0.0000 C   0  0  0  0  0  0  0  0  0  0  0  0
   -2.9520   -4.6564    0.0000 C   0  0  0  0  0  0  0  0  0  0  0  0
   -2.6401   -3.1891    0.0000 C   0  0  0  0  0  0  0  0  0  0  0  0
   -1.2135   -2.7256    0.0000 N   0  0  0  0  0  0  0  0  0  0  0  0
   -0.0000   -3.6073    0.0000 N   0  0  0  0  0  0  0  0  0  0  0  0
    1.2135   -2.7256    0.0000 C   0  0  0  0  0  0  0  0  0  0  0  0
    0.7500   -1.2990    0.0000 C   0  0  0  0  0  0  0  0  0  0  0  0
    1.5000    0.0000    0.0000 C   0  0  0  0  0  0  0  0  0  0  0  0
    0.7500    1.2990    0.0000 C   0  0  0  0  0  0  0  0  0  0  0  0
    1.5000    2.5981    0.0000 N   0  0  0  0  0  0  0  0  0  0  0  0
    3.0000    2.5981    0.0000 C   0  0  0  0  0  0  0  0  0  0  0  0
    3.7500    1.2990    0.0000 N   0  0  0  0  0  0  0  0  0  0  0  0
    5.2500    1.2990    0.0000 C   0  0  0  0  0  0  0  0  0  0  0  0
    6.0000    2.5981    0.0000 N   0  0  0  0  0  0  0  0  0  0  0  0
    5.2500    3.8971    0.0000 N   0  0  0  0  0  0  0  0  0  0  0  0
    5.7135    5.3237    0.0000 C   0  0  0  0  0  0  0  0  0  0  0  0
    4.5000    6.2054    0.0000 C   0  0  0  0  0  0  0  0  0  0  0  0
    3.2865    5.3237    0.0000 C   0  0  0  0  0  0  0  0  0  0  0  0
    1.8599    5.7872    0.0000 C   0  0  0  0  0  0  0  0  0  0  0  0
    1.5480    7.2544    0.0000 O   0  0  0  0  0  0  0  0  0  0  0  0
    0.1214    7.7180    0.0000 C   0  0  0  0  0  0  0  0  0  0  0  0
   -0.1904    9.1852    0.0000 C   0  0  0  0  0  0  0  0  0  0  0  0
    0.9243   10.1889    0.0000 C   0  0  0  0  0  0  0  0  0  0  0  0
    0.6124   11.6561    0.0000 C   0  0  0  0  0  0  0  0  0  0  0  0
   -0.8142   12.1196    0.0000 N   0  0  0  0  0  0  0  0  0  0  0  0
   -1.9289   11.1159    0.0000 C   0  0  0  0  0  0  0  0  0  0  0  0
   -1.6170    9.6487    0.0000 C   0  0  0  0  0  0  0  0  0  0  0  0
    3.7500    3.8971    0.0000 C   0  0  0  0  0  0  0  0  0  0  0  0
   -0.7500    1.2990    0.0000 C   0  0  0  0  0  0  0  0  0  0  0  0
   -1.5000    0.0000    0.0000 C   0  0  0  0  0  0  0  0  0  0  0  0
   -0.7500   -1.2990    0.0000 C   0  0  0  0  0  0  0  0  0  0  0  0
   -1.8373   -5.6601    0.0000 C   0  0  0  0  0  0  0  0  0  0  0  0
  1  2  1  0
  2  3  2  0
  3  4  1  0
  4  5  2  0
  5  6  1  0
  6  7  1  0
  7  8  1  0
  8  9  1  0
  9 10  2  0
 10 11  1  0
 11 12  2  0
 12 13  1  0
 13 14  1  0
 14 15  1  0
 15 16  2  0
 16 17  1  0
 17 18  2  0
 18 19  1  0
 19 20  1  0
 20 21  2  0
 21 22  1  0
 22 23  1  0
 23 24  1  0
 24 25  1  0
 25 26  1  0
 26 27  1  0
 27 28  1  0
 28 29  1  0
 29 30  1  0
 30 31  1  0
 22 32  2  0
 13 33  2  0
 33 34  1  0
 34 35  2  0
  6 36  2  0
 36  2  1  0
 35  8  1  0
 35 11  1  0
 32 15  1  0
 32 19  1  0
 31 26  1  0
M  END
>  <Compound_ID>  (1032) 
CHEMBL246072

>  <Active>  (1032) 
1.0

>  <Smiles>  (1032) 
Fc1cccc(Cn2ncc3cc(Nc4ncnn5ccc(COCC6CCNCC6)c45)ccc32)c1

>  <canonical_smi>  (1032) 
Fc1cccc(Cn2ncc3cc(Nc4ncnn5ccc(COCC6CCNCC6)c45)ccc32)c1

>  <Set>  (1032) 
G2 active

>  <Set_type>  (1032) 
Test

>  <MW>  (1032) 
485.57

>  <HBD>  (1032) 
2

>  <HBA>  (1032) 
6

>  <NRB>  (1032) 
8

>  <NR>  (1032) 
6

>  <NAR>  (1032) 
5

>  <PSA>  (1032) 
81.3

>  <Standard Type>  (1032) 
nan

>  <Standard Relation>  (1032) 
nan

>  <Standard Units>  (1032) 
nan

>  <Standard Value>  (1032) 
nan

>  <Assay ChEMBL ID>  (1032) 
nan

>  <Assay Description>  (1032) 
nan

>  <BAO Label>  (1032) 
nan

$$$$

     RDKit          2D

 41 44  0  0  0  0  0  0  0  0999 V2000
    5.2500   -1.2990    0.0000 C   0  0  0  0  0  0  0  0  0  0  0  0
    3.7500   -1.2990    0.0000 C   0  0  0  0  0  0  0  0  0  0  0  0
    3.0000    0.0000    0.0000 O   0  0  0  0  0  0  0  0  0  0  0  0
    1.5000    0.0000    0.0000 C   0  0  0  0  0  0  0  0  0  0  0  0
    0.7500   -1.2990    0.0000 C   0  0  0  0  0  0  0  0  0  0  0  0
   -0.7500   -1.2990    0.0000 C   0  0  0  0  0  0  0  0  0  0  0  0
   -1.5000   -2.5981    0.0000 N   0  0  0  0  0  0  0  0  0  0  0  0
   -3.0000   -2.5981    0.0000 C   0  0  0  0  0  0  0  0  0  0  0  0
   -3.7500   -1.2990    0.0000 C   0  0  0  0  0  0  0  0  0  0  0  0
   -5.2500   -1.2990    0.0000 C   0  0  0  0  0  0  0  0  0  0  0  0
   -6.7500   -1.2990    0.0000 N   0  0  0  0  0  0  0  0  0  0  0  0
   -3.0000    0.0000    0.0000 C   0  0  0  0  0  0  0  0  0  0  0  0
   -3.7500    1.2990    0.0000 N   0  0  0  0  0  0  0  0  0  0  0  0
   -3.0000    2.5981    0.0000 C   0  0  0  0  0  0  0  0  0  0  0  0
   -1.5000    2.5981    0.0000 C   0  0  0  0  0  0  0  0  0  0  0  0
   -0.7500    3.8971    0.0000 C   0  0  0  0  0  0  0  0  0  0  0  0
   -1.5000    5.1962    0.0000 C   0  0  0  0  0  0  0  0  0  0  0  0
   -0.7500    6.4952    0.0000 O   0  0  0  0  0  0  0  0  0  0  0  0
    0.7500    6.4952    0.0000 C   0  0  0  0  0  0  0  0  0  0  0  0
    1.5000    7.7942    0.0000 C   0  0  0  0  0  0  0  0  0  0  0  0
    3.0000    7.7942    0.0000 C   0  0  0  0  0  0  0  0  0  0  0  0
    3.7500    6.4952    0.0000 C   0  0  0  0  0  0  0  0  0  0  0  0
    5.2500    6.4952    0.0000 C   0  0  0  0  0  0  0  0  0  0  0  0
    6.0000    7.7942    0.0000 C   0  0  0  0  0  0  0  0  0  0  0  0
    5.2500    9.0933    0.0000 C   0  0  0  0  0  0  0  0  0  0  0  0
    3.7500    9.0933    0.0000 C   0  0  0  0  0  0  0  0  0  0  0  0
   -3.0000    5.1962    0.0000 C   0  0  0  0  0  0  0  0  0  0  0  0
   -3.7500    6.4952    0.0000 Cl  0  0  0  0  0  0  0  0  0  0  0  0
   -3.7500    3.8971    0.0000 C   0  0  0  0  0  0  0  0  0  0  0  0
   -1.5000    0.0000    0.0000 C   0  0  0  0  0  0  0  0  0  0  0  0
   -0.7500    1.2990    0.0000 C   0  0  0  0  0  0  0  0  0  0  0  0
    0.7500    1.2990    0.0000 C   0  0  0  0  0  0  0  0  0  0  0  0
    1.5000    2.5981    0.0000 N   0  0  0  0  0  0  0  0  0  0  0  0
    3.0000    2.5981    0.0000 C   0  0  0  0  0  0  0  0  0  0  0  0
    3.7500    1.2990    0.0000 O   0  0  0  0  0  0  0  0  0  0  0  0
    3.7500    3.8971    0.0000 C   0  0  0  0  0  0  0  0  0  0  0  0
    5.2500    3.8971    0.0000 C   0  0  0  0  0  0  0  0  0  0  0  0
    6.0000    5.1962    0.0000 C   0  0  0  0  0  0  0  0  0  0  0  0
    7.5000    5.1962    0.0000 N   0  0  0  0  0  0  0  0  0  0  0  0
    8.2500    6.4952    0.0000 C   0  0  0  0  0  0  0  0  0  0  0  0
    8.2500    3.8971    0.0000 C   0  0  0  0  0  0  0  0  0  0  0  0
  1  2  1  0
  2  3  1  0
  3  4  1  0
  4  5  2  0
  5  6  1  0
  6  7  2  0
  7  8  1  0
  8  9  2  0
  9 10  1  0
 10 11  3  0
  9 12  1  0
 12 13  1  0
 13 14  1  0
 14 15  2  0
 15 16  1  0
 16 17  2  0
 17 18  1  0
 18 19  1  0
 19 20  1  0
 20 21  1  0
 21 22  2  0
 22 23  1  0
 23 24  2  0
 24 25  1  0
 25 26  2  0
 17 27  1  0
 27 28  1  0
 27 29  2  0
 12 30  2  0
 30 31  1  0
 31 32  2  0
 32 33  1  0
 33 34  1  0
 34 35  2  0
 34 36  1  0
 36 37  2  0
 37 38  1  0
 38 39  1  0
 39 40  1  0
 39 41  1  0
 32  4  1  0
 30  6  1  0
 29 14  1  0
 26 21  1  0
M  END
>  <Compound_ID>  (1033) 
CHEMBL178199

>  <Active>  (1033) 
1.0

>  <Smiles>  (1033) 
CCOc1cc2ncc(C#N)c(Nc3ccc(OCCc4ccccc4)c(Cl)c3)c2cc1NC(=O)/C=C/CN(C)C

>  <canonical_smi>  (1033) 
CCOc1cc2ncc(C#N)c(Nc3ccc(OCCc4ccccc4)c(Cl)c3)c2cc1NC(=O)/C=C/CN(C)C

>  <Set>  (1033) 
G2 active

>  <Set_type>  (1033) 
Test

>  <MW>  (1033) 
570.09

>  <HBD>  (1033) 
2

>  <HBA>  (1033) 
7

>  <NRB>  (1033) 
12

>  <NR>  (1033) 
4

>  <NAR>  (1033) 
4

>  <PSA>  (1033) 
99.51

>  <Standard Type>  (1033) 
nan

>  <Standard Relation>  (1033) 
nan

>  <Standard Units>  (1033) 
nan

>  <Standard Value>  (1033) 
nan

>  <Assay ChEMBL ID>  (1033) 
nan

>  <Assay Description>  (1033) 
nan

>  <BAO Label>  (1033) 
nan

$$$$

     RDKit          2D

 27 30  0  0  0  0  0  0  0  0999 V2000
   -9.4612   -4.0396    0.0000 N   0  0  0  0  0  0  0  0  0  0  0  0
   -8.0346   -3.5760    0.0000 C   0  0  0  0  0  0  0  0  0  0  0  0
   -7.7227   -2.1088    0.0000 O   0  0  0  0  0  0  0  0  0  0  0  0
   -6.9199   -4.5797    0.0000 C   0  0  0  0  0  0  0  0  0  0  0  0
   -5.4933   -4.1162    0.0000 N   0  0  0  0  0  0  0  0  0  0  0  0
   -5.1814   -2.6490    0.0000 C   0  0  0  0  0  0  0  0  0  0  0  0
   -3.7548   -2.1855    0.0000 C   0  0  0  0  0  0  0  0  0  0  0  0
   -2.6401   -3.1891    0.0000 C   0  0  0  0  0  0  0  0  0  0  0  0
   -1.2135   -2.7256    0.0000 N   0  0  0  0  0  0  0  0  0  0  0  0
   -0.0000   -3.6073    0.0000 C   0  0  0  0  0  0  0  0  0  0  0  0
    1.2135   -2.7256    0.0000 C   0  0  0  0  0  0  0  0  0  0  0  0
    2.6401   -3.1891    0.0000 C   0  0  0  0  0  0  0  0  0  0  0  0
    2.9520   -4.6564    0.0000 C   0  0  0  0  0  0  0  0  0  0  0  0
    4.3786   -5.1199    0.0000 C   0  0  0  0  0  0  0  0  0  0  0  0
    5.4933   -4.1162    0.0000 C   0  0  0  0  0  0  0  0  0  0  0  0
    5.1814   -2.6490    0.0000 C   0  0  0  0  0  0  0  0  0  0  0  0
    6.2961   -1.6453    0.0000 O   0  0  0  0  0  0  0  0  0  0  0  0
    3.7548   -2.1855    0.0000 C   0  0  0  0  0  0  0  0  0  0  0  0
    0.7500   -1.2990    0.0000 C   0  0  0  0  0  0  0  0  0  0  0  0
    1.5000    0.0000    0.0000 C   0  0  0  0  0  0  0  0  0  0  0  0
    3.0000    0.0000    0.0000 N   0  0  0  0  0  0  0  0  0  0  0  0
    0.7500    1.2990    0.0000 N   0  0  0  0  0  0  0  0  0  0  0  0
   -0.7500    1.2990    0.0000 C   0  0  0  0  0  0  0  0  0  0  0  0
   -1.5000    0.0000    0.0000 N   0  0  0  0  0  0  0  0  0  0  0  0
   -0.7500   -1.2990    0.0000 C   0  0  0  0  0  0  0  0  0  0  0  0
   -2.9520   -4.6564    0.0000 C   0  0  0  0  0  0  0  0  0  0  0  0
   -4.3786   -5.1199    0.0000 C   0  0  0  0  0  0  0  0  0  0  0  0
  1  2  1  0
  2  3  2  0
  2  4  1  0
  4  5  1  0
  5  6  1  0
  6  7  1  0
  7  8  1  0
  8  9  1  0
  9 10  1  0
 10 11  2  0
 11 12  1  0
 12 13  2  0
 13 14  1  0
 14 15  2  0
 15 16  1  0
 16 17  1  0
 16 18  2  0
 11 19  1  0
 19 20  2  0
 20 21  1  0
 20 22  1  0
 22 23  2  0
 23 24  1  0
 24 25  2  0
  8 26  1  0
 26 27  1  0
 27  5  1  0
 25  9  1  0
 18 12  1  0
 25 19  1  0
M  END
>  <Compound_ID>  (1034) 
CHEMBL263528

>  <Active>  (1034) 
1.0

>  <Smiles>  (1034) 
NC(=O)CN1CCC(n2cc(-c3cccc(O)c3)c3c(N)ncnc32)CC1

>  <canonical_smi>  (1034) 
NC(=O)CN1CCC(n2cc(-c3cccc(O)c3)c3c(N)ncnc32)CC1

>  <Set>  (1034) 
G2 active

>  <Set_type>  (1034) 
Test

>  <MW>  (1034) 
366.43

>  <HBD>  (1034) 
3

>  <HBA>  (1034) 
6

>  <NRB>  (1034) 
4

>  <NR>  (1034) 
4

>  <NAR>  (1034) 
3

>  <PSA>  (1034) 
123.29

>  <Standard Type>  (1034) 
nan

>  <Standard Relation>  (1034) 
nan

>  <Standard Units>  (1034) 
nan

>  <Standard Value>  (1034) 
nan

>  <Assay ChEMBL ID>  (1034) 
nan

>  <Assay Description>  (1034) 
nan

>  <BAO Label>  (1034) 
nan

$$$$

     RDKit          2D

 36 41  0  0  0  0  0  0  0  0999 V2000
   -1.0344   -8.1310    0.0000 F   0  0  0  0  0  0  0  0  0  0  0  0
   -2.1491   -7.1273    0.0000 C   0  0  0  0  0  0  0  0  0  0  0  0
   -3.5757   -7.5908    0.0000 C   0  0  0  0  0  0  0  0  0  0  0  0
   -4.6904   -6.5871    0.0000 C   0  0  0  0  0  0  0  0  0  0  0  0
   -4.3786   -5.1199    0.0000 C   0  0  0  0  0  0  0  0  0  0  0  0
   -2.9520   -4.6564    0.0000 C   0  0  0  0  0  0  0  0  0  0  0  0
   -2.6401   -3.1891    0.0000 C   0  0  0  0  0  0  0  0  0  0  0  0
   -1.2135   -2.7256    0.0000 N   0  0  0  0  0  0  0  0  0  0  0  0
   -0.0000   -3.6073    0.0000 N   0  0  0  0  0  0  0  0  0  0  0  0
    1.2135   -2.7256    0.0000 C   0  0  0  0  0  0  0  0  0  0  0  0
    0.7500   -1.2990    0.0000 C   0  0  0  0  0  0  0  0  0  0  0  0
    1.5000    0.0000    0.0000 C   0  0  0  0  0  0  0  0  0  0  0  0
    0.7500    1.2990    0.0000 C   0  0  0  0  0  0  0  0  0  0  0  0
    1.5000    2.5981    0.0000 N   0  0  0  0  0  0  0  0  0  0  0  0
    3.0000    2.5981    0.0000 C   0  0  0  0  0  0  0  0  0  0  0  0
    3.7500    1.2990    0.0000 N   0  0  0  0  0  0  0  0  0  0  0  0
    5.2500    1.2990    0.0000 C   0  0  0  0  0  0  0  0  0  0  0  0
    6.0000    2.5981    0.0000 N   0  0  0  0  0  0  0  0  0  0  0  0
    5.2500    3.8971    0.0000 N   0  0  0  0  0  0  0  0  0  0  0  0
    5.7135    5.3237    0.0000 C   0  0  0  0  0  0  0  0  0  0  0  0
    4.5000    6.2054    0.0000 C   0  0  0  0  0  0  0  0  0  0  0  0
    3.2865    5.3237    0.0000 C   0  0  0  0  0  0  0  0  0  0  0  0
    1.8599    5.7872    0.0000 C   0  0  0  0  0  0  0  0  0  0  0  0
    1.5480    7.2544    0.0000 O   0  0  0  0  0  0  0  0  0  0  0  0
    0.1214    7.7180    0.0000 C   0  0  0  0  0  0  0  0  0  0  0  0
   -0.1904    9.1852    0.0000 C   0  0  0  0  0  0  0  0  0  0  0  0
    0.9243   10.1889    0.0000 C   0  0  0  0  0  0  0  0  0  0  0  0
    0.6124   11.6561    0.0000 C   0  0  0  0  0  0  0  0  0  0  0  0
   -0.8142   12.1196    0.0000 C   0  0  0  0  0  0  0  0  0  0  0  0
   -1.9289   11.1159    0.0000 N   0  0  0  0  0  0  0  0  0  0  0  0
   -1.6170    9.6487    0.0000 C   0  0  0  0  0  0  0  0  0  0  0  0
    3.7500    3.8971    0.0000 C   0  0  0  0  0  0  0  0  0  0  0  0
   -0.7500    1.2990    0.0000 C   0  0  0  0  0  0  0  0  0  0  0  0
   -1.5000    0.0000    0.0000 C   0  0  0  0  0  0  0  0  0  0  0  0
   -0.7500   -1.2990    0.0000 C   0  0  0  0  0  0  0  0  0  0  0  0
   -1.8373   -5.6601    0.0000 C   0  0  0  0  0  0  0  0  0  0  0  0
  1  2  1  0
  2  3  2  0
  3  4  1  0
  4  5  2  0
  5  6  1  0
  6  7  1  0
  7  8  1  0
  8  9  1  0
  9 10  2  0
 10 11  1  0
 11 12  2  0
 12 13  1  0
 13 14  1  0
 14 15  1  0
 15 16  2  0
 16 17  1  0
 17 18  2  0
 18 19  1  0
 19 20  1  0
 20 21  2  0
 21 22  1  0
 22 23  1  0
 23 24  1  0
 24 25  1  0
 26 25  1  6
 26 27  1  0
 27 28  1  0
 28 29  1  0
 29 30  1  0
 30 31  1  0
 22 32  2  0
 13 33  2  0
 33 34  1  0
 34 35  2  0
  6 36  2  0
 36  2  1  0
 35  8  1  0
 35 11  1  0
 32 15  1  0
 32 19  1  0
 31 26  1  0
M  END
>  <Compound_ID>  (1035) 
CHEMBL246073

>  <Active>  (1035) 
1.0

>  <Smiles>  (1035) 
Fc1cccc(Cn2ncc3cc(Nc4ncnn5ccc(COC[C@H]6CCCNC6)c45)ccc32)c1

>  <canonical_smi>  (1035) 
Fc1cccc(Cn2ncc3cc(Nc4ncnn5ccc(COC[C@H]6CCCNC6)c45)ccc32)c1

>  <Set>  (1035) 
G2 active

>  <Set_type>  (1035) 
Test

>  <MW>  (1035) 
485.57

>  <HBD>  (1035) 
2

>  <HBA>  (1035) 
6

>  <NRB>  (1035) 
8

>  <NR>  (1035) 
6

>  <NAR>  (1035) 
5

>  <PSA>  (1035) 
81.3

>  <Standard Type>  (1035) 
nan

>  <Standard Relation>  (1035) 
nan

>  <Standard Units>  (1035) 
nan

>  <Standard Value>  (1035) 
nan

>  <Assay ChEMBL ID>  (1035) 
nan

>  <Assay Description>  (1035) 
nan

>  <BAO Label>  (1035) 
nan

$$$$

     RDKit          2D

 31 34  0  0  0  0  0  0  0  0999 V2000
   -5.2500   -3.8971    0.0000 C   0  0  0  0  0  0  0  0  0  0  0  0
   -3.7500   -3.8971    0.0000 O   0  0  0  0  0  0  0  0  0  0  0  0
   -3.0000   -2.5981    0.0000 C   0  0  0  0  0  0  0  0  0  0  0  0
   -1.5000   -2.5981    0.0000 C   0  0  0  0  0  0  0  0  0  0  0  0
   -0.7500   -1.2990    0.0000 C   0  0  0  0  0  0  0  0  0  0  0  0
    0.7500   -1.2990    0.0000 C   0  0  0  0  0  0  0  0  0  0  0  0
    1.5000   -2.5981    0.0000 N   0  0  0  0  0  0  0  0  0  0  0  0
    3.0000   -2.5981    0.0000 C   0  0  0  0  0  0  0  0  0  0  0  0
    3.7500   -3.8971    0.0000 C   0  0  0  0  0  0  0  0  0  0  0  0
    5.2500   -3.8971    0.0000 C   0  0  0  0  0  0  0  0  0  0  0  0
    6.0000   -2.5981    0.0000 C   0  0  0  0  0  0  0  0  0  0  0  0
    7.5000   -2.5981    0.0000 Cl  0  0  0  0  0  0  0  0  0  0  0  0
    5.2500   -1.2990    0.0000 C   0  0  0  0  0  0  0  0  0  0  0  0
    3.7500   -1.2990    0.0000 C   0  0  0  0  0  0  0  0  0  0  0  0
    3.0000   -0.0000    0.0000 F   0  0  0  0  0  0  0  0  0  0  0  0
    1.5000    0.0000    0.0000 N   0  0  0  0  0  0  0  0  0  0  0  0
    0.7500    1.2990    0.0000 C   0  0  0  0  0  0  0  0  0  0  0  0
   -0.7500    1.2990    0.0000 N   0  0  0  0  0  0  0  0  0  0  0  0
   -1.5000    0.0000    0.0000 C   0  0  0  0  0  0  0  0  0  0  0  0
   -3.0000    0.0000    0.0000 C   0  0  0  0  0  0  0  0  0  0  0  0
   -3.7500   -1.2990    0.0000 C   0  0  0  0  0  0  0  0  0  0  0  0
   -5.2500   -1.2990    0.0000 O   0  0  0  0  0  0  0  0  0  0  0  0
   -6.0000    0.0000    0.0000 C   0  0  0  0  0  0  0  0  0  0  0  0
   -7.5000    0.0000    0.0000 C   0  0  0  0  0  0  0  0  0  0  0  0
   -8.2500    1.2990    0.0000 N   0  0  0  0  0  0  0  0  0  0  0  0
   -7.5000    2.5981    0.0000 C   0  0  0  0  0  0  0  0  0  0  0  0
   -8.2500    3.8971    0.0000 C   0  0  0  0  0  0  0  0  0  0  0  0
   -9.7500    3.8971    0.0000 N   0  0  0  0  0  0  0  0  0  0  0  0
  -10.5000    5.1962    0.0000 C   0  0  0  0  0  0  0  0  0  0  0  0
  -10.5000    2.5981    0.0000 C   0  0  0  0  0  0  0  0  0  0  0  0
   -9.7500    1.2990    0.0000 C   0  0  0  0  0  0  0  0  0  0  0  0
  1  2  1  0
  2  3  1  0
  3  4  2  0
  4  5  1  0
  5  6  2  0
  6  7  1  0
  7  8  1  0
  8  9  2  0
  9 10  1  0
 10 11  2  0
 11 12  1  0
 11 13  1  0
 13 14  2  0
 14 15  1  0
  6 16  1  0
 16 17  2  0
 17 18  1  0
 18 19  2  0
 19 20  1  0
 20 21  2  0
 21 22  1  0
 22 23  1  0
 23 24  1  0
 24 25  1  0
 25 26  1  0
 26 27  1  0
 27 28  1  0
 28 29  1  0
 28 30  1  0
 30 31  1  0
 21  3  1  0
 31 25  1  0
 19  5  1  0
 14  8  1  0
M  END
>  <Compound_ID>  (1036) 
CHEMBL283088

>  <Active>  (1036) 
1.0

>  <Smiles>  (1036) 
COc1cc2c(Nc3ccc(Cl)cc3F)ncnc2cc1OCCN1CCN(C)CC1

>  <canonical_smi>  (1036) 
COc1cc2c(Nc3ccc(Cl)cc3F)ncnc2cc1OCCN1CCN(C)CC1

>  <Set>  (1036) 
G2 active

>  <Set_type>  (1036) 
Test

>  <MW>  (1036) 
445.93

>  <HBD>  (1036) 
1

>  <HBA>  (1036) 
7

>  <NRB>  (1036) 
7

>  <NR>  (1036) 
4

>  <NAR>  (1036) 
3

>  <PSA>  (1036) 
62.75

>  <Standard Type>  (1036) 
nan

>  <Standard Relation>  (1036) 
nan

>  <Standard Units>  (1036) 
nan

>  <Standard Value>  (1036) 
nan

>  <Assay ChEMBL ID>  (1036) 
nan

>  <Assay Description>  (1036) 
nan

>  <BAO Label>  (1036) 
nan

$$$$

     RDKit          2D

 30 33  0  0  0  0  0  0  0  0999 V2000
   -0.7500   -3.8971    0.0000 O   0  0  0  0  0  0  0  0  0  0  0  0
    0.7500   -3.8971    0.0000 C   0  0  0  0  0  0  0  0  0  0  0  0
    1.5000   -5.1962    0.0000 C   0  0  0  0  0  0  0  0  0  0  0  0
    0.7500   -6.4952    0.0000 C   0  0  0  0  0  0  0  0  0  0  0  0
    1.5000   -7.7942    0.0000 C   0  0  0  0  0  0  0  0  0  0  0  0
    0.7500   -9.0933    0.0000 N   0  0  0  0  0  0  0  0  0  0  0  0
   -0.7500   -9.0933    0.0000 C   0  0  0  0  0  0  0  0  0  0  0  0
   -1.5000  -10.3923    0.0000 C   0  0  0  0  0  0  0  0  0  0  0  0
   -0.7500  -11.6913    0.0000 S   0  0  0  0  0  0  0  0  0  0  0  0
    0.7500  -11.6913    0.0000 C   0  0  0  0  0  0  0  0  0  0  0  0
    1.5000  -10.3923    0.0000 C   0  0  0  0  0  0  0  0  0  0  0  0
    1.5000   -2.5981    0.0000 N   0  0  0  0  0  0  0  0  0  0  0  0
    0.7500   -1.2990    0.0000 C   0  0  0  0  0  0  0  0  0  0  0  0
    1.5000    0.0000    0.0000 C   0  0  0  0  0  0  0  0  0  0  0  0
    0.7500    1.2990    0.0000 C   0  0  0  0  0  0  0  0  0  0  0  0
   -0.7500    1.2990    0.0000 C   0  0  0  0  0  0  0  0  0  0  0  0
   -1.5000    2.5981    0.0000 N   0  0  0  0  0  0  0  0  0  0  0  0
   -3.0000    2.5981    0.0000 C   0  0  0  0  0  0  0  0  0  0  0  0
   -3.7500    1.2990    0.0000 N   0  0  0  0  0  0  0  0  0  0  0  0
   -3.0000    0.0000    0.0000 C   0  0  0  0  0  0  0  0  0  0  0  0
   -3.7500   -1.2990    0.0000 N   0  0  0  0  0  0  0  0  0  0  0  0
   -5.2500   -1.2990    0.0000 C   0  0  0  0  0  0  0  0  0  0  0  0
   -6.0000    0.0000    0.0000 C   0  0  0  0  0  0  0  0  0  0  0  0
   -7.5000    0.0000    0.0000 C   0  0  0  0  0  0  0  0  0  0  0  0
   -8.2500   -1.2990    0.0000 C   0  0  0  0  0  0  0  0  0  0  0  0
   -7.5000   -2.5981    0.0000 C   0  0  0  0  0  0  0  0  0  0  0  0
   -8.2500   -3.8971    0.0000 Br  0  0  0  0  0  0  0  0  0  0  0  0
   -6.0000   -2.5981    0.0000 C   0  0  0  0  0  0  0  0  0  0  0  0
   -1.5000    0.0000    0.0000 C   0  0  0  0  0  0  0  0  0  0  0  0
   -0.7500   -1.2990    0.0000 C   0  0  0  0  0  0  0  0  0  0  0  0
  1  2  2  0
  2  3  1  0
  3  4  2  0
  4  5  1  0
  5  6  1  0
  6  7  1  0
  7  8  1  0
  8  9  1  0
  9 10  1  0
 10 11  1  0
  2 12  1  0
 12 13  1  0
 13 14  2  0
 14 15  1  0
 15 16  2  0
 16 17  1  0
 17 18  2  0
 18 19  1  0
 19 20  2  0
 20 21  1  0
 21 22  1  0
 22 23  2  0
 23 24  1  0
 24 25  2  0
 25 26  1  0
 26 27  1  0
 26 28  2  0
 20 29  1  0
 29 30  2  0
 11  6  1  0
 30 13  1  0
 29 16  1  0
 28 22  1  0
M  END
>  <Compound_ID>  (1037) 
CHEMBL93537

>  <Active>  (1037) 
1.0

>  <Smiles>  (1037) 
O=C(/C=C/CN1CCSCC1)Nc1ccc2ncnc(Nc3cccc(Br)c3)c2c1

>  <canonical_smi>  (1037) 
O=C(/C=C/CN1CCSCC1)Nc1ccc2ncnc(Nc3cccc(Br)c3)c2c1

>  <Set>  (1037) 
G2 active

>  <Set_type>  (1037) 
Test

>  <MW>  (1037) 
484.42

>  <HBD>  (1037) 
2

>  <HBA>  (1037) 
6

>  <NRB>  (1037) 
6

>  <NR>  (1037) 
4

>  <NAR>  (1037) 
3

>  <PSA>  (1037) 
70.15

>  <Standard Type>  (1037) 
nan

>  <Standard Relation>  (1037) 
nan

>  <Standard Units>  (1037) 
nan

>  <Standard Value>  (1037) 
nan

>  <Assay ChEMBL ID>  (1037) 
nan

>  <Assay Description>  (1037) 
nan

>  <BAO Label>  (1037) 
nan

$$$$

     RDKit          2D

 37 42  0  0  0  0  0  0  0  0999 V2000
   -1.0344   -8.1310    0.0000 F   0  0  0  0  0  0  0  0  0  0  0  0
   -2.1491   -7.1273    0.0000 C   0  0  0  0  0  0  0  0  0  0  0  0
   -3.5757   -7.5908    0.0000 C   0  0  0  0  0  0  0  0  0  0  0  0
   -4.6904   -6.5871    0.0000 C   0  0  0  0  0  0  0  0  0  0  0  0
   -4.3786   -5.1199    0.0000 C   0  0  0  0  0  0  0  0  0  0  0  0
   -2.9520   -4.6564    0.0000 C   0  0  0  0  0  0  0  0  0  0  0  0
   -2.6401   -3.1891    0.0000 C   0  0  0  0  0  0  0  0  0  0  0  0
   -1.2135   -2.7256    0.0000 N   0  0  0  0  0  0  0  0  0  0  0  0
   -0.0000   -3.6073    0.0000 N   0  0  0  0  0  0  0  0  0  0  0  0
    1.2135   -2.7256    0.0000 C   0  0  0  0  0  0  0  0  0  0  0  0
    0.7500   -1.2990    0.0000 C   0  0  0  0  0  0  0  0  0  0  0  0
    1.5000    0.0000    0.0000 C   0  0  0  0  0  0  0  0  0  0  0  0
    0.7500    1.2990    0.0000 C   0  0  0  0  0  0  0  0  0  0  0  0
    1.5000    2.5981    0.0000 N   0  0  0  0  0  0  0  0  0  0  0  0
    3.0000    2.5981    0.0000 C   0  0  0  0  0  0  0  0  0  0  0  0
    3.7500    1.2990    0.0000 N   0  0  0  0  0  0  0  0  0  0  0  0
    5.2500    1.2990    0.0000 C   0  0  0  0  0  0  0  0  0  0  0  0
    6.0000    2.5981    0.0000 N   0  0  0  0  0  0  0  0  0  0  0  0
    5.2500    3.8971    0.0000 N   0  0  0  0  0  0  0  0  0  0  0  0
    5.7135    5.3237    0.0000 C   0  0  0  0  0  0  0  0  0  0  0  0
    4.5000    6.2054    0.0000 C   0  0  0  0  0  0  0  0  0  0  0  0
    3.2865    5.3237    0.0000 C   0  0  0  0  0  0  0  0  0  0  0  0
    1.8599    5.7872    0.0000 C   0  0  0  0  0  0  0  0  0  0  0  0
    1.5480    7.2544    0.0000 O   0  0  0  0  0  0  0  0  0  0  0  0
    0.1214    7.7180    0.0000 C   0  0  0  0  0  0  0  0  0  0  0  0
   -0.1904    9.1852    0.0000 C   0  0  0  0  0  0  0  0  0  0  0  0
   -1.6477    9.5408    0.0000 C   0  0  0  0  0  0  0  0  0  0  0  0
   -2.2782   10.9019    0.0000 N   0  0  0  0  0  0  0  0  0  0  0  0
   -1.6072   12.2434    0.0000 C   0  0  0  0  0  0  0  0  0  0  0  0
   -0.1400   12.5553    0.0000 C   0  0  0  0  0  0  0  0  0  0  0  0
    1.0186   11.6026    0.0000 O   0  0  0  0  0  0  0  0  0  0  0  0
    0.9962   10.1028    0.0000 C   0  0  0  0  0  0  0  0  0  0  0  0
    3.7500    3.8971    0.0000 C   0  0  0  0  0  0  0  0  0  0  0  0
   -0.7500    1.2990    0.0000 C   0  0  0  0  0  0  0  0  0  0  0  0
   -1.5000    0.0000    0.0000 C   0  0  0  0  0  0  0  0  0  0  0  0
   -0.7500   -1.2990    0.0000 C   0  0  0  0  0  0  0  0  0  0  0  0
   -1.8373   -5.6601    0.0000 C   0  0  0  0  0  0  0  0  0  0  0  0
  1  2  1  0
  2  3  2  0
  3  4  1  0
  4  5  2  0
  5  6  1  0
  6  7  1  0
  7  8  1  0
  8  9  1  0
  9 10  2  0
 10 11  1  0
 11 12  2  0
 12 13  1  0
 13 14  1  0
 14 15  1  0
 15 16  2  0
 16 17  1  0
 17 18  2  0
 18 19  1  0
 19 20  1  0
 20 21  2  0
 21 22  1  0
 22 23  1  0
 23 24  1  0
 24 25  1  0
 25 26  1  0
 26 27  1  0
 27 28  1  0
 28 29  1  0
 29 30  1  0
 30 31  1  0
 31 32  1  0
 22 33  2  0
 13 34  2  0
 34 35  1  0
 35 36  2  0
  6 37  2  0
 37  2  1  0
 36  8  1  0
 36 11  1  0
 33 15  1  0
 33 19  1  0
 32 26  1  0
M  END
>  <Compound_ID>  (1038) 
CHEMBL395591

>  <Active>  (1038) 
1.0

>  <Smiles>  (1038) 
Fc1cccc(Cn2ncc3cc(Nc4ncnn5ccc(COCC6CNCCOC6)c45)ccc32)c1

>  <canonical_smi>  (1038) 
Fc1cccc(Cn2ncc3cc(Nc4ncnn5ccc(COCC6CNCCOC6)c45)ccc32)c1

>  <Set>  (1038) 
G2 active

>  <Set_type>  (1038) 
Test

>  <MW>  (1038) 
501.57

>  <HBD>  (1038) 
2

>  <HBA>  (1038) 
7

>  <NRB>  (1038) 
8

>  <NR>  (1038) 
6

>  <NAR>  (1038) 
5

>  <PSA>  (1038) 
90.53

>  <Standard Type>  (1038) 
nan

>  <Standard Relation>  (1038) 
nan

>  <Standard Units>  (1038) 
nan

>  <Standard Value>  (1038) 
nan

>  <Assay ChEMBL ID>  (1038) 
nan

>  <Assay Description>  (1038) 
nan

>  <BAO Label>  (1038) 
nan

$$$$

     RDKit          2D

 36 41  0  0  0  0  0  0  0  0999 V2000
   -2.5459   -9.4837    0.0000 O   0  0  0  0  0  0  0  0  0  0  0  0
   -2.9016   -8.0265    0.0000 C   0  0  0  0  0  0  0  0  0  0  0  0
   -1.7429   -7.0738    0.0000 C   0  0  0  0  0  0  0  0  0  0  0  0
   -1.7654   -5.5740    0.0000 C   0  0  0  0  0  0  0  0  0  0  0  0
   -2.9520   -4.6564    0.0000 N   0  0  0  0  0  0  0  0  0  0  0  0
   -2.6401   -3.1891    0.0000 C   0  0  0  0  0  0  0  0  0  0  0  0
   -1.2135   -2.7256    0.0000 C   0  0  0  0  0  0  0  0  0  0  0  0
   -0.0000   -3.6073    0.0000 C   0  0  0  0  0  0  0  0  0  0  0  0
    1.2135   -2.7256    0.0000 C   0  0  0  0  0  0  0  0  0  0  0  0
    0.7500   -1.2990    0.0000 N   0  0  0  0  0  0  0  0  0  0  0  0
    1.5000    0.0000    0.0000 N   0  0  0  0  0  0  0  0  0  0  0  0
    0.7500    1.2990    0.0000 C   0  0  0  0  0  0  0  0  0  0  0  0
   -0.7500    1.2990    0.0000 N   0  0  0  0  0  0  0  0  0  0  0  0
   -1.5000    0.0000    0.0000 C   0  0  0  0  0  0  0  0  0  0  0  0
   -3.0000    0.0000    0.0000 N   0  0  0  0  0  0  0  0  0  0  0  0
   -3.7500    1.2990    0.0000 C   0  0  0  0  0  0  0  0  0  0  0  0
   -3.0000    2.5981    0.0000 C   0  0  0  0  0  0  0  0  0  0  0  0
   -3.7500    3.8971    0.0000 C   0  0  0  0  0  0  0  0  0  0  0  0
   -5.2500    3.8971    0.0000 C   0  0  0  0  0  0  0  0  0  0  0  0
   -6.0000    2.5981    0.0000 C   0  0  0  0  0  0  0  0  0  0  0  0
   -7.4672    2.9099    0.0000 C   0  0  0  0  0  0  0  0  0  0  0  0
   -7.6240    4.4017    0.0000 N   0  0  0  0  0  0  0  0  0  0  0  0
   -6.2537    5.0118    0.0000 N   0  0  0  0  0  0  0  0  0  0  0  0
   -5.9418    6.4791    0.0000 C   0  0  0  0  0  0  0  0  0  0  0  0
   -7.0565    7.4827    0.0000 C   0  0  0  0  0  0  0  0  0  0  0  0
   -6.7447    8.9500    0.0000 C   0  0  0  0  0  0  0  0  0  0  0  0
   -7.8594    9.9537    0.0000 C   0  0  0  0  0  0  0  0  0  0  0  0
   -9.2860    9.4901    0.0000 C   0  0  0  0  0  0  0  0  0  0  0  0
   -9.5978    8.0229    0.0000 C   0  0  0  0  0  0  0  0  0  0  0  0
  -11.0244    7.5594    0.0000 F   0  0  0  0  0  0  0  0  0  0  0  0
   -8.4831    7.0192    0.0000 C   0  0  0  0  0  0  0  0  0  0  0  0
   -5.2500    1.2990    0.0000 C   0  0  0  0  0  0  0  0  0  0  0  0
   -0.7500   -1.2990    0.0000 C   0  0  0  0  0  0  0  0  0  0  0  0
   -4.4092   -5.0120    0.0000 C   0  0  0  0  0  0  0  0  0  0  0  0
   -5.0397   -6.3730    0.0000 C   0  0  0  0  0  0  0  0  0  0  0  0
   -4.3688   -7.7146    0.0000 N   0  0  0  0  0  0  0  0  0  0  0  0
  1  2  2  0
  2  3  1  0
  3  4  1  0
  4  5  1  0
  5  6  1  0
  6  7  1  0
  7  8  1  0
  8  9  2  0
  9 10  1  0
 10 11  1  0
 11 12  2  0
 12 13  1  0
 13 14  2  0
 14 15  1  0
 15 16  1  0
 16 17  2  0
 17 18  1  0
 18 19  2  0
 19 20  1  0
 20 21  1  0
 21 22  2  0
 22 23  1  0
 23 24  1  0
 24 25  1  0
 25 26  2  0
 26 27  1  0
 27 28  2  0
 28 29  1  0
 29 30  1  0
 29 31  2  0
 20 32  2  0
 14 33  1  0
  5 34  1  0
 34 35  1  0
 35 36  1  0
 36  2  1  0
 33  7  2  0
 33 10  1  0
 32 16  1  0
 23 19  1  0
 31 25  1  0
M  END
>  <Compound_ID>  (1039) 
CHEMBL233324

>  <Active>  (1039) 
1.0

>  <Smiles>  (1039) 
O=C1CCN(Cc2ccn3ncnc(Nc4ccc5c(cnn5Cc5cccc(F)c5)c4)c23)CCN1

>  <canonical_smi>  (1039) 
O=C1CCN(Cc2ccn3ncnc(Nc4ccc5c(cnn5Cc5cccc(F)c5)c4)c23)CCN1

>  <Set>  (1039) 
G2 active

>  <Set_type>  (1039) 
Test

>  <MW>  (1039) 
484.54

>  <HBD>  (1039) 
2

>  <HBA>  (1039) 
6

>  <NRB>  (1039) 
6

>  <NR>  (1039) 
6

>  <NAR>  (1039) 
5

>  <PSA>  (1039) 
92.38

>  <Standard Type>  (1039) 
nan

>  <Standard Relation>  (1039) 
nan

>  <Standard Units>  (1039) 
nan

>  <Standard Value>  (1039) 
nan

>  <Assay ChEMBL ID>  (1039) 
nan

>  <Assay Description>  (1039) 
nan

>  <BAO Label>  (1039) 
nan

$$$$

     RDKit          2D

 39 43  0  0  0  0  0  0  0  0999 V2000
   -2.6401   -3.1891    0.0000 C   0  0  0  0  0  0  0  0  0  0  0  0
   -1.2135   -2.7256    0.0000 C   0  0  0  0  0  0  0  0  0  0  0  0
   -0.0000   -3.6073    0.0000 C   0  0  0  0  0  0  0  0  0  0  0  0
   -0.0000   -5.1073    0.0000 C   0  0  0  0  0  0  0  0  0  0  0  0
   -1.2990   -5.8573    0.0000 O   0  0  0  0  0  0  0  0  0  0  0  0
    1.2990   -5.8573    0.0000 N   0  0  0  0  0  0  0  0  0  0  0  0
    1.2990   -7.3573    0.0000 C   0  0  0  0  0  0  0  0  0  0  0  0
    2.5981   -8.1073    0.0000 C   0  0  0  0  0  0  0  0  0  0  0  0
    2.5981   -9.6073    0.0000 N   0  0  0  0  0  0  0  0  0  0  0  0
    1.2990  -10.3573    0.0000 C   0  0  0  0  0  0  0  0  0  0  0  0
    1.2990  -11.8573    0.0000 C   0  0  0  0  0  0  0  0  0  0  0  0
    2.5981  -12.6073    0.0000 N   0  0  0  0  0  0  0  0  0  0  0  0
    2.5981  -14.1073    0.0000 C   0  0  0  0  0  0  0  0  0  0  0  0
    3.8971  -11.8573    0.0000 C   0  0  0  0  0  0  0  0  0  0  0  0
    3.8971  -10.3573    0.0000 C   0  0  0  0  0  0  0  0  0  0  0  0
    1.2135   -2.7256    0.0000 N   0  0  0  0  0  0  0  0  0  0  0  0
    0.7500   -1.2990    0.0000 C   0  0  0  0  0  0  0  0  0  0  0  0
    1.5000    0.0000    0.0000 C   0  0  0  0  0  0  0  0  0  0  0  0
    0.7500    1.2990    0.0000 N   0  0  0  0  0  0  0  0  0  0  0  0
   -0.7500    1.2990    0.0000 N   0  0  0  0  0  0  0  0  0  0  0  0
   -1.5000    0.0000    0.0000 C   0  0  0  0  0  0  0  0  0  0  0  0
   -3.0000    0.0000    0.0000 N   0  0  0  0  0  0  0  0  0  0  0  0
   -3.7500    1.2990    0.0000 C   0  0  0  0  0  0  0  0  0  0  0  0
   -3.0000    2.5981    0.0000 C   0  0  0  0  0  0  0  0  0  0  0  0
   -3.7500    3.8971    0.0000 C   0  0  0  0  0  0  0  0  0  0  0  0
   -5.2500    3.8971    0.0000 C   0  0  0  0  0  0  0  0  0  0  0  0
   -6.0000    5.1962    0.0000 O   0  0  0  0  0  0  0  0  0  0  0  0
   -5.2500    6.4952    0.0000 C   0  0  0  0  0  0  0  0  0  0  0  0
   -6.0000    7.7942    0.0000 C   0  0  0  0  0  0  0  0  0  0  0  0
   -5.2500    9.0933    0.0000 C   0  0  0  0  0  0  0  0  0  0  0  0
   -6.0000   10.3923    0.0000 C   0  0  0  0  0  0  0  0  0  0  0  0
   -7.5000   10.3923    0.0000 C   0  0  0  0  0  0  0  0  0  0  0  0
   -8.2500    9.0933    0.0000 C   0  0  0  0  0  0  0  0  0  0  0  0
   -9.7500    9.0933    0.0000 F   0  0  0  0  0  0  0  0  0  0  0  0
   -7.5000    7.7942    0.0000 C   0  0  0  0  0  0  0  0  0  0  0  0
   -6.0000    2.5981    0.0000 C   0  0  0  0  0  0  0  0  0  0  0  0
   -7.5000    2.5981    0.0000 Cl  0  0  0  0  0  0  0  0  0  0  0  0
   -5.2500    1.2990    0.0000 C   0  0  0  0  0  0  0  0  0  0  0  0
   -0.7500   -1.2990    0.0000 C   0  0  0  0  0  0  0  0  0  0  0  0
  1  2  1  0
  2  3  2  0
  3  4  1  0
  4  5  2  0
  4  6  1  0
  6  7  1  0
  7  8  1  0
  8  9  1  0
  9 10  1  0
 10 11  1  0
 11 12  1  0
 12 13  1  0
 12 14  1  0
 14 15  1  0
  3 16  1  0
 16 17  1  0
 17 18  2  0
 18 19  1  0
 19 20  2  0
 20 21  1  0
 21 22  1  0
 22 23  1  0
 23 24  2  0
 24 25  1  0
 25 26  2  0
 26 27  1  0
 27 28  1  0
 28 29  1  0
 29 30  2  0
 30 31  1  0
 31 32  2  0
 32 33  1  0
 33 34  1  0
 33 35  2  0
 26 36  1  0
 36 37  1  0
 36 38  2  0
 21 39  2  0
 39  2  1  0
 15  9  1  0
 39 17  1  0
 38 23  1  0
 35 29  1  0
M  END
>  <Compound_ID>  (1040) 
CHEMBL1082012

>  <Active>  (1040) 
1.0

>  <Smiles>  (1040) 
Cc1c(C(=O)NCCN2CCN(C)CC2)[nH]c2cnnc(Nc3ccc(OCc4cccc(F)c4)c(Cl)c3)c12

>  <canonical_smi>  (1040) 
Cc1c(C(=O)NCCN2CCN(C)CC2)[nH]c2cnnc(Nc3ccc(OCc4cccc(F)c4)c(Cl)c3)c12

>  <Set>  (1040) 
G2 active

>  <Set_type>  (1040) 
Test

>  <MW>  (1040) 
552.05

>  <HBD>  (1040) 
3

>  <HBA>  (1040) 
7

>  <NRB>  (1040) 
9

>  <NR>  (1040) 
5

>  <NAR>  (1040) 
4

>  <PSA>  (1040) 
98.41

>  <Standard Type>  (1040) 
nan

>  <Standard Relation>  (1040) 
nan

>  <Standard Units>  (1040) 
nan

>  <Standard Value>  (1040) 
nan

>  <Assay ChEMBL ID>  (1040) 
nan

>  <Assay Description>  (1040) 
nan

>  <BAO Label>  (1040) 
nan

$$$$

     RDKit          2D

 39 42  0  0  0  0  0  0  0  0999 V2000
    5.2500   -1.2990    0.0000 C   0  0  0  0  0  0  0  0  0  0  0  0
    3.7500   -1.2990    0.0000 C   0  0  0  0  0  0  0  0  0  0  0  0
    3.0000    0.0000    0.0000 O   0  0  0  0  0  0  0  0  0  0  0  0
    1.5000    0.0000    0.0000 C   0  0  0  0  0  0  0  0  0  0  0  0
    0.7500   -1.2990    0.0000 C   0  0  0  0  0  0  0  0  0  0  0  0
   -0.7500   -1.2990    0.0000 C   0  0  0  0  0  0  0  0  0  0  0  0
   -1.5000   -2.5981    0.0000 N   0  0  0  0  0  0  0  0  0  0  0  0
   -3.0000   -2.5981    0.0000 C   0  0  0  0  0  0  0  0  0  0  0  0
   -3.7500   -1.2990    0.0000 C   0  0  0  0  0  0  0  0  0  0  0  0
   -5.2500   -1.2990    0.0000 C   0  0  0  0  0  0  0  0  0  0  0  0
   -6.7500   -1.2990    0.0000 N   0  0  0  0  0  0  0  0  0  0  0  0
   -3.0000    0.0000    0.0000 C   0  0  0  0  0  0  0  0  0  0  0  0
   -3.7500    1.2990    0.0000 N   0  0  0  0  0  0  0  0  0  0  0  0
   -3.0000    2.5981    0.0000 C   0  0  0  0  0  0  0  0  0  0  0  0
   -1.5000    2.5981    0.0000 C   0  0  0  0  0  0  0  0  0  0  0  0
   -0.7500    3.8971    0.0000 C   0  0  0  0  0  0  0  0  0  0  0  0
   -1.5000    5.1962    0.0000 C   0  0  0  0  0  0  0  0  0  0  0  0
   -0.7500    6.4952    0.0000 O   0  0  0  0  0  0  0  0  0  0  0  0
    0.7500    6.4952    0.0000 C   0  0  0  0  0  0  0  0  0  0  0  0
    1.5000    7.7942    0.0000 C   0  0  0  0  0  0  0  0  0  0  0  0
    0.8899    9.1645    0.0000 C   0  0  0  0  0  0  0  0  0  0  0  0
    2.0046   10.1682    0.0000 C   0  0  0  0  0  0  0  0  0  0  0  0
    3.3037    9.4182    0.0000 C   0  0  0  0  0  0  0  0  0  0  0  0
    2.9918    7.9510    0.0000 S   0  0  0  0  0  0  0  0  0  0  0  0
   -3.0000    5.1962    0.0000 C   0  0  0  0  0  0  0  0  0  0  0  0
   -3.7500    6.4952    0.0000 Cl  0  0  0  0  0  0  0  0  0  0  0  0
   -3.7500    3.8971    0.0000 C   0  0  0  0  0  0  0  0  0  0  0  0
   -1.5000    0.0000    0.0000 C   0  0  0  0  0  0  0  0  0  0  0  0
   -0.7500    1.2990    0.0000 C   0  0  0  0  0  0  0  0  0  0  0  0
    0.7500    1.2990    0.0000 C   0  0  0  0  0  0  0  0  0  0  0  0
    1.5000    2.5981    0.0000 N   0  0  0  0  0  0  0  0  0  0  0  0
    3.0000    2.5981    0.0000 C   0  0  0  0  0  0  0  0  0  0  0  0
    3.7500    1.2990    0.0000 O   0  0  0  0  0  0  0  0  0  0  0  0
    3.7500    3.8971    0.0000 C   0  0  0  0  0  0  0  0  0  0  0  0
    5.2500    3.8971    0.0000 C   0  0  0  0  0  0  0  0  0  0  0  0
    6.0000    5.1962    0.0000 C   0  0  0  0  0  0  0  0  0  0  0  0
    7.5000    5.1962    0.0000 N   0  0  0  0  0  0  0  0  0  0  0  0
    8.2500    6.4952    0.0000 C   0  0  0  0  0  0  0  0  0  0  0  0
    8.2500    3.8971    0.0000 C   0  0  0  0  0  0  0  0  0  0  0  0
  1  2  1  0
  2  3  1  0
  3  4  1  0
  4  5  2  0
  5  6  1  0
  6  7  2  0
  7  8  1  0
  8  9  2  0
  9 10  1  0
 10 11  3  0
  9 12  1  0
 12 13  1  0
 13 14  1  0
 14 15  2  0
 15 16  1  0
 16 17  2  0
 17 18  1  0
 18 19  1  0
 19 20  1  0
 20 21  2  0
 21 22  1  0
 22 23  2  0
 23 24  1  0
 17 25  1  0
 25 26  1  0
 25 27  2  0
 12 28  2  0
 28 29  1  0
 29 30  2  0
 30 31  1  0
 31 32  1  0
 32 33  2  0
 32 34  1  0
 34 35  2  0
 35 36  1  0
 36 37  1  0
 37 38  1  0
 37 39  1  0
 30  4  1  0
 28  6  1  0
 27 14  1  0
 24 20  1  0
M  END
>  <Compound_ID>  (1041) 
CHEMBL426051

>  <Active>  (1041) 
1.0

>  <Smiles>  (1041) 
CCOc1cc2ncc(C#N)c(Nc3ccc(OCc4cccs4)c(Cl)c3)c2cc1NC(=O)/C=C/CN(C)C

>  <canonical_smi>  (1041) 
CCOc1cc2ncc(C#N)c(Nc3ccc(OCc4cccs4)c(Cl)c3)c2cc1NC(=O)/C=C/CN(C)C

>  <Set>  (1041) 
G2 active

>  <Set_type>  (1041) 
Test

>  <MW>  (1041) 
562.1

>  <HBD>  (1041) 
2

>  <HBA>  (1041) 
7

>  <NRB>  (1041) 
11

>  <NR>  (1041) 
4

>  <NAR>  (1041) 
4

>  <PSA>  (1041) 
99.51

>  <Standard Type>  (1041) 
nan

>  <Standard Relation>  (1041) 
nan

>  <Standard Units>  (1041) 
nan

>  <Standard Value>  (1041) 
nan

>  <Assay ChEMBL ID>  (1041) 
nan

>  <Assay Description>  (1041) 
nan

>  <BAO Label>  (1041) 
nan

$$$$

     RDKit          2D

 35 40  0  0  0  0  0  0  0  0999 V2000
   -2.2500   -6.4952    0.0000 N   0  0  0  0  0  0  0  0  0  0  0  0
   -1.5000   -5.1962    0.0000 C   0  0  0  0  0  0  0  0  0  0  0  0
   -0.7500   -3.8971    0.0000 C   0  0  0  0  0  0  0  0  0  0  0  0
    0.7500   -3.8971    0.0000 C   0  0  0  0  0  0  0  0  0  0  0  0
    1.5000   -2.5981    0.0000 N   0  0  0  0  0  0  0  0  0  0  0  0
    0.7500   -1.2990    0.0000 C   0  0  0  0  0  0  0  0  0  0  0  0
    1.5000    0.0000    0.0000 C   0  0  0  0  0  0  0  0  0  0  0  0
    0.7500    1.2990    0.0000 C   0  0  0  0  0  0  0  0  0  0  0  0
   -0.7500    1.2990    0.0000 C   0  0  0  0  0  0  0  0  0  0  0  0
   -1.5000    2.5981    0.0000 C   0  0  0  0  0  0  0  0  0  0  0  0
   -0.7500    3.8971    0.0000 C   0  0  0  0  0  0  0  0  0  0  0  0
   -1.5000    5.1962    0.0000 C   0  0  0  0  0  0  0  0  0  0  0  0
   -3.0000    5.1962    0.0000 C   0  0  0  0  0  0  0  0  0  0  0  0
   -3.7500    3.8971    0.0000 C   0  0  0  0  0  0  0  0  0  0  0  0
   -5.2500    3.8971    0.0000 C   0  0  0  0  0  0  0  0  0  0  0  0
   -6.0000    5.1962    0.0000 N   0  0  0  0  0  0  0  0  0  0  0  0
   -5.2500    6.4952    0.0000 C   0  0  0  0  0  0  0  0  0  0  0  0
   -6.0000    7.7942    0.0000 C   0  0  0  0  0  0  0  0  0  0  0  0
   -7.5000    7.7942    0.0000 O   0  0  0  0  0  0  0  0  0  0  0  0
   -8.2500    6.4952    0.0000 C   0  0  0  0  0  0  0  0  0  0  0  0
   -7.5000    5.1962    0.0000 C   0  0  0  0  0  0  0  0  0  0  0  0
   -3.0000    2.5981    0.0000 C   0  0  0  0  0  0  0  0  0  0  0  0
   -1.5000    0.0000    0.0000 C   0  0  0  0  0  0  0  0  0  0  0  0
   -0.7500   -1.2990    0.0000 C   0  0  0  0  0  0  0  0  0  0  0  0
   -1.5000   -2.5981    0.0000 C   0  0  0  0  0  0  0  0  0  0  0  0
   -3.0000   -2.5981    0.0000 N   0  0  0  0  0  0  0  0  0  0  0  0
   -3.7500   -3.8971    0.0000 C   0  0  0  0  0  0  0  0  0  0  0  0
   -3.7500   -5.3971    0.0000 C   0  0  0  0  0  0  0  0  0  0  0  0
   -5.0490   -4.6471    0.0000 C   0  0  0  0  0  0  0  0  0  0  0  0
   -6.5490   -4.6471    0.0000 C   0  0  0  0  0  0  0  0  0  0  0  0
   -7.2990   -3.3481    0.0000 C   0  0  0  0  0  0  0  0  0  0  0  0
   -8.7990   -3.3481    0.0000 C   0  0  0  0  0  0  0  0  0  0  0  0
   -9.5490   -4.6471    0.0000 C   0  0  0  0  0  0  0  0  0  0  0  0
   -8.7990   -5.9462    0.0000 C   0  0  0  0  0  0  0  0  0  0  0  0
   -7.2990   -5.9462    0.0000 C   0  0  0  0  0  0  0  0  0  0  0  0
  1  2  3  0
  2  3  1  0
  3  4  2  0
  4  5  1  0
  5  6  2  0
  6  7  1  0
  7  8  2  0
  8  9  1  0
  9 10  1  0
 10 11  2  0
 11 12  1  0
 12 13  2  0
 13 14  1  0
 14 15  1  0
 15 16  1  0
 16 17  1  0
 17 18  1  0
 18 19  1  0
 19 20  1  0
 20 21  1  0
 14 22  2  0
  9 23  2  0
 23 24  1  0
 24 25  2  0
 25 26  1  0
 27 26  1  6
 27 28  1  0
 28 29  1  0
 29 30  1  1
 30 31  2  0
 31 32  1  0
 32 33  2  0
 33 34  1  0
 34 35  2  0
 25  3  1  0
 29 27  1  0
 35 30  1  0
 24  6  1  0
 22 10  1  0
 21 16  1  0
M  END
>  <Compound_ID>  (1042) 
CHEMBL245799

>  <Active>  (1042) 
1.0

>  <Smiles>  (1042) 
N#Cc1cnc2ccc(-c3cccc(CN4CCOCC4)c3)cc2c1N[C@@H]1C[C@H]1c1ccccc1

>  <canonical_smi>  (1042) 
N#Cc1cnc2ccc(-c3cccc(CN4CCOCC4)c3)cc2c1N[C@@H]1C[C@H]1c1ccccc1

>  <Set>  (1042) 
G2 active

>  <Set_type>  (1042) 
Test

>  <MW>  (1042) 
460.58

>  <HBD>  (1042) 
1

>  <HBA>  (1042) 
5

>  <NRB>  (1042) 
6

>  <NR>  (1042) 
6

>  <NAR>  (1042) 
4

>  <PSA>  (1042) 
61.18

>  <Standard Type>  (1042) 
nan

>  <Standard Relation>  (1042) 
nan

>  <Standard Units>  (1042) 
nan

>  <Standard Value>  (1042) 
nan

>  <Assay ChEMBL ID>  (1042) 
nan

>  <Assay Description>  (1042) 
nan

>  <BAO Label>  (1042) 
nan

$$$$

     RDKit          2D

 35 40  0  0  0  0  0  0  0  0999 V2000
   -6.1170   -7.0506    0.0000 O   0  0  0  0  0  0  0  0  0  0  0  0
   -4.6904   -6.5871    0.0000 C   0  0  0  0  0  0  0  0  0  0  0  0
   -4.3786   -5.1199    0.0000 C   0  0  0  0  0  0  0  0  0  0  0  0
   -2.9520   -4.6564    0.0000 N   0  0  0  0  0  0  0  0  0  0  0  0
   -2.6401   -3.1891    0.0000 C   0  0  0  0  0  0  0  0  0  0  0  0
   -1.2135   -2.7256    0.0000 C   0  0  0  0  0  0  0  0  0  0  0  0
   -0.0000   -3.6073    0.0000 C   0  0  0  0  0  0  0  0  0  0  0  0
    1.2135   -2.7256    0.0000 C   0  0  0  0  0  0  0  0  0  0  0  0
    0.7500   -1.2990    0.0000 N   0  0  0  0  0  0  0  0  0  0  0  0
    1.5000    0.0000    0.0000 N   0  0  0  0  0  0  0  0  0  0  0  0
    0.7500    1.2990    0.0000 C   0  0  0  0  0  0  0  0  0  0  0  0
   -0.7500    1.2990    0.0000 N   0  0  0  0  0  0  0  0  0  0  0  0
   -1.5000    0.0000    0.0000 C   0  0  0  0  0  0  0  0  0  0  0  0
   -3.0000    0.0000    0.0000 N   0  0  0  0  0  0  0  0  0  0  0  0
   -3.7500    1.2990    0.0000 C   0  0  0  0  0  0  0  0  0  0  0  0
   -3.0000    2.5981    0.0000 C   0  0  0  0  0  0  0  0  0  0  0  0
   -3.7500    3.8971    0.0000 C   0  0  0  0  0  0  0  0  0  0  0  0
   -5.2500    3.8971    0.0000 C   0  0  0  0  0  0  0  0  0  0  0  0
   -6.0000    2.5981    0.0000 C   0  0  0  0  0  0  0  0  0  0  0  0
   -7.4672    2.9099    0.0000 C   0  0  0  0  0  0  0  0  0  0  0  0
   -7.6240    4.4017    0.0000 N   0  0  0  0  0  0  0  0  0  0  0  0
   -6.2537    5.0118    0.0000 N   0  0  0  0  0  0  0  0  0  0  0  0
   -5.9418    6.4791    0.0000 C   0  0  0  0  0  0  0  0  0  0  0  0
   -7.0565    7.4827    0.0000 C   0  0  0  0  0  0  0  0  0  0  0  0
   -6.7447    8.9500    0.0000 C   0  0  0  0  0  0  0  0  0  0  0  0
   -7.8594    9.9537    0.0000 C   0  0  0  0  0  0  0  0  0  0  0  0
   -9.2860    9.4901    0.0000 C   0  0  0  0  0  0  0  0  0  0  0  0
   -9.5978    8.0229    0.0000 C   0  0  0  0  0  0  0  0  0  0  0  0
  -11.0244    7.5594    0.0000 F   0  0  0  0  0  0  0  0  0  0  0  0
   -8.4831    7.0192    0.0000 C   0  0  0  0  0  0  0  0  0  0  0  0
   -5.2500    1.2990    0.0000 C   0  0  0  0  0  0  0  0  0  0  0  0
   -0.7500   -1.2990    0.0000 C   0  0  0  0  0  0  0  0  0  0  0  0
   -1.8373   -5.6601    0.0000 C   0  0  0  0  0  0  0  0  0  0  0  0
   -2.1491   -7.1273    0.0000 C   0  0  0  0  0  0  0  0  0  0  0  0
   -3.5757   -7.5908    0.0000 N   0  0  0  0  0  0  0  0  0  0  0  0
  1  2  2  0
  2  3  1  0
  3  4  1  0
  4  5  1  0
  5  6  1  0
  6  7  1  0
  7  8  2  0
  8  9  1  0
  9 10  1  0
 10 11  2  0
 11 12  1  0
 12 13  2  0
 13 14  1  0
 14 15  1  0
 15 16  2  0
 16 17  1  0
 17 18  2  0
 18 19  1  0
 19 20  1  0
 20 21  2  0
 21 22  1  0
 22 23  1  0
 23 24  1  0
 24 25  2  0
 25 26  1  0
 26 27  2  0
 27 28  1  0
 28 29  1  0
 28 30  2  0
 19 31  2  0
 13 32  1  0
  4 33  1  0
 33 34  1  0
 34 35  1  0
 35  2  1  0
 32  6  2  0
 32  9  1  0
 31 15  1  0
 22 18  1  0
 30 24  1  0
M  END
>  <Compound_ID>  (1043) 
CHEMBL265629

>  <Active>  (1043) 
1.0

>  <Smiles>  (1043) 
O=C1CN(Cc2ccn3ncnc(Nc4ccc5c(cnn5Cc5cccc(F)c5)c4)c23)CCN1

>  <canonical_smi>  (1043) 
O=C1CN(Cc2ccn3ncnc(Nc4ccc5c(cnn5Cc5cccc(F)c5)c4)c23)CCN1

>  <Set>  (1043) 
G2 active

>  <Set_type>  (1043) 
Test

>  <MW>  (1043) 
470.51

>  <HBD>  (1043) 
2

>  <HBA>  (1043) 
6

>  <NRB>  (1043) 
6

>  <NR>  (1043) 
6

>  <NAR>  (1043) 
5

>  <PSA>  (1043) 
92.38

>  <Standard Type>  (1043) 
nan

>  <Standard Relation>  (1043) 
nan

>  <Standard Units>  (1043) 
nan

>  <Standard Value>  (1043) 
nan

>  <Assay ChEMBL ID>  (1043) 
nan

>  <Assay Description>  (1043) 
nan

>  <BAO Label>  (1043) 
nan

$$$$

     RDKit          2D

 33 34  0  0  0  0  0  0  0  0999 V2000
   -2.2500   -3.8971    0.0000 N   0  0  0  0  0  0  0  0  0  0  0  0
   -0.7500   -3.8971    0.0000 C   0  0  0  0  0  0  0  0  0  0  0  0
    0.7500   -3.8971    0.0000 C   0  0  0  0  0  0  0  0  0  0  0  0
    1.5000   -2.5981    0.0000 C   0  0  0  0  0  0  0  0  0  0  0  0
    0.7500   -1.2990    0.0000 C   0  0  0  0  0  0  0  0  0  0  0  0
    1.5000    0.0000    0.0000 C   0  0  0  0  0  0  0  0  0  0  0  0
    0.7500    1.2990    0.0000 C   0  0  0  0  0  0  0  0  0  0  0  0
   -0.7500    1.2990    0.0000 C   0  0  0  0  0  0  0  0  0  0  0  0
   -1.5000    2.5981    0.0000 O   0  0  0  0  0  0  0  0  0  0  0  0
   -1.5000    0.0000    0.0000 C   0  0  0  0  0  0  0  0  0  0  0  0
   -3.0000    0.0000    0.0000 O   0  0  0  0  0  0  0  0  0  0  0  0
   -0.7500   -1.2990    0.0000 C   0  0  0  0  0  0  0  0  0  0  0  0
    1.5000   -5.1962    0.0000 C   0  0  0  0  0  0  0  0  0  0  0  0
    3.0000   -5.1962    0.0000 O   0  0  0  0  0  0  0  0  0  0  0  0
    0.7500   -6.4952    0.0000 N   0  0  0  0  0  0  0  0  0  0  0  0
    1.5000   -7.7942    0.0000 C   0  0  0  0  0  0  0  0  0  0  0  0
    0.7500   -9.0933    0.0000 C   0  0  0  0  0  0  0  0  0  0  0  0
    1.5000  -10.3923    0.0000 C   0  0  0  0  0  0  0  0  0  0  0  0
    0.7500  -11.6913    0.0000 N   0  0  0  0  0  0  0  0  0  0  0  0
    1.5000  -12.9904    0.0000 C   0  0  0  0  0  0  0  0  0  0  0  0
    3.0000  -12.9904    0.0000 O   0  0  0  0  0  0  0  0  0  0  0  0
    0.7500  -14.2894    0.0000 C   0  0  0  0  0  0  0  0  0  0  0  0
   -0.7500  -14.2894    0.0000 C   0  0  0  0  0  0  0  0  0  0  0  0
   -2.2500  -14.2894    0.0000 N   0  0  0  0  0  0  0  0  0  0  0  0
    1.5000  -15.5885    0.0000 C   0  0  0  0  0  0  0  0  0  0  0  0
    0.7500  -16.8875    0.0000 C   0  0  0  0  0  0  0  0  0  0  0  0
   -0.7500  -16.8875    0.0000 C   0  0  0  0  0  0  0  0  0  0  0  0
   -1.5000  -18.1865    0.0000 C   0  0  0  0  0  0  0  0  0  0  0  0
   -0.7500  -19.4856    0.0000 C   0  0  0  0  0  0  0  0  0  0  0  0
   -1.5000  -20.7846    0.0000 O   0  0  0  0  0  0  0  0  0  0  0  0
    0.7500  -19.4856    0.0000 C   0  0  0  0  0  0  0  0  0  0  0  0
    1.5000  -20.7846    0.0000 O   0  0  0  0  0  0  0  0  0  0  0  0
    1.5000  -18.1865    0.0000 C   0  0  0  0  0  0  0  0  0  0  0  0
  1  2  3  0
  2  3  1  0
  3  4  2  0
  4  5  1  0
  5  6  2  0
  6  7  1  0
  7  8  2  0
  8  9  1  0
  8 10  1  0
 10 11  1  0
 10 12  2  0
  3 13  1  0
 13 14  2  0
 13 15  1  0
 15 16  1  0
 16 17  1  0
 17 18  1  0
 18 19  1  0
 19 20  1  0
 20 21  2  0
 20 22  1  0
 22 23  1  0
 23 24  3  0
 22 25  2  0
 25 26  1  0
 26 27  2  0
 27 28  1  0
 28 29  2  0
 29 30  1  0
 29 31  1  0
 31 32  1  0
 31 33  2  0
 12  5  1  0
 33 26  1  0
M  END
>  <Compound_ID>  (1044) 
CHEMBL67535

>  <Active>  (1044) 
1.0

>  <Smiles>  (1044) 
N#C/C(=C\c1ccc(O)c(O)c1)C(=O)NCCCNC(=O)/C(C#N)=C/c1ccc(O)c(O)c1

>  <canonical_smi>  (1044) 
N#C/C(=C\c1ccc(O)c(O)c1)C(=O)NCCCNC(=O)/C(C#N)=C/c1ccc(O)c(O)c1

>  <Set>  (1044) 
G2 active

>  <Set_type>  (1044) 
Test

>  <MW>  (1044) 
448.44

>  <HBD>  (1044) 
6

>  <HBA>  (1044) 
8

>  <NRB>  (1044) 
8

>  <NR>  (1044) 
2

>  <NAR>  (1044) 
2

>  <PSA>  (1044) 
186.7

>  <Standard Type>  (1044) 
nan

>  <Standard Relation>  (1044) 
nan

>  <Standard Units>  (1044) 
nan

>  <Standard Value>  (1044) 
nan

>  <Assay ChEMBL ID>  (1044) 
nan

>  <Assay Description>  (1044) 
nan

>  <BAO Label>  (1044) 
nan

$$$$

     RDKit          2D

 40 45  0  0  0  0  0  0  0  0999 V2000
   11.4240   -6.1312    0.0000 C   0  0  0  0  0  0  0  0  0  0  0  0
   10.0537   -5.5211    0.0000 C   0  0  0  0  0  0  0  0  0  0  0  0
    9.7418   -4.0539    0.0000 C   0  0  0  0  0  0  0  0  0  0  0  0
    8.2500   -3.8971    0.0000 C   0  0  0  0  0  0  0  0  0  0  0  0
    7.5000   -2.5981    0.0000 O   0  0  0  0  0  0  0  0  0  0  0  0
    6.0000   -2.5981    0.0000 C   0  0  0  0  0  0  0  0  0  0  0  0
    5.2500   -1.2990    0.0000 C   0  0  0  0  0  0  0  0  0  0  0  0
    3.7500   -1.2990    0.0000 C   0  0  0  0  0  0  0  0  0  0  0  0
    3.0000   -2.5981    0.0000 C   0  0  0  0  0  0  0  0  0  0  0  0
    1.5000   -2.5981    0.0000 N   0  0  0  0  0  0  0  0  0  0  0  0
    0.7500   -1.2990    0.0000 C   0  0  0  0  0  0  0  0  0  0  0  0
    1.5000    0.0000    0.0000 N   0  0  0  0  0  0  0  0  0  0  0  0
    0.7500    1.2990    0.0000 C   0  0  0  0  0  0  0  0  0  0  0  0
   -0.7500    1.2990    0.0000 N   0  0  0  0  0  0  0  0  0  0  0  0
   -1.5000    0.0000    0.0000 C   0  0  0  0  0  0  0  0  0  0  0  0
   -2.9672   -0.3119    0.0000 C   0  0  0  0  0  0  0  0  0  0  0  0
   -3.1240   -1.8037    0.0000 C   0  0  0  0  0  0  0  0  0  0  0  0
   -4.4231   -2.5537    0.0000 C   0  0  0  0  0  0  0  0  0  0  0  0
   -5.7221   -3.3037    0.0000 C   0  0  0  0  0  0  0  0  0  0  0  0
   -7.0211   -4.0537    0.0000 C   0  0  0  0  0  0  0  0  0  0  0  0
   -7.1779   -5.5454    0.0000 C   0  0  0  0  0  0  0  0  0  0  0  0
   -8.6451   -5.8573    0.0000 C   0  0  0  0  0  0  0  0  0  0  0  0
   -9.2552   -7.2276    0.0000 O   0  0  0  0  0  0  0  0  0  0  0  0
  -10.7470   -7.3844    0.0000 C   0  0  0  0  0  0  0  0  0  0  0  0
  -11.6287   -6.1709    0.0000 O   0  0  0  0  0  0  0  0  0  0  0  0
  -11.3571   -8.7547    0.0000 N   0  0  0  0  0  0  0  0  0  0  0  0
  -12.8489   -8.9115    0.0000 C   0  0  0  0  0  0  0  0  0  0  0  0
  -13.4590  -10.2818    0.0000 C   0  0  0  0  0  0  0  0  0  0  0  0
  -12.5773  -11.4954    0.0000 O   0  0  0  0  0  0  0  0  0  0  0  0
  -11.0856  -11.3386    0.0000 C   0  0  0  0  0  0  0  0  0  0  0  0
  -10.4755   -9.9683    0.0000 C   0  0  0  0  0  0  0  0  0  0  0  0
   -9.3951   -4.5583    0.0000 C   0  0  0  0  0  0  0  0  0  0  0  0
   -8.3914   -3.4435    0.0000 N   0  0  0  0  0  0  0  0  0  0  0  0
   -1.7537   -2.4138    0.0000 S   0  0  0  0  0  0  0  0  0  0  0  0
   -0.7500   -1.2990    0.0000 C   0  0  0  0  0  0  0  0  0  0  0  0
    3.7500   -3.8971    0.0000 C   0  0  0  0  0  0  0  0  0  0  0  0
    5.2500   -3.8971    0.0000 C   0  0  0  0  0  0  0  0  0  0  0  0
    6.0000   -5.1962    0.0000 Cl  0  0  0  0  0  0  0  0  0  0  0  0
    7.6399   -5.2674    0.0000 N   0  0  0  0  0  0  0  0  0  0  0  0
    8.7546   -6.2711    0.0000 O   0  0  0  0  0  0  0  0  0  0  0  0
  1  2  1  0
  2  3  2  0
  3  4  1  0
  4  5  1  0
  5  6  1  0
  6  7  2  0
  7  8  1  0
  8  9  2  0
  9 10  1  0
 10 11  1  0
 11 12  2  0
 12 13  1  0
 13 14  2  0
 14 15  1  0
 15 16  1  0
 16 17  2  0
 17 18  1  0
 18 19  3  0
 20 19  1  6
 20 21  1  0
 21 22  1  0
 22 23  1  1
 23 24  1  0
 24 25  2  0
 24 26  1  0
 26 27  1  0
 27 28  1  0
 28 29  1  0
 29 30  1  0
 30 31  1  0
 22 32  1  0
 32 33  1  0
 17 34  1  0
 34 35  1  0
  9 36  1  0
 36 37  2  0
 37 38  1  0
  4 39  2  0
 39 40  1  0
 40  2  1  0
 37  6  1  0
 35 11  1  0
 35 15  2  0
 33 20  1  0
 31 26  1  0
M  END
>  <Compound_ID>  (1045) 
CHEMBL461811

>  <Active>  (1045) 
1.0

>  <Smiles>  (1045) 
Cc1cc(Oc2ccc(Nc3ncnc4cc(C#C[C@@H]5C[C@@H](OC(=O)N6CCOCC6)CN5)sc34)cc2Cl)no1

>  <canonical_smi>  (1045) 
Cc1cc(Oc2ccc(Nc3ncnc4cc(C#C[C@@H]5C[C@@H](OC(=O)N6CCOCC6)CN5)sc34)cc2Cl)no1

>  <Set>  (1045) 
G2 active

>  <Set_type>  (1045) 
Test

>  <MW>  (1045) 
581.05

>  <HBD>  (1045) 
2

>  <HBA>  (1045) 
10

>  <NRB>  (1045) 
5

>  <NR>  (1045) 
6

>  <NAR>  (1045) 
4

>  <PSA>  (1045) 
123.87

>  <Standard Type>  (1045) 
nan

>  <Standard Relation>  (1045) 
nan

>  <Standard Units>  (1045) 
nan

>  <Standard Value>  (1045) 
nan

>  <Assay ChEMBL ID>  (1045) 
nan

>  <Assay Description>  (1045) 
nan

>  <BAO Label>  (1045) 
nan

$$$$

     RDKit          2D

 40 43  0  0  0  0  0  0  0  0999 V2000
    5.2500   -1.2990    0.0000 C   0  0  0  0  0  0  0  0  0  0  0  0
    3.7500   -1.2990    0.0000 C   0  0  0  0  0  0  0  0  0  0  0  0
    3.0000    0.0000    0.0000 O   0  0  0  0  0  0  0  0  0  0  0  0
    1.5000    0.0000    0.0000 C   0  0  0  0  0  0  0  0  0  0  0  0
    0.7500   -1.2990    0.0000 C   0  0  0  0  0  0  0  0  0  0  0  0
   -0.7500   -1.2990    0.0000 C   0  0  0  0  0  0  0  0  0  0  0  0
   -1.5000   -2.5981    0.0000 N   0  0  0  0  0  0  0  0  0  0  0  0
   -3.0000   -2.5981    0.0000 C   0  0  0  0  0  0  0  0  0  0  0  0
   -3.7500   -1.2990    0.0000 C   0  0  0  0  0  0  0  0  0  0  0  0
   -5.2500   -1.2990    0.0000 C   0  0  0  0  0  0  0  0  0  0  0  0
   -6.7500   -1.2990    0.0000 N   0  0  0  0  0  0  0  0  0  0  0  0
   -3.0000    0.0000    0.0000 C   0  0  0  0  0  0  0  0  0  0  0  0
   -3.7500    1.2990    0.0000 N   0  0  0  0  0  0  0  0  0  0  0  0
   -3.0000    2.5981    0.0000 C   0  0  0  0  0  0  0  0  0  0  0  0
   -1.5000    2.5981    0.0000 C   0  0  0  0  0  0  0  0  0  0  0  0
   -0.7500    3.8971    0.0000 C   0  0  0  0  0  0  0  0  0  0  0  0
   -1.5000    5.1962    0.0000 C   0  0  0  0  0  0  0  0  0  0  0  0
   -0.7500    6.4952    0.0000 O   0  0  0  0  0  0  0  0  0  0  0  0
    0.7500    6.4952    0.0000 C   0  0  0  0  0  0  0  0  0  0  0  0
    1.5000    7.7942    0.0000 C   0  0  0  0  0  0  0  0  0  0  0  0
    0.8899    9.1645    0.0000 N   0  0  0  0  0  0  0  0  0  0  0  0
    2.0046   10.1682    0.0000 C   0  0  0  0  0  0  0  0  0  0  0  0
    3.3037    9.4182    0.0000 C   0  0  0  0  0  0  0  0  0  0  0  0
    2.9918    7.9510    0.0000 N   0  0  0  0  0  0  0  0  0  0  0  0
    3.9955    6.8363    0.0000 C   0  0  0  0  0  0  0  0  0  0  0  0
   -3.0000    5.1962    0.0000 C   0  0  0  0  0  0  0  0  0  0  0  0
   -3.7500    6.4952    0.0000 Cl  0  0  0  0  0  0  0  0  0  0  0  0
   -3.7500    3.8971    0.0000 C   0  0  0  0  0  0  0  0  0  0  0  0
   -1.5000    0.0000    0.0000 C   0  0  0  0  0  0  0  0  0  0  0  0
   -0.7500    1.2990    0.0000 C   0  0  0  0  0  0  0  0  0  0  0  0
    0.7500    1.2990    0.0000 C   0  0  0  0  0  0  0  0  0  0  0  0
    1.5000    2.5981    0.0000 N   0  0  0  0  0  0  0  0  0  0  0  0
    3.0000    2.5981    0.0000 C   0  0  0  0  0  0  0  0  0  0  0  0
    3.7500    1.2990    0.0000 O   0  0  0  0  0  0  0  0  0  0  0  0
    3.7500    3.8971    0.0000 C   0  0  0  0  0  0  0  0  0  0  0  0
    5.2500    3.8971    0.0000 C   0  0  0  0  0  0  0  0  0  0  0  0
    6.0000    5.1962    0.0000 C   0  0  0  0  0  0  0  0  0  0  0  0
    7.5000    5.1962    0.0000 N   0  0  0  0  0  0  0  0  0  0  0  0
    8.2500    6.4952    0.0000 C   0  0  0  0  0  0  0  0  0  0  0  0
    8.2500    3.8971    0.0000 C   0  0  0  0  0  0  0  0  0  0  0  0
  1  2  1  0
  2  3  1  0
  3  4  1  0
  4  5  2  0
  5  6  1  0
  6  7  2  0
  7  8  1  0
  8  9  2  0
  9 10  1  0
 10 11  3  0
  9 12  1  0
 12 13  1  0
 13 14  1  0
 14 15  2  0
 15 16  1  0
 16 17  2  0
 17 18  1  0
 18 19  1  0
 19 20  1  0
 20 21  2  0
 21 22  1  0
 22 23  2  0
 23 24  1  0
 24 25  1  0
 17 26  1  0
 26 27  1  0
 26 28  2  0
 12 29  2  0
 29 30  1  0
 30 31  2  0
 31 32  1  0
 32 33  1  0
 33 34  2  0
 33 35  1  0
 35 36  2  0
 36 37  1  0
 37 38  1  0
 38 39  1  0
 38 40  1  0
 31  4  1  0
 29  6  1  0
 28 14  1  0
 24 20  1  0
M  END
>  <Compound_ID>  (1046) 
CHEMBL175840

>  <Active>  (1046) 
1.0

>  <Smiles>  (1046) 
CCOc1cc2ncc(C#N)c(Nc3ccc(OCc4nccn4C)c(Cl)c3)c2cc1NC(=O)/C=C/CN(C)C

>  <canonical_smi>  (1046) 
CCOc1cc2ncc(C#N)c(Nc3ccc(OCc4nccn4C)c(Cl)c3)c2cc1NC(=O)/C=C/CN(C)C

>  <Set>  (1046) 
G2 active

>  <Set_type>  (1046) 
Test

>  <MW>  (1046) 
560.06

>  <HBD>  (1046) 
2

>  <HBA>  (1046) 
8

>  <NRB>  (1046) 
11

>  <NR>  (1046) 
4

>  <NAR>  (1046) 
4

>  <PSA>  (1046) 
117.33

>  <Standard Type>  (1046) 
nan

>  <Standard Relation>  (1046) 
nan

>  <Standard Units>  (1046) 
nan

>  <Standard Value>  (1046) 
nan

>  <Assay ChEMBL ID>  (1046) 
nan

>  <Assay Description>  (1046) 
nan

>  <BAO Label>  (1046) 
nan

$$$$

     RDKit          2D

 32 33  0  0  0  0  0  0  0  0999 V2000
   -2.2500   -3.8971    0.0000 N   0  0  0  0  0  0  0  0  0  0  0  0
   -0.7500   -3.8971    0.0000 C   0  0  0  0  0  0  0  0  0  0  0  0
    0.7500   -3.8971    0.0000 C   0  0  0  0  0  0  0  0  0  0  0  0
    1.5000   -2.5981    0.0000 C   0  0  0  0  0  0  0  0  0  0  0  0
    0.7500   -1.2990    0.0000 C   0  0  0  0  0  0  0  0  0  0  0  0
    1.5000    0.0000    0.0000 C   0  0  0  0  0  0  0  0  0  0  0  0
    0.7500    1.2990    0.0000 C   0  0  0  0  0  0  0  0  0  0  0  0
   -0.7500    1.2990    0.0000 C   0  0  0  0  0  0  0  0  0  0  0  0
   -1.5000    2.5981    0.0000 O   0  0  0  0  0  0  0  0  0  0  0  0
   -1.5000    0.0000    0.0000 C   0  0  0  0  0  0  0  0  0  0  0  0
   -3.0000    0.0000    0.0000 O   0  0  0  0  0  0  0  0  0  0  0  0
   -0.7500   -1.2990    0.0000 C   0  0  0  0  0  0  0  0  0  0  0  0
    1.5000   -5.1962    0.0000 C   0  0  0  0  0  0  0  0  0  0  0  0
    3.0000   -5.1962    0.0000 O   0  0  0  0  0  0  0  0  0  0  0  0
    0.7500   -6.4952    0.0000 N   0  0  0  0  0  0  0  0  0  0  0  0
    1.5000   -7.7942    0.0000 C   0  0  0  0  0  0  0  0  0  0  0  0
    0.7500   -9.0933    0.0000 C   0  0  0  0  0  0  0  0  0  0  0  0
    1.5000  -10.3923    0.0000 N   0  0  0  0  0  0  0  0  0  0  0  0
    0.7500  -11.6913    0.0000 C   0  0  0  0  0  0  0  0  0  0  0  0
   -0.7500  -11.6913    0.0000 O   0  0  0  0  0  0  0  0  0  0  0  0
    1.5000  -12.9904    0.0000 C   0  0  0  0  0  0  0  0  0  0  0  0
    3.0000  -12.9904    0.0000 C   0  0  0  0  0  0  0  0  0  0  0  0
    4.5000  -12.9904    0.0000 N   0  0  0  0  0  0  0  0  0  0  0  0
    0.7500  -14.2894    0.0000 C   0  0  0  0  0  0  0  0  0  0  0  0
    1.5000  -15.5885    0.0000 C   0  0  0  0  0  0  0  0  0  0  0  0
    0.7500  -16.8875    0.0000 C   0  0  0  0  0  0  0  0  0  0  0  0
    1.5000  -18.1865    0.0000 C   0  0  0  0  0  0  0  0  0  0  0  0
    3.0000  -18.1865    0.0000 C   0  0  0  0  0  0  0  0  0  0  0  0
    3.7500  -19.4856    0.0000 O   0  0  0  0  0  0  0  0  0  0  0  0
    3.7500  -16.8875    0.0000 C   0  0  0  0  0  0  0  0  0  0  0  0
    5.2500  -16.8875    0.0000 O   0  0  0  0  0  0  0  0  0  0  0  0
    3.0000  -15.5885    0.0000 C   0  0  0  0  0  0  0  0  0  0  0  0
  1  2  3  0
  2  3  1  0
  3  4  2  0
  4  5  1  0
  5  6  2  0
  6  7  1  0
  7  8  2  0
  8  9  1  0
  8 10  1  0
 10 11  1  0
 10 12  2  0
  3 13  1  0
 13 14  2  0
 13 15  1  0
 15 16  1  0
 16 17  1  0
 17 18  1  0
 18 19  1  0
 19 20  2  0
 19 21  1  0
 21 22  1  0
 22 23  3  0
 21 24  2  0
 24 25  1  0
 25 26  2  0
 26 27  1  0
 27 28  2  0
 28 29  1  0
 28 30  1  0
 30 31  1  0
 30 32  2  0
 12  5  1  0
 32 25  1  0
M  END
>  <Compound_ID>  (1047) 
CHEMBL144908

>  <Active>  (1047) 
1.0

>  <Smiles>  (1047) 
N#C/C(=C\c1ccc(O)c(O)c1)C(=O)NCCNC(=O)/C(C#N)=C/c1ccc(O)c(O)c1

>  <canonical_smi>  (1047) 
N#C/C(=C\c1ccc(O)c(O)c1)C(=O)NCCNC(=O)/C(C#N)=C/c1ccc(O)c(O)c1

>  <Set>  (1047) 
G2 active

>  <Set_type>  (1047) 
Test

>  <MW>  (1047) 
434.41

>  <HBD>  (1047) 
6

>  <HBA>  (1047) 
8

>  <NRB>  (1047) 
7

>  <NR>  (1047) 
2

>  <NAR>  (1047) 
2

>  <PSA>  (1047) 
186.7

>  <Standard Type>  (1047) 
nan

>  <Standard Relation>  (1047) 
nan

>  <Standard Units>  (1047) 
nan

>  <Standard Value>  (1047) 
nan

>  <Assay ChEMBL ID>  (1047) 
nan

>  <Assay Description>  (1047) 
nan

>  <BAO Label>  (1047) 
nan

$$$$

     RDKit          2D

 35 40  0  0  0  0  0  0  0  0999 V2000
   -3.5757   -7.5908    0.0000 C   0  0  0  0  0  0  0  0  0  0  0  0
   -4.6904   -6.5871    0.0000 C   0  0  0  0  0  0  0  0  0  0  0  0
   -4.3786   -5.1199    0.0000 C   0  0  0  0  0  0  0  0  0  0  0  0
   -2.9520   -4.6564    0.0000 C   0  0  0  0  0  0  0  0  0  0  0  0
   -2.6401   -3.1891    0.0000 C   0  0  0  0  0  0  0  0  0  0  0  0
   -1.2135   -2.7256    0.0000 N   0  0  0  0  0  0  0  0  0  0  0  0
   -0.0000   -3.6073    0.0000 N   0  0  0  0  0  0  0  0  0  0  0  0
    1.2135   -2.7256    0.0000 C   0  0  0  0  0  0  0  0  0  0  0  0
    0.7500   -1.2990    0.0000 C   0  0  0  0  0  0  0  0  0  0  0  0
    1.5000    0.0000    0.0000 C   0  0  0  0  0  0  0  0  0  0  0  0
    0.7500    1.2990    0.0000 C   0  0  0  0  0  0  0  0  0  0  0  0
    1.5000    2.5981    0.0000 N   0  0  0  0  0  0  0  0  0  0  0  0
    3.0000    2.5981    0.0000 C   0  0  0  0  0  0  0  0  0  0  0  0
    3.7500    1.2990    0.0000 N   0  0  0  0  0  0  0  0  0  0  0  0
    5.2500    1.2990    0.0000 C   0  0  0  0  0  0  0  0  0  0  0  0
    6.0000    2.5981    0.0000 N   0  0  0  0  0  0  0  0  0  0  0  0
    5.2500    3.8971    0.0000 N   0  0  0  0  0  0  0  0  0  0  0  0
    5.7135    5.3237    0.0000 C   0  0  0  0  0  0  0  0  0  0  0  0
    4.5000    6.2054    0.0000 C   0  0  0  0  0  0  0  0  0  0  0  0
    3.2865    5.3237    0.0000 C   0  0  0  0  0  0  0  0  0  0  0  0
    1.8599    5.7872    0.0000 C   0  0  0  0  0  0  0  0  0  0  0  0
    1.5480    7.2544    0.0000 O   0  0  0  0  0  0  0  0  0  0  0  0
    0.1214    7.7180    0.0000 C   0  0  0  0  0  0  0  0  0  0  0  0
   -0.1904    9.1852    0.0000 C   0  0  0  0  0  0  0  0  0  0  0  0
    0.9243   10.1889    0.0000 C   0  0  0  0  0  0  0  0  0  0  0  0
    0.6124   11.6561    0.0000 N   0  0  0  0  0  0  0  0  0  0  0  0
   -0.8142   12.1196    0.0000 C   0  0  0  0  0  0  0  0  0  0  0  0
   -1.9289   11.1159    0.0000 C   0  0  0  0  0  0  0  0  0  0  0  0
   -1.6170    9.6487    0.0000 O   0  0  0  0  0  0  0  0  0  0  0  0
    3.7500    3.8971    0.0000 C   0  0  0  0  0  0  0  0  0  0  0  0
   -0.7500    1.2990    0.0000 C   0  0  0  0  0  0  0  0  0  0  0  0
   -1.5000    0.0000    0.0000 C   0  0  0  0  0  0  0  0  0  0  0  0
   -0.7500   -1.2990    0.0000 C   0  0  0  0  0  0  0  0  0  0  0  0
   -1.8373   -5.6601    0.0000 N   0  0  0  0  0  0  0  0  0  0  0  0
   -2.1491   -7.1273    0.0000 C   0  0  0  0  0  0  0  0  0  0  0  0
  1  2  2  0
  2  3  1  0
  3  4  2  0
  4  5  1  0
  5  6  1  0
  6  7  1  0
  7  8  2  0
  8  9  1  0
  9 10  2  0
 10 11  1  0
 11 12  1  0
 12 13  1  0
 13 14  2  0
 14 15  1  0
 15 16  2  0
 16 17  1  0
 17 18  1  0
 18 19  2  0
 19 20  1  0
 20 21  1  0
 21 22  1  0
 22 23  1  0
 24 23  1  1
 24 25  1  0
 25 26  1  0
 26 27  1  0
 27 28  1  0
 28 29  1  0
 20 30  2  0
 11 31  2  0
 31 32  1  0
 32 33  2  0
  4 34  1  0
 34 35  2  0
 35  1  1  0
 33  6  1  0
 33  9  1  0
 30 13  1  0
 30 17  1  0
 29 24  1  0
M  END
>  <Compound_ID>  (1048) 
CHEMBL396079

>  <Active>  (1048) 
1.0

>  <Smiles>  (1048) 
c1ccc(Cn2ncc3cc(Nc4ncnn5ccc(COC[C@@H]6CNCCO6)c45)ccc32)nc1

>  <canonical_smi>  (1048) 
c1ccc(Cn2ncc3cc(Nc4ncnn5ccc(COC[C@@H]6CNCCO6)c45)ccc32)nc1

>  <Set>  (1048) 
G2 active

>  <Set_type>  (1048) 
Test

>  <MW>  (1048) 
470.54

>  <HBD>  (1048) 
2

>  <HBA>  (1048) 
8

>  <NRB>  (1048) 
8

>  <NR>  (1048) 
6

>  <NAR>  (1048) 
5

>  <PSA>  (1048) 
103.42

>  <Standard Type>  (1048) 
nan

>  <Standard Relation>  (1048) 
nan

>  <Standard Units>  (1048) 
nan

>  <Standard Value>  (1048) 
nan

>  <Assay ChEMBL ID>  (1048) 
nan

>  <Assay Description>  (1048) 
nan

>  <BAO Label>  (1048) 
nan

$$$$

     RDKit          2D

 34 35  0  0  0  0  0  0  0  0999 V2000
   -2.2500   -3.8971    0.0000 N   0  0  0  0  0  0  0  0  0  0  0  0
   -0.7500   -3.8971    0.0000 C   0  0  0  0  0  0  0  0  0  0  0  0
    0.7500   -3.8971    0.0000 C   0  0  0  0  0  0  0  0  0  0  0  0
    1.5000   -2.5981    0.0000 C   0  0  0  0  0  0  0  0  0  0  0  0
    0.7500   -1.2990    0.0000 C   0  0  0  0  0  0  0  0  0  0  0  0
    1.5000    0.0000    0.0000 C   0  0  0  0  0  0  0  0  0  0  0  0
    0.7500    1.2990    0.0000 C   0  0  0  0  0  0  0  0  0  0  0  0
   -0.7500    1.2990    0.0000 C   0  0  0  0  0  0  0  0  0  0  0  0
   -1.5000    2.5981    0.0000 O   0  0  0  0  0  0  0  0  0  0  0  0
   -1.5000    0.0000    0.0000 C   0  0  0  0  0  0  0  0  0  0  0  0
   -3.0000    0.0000    0.0000 O   0  0  0  0  0  0  0  0  0  0  0  0
   -0.7500   -1.2990    0.0000 C   0  0  0  0  0  0  0  0  0  0  0  0
    1.5000   -5.1962    0.0000 C   0  0  0  0  0  0  0  0  0  0  0  0
    3.0000   -5.1962    0.0000 O   0  0  0  0  0  0  0  0  0  0  0  0
    0.7500   -6.4952    0.0000 N   0  0  0  0  0  0  0  0  0  0  0  0
    1.5000   -7.7942    0.0000 C   0  0  0  0  0  0  0  0  0  0  0  0
    0.7500   -9.0933    0.0000 C   0  0  0  0  0  0  0  0  0  0  0  0
    1.5000  -10.3923    0.0000 C   0  0  0  0  0  0  0  0  0  0  0  0
    0.7500  -11.6913    0.0000 C   0  0  0  0  0  0  0  0  0  0  0  0
    1.5000  -12.9904    0.0000 N   0  0  0  0  0  0  0  0  0  0  0  0
    0.7500  -14.2894    0.0000 C   0  0  0  0  0  0  0  0  0  0  0  0
   -0.7500  -14.2894    0.0000 O   0  0  0  0  0  0  0  0  0  0  0  0
    1.5000  -15.5885    0.0000 C   0  0  0  0  0  0  0  0  0  0  0  0
    3.0000  -15.5885    0.0000 C   0  0  0  0  0  0  0  0  0  0  0  0
    4.5000  -15.5885    0.0000 N   0  0  0  0  0  0  0  0  0  0  0  0
    0.7500  -16.8875    0.0000 C   0  0  0  0  0  0  0  0  0  0  0  0
    1.5000  -18.1865    0.0000 C   0  0  0  0  0  0  0  0  0  0  0  0
    0.7500  -19.4856    0.0000 C   0  0  0  0  0  0  0  0  0  0  0  0
    1.5000  -20.7846    0.0000 C   0  0  0  0  0  0  0  0  0  0  0  0
    3.0000  -20.7846    0.0000 C   0  0  0  0  0  0  0  0  0  0  0  0
    3.7500  -22.0836    0.0000 O   0  0  0  0  0  0  0  0  0  0  0  0
    3.7500  -19.4856    0.0000 C   0  0  0  0  0  0  0  0  0  0  0  0
    5.2500  -19.4856    0.0000 O   0  0  0  0  0  0  0  0  0  0  0  0
    3.0000  -18.1865    0.0000 C   0  0  0  0  0  0  0  0  0  0  0  0
  1  2  3  0
  2  3  1  0
  3  4  2  0
  4  5  1  0
  5  6  2  0
  6  7  1  0
  7  8  2  0
  8  9  1  0
  8 10  1  0
 10 11  1  0
 10 12  2  0
  3 13  1  0
 13 14  2  0
 13 15  1  0
 15 16  1  0
 16 17  1  0
 17 18  1  0
 18 19  1  0
 19 20  1  0
 20 21  1  0
 21 22  2  0
 21 23  1  0
 23 24  1  0
 24 25  3  0
 23 26  2  0
 26 27  1  0
 27 28  2  0
 28 29  1  0
 29 30  2  0
 30 31  1  0
 30 32  1  0
 32 33  1  0
 32 34  2  0
 12  5  1  0
 34 27  1  0
M  END
>  <Compound_ID>  (1049) 
CHEMBL144589

>  <Active>  (1049) 
1.0

>  <Smiles>  (1049) 
N#C/C(=C\c1ccc(O)c(O)c1)C(=O)NCCCCNC(=O)/C(C#N)=C/c1ccc(O)c(O)c1

>  <canonical_smi>  (1049) 
N#C/C(=C\c1ccc(O)c(O)c1)C(=O)NCCCCNC(=O)/C(C#N)=C/c1ccc(O)c(O)c1

>  <Set>  (1049) 
G2 active

>  <Set_type>  (1049) 
Test

>  <MW>  (1049) 
462.46

>  <HBD>  (1049) 
6

>  <HBA>  (1049) 
8

>  <NRB>  (1049) 
9

>  <NR>  (1049) 
2

>  <NAR>  (1049) 
2

>  <PSA>  (1049) 
186.7

>  <Standard Type>  (1049) 
nan

>  <Standard Relation>  (1049) 
nan

>  <Standard Units>  (1049) 
nan

>  <Standard Value>  (1049) 
nan

>  <Assay ChEMBL ID>  (1049) 
nan

>  <Assay Description>  (1049) 
nan

>  <BAO Label>  (1049) 
nan

$$$$

     RDKit          2D

 39 42  0  0  0  0  0  0  0  0999 V2000
    5.2500   -1.2990    0.0000 C   0  0  0  0  0  0  0  0  0  0  0  0
    3.7500   -1.2990    0.0000 C   0  0  0  0  0  0  0  0  0  0  0  0
    3.0000    0.0000    0.0000 O   0  0  0  0  0  0  0  0  0  0  0  0
    1.5000    0.0000    0.0000 C   0  0  0  0  0  0  0  0  0  0  0  0
    0.7500   -1.2990    0.0000 C   0  0  0  0  0  0  0  0  0  0  0  0
   -0.7500   -1.2990    0.0000 C   0  0  0  0  0  0  0  0  0  0  0  0
   -1.5000   -2.5981    0.0000 N   0  0  0  0  0  0  0  0  0  0  0  0
   -3.0000   -2.5981    0.0000 C   0  0  0  0  0  0  0  0  0  0  0  0
   -3.7500   -1.2990    0.0000 C   0  0  0  0  0  0  0  0  0  0  0  0
   -5.2500   -1.2990    0.0000 C   0  0  0  0  0  0  0  0  0  0  0  0
   -6.7500   -1.2990    0.0000 N   0  0  0  0  0  0  0  0  0  0  0  0
   -3.0000    0.0000    0.0000 C   0  0  0  0  0  0  0  0  0  0  0  0
   -3.7500    1.2990    0.0000 N   0  0  0  0  0  0  0  0  0  0  0  0
   -3.0000    2.5981    0.0000 C   0  0  0  0  0  0  0  0  0  0  0  0
   -1.5000    2.5981    0.0000 C   0  0  0  0  0  0  0  0  0  0  0  0
   -0.7500    3.8971    0.0000 C   0  0  0  0  0  0  0  0  0  0  0  0
   -1.5000    5.1962    0.0000 C   0  0  0  0  0  0  0  0  0  0  0  0
   -0.7500    6.4952    0.0000 O   0  0  0  0  0  0  0  0  0  0  0  0
    0.7500    6.4952    0.0000 C   0  0  0  0  0  0  0  0  0  0  0  0
    1.5000    5.1962    0.0000 C   0  0  0  0  0  0  0  0  0  0  0  0
    3.0000    5.1962    0.0000 C   0  0  0  0  0  0  0  0  0  0  0  0
    3.7500    6.4952    0.0000 N   0  0  0  0  0  0  0  0  0  0  0  0
    3.0000    7.7942    0.0000 C   0  0  0  0  0  0  0  0  0  0  0  0
    1.5000    7.7942    0.0000 C   0  0  0  0  0  0  0  0  0  0  0  0
   -3.0000    5.1962    0.0000 C   0  0  0  0  0  0  0  0  0  0  0  0
   -3.7500    6.4952    0.0000 Cl  0  0  0  0  0  0  0  0  0  0  0  0
   -3.7500    3.8971    0.0000 C   0  0  0  0  0  0  0  0  0  0  0  0
   -1.5000    0.0000    0.0000 C   0  0  0  0  0  0  0  0  0  0  0  0
   -0.7500    1.2990    0.0000 C   0  0  0  0  0  0  0  0  0  0  0  0
    0.7500    1.2990    0.0000 C   0  0  0  0  0  0  0  0  0  0  0  0
    1.5000    2.5981    0.0000 N   0  0  0  0  0  0  0  0  0  0  0  0
    3.0000    2.5981    0.0000 C   0  0  0  0  0  0  0  0  0  0  0  0
    3.7500    1.2990    0.0000 O   0  0  0  0  0  0  0  0  0  0  0  0
    3.7500    3.8971    0.0000 C   0  0  0  0  0  0  0  0  0  0  0  0
    5.2500    3.8971    0.0000 C   0  0  0  0  0  0  0  0  0  0  0  0
    6.0000    5.1962    0.0000 C   0  0  0  0  0  0  0  0  0  0  0  0
    7.5000    5.1962    0.0000 N   0  0  0  0  0  0  0  0  0  0  0  0
    8.2500    6.4952    0.0000 C   0  0  0  0  0  0  0  0  0  0  0  0
    8.2500    3.8971    0.0000 C   0  0  0  0  0  0  0  0  0  0  0  0
  1  2  1  0
  2  3  1  0
  3  4  1  0
  4  5  2  0
  5  6  1  0
  6  7  2  0
  7  8  1  0
  8  9  2  0
  9 10  1  0
 10 11  3  0
  9 12  1  0
 12 13  1  0
 13 14  1  0
 14 15  2  0
 15 16  1  0
 16 17  2  0
 17 18  1  0
 18 19  1  0
 19 20  2  0
 20 21  1  0
 21 22  2  0
 22 23  1  0
 23 24  2  0
 17 25  1  0
 25 26  1  0
 25 27  2  0
 12 28  2  0
 28 29  1  0
 29 30  2  0
 30 31  1  0
 31 32  1  0
 32 33  2  0
 32 34  1  0
 34 35  2  0
 35 36  1  0
 36 37  1  0
 37 38  1  0
 37 39  1  0
 30  4  1  0
 28  6  1  0
 27 14  1  0
 24 19  1  0
M  END
>  <Compound_ID>  (1050) 
CHEMBL178265

>  <Active>  (1050) 
1.0

>  <Smiles>  (1050) 
CCOc1cc2ncc(C#N)c(Nc3ccc(Oc4ccncc4)c(Cl)c3)c2cc1NC(=O)/C=C/CN(C)C

>  <canonical_smi>  (1050) 
CCOc1cc2ncc(C#N)c(Nc3ccc(Oc4ccncc4)c(Cl)c3)c2cc1NC(=O)/C=C/CN(C)C

>  <Set>  (1050) 
G2 active

>  <Set_type>  (1050) 
Test

>  <MW>  (1050) 
543.03

>  <HBD>  (1050) 
2

>  <HBA>  (1050) 
8

>  <NRB>  (1050) 
10

>  <NR>  (1050) 
4

>  <NAR>  (1050) 
4

>  <PSA>  (1050) 
112.4

>  <Standard Type>  (1050) 
nan

>  <Standard Relation>  (1050) 
nan

>  <Standard Units>  (1050) 
nan

>  <Standard Value>  (1050) 
nan

>  <Assay ChEMBL ID>  (1050) 
nan

>  <Assay Description>  (1050) 
nan

>  <BAO Label>  (1050) 
nan

$$$$

     RDKit          2D

 34 38  0  0  0  0  0  0  0  0999 V2000
    7.5000   -2.5981    0.0000 C   0  0  0  0  0  0  0  0  0  0  0  0
    6.0000   -2.5981    0.0000 N   0  0  0  0  0  0  0  0  0  0  0  0
    5.2500   -3.8971    0.0000 C   0  0  0  0  0  0  0  0  0  0  0  0
    3.7500   -3.8971    0.0000 C   0  0  0  0  0  0  0  0  0  0  0  0
    3.0000   -2.5981    0.0000 C   0  0  0  0  0  0  0  0  0  0  0  0
    1.5000   -2.5981    0.0000 O   0  0  0  0  0  0  0  0  0  0  0  0
    0.7500   -1.2990    0.0000 C   0  0  0  0  0  0  0  0  0  0  0  0
    1.5000    0.0000    0.0000 C   0  0  0  0  0  0  0  0  0  0  0  0
    0.7500    1.2990    0.0000 C   0  0  0  0  0  0  0  0  0  0  0  0
   -0.7500    1.2990    0.0000 C   0  0  0  0  0  0  0  0  0  0  0  0
   -1.5000    0.0000    0.0000 C   0  0  0  0  0  0  0  0  0  0  0  0
   -3.0000    0.0000    0.0000 N   0  0  0  0  0  0  0  0  0  0  0  0
   -3.7500   -1.2990    0.0000 C   0  0  0  0  0  0  0  0  0  0  0  0
   -3.0000   -2.5981    0.0000 N   0  0  0  0  0  0  0  0  0  0  0  0
   -1.5000   -2.5981    0.0000 C   0  0  0  0  0  0  0  0  0  0  0  0
   -0.7500   -3.8971    0.0000 N   0  0  0  0  0  0  0  0  0  0  0  0
   -1.5000   -5.1962    0.0000 C   0  0  0  0  0  0  0  0  0  0  0  0
   -3.0000   -5.1962    0.0000 C   0  0  0  0  0  0  0  0  0  0  0  0
   -3.7500   -6.4952    0.0000 C   0  0  0  0  0  0  0  0  0  0  0  0
   -3.0000   -7.7942    0.0000 C   0  0  0  0  0  0  0  0  0  0  0  0
   -3.7500   -9.0933    0.0000 O   0  0  0  0  0  0  0  0  0  0  0  0
   -5.2500   -9.0933    0.0000 C   0  0  0  0  0  0  0  0  0  0  0  0
   -6.0000  -10.3923    0.0000 C   0  0  0  0  0  0  0  0  0  0  0  0
   -7.5000  -10.3923    0.0000 C   0  0  0  0  0  0  0  0  0  0  0  0
   -8.2500  -11.6913    0.0000 N   0  0  0  0  0  0  0  0  0  0  0  0
   -7.5000  -12.9904    0.0000 C   0  0  0  0  0  0  0  0  0  0  0  0
   -6.0000  -12.9904    0.0000 C   0  0  0  0  0  0  0  0  0  0  0  0
   -5.2500  -11.6913    0.0000 N   0  0  0  0  0  0  0  0  0  0  0  0
   -1.5000   -7.7942    0.0000 C   0  0  0  0  0  0  0  0  0  0  0  0
   -0.7500   -9.0933    0.0000 Cl  0  0  0  0  0  0  0  0  0  0  0  0
   -0.7500   -6.4952    0.0000 C   0  0  0  0  0  0  0  0  0  0  0  0
   -0.7500   -1.2990    0.0000 C   0  0  0  0  0  0  0  0  0  0  0  0
    3.7500   -1.2990    0.0000 C   0  0  0  0  0  0  0  0  0  0  0  0
    5.2500   -1.2990    0.0000 C   0  0  0  0  0  0  0  0  0  0  0  0
  1  2  1  0
  2  3  1  0
  3  4  1  0
  4  5  1  0
  5  6  1  0
  6  7  1  0
  7  8  2  0
  8  9  1  0
  9 10  2  0
 10 11  1  0
 11 12  2  0
 12 13  1  0
 13 14  2  0
 14 15  1  0
 15 16  1  0
 16 17  1  0
 17 18  2  0
 18 19  1  0
 19 20  2  0
 20 21  1  0
 21 22  1  0
 22 23  1  0
 23 24  2  0
 24 25  1  0
 25 26  2  0
 26 27  1  0
 27 28  2  0
 20 29  1  0
 29 30  1  0
 29 31  2  0
 15 32  2  0
  5 33  1  0
 33 34  1  0
 34  2  1  0
 32  7  1  0
 32 11  1  0
 31 17  1  0
 28 23  1  0
M  END
>  <Compound_ID>  (1051) 
CHEMBL436511

>  <Active>  (1051) 
1.0

>  <Smiles>  (1051) 
CN1CCC(Oc2cccc3ncnc(Nc4ccc(OCc5cnccn5)c(Cl)c4)c23)CC1

>  <canonical_smi>  (1051) 
CN1CCC(Oc2cccc3ncnc(Nc4ccc(OCc5cnccn5)c(Cl)c4)c23)CC1

>  <Set>  (1051) 
G2 active

>  <Set_type>  (1051) 
Test

>  <MW>  (1051) 
476.97

>  <HBD>  (1051) 
1

>  <HBA>  (1051) 
8

>  <NRB>  (1051) 
7

>  <NR>  (1051) 
5

>  <NAR>  (1051) 
4

>  <PSA>  (1051) 
85.29

>  <Standard Type>  (1051) 
nan

>  <Standard Relation>  (1051) 
nan

>  <Standard Units>  (1051) 
nan

>  <Standard Value>  (1051) 
nan

>  <Assay ChEMBL ID>  (1051) 
nan

>  <Assay Description>  (1051) 
nan

>  <BAO Label>  (1051) 
nan

$$$$

     RDKit          2D

 33 37  0  0  0  0  0  0  0  0999 V2000
    7.5000   -2.5981    0.0000 C   0  0  0  0  0  0  0  0  0  0  0  0
    6.0000   -2.5981    0.0000 N   0  0  0  0  0  0  0  0  0  0  0  0
    5.2500   -3.8971    0.0000 C   0  0  0  0  0  0  0  0  0  0  0  0
    3.7500   -3.8971    0.0000 C   0  0  0  0  0  0  0  0  0  0  0  0
    3.0000   -2.5981    0.0000 C   0  0  0  0  0  0  0  0  0  0  0  0
    1.5000   -2.5981    0.0000 O   0  0  0  0  0  0  0  0  0  0  0  0
    0.7500   -1.2990    0.0000 C   0  0  0  0  0  0  0  0  0  0  0  0
    1.5000    0.0000    0.0000 C   0  0  0  0  0  0  0  0  0  0  0  0
    0.7500    1.2990    0.0000 C   0  0  0  0  0  0  0  0  0  0  0  0
   -0.7500    1.2990    0.0000 C   0  0  0  0  0  0  0  0  0  0  0  0
   -1.5000    0.0000    0.0000 C   0  0  0  0  0  0  0  0  0  0  0  0
   -3.0000    0.0000    0.0000 N   0  0  0  0  0  0  0  0  0  0  0  0
   -3.7500   -1.2990    0.0000 C   0  0  0  0  0  0  0  0  0  0  0  0
   -3.0000   -2.5981    0.0000 N   0  0  0  0  0  0  0  0  0  0  0  0
   -1.5000   -2.5981    0.0000 C   0  0  0  0  0  0  0  0  0  0  0  0
   -0.7500   -3.8971    0.0000 N   0  0  0  0  0  0  0  0  0  0  0  0
   -1.5000   -5.1962    0.0000 C   0  0  0  0  0  0  0  0  0  0  0  0
   -3.0000   -5.1962    0.0000 C   0  0  0  0  0  0  0  0  0  0  0  0
   -3.7500   -6.4952    0.0000 C   0  0  0  0  0  0  0  0  0  0  0  0
   -3.0000   -7.7942    0.0000 C   0  0  0  0  0  0  0  0  0  0  0  0
   -3.7500   -9.0933    0.0000 O   0  0  0  0  0  0  0  0  0  0  0  0
   -5.2500   -9.0933    0.0000 C   0  0  0  0  0  0  0  0  0  0  0  0
   -6.0000  -10.3923    0.0000 C   0  0  0  0  0  0  0  0  0  0  0  0
   -5.3899  -11.7626    0.0000 C   0  0  0  0  0  0  0  0  0  0  0  0
   -6.5046  -12.7663    0.0000 S   0  0  0  0  0  0  0  0  0  0  0  0
   -7.8037  -12.0163    0.0000 C   0  0  0  0  0  0  0  0  0  0  0  0
   -7.4918  -10.5491    0.0000 N   0  0  0  0  0  0  0  0  0  0  0  0
   -1.5000   -7.7942    0.0000 C   0  0  0  0  0  0  0  0  0  0  0  0
   -0.7500   -9.0933    0.0000 Cl  0  0  0  0  0  0  0  0  0  0  0  0
   -0.7500   -6.4952    0.0000 C   0  0  0  0  0  0  0  0  0  0  0  0
   -0.7500   -1.2990    0.0000 C   0  0  0  0  0  0  0  0  0  0  0  0
    3.7500   -1.2990    0.0000 C   0  0  0  0  0  0  0  0  0  0  0  0
    5.2500   -1.2990    0.0000 C   0  0  0  0  0  0  0  0  0  0  0  0
  1  2  1  0
  2  3  1  0
  3  4  1  0
  4  5  1  0
  5  6  1  0
  6  7  1  0
  7  8  2  0
  8  9  1  0
  9 10  2  0
 10 11  1  0
 11 12  2  0
 12 13  1  0
 13 14  2  0
 14 15  1  0
 15 16  1  0
 16 17  1  0
 17 18  2  0
 18 19  1  0
 19 20  2  0
 20 21  1  0
 21 22  1  0
 22 23  1  0
 23 24  2  0
 24 25  1  0
 25 26  1  0
 26 27  2  0
 20 28  1  0
 28 29  1  0
 28 30  2  0
 15 31  2  0
  5 32  1  0
 32 33  1  0
 33  2  1  0
 31  7  1  0
 31 11  1  0
 30 17  1  0
 27 23  1  0
M  END
>  <Compound_ID>  (1052) 
CHEMBL195204

>  <Active>  (1052) 
1.0

>  <Smiles>  (1052) 
CN1CCC(Oc2cccc3ncnc(Nc4ccc(OCc5cscn5)c(Cl)c4)c23)CC1

>  <canonical_smi>  (1052) 
CN1CCC(Oc2cccc3ncnc(Nc4ccc(OCc5cscn5)c(Cl)c4)c23)CC1

>  <Set>  (1052) 
G2 active

>  <Set_type>  (1052) 
Test

>  <MW>  (1052) 
482.01

>  <HBD>  (1052) 
1

>  <HBA>  (1052) 
7

>  <NRB>  (1052) 
7

>  <NR>  (1052) 
5

>  <NAR>  (1052) 
4

>  <PSA>  (1052) 
72.4

>  <Standard Type>  (1052) 
nan

>  <Standard Relation>  (1052) 
nan

>  <Standard Units>  (1052) 
nan

>  <Standard Value>  (1052) 
nan

>  <Assay ChEMBL ID>  (1052) 
nan

>  <Assay Description>  (1052) 
nan

>  <BAO Label>  (1052) 
nan

$$$$

     RDKit          2D

 36 37  0  0  0  0  0  0  0  0999 V2000
   -2.2500   -3.8971    0.0000 N   0  0  0  0  0  0  0  0  0  0  0  0
   -0.7500   -3.8971    0.0000 C   0  0  0  0  0  0  0  0  0  0  0  0
    0.7500   -3.8971    0.0000 C   0  0  0  0  0  0  0  0  0  0  0  0
    1.5000   -2.5981    0.0000 C   0  0  0  0  0  0  0  0  0  0  0  0
    0.7500   -1.2990    0.0000 C   0  0  0  0  0  0  0  0  0  0  0  0
    1.5000    0.0000    0.0000 C   0  0  0  0  0  0  0  0  0  0  0  0
    0.7500    1.2990    0.0000 C   0  0  0  0  0  0  0  0  0  0  0  0
   -0.7500    1.2990    0.0000 C   0  0  0  0  0  0  0  0  0  0  0  0
   -1.5000    2.5981    0.0000 O   0  0  0  0  0  0  0  0  0  0  0  0
   -1.5000    0.0000    0.0000 C   0  0  0  0  0  0  0  0  0  0  0  0
   -3.0000    0.0000    0.0000 O   0  0  0  0  0  0  0  0  0  0  0  0
   -0.7500   -1.2990    0.0000 C   0  0  0  0  0  0  0  0  0  0  0  0
    1.5000   -5.1962    0.0000 C   0  0  0  0  0  0  0  0  0  0  0  0
    3.0000   -5.1962    0.0000 O   0  0  0  0  0  0  0  0  0  0  0  0
    0.7500   -6.4952    0.0000 N   0  0  0  0  0  0  0  0  0  0  0  0
    1.5000   -7.7942    0.0000 C   0  0  0  0  0  0  0  0  0  0  0  0
    0.7500   -9.0933    0.0000 C   0  0  0  0  0  0  0  0  0  0  0  0
    1.5000  -10.3923    0.0000 C   0  0  0  0  0  0  0  0  0  0  0  0
    0.7500  -11.6913    0.0000 C   0  0  0  0  0  0  0  0  0  0  0  0
    1.5000  -12.9904    0.0000 C   0  0  0  0  0  0  0  0  0  0  0  0
    0.7500  -14.2894    0.0000 C   0  0  0  0  0  0  0  0  0  0  0  0
    1.5000  -15.5885    0.0000 N   0  0  0  0  0  0  0  0  0  0  0  0
    0.7500  -16.8875    0.0000 C   0  0  0  0  0  0  0  0  0  0  0  0
   -0.7500  -16.8875    0.0000 O   0  0  0  0  0  0  0  0  0  0  0  0
    1.5000  -18.1865    0.0000 C   0  0  0  0  0  0  0  0  0  0  0  0
    3.0000  -18.1865    0.0000 C   0  0  0  0  0  0  0  0  0  0  0  0
    4.5000  -18.1865    0.0000 N   0  0  0  0  0  0  0  0  0  0  0  0
    0.7500  -19.4856    0.0000 C   0  0  0  0  0  0  0  0  0  0  0  0
    1.5000  -20.7846    0.0000 C   0  0  0  0  0  0  0  0  0  0  0  0
    0.7500  -22.0836    0.0000 C   0  0  0  0  0  0  0  0  0  0  0  0
    1.5000  -23.3827    0.0000 C   0  0  0  0  0  0  0  0  0  0  0  0
    3.0000  -23.3827    0.0000 C   0  0  0  0  0  0  0  0  0  0  0  0
    3.7500  -24.6817    0.0000 O   0  0  0  0  0  0  0  0  0  0  0  0
    3.7500  -22.0836    0.0000 C   0  0  0  0  0  0  0  0  0  0  0  0
    5.2500  -22.0836    0.0000 O   0  0  0  0  0  0  0  0  0  0  0  0
    3.0000  -20.7846    0.0000 C   0  0  0  0  0  0  0  0  0  0  0  0
  1  2  3  0
  2  3  1  0
  3  4  2  0
  4  5  1  0
  5  6  2  0
  6  7  1  0
  7  8  2  0
  8  9  1  0
  8 10  1  0
 10 11  1  0
 10 12  2  0
  3 13  1  0
 13 14  2  0
 13 15  1  0
 15 16  1  0
 16 17  1  0
 17 18  1  0
 18 19  1  0
 19 20  1  0
 20 21  1  0
 21 22  1  0
 22 23  1  0
 23 24  2  0
 23 25  1  0
 25 26  1  0
 26 27  3  0
 25 28  2  0
 28 29  1  0
 29 30  2  0
 30 31  1  0
 31 32  2  0
 32 33  1  0
 32 34  1  0
 34 35  1  0
 34 36  2  0
 12  5  1  0
 36 29  1  0
M  END
>  <Compound_ID>  (1053) 
CHEMBL144760

>  <Active>  (1053) 
1.0

>  <Smiles>  (1053) 
N#C/C(=C\c1ccc(O)c(O)c1)C(=O)NCCCCCCNC(=O)/C(C#N)=C/c1ccc(O)c(O)c1

>  <canonical_smi>  (1053) 
N#C/C(=C\c1ccc(O)c(O)c1)C(=O)NCCCCCCNC(=O)/C(C#N)=C/c1ccc(O)c(O)c1

>  <Set>  (1053) 
G2 active

>  <Set_type>  (1053) 
Test

>  <MW>  (1053) 
490.52

>  <HBD>  (1053) 
6

>  <HBA>  (1053) 
8

>  <NRB>  (1053) 
11

>  <NR>  (1053) 
2

>  <NAR>  (1053) 
2

>  <PSA>  (1053) 
186.7

>  <Standard Type>  (1053) 
nan

>  <Standard Relation>  (1053) 
nan

>  <Standard Units>  (1053) 
nan

>  <Standard Value>  (1053) 
nan

>  <Assay ChEMBL ID>  (1053) 
nan

>  <Assay Description>  (1053) 
nan

>  <BAO Label>  (1053) 
nan

$$$$

     RDKit          2D

 36 41  0  0  0  0  0  0  0  0999 V2000
   -6.5396   -6.3955    0.0000 O   0  0  0  0  0  0  0  0  0  0  0  0
   -5.0397   -6.3730    0.0000 C   0  0  0  0  0  0  0  0  0  0  0  0
   -4.3688   -7.7146    0.0000 C   0  0  0  0  0  0  0  0  0  0  0  0
   -2.9016   -8.0265    0.0000 N   0  0  0  0  0  0  0  0  0  0  0  0
   -1.7429   -7.0738    0.0000 C   0  0  0  0  0  0  0  0  0  0  0  0
   -1.7654   -5.5740    0.0000 C   0  0  0  0  0  0  0  0  0  0  0  0
   -2.9520   -4.6564    0.0000 N   0  0  0  0  0  0  0  0  0  0  0  0
   -2.6401   -3.1891    0.0000 C   0  0  0  0  0  0  0  0  0  0  0  0
   -1.2135   -2.7256    0.0000 C   0  0  0  0  0  0  0  0  0  0  0  0
   -0.0000   -3.6073    0.0000 C   0  0  0  0  0  0  0  0  0  0  0  0
    1.2135   -2.7256    0.0000 C   0  0  0  0  0  0  0  0  0  0  0  0
    0.7500   -1.2990    0.0000 N   0  0  0  0  0  0  0  0  0  0  0  0
    1.5000    0.0000    0.0000 N   0  0  0  0  0  0  0  0  0  0  0  0
    0.7500    1.2990    0.0000 C   0  0  0  0  0  0  0  0  0  0  0  0
   -0.7500    1.2990    0.0000 N   0  0  0  0  0  0  0  0  0  0  0  0
   -1.5000    0.0000    0.0000 C   0  0  0  0  0  0  0  0  0  0  0  0
   -3.0000    0.0000    0.0000 N   0  0  0  0  0  0  0  0  0  0  0  0
   -3.7500    1.2990    0.0000 C   0  0  0  0  0  0  0  0  0  0  0  0
   -3.0000    2.5981    0.0000 C   0  0  0  0  0  0  0  0  0  0  0  0
   -3.7500    3.8971    0.0000 C   0  0  0  0  0  0  0  0  0  0  0  0
   -5.2500    3.8971    0.0000 C   0  0  0  0  0  0  0  0  0  0  0  0
   -6.0000    2.5981    0.0000 C   0  0  0  0  0  0  0  0  0  0  0  0
   -7.4672    2.9099    0.0000 C   0  0  0  0  0  0  0  0  0  0  0  0
   -7.6240    4.4017    0.0000 N   0  0  0  0  0  0  0  0  0  0  0  0
   -6.2537    5.0118    0.0000 N   0  0  0  0  0  0  0  0  0  0  0  0
   -5.9418    6.4791    0.0000 C   0  0  0  0  0  0  0  0  0  0  0  0
   -7.0565    7.4827    0.0000 C   0  0  0  0  0  0  0  0  0  0  0  0
   -6.7447    8.9500    0.0000 C   0  0  0  0  0  0  0  0  0  0  0  0
   -7.8594    9.9537    0.0000 C   0  0  0  0  0  0  0  0  0  0  0  0
   -9.2860    9.4901    0.0000 C   0  0  0  0  0  0  0  0  0  0  0  0
   -9.5978    8.0229    0.0000 C   0  0  0  0  0  0  0  0  0  0  0  0
  -11.0244    7.5594    0.0000 F   0  0  0  0  0  0  0  0  0  0  0  0
   -8.4831    7.0192    0.0000 C   0  0  0  0  0  0  0  0  0  0  0  0
   -5.2500    1.2990    0.0000 C   0  0  0  0  0  0  0  0  0  0  0  0
   -0.7500   -1.2990    0.0000 C   0  0  0  0  0  0  0  0  0  0  0  0
   -4.4092   -5.0120    0.0000 C   0  0  0  0  0  0  0  0  0  0  0  0
  1  2  2  0
  2  3  1  0
  3  4  1  0
  4  5  1  0
  5  6  1  0
  6  7  1  0
  7  8  1  0
  8  9  1  0
  9 10  1  0
 10 11  2  0
 11 12  1  0
 12 13  1  0
 13 14  2  0
 14 15  1  0
 15 16  2  0
 16 17  1  0
 17 18  1  0
 18 19  2  0
 19 20  1  0
 20 21  2  0
 21 22  1  0
 22 23  1  0
 23 24  2  0
 24 25  1  0
 25 26  1  0
 26 27  1  0
 27 28  2  0
 28 29  1  0
 29 30  2  0
 30 31  1  0
 31 32  1  0
 31 33  2  0
 22 34  2  0
 16 35  1  0
  7 36  1  0
 36  2  1  0
 35  9  2  0
 35 12  1  0
 34 18  1  0
 25 21  1  0
 33 27  1  0
M  END
>  <Compound_ID>  (1054) 
CHEMBL234580

>  <Active>  (1054) 
1.0

>  <Smiles>  (1054) 
O=C1CNCCN(Cc2ccn3ncnc(Nc4ccc5c(cnn5Cc5cccc(F)c5)c4)c23)C1

>  <canonical_smi>  (1054) 
O=C1CNCCN(Cc2ccn3ncnc(Nc4ccc5c(cnn5Cc5cccc(F)c5)c4)c23)C1

>  <Set>  (1054) 
G2 active

>  <Set_type>  (1054) 
Test

>  <MW>  (1054) 
484.54

>  <HBD>  (1054) 
2

>  <HBA>  (1054) 
7

>  <NRB>  (1054) 
6

>  <NR>  (1054) 
6

>  <NAR>  (1054) 
5

>  <PSA>  (1054) 
92.38

>  <Standard Type>  (1054) 
nan

>  <Standard Relation>  (1054) 
nan

>  <Standard Units>  (1054) 
nan

>  <Standard Value>  (1054) 
nan

>  <Assay ChEMBL ID>  (1054) 
nan

>  <Assay Description>  (1054) 
nan

>  <BAO Label>  (1054) 
nan

$$$$

     RDKit          2D

 35 40  0  0  0  0  0  0  0  0999 V2000
   -2.1491   -7.1273    0.0000 C   0  0  0  0  0  0  0  0  0  0  0  0
   -3.5757   -7.5908    0.0000 C   0  0  0  0  0  0  0  0  0  0  0  0
   -4.6904   -6.5871    0.0000 N   0  0  0  0  0  0  0  0  0  0  0  0
   -4.3786   -5.1199    0.0000 C   0  0  0  0  0  0  0  0  0  0  0  0
   -2.9520   -4.6564    0.0000 C   0  0  0  0  0  0  0  0  0  0  0  0
   -2.6401   -3.1891    0.0000 C   0  0  0  0  0  0  0  0  0  0  0  0
   -1.2135   -2.7256    0.0000 N   0  0  0  0  0  0  0  0  0  0  0  0
   -0.0000   -3.6073    0.0000 N   0  0  0  0  0  0  0  0  0  0  0  0
    1.2135   -2.7256    0.0000 C   0  0  0  0  0  0  0  0  0  0  0  0
    0.7500   -1.2990    0.0000 C   0  0  0  0  0  0  0  0  0  0  0  0
    1.5000    0.0000    0.0000 C   0  0  0  0  0  0  0  0  0  0  0  0
    0.7500    1.2990    0.0000 C   0  0  0  0  0  0  0  0  0  0  0  0
    1.5000    2.5981    0.0000 N   0  0  0  0  0  0  0  0  0  0  0  0
    3.0000    2.5981    0.0000 C   0  0  0  0  0  0  0  0  0  0  0  0
    3.7500    1.2990    0.0000 N   0  0  0  0  0  0  0  0  0  0  0  0
    5.2500    1.2990    0.0000 C   0  0  0  0  0  0  0  0  0  0  0  0
    6.0000    2.5981    0.0000 N   0  0  0  0  0  0  0  0  0  0  0  0
    5.2500    3.8971    0.0000 N   0  0  0  0  0  0  0  0  0  0  0  0
    5.7135    5.3237    0.0000 C   0  0  0  0  0  0  0  0  0  0  0  0
    4.5000    6.2054    0.0000 C   0  0  0  0  0  0  0  0  0  0  0  0
    3.2865    5.3237    0.0000 C   0  0  0  0  0  0  0  0  0  0  0  0
    1.8599    5.7872    0.0000 C   0  0  0  0  0  0  0  0  0  0  0  0
    1.5480    7.2544    0.0000 O   0  0  0  0  0  0  0  0  0  0  0  0
    0.1214    7.7180    0.0000 C   0  0  0  0  0  0  0  0  0  0  0  0
   -0.1904    9.1852    0.0000 C   0  0  0  0  0  0  0  0  0  0  0  0
    0.9243   10.1889    0.0000 C   0  0  0  0  0  0  0  0  0  0  0  0
    0.6124   11.6561    0.0000 N   0  0  0  0  0  0  0  0  0  0  0  0
   -0.8142   12.1196    0.0000 C   0  0  0  0  0  0  0  0  0  0  0  0
   -1.9289   11.1159    0.0000 C   0  0  0  0  0  0  0  0  0  0  0  0
   -1.6170    9.6487    0.0000 O   0  0  0  0  0  0  0  0  0  0  0  0
    3.7500    3.8971    0.0000 C   0  0  0  0  0  0  0  0  0  0  0  0
   -0.7500    1.2990    0.0000 C   0  0  0  0  0  0  0  0  0  0  0  0
   -1.5000    0.0000    0.0000 C   0  0  0  0  0  0  0  0  0  0  0  0
   -0.7500   -1.2990    0.0000 C   0  0  0  0  0  0  0  0  0  0  0  0
   -1.8373   -5.6601    0.0000 C   0  0  0  0  0  0  0  0  0  0  0  0
  1  2  2  0
  2  3  1  0
  3  4  2  0
  4  5  1  0
  5  6  1  0
  6  7  1  0
  7  8  1  0
  8  9  2  0
  9 10  1  0
 10 11  2  0
 11 12  1  0
 12 13  1  0
 13 14  1  0
 14 15  2  0
 15 16  1  0
 16 17  2  0
 17 18  1  0
 18 19  1  0
 19 20  2  0
 20 21  1  0
 21 22  1  0
 22 23  1  0
 23 24  1  0
 25 24  1  1
 25 26  1  0
 26 27  1  0
 27 28  1  0
 28 29  1  0
 29 30  1  0
 21 31  2  0
 12 32  2  0
 32 33  1  0
 33 34  2  0
  5 35  2  0
 35  1  1  0
 34  7  1  0
 34 10  1  0
 31 14  1  0
 31 18  1  0
 30 25  1  0
M  END
>  <Compound_ID>  (1055) 
CHEMBL247127

>  <Active>  (1055) 
1.0

>  <Smiles>  (1055) 
c1cncc(Cn2ncc3cc(Nc4ncnn5ccc(COC[C@@H]6CNCCO6)c45)ccc32)c1

>  <canonical_smi>  (1055) 
c1cncc(Cn2ncc3cc(Nc4ncnn5ccc(COC[C@@H]6CNCCO6)c45)ccc32)c1

>  <Set>  (1055) 
G2 active

>  <Set_type>  (1055) 
Test

>  <MW>  (1055) 
470.54

>  <HBD>  (1055) 
2

>  <HBA>  (1055) 
8

>  <NRB>  (1055) 
8

>  <NR>  (1055) 
6

>  <NAR>  (1055) 
5

>  <PSA>  (1055) 
103.42

>  <Standard Type>  (1055) 
nan

>  <Standard Relation>  (1055) 
nan

>  <Standard Units>  (1055) 
nan

>  <Standard Value>  (1055) 
nan

>  <Assay ChEMBL ID>  (1055) 
nan

>  <Assay Description>  (1055) 
nan

>  <BAO Label>  (1055) 
nan

$$$$

     RDKit          2D

 29 32  0  0  0  0  0  0  0  0999 V2000
    2.2484    6.9199    0.0000 C   0  0  0  0  0  0  0  0  0  0  0  0
    1.7849    5.4933    0.0000 C   0  0  0  0  0  0  0  0  0  0  0  0
    2.7886    4.3786    0.0000 C   0  0  0  0  0  0  0  0  0  0  0  0
    2.3250    2.9520    0.0000 C   0  0  0  0  0  0  0  0  0  0  0  0
    3.3287    1.8373    0.0000 O   0  0  0  0  0  0  0  0  0  0  0  0
    0.8578    2.6401    0.0000 C   0  0  0  0  0  0  0  0  0  0  0  0
    0.3943    1.2135    0.0000 C   0  0  0  0  0  0  0  0  0  0  0  0
    1.2760    0.0000    0.0000 N   0  0  0  0  0  0  0  0  0  0  0  0
    0.3943   -1.2135    0.0000 N   0  0  0  0  0  0  0  0  0  0  0  0
   -1.0323   -0.7500    0.0000 C   0  0  0  0  0  0  0  0  0  0  0  0
   -1.0323    0.7500    0.0000 C   0  0  0  0  0  0  0  0  0  0  0  0
   -2.4589    1.2135    0.0000 C   0  0  0  0  0  0  0  0  0  0  0  0
   -2.9224    2.6401    0.0000 C   0  0  0  0  0  0  0  0  0  0  0  0
   -1.9187    3.7548    0.0000 C   0  0  0  0  0  0  0  0  0  0  0  0
   -2.3822    5.1814    0.0000 C   0  0  0  0  0  0  0  0  0  0  0  0
   -3.8494    5.4933    0.0000 C   0  0  0  0  0  0  0  0  0  0  0  0
   -4.3130    6.9199    0.0000 Cl  0  0  0  0  0  0  0  0  0  0  0  0
   -4.8531    4.3786    0.0000 C   0  0  0  0  0  0  0  0  0  0  0  0
   -4.3896    2.9520    0.0000 C   0  0  0  0  0  0  0  0  0  0  0  0
   -3.3405    0.0000    0.0000 N   0  0  0  0  0  0  0  0  0  0  0  0
   -4.8405    0.0000    0.0000 C   0  0  0  0  0  0  0  0  0  0  0  0
   -5.5905   -1.2990    0.0000 C   0  0  0  0  0  0  0  0  0  0  0  0
   -7.0905   -1.2990    0.0000 C   0  0  0  0  0  0  0  0  0  0  0  0
   -7.8405   -2.5981    0.0000 O   0  0  0  0  0  0  0  0  0  0  0  0
   -2.4589   -1.2135    0.0000 C   0  0  0  0  0  0  0  0  0  0  0  0
   -2.9224   -2.6401    0.0000 O   0  0  0  0  0  0  0  0  0  0  0  0
   -0.1459    3.7548    0.0000 C   0  0  0  0  0  0  0  0  0  0  0  0
    0.3177    5.1814    0.0000 C   0  0  0  0  0  0  0  0  0  0  0  0
   -0.6860    6.2961    0.0000 C   0  0  0  0  0  0  0  0  0  0  0  0
  1  2  1  0
  2  3  2  0
  3  4  1  0
  4  5  1  0
  4  6  2  0
  6  7  1  0
  7  8  2  0
  8  9  1  0
  9 10  1  0
 10 11  2  0
 11 12  1  0
 12 13  1  6
 13 14  2  0
 14 15  1  0
 15 16  2  0
 16 17  1  0
 16 18  1  0
 18 19  2  0
 12 20  1  0
 20 21  1  0
 21 22  1  0
 22 23  1  0
 23 24  1  0
 20 25  1  0
 25 26  2  0
  6 27  1  0
 27 28  2  0
 28 29  1  0
 28  2  1  0
 11  7  1  0
 19 13  1  0
 25 10  1  0
M  END
>  <Compound_ID>  (1056) 
C04809695

>  <Active>  (1056) 
0.0

>  <Smiles>  (1056) 
Cc1cc(O)c(-c2n[nH]c3c2[C@@H](c2ccc(Cl)cc2)N(CCCO)C3=O)cc1C

>  <canonical_smi>  (1056) 
Cc1cc(O)c(-c2n[nH]c3c2[C@@H](c2ccc(Cl)cc2)N(CCCO)C3=O)cc1C

>  <Set>  (1056) 
G2 inactive

>  <Set_type>  (1056) 
Test

>  <MW>  (1056) 
411.89

>  <HBD>  (1056) 
3

>  <HBA>  (1056) 
4

>  <NRB>  (1056) 
5

>  <NR>  (1056) 
4

>  <NAR>  (1056) 
3

>  <PSA>  (1056) 
89.45

>  <Standard Type>  (1056) 
nan

>  <Standard Relation>  (1056) 
nan

>  <Standard Units>  (1056) 
nan

>  <Standard Value>  (1056) 
nan

>  <Assay ChEMBL ID>  (1056) 
nan

>  <Assay Description>  (1056) 
nan

>  <BAO Label>  (1056) 
nan

$$$$

     RDKit          2D

 21 23  0  0  0  0  0  0  0  0999 V2000
   -0.0000   -6.6073    0.0000 N   0  0  0  0  0  0  0  0  0  0  0  0
   -0.0000   -5.1073    0.0000 C   0  0  0  0  0  0  0  0  0  0  0  0
   -0.0000   -3.6073    0.0000 C   0  0  0  0  0  0  0  0  0  0  0  0
    1.2135   -2.7256    0.0000 S   0  0  0  0  0  0  0  0  0  0  0  0
    0.7500   -1.2990    0.0000 C   0  0  0  0  0  0  0  0  0  0  0  0
    1.5000    0.0000    0.0000 N   0  0  0  0  0  0  0  0  0  0  0  0
    0.7500    1.2990    0.0000 C   0  0  0  0  0  0  0  0  0  0  0  0
    1.5000    2.5981    0.0000 C   0  0  0  0  0  0  0  0  0  0  0  0
    2.2500    3.8971    0.0000 F   0  0  0  0  0  0  0  0  0  0  0  0
    2.7990    1.8481    0.0000 F   0  0  0  0  0  0  0  0  0  0  0  0
    0.2010    3.3481    0.0000 F   0  0  0  0  0  0  0  0  0  0  0  0
   -0.7500    1.2990    0.0000 C   0  0  0  0  0  0  0  0  0  0  0  0
   -1.5000    0.0000    0.0000 C   0  0  0  0  0  0  0  0  0  0  0  0
   -3.0000    0.0000    0.0000 C   0  0  0  0  0  0  0  0  0  0  0  0
   -3.8817   -1.2135    0.0000 C   0  0  0  0  0  0  0  0  0  0  0  0
   -5.3083   -0.7500    0.0000 C   0  0  0  0  0  0  0  0  0  0  0  0
   -5.3083    0.7500    0.0000 C   0  0  0  0  0  0  0  0  0  0  0  0
   -3.8817    1.2135    0.0000 O   0  0  0  0  0  0  0  0  0  0  0  0
   -0.7500   -1.2990    0.0000 C   0  0  0  0  0  0  0  0  0  0  0  0
   -1.2135   -2.7256    0.0000 C   0  0  0  0  0  0  0  0  0  0  0  0
   -2.6401   -3.1891    0.0000 N   0  0  0  0  0  0  0  0  0  0  0  0
  1  2  3  0
  2  3  1  0
  3  4  1  0
  4  5  1  0
  5  6  2  0
  6  7  1  0
  7  8  1  0
  8  9  1  0
  8 10  1  0
  8 11  1  0
  7 12  2  0
 12 13  1  0
 13 14  1  0
 14 15  2  0
 15 16  1  0
 16 17  2  0
 17 18  1  0
 13 19  2  0
 19 20  1  0
 20 21  1  0
 20  3  2  0
 19  5  1  0
 18 14  1  0
M  END
>  <Compound_ID>  (1057) 
C20328929

>  <Active>  (1057) 
0.0

>  <Smiles>  (1057) 
N#Cc1sc2nc(C(F)(F)F)cc(-c3ccco3)c2c1N

>  <canonical_smi>  (1057) 
N#Cc1sc2nc(C(F)(F)F)cc(-c3ccco3)c2c1N

>  <Set>  (1057) 
G2 inactive

>  <Set_type>  (1057) 
Test

>  <MW>  (1057) 
309.27

>  <HBD>  (1057) 
1

>  <HBA>  (1057) 
4

>  <NRB>  (1057) 
1

>  <NR>  (1057) 
3

>  <NAR>  (1057) 
3

>  <PSA>  (1057) 
75.84

>  <Standard Type>  (1057) 
nan

>  <Standard Relation>  (1057) 
nan

>  <Standard Units>  (1057) 
nan

>  <Standard Value>  (1057) 
nan

>  <Assay ChEMBL ID>  (1057) 
nan

>  <Assay Description>  (1057) 
nan

>  <BAO Label>  (1057) 
nan

$$$$

     RDKit          2D

 35 39  0  0  0  0  0  0  0  0999 V2000
   -8.1517   -8.1192    0.0000 C   0  0  0  0  0  0  0  0  0  0  0  0
   -6.8527   -8.8692    0.0000 N   0  0  0  0  0  0  0  0  0  0  0  0
   -6.8527  -10.3692    0.0000 C   0  0  0  0  0  0  0  0  0  0  0  0
   -8.1517  -11.1192    0.0000 O   0  0  0  0  0  0  0  0  0  0  0  0
   -5.5537  -11.1192    0.0000 N   0  0  0  0  0  0  0  0  0  0  0  0
   -4.2546  -10.3692    0.0000 C   0  0  0  0  0  0  0  0  0  0  0  0
   -2.9556  -11.1192    0.0000 C   0  0  0  0  0  0  0  0  0  0  0  0
   -1.6565  -10.3692    0.0000 C   0  0  0  0  0  0  0  0  0  0  0  0
   -0.3575  -11.1192    0.0000 C   0  0  0  0  0  0  0  0  0  0  0  0
   -0.3575  -12.6192    0.0000 C   0  0  0  0  0  0  0  0  0  0  0  0
   -1.6565  -13.3692    0.0000 C   0  0  0  0  0  0  0  0  0  0  0  0
   -2.9556  -12.6192    0.0000 C   0  0  0  0  0  0  0  0  0  0  0  0
   -4.2546  -13.3692    0.0000 C   0  0  0  0  0  0  0  0  0  0  0  0
   -5.5537  -14.1192    0.0000 F   0  0  0  0  0  0  0  0  0  0  0  0
   -3.5046  -14.6682    0.0000 F   0  0  0  0  0  0  0  0  0  0  0  0
   -5.0046  -12.0702    0.0000 F   0  0  0  0  0  0  0  0  0  0  0  0
   -4.2546   -8.8692    0.0000 C   0  0  0  0  0  0  0  0  0  0  0  0
   -5.5537   -8.1192    0.0000 C   0  0  0  0  0  0  0  0  0  0  0  0
   -5.2418   -6.6520    0.0000 C   0  0  0  0  0  0  0  0  0  0  0  0
   -3.7500   -6.4952    0.0000 N   0  0  0  0  0  0  0  0  0  0  0  0
   -3.0000   -5.1962    0.0000 C   0  0  0  0  0  0  0  0  0  0  0  0
   -1.5000   -5.1962    0.0000 C   0  0  0  0  0  0  0  0  0  0  0  0
   -0.7500   -6.4952    0.0000 O   0  0  0  0  0  0  0  0  0  0  0  0
   -0.7500   -3.8971    0.0000 N   0  0  0  0  0  0  0  0  0  0  0  0
    0.7500   -3.8971    0.0000 C   0  0  0  0  0  0  0  0  0  0  0  0
    1.5000   -2.5981    0.0000 C   0  0  0  0  0  0  0  0  0  0  0  0
    0.7500   -1.2990    0.0000 C   0  0  0  0  0  0  0  0  0  0  0  0
    1.5000    0.0000    0.0000 C   0  0  0  0  0  0  0  0  0  0  0  0
    0.7500    1.2990    0.0000 C   0  0  0  0  0  0  0  0  0  0  0  0
   -0.7500    1.2990    0.0000 C   0  0  0  0  0  0  0  0  0  0  0  0
   -1.5000    0.0000    0.0000 C   0  0  0  0  0  0  0  0  0  0  0  0
   -0.7500   -1.2990    0.0000 C   0  0  0  0  0  0  0  0  0  0  0  0
   -1.5000   -2.5981    0.0000 C   0  0  0  0  0  0  0  0  0  0  0  0
   -3.1399   -7.8655    0.0000 C   0  0  0  0  0  0  0  0  0  0  0  0
   -1.6727   -8.1774    0.0000 O   0  0  0  0  0  0  0  0  0  0  0  0
  1  2  1  0
  2  3  1  0
  3  4  2  0
  3  5  1  0
  5  6  1  0
  6  7  1  1
  7  8  2  0
  8  9  1  0
  9 10  2  0
 10 11  1  0
 11 12  2  0
 12 13  1  0
 13 14  1  0
 13 15  1  0
 13 16  1  0
  6 17  1  0
 17 18  2  0
 18 19  1  0
 19 20  1  0
 20 21  1  0
 21 22  1  0
 22 23  2  0
 22 24  1  0
 24 25  1  0
 25 26  1  0
 26 27  1  0
 27 28  2  0
 28 29  1  0
 29 30  2  0
 30 31  1  0
 31 32  2  0
 32 33  1  0
 20 34  1  0
 34 35  2  0
 18  2  1  0
 33 24  1  0
 12  7  1  0
 34 17  1  0
 32 27  1  0
M  END
>  <Compound_ID>  (1058) 
C34792153

>  <Active>  (1058) 
0.0

>  <Smiles>  (1058) 
CN1C(=O)N[C@H](c2ccccc2C(F)(F)F)C2=C1CN(CC(=O)N1CCc3ccccc3C1)C2=O

>  <canonical_smi>  (1058) 
CN1C(=O)N[C@H](c2ccccc2C(F)(F)F)C2=C1CN(CC(=O)N1CCc3ccccc3C1)C2=O

>  <Set>  (1058) 
G2 inactive

>  <Set_type>  (1058) 
Test

>  <MW>  (1058) 
484.48

>  <HBD>  (1058) 
1

>  <HBA>  (1058) 
3

>  <NRB>  (1058) 
3

>  <NR>  (1058) 
5

>  <NAR>  (1058) 
2

>  <PSA>  (1058) 
72.96

>  <Standard Type>  (1058) 
nan

>  <Standard Relation>  (1058) 
nan

>  <Standard Units>  (1058) 
nan

>  <Standard Value>  (1058) 
nan

>  <Assay ChEMBL ID>  (1058) 
nan

>  <Assay Description>  (1058) 
nan

>  <BAO Label>  (1058) 
nan

$$$$

     RDKit          2D

 32 35  0  0  0  0  0  0  0  0999 V2000
    9.0000  -15.5885    0.0000 C   0  0  0  0  0  0  0  0  0  0  0  0
    7.5000  -15.5885    0.0000 C   0  0  0  0  0  0  0  0  0  0  0  0
    6.7500  -16.8875    0.0000 C   0  0  0  0  0  0  0  0  0  0  0  0
    6.7500  -14.2894    0.0000 C   0  0  0  0  0  0  0  0  0  0  0  0
    5.2500  -14.2894    0.0000 C   0  0  0  0  0  0  0  0  0  0  0  0
    4.5000  -15.5885    0.0000 C   0  0  0  0  0  0  0  0  0  0  0  0
    4.5000  -12.9904    0.0000 N   0  0  0  0  0  0  0  0  0  0  0  0
    5.2500  -11.6913    0.0000 C   0  0  0  0  0  0  0  0  0  0  0  0
    6.7500  -11.6913    0.0000 O   0  0  0  0  0  0  0  0  0  0  0  0
    4.5000  -10.3923    0.0000 C   0  0  0  0  0  0  0  0  0  0  0  0
    3.0000  -10.3923    0.0000 C   0  0  0  0  0  0  0  0  0  0  0  0
    2.2500   -9.0933    0.0000 C   0  0  0  0  0  0  0  0  0  0  0  0
    3.0000   -7.7942    0.0000 C   0  0  0  0  0  0  0  0  0  0  0  0
    2.2500   -6.4952    0.0000 C   0  0  0  0  0  0  0  0  0  0  0  0
    0.7500   -6.4952    0.0000 C   0  0  0  0  0  0  0  0  0  0  0  0
   -0.0000   -5.1962    0.0000 C   0  0  0  0  0  0  0  0  0  0  0  0
    0.7500   -3.8971    0.0000 C   0  0  0  0  0  0  0  0  0  0  0  0
    2.2500   -3.8971    0.0000 C   0  0  0  0  0  0  0  0  0  0  0  0
    3.0000   -5.1962    0.0000 C   0  0  0  0  0  0  0  0  0  0  0  0
    3.0000   -2.5981    0.0000 C   0  0  0  0  0  0  0  0  0  0  0  0
    4.5000   -2.5981    0.0000 O   0  0  0  0  0  0  0  0  0  0  0  0
    2.2500   -1.2990    0.0000 C   0  0  0  0  0  0  0  0  0  0  0  0
    0.7500   -1.2990    0.0000 C   0  0  0  0  0  0  0  0  0  0  0  0
    1.5000    0.0000    0.0000 C   0  0  0  0  0  0  0  0  0  0  0  0
    0.7500    1.2990    0.0000 C   0  0  0  0  0  0  0  0  0  0  0  0
   -0.7500    1.2990    0.0000 N   0  0  0  0  0  4  0  0  0  0  0  0
   -1.5000    2.5981    0.0000 C   0  0  0  0  0  0  0  0  0  0  0  0
   -1.5000    0.0000    0.0000 C   0  0  0  0  0  0  0  0  0  0  0  0
   -0.7500   -1.2990    0.0000 C   0  0  0  0  0  0  0  0  0  0  0  0
   -0.0000   -2.5981    0.0000 O   0  0  0  0  0  0  0  0  0  0  0  0
    4.5000   -7.7942    0.0000 C   0  0  0  0  0  0  0  0  0  0  0  0
    5.2500   -9.0933    0.0000 C   0  0  0  0  0  0  0  0  0  0  0  0
  1  2  1  0
  2  3  1  0
  2  4  1  0
  4  5  1  0
  5  6  1  1
  5  7  1  0
  7  8  1  0
  8  9  2  0
  8 10  1  0
 10 11  2  0
 11 12  1  0
 12 13  2  0
 13 14  1  0
 14 15  2  0
 15 16  1  0
 16 17  2  0
 17 18  1  0
 18 19  2  0
 18 20  1  0
 20 21  1  1
 20 22  1  0
 22 23  1  0
 23 24  1  0
 24 25  1  0
 25 26  1  0
 26 27  1  0
 26 28  1  0
 28 29  1  0
 23 30  1  0
 13 31  1  0
 31 32  2  0
 32 10  1  0
 19 14  1  0
 29 23  1  0
 30 17  1  0
M  CHG  1  26   1
M  END
>  <Compound_ID>  (1059) 
C44973715

>  <Active>  (1059) 
0.0

>  <Smiles>  (1059) 
CC(C)C[C@@H](C)NC(=O)c1ccc(-c2ccc3c(c2)[C@H](O)CC2(CC[NH+](C)CC2)O3)cc1

>  <canonical_smi>  (1059) 
CC(C)C[C@@H](C)NC(=O)c1ccc(-c2ccc3c(c2)[C@H](O)CC2(CC[NH+](C)CC2)O3)cc1

>  <Set>  (1059) 
G2 inactive

>  <Set_type>  (1059) 
Test

>  <MW>  (1059) 
437.6

>  <HBD>  (1059) 
3

>  <HBA>  (1059) 
3

>  <NRB>  (1059) 
5

>  <NR>  (1059) 
4

>  <NAR>  (1059) 
2

>  <PSA>  (1059) 
63.0

>  <Standard Type>  (1059) 
nan

>  <Standard Relation>  (1059) 
nan

>  <Standard Units>  (1059) 
nan

>  <Standard Value>  (1059) 
nan

>  <Assay ChEMBL ID>  (1059) 
nan

>  <Assay Description>  (1059) 
nan

>  <BAO Label>  (1059) 
nan

$$$$

     RDKit          2D

 26 28  0  0  0  0  0  0  0  0999 V2000
    3.7500   -1.2990    0.0000 C   0  0  0  0  0  0  0  0  0  0  0  0
    3.0000    0.0000    0.0000 S   0  0  0  0  0  0  0  0  0  0  0  0
    1.5000    0.0000    0.0000 C   0  0  0  0  0  0  0  0  0  0  0  0
    0.7500   -1.2990    0.0000 C   0  0  0  0  0  0  0  0  0  0  0  0
   -0.7500   -1.2990    0.0000 C   0  0  0  0  0  0  0  0  0  0  0  0
   -1.5000    0.0000    0.0000 C   0  0  0  0  0  0  0  0  0  0  0  0
   -0.7500    1.2990    0.0000 C   0  0  0  0  0  0  0  0  0  0  0  0
    0.7500    1.2990    0.0000 C   0  0  0  0  0  0  0  0  0  0  0  0
    1.5000    2.5981    0.0000 N   0  0  0  0  0  0  0  0  0  0  0  0
    3.0000    2.5981    0.0000 C   0  0  0  0  0  0  0  0  0  0  0  0
    3.7500    1.2990    0.0000 O   0  0  0  0  0  0  0  0  0  0  0  0
    3.7500    3.8971    0.0000 C   0  0  0  0  0  0  0  0  0  0  0  0
    5.2500    3.8971    0.0000 S   0  0  0  0  0  0  0  0  0  0  0  0
    6.0000    5.1962    0.0000 C   0  0  0  0  0  0  0  0  0  0  0  0
    5.3899    6.5665    0.0000 N   0  0  0  0  0  0  0  0  0  0  0  0
    6.5046    7.5702    0.0000 N   0  0  0  0  0  0  0  0  0  0  0  0
    7.8037    6.8202    0.0000 C   0  0  0  0  0  0  0  0  0  0  0  0
    9.1740    7.4303    0.0000 N   0  0  0  0  0  0  0  0  0  0  0  0
   10.3875    6.5486    0.0000 N   0  0  0  0  0  0  0  0  0  0  0  0
   11.7578    7.1587    0.0000 C   0  0  0  0  0  0  0  0  0  0  0  0
   12.9713    6.2770    0.0000 C   0  0  0  0  0  0  0  0  0  0  0  0
   14.3417    6.8871    0.0000 C   0  0  0  0  0  0  0  0  0  0  0  0
   14.4984    8.3789    0.0000 C   0  0  0  0  0  0  0  0  0  0  0  0
   13.2849    9.2606    0.0000 C   0  0  0  0  0  0  0  0  0  0  0  0
   11.9146    8.6505    0.0000 C   0  0  0  0  0  0  0  0  0  0  0  0
    7.4918    5.3529    0.0000 N   0  0  0  0  0  0  0  0  0  0  0  0
  1  2  1  0
  2  3  1  0
  3  4  2  0
  4  5  1  0
  5  6  2  0
  6  7  1  0
  7  8  2  0
  8  9  1  0
  9 10  1  0
 10 11  2  0
 10 12  1  0
 12 13  1  0
 13 14  1  0
 14 15  2  0
 15 16  1  0
 16 17  1  0
 17 18  1  0
 18 19  1  0
 19 20  2  0
 20 21  1  0
 21 22  1  0
 22 23  1  0
 23 24  1  0
 24 25  1  0
 17 26  2  0
  8  3  1  0
 26 14  1  0
 25 20  1  0
M  END
>  <Compound_ID>  (1060) 
C59040358

>  <Active>  (1060) 
0.0

>  <Smiles>  (1060) 
CSc1ccccc1NC(=O)CSc1n[nH]c(NN=C2CCCCC2)n1

>  <canonical_smi>  (1060) 
CSc1ccccc1NC(=O)CSc1n[nH]c(NN=C2CCCCC2)n1

>  <Set>  (1060) 
G2 inactive

>  <Set_type>  (1060) 
Test

>  <MW>  (1060) 
390.54

>  <HBD>  (1060) 
3

>  <HBA>  (1060) 
6

>  <NRB>  (1060) 
7

>  <NR>  (1060) 
3

>  <NAR>  (1060) 
2

>  <PSA>  (1060) 
95.06

>  <Standard Type>  (1060) 
nan

>  <Standard Relation>  (1060) 
nan

>  <Standard Units>  (1060) 
nan

>  <Standard Value>  (1060) 
nan

>  <Assay ChEMBL ID>  (1060) 
nan

>  <Assay Description>  (1060) 
nan

>  <BAO Label>  (1060) 
nan

$$$$

     RDKit          2D

 30 32  0  0  0  0  0  0  0  0999 V2000
   -7.7227   -2.1088    0.0000 C   0  0  0  0  0  0  0  0  0  0  0  0
   -6.2961   -1.6453    0.0000 C   0  0  0  0  0  0  0  0  0  0  0  0
   -5.1814   -2.6490    0.0000 N   0  0  0  0  0  0  0  0  0  0  0  0
   -3.7548   -2.1855    0.0000 C   0  0  0  0  0  0  0  0  0  0  0  0
   -3.4430   -0.7182    0.0000 O   0  0  0  0  0  0  0  0  0  0  0  0
   -2.6401   -3.1891    0.0000 C   0  0  0  0  0  0  0  0  0  0  0  0
   -1.2135   -2.7256    0.0000 N   0  0  0  0  0  0  0  0  0  0  0  0
   -0.0000   -3.6073    0.0000 C   0  0  0  0  0  0  0  0  0  0  0  0
   -0.0000   -5.1073    0.0000 O   0  0  0  0  0  0  0  0  0  0  0  0
    1.2135   -2.7256    0.0000 C   0  0  0  0  0  0  0  0  0  0  0  0
    2.6401   -3.1891    0.0000 N   0  0  0  0  0  0  0  0  0  0  0  0
    2.9520   -4.6564    0.0000 N   0  0  0  0  0  0  0  0  0  0  0  0
    4.3786   -5.1199    0.0000 C   0  0  0  0  0  0  0  0  0  0  0  0
    5.4933   -4.1162    0.0000 O   0  0  0  0  0  0  0  0  0  0  0  0
    4.6904   -6.5871    0.0000 C   0  0  0  0  0  0  0  0  0  0  0  0
    3.5757   -7.5908    0.0000 C   0  0  0  0  0  0  0  0  0  0  0  0
    3.8876   -9.0580    0.0000 C   0  0  0  0  0  0  0  0  0  0  0  0
    5.3142   -9.5216    0.0000 C   0  0  0  0  0  0  0  0  0  0  0  0
    5.6260  -10.9888    0.0000 C   0  0  0  0  0  0  0  0  0  0  0  0
    4.1588  -11.3006    0.0000 C   0  0  0  0  0  0  0  0  0  0  0  0
    7.0933  -10.6769    0.0000 C   0  0  0  0  0  0  0  0  0  0  0  0
    5.9379  -12.4560    0.0000 C   0  0  0  0  0  0  0  0  0  0  0  0
    6.4289   -8.5179    0.0000 C   0  0  0  0  0  0  0  0  0  0  0  0
    6.1170   -7.0506    0.0000 C   0  0  0  0  0  0  0  0  0  0  0  0
    0.7500   -1.2990    0.0000 C   0  0  0  0  0  0  0  0  0  0  0  0
    1.5000    0.0000    0.0000 C   0  0  0  0  0  0  0  0  0  0  0  0
    0.7500    1.2990    0.0000 C   0  0  0  0  0  0  0  0  0  0  0  0
   -0.7500    1.2990    0.0000 C   0  0  0  0  0  0  0  0  0  0  0  0
   -1.5000    0.0000    0.0000 C   0  0  0  0  0  0  0  0  0  0  0  0
   -0.7500   -1.2990    0.0000 C   0  0  0  0  0  0  0  0  0  0  0  0
  1  2  1  0
  2  3  1  0
  3  4  1  0
  4  5  2  0
  4  6  1  0
  6  7  1  0
  7  8  1  0
  8  9  2  0
  8 10  1  0
 10 11  2  0
 11 12  1  0
 12 13  1  0
 13 14  2  0
 13 15  1  0
 15 16  2  0
 16 17  1  0
 17 18  2  0
 18 19  1  0
 19 20  1  0
 19 21  1  0
 19 22  1  0
 18 23  1  0
 23 24  2  0
 10 25  1  0
 25 26  2  0
 26 27  1  0
 27 28  2  0
 28 29  1  0
 29 30  2  0
 30  7  1  0
 24 15  1  0
 30 25  1  0
M  END
>  <Compound_ID>  (1061) 
C05868263

>  <Active>  (1061) 
0.0

>  <Smiles>  (1061) 
CCNC(=O)CN1C(=O)/C(=N\NC(=O)c2ccc(C(C)(C)C)cc2)c2ccccc21

>  <canonical_smi>  (1061) 
CCNC(=O)CN1C(=O)/C(=N\NC(=O)c2ccc(C(C)(C)C)cc2)c2ccccc21

>  <Set>  (1061) 
G2 inactive

>  <Set_type>  (1061) 
Test

>  <MW>  (1061) 
406.49

>  <HBD>  (1061) 
2

>  <HBA>  (1061) 
3

>  <NRB>  (1061) 
5

>  <NR>  (1061) 
3

>  <NAR>  (1061) 
2

>  <PSA>  (1061) 
90.87

>  <Standard Type>  (1061) 
nan

>  <Standard Relation>  (1061) 
nan

>  <Standard Units>  (1061) 
nan

>  <Standard Value>  (1061) 
nan

>  <Assay ChEMBL ID>  (1061) 
nan

>  <Assay Description>  (1061) 
nan

>  <BAO Label>  (1061) 
nan

$$$$

     RDKit          2D

 29 31  0  0  0  0  0  0  0  0999 V2000
    6.9782   -7.7369    0.0000 C   0  0  0  0  0  0  0  0  0  0  0  0
    5.6079   -7.1268    0.0000 C   0  0  0  0  0  0  0  0  0  0  0  0
    5.4511   -5.6350    0.0000 O   0  0  0  0  0  0  0  0  0  0  0  0
    4.0808   -5.0249    0.0000 C   0  0  0  0  0  0  0  0  0  0  0  0
    2.8672   -5.9066    0.0000 O   0  0  0  0  0  0  0  0  0  0  0  0
    3.9240   -3.5332    0.0000 C   0  0  0  0  0  0  0  0  0  0  0  0
    2.5537   -2.9231    0.0000 N   0  0  0  0  0  0  0  0  0  0  0  0
    1.2546   -3.6731    0.0000 C   0  0  0  0  0  0  0  0  0  0  0  0
    1.0978   -5.1648    0.0000 O   0  0  0  0  0  0  0  0  0  0  0  0
    0.1399   -2.6694    0.0000 N   0  0  0  0  0  0  0  0  0  0  0  0
    0.7500   -1.2990    0.0000 C   0  0  0  0  0  0  0  0  0  0  0  0
    1.5000    0.0000    0.0000 C   0  0  0  0  0  0  0  0  0  0  0  0
    0.7500    1.2990    0.0000 C   0  0  0  0  0  0  0  0  0  0  0  0
   -0.7500    1.2990    0.0000 C   0  0  0  0  0  0  0  0  0  0  0  0
   -1.5000    0.0000    0.0000 C   0  0  0  0  0  0  0  0  0  0  0  0
   -0.7500   -1.2990    0.0000 C   0  0  0  0  0  0  0  0  0  0  0  0
   -1.5000   -2.5981    0.0000 C   0  0  0  0  0  0  0  0  0  0  0  0
    2.2418   -1.4558    0.0000 C   0  0  0  0  0  0  0  0  0  0  0  0
    3.2455   -0.3411    0.0000 O   0  0  0  0  0  0  0  0  0  0  0  0
    4.3943   -8.0085    0.0000 C   0  0  0  0  0  0  0  0  0  0  0  0
    3.0240   -7.3984    0.0000 O   0  0  0  0  0  0  0  0  0  0  0  0
    4.5511   -9.5003    0.0000 N   0  0  0  0  0  0  0  0  0  0  0  0
    3.3376  -10.3820    0.0000 C   0  0  0  0  0  0  0  0  0  0  0  0
    1.9673   -9.7719    0.0000 C   0  0  0  0  0  0  0  0  0  0  0  0
    0.7538  -10.6535    0.0000 C   0  0  0  0  0  0  0  0  0  0  0  0
    0.9106  -12.1453    0.0000 C   0  0  0  0  0  0  0  0  0  0  0  0
   -0.3030  -13.0270    0.0000 Cl  0  0  0  0  0  0  0  0  0  0  0  0
    2.2809  -12.7554    0.0000 C   0  0  0  0  0  0  0  0  0  0  0  0
    3.4944  -11.8737    0.0000 C   0  0  0  0  0  0  0  0  0  0  0  0
  2  1  1  1
  2  3  1  0
  3  4  1  0
  4  5  2  0
  4  6  1  0
  6  7  1  0
  7  8  1  0
  8  9  2  0
  8 10  1  0
 10 11  1  0
 11 12  1  1
 12 13  1  0
 13 14  1  0
 14 15  1  0
 15 16  1  0
 16 17  1  1
 11 18  1  0
 18 19  2  0
  2 20  1  0
 20 21  2  0
 20 22  1  0
 22 23  1  0
 23 24  2  0
 24 25  1  0
 25 26  2  0
 26 27  1  0
 26 28  1  0
 28 29  2  0
 18  7  1  0
 29 23  1  0
 16 11  1  0
M  END
>  <Compound_ID>  (1062) 
C05041044

>  <Active>  (1062) 
0.0

>  <Smiles>  (1062) 
C[C@H](OC(=O)CN1C(=O)N[C@@]2(CCCC[C@@H]2C)C1=O)C(=O)Nc1ccc(Cl)cc1

>  <canonical_smi>  (1062) 
C[C@H](OC(=O)CN1C(=O)N[C@@]2(CCCC[C@@H]2C)C1=O)C(=O)Nc1ccc(Cl)cc1

>  <Set>  (1062) 
G2 inactive

>  <Set_type>  (1062) 
Test

>  <MW>  (1062) 
421.88

>  <HBD>  (1062) 
2

>  <HBA>  (1062) 
5

>  <NRB>  (1062) 
5

>  <NR>  (1062) 
3

>  <NAR>  (1062) 
1

>  <PSA>  (1062) 
104.81

>  <Standard Type>  (1062) 
nan

>  <Standard Relation>  (1062) 
nan

>  <Standard Units>  (1062) 
nan

>  <Standard Value>  (1062) 
nan

>  <Assay ChEMBL ID>  (1062) 
nan

>  <Assay Description>  (1062) 
nan

>  <BAO Label>  (1062) 
nan

$$$$

     RDKit          2D

 29 31  0  0  0  0  0  0  0  0999 V2000
   -6.0000   -2.5981    0.0000 C   0  0  0  0  0  0  0  0  0  0  0  0
   -4.5000   -2.5981    0.0000 O   0  0  0  0  0  0  0  0  0  0  0  0
   -3.7500   -3.8971    0.0000 C   0  0  0  0  0  0  0  0  0  0  0  0
   -2.2500   -3.8971    0.0000 C   0  0  0  0  0  0  0  0  0  0  0  0
   -1.5000   -5.1962    0.0000 C   0  0  0  0  0  0  0  0  0  0  0  0
   -0.0000   -5.1962    0.0000 C   0  0  0  0  0  0  0  0  0  0  0  0
    0.7500   -3.8971    0.0000 S   0  0  0  0  0  0  0  0  0  0  0  0
   -0.5490   -3.1471    0.0000 O   0  0  0  0  0  0  0  0  0  0  0  0
    2.0490   -4.6471    0.0000 O   0  0  0  0  0  0  0  0  0  0  0  0
    1.5000   -2.5981    0.0000 N   0  0  0  0  0  0  0  0  0  0  0  0
    0.7500   -1.2990    0.0000 C   0  0  0  0  0  0  0  0  0  0  0  0
    1.5000    0.0000    0.0000 C   0  0  0  0  0  0  0  0  0  0  0  0
    0.7500    1.2990    0.0000 C   0  0  0  0  0  0  0  0  0  0  0  0
   -0.7500    1.2990    0.0000 C   0  0  0  0  0  0  0  0  0  0  0  0
   -1.5000    0.0000    0.0000 C   0  0  0  0  0  0  0  0  0  0  0  0
   -0.7500   -1.2990    0.0000 C   0  0  0  0  0  0  0  0  0  0  0  0
   -2.9832   -0.2236    0.0000 N   0  0  0  0  0  0  0  0  0  0  0  0
   -4.0828    0.7967    0.0000 C   0  0  0  0  0  0  0  0  0  0  0  0
   -5.4791    0.2487    0.0000 O   0  0  0  0  0  0  0  0  0  0  0  0
   -3.9707    2.2925    0.0000 C   0  0  0  0  0  0  0  0  0  0  0  0
   -5.4540    2.0689    0.0000 C   0  0  0  0  0  0  0  0  0  0  0  0
   -4.5187    3.6888    0.0000 C   0  0  0  0  0  0  0  0  0  0  0  0
   -2.7314    3.1375    0.0000 C   0  0  0  0  0  0  0  0  0  0  0  0
   -1.2980    2.6953    0.0000 O   0  0  0  0  0  0  0  0  0  0  0  0
   -2.2500   -6.4952    0.0000 C   0  0  0  0  0  0  0  0  0  0  0  0
   -3.7500   -6.4952    0.0000 C   0  0  0  0  0  0  0  0  0  0  0  0
   -4.5000   -7.7942    0.0000 O   0  0  0  0  0  0  0  0  0  0  0  0
   -6.0000   -7.7942    0.0000 C   0  0  0  0  0  0  0  0  0  0  0  0
   -4.5000   -5.1962    0.0000 C   0  0  0  0  0  0  0  0  0  0  0  0
  1  2  1  0
  2  3  1  0
  3  4  2  0
  4  5  1  0
  5  6  1  0
  6  7  1  0
  7  8  2  0
  7  9  2  0
  7 10  1  0
 10 11  1  0
 11 12  2  0
 12 13  1  0
 13 14  2  0
 14 15  1  0
 15 16  2  0
 15 17  1  0
 17 18  1  0
 18 19  2  0
 18 20  1  0
 20 21  1  0
 20 22  1  0
 20 23  1  0
 23 24  1  0
  5 25  2  0
 25 26  1  0
 26 27  1  0
 27 28  1  0
 26 29  2  0
 29  3  1  0
 16 11  1  0
 24 14  1  0
M  END
>  <Compound_ID>  (1063) 
C09173954

>  <Active>  (1063) 
0.0

>  <Smiles>  (1063) 
COc1cc(CS(=O)(=O)Nc2ccc3c(c2)NC(=O)C(C)(C)CO3)cc(OC)c1

>  <canonical_smi>  (1063) 
COc1cc(CS(=O)(=O)Nc2ccc3c(c2)NC(=O)C(C)(C)CO3)cc(OC)c1

>  <Set>  (1063) 
G2 inactive

>  <Set_type>  (1063) 
Test

>  <MW>  (1063) 
420.49

>  <HBD>  (1063) 
2

>  <HBA>  (1063) 
6

>  <NRB>  (1063) 
6

>  <NR>  (1063) 
3

>  <NAR>  (1063) 
2

>  <PSA>  (1063) 
102.96

>  <Standard Type>  (1063) 
nan

>  <Standard Relation>  (1063) 
nan

>  <Standard Units>  (1063) 
nan

>  <Standard Value>  (1063) 
nan

>  <Assay ChEMBL ID>  (1063) 
nan

>  <Assay Description>  (1063) 
nan

>  <BAO Label>  (1063) 
nan

$$$$

     RDKit          2D

 28 31  0  0  0  0  0  0  0  0999 V2000
   -9.4005   -8.7136    0.0000 C   0  0  0  0  0  0  0  0  0  0  0  0
   -8.7904   -7.3433    0.0000 O   0  0  0  0  0  0  0  0  0  0  0  0
   -9.6721   -6.1298    0.0000 C   0  0  0  0  0  0  0  0  0  0  0  0
  -11.1638   -6.2866    0.0000 C   0  0  0  0  0  0  0  0  0  0  0  0
  -12.0455   -5.0731    0.0000 C   0  0  0  0  0  0  0  0  0  0  0  0
  -11.4354   -3.7027    0.0000 C   0  0  0  0  0  0  0  0  0  0  0  0
   -9.9436   -3.5460    0.0000 C   0  0  0  0  0  0  0  0  0  0  0  0
   -9.0619   -4.7595    0.0000 C   0  0  0  0  0  0  0  0  0  0  0  0
   -7.5702   -4.6027    0.0000 C   0  0  0  0  0  0  0  0  0  0  0  0
   -6.8202   -3.3037    0.0000 N   0  0  0  0  0  0  0  0  0  0  0  0
   -5.3529   -3.6155    0.0000 N   0  0  0  0  0  0  0  0  0  0  0  0
   -5.1962   -5.1073    0.0000 C   0  0  0  0  0  0  0  0  0  0  0  0
   -3.8971   -5.8573    0.0000 N   0  0  0  0  0  0  0  0  0  0  0  0
   -2.5981   -5.1073    0.0000 C   0  0  0  0  0  0  0  0  0  0  0  0
   -2.5981   -3.6073    0.0000 O   0  0  0  0  0  1  0  0  0  0  0  0
   -1.2990   -5.8573    0.0000 C   0  0  0  0  0  0  0  0  0  0  0  0
   -1.2990   -7.3573    0.0000 C   0  0  0  0  0  0  0  0  0  0  0  0
   -0.0000   -5.1073    0.0000 S   0  0  0  0  0  0  0  0  0  0  0  0
   -0.0000   -3.6073    0.0000 C   0  0  0  0  0  0  0  0  0  0  0  0
    1.2135   -2.7256    0.0000 N   0  0  0  0  0  4  0  0  0  0  0  0
    0.7500   -1.2990    0.0000 C   0  0  0  0  0  0  0  0  0  0  0  0
    1.5000    0.0000    0.0000 C   0  0  0  0  0  0  0  0  0  0  0  0
    0.7500    1.2990    0.0000 C   0  0  0  0  0  0  0  0  0  0  0  0
   -0.7500    1.2990    0.0000 C   0  0  0  0  0  0  0  0  0  0  0  0
   -1.5000    0.0000    0.0000 C   0  0  0  0  0  0  0  0  0  0  0  0
   -0.7500   -1.2990    0.0000 C   0  0  0  0  0  0  0  0  0  0  0  0
   -1.2135   -2.7256    0.0000 N   0  0  0  0  0  4  0  0  0  0  0  0
   -6.5665   -5.7174    0.0000 S   0  0  0  0  0  0  0  0  0  0  0  0
  1  2  1  0
  2  3  1  0
  3  4  2  0
  4  5  1  0
  5  6  2  0
  6  7  1  0
  7  8  2  0
  9  8  1  6
  9 10  1  0
 10 11  1  0
 11 12  2  0
 12 13  1  0
 13 14  2  0
 14 15  1  0
 14 16  1  0
 16 17  1  1
 16 18  1  0
 18 19  1  0
 19 20  1  0
 20 21  2  0
 21 22  1  0
 22 23  2  0
 23 24  1  0
 24 25  2  0
 25 26  1  0
 26 27  2  0
 12 28  1  0
  8  3  1  0
 28  9  1  0
 27 19  1  0
 26 21  1  0
M  CHG  3  15  -1  20   1  27   1
M  END
>  <Compound_ID>  (1064) 
C63667283

>  <Active>  (1064) 
0.0

>  <Smiles>  (1064) 
COc1ccccc1[C@@H]1NN=C(/N=C(\[O-])[C@H](C)SC2[NH+]=c3ccccc3=[NH+]2)S1

>  <canonical_smi>  (1064) 
COc1ccccc1[C@@H]1NN=C(/N=C(\[O-])[C@H](C)SC2[NH+]=c3ccccc3=[NH+]2)S1

>  <Set>  (1064) 
G2 inactive

>  <Set_type>  (1064) 
Test

>  <MW>  (1064) 
414.54

>  <HBD>  (1064) 
3

>  <HBA>  (1064) 
5

>  <NRB>  (1064) 
5

>  <NR>  (1064) 
4

>  <NAR>  (1064) 
2

>  <PSA>  (1064) 
96.98

>  <Standard Type>  (1064) 
nan

>  <Standard Relation>  (1064) 
nan

>  <Standard Units>  (1064) 
nan

>  <Standard Value>  (1064) 
nan

>  <Assay ChEMBL ID>  (1064) 
nan

>  <Assay Description>  (1064) 
nan

>  <BAO Label>  (1064) 
nan

$$$$

     RDKit          2D

 29 33  0  0  0  0  0  0  0  0999 V2000
    1.8497   -9.0063    0.0000 C   0  0  0  0  0  0  0  0  0  0  0  0
    1.2396  -10.3766    0.0000 C   0  0  0  0  0  0  0  0  0  0  0  0
    2.1212  -11.5902    0.0000 C   0  0  0  0  0  0  0  0  0  0  0  0
    1.5111  -12.9605    0.0000 C   0  0  0  0  0  0  0  0  0  0  0  0
    0.0193  -13.1173    0.0000 C   0  0  0  0  0  0  0  0  0  0  0  0
   -0.8623  -11.9037    0.0000 C   0  0  0  0  0  0  0  0  0  0  0  0
   -0.2522  -10.5334    0.0000 N   0  0  0  0  0  4  0  0  0  0  0  0
   -1.1339   -9.3199    0.0000 C   0  0  0  0  0  0  0  0  0  0  0  0
   -0.5238   -7.9496    0.0000 C   0  0  0  0  0  0  0  0  0  0  0  0
   -1.4055   -6.7361    0.0000 N   0  0  0  0  0  0  0  0  0  0  0  0
   -0.7954   -5.3657    0.0000 C   0  0  0  0  0  0  0  0  0  0  0  0
    0.0017   -5.3797    0.0000 O   0  0  0  0  0  0  0  0  0  0  0  0
   -1.6771   -4.1522    0.0000 C   0  0  0  0  0  0  0  0  0  0  0  0
   -3.1771   -4.1522    0.0000 C   0  0  0  0  0  0  0  0  0  0  0  0
   -3.6406   -2.7256    0.0000 C   0  0  0  0  0  0  0  0  0  0  0  0
   -4.8541   -1.8439    0.0000 C   0  0  0  0  0  0  0  0  0  0  0  0
   -4.3906   -0.4174    0.0000 C   0  0  0  0  0  0  0  0  0  0  0  0
   -2.8906   -0.4174    0.0000 C   0  0  0  0  0  0  0  0  0  0  0  0
   -2.4271   -1.8439    0.0000 N   0  0  0  0  0  0  0  0  0  0  0  0
   -1.2135   -2.7256    0.0000 C   0  0  0  0  0  0  0  0  0  0  0  0
   -0.0000   -3.6073    0.0000 C   0  0  0  0  0  0  0  0  0  0  0  0
    0.0972   -4.3985    0.0000 O   0  0  0  0  0  0  0  0  0  0  0  0
    1.2135   -2.7256    0.0000 N   0  0  0  0  0  0  0  0  0  0  0  0
    0.7500   -1.2990    0.0000 C   0  0  0  0  0  0  0  0  0  0  0  0
    1.5000    0.0000    0.0000 C   0  0  0  0  0  0  0  0  0  0  0  0
    0.7500    1.2990    0.0000 C   0  0  0  0  0  0  0  0  0  0  0  0
   -0.7500    1.2990    0.0000 C   0  0  0  0  0  0  0  0  0  0  0  0
   -1.5000    0.0000    0.0000 C   0  0  0  0  0  0  0  0  0  0  0  0
   -0.7500   -1.2990    0.0000 C   0  0  0  0  0  0  0  0  0  0  0  0
  2  1  1  1
  2  3  1  0
  3  4  1  0
  4  5  1  0
  5  6  1  0
  6  7  1  0
  7  8  1  0
  8  9  1  0
  9 10  1  0
 10 11  1  0
 11 12  2  0
 13 11  1  6
 13 14  1  0
 15 14  1  6
 15 16  1  0
 16 17  1  0
 17 18  1  0
 18 19  1  0
 20 19  1  6
 20 21  1  0
 21 22  2  0
 21 23  1  0
 23 24  1  0
 24 25  2  0
 25 26  1  0
 26 27  2  0
 27 28  1  0
 28 29  2  0
  7  2  1  0
 20 13  1  0
 29 24  1  0
 19 15  1  0
 29 20  1  0
M  CHG  1   7   1
M  END
>  <Compound_ID>  (1065) 
C57992246

>  <Active>  (1065) 
0.0

>  <Smiles>  (1065) 
C[C@H]1CCCC[NH+]1CCNC(=O)[C@@H]1C[C@@H]2CCCN2[C@]12C(=O)Nc1ccccc12

>  <canonical_smi>  (1065) 
C[C@H]1CCCC[NH+]1CCNC(=O)[C@@H]1C[C@@H]2CCCN2[C@]12C(=O)Nc1ccccc12

>  <Set>  (1065) 
G2 inactive

>  <Set_type>  (1065) 
Test

>  <MW>  (1065) 
397.54

>  <HBD>  (1065) 
3

>  <HBA>  (1065) 
3

>  <NRB>  (1065) 
4

>  <NR>  (1065) 
5

>  <NAR>  (1065) 
1

>  <PSA>  (1065) 
65.88

>  <Standard Type>  (1065) 
nan

>  <Standard Relation>  (1065) 
nan

>  <Standard Units>  (1065) 
nan

>  <Standard Value>  (1065) 
nan

>  <Assay ChEMBL ID>  (1065) 
nan

>  <Assay Description>  (1065) 
nan

>  <BAO Label>  (1065) 
nan

$$$$

     RDKit          2D

 22 24  0  0  0  0  0  0  0  0999 V2000
    3.7500   -1.2990    0.0000 C   0  0  0  0  0  0  0  0  0  0  0  0
    3.0000    0.0000    0.0000 C   0  0  0  0  0  0  0  0  0  0  0  0
    1.5000    0.0000    0.0000 C   0  0  0  0  0  0  0  0  0  0  0  0
    0.7500   -1.2990    0.0000 N   0  0  0  0  0  0  0  0  0  0  0  0
   -0.7500   -1.2990    0.0000 C   0  0  0  0  0  0  0  0  0  0  0  0
   -1.5000    0.0000    0.0000 C   0  0  0  0  0  0  0  0  0  0  0  0
   -2.9672   -0.3119    0.0000 C   0  0  0  0  0  0  0  0  0  0  0  0
   -4.0819    0.6918    0.0000 C   0  0  0  0  0  0  0  0  0  0  0  0
   -3.1240   -1.8037    0.0000 C   0  0  0  0  0  0  0  0  0  0  0  0
   -4.4231   -2.5537    0.0000 C   0  0  0  0  0  0  0  0  0  0  0  0
   -1.7537   -2.4138    0.0000 N   0  0  0  0  0  0  0  0  0  0  0  0
   -1.4418   -3.8810    0.0000 C   0  0  0  0  0  0  0  0  0  0  0  0
   -2.5565   -4.8847    0.0000 N   0  0  0  0  0  0  0  0  0  0  0  0
   -2.2447   -6.3519    0.0000 C   0  0  0  0  0  0  0  0  0  0  0  0
   -0.8181   -6.8154    0.0000 C   0  0  0  0  0  0  0  0  0  0  0  0
    0.2966   -5.8117    0.0000 C   0  0  0  0  0  0  0  0  0  0  0  0
   -0.0152   -4.3445    0.0000 C   0  0  0  0  0  0  0  0  0  0  0  0
    1.0995   -3.3408    0.0000 C   0  0  0  0  0  0  0  0  0  0  0  0
   -0.7500    1.2990    0.0000 C   0  0  0  0  0  0  0  0  0  0  0  0
   -1.5000    2.5981    0.0000 N   0  0  0  0  0  0  0  0  0  0  0  0
    0.7500    1.2990    0.0000 C   0  0  0  0  0  0  0  0  0  0  0  0
    1.5000    2.5981    0.0000 C   0  0  0  0  0  0  0  0  0  0  0  0
  1  2  1  0
  2  3  1  0
  3  4  2  0
  4  5  1  0
  5  6  2  0
  6  7  1  0
  7  8  1  0
  7  9  2  0
  9 10  1  0
  9 11  1  0
 11 12  1  0
 12 13  2  0
 13 14  1  0
 14 15  2  0
 15 16  1  0
 16 17  2  0
 17 18  1  0
  6 19  1  0
 19 20  1  0
 19 21  2  0
 21 22  1  0
 21  3  1  0
 11  5  1  0
 17 12  1  0
M  END
>  <Compound_ID>  (1066) 
C40285029

>  <Active>  (1066) 
0.0

>  <Smiles>  (1066) 
CCc1nc2c(c(C)c(C)n2-c2ncccc2C)c(N)c1C

>  <canonical_smi>  (1066) 
CCc1nc2c(c(C)c(C)n2-c2ncccc2C)c(N)c1C

>  <Set>  (1066) 
G2 inactive

>  <Set_type>  (1066) 
Test

>  <MW>  (1066) 
294.4

>  <HBD>  (1066) 
1

>  <HBA>  (1066) 
3

>  <NRB>  (1066) 
2

>  <NR>  (1066) 
3

>  <NAR>  (1066) 
3

>  <PSA>  (1066) 
56.73

>  <Standard Type>  (1066) 
nan

>  <Standard Relation>  (1066) 
nan

>  <Standard Units>  (1066) 
nan

>  <Standard Value>  (1066) 
nan

>  <Assay ChEMBL ID>  (1066) 
nan

>  <Assay Description>  (1066) 
nan

>  <BAO Label>  (1066) 
nan

$$$$

     RDKit          2D

 21 23  0  0  0  0  0  0  0  0999 V2000
    3.0000    0.0000    0.0000 C   0  0  0  0  0  0  0  0  0  0  0  0
    1.5000    0.0000    0.0000 C   0  0  0  0  0  0  0  0  0  0  0  0
    0.7500   -1.2990    0.0000 C   0  0  0  0  0  0  0  0  0  0  0  0
   -0.7500   -1.2990    0.0000 C   0  0  0  0  0  0  0  0  0  0  0  0
   -1.5000    0.0000    0.0000 C   0  0  0  0  0  0  0  0  0  0  0  0
   -3.0000    0.0000    0.0000 C   0  0  0  0  0  0  0  0  0  0  0  0
   -3.8817   -1.2135    0.0000 N   0  0  0  0  0  0  0  0  0  0  0  0
   -5.3083   -0.7500    0.0000 O   0  0  0  0  0  0  0  0  0  0  0  0
   -5.3083    0.7500    0.0000 C   0  0  0  0  0  0  0  0  0  0  0  0
   -6.5218    1.6317    0.0000 C   0  0  0  0  0  0  0  0  0  0  0  0
   -6.3650    3.1235    0.0000 C   0  0  0  0  0  0  0  0  0  0  0  0
   -7.5785    4.0051    0.0000 C   0  0  0  0  0  0  0  0  0  0  0  0
   -7.4217    5.4969    0.0000 F   0  0  0  0  0  0  0  0  0  0  0  0
   -8.9488    3.3950    0.0000 C   0  0  0  0  0  0  0  0  0  0  0  0
  -10.1624    4.2767    0.0000 F   0  0  0  0  0  0  0  0  0  0  0  0
   -9.1056    1.9033    0.0000 C   0  0  0  0  0  0  0  0  0  0  0  0
   -7.8921    1.0216    0.0000 C   0  0  0  0  0  0  0  0  0  0  0  0
   -8.0489   -0.4702    0.0000 N   0  0  0  0  0  0  0  0  0  0  0  0
   -3.8817    1.2135    0.0000 N   0  0  0  0  0  0  0  0  0  0  0  0
   -0.7500    1.2990    0.0000 C   0  0  0  0  0  0  0  0  0  0  0  0
    0.7500    1.2990    0.0000 C   0  0  0  0  0  0  0  0  0  0  0  0
  1  2  1  0
  2  3  2  0
  3  4  1  0
  4  5  2  0
  5  6  1  0
  6  7  2  0
  7  8  1  0
  8  9  1  0
  9 10  1  0
 10 11  2  0
 11 12  1  0
 12 13  1  0
 12 14  2  0
 14 15  1  0
 14 16  1  0
 16 17  2  0
 17 18  1  0
  9 19  2  0
  5 20  1  0
 20 21  2  0
 21  2  1  0
 19  6  1  0
 17 10  1  0
M  END
>  <Compound_ID>  (1067) 
C61563920

>  <Active>  (1067) 
0.0

>  <Smiles>  (1067) 
Cc1ccc(-c2noc(-c3cc(F)c(F)cc3N)n2)cc1

>  <canonical_smi>  (1067) 
Cc1ccc(-c2noc(-c3cc(F)c(F)cc3N)n2)cc1

>  <Set>  (1067) 
G2 inactive

>  <Set_type>  (1067) 
Test

>  <MW>  (1067) 
287.27

>  <HBD>  (1067) 
1

>  <HBA>  (1067) 
4

>  <NRB>  (1067) 
2

>  <NR>  (1067) 
3

>  <NAR>  (1067) 
3

>  <PSA>  (1067) 
64.94

>  <Standard Type>  (1067) 
nan

>  <Standard Relation>  (1067) 
nan

>  <Standard Units>  (1067) 
nan

>  <Standard Value>  (1067) 
nan

>  <Assay ChEMBL ID>  (1067) 
nan

>  <Assay Description>  (1067) 
nan

>  <BAO Label>  (1067) 
nan

$$$$

     RDKit          2D

 23 25  0  0  0  0  0  0  0  0999 V2000
    0.7500   -6.4952    0.0000 C   0  0  0  0  0  0  0  0  0  0  0  0
    1.5000   -5.1962    0.0000 C   0  0  0  0  0  0  0  0  0  0  0  0
    3.0000   -5.1962    0.0000 C   0  0  0  0  0  0  0  0  0  0  0  0
    0.7500   -3.8971    0.0000 C   0  0  0  0  0  0  0  0  0  0  0  0
    1.5000   -2.5981    0.0000 O   0  0  0  0  0  0  0  0  0  0  0  0
    0.7500   -1.2990    0.0000 C   0  0  0  0  0  0  0  0  0  0  0  0
    1.5000    0.0000    0.0000 C   0  0  0  0  0  0  0  0  0  0  0  0
    0.7500    1.2990    0.0000 C   0  0  0  0  0  0  0  0  0  0  0  0
    1.5000    2.5981    0.0000 N   0  0  0  0  0  0  0  0  0  0  0  0
   -0.7500    1.2990    0.0000 C   0  0  0  0  0  0  0  0  0  0  0  0
   -1.5000    0.0000    0.0000 C   0  0  0  0  0  0  0  0  0  0  0  0
   -0.7500   -1.2990    0.0000 C   0  0  0  0  0  0  0  0  0  0  0  0
   -1.5000   -2.5981    0.0000 N   0  0  0  0  0  0  0  0  0  0  0  0
   -3.0000   -2.5981    0.0000 C   0  0  0  0  0  0  0  0  0  0  0  0
   -3.7500   -1.2990    0.0000 C   0  0  0  0  0  0  0  0  0  0  0  0
   -3.0000    0.0000    0.0000 C   0  0  0  0  0  0  0  0  0  0  0  0
   -3.7500    1.2990    0.0000 C   0  0  0  0  0  0  0  0  0  0  0  0
   -5.2500    1.2990    0.0000 C   0  0  0  0  0  0  0  0  0  0  0  0
   -6.0000    0.0000    0.0000 C   0  0  0  0  0  0  0  0  0  0  0  0
   -5.2500   -1.2990    0.0000 C   0  0  0  0  0  0  0  0  0  0  0  0
   -6.0000   -2.5981    0.0000 Cl  0  0  0  0  0  0  0  0  0  0  0  0
   -0.7500   -3.8971    0.0000 C   0  0  0  0  0  0  0  0  0  0  0  0
   -1.5000   -5.1962    0.0000 O   0  0  0  0  0  0  0  0  0  0  0  0
  1  2  1  0
  2  3  1  0
  4  2  1  1
  4  5  1  0
  5  6  1  0
  6  7  2  0
  7  8  1  0
  8  9  1  0
  8 10  2  0
 10 11  1  0
 11 12  2  0
 12 13  1  0
 13 14  1  0
 14 15  1  0
 15 16  2  0
 16 17  1  0
 17 18  2  0
 18 19  1  0
 19 20  2  0
 20 21  1  0
 13 22  1  0
 22 23  2  0
 22  4  1  0
 12  6  1  0
 20 15  1  0
M  END
>  <Compound_ID>  (1068) 
C20276248

>  <Active>  (1068) 
0.0

>  <Smiles>  (1068) 
CC(C)[C@@H]1Oc2cc(N)ccc2N(Cc2ccccc2Cl)C1=O

>  <canonical_smi>  (1068) 
CC(C)[C@@H]1Oc2cc(N)ccc2N(Cc2ccccc2Cl)C1=O

>  <Set>  (1068) 
G2 inactive

>  <Set_type>  (1068) 
Test

>  <MW>  (1068) 
330.82

>  <HBD>  (1068) 
1

>  <HBA>  (1068) 
3

>  <NRB>  (1068) 
3

>  <NR>  (1068) 
3

>  <NAR>  (1068) 
2

>  <PSA>  (1068) 
55.56

>  <Standard Type>  (1068) 
nan

>  <Standard Relation>  (1068) 
nan

>  <Standard Units>  (1068) 
nan

>  <Standard Value>  (1068) 
nan

>  <Assay ChEMBL ID>  (1068) 
nan

>  <Assay Description>  (1068) 
nan

>  <BAO Label>  (1068) 
nan

$$$$

     RDKit          2D

 20 21  0  0  0  0  0  0  0  0999 V2000
    2.6491    0.9642    0.0000 C   0  0  0  0  0  0  0  0  0  0  0  0
    1.5000    0.0000    0.0000 C   0  0  0  0  0  0  0  0  0  0  0  0
    2.6491   -0.9642    0.0000 C   0  0  0  0  0  0  0  0  0  0  0  0
    0.7500   -1.2990    0.0000 C   0  0  0  0  0  0  0  0  0  0  0  0
   -0.7500   -1.2990    0.0000 C   0  0  0  0  0  0  0  0  0  0  0  0
   -1.5000    0.0000    0.0000 C   0  0  0  0  0  0  0  0  0  0  0  0
   -0.7500    1.2990    0.0000 C   0  0  0  0  0  0  0  0  0  0  0  0
   -2.2054    0.9361    0.0000 C   0  0  0  0  0  0  0  0  0  0  0  0
    0.7500    1.2990    0.0000 C   0  0  0  0  0  0  0  0  0  0  0  0
    1.5000    2.5981    0.0000 C   0  0  0  0  0  0  0  0  0  0  0  0
    3.0000    2.5981    0.0000 O   0  0  0  0  0  0  0  0  0  0  0  0
    0.7500    3.8971    0.0000 C   0  0  0  0  0  0  0  0  0  0  0  0
   -0.7500    3.8971    0.0000 C   0  0  0  0  0  0  0  0  0  0  0  0
   -1.5000    5.1962    0.0000 C   0  0  0  0  0  0  0  0  0  0  0  0
   -0.7500    6.4952    0.0000 O   0  0  0  0  0  0  0  0  0  0  0  0
   -1.5000    2.5981    0.0000 C   0  0  0  0  0  0  0  0  0  0  0  0
   -2.6491    3.5623    0.0000 O   0  0  0  0  0  0  0  0  0  0  0  0
   -2.6491    1.6339    0.0000 C   0  0  0  0  0  0  0  0  0  0  0  0
   -2.3886    0.1567    0.0000 O   0  0  0  0  0  0  0  0  0  0  0  0
   -4.0586    2.1469    0.0000 O   0  0  0  0  0  1  0  0  0  0  0  0
  1  2  1  0
  2  3  1  0
  2  4  1  0
  4  5  1  0
  5  6  1  0
  6  7  1  0
  7  8  1  6
  7  9  1  0
  9 10  1  0
 10 11  1  6
 10 12  1  0
 12 13  2  0
 13 14  1  0
 14 15  1  0
 13 16  1  0
 16 17  1  1
 16 18  1  0
 18 19  2  0
 18 20  1  0
  9  2  1  1
 16  7  1  0
M  CHG  1  20  -1
M  END
>  <Compound_ID>  (1069) 
C31164074

>  <Active>  (1069) 
0.0

>  <Smiles>  (1069) 
CC1(C)CCC[C@]2(C)[C@H]1[C@@H](O)C=C(CO)[C@@]2(O)C(=O)[O-]

>  <canonical_smi>  (1069) 
CC1(C)CCC[C@]2(C)[C@H]1[C@@H](O)C=C(CO)[C@@]2(O)C(=O)[O-]

>  <Set>  (1069) 
G2 inactive

>  <Set_type>  (1069) 
Test

>  <MW>  (1069) 
283.34

>  <HBD>  (1069) 
3

>  <HBA>  (1069) 
5

>  <NRB>  (1069) 
2

>  <NR>  (1069) 
2

>  <NAR>  (1069) 
0

>  <PSA>  (1069) 
100.82

>  <Standard Type>  (1069) 
nan

>  <Standard Relation>  (1069) 
nan

>  <Standard Units>  (1069) 
nan

>  <Standard Value>  (1069) 
nan

>  <Assay ChEMBL ID>  (1069) 
nan

>  <Assay Description>  (1069) 
nan

>  <BAO Label>  (1069) 
nan

$$$$

     RDKit          2D

 28 30  0  0  0  0  0  0  0  0999 V2000
    3.0000    0.0000    0.0000 C   0  0  0  0  0  0  0  0  0  0  0  0
    1.5000    0.0000    0.0000 N   0  0  0  0  0  4  0  0  0  0  0  0
    0.7500   -1.2990    0.0000 C   0  0  0  0  0  0  0  0  0  0  0  0
   -0.7500   -1.2990    0.0000 C   0  0  0  0  0  0  0  0  0  0  0  0
   -1.5000    0.0000    0.0000 C   0  0  0  0  0  0  0  0  0  0  0  0
   -0.7500    1.2990    0.0000 C   0  0  0  0  0  0  0  0  0  0  0  0
   -1.7537    2.4138    0.0000 S   0  0  0  0  0  0  0  0  0  0  0  0
   -3.1240    1.8037    0.0000 C   0  0  0  0  0  0  0  0  0  0  0  0
   -4.4231    2.5537    0.0000 N   0  0  0  0  0  0  0  0  0  0  0  0
   -4.4231    4.0537    0.0000 C   0  0  0  0  0  0  0  0  0  0  0  0
   -5.7221    4.8037    0.0000 C   0  0  0  0  0  0  0  0  0  0  0  0
   -5.7221    6.3037    0.0000 C   0  0  0  0  0  0  0  0  0  0  0  0
   -7.0211    7.0537    0.0000 C   0  0  0  0  0  0  0  0  0  0  0  0
   -7.0211    8.5537    0.0000 Cl  0  0  0  0  0  0  0  0  0  0  0  0
   -8.3202    6.3037    0.0000 C   0  0  0  0  0  0  0  0  0  0  0  0
   -8.3202    4.8037    0.0000 C   0  0  0  0  0  0  0  0  0  0  0  0
   -9.6192    4.0537    0.0000 Cl  0  0  0  0  0  0  0  0  0  0  0  0
   -7.0211    4.0537    0.0000 C   0  0  0  0  0  0  0  0  0  0  0  0
   -7.0211    2.5537    0.0000 O   0  0  0  0  0  0  0  0  0  0  0  0
   -2.9672    0.3119    0.0000 C   0  0  0  0  0  0  0  0  0  0  0  0
   -4.0819   -0.6918    0.0000 C   0  0  0  0  0  0  0  0  0  0  0  0
   -3.7701   -2.1590    0.0000 O   0  0  0  0  0  0  0  0  0  0  0  0
   -5.5085   -0.2283    0.0000 O   0  0  0  0  0  0  0  0  0  0  0  0
   -6.6232   -1.2320    0.0000 C   0  0  0  0  0  0  0  0  0  0  0  0
   -7.6269   -0.1173    0.0000 C   0  0  0  0  0  0  0  0  0  0  0  0
   -5.6195   -2.3467    0.0000 C   0  0  0  0  0  0  0  0  0  0  0  0
   -7.7380   -2.2357    0.0000 C   0  0  0  0  0  0  0  0  0  0  0  0
    0.7500    1.2990    0.0000 C   0  0  0  0  0  0  0  0  0  0  0  0
  1  2  1  0
  2  3  1  0
  3  4  1  0
  4  5  1  0
  5  6  2  0
  6  7  1  0
  7  8  1  0
  8  9  1  0
  9 10  2  0
 10 11  1  0
 11 12  2  0
 12 13  1  0
 13 14  1  0
 13 15  2  0
 15 16  1  0
 16 17  1  0
 16 18  2  0
 18 19  1  0
  8 20  2  0
 20 21  1  0
 21 22  2  0
 21 23  1  0
 23 24  1  0
 24 25  1  0
 24 26  1  0
 24 27  1  0
  6 28  1  0
 28  2  1  0
 20  5  1  0
 18 11  1  0
M  CHG  1   2   1
M  END
>  <Compound_ID>  (1070) 
C08921738

>  <Active>  (1070) 
0.0

>  <Smiles>  (1070) 
C[NH+]1CCc2c(sc(/N=C/c3cc(Cl)cc(Cl)c3O)c2C(=O)OC(C)(C)C)C1

>  <canonical_smi>  (1070) 
C[NH+]1CCc2c(sc(/N=C/c3cc(Cl)cc(Cl)c3O)c2C(=O)OC(C)(C)C)C1

>  <Set>  (1070) 
G2 inactive

>  <Set_type>  (1070) 
Test

>  <MW>  (1070) 
442.39

>  <HBD>  (1070) 
2

>  <HBA>  (1070) 
3

>  <NRB>  (1070) 
3

>  <NR>  (1070) 
3

>  <NAR>  (1070) 
2

>  <PSA>  (1070) 
63.33

>  <Standard Type>  (1070) 
nan

>  <Standard Relation>  (1070) 
nan

>  <Standard Units>  (1070) 
nan

>  <Standard Value>  (1070) 
nan

>  <Assay ChEMBL ID>  (1070) 
nan

>  <Assay Description>  (1070) 
nan

>  <BAO Label>  (1070) 
nan

$$$$

     RDKit          2D

 21 23  0  0  0  0  0  0  0  0999 V2000
    3.0000    0.0000    0.0000 N   0  0  0  0  0  0  0  0  0  0  0  0
    1.5000    0.0000    0.0000 C   0  0  0  0  0  0  0  0  0  0  0  0
    0.7500   -1.2990    0.0000 C   0  0  0  0  0  0  0  0  0  0  0  0
   -0.7500   -1.2990    0.0000 C   0  0  0  0  0  0  0  0  0  0  0  0
   -1.5000    0.0000    0.0000 C   0  0  0  0  0  0  0  0  0  0  0  0
   -2.9672    0.3119    0.0000 C   0  0  0  0  0  0  0  0  0  0  0  0
   -4.0819   -0.6918    0.0000 C   0  0  0  0  0  0  0  0  0  0  0  0
   -3.7701   -2.1590    0.0000 O   0  0  0  0  0  0  0  0  0  0  0  0
   -5.5085   -0.2283    0.0000 N   0  0  0  0  0  0  0  0  0  0  0  0
   -6.6232   -1.2320    0.0000 C   0  0  0  0  0  0  0  0  0  0  0  0
   -5.4412   -2.1555    0.0000 C   0  0  0  0  0  0  0  0  0  0  0  0
   -5.6500   -3.6409    0.0000 O   0  0  0  0  0  0  0  0  0  0  0  0
   -7.4181    0.0401    0.0000 C   0  0  0  0  0  0  0  0  0  0  0  0
   -8.9172   -0.0123    0.0000 C   0  0  0  0  0  0  0  0  0  0  0  0
   -9.6214   -1.3367    0.0000 C   0  0  0  0  0  0  0  0  0  0  0  0
   -8.8265   -2.6088    0.0000 C   0  0  0  0  0  0  0  0  0  0  0  0
   -7.3274   -2.5564    0.0000 C   0  0  0  0  0  0  0  0  0  0  0  0
   -3.1240    1.8037    0.0000 C   0  0  0  0  0  0  0  0  0  0  0  0
   -1.7537    2.4138    0.0000 N   0  0  0  0  0  0  0  0  0  0  0  0
   -0.7500    1.2990    0.0000 C   0  0  0  0  0  0  0  0  0  0  0  0
    0.7500    1.2990    0.0000 C   0  0  0  0  0  0  0  0  0  0  0  0
  1  2  1  0
  2  3  2  0
  3  4  1  0
  4  5  2  0
  5  6  1  0
  6  7  1  0
  7  8  2  0
  7  9  1  0
  9 10  1  0
 10 11  1  0
 11 12  1  0
 10 13  1  0
 13 14  1  0
 14 15  1  0
 15 16  1  0
 16 17  1  0
  6 18  2  0
 18 19  1  0
 19 20  1  0
 20 21  2  0
 21  2  1  0
 20  5  1  0
 17 10  1  0
M  END
>  <Compound_ID>  (1071) 
C53111799

>  <Active>  (1071) 
0.0

>  <Smiles>  (1071) 
Nc1ccc2c(C(=O)NC3(CO)CCCCC3)c[nH]c2c1

>  <canonical_smi>  (1071) 
Nc1ccc2c(C(=O)NC3(CO)CCCCC3)c[nH]c2c1

>  <Set>  (1071) 
G2 inactive

>  <Set_type>  (1071) 
Test

>  <MW>  (1071) 
287.36

>  <HBD>  (1071) 
4

>  <HBA>  (1071) 
3

>  <NRB>  (1071) 
3

>  <NR>  (1071) 
3

>  <NAR>  (1071) 
2

>  <PSA>  (1071) 
91.14

>  <Standard Type>  (1071) 
nan

>  <Standard Relation>  (1071) 
nan

>  <Standard Units>  (1071) 
nan

>  <Standard Value>  (1071) 
nan

>  <Assay ChEMBL ID>  (1071) 
nan

>  <Assay Description>  (1071) 
nan

>  <BAO Label>  (1071) 
nan

$$$$

     RDKit          2D

 18 19  0  0  0  0  0  0  0  0999 V2000
    2.2757    3.7542    0.0000 N   0  0  0  0  0  0  0  0  0  0  0  0
    1.0777    2.8515    0.0000 C   0  0  0  0  0  0  0  0  0  0  0  0
   -0.2213    3.6015    0.0000 N   0  0  0  0  0  0  0  0  0  0  0  0
   -1.5203    2.8515    0.0000 O   0  0  0  0  0  0  0  0  0  0  0  0
    1.0777    1.3515    0.0000 C   0  0  0  0  0  0  0  0  0  0  0  0
    2.5401    1.6852    0.0000 C   0  0  0  0  0  0  0  0  0  0  0  0
    3.1537    3.0540    0.0000 O   0  0  0  0  0  0  0  0  0  0  0  0
    3.5604    0.5857    0.0000 N   0  0  0  0  0  0  0  0  0  0  0  0
    5.0228    0.9194    0.0000 C   0  0  0  0  0  0  0  0  0  0  0  0
    6.2929    0.1214    0.0000 C   0  0  0  0  0  0  0  0  0  0  0  0
    7.0909    1.3915    0.0000 C   0  0  0  0  0  0  0  0  0  0  0  0
    5.8208    2.1895    0.0000 C   0  0  0  0  0  0  0  0  0  0  0  0
    1.7286    0.0000    0.0000 C   0  0  0  0  0  0  0  0  0  0  0  0
    1.0777   -1.3515    0.0000 C   0  0  0  0  0  0  0  0  0  0  0  0
   -0.3846   -1.6852    0.0000 C   0  0  0  0  0  0  0  0  0  0  0  0
   -1.5574   -0.7500    0.0000 C   0  0  0  0  0  0  0  0  0  0  0  0
   -1.5574    0.7500    0.0000 C   0  0  0  0  0  0  0  0  0  0  0  0
   -0.3846    1.6852    0.0000 C   0  0  0  0  0  0  0  0  0  0  0  0
  1  2  1  0
  2  3  2  0
  3  4  1  0
  2  5  1  0
  5  6  1  0
  6  7  2  0
  6  8  1  0
  8  9  1  0
  9 10  1  0
 10 11  1  0
 11 12  1  0
  5 13  1  0
 13 14  1  0
 14 15  1  0
 15 16  1  0
 16 17  1  0
 17 18  1  0
 18  5  1  0
 12  9  1  0
M  END
>  <Compound_ID>  (1072) 
C52213570

>  <Active>  (1072) 
0.0

>  <Smiles>  (1072) 
N/C(=N/O)C1(C(=O)NC2CCC2)CCCCCC1

>  <canonical_smi>  (1072) 
N/C(=N/O)C1(C(=O)NC2CCC2)CCCCCC1

>  <Set>  (1072) 
G2 inactive

>  <Set_type>  (1072) 
Test

>  <MW>  (1072) 
253.35

>  <HBD>  (1072) 
3

>  <HBA>  (1072) 
3

>  <NRB>  (1072) 
3

>  <NR>  (1072) 
2

>  <NAR>  (1072) 
0

>  <PSA>  (1072) 
87.71

>  <Standard Type>  (1072) 
nan

>  <Standard Relation>  (1072) 
nan

>  <Standard Units>  (1072) 
nan

>  <Standard Value>  (1072) 
nan

>  <Assay ChEMBL ID>  (1072) 
nan

>  <Assay Description>  (1072) 
nan

>  <BAO Label>  (1072) 
nan

$$$$

     RDKit          2D

 25 27  0  0  0  0  0  0  0  0999 V2000
   -6.2213   -4.9780    0.0000 N   0  0  0  0  0  0  0  0  0  0  0  0
   -5.0078   -5.8597    0.0000 C   0  0  0  0  0  0  0  0  0  0  0  0
   -5.1646   -7.3514    0.0000 O   0  0  0  0  0  0  0  0  0  0  0  0
   -3.6375   -5.2496    0.0000 C   0  0  0  0  0  0  0  0  0  0  0  0
   -2.4240   -6.1312    0.0000 S   0  0  0  0  0  0  0  0  0  0  0  0
   -1.0537   -5.5211    0.0000 C   0  0  0  0  0  0  0  0  0  0  0  0
    0.2454   -6.2711    0.0000 N   0  0  0  0  0  0  0  0  0  0  0  0
    1.3601   -5.2674    0.0000 N   0  0  0  0  0  0  0  0  0  0  0  0
    0.7500   -3.8971    0.0000 C   0  0  0  0  0  0  0  0  0  0  0  0
    1.5000   -2.5981    0.0000 C   0  0  0  0  0  0  0  0  0  0  0  0
    3.0000   -2.5981    0.0000 C   0  0  0  0  0  0  0  0  0  0  0  0
    3.7500   -1.2990    0.0000 C   0  0  0  0  0  0  0  0  0  0  0  0
    5.2500   -1.2990    0.0000 C   0  0  0  0  0  0  0  0  0  0  0  0
    6.0000   -0.0000    0.0000 O   0  0  0  0  0  0  0  0  0  0  0  0
    6.0000   -2.5981    0.0000 N   0  0  0  0  0  0  0  0  0  0  0  0
    5.2500   -3.8971    0.0000 C   0  0  0  0  0  0  0  0  0  0  0  0
    6.0000   -5.1962    0.0000 O   0  0  0  0  0  0  0  0  0  0  0  0
    3.7500   -3.8971    0.0000 N   0  0  0  0  0  0  0  0  0  0  0  0
   -0.7418   -4.0539    0.0000 N   0  0  0  0  0  0  0  0  0  0  0  0
   -1.7455   -2.9392    0.0000 C   0  0  0  0  0  0  0  0  0  0  0  0
   -1.2820   -1.5126    0.0000 C   0  0  0  0  0  0  0  0  0  0  0  0
   -2.2856   -0.3979    0.0000 C   0  0  0  0  0  0  0  0  0  0  0  0
   -3.7529   -0.7098    0.0000 C   0  0  0  0  0  0  0  0  0  0  0  0
   -4.2164   -2.1363    0.0000 C   0  0  0  0  0  0  0  0  0  0  0  0
   -3.2127   -3.2511    0.0000 C   0  0  0  0  0  0  0  0  0  0  0  0
  1  2  1  0
  2  3  2  0
  2  4  1  0
  4  5  1  0
  5  6  1  0
  6  7  2  0
  7  8  1  0
  8  9  1  0
  9 10  1  1
 10 11  1  0
 11 12  2  0
 12 13  1  0
 13 14  2  0
 13 15  1  0
 15 16  1  0
 16 17  2  0
 16 18  1  0
  9 19  1  0
 19 20  1  0
 20 21  2  0
 21 22  1  0
 22 23  2  0
 23 24  1  0
 24 25  2  0
 19  6  1  0
 25 20  1  0
 18 11  1  0
M  END
>  <Compound_ID>  (1073) 
C39361516

>  <Active>  (1073) 
0.0

>  <Smiles>  (1073) 
NC(=O)CSC1=NN[C@H](Cc2cc(=O)[nH]c(=O)[nH]2)N1c1ccccc1

>  <canonical_smi>  (1073) 
NC(=O)CSC1=NN[C@H](Cc2cc(=O)[nH]c(=O)[nH]2)N1c1ccccc1

>  <Set>  (1073) 
G2 inactive

>  <Set_type>  (1073) 
Test

>  <MW>  (1073) 
360.4

>  <HBD>  (1073) 
4

>  <HBA>  (1073) 
6

>  <NRB>  (1073) 
5

>  <NR>  (1073) 
3

>  <NAR>  (1073) 
2

>  <PSA>  (1073) 
136.44

>  <Standard Type>  (1073) 
nan

>  <Standard Relation>  (1073) 
nan

>  <Standard Units>  (1073) 
nan

>  <Standard Value>  (1073) 
nan

>  <Assay ChEMBL ID>  (1073) 
nan

>  <Assay Description>  (1073) 
nan

>  <BAO Label>  (1073) 
nan

$$$$

     RDKit          2D

 24 27  0  0  0  0  0  0  0  0999 V2000
    4.5000    0.0000    0.0000 N   0  0  0  0  0  0  0  0  0  0  0  0
    3.0000    0.0000    0.0000 S   0  0  0  0  0  0  0  0  0  0  0  0
    3.0000   -1.5000    0.0000 O   0  0  0  0  0  0  0  0  0  0  0  0
    3.0000    1.5000    0.0000 O   0  0  0  0  0  0  0  0  0  0  0  0
    1.5000    0.0000    0.0000 C   0  0  0  0  0  0  0  0  0  0  0  0
    0.7500   -1.2990    0.0000 C   0  0  0  0  0  0  0  0  0  0  0  0
   -0.7500   -1.2990    0.0000 C   0  0  0  0  0  0  0  0  0  0  0  0
   -1.5000    0.0000    0.0000 C   0  0  0  0  0  0  0  0  0  0  0  0
   -0.7500    1.2990    0.0000 C   0  0  0  0  0  0  0  0  0  0  0  0
    0.7500    1.2990    0.0000 C   0  0  0  0  0  0  0  0  0  0  0  0
   -1.5000    2.5981    0.0000 N   0  0  0  0  0  0  0  0  0  0  0  0
   -3.0000    2.5981    0.0000 C   0  0  0  0  0  0  0  0  0  0  0  0
   -3.4635    4.0247    0.0000 N   0  0  0  0  0  0  0  0  0  0  0  0
   -2.2500    4.9063    0.0000 N   0  0  0  0  0  0  0  0  0  0  0  0
   -1.0365    4.0247    0.0000 C   0  0  0  0  0  0  0  0  0  0  0  0
    0.3901    4.4882    0.0000 C   0  0  0  0  0  0  0  0  0  0  0  0
    1.5048    3.4845    0.0000 C   0  0  0  0  0  0  0  0  0  0  0  0
    2.9314    3.9480    0.0000 C   0  0  0  0  0  0  0  0  0  0  0  0
    3.2433    5.4152    0.0000 C   0  0  0  0  0  0  0  0  0  0  0  0
    2.1286    6.4189    0.0000 C   0  0  0  0  0  0  0  0  0  0  0  0
    0.7020    5.9554    0.0000 C   0  0  0  0  0  0  0  0  0  0  0  0
   -3.7500    1.2990    0.0000 C   0  0  0  0  0  0  0  0  0  0  0  0
   -5.2500    1.2990    0.0000 O   0  0  0  0  0  0  0  0  0  0  0  0
   -3.0000    0.0000    0.0000 N   0  0  0  0  0  0  0  0  0  0  0  0
  1  2  1  0
  2  3  2  0
  2  4  2  0
  2  5  1  0
  5  6  2  0
  6  7  1  0
  7  8  2  0
  8  9  1  0
  9 10  2  0
  9 11  1  0
 11 12  1  0
 12 13  1  6
 13 14  1  0
 14 15  1  0
 15 16  1  1
 16 17  2  0
 17 18  1  0
 18 19  2  0
 19 20  1  0
 20 21  2  0
 12 22  1  0
 22 23  2  0
 22 24  1  0
 10  5  1  0
 15 11  1  0
 21 16  1  0
 24  8  1  0
M  END
>  <Compound_ID>  (1074) 
C39930894

>  <Active>  (1074) 
0.0

>  <Smiles>  (1074) 
NS(=O)(=O)c1ccc2c(c1)N1[C@@H](NN[C@H]1c1ccccc1)C(=O)N2

>  <canonical_smi>  (1074) 
NS(=O)(=O)c1ccc2c(c1)N1[C@@H](NN[C@H]1c1ccccc1)C(=O)N2

>  <Set>  (1074) 
G2 inactive

>  <Set_type>  (1074) 
Test

>  <MW>  (1074) 
345.38

>  <HBD>  (1074) 
4

>  <HBA>  (1074) 
6

>  <NRB>  (1074) 
2

>  <NR>  (1074) 
4

>  <NAR>  (1074) 
2

>  <PSA>  (1074) 
116.56

>  <Standard Type>  (1074) 
nan

>  <Standard Relation>  (1074) 
nan

>  <Standard Units>  (1074) 
nan

>  <Standard Value>  (1074) 
nan

>  <Assay ChEMBL ID>  (1074) 
nan

>  <Assay Description>  (1074) 
nan

>  <BAO Label>  (1074) 
nan

$$$$

     RDKit          2D

 27 29  0  0  0  0  0  0  0  0999 V2000
    3.0000    0.0000    0.0000 C   0  0  0  0  0  0  0  0  0  0  0  0
    3.7500    1.2990    0.0000 C   0  0  0  0  0  0  0  0  0  0  0  0
    5.2500    1.2990    0.0000 C   0  0  0  0  0  0  0  0  0  0  0  0
    6.0000    2.5981    0.0000 C   0  0  0  0  0  0  0  0  0  0  0  0
    7.5000    2.5981    0.0000 O   0  0  0  0  0  0  0  0  0  0  0  0
    5.2500    3.8971    0.0000 C   0  0  0  0  0  0  0  0  0  0  0  0
    3.7500    3.8971    0.0000 C   0  0  0  0  0  0  0  0  0  0  0  0
    3.3655    4.8030    0.0000 O   0  0  0  0  0  0  0  0  0  0  0  0
    3.0000    2.5981    0.0000 C   0  0  0  0  0  0  0  0  0  0  0  0
    1.5000    2.5981    0.0000 C   0  0  0  0  0  0  0  0  0  0  0  0
    0.7500    1.2990    0.0000 O   0  0  0  0  0  0  0  0  0  0  0  0
    0.7500    3.8971    0.0000 C   0  0  0  0  0  0  0  0  0  0  0  0
    1.5000    5.1962    0.0000 C   0  0  0  0  0  0  0  0  0  0  0  0
    2.4768    5.3161    0.0000 O   0  0  0  0  0  0  0  0  0  0  0  0
    0.7500    6.4952    0.0000 C   0  0  0  0  0  0  0  0  0  0  0  0
   -0.7500    6.4952    0.0000 C   0  0  0  0  0  0  0  0  0  0  0  0
   -1.5000    5.1962    0.0000 C   0  0  0  0  0  0  0  0  0  0  0  0
   -0.7500    3.8971    0.0000 C   0  0  0  0  0  0  0  0  0  0  0  0
   -1.5000    2.5981    0.0000 C   0  0  0  0  0  0  0  0  0  0  0  0
   -3.0000    2.5981    0.0000 C   0  0  0  0  0  0  0  0  0  0  0  0
   -3.7500    3.8971    0.0000 C   0  0  0  0  0  0  0  0  0  0  0  0
   -5.2500    3.8971    0.0000 C   0  0  0  0  0  0  0  0  0  0  0  0
   -6.0000    5.1962    0.0000 O   0  0  0  0  0  0  0  0  0  0  0  0
   -6.0000    2.5981    0.0000 C   0  0  0  0  0  0  0  0  0  0  0  0
   -5.2500    1.2990    0.0000 C   0  0  0  0  0  0  0  0  0  0  0  0
   -6.0000   -0.0000    0.0000 O   0  0  0  0  0  0  0  0  0  0  0  0
   -3.7500    1.2990    0.0000 O   0  0  0  0  0  0  0  0  0  0  0  0
  1  2  1  0
  2  3  2  0
  3  4  1  0
  4  5  1  0
  4  6  2  0
  6  7  1  0
  7  8  1  0
  7  9  2  0
  9 10  1  0
 10 11  2  0
 10 12  1  0
 12 13  2  0
 13 14  1  0
 13 15  1  0
 15 16  2  0
 16 17  1  0
 17 18  2  0
 18 19  1  0
 19 20  1  0
 20 21  2  0
 21 22  1  0
 22 23  2  0
 22 24  1  0
 24 25  2  0
 25 26  1  0
 25 27  1  0
  9  2  1  0
 18 12  1  0
 27 20  1  0
M  END
>  <Compound_ID>  (1075) 
C03850734

>  <Active>  (1075) 
0.0

>  <Smiles>  (1075) 
Cc1cc(O)cc(O)c1C(=O)c1c(O)cccc1Cc1cc(=O)cc(O)o1

>  <canonical_smi>  (1075) 
Cc1cc(O)cc(O)c1C(=O)c1c(O)cccc1Cc1cc(=O)cc(O)o1

>  <Set>  (1075) 
G2 inactive

>  <Set_type>  (1075) 
Test

>  <MW>  (1075) 
368.34

>  <HBD>  (1075) 
4

>  <HBA>  (1075) 
7

>  <NRB>  (1075) 
4

>  <NR>  (1075) 
3

>  <NAR>  (1075) 
3

>  <PSA>  (1075) 
128.2

>  <Standard Type>  (1075) 
nan

>  <Standard Relation>  (1075) 
nan

>  <Standard Units>  (1075) 
nan

>  <Standard Value>  (1075) 
nan

>  <Assay ChEMBL ID>  (1075) 
nan

>  <Assay Description>  (1075) 
nan

>  <BAO Label>  (1075) 
nan

$$$$

     RDKit          2D

 31 35  0  0  0  0  0  0  0  0999 V2000
   -0.9510  -11.2544    0.0000 C   0  0  0  0  0  0  0  0  0  0  0  0
   -0.9510   -9.7544    0.0000 C   0  0  0  0  0  0  0  0  0  0  0  0
    0.3481   -9.0044    0.0000 O   0  0  0  0  0  0  0  0  0  0  0  0
   -2.2500   -9.0044    0.0000 O   0  0  0  0  0  0  0  0  0  0  0  0
   -2.2500   -7.5044    0.0000 C   0  0  0  0  0  0  0  0  0  0  0  0
   -1.0365   -6.6227    0.0000 C   0  0  0  0  0  0  0  0  0  0  0  0
   -1.5000   -5.1962    0.0000 C   0  0  0  0  0  0  0  0  0  0  0  0
   -0.0082   -5.3529    0.0000 O   0  0  0  0  0  0  0  0  0  0  0  0
   -0.7500   -3.8971    0.0000 C   0  0  0  0  0  0  0  0  0  0  0  0
    0.7500   -3.8971    0.0000 C   0  0  0  0  0  0  0  0  0  0  0  0
    1.5000   -2.5981    0.0000 C   0  0  0  0  0  0  0  0  0  0  0  0
    0.7500   -1.2990    0.0000 C   0  0  0  0  0  0  0  0  0  0  0  0
    1.5000    0.0000    0.0000 C   0  0  0  0  0  0  0  0  0  0  0  0
    0.7500    1.2990    0.0000 C   0  0  0  0  0  0  0  0  0  0  0  0
    1.5000    2.5981    0.0000 O   0  0  0  0  0  0  0  0  0  0  0  0
   -0.7500    1.2990    0.0000 C   0  0  0  0  0  0  0  0  0  0  0  0
   -1.5000    0.0000    0.0000 C   0  0  0  0  0  0  0  0  0  0  0  0
   -0.7500   -1.2990    0.0000 C   0  0  0  0  0  0  0  0  0  0  0  0
   -2.2500   -1.2990    0.0000 C   0  0  0  0  0  0  0  0  0  0  0  0
   -1.5000   -2.5981    0.0000 C   0  0  0  0  0  0  0  0  0  0  0  0
   -3.0000   -2.5981    0.0000 C   0  0  0  0  0  0  0  0  0  0  0  0
   -3.7500   -3.8971    0.0000 C   0  0  0  0  0  0  0  0  0  0  0  0
   -3.0000   -5.1962    0.0000 C   0  0  0  0  0  0  0  0  0  0  0  0
   -4.4918   -5.3529    0.0000 C   0  0  0  0  0  0  0  0  0  0  0  0
   -3.4635   -6.6227    0.0000 C   0  0  0  0  0  0  0  0  0  0  0  0
   -4.8901   -7.0863    0.0000 C   0  0  0  0  0  0  0  0  0  0  0  0
   -5.3536   -8.5128    0.0000 C   0  0  0  0  0  0  0  0  0  0  0  0
   -6.8536   -8.5128    0.0000 C   0  0  0  0  0  0  0  0  0  0  0  0
   -7.7353   -9.7264    0.0000 O   0  0  0  0  0  0  0  0  0  0  0  0
   -7.3172   -7.0863    0.0000 O   0  0  0  0  0  0  0  0  0  0  0  0
   -6.1036   -6.2046    0.0000 C   0  0  0  0  0  0  0  0  0  0  0  0
  1  2  1  0
  2  3  2  0
  2  4  1  0
  5  4  1  6
  5  6  1  0
  6  7  1  0
  7  8  1  1
  7  9  1  0
  9 10  1  6
 10 11  1  0
 12 11  1  6
 12 13  1  0
 13 14  1  0
 14 15  1  6
 14 16  1  0
 16 17  1  0
 17 18  1  0
 18 19  1  1
 18 20  1  0
 20 21  1  6
 21 22  1  0
 22 23  1  0
 23 24  1  1
 23 25  1  0
 25 26  1  6
 26 27  2  0
 27 28  1  0
 28 29  2  0
 28 30  1  0
 30 31  1  0
 25  5  1  0
 31 26  1  0
 23  7  1  0
 20  9  1  0
 18 12  1  0
M  END
>  <Compound_ID>  (1076) 
C43741681

>  <Active>  (1076) 
0.0

>  <Smiles>  (1076) 
CC(=O)O[C@H]1C[C@@]2(O)[C@H]3CC[C@H]4C[C@@H](O)CC[C@@]4(C)[C@H]3CC[C@@]2(C)[C@H]1C1=CC(=O)OC1

>  <canonical_smi>  (1076) 
CC(=O)O[C@H]1C[C@@]2(O)[C@H]3CC[C@H]4C[C@@H](O)CC[C@@]4(C)[C@H]3CC[C@@]2(C)[C@H]1C1=CC(=O)OC1

>  <Set>  (1076) 
G2 inactive

>  <Set_type>  (1076) 
Test

>  <MW>  (1076) 
432.56

>  <HBD>  (1076) 
2

>  <HBA>  (1076) 
6

>  <NRB>  (1076) 
2

>  <NR>  (1076) 
5

>  <NAR>  (1076) 
0

>  <PSA>  (1076) 
93.06

>  <Standard Type>  (1076) 
nan

>  <Standard Relation>  (1076) 
nan

>  <Standard Units>  (1076) 
nan

>  <Standard Value>  (1076) 
nan

>  <Assay ChEMBL ID>  (1076) 
nan

>  <Assay Description>  (1076) 
nan

>  <BAO Label>  (1076) 
nan

$$$$

     RDKit          2D

 36 39  0  0  0  0  0  0  0  0999 V2000
    1.7082    9.4612    0.0000 C   0  0  0  0  0  0  0  0  0  0  0  0
    1.2447    8.0346    0.0000 O   0  0  0  0  0  0  0  0  0  0  0  0
    2.2484    6.9199    0.0000 C   0  0  0  0  0  0  0  0  0  0  0  0
    3.7156    7.2317    0.0000 C   0  0  0  0  0  0  0  0  0  0  0  0
    4.7193    6.1170    0.0000 C   0  0  0  0  0  0  0  0  0  0  0  0
    4.2558    4.6904    0.0000 C   0  0  0  0  0  0  0  0  0  0  0  0
    5.2595    3.5757    0.0000 O   0  0  0  0  0  0  0  0  0  0  0  0
    6.7267    3.8876    0.0000 C   0  0  0  0  0  0  0  0  0  0  0  0
    2.7886    4.3786    0.0000 C   0  0  0  0  0  0  0  0  0  0  0  0
    2.3250    2.9520    0.0000 N   0  0  0  0  0  0  0  0  0  0  0  0
    0.8578    2.6401    0.0000 C   0  0  0  0  0  0  0  0  0  0  0  0
   -0.1459    3.7548    0.0000 O   0  0  0  0  0  0  0  0  0  0  0  0
    0.3943    1.2135    0.0000 C   0  0  0  0  0  0  0  0  0  0  0  0
    1.2760    0.0000    0.0000 C   0  0  0  0  0  0  0  0  0  0  0  0
    0.3943   -1.2135    0.0000 C   0  0  0  0  0  0  0  0  0  0  0  0
    0.7062   -2.6807    0.0000 N   0  0  0  0  0  4  0  0  0  0  0  0
   -0.4086   -3.6844    0.0000 C   0  0  0  0  0  0  0  0  0  0  0  0
   -0.0967   -5.1517    0.0000 C   0  0  0  0  0  0  0  0  0  0  0  0
   -1.2114   -6.1554    0.0000 C   0  0  0  0  0  0  0  0  0  0  0  0
   -0.8995   -7.6226    0.0000 C   0  0  0  0  0  0  0  0  0  0  0  0
    0.5271   -8.0861    0.0000 C   0  0  0  0  0  0  0  0  0  0  0  0
    0.8389   -9.5533    0.0000 O   0  0  0  0  0  0  0  0  0  0  0  0
   -0.2758  -10.5570    0.0000 C   0  0  0  0  0  0  0  0  0  0  0  0
    1.6418   -7.0824    0.0000 C   0  0  0  0  0  0  0  0  0  0  0  0
    3.0684   -7.5459    0.0000 O   0  0  0  0  0  0  0  0  0  0  0  0
    4.1831   -6.5422    0.0000 C   0  0  0  0  0  0  0  0  0  0  0  0
    1.3299   -5.6152    0.0000 C   0  0  0  0  0  0  0  0  0  0  0  0
   -1.8351   -3.2209    0.0000 C   0  0  0  0  0  0  0  0  0  0  0  0
   -2.1470   -1.7537    0.0000 C   0  0  0  0  0  0  0  0  0  0  0  0
   -3.5736   -1.2902    0.0000 C   0  0  0  0  0  0  0  0  0  0  0  0
   -5.0002   -0.8266    0.0000 F   0  0  0  0  0  0  0  0  0  0  0  0
   -4.0371   -2.7168    0.0000 F   0  0  0  0  0  0  0  0  0  0  0  0
   -3.1101    0.1364    0.0000 F   0  0  0  0  0  0  0  0  0  0  0  0
   -1.0323   -0.7500    0.0000 N   0  0  0  0  0  0  0  0  0  0  0  0
   -1.0323    0.7500    0.0000 N   0  0  0  0  0  0  0  0  0  0  0  0
    1.7849    5.4933    0.0000 C   0  0  0  0  0  0  0  0  0  0  0  0
  1  2  1  0
  2  3  1  0
  3  4  2  0
  4  5  1  0
  5  6  2  0
  6  7  1  0
  7  8  1  0
  6  9  1  0
  9 10  1  0
 10 11  1  0
 11 12  2  0
 11 13  1  0
 13 14  2  0
 14 15  1  0
 15 16  2  0
 16 17  1  0
 17 18  1  6
 18 19  2  0
 19 20  1  0
 20 21  2  0
 21 22  1  0
 22 23  1  0
 21 24  1  0
 24 25  1  0
 25 26  1  0
 24 27  2  0
 17 28  1  0
 28 29  1  0
 29 30  1  1
 30 31  1  0
 30 32  1  0
 30 33  1  0
 29 34  1  0
 34 35  1  0
  9 36  2  0
 36  3  1  0
 35 13  1  0
 34 15  1  0
 27 18  1  0
M  CHG  1  16   1
M  END
>  <Compound_ID>  (1077) 
C03010980

>  <Active>  (1077) 
0.0

>  <Smiles>  (1077) 
COc1ccc(OC)c(NC(=O)C2=CC3=[NH+][C@H](c4ccc(OC)c(OC)c4)C[C@@H](C(F)(F)F)N3N2)c1

>  <canonical_smi>  (1077) 
COc1ccc(OC)c(NC(=O)C2=CC3=[NH+][C@H](c4ccc(OC)c(OC)c4)C[C@@H](C(F)(F)F)N3N2)c1

>  <Set>  (1077) 
G2 inactive

>  <Set_type>  (1077) 
Test

>  <MW>  (1077) 
507.49

>  <HBD>  (1077) 
3

>  <HBA>  (1077) 
7

>  <NRB>  (1077) 
7

>  <NR>  (1077) 
4

>  <NAR>  (1077) 
2

>  <PSA>  (1077) 
95.26

>  <Standard Type>  (1077) 
nan

>  <Standard Relation>  (1077) 
nan

>  <Standard Units>  (1077) 
nan

>  <Standard Value>  (1077) 
nan

>  <Assay ChEMBL ID>  (1077) 
nan

>  <Assay Description>  (1077) 
nan

>  <BAO Label>  (1077) 
nan

$$$$

     RDKit          2D

 30 32  0  0  0  0  0  0  0  0999 V2000
   -5.9821    8.7029    0.0000 C   0  0  0  0  0  0  0  0  0  0  0  0
   -6.2940    7.2357    0.0000 C   0  0  0  0  0  0  0  0  0  0  0  0
   -5.1793    6.2320    0.0000 C   0  0  0  0  0  0  0  0  0  0  0  0
   -5.4912    4.7648    0.0000 N   0  0  0  0  0  0  0  0  0  0  0  0
   -4.3764    3.7611    0.0000 C   0  0  0  0  0  0  0  0  0  0  0  0
   -2.9499    4.2246    0.0000 S   0  0  0  0  0  0  0  0  0  0  0  0
   -4.6883    2.2939    0.0000 N   0  0  0  0  0  0  0  0  0  0  0  0
   -3.5736    1.2902    0.0000 C   0  0  0  0  0  0  0  0  0  0  0  0
   -2.1470    1.7537    0.0000 C   0  0  0  0  0  0  0  0  0  0  0  0
   -1.8351    3.2209    0.0000 C   0  0  0  0  0  0  0  0  0  0  0  0
   -0.4086    3.6844    0.0000 C   0  0  0  0  0  0  0  0  0  0  0  0
   -0.0967    5.1517    0.0000 C   0  0  0  0  0  0  0  0  0  0  0  0
    1.3299    5.6152    0.0000 C   0  0  0  0  0  0  0  0  0  0  0  0
    1.6418    7.0824    0.0000 C   0  0  0  0  0  0  0  0  0  0  0  0
    2.4446    4.6115    0.0000 C   0  0  0  0  0  0  0  0  0  0  0  0
    2.1328    3.1443    0.0000 C   0  0  0  0  0  0  0  0  0  0  0  0
    0.7062    2.6807    0.0000 C   0  0  0  0  0  0  0  0  0  0  0  0
    0.3943    1.2135    0.0000 N   0  0  0  0  0  0  0  0  0  0  0  0
    1.2760    0.0000    0.0000 N   0  0  0  0  0  0  0  0  0  0  0  0
    0.3943   -1.2135    0.0000 N   0  0  0  0  0  0  0  0  0  0  0  0
   -1.0323   -0.7500    0.0000 N   0  0  0  0  0  0  0  0  0  0  0  0
   -1.0323    0.7500    0.0000 C   0  0  0  0  0  0  0  0  0  0  0  0
   -6.1149    1.8303    0.0000 C   0  0  0  0  0  0  0  0  0  0  0  0
   -7.2296    2.8340    0.0000 C   0  0  0  0  0  0  0  0  0  0  0  0
   -6.2259    3.9488    0.0000 C   0  0  0  0  0  0  0  0  0  0  0  0
   -8.2333    1.7193    0.0000 C   0  0  0  0  0  0  0  0  0  0  0  0
   -8.3443    3.8377    0.0000 C   0  0  0  0  0  0  0  0  0  0  0  0
   -8.0325    5.3050    0.0000 N   0  0  0  0  0  4  0  0  0  0  0  0
   -9.1472    6.3086    0.0000 C   0  0  0  0  0  0  0  0  0  0  0  0
   -6.6059    5.7685    0.0000 C   0  0  0  0  0  0  0  0  0  0  0  0
  1  2  1  0
  2  3  1  0
  3  4  1  0
  4  5  1  0
  5  6  2  0
  5  7  1  0
  7  8  1  0
  8  9  1  0
  9 10  2  0
 10 11  1  0
 11 12  2  0
 12 13  1  0
 13 14  1  0
 13 15  2  0
 15 16  1  0
 16 17  2  0
 17 18  1  0
 18 19  1  0
 19 20  2  0
 20 21  1  0
 21 22  2  0
  7 23  1  0
 23 24  1  0
 24 25  1  0
 24 26  1  0
 24 27  1  0
 27 28  1  0
 28 29  1  0
 28 30  1  0
 22  9  1  0
 17 11  1  0
 22 18  1  0
M  CHG  1  28   1
M  END
>  <Compound_ID>  (1078) 
C04985239

>  <Active>  (1078) 
0.0

>  <Smiles>  (1078) 
CCCNC(=S)N(Cc1cc2cc(C)ccc2n2nnnc12)CC(C)(C)C[NH+](C)C

>  <canonical_smi>  (1078) 
CCCNC(=S)N(Cc1cc2cc(C)ccc2n2nnnc12)CC(C)(C)C[NH+](C)C

>  <Set>  (1078) 
G2 inactive

>  <Set_type>  (1078) 
Test

>  <MW>  (1078) 
428.63

>  <HBD>  (1078) 
2

>  <HBA>  (1078) 
6

>  <NRB>  (1078) 
8

>  <NR>  (1078) 
3

>  <NAR>  (1078) 
3

>  <PSA>  (1078) 
62.79

>  <Standard Type>  (1078) 
nan

>  <Standard Relation>  (1078) 
nan

>  <Standard Units>  (1078) 
nan

>  <Standard Value>  (1078) 
nan

>  <Assay ChEMBL ID>  (1078) 
nan

>  <Assay Description>  (1078) 
nan

>  <BAO Label>  (1078) 
nan

$$$$

     RDKit          2D

 20 22  0  0  0  0  0  0  0  0999 V2000
   -0.7500   -6.4952    0.0000 C   0  0  0  0  0  0  0  0  0  0  0  0
   -1.5000   -5.1962    0.0000 N   0  0  0  0  0  0  0  0  0  0  0  0
   -0.7500   -3.8971    0.0000 C   0  0  0  0  0  0  0  0  0  0  0  0
   -1.5000   -2.5981    0.0000 N   0  0  0  0  0  0  0  0  0  0  0  0
   -0.7500   -1.2990    0.0000 C   0  0  0  0  0  0  0  0  0  0  0  0
    0.7500   -1.2990    0.0000 C   0  0  0  0  0  0  0  0  0  0  0  0
    1.5000   -2.5981    0.0000 C   0  0  0  0  0  0  0  0  0  0  0  0
    0.7500   -3.8971    0.0000 C   0  0  0  0  0  0  0  0  0  0  0  0
    1.5000   -5.1962    0.0000 C   0  0  0  0  0  0  0  0  0  0  0  0
    0.7500   -6.4952    0.0000 N   0  0  0  0  0  0  0  0  0  0  0  0
    3.0000   -5.1962    0.0000 N   0  0  0  0  0  4  0  0  0  0  0  0
    1.5000    0.0000    0.0000 C   0  0  0  0  0  0  0  0  0  0  0  0
    0.7500    1.2990    0.0000 C   0  0  0  0  0  0  0  0  0  0  0  0
   -0.7500    1.2990    0.0000 C   0  0  0  0  0  0  0  0  0  0  0  0
   -1.5000    0.0000    0.0000 C   0  0  0  0  0  0  0  0  0  0  0  0
   -3.0000   -5.1962    0.0000 C   0  0  0  0  0  0  0  0  0  0  0  0
   -3.8817   -6.4097    0.0000 C   0  0  0  0  0  0  0  0  0  0  0  0
   -5.3083   -5.9462    0.0000 C   0  0  0  0  0  0  0  0  0  0  0  0
   -5.3083   -4.4462    0.0000 C   0  0  0  0  0  0  0  0  0  0  0  0
   -3.8817   -3.9826    0.0000 C   0  0  0  0  0  0  0  0  0  0  0  0
  1  2  1  0
  2  3  1  0
  3  4  2  0
  4  5  1  0
  5  6  2  0
  6  7  1  0
  7  8  2  0
  8  9  1  0
  9 10  1  0
  9 11  2  0
  6 12  1  0
 12 13  1  0
 13 14  1  0
 14 15  1  0
  2 16  1  0
 16 17  1  0
 17 18  1  0
 18 19  1  0
 19 20  1  0
  8  3  1  0
 20 16  1  0
 15  5  1  0
M  CHG  1  11   1
M  END
>  <Compound_ID>  (1079) 
C43410388

>  <Active>  (1079) 
0.0

>  <Smiles>  (1079) 
CN(c1nc2c(cc1C(N)=[NH2+])CCCC2)C1CCCC1

>  <canonical_smi>  (1079) 
CN(c1nc2c(cc1C(N)=[NH2+])CCCC2)C1CCCC1

>  <Set>  (1079) 
G2 inactive

>  <Set_type>  (1079) 
Test

>  <MW>  (1079) 
273.4

>  <HBD>  (1079) 
2

>  <HBA>  (1079) 
3

>  <NRB>  (1079) 
3

>  <NR>  (1079) 
3

>  <NAR>  (1079) 
1

>  <PSA>  (1079) 
67.74

>  <Standard Type>  (1079) 
nan

>  <Standard Relation>  (1079) 
nan

>  <Standard Units>  (1079) 
nan

>  <Standard Value>  (1079) 
nan

>  <Assay ChEMBL ID>  (1079) 
nan

>  <Assay Description>  (1079) 
nan

>  <BAO Label>  (1079) 
nan

$$$$

     RDKit          2D

 35 38  0  0  0  0  0  0  0  0999 V2000
   -1.5000   -5.1962    0.0000 C   0  0  0  0  0  0  0  0  0  0  0  0
   -0.7500   -6.4952    0.0000 N   0  0  0  0  0  4  0  0  0  0  0  0
   -1.5000   -7.7942    0.0000 C   0  0  0  0  0  0  0  0  0  0  0  0
    0.7500   -6.4952    0.0000 C   0  0  0  0  0  0  0  0  0  0  0  0
    1.5000   -5.1962    0.0000 C   0  0  0  0  0  0  0  0  0  0  0  0
    0.7500   -3.8971    0.0000 N   0  0  0  0  0  0  0  0  0  0  0  0
    1.5000   -2.5981    0.0000 C   0  0  0  0  0  0  0  0  0  0  0  0
    3.0000   -2.5981    0.0000 O   0  0  0  0  0  0  0  0  0  0  0  0
    0.7500   -1.2990    0.0000 C   0  0  0  0  0  0  0  0  0  0  0  0
    1.5000    0.0000    0.0000 C   0  0  0  0  0  0  0  0  0  0  0  0
    0.7500    1.2990    0.0000 C   0  0  0  0  0  0  0  0  0  0  0  0
   -0.7500    1.2990    0.0000 C   0  0  0  0  0  0  0  0  0  0  0  0
   -1.5000    0.0000    0.0000 C   0  0  0  0  0  0  0  0  0  0  0  0
   -3.0000    0.0000    0.0000 S   0  0  0  0  0  0  0  0  0  0  0  0
   -3.0000    1.5000    0.0000 O   0  0  0  0  0  0  0  0  0  0  0  0
   -3.0000   -1.5000    0.0000 O   0  0  0  0  0  0  0  0  0  0  0  0
   -4.5000    0.0000    0.0000 N   0  0  0  0  0  0  0  0  0  0  0  0
   -5.2500    1.2990    0.0000 C   0  0  0  0  0  0  0  0  0  0  0  0
   -6.7500    1.2990    0.0000 C   0  0  0  0  0  0  0  0  0  0  0  0
   -7.5000    0.0000    0.0000 N   0  0  0  0  0  0  0  0  0  0  0  0
   -9.0000    0.0000    0.0000 C   0  0  0  0  0  0  0  0  0  0  0  0
   -9.7500    1.2990    0.0000 C   0  0  0  0  0  0  0  0  0  0  0  0
  -11.2500    1.2990    0.0000 C   0  0  0  0  0  0  0  0  0  0  0  0
  -12.0000    0.0000    0.0000 C   0  0  0  0  0  0  0  0  0  0  0  0
  -11.2500   -1.2990    0.0000 C   0  0  0  0  0  0  0  0  0  0  0  0
   -9.7500   -1.2990    0.0000 C   0  0  0  0  0  0  0  0  0  0  0  0
   -6.7500   -1.2990    0.0000 C   0  0  0  0  0  0  0  0  0  0  0  0
   -5.2500   -1.2990    0.0000 C   0  0  0  0  0  0  0  0  0  0  0  0
   -0.7500   -1.2990    0.0000 C   0  0  0  0  0  0  0  0  0  0  0  0
    1.5000   -7.7942    0.0000 C   0  0  0  0  0  0  0  0  0  0  0  0
    0.7500   -9.0933    0.0000 C   0  0  0  0  0  0  0  0  0  0  0  0
    1.5000  -10.3923    0.0000 C   0  0  0  0  0  0  0  0  0  0  0  0
    3.0000  -10.3923    0.0000 C   0  0  0  0  0  0  0  0  0  0  0  0
    3.7500   -9.0933    0.0000 C   0  0  0  0  0  0  0  0  0  0  0  0
    3.0000   -7.7942    0.0000 C   0  0  0  0  0  0  0  0  0  0  0  0
  1  2  1  0
  2  3  1  0
  2  4  1  0
  4  5  1  1
  5  6  1  0
  6  7  1  0
  7  8  2  0
  7  9  1  0
  9 10  2  0
 10 11  1  0
 11 12  2  0
 12 13  1  0
 13 14  1  0
 14 15  2  0
 14 16  2  0
 14 17  1  0
 17 18  1  0
 18 19  1  0
 19 20  1  0
 20 21  1  0
 21 22  2  0
 22 23  1  0
 23 24  2  0
 24 25  1  0
 25 26  2  0
 20 27  1  0
 27 28  1  0
 13 29  2  0
  4 30  1  0
 30 31  2  0
 31 32  1  0
 32 33  2  0
 33 34  1  0
 34 35  2  0
 29  9  1  0
 35 30  1  0
 28 17  1  0
 26 21  1  0
M  CHG  1   2   1
M  END
>  <Compound_ID>  (1080) 
C16599398

>  <Active>  (1080) 
0.0

>  <Smiles>  (1080) 
C[NH+](C)[C@@H](CNC(=O)c1cccc(S(=O)(=O)N2CCN(c3ccccc3)CC2)c1)c1ccccc1

>  <canonical_smi>  (1080) 
C[NH+](C)[C@@H](CNC(=O)c1cccc(S(=O)(=O)N2CCN(c3ccccc3)CC2)c1)c1ccccc1

>  <Set>  (1080) 
G2 inactive

>  <Set_type>  (1080) 
Test

>  <MW>  (1080) 
493.65

>  <HBD>  (1080) 
2

>  <HBA>  (1080) 
4

>  <NRB>  (1080) 
8

>  <NR>  (1080) 
4

>  <NAR>  (1080) 
3

>  <PSA>  (1080) 
74.16

>  <Standard Type>  (1080) 
nan

>  <Standard Relation>  (1080) 
nan

>  <Standard Units>  (1080) 
nan

>  <Standard Value>  (1080) 
nan

>  <Assay ChEMBL ID>  (1080) 
nan

>  <Assay Description>  (1080) 
nan

>  <BAO Label>  (1080) 
nan

$$$$

     RDKit          2D

 36 41  0  0  0  0  0  0  0  0999 V2000
   -1.2990   -7.3573    0.0000 C   0  0  0  0  0  0  0  0  0  0  0  0
   -1.2990   -5.8573    0.0000 N   0  0  0  0  0  0  0  0  0  0  0  0
   -0.0000   -5.1073    0.0000 C   0  0  0  0  0  0  0  0  0  0  0  0
   -0.0000   -3.6073    0.0000 C   0  0  0  0  0  0  0  0  0  0  0  0
    1.2135   -2.7256    0.0000 C   0  0  0  0  0  0  0  0  0  0  0  0
    0.7500   -1.2990    0.0000 C   0  0  0  0  0  0  0  0  0  0  0  0
    1.5000    0.0000    0.0000 C   0  0  0  0  0  0  0  0  0  0  0  0
    0.7500    1.2990    0.0000 C   0  0  0  0  0  0  0  0  0  0  0  0
   -0.7500    1.2990    0.0000 C   0  0  0  0  0  0  0  0  0  0  0  0
   -1.5000    0.0000    0.0000 C   0  0  0  0  0  0  0  0  0  0  0  0
   -0.7500   -1.2990    0.0000 C   0  0  0  0  0  0  0  0  0  0  0  0
   -1.2135   -2.7256    0.0000 S   0  0  0  0  0  0  0  0  0  0  0  0
   -2.5981   -5.1073    0.0000 C   0  0  0  0  0  0  0  0  0  0  0  0
   -2.5981   -3.6073    0.0000 O   0  0  0  0  0  0  0  0  0  0  0  0
   -3.8971   -5.8573    0.0000 C   0  0  0  0  0  0  0  0  0  0  0  0
   -4.0539   -7.3491    0.0000 C   0  0  0  0  0  0  0  0  0  0  0  0
   -5.5211   -7.6610    0.0000 C   0  0  0  0  0  0  0  0  0  0  0  0
   -6.1312   -9.0313    0.0000 S   0  0  0  0  0  0  0  0  0  0  0  0
   -7.6230   -9.1881    0.0000 C   0  0  0  0  0  0  0  0  0  0  0  0
   -8.5047   -7.9745    0.0000 N   0  0  0  0  0  0  0  0  0  0  0  0
   -9.9965   -8.1313    0.0000 C   0  0  0  0  0  0  0  0  0  0  0  0
  -10.6066   -9.5016    0.0000 C   0  0  0  0  0  0  0  0  0  0  0  0
   -9.7249  -10.7152    0.0000 C   0  0  0  0  0  0  0  0  0  0  0  0
   -8.2331  -10.5584    0.0000 N   0  0  0  0  0  0  0  0  0  0  0  0
   -6.2711   -6.3619    0.0000 C   0  0  0  0  0  0  0  0  0  0  0  0
   -5.2674   -5.2472    0.0000 N   0  0  0  0  0  4  0  0  0  0  0  0
   -5.5793   -3.7800    0.0000 C   0  0  0  0  0  0  0  0  0  0  0  0
   -7.0059   -3.3164    0.0000 C   0  0  0  0  0  0  0  0  0  0  0  0
   -7.3178   -1.8492    0.0000 C   0  0  0  0  0  0  0  0  0  0  0  0
   -8.7443   -1.3857    0.0000 C   0  0  0  0  0  0  0  0  0  0  0  0
   -9.8591   -2.3894    0.0000 C   0  0  0  0  0  0  0  0  0  0  0  0
   -9.5472   -3.8566    0.0000 C   0  0  0  0  0  0  0  0  0  0  0  0
   -8.1206   -4.3201    0.0000 C   0  0  0  0  0  0  0  0  0  0  0  0
   -8.4325   -2.8529    0.0000 C   0  0  0  0  0  0  0  0  0  0  0  0
   -7.3813   -2.5515    0.0000 C   0  0  0  0  0  0  0  0  0  0  0  0
   -8.0228   -1.8391    0.0000 C   0  0  0  0  0  0  0  0  0  0  0  0
  1  2  1  0
  2  3  1  0
  3  4  1  0
  4  5  2  0
  5  6  1  0
  6  7  2  0
  7  8  1  0
  8  9  2  0
  9 10  1  0
 10 11  2  0
 11 12  1  0
  2 13  1  0
 13 14  2  0
 15 13  1  6
 15 16  1  0
 16 17  1  0
 17 18  1  1
 18 19  1  0
 19 20  2  0
 20 21  1  0
 21 22  2  0
 22 23  1  0
 23 24  2  0
 17 25  1  0
 25 26  1  0
 26 27  1  0
 27 28  1  0
 28 29  2  0
 29 30  1  0
 31 30  1  1
 31 32  1  0
 33 32  1  1
 33 34  1  0
 34 35  1  0
 34 36  1  0
 12  4  1  0
 26 15  1  0
 33 28  1  0
 11  6  1  0
 24 19  1  0
 34 31  1  0
M  CHG  1  26   1
M  END
>  <Compound_ID>  (1081) 
C43619438

>  <Active>  (1081) 
0.0

>  <Smiles>  (1081) 
CN(Cc1cc2ccccc2s1)C(=O)[C@@H]1C[C@@H](Sc2ncccn2)C[NH+]1CC1=CC[C@@H]2C[C@H]1C2(C)C

>  <canonical_smi>  (1081) 
CN(Cc1cc2ccccc2s1)C(=O)[C@@H]1C[C@@H](Sc2ncccn2)C[NH+]1CC1=CC[C@@H]2C[C@H]1C2(C)C

>  <Set>  (1081) 
G2 inactive

>  <Set_type>  (1081) 
Test

>  <MW>  (1081) 
519.76

>  <HBD>  (1081) 
1

>  <HBA>  (1081) 
4

>  <NRB>  (1081) 
7

>  <NR>  (1081) 
7

>  <NAR>  (1081) 
3

>  <PSA>  (1081) 
50.53

>  <Standard Type>  (1081) 
nan

>  <Standard Relation>  (1081) 
nan

>  <Standard Units>  (1081) 
nan

>  <Standard Value>  (1081) 
nan

>  <Assay ChEMBL ID>  (1081) 
nan

>  <Assay Description>  (1081) 
nan

>  <BAO Label>  (1081) 
nan

$$$$

     RDKit          2D

 35 38  0  0  0  0  0  0  0  0999 V2000
  -10.4610   -1.0689    0.0000 C   0  0  0  0  0  0  0  0  0  0  0  0
   -8.9938   -0.7570    0.0000 C   0  0  0  0  0  0  0  0  0  0  0  0
   -8.5302    0.6696    0.0000 C   0  0  0  0  0  0  0  0  0  0  0  0
   -7.9901   -1.8717    0.0000 C   0  0  0  0  0  0  0  0  0  0  0  0
   -6.5229   -1.5598    0.0000 O   0  0  0  0  0  0  0  0  0  0  0  0
   -5.5192   -2.6746    0.0000 C   0  0  0  0  0  0  0  0  0  0  0  0
   -4.0519   -2.3627    0.0000 C   0  0  0  0  0  0  0  0  0  0  0  0
   -3.9474   -0.8663    0.0000 O   0  0  0  0  0  0  0  0  0  0  0  0
   -3.0482   -3.4774    0.0000 C   0  0  0  0  0  0  0  0  0  0  0  0
   -1.5810   -3.1655    0.0000 N   0  0  0  0  0  4  0  0  0  0  0  0
   -0.5773   -4.2803    0.0000 C   0  0  0  0  0  0  0  0  0  0  0  0
    0.8899   -3.9684    0.0000 C   0  0  0  0  0  0  0  0  0  0  0  0
    1.5000   -2.5981    0.0000 C   0  0  0  0  0  0  0  0  0  0  0  0
    0.7500   -1.2990    0.0000 C   0  0  0  0  0  0  0  0  0  0  0  0
   -0.7500   -1.2990    0.0000 C   0  0  0  0  0  0  0  0  0  0  0  0
   -1.5000    0.0000    0.0000 C   0  0  0  0  0  0  0  0  0  0  0  0
   -0.7500    1.2990    0.0000 C   0  0  0  0  0  0  0  0  0  0  0  0
    0.7500    1.2990    0.0000 C   0  0  0  0  0  0  0  0  0  0  0  0
    1.5000    0.0000    0.0000 C   0  0  0  0  0  0  0  0  0  0  0  0
    2.9918   -2.7549    0.0000 N   0  0  0  0  0  0  0  0  0  0  0  0
    3.3037   -4.2221    0.0000 O   0  0  0  0  0  0  0  0  0  0  0  0
    2.0046   -4.9721    0.0000 C   0  0  0  0  0  0  0  0  0  0  0  0
    1.8478   -6.4639    0.0000 N   0  0  0  0  0  0  0  0  0  0  0  0
    0.4775   -7.0740    0.0000 C   0  0  0  0  0  0  0  0  0  0  0  0
    0.3207   -8.5658    0.0000 C   0  0  0  0  0  0  0  0  0  0  0  0
    1.5342   -9.4474    0.0000 N   0  0  0  0  0  4  0  0  0  0  0  0
    1.3774  -10.9392    0.0000 C   0  0  0  0  0  0  0  0  0  0  0  0
    2.9046   -8.8373    0.0000 C   0  0  0  0  0  0  0  0  0  0  0  0
    3.0613   -7.3456    0.0000 C   0  0  0  0  0  0  0  0  0  0  0  0
   -1.1175   -1.7390    0.0000 C   0  0  0  0  0  0  0  0  0  0  0  0
   -2.1212   -0.6242    0.0000 C   0  0  0  0  0  0  0  0  0  0  0  0
   -1.8093    0.8430    0.0000 C   0  0  0  0  0  0  0  0  0  0  0  0
   -3.1084    1.5930    0.0000 C   0  0  0  0  0  0  0  0  0  0  0  0
   -4.2231    0.5893    0.0000 C   0  0  0  0  0  0  0  0  0  0  0  0
   -3.6130   -0.7810    0.0000 O   0  0  0  0  0  0  0  0  0  0  0  0
  1  2  1  0
  2  3  1  0
  2  4  1  0
  4  5  1  0
  5  6  1  0
  6  7  1  0
  7  8  1  6
  7  9  1  0
  9 10  1  0
 10 11  1  0
 11 12  1  0
 12 13  1  0
 13 14  1  0
 14 15  2  0
 15 16  1  0
 16 17  2  0
 17 18  1  0
 18 19  2  0
 13 20  2  0
 20 21  1  0
 21 22  1  0
 22 23  1  0
 23 24  1  0
 24 25  1  0
 25 26  1  0
 26 27  1  0
 26 28  1  0
 28 29  1  0
 10 30  1  0
 31 30  1  1
 31 32  1  0
 32 33  1  0
 33 34  1  0
 34 35  1  0
 22 12  2  0
 29 23  1  0
 35 31  1  0
 19 14  1  0
M  CHG  2  10   1  26   1
M  END
>  <Compound_ID>  (1082) 
C35781205

>  <Active>  (1082) 
0.0

>  <Smiles>  (1082) 
CC(C)COC[C@H](O)C[NH+](Cc1c(-c2ccccc2)noc1N1CC[NH+](C)CC1)C[C@@H]1CCCO1

>  <canonical_smi>  (1082) 
CC(C)COC[C@H](O)C[NH+](Cc1c(-c2ccccc2)noc1N1CC[NH+](C)CC1)C[C@@H]1CCCO1

>  <Set>  (1082) 
G2 inactive

>  <Set_type>  (1082) 
Test

>  <MW>  (1082) 
488.67

>  <HBD>  (1082) 
3

>  <HBA>  (1082) 
6

>  <NRB>  (1082) 
12

>  <NR>  (1082) 
4

>  <NAR>  (1082) 
2

>  <PSA>  (1082) 
76.84

>  <Standard Type>  (1082) 
nan

>  <Standard Relation>  (1082) 
nan

>  <Standard Units>  (1082) 
nan

>  <Standard Value>  (1082) 
nan

>  <Assay ChEMBL ID>  (1082) 
nan

>  <Assay Description>  (1082) 
nan

>  <BAO Label>  (1082) 
nan

$$$$

     RDKit          2D

 32 35  0  0  0  0  0  0  0  0999 V2000
    3.0000    0.0000    0.0000 C   0  0  0  0  0  0  0  0  0  0  0  0
    1.5000    0.0000    0.0000 C   0  0  0  0  0  0  0  0  0  0  0  0
    0.7500   -1.2990    0.0000 C   0  0  0  0  0  0  0  0  0  0  0  0
   -0.7500   -1.2990    0.0000 C   0  0  0  0  0  0  0  0  0  0  0  0
   -1.5000    0.0000    0.0000 C   0  0  0  0  0  0  0  0  0  0  0  0
   -3.0000    0.0000    0.0000 C   0  0  0  0  0  0  0  0  0  0  0  0
   -3.8817   -1.2135    0.0000 N   0  0  0  0  0  0  0  0  0  0  0  0
   -5.3083   -0.7500    0.0000 C   0  0  0  0  0  0  0  0  0  0  0  0
   -6.5218   -1.6317    0.0000 N   0  0  0  0  0  0  0  0  0  0  0  0
   -7.8921   -1.0216    0.0000 C   0  0  0  0  0  0  0  0  0  0  0  0
   -8.0489    0.4702    0.0000 O   0  0  0  0  0  0  0  0  0  0  0  0
   -9.1056   -1.9033    0.0000 C   0  0  0  0  0  0  0  0  0  0  0  0
  -10.4760   -1.2931    0.0000 O   0  0  0  0  0  0  0  0  0  0  0  0
  -11.6895   -2.1748    0.0000 C   0  0  0  0  0  0  0  0  0  0  0  0
  -13.0598   -1.5647    0.0000 C   0  0  0  0  0  0  0  0  0  0  0  0
  -14.2733   -2.4464    0.0000 C   0  0  0  0  0  0  0  0  0  0  0  0
  -14.1165   -3.9382    0.0000 C   0  0  0  0  0  0  0  0  0  0  0  0
  -15.3301   -4.8199    0.0000 Cl  0  0  0  0  0  0  0  0  0  0  0  0
  -12.7462   -4.5483    0.0000 C   0  0  0  0  0  0  0  0  0  0  0  0
  -11.5327   -3.6666    0.0000 C   0  0  0  0  0  0  0  0  0  0  0  0
   -5.3083    0.7500    0.0000 S   0  0  0  0  0  0  0  0  0  0  0  0
   -3.8817    1.2135    0.0000 C   0  0  0  0  0  0  0  0  0  0  0  0
   -3.4182    2.6401    0.0000 N   0  0  0  0  0  0  0  0  0  0  0  0
   -4.4218    3.7548    0.0000 C   0  0  0  0  0  0  0  0  0  0  0  0
   -5.8891    3.4430    0.0000 O   0  0  0  0  0  0  0  0  0  0  0  0
   -3.9583    5.1814    0.0000 C   0  0  0  0  0  0  0  0  0  0  0  0
   -4.8400    6.3949    0.0000 C   0  0  0  0  0  0  0  0  0  0  0  0
   -3.9583    7.6085    0.0000 C   0  0  0  0  0  0  0  0  0  0  0  0
   -2.5317    7.1449    0.0000 C   0  0  0  0  0  0  0  0  0  0  0  0
   -2.5317    5.6449    0.0000 O   0  0  0  0  0  0  0  0  0  0  0  0
   -0.7500    1.2990    0.0000 C   0  0  0  0  0  0  0  0  0  0  0  0
    0.7500    1.2990    0.0000 C   0  0  0  0  0  0  0  0  0  0  0  0
  1  2  1  0
  2  3  2  0
  3  4  1  0
  4  5  2  0
  5  6  1  0
  6  7  1  0
  7  8  2  0
  8  9  1  0
  9 10  1  0
 10 11  2  0
 10 12  1  0
 12 13  1  0
 13 14  1  0
 14 15  2  0
 15 16  1  0
 16 17  2  0
 17 18  1  0
 17 19  1  0
 19 20  2  0
  8 21  1  0
 21 22  1  0
 22 23  1  0
 23 24  1  0
 24 25  2  0
 24 26  1  0
 26 27  2  0
 27 28  1  0
 28 29  2  0
 29 30  1  0
  5 31  1  0
 31 32  2  0
 32  2  1  0
 22  6  2  0
 30 26  1  0
 20 14  1  0
M  END
>  <Compound_ID>  (1083) 
C32624605

>  <Active>  (1083) 
0.0

>  <Smiles>  (1083) 
Cc1ccc(-c2nc(NC(=O)COc3ccc(Cl)cc3)sc2NC(=O)c2ccco2)cc1

>  <canonical_smi>  (1083) 
Cc1ccc(-c2nc(NC(=O)COc3ccc(Cl)cc3)sc2NC(=O)c2ccco2)cc1

>  <Set>  (1083) 
G2 inactive

>  <Set_type>  (1083) 
Test

>  <MW>  (1083) 
467.93

>  <HBD>  (1083) 
2

>  <HBA>  (1083) 
5

>  <NRB>  (1083) 
7

>  <NR>  (1083) 
4

>  <NAR>  (1083) 
4

>  <PSA>  (1083) 
93.46

>  <Standard Type>  (1083) 
nan

>  <Standard Relation>  (1083) 
nan

>  <Standard Units>  (1083) 
nan

>  <Standard Value>  (1083) 
nan

>  <Assay ChEMBL ID>  (1083) 
nan

>  <Assay Description>  (1083) 
nan

>  <BAO Label>  (1083) 
nan

$$$$

     RDKit          2D

 34 35  0  0  0  0  0  0  0  0999 V2000
    6.0000   -2.5981    0.0000 C   0  0  0  0  0  0  0  0  0  0  0  0
    5.2500   -1.2990    0.0000 C   0  0  0  0  0  0  0  0  0  0  0  0
    3.7500   -1.2990    0.0000 O   0  0  0  0  0  0  0  0  0  0  0  0
    3.0000    0.0000    0.0000 C   0  0  0  0  0  0  0  0  0  0  0  0
    3.7500    1.2990    0.0000 O   0  0  0  0  0  0  0  0  0  0  0  0
    1.5000    0.0000    0.0000 C   0  0  0  0  0  0  0  0  0  0  0  0
    0.7500   -1.2990    0.0000 C   0  0  0  0  0  0  0  0  0  0  0  0
    1.5000   -2.5981    0.0000 C   0  0  0  0  0  0  0  0  0  0  0  0
   -0.7500   -1.2990    0.0000 N   0  0  0  0  0  0  0  0  0  0  0  0
   -1.5000    0.0000    0.0000 C   0  0  0  0  0  0  0  0  0  0  0  0
   -3.0000    0.0000    0.0000 C   0  0  0  0  0  0  0  0  0  0  0  0
   -0.7500    1.2990    0.0000 C   0  0  0  0  0  0  0  0  0  0  0  0
   -1.5000    2.5981    0.0000 C   0  0  0  0  0  0  0  0  0  0  0  0
   -0.7500    3.8971    0.0000 O   0  0  0  0  0  0  0  0  0  0  0  0
   -3.0000    2.5981    0.0000 O   0  0  0  0  0  0  0  0  0  0  0  0
   -3.7500    3.8971    0.0000 C   0  0  0  0  0  0  0  0  0  0  0  0
   -5.2500    3.8971    0.0000 C   0  0  0  0  0  0  0  0  0  0  0  0
    0.7500    1.2990    0.0000 C   0  0  0  0  0  0  0  0  0  0  0  0
    1.5000    2.5981    0.0000 C   0  0  0  0  0  0  0  0  0  0  0  0
    0.7500    3.8971    0.0000 O   0  0  0  0  0  0  0  0  0  0  0  0
    3.0000    2.5981    0.0000 O   0  0  0  0  0  0  0  0  0  0  0  0
    3.7500    3.8971    0.0000 C   0  0  0  0  0  0  0  0  0  0  0  0
    5.2500    3.8971    0.0000 C   0  0  0  0  0  0  0  0  0  0  0  0
    6.0000    2.5981    0.0000 O   0  0  0  0  0  0  0  0  0  0  0  0
    6.0000    5.1962    0.0000 N   0  0  0  0  0  0  0  0  0  0  0  0
    7.5000    5.1962    0.0000 C   0  0  0  0  0  0  0  0  0  0  0  0
    8.2500    6.4952    0.0000 C   0  0  0  0  0  0  0  0  0  0  0  0
    5.2500    6.4952    0.0000 C   0  0  0  0  0  0  0  0  0  0  0  0
    3.7582    6.6520    0.0000 C   0  0  0  0  0  0  0  0  0  0  0  0
    3.4463    8.1192    0.0000 C   0  0  0  0  0  0  0  0  0  0  0  0
    4.7454    8.8692    0.0000 S   0  0  0  0  0  0  0  0  0  0  0  0
    3.8637   10.0827    0.0000 O   0  0  0  0  0  0  0  0  0  0  0  0
    5.8601    9.8729    0.0000 O   0  0  0  0  0  0  0  0  0  0  0  0
    5.8601    7.8655    0.0000 C   0  0  0  0  0  0  0  0  0  0  0  0
  1  2  1  0
  2  3  1  0
  3  4  1  0
  4  5  2  0
  4  6  1  0
  6  7  2  0
  7  8  1  0
  7  9  1  0
  9 10  1  0
 10 11  1  0
 10 12  2  0
 12 13  1  0
 13 14  2  0
 13 15  1  0
 15 16  1  0
 16 17  1  0
 12 18  1  0
 18 19  1  0
 19 20  2  0
 19 21  1  0
 21 22  1  0
 22 23  1  0
 23 24  2  0
 23 25  1  0
 25 26  1  0
 26 27  1  0
 28 25  1  6
 28 29  1  0
 29 30  1  0
 30 31  1  0
 31 32  2  0
 31 33  2  0
 31 34  1  0
 18  6  1  0
 34 28  1  0
M  END
>  <Compound_ID>  (1084) 
C25436720

>  <Active>  (1084) 
0.0

>  <Smiles>  (1084) 
CCOC(=O)C1=C(C)NC(C)=C(C(=O)OCC)C1C(=O)OCC(=O)N(CC)[C@@H]1CCS(=O)(=O)C1

>  <canonical_smi>  (1084) 
CCOC(=O)C1=C(C)NC(C)=C(C(=O)OCC)C1C(=O)OCC(=O)N(CC)[C@@H]1CCS(=O)(=O)C1

>  <Set>  (1084) 
G2 inactive

>  <Set_type>  (1084) 
Test

>  <MW>  (1084) 
500.57

>  <HBD>  (1084) 
1

>  <HBA>  (1084) 
10

>  <NRB>  (1084) 
9

>  <NR>  (1084) 
2

>  <NAR>  (1084) 
0

>  <PSA>  (1084) 
145.38

>  <Standard Type>  (1084) 
nan

>  <Standard Relation>  (1084) 
nan

>  <Standard Units>  (1084) 
nan

>  <Standard Value>  (1084) 
nan

>  <Assay ChEMBL ID>  (1084) 
nan

>  <Assay Description>  (1084) 
nan

>  <BAO Label>  (1084) 
nan

$$$$

     RDKit          2D

 35 39  0  0  0  0  0  0  0  0999 V2000
   -7.2317   -6.0469    0.0000 O   0  0  0  0  0  0  0  0  0  0  0  0
   -6.9199   -4.5797    0.0000 C   0  0  0  0  0  0  0  0  0  0  0  0
   -8.0346   -3.5760    0.0000 N   0  0  0  0  0  0  0  0  0  0  0  0
   -9.4612   -4.0396    0.0000 C   0  0  0  0  0  0  0  0  0  0  0  0
  -10.5759   -3.0359    0.0000 C   0  0  0  0  0  0  0  0  0  0  0  0
  -12.0431   -3.3477    0.0000 C   0  0  0  0  0  0  0  0  0  0  0  0
  -12.7931   -2.0487    0.0000 C   0  0  0  0  0  0  0  0  0  0  0  0
  -11.7894   -0.9340    0.0000 C   0  0  0  0  0  0  0  0  0  0  0  0
  -10.4191   -1.5441    0.0000 O   0  0  0  0  0  0  0  0  0  0  0  0
   -5.4933   -4.1162    0.0000 C   0  0  0  0  0  0  0  0  0  0  0  0
   -5.1814   -2.6490    0.0000 C   0  0  0  0  0  0  0  0  0  0  0  0
   -6.1851   -1.5343    0.0000 C   0  0  0  0  0  0  0  0  0  0  0  0
   -5.4351   -0.2352    0.0000 C   0  0  0  0  0  0  0  0  0  0  0  0
   -3.9679   -0.5471    0.0000 C   0  0  0  0  0  0  0  0  0  0  0  0
   -3.8111   -2.0389    0.0000 S   0  0  0  0  0  0  0  0  0  0  0  0
   -4.3786   -5.1199    0.0000 N   0  0  0  0  0  0  0  0  0  0  0  0
   -4.6904   -6.5871    0.0000 C   0  0  0  0  0  0  0  0  0  0  0  0
   -3.5757   -7.5908    0.0000 C   0  0  0  0  0  0  0  0  0  0  0  0
   -2.1491   -7.1273    0.0000 C   0  0  0  0  0  0  0  0  0  0  0  0
   -1.0344   -8.1310    0.0000 C   0  0  0  0  0  0  0  0  0  0  0  0
   -1.3463   -9.5982    0.0000 C   0  0  0  0  0  0  0  0  0  0  0  0
   -2.7729  -10.0617    0.0000 N   0  0  0  0  0  0  0  0  0  0  0  0
   -3.8876   -9.0580    0.0000 C   0  0  0  0  0  0  0  0  0  0  0  0
   -2.9520   -4.6564    0.0000 C   0  0  0  0  0  0  0  0  0  0  0  0
   -1.8373   -5.6601    0.0000 O   0  0  0  0  0  0  0  0  0  0  0  0
   -2.6401   -3.1891    0.0000 C   0  0  0  0  0  0  0  0  0  0  0  0
   -1.2135   -2.7256    0.0000 N   0  0  0  0  0  0  0  0  0  0  0  0
   -0.0000   -3.6073    0.0000 N   0  0  0  0  0  0  0  0  0  0  0  0
    1.2135   -2.7256    0.0000 N   0  0  0  0  0  0  0  0  0  0  0  0
    0.7500   -1.2990    0.0000 C   0  0  0  0  0  0  0  0  0  0  0  0
    1.5000    0.0000    0.0000 C   0  0  0  0  0  0  0  0  0  0  0  0
    0.7500    1.2990    0.0000 C   0  0  0  0  0  0  0  0  0  0  0  0
   -0.7500    1.2990    0.0000 C   0  0  0  0  0  0  0  0  0  0  0  0
   -1.5000    0.0000    0.0000 C   0  0  0  0  0  0  0  0  0  0  0  0
   -0.7500   -1.2990    0.0000 C   0  0  0  0  0  0  0  0  0  0  0  0
  1  2  2  0
  2  3  1  0
  3  4  1  0
  4  5  1  0
  5  6  2  0
  6  7  1  0
  7  8  2  0
  8  9  1  0
  2 10  1  0
 10 11  1  0
 11 12  2  0
 12 13  1  0
 13 14  2  0
 14 15  1  0
 10 16  1  6
 16 17  1  0
 17 18  1  0
 18 19  2  0
 19 20  1  0
 20 21  2  0
 21 22  1  0
 22 23  2  0
 16 24  1  0
 24 25  2  0
 24 26  1  0
 26 27  1  0
 27 28  1  0
 28 29  2  0
 29 30  1  0
 30 31  2  0
 31 32  1  0
 32 33  2  0
 33 34  1  0
 34 35  2  0
  9  5  1  0
 15 11  1  0
 23 18  1  0
 35 27  1  0
 35 30  1  0
M  END
>  <Compound_ID>  (1085) 
C01339368

>  <Active>  (1085) 
0.0

>  <Smiles>  (1085) 
O=C(NCc1ccco1)[C@H](c1cccs1)N(Cc1cccnc1)C(=O)Cn1nnc2ccccc21

>  <canonical_smi>  (1085) 
O=C(NCc1ccco1)[C@H](c1cccs1)N(Cc1cccnc1)C(=O)Cn1nnc2ccccc21

>  <Set>  (1085) 
G2 inactive

>  <Set_type>  (1085) 
Test

>  <MW>  (1085) 
486.56

>  <HBD>  (1085) 
1

>  <HBA>  (1085) 
6

>  <NRB>  (1085) 
9

>  <NR>  (1085) 
5

>  <NAR>  (1085) 
5

>  <PSA>  (1085) 
106.15

>  <Standard Type>  (1085) 
nan

>  <Standard Relation>  (1085) 
nan

>  <Standard Units>  (1085) 
nan

>  <Standard Value>  (1085) 
nan

>  <Assay ChEMBL ID>  (1085) 
nan

>  <Assay Description>  (1085) 
nan

>  <BAO Label>  (1085) 
nan

$$$$

     RDKit          2D

 29 32  0  0  0  0  0  0  0  0999 V2000
    4.5000    0.0000    0.0000 N   0  0  0  0  0  0  0  0  0  0  0  0
    3.0000    0.0000    0.0000 C   0  0  0  0  0  0  0  0  0  0  0  0
    1.5000    0.0000    0.0000 C   0  0  0  0  0  0  0  0  0  0  0  0
    0.7500   -1.2990    0.0000 C   0  0  0  0  0  0  0  0  0  0  0  0
   -0.7500   -1.2990    0.0000 C   0  0  0  0  0  0  0  0  0  0  0  0
   -1.5000    0.0000    0.0000 C   0  0  0  0  0  0  0  0  0  0  0  0
   -3.0000    0.0000    0.0000 N   0  0  0  0  0  0  0  0  0  0  0  0
   -3.7500    1.2990    0.0000 C   0  0  0  0  0  0  0  0  0  0  0  0
   -5.2500    1.2990    0.0000 C   0  0  0  0  0  0  0  0  0  0  0  0
   -6.0000    0.0000    0.0000 C   0  0  0  0  0  0  0  0  0  0  0  0
   -7.5000    0.0000    0.0000 N   0  0  0  0  0  0  0  0  0  0  0  0
   -8.2500    1.2990    0.0000 C   0  0  0  0  0  0  0  0  0  0  0  0
   -7.5000    2.5981    0.0000 O   0  0  0  0  0  0  0  0  0  0  0  0
   -9.7500    1.2990    0.0000 C   0  0  0  0  0  0  0  0  0  0  0  0
  -10.6317    0.0855    0.0000 C   0  0  0  0  0  0  0  0  0  0  0  0
  -12.0583    0.5490    0.0000 C   0  0  0  0  0  0  0  0  0  0  0  0
  -12.0583    2.0490    0.0000 C   0  0  0  0  0  0  0  0  0  0  0  0
  -13.2718    2.9307    0.0000 C   0  0  0  0  0  0  0  0  0  0  0  0
  -13.1150    4.4225    0.0000 C   0  0  0  0  0  0  0  0  0  0  0  0
  -14.3285    5.3042    0.0000 C   0  0  0  0  0  0  0  0  0  0  0  0
  -15.6988    4.6941    0.0000 C   0  0  0  0  0  0  0  0  0  0  0  0
  -16.9124    5.5757    0.0000 F   0  0  0  0  0  0  0  0  0  0  0  0
  -15.8556    3.2023    0.0000 C   0  0  0  0  0  0  0  0  0  0  0  0
  -14.6421    2.3206    0.0000 C   0  0  0  0  0  0  0  0  0  0  0  0
  -10.6317    2.5126    0.0000 O   0  0  0  0  0  0  0  0  0  0  0  0
   -5.2500   -1.2990    0.0000 C   0  0  0  0  0  0  0  0  0  0  0  0
   -3.7500   -1.2990    0.0000 C   0  0  0  0  0  0  0  0  0  0  0  0
   -0.7500    1.2990    0.0000 N   0  0  0  0  0  0  0  0  0  0  0  0
    0.7500    1.2990    0.0000 C   0  0  0  0  0  0  0  0  0  0  0  0
  1  2  3  0
  2  3  1  0
  3  4  2  0
  4  5  1  0
  5  6  2  0
  6  7  1  0
  7  8  1  0
  8  9  1  0
  9 10  1  0
 10 11  1  0
 11 12  1  0
 12 13  2  0
 12 14  1  0
 14 15  2  0
 15 16  1  0
 16 17  2  0
 17 18  1  0
 18 19  2  0
 19 20  1  0
 20 21  2  0
 21 22  1  0
 21 23  1  0
 23 24  2  0
 17 25  1  0
 10 26  1  0
 26 27  1  0
  6 28  1  0
 28 29  2  0
 29  3  1  0
 27  7  1  0
 25 14  1  0
 24 18  1  0
M  END
>  <Compound_ID>  (1086) 
C66527003

>  <Active>  (1086) 
0.0

>  <Smiles>  (1086) 
N#Cc1ccc(N2CCC(NC(=O)c3ccc(-c4ccc(F)cc4)o3)CC2)nc1

>  <canonical_smi>  (1086) 
N#Cc1ccc(N2CCC(NC(=O)c3ccc(-c4ccc(F)cc4)o3)CC2)nc1

>  <Set>  (1086) 
G2 inactive

>  <Set_type>  (1086) 
Test

>  <MW>  (1086) 
390.42

>  <HBD>  (1086) 
1

>  <HBA>  (1086) 
5

>  <NRB>  (1086) 
4

>  <NR>  (1086) 
4

>  <NAR>  (1086) 
3

>  <PSA>  (1086) 
82.16

>  <Standard Type>  (1086) 
nan

>  <Standard Relation>  (1086) 
nan

>  <Standard Units>  (1086) 
nan

>  <Standard Value>  (1086) 
nan

>  <Assay ChEMBL ID>  (1086) 
nan

>  <Assay Description>  (1086) 
nan

>  <BAO Label>  (1086) 
nan

$$$$

     RDKit          2D

 32 34  0  0  0  0  0  0  0  0999 V2000
    4.6740  -12.6264    0.0000 C   0  0  0  0  0  0  0  0  0  0  0  0
    3.3037  -12.0163    0.0000 C   0  0  0  0  0  0  0  0  0  0  0  0
    2.9918  -10.5491    0.0000 C   0  0  0  0  0  0  0  0  0  0  0  0
    1.5000  -10.3923    0.0000 C   0  0  0  0  0  0  0  0  0  0  0  0
    0.7500   -9.0933    0.0000 C   0  0  0  0  0  0  0  0  0  0  0  0
    1.5000   -7.7942    0.0000 N   0  0  0  0  0  0  0  0  0  0  0  0
    0.7500   -6.4952    0.0000 N   0  0  0  0  0  0  0  0  0  0  0  0
    1.5000   -5.1962    0.0000 C   0  0  0  0  0  0  0  0  0  0  0  0
    3.0000   -5.1962    0.0000 O   0  0  0  0  0  0  0  0  0  0  0  0
    0.7500   -3.8971    0.0000 C   0  0  0  0  0  0  0  0  0  0  0  0
    1.5000   -2.5981    0.0000 N   0  0  0  0  0  0  0  0  0  0  0  0
    0.7500   -1.2990    0.0000 C   0  0  0  0  0  0  0  0  0  0  0  0
    1.5000    0.0000    0.0000 C   0  0  0  0  0  0  0  0  0  0  0  0
    0.7500    1.2990    0.0000 C   0  0  0  0  0  0  0  0  0  0  0  0
   -0.7500    1.2990    0.0000 C   0  0  0  0  0  0  0  0  0  0  0  0
   -1.5000    0.0000    0.0000 C   0  0  0  0  0  0  0  0  0  0  0  0
   -0.7500   -1.2990    0.0000 C   0  0  0  0  0  0  0  0  0  0  0  0
   -1.5000   -2.5981    0.0000 Cl  0  0  0  0  0  0  0  0  0  0  0  0
    3.0000   -2.5981    0.0000 S   0  0  0  0  0  0  0  0  0  0  0  0
    4.5000   -2.5981    0.0000 C   0  0  0  0  0  0  0  0  0  0  0  0
    3.0000   -1.0981    0.0000 O   0  0  0  0  0  0  0  0  0  0  0  0
    3.0000   -4.0981    0.0000 O   0  0  0  0  0  0  0  0  0  0  0  0
    0.8899  -11.7626    0.0000 C   0  0  0  0  0  0  0  0  0  0  0  0
   -0.5773  -12.0745    0.0000 C   0  0  0  0  0  0  0  0  0  0  0  0
    2.0046  -12.7663    0.0000 N   0  0  0  0  0  0  0  0  0  0  0  0
    1.8478  -14.2581    0.0000 C   0  0  0  0  0  0  0  0  0  0  0  0
    0.4775  -14.8682    0.0000 C   0  0  0  0  0  0  0  0  0  0  0  0
    0.3207  -16.3600    0.0000 C   0  0  0  0  0  0  0  0  0  0  0  0
    1.5342  -17.2417    0.0000 C   0  0  0  0  0  0  0  0  0  0  0  0
    1.3774  -18.7335    0.0000 Cl  0  0  0  0  0  0  0  0  0  0  0  0
    2.9046  -16.6316    0.0000 C   0  0  0  0  0  0  0  0  0  0  0  0
    3.0613  -15.1398    0.0000 C   0  0  0  0  0  0  0  0  0  0  0  0
  1  2  1  0
  2  3  2  0
  3  4  1  0
  4  5  1  0
  5  6  2  0
  6  7  1  0
  7  8  1  0
  8  9  2  0
  8 10  1  0
 10 11  1  0
 11 12  1  0
 12 13  2  0
 13 14  1  0
 14 15  2  0
 15 16  1  0
 16 17  2  0
 17 18  1  0
 11 19  1  0
 19 20  1  0
 19 21  2  0
 19 22  2  0
  4 23  2  0
 23 24  1  0
 23 25  1  0
 25 26  1  0
 26 27  2  0
 27 28  1  0
 28 29  2  0
 29 30  1  0
 29 31  1  0
 31 32  2  0
 25  2  1  0
 32 26  1  0
 17 12  1  0
M  END
>  <Compound_ID>  (1087) 
C02162864

>  <Active>  (1087) 
0.0

>  <Smiles>  (1087) 
Cc1cc(/C=N/NC(=O)CN(c2ccccc2Cl)S(C)(=O)=O)c(C)n1-c1ccc(Cl)cc1

>  <canonical_smi>  (1087) 
Cc1cc(/C=N/NC(=O)CN(c2ccccc2Cl)S(C)(=O)=O)c(C)n1-c1ccc(Cl)cc1

>  <Set>  (1087) 
G2 inactive

>  <Set_type>  (1087) 
Test

>  <MW>  (1087) 
493.42

>  <HBD>  (1087) 
1

>  <HBA>  (1087) 
3

>  <NRB>  (1087) 
7

>  <NR>  (1087) 
3

>  <NAR>  (1087) 
3

>  <PSA>  (1087) 
83.77

>  <Standard Type>  (1087) 
nan

>  <Standard Relation>  (1087) 
nan

>  <Standard Units>  (1087) 
nan

>  <Standard Value>  (1087) 
nan

>  <Assay ChEMBL ID>  (1087) 
nan

>  <Assay Description>  (1087) 
nan

>  <BAO Label>  (1087) 
nan

$$$$

     RDKit          2D

 31 34  0  0  0  0  0  0  0  0999 V2000
   -0.1459    3.7548    0.0000 O   0  0  0  0  0  0  0  0  0  0  0  0
    0.8578    2.6401    0.0000 C   0  0  0  0  0  0  0  0  0  0  0  0
    2.3250    2.9520    0.0000 N   0  0  0  0  0  0  0  0  0  0  0  0
    2.7886    4.3786    0.0000 C   0  0  0  0  0  0  0  0  0  0  0  0
    4.2558    4.6904    0.0000 C   0  0  0  0  0  0  0  0  0  0  0  0
    4.7193    6.1170    0.0000 C   0  0  0  0  0  0  0  0  0  0  0  0
    6.1865    6.4289    0.0000 N   0  0  0  0  0  0  0  0  0  0  0  0
    6.7966    7.7992    0.0000 C   0  0  0  0  0  0  0  0  0  0  0  0
    8.2884    7.6424    0.0000 C   0  0  0  0  0  0  0  0  0  0  0  0
    9.2921    8.7571    0.0000 Cl  0  0  0  0  0  0  0  0  0  0  0  0
    8.6003    6.1752    0.0000 C   0  0  0  0  0  0  0  0  0  0  0  0
    7.3013    5.4252    0.0000 N   0  0  0  0  0  0  0  0  0  0  0  0
    0.3943    1.2135    0.0000 C   0  0  0  0  0  0  0  0  0  0  0  0
    1.2760    0.0000    0.0000 C   0  0  0  0  0  0  0  0  0  0  0  0
    0.3943   -1.2135    0.0000 C   0  0  0  0  0  0  0  0  0  0  0  0
    0.7062   -2.6807    0.0000 N   0  0  0  0  0  0  0  0  0  0  0  0
   -0.4086   -3.6844    0.0000 C   0  0  0  0  0  0  0  0  0  0  0  0
   -0.0967   -5.1517    0.0000 C   0  0  0  0  0  0  0  0  0  0  0  0
    1.2736   -5.7618    0.0000 C   0  0  0  0  0  0  0  0  0  0  0  0
    1.1168   -7.2536    0.0000 C   0  0  0  0  0  0  0  0  0  0  0  0
   -0.3504   -7.5654    0.0000 C   0  0  0  0  0  0  0  0  0  0  0  0
   -0.9605   -8.9357    0.0000 Cl  0  0  0  0  0  0  0  0  0  0  0  0
   -1.1004   -6.2664    0.0000 S   0  0  0  0  0  0  0  0  0  0  0  0
   -1.8351   -3.2209    0.0000 C   0  0  0  0  0  0  0  0  0  0  0  0
   -2.1470   -1.7537    0.0000 C   0  0  0  0  0  0  0  0  0  0  0  0
   -3.5736   -1.2902    0.0000 C   0  0  0  0  0  0  0  0  0  0  0  0
   -5.0002   -0.8266    0.0000 F   0  0  0  0  0  0  0  0  0  0  0  0
   -4.0371   -2.7168    0.0000 F   0  0  0  0  0  0  0  0  0  0  0  0
   -3.1101    0.1364    0.0000 F   0  0  0  0  0  0  0  0  0  0  0  0
   -1.0323   -0.7500    0.0000 N   0  0  0  0  0  0  0  0  0  0  0  0
   -1.0323    0.7500    0.0000 N   0  0  0  0  0  0  0  0  0  0  0  0
  1  2  2  0
  2  3  1  0
  3  4  1  0
  4  5  1  0
  5  6  1  0
  6  7  1  0
  7  8  1  0
  8  9  2  0
  9 10  1  0
  9 11  1  0
 11 12  2  0
  2 13  1  0
 13 14  1  0
 14 15  2  0
 15 16  1  0
 16 17  2  0
 17 18  1  0
 18 19  2  0
 19 20  1  0
 20 21  2  0
 21 22  1  0
 21 23  1  0
 17 24  1  0
 24 25  2  0
 25 26  1  0
 26 27  1  0
 26 28  1  0
 26 29  1  0
 25 30  1  0
 30 31  1  0
 12  7  1  0
 31 13  2  0
 30 15  1  0
 23 18  1  0
M  END
>  <Compound_ID>  (1088) 
C02793110

>  <Active>  (1088) 
0.0

>  <Smiles>  (1088) 
O=C(NCCCn1cc(Cl)cn1)c1cc2nc(-c3ccc(Cl)s3)cc(C(F)(F)F)n2n1

>  <canonical_smi>  (1088) 
O=C(NCCCn1cc(Cl)cn1)c1cc2nc(-c3ccc(Cl)s3)cc(C(F)(F)F)n2n1

>  <Set>  (1088) 
G2 inactive

>  <Set_type>  (1088) 
Test

>  <MW>  (1088) 
489.31

>  <HBD>  (1088) 
1

>  <HBA>  (1088) 
4

>  <NRB>  (1088) 
6

>  <NR>  (1088) 
4

>  <NAR>  (1088) 
4

>  <PSA>  (1088) 
77.11

>  <Standard Type>  (1088) 
nan

>  <Standard Relation>  (1088) 
nan

>  <Standard Units>  (1088) 
nan

>  <Standard Value>  (1088) 
nan

>  <Assay ChEMBL ID>  (1088) 
nan

>  <Assay Description>  (1088) 
nan

>  <BAO Label>  (1088) 
nan

$$$$

     RDKit          2D

 37 41  0  0  0  0  0  0  0  0999 V2000
   -7.5000   -5.1962    0.0000 C   0  0  0  0  0  0  0  0  0  0  0  0
   -6.0000   -5.1962    0.0000 O   0  0  0  0  0  0  0  0  0  0  0  0
   -5.2500   -3.8971    0.0000 C   0  0  0  0  0  0  0  0  0  0  0  0
   -6.0000   -2.5981    0.0000 C   0  0  0  0  0  0  0  0  0  0  0  0
   -5.2500   -1.2990    0.0000 C   0  0  0  0  0  0  0  0  0  0  0  0
   -3.7500   -1.2990    0.0000 C   0  0  0  0  0  0  0  0  0  0  0  0
   -3.0000    0.0000    0.0000 O   0  0  0  0  0  0  0  0  0  0  0  0
   -3.7500    1.2990    0.0000 C   0  0  0  0  0  0  0  0  0  0  0  0
   -3.0000   -2.5981    0.0000 C   0  0  0  0  0  0  0  0  0  0  0  0
   -1.5000   -2.5981    0.0000 C   0  0  0  0  0  0  0  0  0  0  0  0
   -0.7500   -1.2990    0.0000 C   0  0  0  0  0  0  0  0  0  0  0  0
    0.7500   -1.2990    0.0000 C   0  0  0  0  0  0  0  0  0  0  0  0
    1.5000    0.0000    0.0000 C   0  0  0  0  0  0  0  0  0  0  0  0
    0.7500    1.2990    0.0000 C   0  0  0  0  0  0  0  0  0  0  0  0
   -0.7500    1.2990    0.0000 C   0  0  0  0  0  0  0  0  0  0  0  0
   -1.5000    0.0000    0.0000 C   0  0  0  0  0  0  0  0  0  0  0  0
   -2.2735    0.1929    0.0000 O   0  0  0  0  0  0  0  0  0  0  0  0
    1.5000   -2.5981    0.0000 N   0  0  0  0  0  0  0  0  0  0  0  0
    0.7500   -3.8971    0.0000 C   0  0  0  0  0  0  0  0  0  0  0  0
    1.5000   -5.1962    0.0000 N   0  0  0  0  0  0  0  0  0  0  0  0
    0.7500   -6.4952    0.0000 C   0  0  0  0  0  0  0  0  0  0  0  0
    1.5000   -7.7942    0.0000 S   0  0  0  0  0  0  0  0  0  0  0  0
    0.7500   -9.0933    0.0000 C   0  0  0  0  0  0  0  0  0  0  0  0
    1.5000  -10.3923    0.0000 C   0  0  0  0  0  0  0  0  0  0  0  0
    0.7500  -11.6913    0.0000 C   0  0  0  0  0  0  0  0  0  0  0  0
    1.5000  -12.9904    0.0000 C   0  0  0  0  0  0  0  0  0  0  0  0
    3.0000  -12.9904    0.0000 C   0  0  0  0  0  0  0  0  0  0  0  0
    3.7500  -14.2894    0.0000 N   0  0  0  0  0  4  0  0  0  0  0  0
    5.2500  -14.2894    0.0000 O   0  0  0  0  0  0  0  0  0  0  0  0
    3.0000  -15.5885    0.0000 O   0  0  0  0  0  1  0  0  0  0  0  0
    3.7500  -11.6913    0.0000 C   0  0  0  0  0  0  0  0  0  0  0  0
    3.0000  -10.3923    0.0000 C   0  0  0  0  0  0  0  0  0  0  0  0
   -0.7500   -6.4952    0.0000 N   0  0  0  0  0  0  0  0  0  0  0  0
   -1.5000   -5.1962    0.0000 C   0  0  0  0  0  0  0  0  0  0  0  0
   -3.0000   -5.1962    0.0000 O   0  0  0  0  0  0  0  0  0  0  0  0
   -0.7500   -3.8971    0.0000 C   0  0  0  0  0  0  0  0  0  0  0  0
   -3.7500   -3.8971    0.0000 C   0  0  0  0  0  0  0  0  0  0  0  0
  1  2  1  0
  2  3  1  0
  3  4  2  0
  4  5  1  0
  5  6  2  0
  6  7  1  0
  7  8  1  0
  6  9  1  0
 10  9  1  6
 10 11  1  0
 11 12  2  0
 12 13  1  0
 13 14  1  0
 14 15  1  0
 15 16  1  0
 16 17  2  0
 12 18  1  0
 18 19  1  0
 19 20  1  0
 20 21  2  0
 21 22  1  0
 22 23  1  0
 23 24  1  0
 24 25  2  0
 25 26  1  0
 26 27  2  0
 27 28  1  0
 28 29  2  0
 28 30  1  0
 27 31  1  0
 31 32  2  0
 21 33  1  0
 33 34  1  0
 34 35  2  0
 34 36  1  0
  9 37  2  0
 37  3  1  0
 36 10  1  0
 16 11  1  0
 36 19  2  0
 32 24  1  0
M  CHG  2  28   1  30  -1
M  END
>  <Compound_ID>  (1089) 
C35532261

>  <Active>  (1089) 
0.0

>  <Smiles>  (1089) 
COc1ccc(OC)c([C@@H]2C3=C(CCCC3=O)Nc3nc(SCc4ccc([N+](=O)[O-])cc4)[nH]c(=O)c32)c1

>  <canonical_smi>  (1089) 
COc1ccc(OC)c([C@@H]2C3=C(CCCC3=O)Nc3nc(SCc4ccc([N+](=O)[O-])cc4)[nH]c(=O)c32)c1

>  <Set>  (1089) 
G2 inactive

>  <Set_type>  (1089) 
Test

>  <MW>  (1089) 
520.57

>  <HBD>  (1089) 
2

>  <HBA>  (1089) 
9

>  <NRB>  (1089) 
7

>  <NR>  (1089) 
5

>  <NAR>  (1089) 
3

>  <PSA>  (1089) 
136.45

>  <Standard Type>  (1089) 
nan

>  <Standard Relation>  (1089) 
nan

>  <Standard Units>  (1089) 
nan

>  <Standard Value>  (1089) 
nan

>  <Assay ChEMBL ID>  (1089) 
nan

>  <Assay Description>  (1089) 
nan

>  <BAO Label>  (1089) 
nan

$$$$

     RDKit          2D

 29 33  0  0  0  0  0  0  0  0999 V2000
   -4.9294    1.5000    0.0000 C   0  0  0  0  0  0  0  0  0  0  0  0
   -3.6304    0.7500    0.0000 C   0  0  0  0  0  0  0  0  0  0  0  0
   -3.6304   -0.7500    0.0000 N   0  0  0  0  0  4  0  0  0  0  0  0
   -2.3313   -1.5000    0.0000 C   0  0  0  0  0  0  0  0  0  0  0  0
   -1.0323   -0.7500    0.0000 C   0  0  0  0  0  0  0  0  0  0  0  0
   -1.0323    0.7500    0.0000 C   0  0  0  0  0  0  0  0  0  0  0  0
   -2.3313    1.5000    0.0000 C   0  0  0  0  0  0  0  0  0  0  0  0
   -2.3313    3.0000    0.0000 O   0  0  0  0  0  1  0  0  0  0  0  0
    0.3943    1.2135    0.0000 C   0  0  0  0  0  0  0  0  0  0  0  0
    0.8578    2.6401    0.0000 C   0  0  0  0  0  0  0  0  0  0  0  0
   -0.0239    3.8536    0.0000 C   0  0  0  0  0  0  0  0  0  0  0  0
   -1.5239    3.8536    0.0000 O   0  0  0  0  0  0  0  0  0  0  0  0
    0.8578    5.0672    0.0000 N   0  0  0  0  0  0  0  0  0  0  0  0
    0.3943    6.4937    0.0000 C   0  0  0  0  0  0  0  0  0  0  0  0
    1.3980    7.6085    0.0000 C   0  0  0  0  0  0  0  0  0  0  0  0
    0.9345    9.0350    0.0000 C   0  0  0  0  0  0  0  0  0  0  0  0
   -0.5328    9.3469    0.0000 C   0  0  0  0  0  0  0  0  0  0  0  0
   -1.5364    8.2322    0.0000 C   0  0  0  0  0  0  0  0  0  0  0  0
   -1.0729    6.8056    0.0000 C   0  0  0  0  0  0  0  0  0  0  0  0
    2.2844    4.6036    0.0000 N   0  0  0  0  0  0  0  0  0  0  0  0
    2.2844    3.1036    0.0000 C   0  0  0  0  0  0  0  0  0  0  0  0
    3.4979    2.2220    0.0000 C   0  0  0  0  0  0  0  0  0  0  0  0
    3.3411    0.7302    0.0000 C   0  0  0  0  0  0  0  0  0  0  0  0
    4.5547   -0.1515    0.0000 C   0  0  0  0  0  0  0  0  0  0  0  0
    5.9250    0.4586    0.0000 C   0  0  0  0  0  0  0  0  0  0  0  0
    6.0818    1.9504    0.0000 C   0  0  0  0  0  0  0  0  0  0  0  0
    4.8683    2.8321    0.0000 C   0  0  0  0  0  0  0  0  0  0  0  0
    1.2760    0.0000    0.0000 O   0  0  0  0  0  0  0  0  0  0  0  0
    0.3943   -1.2135    0.0000 C   0  0  0  0  0  0  0  0  0  0  0  0
  1  2  1  0
  2  3  2  0
  3  4  1  0
  4  5  2  0
  5  6  1  0
  6  7  2  0
  7  8  1  0
  6  9  1  0
  9 10  1  0
 10 11  1  1
 11 12  2  0
 11 13  1  0
 13 14  1  0
 14 15  2  0
 15 16  1  0
 16 17  2  0
 17 18  1  0
 18 19  2  0
 13 20  1  0
 20 21  2  0
 21 22  1  0
 22 23  2  0
 23 24  1  0
 24 25  2  0
 25 26  1  0
 26 27  2  0
  9 28  1  1
 28 29  1  0
  7  2  1  0
 21 10  1  0
 27 22  1  0
 29  5  1  0
 19 14  1  0
M  CHG  2   3   1   8  -1
M  END
>  <Compound_ID>  (1090) 
C06674477

>  <Active>  (1090) 
0.0

>  <Smiles>  (1090) 
Cc1[nH+]cc2c(c1[O-])[C@@H]([C@H]1C(=O)N(c3ccccc3)N=C1c1ccccc1)OC2

>  <canonical_smi>  (1090) 
Cc1[nH+]cc2c(c1[O-])[C@@H]([C@H]1C(=O)N(c3ccccc3)N=C1c1ccccc1)OC2

>  <Set>  (1090) 
G2 inactive

>  <Set_type>  (1090) 
Test

>  <MW>  (1090) 
385.42

>  <HBD>  (1090) 
0

>  <HBA>  (1090) 
3

>  <NRB>  (1090) 
3

>  <NR>  (1090) 
5

>  <NAR>  (1090) 
3

>  <PSA>  (1090) 
79.1

>  <Standard Type>  (1090) 
nan

>  <Standard Relation>  (1090) 
nan

>  <Standard Units>  (1090) 
nan

>  <Standard Value>  (1090) 
nan

>  <Assay ChEMBL ID>  (1090) 
nan

>  <Assay Description>  (1090) 
nan

>  <BAO Label>  (1090) 
nan

$$$$

     RDKit          2D

 37 42  0  0  0  0  0  0  0  0999 V2000
    6.7500  -11.6913    0.0000 F   0  0  0  0  0  0  0  0  0  0  0  0
    5.2500  -11.6913    0.0000 C   0  0  0  0  0  0  0  0  0  0  0  0
    5.2500  -13.1913    0.0000 F   0  0  0  0  0  0  0  0  0  0  0  0
    5.2500  -10.1913    0.0000 F   0  0  0  0  0  0  0  0  0  0  0  0
    3.7500  -11.6913    0.0000 C   0  0  0  0  0  0  0  0  0  0  0  0
    3.0000  -12.9904    0.0000 C   0  0  0  0  0  0  0  0  0  0  0  0
    1.5000  -12.9904    0.0000 C   0  0  0  0  0  0  0  0  0  0  0  0
    0.7500  -11.6913    0.0000 C   0  0  0  0  0  0  0  0  0  0  0  0
    1.5000  -10.3923    0.0000 C   0  0  0  0  0  0  0  0  0  0  0  0
    0.7500   -9.0933    0.0000 N   0  0  0  0  0  0  0  0  0  0  0  0
    1.5000   -7.7942    0.0000 C   0  0  0  0  0  0  0  0  0  0  0  0
    0.7500   -6.4952    0.0000 C   0  0  0  0  0  0  0  0  0  0  0  0
   -0.7500   -6.4952    0.0000 N   0  0  0  0  0  4  0  0  0  0  0  0
   -1.5000   -5.1962    0.0000 C   0  0  0  0  0  0  0  0  0  0  0  0
   -0.7500   -3.8971    0.0000 C   0  0  0  0  0  0  0  0  0  0  0  0
    0.7500   -3.8971    0.0000 C   0  0  0  0  0  0  0  0  0  0  0  0
    1.5000   -2.5981    0.0000 C   0  0  0  0  0  0  0  0  0  0  0  0
    0.7500   -1.2990    0.0000 C   0  0  0  0  0  0  0  0  0  0  0  0
    1.5000    0.0000    0.0000 N   0  0  0  0  0  0  0  0  0  0  0  0
    0.7500    1.2990    0.0000 C   0  0  0  0  0  0  0  0  0  0  0  0
   -0.7500    1.2990    0.0000 C   0  0  0  0  0  0  0  0  0  0  0  0
   -1.5000    0.0000    0.0000 C   0  0  0  0  0  0  0  0  0  0  0  0
   -0.7500   -1.2990    0.0000 C   0  0  0  0  0  0  0  0  0  0  0  0
   -1.5000   -2.5981    0.0000 C   0  0  0  0  0  0  0  0  0  0  0  0
   -3.0000   -5.1962    0.0000 C   0  0  0  0  0  0  0  0  0  0  0  0
   -3.8817   -6.4097    0.0000 N   0  0  0  0  0  0  0  0  0  0  0  0
   -5.3083   -5.9462    0.0000 N   0  0  0  0  0  0  0  0  0  0  0  0
   -5.3083   -4.4462    0.0000 N   0  0  0  0  0  0  0  0  0  0  0  0
   -3.8817   -3.9826    0.0000 N   0  0  0  0  0  0  0  0  0  0  0  0
   -3.4182   -2.5560    0.0000 C   0  0  0  0  0  0  0  0  0  0  0  0
   -4.2998   -1.3425    0.0000 C   0  0  0  0  0  0  0  0  0  0  0  0
   -3.4182   -0.1290    0.0000 C   0  0  0  0  0  0  0  0  0  0  0  0
   -1.9916   -0.5925    0.0000 C   0  0  0  0  0  0  0  0  0  0  0  0
   -1.9916   -2.0925    0.0000 C   0  0  0  0  0  0  0  0  0  0  0  0
   -1.5000   -7.7942    0.0000 C   0  0  0  0  0  0  0  0  0  0  0  0
   -0.7500   -9.0933    0.0000 C   0  0  0  0  0  0  0  0  0  0  0  0
    3.0000  -10.3923    0.0000 C   0  0  0  0  0  0  0  0  0  0  0  0
  1  2  1  0
  2  3  1  0
  2  4  1  0
  2  5  1  0
  5  6  2  0
  6  7  1  0
  7  8  2  0
  8  9  1  0
  9 10  1  0
 10 11  1  0
 11 12  1  0
 12 13  1  0
 14 13  1  6
 14 15  1  0
 15 16  2  0
 16 17  1  0
 17 18  2  0
 18 19  1  0
 19 20  2  0
 20 21  1  0
 21 22  2  0
 22 23  1  0
 23 24  2  0
 14 25  1  0
 25 26  2  0
 26 27  1  0
 27 28  2  0
 28 29  1  0
 29 30  1  0
 30 31  1  0
 31 32  1  0
 32 33  1  0
 33 34  1  0
 13 35  1  0
 35 36  1  0
  9 37  2  0
 37  5  1  0
 36 10  1  0
 24 15  1  0
 29 25  1  0
 34 30  1  0
 23 18  1  0
M  CHG  1  13   1
M  END
>  <Compound_ID>  (1091) 
C12641793

>  <Active>  (1091) 
0.0

>  <Smiles>  (1091) 
FC(F)(F)c1cccc(N2CC[NH+]([C@@H](c3ccc4ncccc4c3)c3nnnn3C3CCCC3)CC2)c1

>  <canonical_smi>  (1091) 
FC(F)(F)c1cccc(N2CC[NH+]([C@@H](c3ccc4ncccc4c3)c3nnnn3C3CCCC3)CC2)c1

>  <Set>  (1091) 
G2 inactive

>  <Set_type>  (1091) 
Test

>  <MW>  (1091) 
508.57

>  <HBD>  (1091) 
1

>  <HBA>  (1091) 
5

>  <NRB>  (1091) 
5

>  <NR>  (1091) 
6

>  <NAR>  (1091) 
4

>  <PSA>  (1091) 
64.17

>  <Standard Type>  (1091) 
nan

>  <Standard Relation>  (1091) 
nan

>  <Standard Units>  (1091) 
nan

>  <Standard Value>  (1091) 
nan

>  <Assay ChEMBL ID>  (1091) 
nan

>  <Assay Description>  (1091) 
nan

>  <BAO Label>  (1091) 
nan

$$$$

     RDKit          2D

 34 39  0  0  0  0  0  0  0  0999 V2000
    5.5876  -11.6810    0.0000 C   0  0  0  0  0  0  0  0  0  0  0  0
    6.8011  -10.7993    0.0000 O   0  0  0  0  0  0  0  0  0  0  0  0
    6.6443   -9.3075    0.0000 C   0  0  0  0  0  0  0  0  0  0  0  0
    5.2740   -8.6974    0.0000 C   0  0  0  0  0  0  0  0  0  0  0  0
    5.1172   -7.2057    0.0000 C   0  0  0  0  0  0  0  0  0  0  0  0
    6.3308   -6.3240    0.0000 C   0  0  0  0  0  0  0  0  0  0  0  0
    6.1740   -4.8322    0.0000 S   0  0  0  0  0  0  0  0  0  0  0  0
    4.8037   -4.2221    0.0000 C   0  0  0  0  0  0  0  0  0  0  0  0
    3.5046   -4.9721    0.0000 C   0  0  0  0  0  0  0  0  0  0  0  0
    2.3899   -3.9684    0.0000 C   0  0  0  0  0  0  0  0  0  0  0  0
    0.9227   -4.2803    0.0000 C   0  0  0  0  0  0  0  0  0  0  0  0
   -0.0810   -3.1655    0.0000 O   0  0  0  0  0  0  0  0  0  0  0  0
    0.4591   -5.7068    0.0000 N   0  0  0  0  0  0  0  0  0  0  0  0
   -1.0081   -6.0187    0.0000 C   0  0  0  0  0  0  0  0  0  0  0  0
   -1.6182   -7.3890    0.0000 C   0  0  0  0  0  0  0  0  0  0  0  0
   -3.1100   -7.2322    0.0000 C   0  0  0  0  0  0  0  0  0  0  0  0
   -3.4218   -5.7650    0.0000 S   0  0  0  0  0  0  0  0  0  0  0  0
   -4.8484   -6.2285    0.0000 O   0  0  0  0  0  0  0  0  0  0  0  0
   -4.0319   -4.3947    0.0000 O   0  0  0  0  0  0  0  0  0  0  0  0
   -2.1228   -5.0150    0.0000 C   0  0  0  0  0  0  0  0  0  0  0  0
    3.0000   -2.5981    0.0000 N   0  0  0  0  0  4  0  0  0  0  0  0
    2.2500   -1.2990    0.0000 C   0  0  0  0  0  0  0  0  0  0  0  0
    0.7500   -1.2990    0.0000 C   0  0  0  0  0  0  0  0  0  0  0  0
    1.5000    0.0000    0.0000 C   0  0  0  0  0  0  0  0  0  0  0  0
    0.7500    1.2990    0.0000 C   0  0  0  0  0  0  0  0  0  0  0  0
   -0.7500    1.2990    0.0000 C   0  0  0  0  0  0  0  0  0  0  0  0
   -1.5000    0.0000    0.0000 C   0  0  0  0  0  0  0  0  0  0  0  0
   -0.7500   -1.2990    0.0000 C   0  0  0  0  0  0  0  0  0  0  0  0
    1.7010   -0.7500    0.0000 C   0  0  0  0  0  0  0  0  0  0  0  0
    3.0000   -0.0000    0.0000 C   0  0  0  0  0  0  0  0  0  0  0  0
    2.2500    1.2990    0.0000 C   0  0  0  0  0  0  0  0  0  0  0  0
    4.4918   -2.7549    0.0000 C   0  0  0  0  0  0  0  0  0  0  0  0
    7.7011   -6.9341    0.0000 C   0  0  0  0  0  0  0  0  0  0  0  0
    7.8579   -8.4259    0.0000 C   0  0  0  0  0  0  0  0  0  0  0  0
  1  2  1  0
  2  3  1  0
  3  4  2  0
  4  5  1  0
  5  6  2  0
  6  7  1  0
  8  7  1  6
  8  9  1  0
  9 10  1  0
 10 11  1  1
 11 12  2  0
 11 13  1  0
 14 13  1  6
 14 15  1  0
 15 16  1  0
 16 17  1  0
 17 18  2  0
 17 19  2  0
 17 20  1  0
 10 21  1  0
 21 22  1  0
 22 23  1  0
 23 24  1  0
 24 25  1  0
 25 26  1  0
 26 27  1  0
 27 28  1  0
 27 29  1  0
 29 30  1  0
 30 31  1  0
 21 32  1  0
  6 33  1  0
 33 34  2  0
 34  3  1  0
 32  8  1  0
 20 14  1  0
 30 22  1  0
 28 23  1  0
 31 25  1  0
M  CHG  1  21   1
M  END
>  <Compound_ID>  (1092) 
C12457390

>  <Active>  (1092) 
0.0

>  <Smiles>  (1092) 
COc1ccc(S[C@@H]2C[C@@H](C(=O)N[C@@H]3CCS(=O)(=O)C3)[NH+](C3C4CC5CC(C4)CC3C5)C2)cc1

>  <canonical_smi>  (1092) 
COc1ccc(S[C@@H]2C[C@@H](C(=O)N[C@@H]3CCS(=O)(=O)C3)[NH+](C3C4CC5CC(C4)CC3C5)C2)cc1

>  <Set>  (1092) 
G2 inactive

>  <Set_type>  (1092) 
Test

>  <MW>  (1092) 
505.73

>  <HBD>  (1092) 
2

>  <HBA>  (1092) 
5

>  <NRB>  (1092) 
6

>  <NR>  (1092) 
7

>  <NAR>  (1092) 
1

>  <PSA>  (1092) 
76.91

>  <Standard Type>  (1092) 
nan

>  <Standard Relation>  (1092) 
nan

>  <Standard Units>  (1092) 
nan

>  <Standard Value>  (1092) 
nan

>  <Assay ChEMBL ID>  (1092) 
nan

>  <Assay Description>  (1092) 
nan

>  <BAO Label>  (1092) 
nan

$$$$

     RDKit          2D

 33 35  0  0  0  0  0  0  0  0999 V2000
    3.7500   -1.2990    0.0000 C   0  0  0  0  0  0  0  0  0  0  0  0
    3.0000    0.0000    0.0000 O   0  0  0  0  0  0  0  0  0  0  0  0
    1.5000    0.0000    0.0000 C   0  0  0  0  0  0  0  0  0  0  0  0
    0.7500   -1.2990    0.0000 C   0  0  0  0  0  0  0  0  0  0  0  0
   -0.7500   -1.2990    0.0000 C   0  0  0  0  0  0  0  0  0  0  0  0
   -1.5000    0.0000    0.0000 C   0  0  0  0  0  0  0  0  0  0  0  0
   -3.0000    0.0000    0.0000 C   0  0  0  0  0  0  0  0  0  0  0  0
   -3.7500    1.2990    0.0000 N   0  0  0  0  0  4  0  0  0  0  0  0
   -5.2500    1.2990    0.0000 C   0  0  0  0  0  0  0  0  0  0  0  0
   -6.0000    2.5981    0.0000 C   0  0  0  0  0  0  0  0  0  0  0  0
   -5.2500    3.8971    0.0000 C   0  0  0  0  0  0  0  0  0  0  0  0
   -6.0000    5.1962    0.0000 C   0  0  0  0  0  0  0  0  0  0  0  0
   -7.5000    5.1962    0.0000 C   0  0  0  0  0  0  0  0  0  0  0  0
   -8.2500    6.4952    0.0000 O   0  0  0  0  0  0  0  0  0  0  0  0
   -7.5000    7.7942    0.0000 C   0  0  0  0  0  0  0  0  0  0  0  0
   -8.2500    3.8971    0.0000 C   0  0  0  0  0  0  0  0  0  0  0  0
   -9.7500    3.8971    0.0000 O   0  0  0  0  0  0  0  0  0  0  0  0
  -10.5000    2.5981    0.0000 C   0  0  0  0  0  0  0  0  0  0  0  0
   -7.5000    2.5981    0.0000 C   0  0  0  0  0  0  0  0  0  0  0  0
   -8.2500    1.2990    0.0000 O   0  0  0  0  0  0  0  0  0  0  0  0
   -9.7500    1.2990    0.0000 C   0  0  0  0  0  0  0  0  0  0  0  0
   -6.0000    0.0000    0.0000 C   0  0  0  0  0  0  0  0  0  0  0  0
   -7.5000    0.0000    0.0000 C   0  0  0  0  0  0  0  0  0  0  0  0
   -5.2500   -1.2990    0.0000 C   0  0  0  0  0  0  0  0  0  0  0  0
   -6.0000   -2.5981    0.0000 O   0  0  0  0  0  0  0  0  0  0  0  0
   -3.7500   -1.2990    0.0000 C   0  0  0  0  0  0  0  0  0  0  0  0
   -3.0000   -2.5981    0.0000 C   0  0  0  0  0  0  0  0  0  0  0  0
   -0.7500    1.2990    0.0000 C   0  0  0  0  0  0  0  0  0  0  0  0
   -1.5000    2.5981    0.0000 O   0  0  0  0  0  0  0  0  0  0  0  0
   -0.7500    3.8971    0.0000 C   0  0  0  0  0  0  0  0  0  0  0  0
    0.7500    1.2990    0.0000 C   0  0  0  0  0  0  0  0  0  0  0  0
    1.5000    2.5981    0.0000 O   0  0  0  0  0  0  0  0  0  0  0  0
    3.0000    2.5981    0.0000 C   0  0  0  0  0  0  0  0  0  0  0  0
  1  2  1  0
  2  3  1  0
  3  4  2  0
  4  5  1  0
  5  6  2  0
  7  6  1  6
  7  8  1  0
  8  9  1  0
  9 10  1  1
 10 11  2  0
 11 12  1  0
 12 13  2  0
 13 14  1  0
 14 15  1  0
 13 16  1  0
 16 17  1  0
 17 18  1  0
 16 19  2  0
 19 20  1  0
 20 21  1  0
  9 22  1  0
 22 23  1  6
 22 24  1  0
 24 25  2  0
 24 26  1  0
 26 27  1  6
  6 28  1  0
 28 29  1  0
 29 30  1  0
 28 31  2  0
 31 32  1  0
 32 33  1  0
 31  3  1  0
 26  7  1  0
 19 10  1  0
M  CHG  1   8   1
M  END
>  <Compound_ID>  (1093) 
C04101614

>  <Active>  (1093) 
0.0

>  <Smiles>  (1093) 
COc1ccc([C@H]2[NH2+][C@H](c3ccc(OC)c(OC)c3OC)[C@@H](C)C(=O)[C@H]2C)c(OC)c1OC

>  <canonical_smi>  (1093) 
COc1ccc([C@H]2[NH2+][C@H](c3ccc(OC)c(OC)c3OC)[C@@H](C)C(=O)[C@H]2C)c(OC)c1OC

>  <Set>  (1093) 
G2 inactive

>  <Set_type>  (1093) 
Test

>  <MW>  (1093) 
460.55

>  <HBD>  (1093) 
1

>  <HBA>  (1093) 
7

>  <NRB>  (1093) 
8

>  <NR>  (1093) 
3

>  <NAR>  (1093) 
2

>  <PSA>  (1093) 
89.06

>  <Standard Type>  (1093) 
nan

>  <Standard Relation>  (1093) 
nan

>  <Standard Units>  (1093) 
nan

>  <Standard Value>  (1093) 
nan

>  <Assay ChEMBL ID>  (1093) 
nan

>  <Assay Description>  (1093) 
nan

>  <BAO Label>  (1093) 
nan

$$$$

     RDKit          2D

 36 40  0  0  0  0  0  0  0  0999 V2000
    0.1288   16.4587    0.0000 C   0  0  0  0  0  0  0  0  0  0  0  0
    0.4407   14.9915    0.0000 C   0  0  0  0  0  0  0  0  0  0  0  0
   -0.6741   13.9878    0.0000 N   0  0  0  0  0  0  0  0  0  0  0  0
   -2.1006   14.4513    0.0000 C   0  0  0  0  0  0  0  0  0  0  0  0
   -2.4125   15.9185    0.0000 C   0  0  0  0  0  0  0  0  0  0  0  0
   -0.3622   12.5205    0.0000 C   0  0  0  0  0  0  0  0  0  0  0  0
    1.0644   12.0570    0.0000 O   0  0  0  0  0  0  0  0  0  0  0  0
   -1.4769   11.5169    0.0000 C   0  0  0  0  0  0  0  0  0  0  0  0
   -1.1650   10.0496    0.0000 N   0  0  0  0  0  4  0  0  0  0  0  0
    0.2615    9.5861    0.0000 C   0  0  0  0  0  0  0  0  0  0  0  0
    0.5734    8.1189    0.0000 C   0  0  0  0  0  0  0  0  0  0  0  0
   -0.5413    7.1152    0.0000 N   0  0  0  0  0  0  0  0  0  0  0  0
   -0.2294    5.6480    0.0000 C   0  0  0  0  0  0  0  0  0  0  0  0
   -1.3442    4.6443    0.0000 N   0  0  0  0  0  0  0  0  0  0  0  0
   -1.0323    3.1771    0.0000 C   0  0  0  0  0  0  0  0  0  0  0  0
   -1.9140    1.9635    0.0000 S   0  0  0  0  0  0  0  0  0  0  0  0
   -1.0323    0.7500    0.0000 C   0  0  0  0  0  0  0  0  0  0  0  0
    0.3943    1.2135    0.0000 C   0  0  0  0  0  0  0  0  0  0  0  0
    0.3943    2.7135    0.0000 C   0  0  0  0  0  0  0  0  0  0  0  0
    1.5090    3.7172    0.0000 C   0  0  0  0  0  0  0  0  0  0  0  0
    2.9356    3.2537    0.0000 O   0  0  0  0  0  0  0  0  0  0  0  0
    1.1971    5.1844    0.0000 N   0  0  0  0  0  0  0  0  0  0  0  0
    2.3119    6.1881    0.0000 C   0  0  0  0  0  0  0  0  0  0  0  0
    3.7385    5.7246    0.0000 C   0  0  0  0  0  0  0  0  0  0  0  0
    4.8532    6.7283    0.0000 C   0  0  0  0  0  0  0  0  0  0  0  0
    6.2798    6.2648    0.0000 C   0  0  0  0  0  0  0  0  0  0  0  0
    6.5916    4.7976    0.0000 C   0  0  0  0  0  0  0  0  0  0  0  0
    8.0182    4.3340    0.0000 C   0  0  0  0  0  0  0  0  0  0  0  0
    9.1329    5.3377    0.0000 C   0  0  0  0  0  0  0  0  0  0  0  0
    8.8211    6.8050    0.0000 C   0  0  0  0  0  0  0  0  0  0  0  0
    7.3945    7.2685    0.0000 C   0  0  0  0  0  0  0  0  0  0  0  0
    1.2760    0.0000    0.0000 C   0  0  0  0  0  0  0  0  0  0  0  0
    0.3943   -1.2135    0.0000 C   0  0  0  0  0  0  0  0  0  0  0  0
   -1.0323   -0.7500    0.0000 C   0  0  0  0  0  0  0  0  0  0  0  0
   -1.9679    7.5787    0.0000 C   0  0  0  0  0  0  0  0  0  0  0  0
   -2.2798    9.0459    0.0000 C   0  0  0  0  0  0  0  0  0  0  0  0
  1  2  1  0
  2  3  1  0
  3  4  1  0
  4  5  1  0
  3  6  1  0
  6  7  2  0
  6  8  1  0
  8  9  1  0
  9 10  1  0
 10 11  1  0
 11 12  1  0
 12 13  1  0
 13 14  2  0
 14 15  1  0
 15 16  1  0
 16 17  1  0
 17 18  2  0
 18 19  1  0
 19 20  1  0
 20 21  2  0
 20 22  1  0
 22 23  1  0
 23 24  1  0
 24 25  1  0
 25 26  1  0
 26 27  2  0
 27 28  1  0
 28 29  2  0
 29 30  1  0
 30 31  2  0
 18 32  1  0
 32 33  1  0
 33 34  1  0
 12 35  1  0
 35 36  1  0
 36  9  1  0
 22 13  1  0
 31 26  1  0
 19 15  2  0
 34 17  1  0
M  CHG  1   9   1
M  END
>  <Compound_ID>  (1094) 
C34748040

>  <Active>  (1094) 
0.0

>  <Smiles>  (1094) 
CCN(CC)C(=O)C[NH+]1CCN(c2nc3sc4c(c3c(=O)n2CCCc2ccccc2)CCC4)CC1

>  <canonical_smi>  (1094) 
CCN(CC)C(=O)C[NH+]1CCN(c2nc3sc4c(c3c(=O)n2CCCc2ccccc2)CCC4)CC1

>  <Set>  (1094) 
G2 inactive

>  <Set_type>  (1094) 
Test

>  <MW>  (1094) 
508.71

>  <HBD>  (1094) 
1

>  <HBA>  (1094) 
4

>  <NRB>  (1094) 
9

>  <NR>  (1094) 
5

>  <NAR>  (1094) 
3

>  <PSA>  (1094) 
62.88

>  <Standard Type>  (1094) 
nan

>  <Standard Relation>  (1094) 
nan

>  <Standard Units>  (1094) 
nan

>  <Standard Value>  (1094) 
nan

>  <Assay ChEMBL ID>  (1094) 
nan

>  <Assay Description>  (1094) 
nan

>  <BAO Label>  (1094) 
nan

$$$$

     RDKit          2D

 33 34  0  0  0  0  0  0  0  0999 V2000
    7.5000   -2.5981    0.0000 C   0  0  0  0  0  0  0  0  0  0  0  0
    6.0000   -2.5981    0.0000 C   0  0  0  0  0  0  0  0  0  0  0  0
    5.2500   -1.2990    0.0000 C   0  0  0  0  0  0  0  0  0  0  0  0
    3.7500   -1.2990    0.0000 C   0  0  0  0  0  0  0  0  0  0  0  0
    3.0000    0.0000    0.0000 O   0  0  0  0  0  0  0  0  0  0  0  0
    1.5000    0.0000    0.0000 C   0  0  0  0  0  0  0  0  0  0  0  0
    0.7500   -1.2990    0.0000 C   0  0  0  0  0  0  0  0  0  0  0  0
    1.5000   -2.5981    0.0000 Br  0  0  0  0  0  0  0  0  0  0  0  0
   -0.7500   -1.2990    0.0000 C   0  0  0  0  0  0  0  0  0  0  0  0
   -1.5000    0.0000    0.0000 C   0  0  0  0  0  0  0  0  0  0  0  0
   -3.0000    0.0000    0.0000 C   0  0  0  0  0  0  0  0  0  0  0  0
   -3.7500    1.2990    0.0000 N   0  0  0  0  0  0  0  0  0  0  0  0
   -3.0000    2.5981    0.0000 N   0  0  0  0  0  0  0  0  0  0  0  0
   -3.7500    3.8971    0.0000 C   0  0  0  0  0  0  0  0  0  0  0  0
   -5.2500    3.8971    0.0000 O   0  0  0  0  0  0  0  0  0  0  0  0
   -3.0000    5.1962    0.0000 C   0  0  0  0  0  0  0  0  0  0  0  0
   -1.5000    5.1962    0.0000 N   0  0  0  0  0  0  0  0  0  0  0  0
   -0.7500    6.4952    0.0000 C   0  0  0  0  0  0  0  0  0  0  0  0
   -1.5000    7.7942    0.0000 O   0  0  0  0  0  0  0  0  0  0  0  0
    0.7500    6.4952    0.0000 C   0  0  0  0  0  0  0  0  0  0  0  0
    1.5000    5.1962    0.0000 C   0  0  0  0  0  0  0  0  0  0  0  0
    3.0000    5.1962    0.0000 C   0  0  0  0  0  0  0  0  0  0  0  0
    3.7500    6.4952    0.0000 C   0  0  0  0  0  0  0  0  0  0  0  0
    5.2500    6.4952    0.0000 C   0  0  0  0  0  0  0  0  0  0  0  0
    3.0000    7.7942    0.0000 C   0  0  0  0  0  0  0  0  0  0  0  0
    1.5000    7.7942    0.0000 C   0  0  0  0  0  0  0  0  0  0  0  0
   -3.7500    6.4952    0.0000 C   0  0  0  0  0  0  0  0  0  0  0  0
   -3.0000    7.7942    0.0000 C   0  0  0  0  0  0  0  0  0  0  0  0
   -5.2500    6.4952    0.0000 C   0  0  0  0  0  0  0  0  0  0  0  0
   -0.7500    1.2990    0.0000 C   0  0  0  0  0  0  0  0  0  0  0  0
    0.7500    1.2990    0.0000 C   0  0  0  0  0  0  0  0  0  0  0  0
    1.5000    2.5981    0.0000 O   0  0  0  0  0  0  0  0  0  0  0  0
    3.0000    2.5981    0.0000 C   0  0  0  0  0  0  0  0  0  0  0  0
  1  2  1  0
  2  3  1  0
  3  4  1  0
  4  5  1  0
  5  6  1  0
  6  7  2  0
  7  8  1  0
  7  9  1  0
  9 10  2  0
 10 11  1  0
 11 12  2  0
 12 13  1  0
 13 14  1  0
 14 15  2  0
 14 16  1  0
 16 17  1  6
 17 18  1  0
 18 19  2  0
 18 20  1  0
 20 21  2  0
 21 22  1  0
 22 23  2  0
 23 24  1  0
 23 25  1  0
 25 26  2  0
 16 27  1  0
 27 28  1  0
 27 29  1  0
 10 30  1  0
 30 31  2  0
 31 32  1  0
 32 33  1  0
 31  6  1  0
 26 20  1  0
M  END
>  <Compound_ID>  (1095) 
C30962063

>  <Active>  (1095) 
0.0

>  <Smiles>  (1095) 
CCCCOc1c(Br)cc(/C=N\NC(=O)[C@@H](NC(=O)c2ccc(C)cc2)C(C)C)cc1OC

>  <canonical_smi>  (1095) 
CCCCOc1c(Br)cc(/C=N\NC(=O)[C@@H](NC(=O)c2ccc(C)cc2)C(C)C)cc1OC

>  <Set>  (1095) 
G2 inactive

>  <Set_type>  (1095) 
Test

>  <MW>  (1095) 
518.45

>  <HBD>  (1095) 
2

>  <HBA>  (1095) 
4

>  <NRB>  (1095) 
11

>  <NR>  (1095) 
2

>  <NAR>  (1095) 
2

>  <PSA>  (1095) 
89.02

>  <Standard Type>  (1095) 
nan

>  <Standard Relation>  (1095) 
nan

>  <Standard Units>  (1095) 
nan

>  <Standard Value>  (1095) 
nan

>  <Assay ChEMBL ID>  (1095) 
nan

>  <Assay Description>  (1095) 
nan

>  <BAO Label>  (1095) 
nan

$$$$

     RDKit          2D

 26 28  0  0  0  0  0  0  0  0999 V2000
   -0.0967    5.1517    0.0000 C   0  0  0  0  0  0  0  0  0  0  0  0
   -0.4086    3.6844    0.0000 C   0  0  0  0  0  0  0  0  0  0  0  0
    0.7062    2.6807    0.0000 N   0  0  0  0  0  0  0  0  0  0  0  0
    0.3943    1.2135    0.0000 C   0  0  0  0  0  0  0  0  0  0  0  0
    1.2760    0.0000    0.0000 N   0  0  0  0  0  0  0  0  0  0  0  0
    0.3943   -1.2135    0.0000 C   0  0  0  0  0  0  0  0  0  0  0  0
    0.8578   -2.6401    0.0000 N   0  0  0  0  0  0  0  0  0  0  0  0
   -1.0323   -0.7500    0.0000 N   0  0  0  0  0  0  0  0  0  0  0  0
   -1.0323    0.7500    0.0000 N   0  0  0  0  0  0  0  0  0  0  0  0
   -2.1470    1.7537    0.0000 C   0  0  0  0  0  0  0  0  0  0  0  0
   -3.5736    1.2902    0.0000 C   0  0  0  0  0  0  0  0  0  0  0  0
   -1.8351    3.2209    0.0000 C   0  0  0  0  0  0  0  0  0  0  0  0
   -2.9499    4.2246    0.0000 C   0  0  0  0  0  0  0  0  0  0  0  0
   -2.6380    5.6918    0.0000 C   0  0  0  0  0  0  0  0  0  0  0  0
   -3.7527    6.6955    0.0000 C   0  0  0  0  0  0  0  0  0  0  0  0
   -5.1793    6.2320    0.0000 O   0  0  0  0  0  0  0  0  0  0  0  0
   -3.4408    8.1628    0.0000 N   0  0  0  0  0  0  0  0  0  0  0  0
   -4.5556    9.1664    0.0000 C   0  0  0  0  0  0  0  0  0  0  0  0
   -4.2437   10.6337    0.0000 C   0  0  0  0  0  0  0  0  0  0  0  0
   -5.9821    8.7029    0.0000 C   0  0  0  0  0  0  0  0  0  0  0  0
   -6.2940    7.2357    0.0000 C   0  0  0  0  0  0  0  0  0  0  0  0
   -7.7206    6.7722    0.0000 C   0  0  0  0  0  0  0  0  0  0  0  0
   -8.8353    7.7759    0.0000 C   0  0  0  0  0  0  0  0  0  0  0  0
   -8.5234    9.2431    0.0000 C   0  0  0  0  0  0  0  0  0  0  0  0
   -7.0969    9.7066    0.0000 C   0  0  0  0  0  0  0  0  0  0  0  0
   -6.7850   11.1738    0.0000 Br  0  0  0  0  0  0  0  0  0  0  0  0
  1  2  1  0
  2  3  2  0
  3  4  1  0
  4  5  2  0
  5  6  1  0
  6  7  1  0
  6  8  2  0
  8  9  1  0
  9 10  1  0
 10 11  1  0
 10 12  2  0
 12 13  1  0
 13 14  1  0
 14 15  1  0
 15 16  2  0
 15 17  1  0
 17 18  1  0
 18 19  1  6
 18 20  1  0
 20 21  2  0
 21 22  1  0
 22 23  2  0
 23 24  1  0
 24 25  2  0
 25 26  1  0
 12  2  1  0
 25 20  1  0
  9  4  1  0
M  END
>  <Compound_ID>  (1096) 
C12942570

>  <Active>  (1096) 
0.0

>  <Smiles>  (1096) 
Cc1nc2nc(N)nn2c(C)c1CCC(=O)N[C@@H](C)c1ccccc1Br

>  <canonical_smi>  (1096) 
Cc1nc2nc(N)nn2c(C)c1CCC(=O)N[C@@H](C)c1ccccc1Br

>  <Set>  (1096) 
G2 inactive

>  <Set_type>  (1096) 
Test

>  <MW>  (1096) 
417.31

>  <HBD>  (1096) 
2

>  <HBA>  (1096) 
5

>  <NRB>  (1096) 
5

>  <NR>  (1096) 
3

>  <NAR>  (1096) 
3

>  <PSA>  (1096) 
98.2

>  <Standard Type>  (1096) 
nan

>  <Standard Relation>  (1096) 
nan

>  <Standard Units>  (1096) 
nan

>  <Standard Value>  (1096) 
nan

>  <Assay ChEMBL ID>  (1096) 
nan

>  <Assay Description>  (1096) 
nan

>  <BAO Label>  (1096) 
nan

$$$$

     RDKit          2D

 32 34  0  0  0  0  0  0  0  0999 V2000
    4.5000    0.0000    0.0000 N   0  0  0  0  0  0  0  0  0  0  0  0
    3.0000    0.0000    0.0000 C   0  0  0  0  0  0  0  0  0  0  0  0
    1.5000    0.0000    0.0000 C   0  0  0  0  0  0  0  0  0  0  0  0
    0.7500   -1.2990    0.0000 C   0  0  0  0  0  0  0  0  0  0  0  0
   -0.7500   -1.2990    0.0000 C   0  0  0  0  0  0  0  0  0  0  0  0
   -1.5000    0.0000    0.0000 C   0  0  0  0  0  0  0  0  0  0  0  0
   -3.0000    0.0000    0.0000 Cl  0  0  0  0  0  0  0  0  0  0  0  0
   -0.7500    1.2990    0.0000 C   0  0  0  0  0  0  0  0  0  0  0  0
    0.7500    1.2990    0.0000 C   0  0  0  0  0  0  0  0  0  0  0  0
    1.5000    2.5981    0.0000 N   0  0  0  0  0  0  0  0  0  0  0  0
    0.7500    3.8971    0.0000 C   0  0  0  0  0  0  0  0  0  0  0  0
   -0.7500    3.8971    0.0000 O   0  0  0  0  0  0  0  0  0  0  0  0
    1.5000    5.1962    0.0000 C   0  0  0  0  0  0  0  0  0  0  0  0
    0.7500    6.4952    0.0000 O   0  0  0  0  0  0  0  0  0  0  0  0
    1.5000    7.7942    0.0000 C   0  0  0  0  0  0  0  0  0  0  0  0
    3.0000    7.7942    0.0000 O   0  0  0  0  0  0  0  0  0  0  0  0
    0.7500    9.0933    0.0000 C   0  0  0  0  0  0  0  0  0  0  0  0
    1.5000   10.3923    0.0000 C   0  0  0  0  0  0  0  0  0  0  0  0
    0.7500   11.6913    0.0000 C   0  0  0  0  0  0  0  0  0  0  0  0
   -0.7500   11.6913    0.0000 N   0  0  0  0  0  0  0  0  0  0  0  0
   -1.5000   12.9904    0.0000 C   0  0  0  0  0  0  0  0  0  0  0  0
   -0.7500   14.2894    0.0000 C   0  0  0  0  0  0  0  0  0  0  0  0
   -1.5000   15.5885    0.0000 C   0  0  0  0  0  0  0  0  0  0  0  0
   -3.0000   15.5885    0.0000 C   0  0  0  0  0  0  0  0  0  0  0  0
   -3.7500   16.8875    0.0000 C   0  0  0  0  0  0  0  0  0  0  0  0
   -4.5000   18.1865    0.0000 F   0  0  0  0  0  0  0  0  0  0  0  0
   -2.4510   17.6375    0.0000 F   0  0  0  0  0  0  0  0  0  0  0  0
   -5.0490   16.1375    0.0000 F   0  0  0  0  0  0  0  0  0  0  0  0
   -3.7500   14.2894    0.0000 C   0  0  0  0  0  0  0  0  0  0  0  0
   -3.0000   12.9904    0.0000 N   0  0  0  0  0  4  0  0  0  0  0  0
   -1.5000   10.3923    0.0000 C   0  0  0  0  0  0  0  0  0  0  0  0
   -0.7500    9.0933    0.0000 C   0  0  0  0  0  0  0  0  0  0  0  0
  1  2  3  0
  2  3  1  0
  3  4  2  0
  4  5  1  0
  5  6  2  0
  6  7  1  0
  6  8  1  0
  8  9  2  0
  9 10  1  0
 10 11  1  0
 11 12  2  0
 11 13  1  0
 13 14  1  0
 14 15  1  0
 15 16  2  0
 15 17  1  0
 17 18  1  0
 18 19  1  0
 19 20  1  0
 20 21  1  0
 21 22  2  0
 22 23  1  0
 23 24  2  0
 24 25  1  0
 25 26  1  0
 25 27  1  0
 25 28  1  0
 24 29  1  0
 29 30  2  0
 20 31  1  0
 31 32  1  0
  9  3  1  0
 32 17  1  0
 30 21  1  0
M  CHG  1  30   1
M  END
>  <Compound_ID>  (1097) 
C09963343

>  <Active>  (1097) 
0.0

>  <Smiles>  (1097) 
N#Cc1ccc(Cl)cc1NC(=O)COC(=O)C1CCN(c2ccc(C(F)(F)F)c[nH+]2)CC1

>  <canonical_smi>  (1097) 
N#Cc1ccc(Cl)cc1NC(=O)COC(=O)C1CCN(c2ccc(C(F)(F)F)c[nH+]2)CC1

>  <Set>  (1097) 
G2 inactive

>  <Set_type>  (1097) 
Test

>  <MW>  (1097) 
467.86

>  <HBD>  (1097) 
1

>  <HBA>  (1097) 
5

>  <NRB>  (1097) 
5

>  <NR>  (1097) 
3

>  <NAR>  (1097) 
2

>  <PSA>  (1097) 
96.57

>  <Standard Type>  (1097) 
nan

>  <Standard Relation>  (1097) 
nan

>  <Standard Units>  (1097) 
nan

>  <Standard Value>  (1097) 
nan

>  <Assay ChEMBL ID>  (1097) 
nan

>  <Assay Description>  (1097) 
nan

>  <BAO Label>  (1097) 
nan

$$$$

     RDKit          2D

 27 31  0  0  0  0  0  0  0  0999 V2000
    5.4933   -4.1162    0.0000 C   0  0  0  0  0  0  0  0  0  0  0  0
    4.3786   -5.1199    0.0000 C   0  0  0  0  0  0  0  0  0  0  0  0
    2.9520   -4.6564    0.0000 C   0  0  0  0  0  0  0  0  0  0  0  0
    2.6401   -3.1891    0.0000 C   0  0  0  0  0  0  0  0  0  0  0  0
    1.2135   -2.7256    0.0000 N   0  0  0  0  0  0  0  0  0  0  0  0
   -0.0000   -3.6073    0.0000 N   0  0  0  0  0  0  0  0  0  0  0  0
   -1.2135   -2.7256    0.0000 C   0  0  0  0  0  0  0  0  0  0  0  0
   -0.7500   -1.2990    0.0000 C   0  0  0  0  0  0  0  0  0  0  0  0
    0.7500   -1.2990    0.0000 C   0  0  0  0  0  0  0  0  0  0  0  0
    1.5000    0.0000    0.0000 C   0  0  0  0  0  0  0  0  0  0  0  0
    0.7500    1.2990    0.0000 C   0  0  0  0  0  0  0  0  0  0  0  0
   -0.7500    1.2990    0.0000 C   0  0  0  0  0  0  0  0  0  0  0  0
   -1.5000    0.0000    0.0000 C   0  0  0  0  0  0  0  0  0  0  0  0
   -3.0000    0.0000    0.0000 N   0  0  0  0  0  4  0  0  0  0  0  0
   -3.7500    1.2990    0.0000 C   0  0  0  0  0  0  0  0  0  0  0  0
   -5.2500    1.2990    0.0000 C   0  0  0  0  0  0  0  0  0  0  0  0
   -6.1317    0.0855    0.0000 C   0  0  0  0  0  0  0  0  0  0  0  0
   -7.5583    0.5490    0.0000 C   0  0  0  0  0  0  0  0  0  0  0  0
   -7.5583    2.0490    0.0000 C   0  0  0  0  0  0  0  0  0  0  0  0
   -6.1317    2.5126    0.0000 N   0  0  0  0  0  0  0  0  0  0  0  0
   -5.6682    3.9391    0.0000 C   0  0  0  0  0  0  0  0  0  0  0  0
   -6.5498    5.1527    0.0000 N   0  0  0  0  0  0  0  0  0  0  0  0
   -5.6682    6.3662    0.0000 C   0  0  0  0  0  0  0  0  0  0  0  0
   -4.2416    5.9027    0.0000 C   0  0  0  0  0  0  0  0  0  0  0  0
   -4.2416    4.4027    0.0000 S   0  0  0  0  0  0  0  0  0  0  0  0
    3.7548   -2.1855    0.0000 N   0  0  0  0  0  0  0  0  0  0  0  0
    5.1814   -2.6490    0.0000 C   0  0  0  0  0  0  0  0  0  0  0  0
  1  2  2  0
  2  3  1  0
  3  4  2  0
  4  5  1  0
  5  6  1  0
  6  7  2  0
  7  8  1  0
  8  9  2  0
  9 10  1  0
 10 11  1  0
 11 12  1  0
 12 13  1  0
 13 14  1  6
 14 15  1  0
 15 16  1  0
 16 17  2  0
 17 18  1  0
 18 19  2  0
 19 20  1  0
 20 21  1  0
 21 22  2  0
 22 23  1  0
 23 24  2  0
 24 25  1  0
  4 26  1  0
 26 27  2  0
 27  1  1  0
  9  5  1  0
 20 16  1  0
 25 21  1  0
 13  8  1  0
M  CHG  1  14   1
M  END
>  <Compound_ID>  (1098) 
C12320347

>  <Active>  (1098) 
0.0

>  <Smiles>  (1098) 
c1ccc(-n2ncc3c2CCC[C@H]3[NH2+]Cc2cccn2-c2nccs2)nc1

>  <canonical_smi>  (1098) 
c1ccc(-n2ncc3c2CCC[C@H]3[NH2+]Cc2cccn2-c2nccs2)nc1

>  <Set>  (1098) 
G2 inactive

>  <Set_type>  (1098) 
Test

>  <MW>  (1098) 
377.5

>  <HBD>  (1098) 
1

>  <HBA>  (1098) 
3

>  <NRB>  (1098) 
5

>  <NR>  (1098) 
5

>  <NAR>  (1098) 
4

>  <PSA>  (1098) 
65.14

>  <Standard Type>  (1098) 
nan

>  <Standard Relation>  (1098) 
nan

>  <Standard Units>  (1098) 
nan

>  <Standard Value>  (1098) 
nan

>  <Assay ChEMBL ID>  (1098) 
nan

>  <Assay Description>  (1098) 
nan

>  <BAO Label>  (1098) 
nan

$$$$

     RDKit          2D

 17 19  0  0  0  0  0  0  0  0999 V2000
   -0.5402   -6.1486    0.0000 O   0  0  0  0  0  1  0  0  0  0  0  0
   -1.0037   -4.7220    0.0000 C   0  0  0  0  0  0  0  0  0  0  0  0
   -0.0000   -3.6073    0.0000 C   0  0  0  0  0  0  0  0  0  0  0  0
    1.0037   -4.7220    0.0000 N   0  0  0  0  0  4  0  0  0  0  0  0
    0.5402   -6.1486    0.0000 C   0  0  0  0  0  0  0  0  0  0  0  0
    1.5439   -7.2633    0.0000 C   0  0  0  0  0  0  0  0  0  0  0  0
    3.0111   -6.9515    0.0000 N   0  0  0  0  0  0  0  0  0  0  0  0
    3.4746   -5.5249    0.0000 C   0  0  0  0  0  0  0  0  0  0  0  0
    2.4709   -4.4102    0.0000 C   0  0  0  0  0  0  0  0  0  0  0  0
    1.2135   -2.7256    0.0000 C   0  0  0  0  0  0  0  0  0  0  0  0
    0.7500   -1.2990    0.0000 C   0  0  0  0  0  0  0  0  0  0  0  0
    1.5000    0.0000    0.0000 C   0  0  0  0  0  0  0  0  0  0  0  0
    0.7500    1.2990    0.0000 C   0  0  0  0  0  0  0  0  0  0  0  0
   -0.7500    1.2990    0.0000 C   0  0  0  0  0  0  0  0  0  0  0  0
   -1.5000    0.0000    0.0000 C   0  0  0  0  0  0  0  0  0  0  0  0
   -0.7500   -1.2990    0.0000 C   0  0  0  0  0  0  0  0  0  0  0  0
   -1.2135   -2.7256    0.0000 C   0  0  0  0  0  0  0  0  0  0  0  0
  1  2  1  0
  2  3  1  0
  3  4  1  0
  4  5  1  0
  5  6  1  0
  6  7  1  0
  7  8  1  0
  8  9  1  0
  3 10  1  0
 10 11  1  0
 11 12  2  0
 12 13  1  0
 13 14  2  0
 14 15  1  0
 15 16  2  0
 16 17  1  0
 17  3  1  0
  9  4  1  0
 16 11  1  0
M  CHG  2   1  -1   4   1
M  END
>  <Compound_ID>  (1099) 
C38120924

>  <Active>  (1099) 
0.0

>  <Smiles>  (1099) 
[O-]CC1([NH+]2CCNCC2)Cc2ccccc2C1

>  <canonical_smi>  (1099) 
[O-]CC1([NH+]2CCNCC2)Cc2ccccc2C1

>  <Set>  (1099) 
G2 inactive

>  <Set_type>  (1099) 
Test

>  <MW>  (1099) 
232.33

>  <HBD>  (1099) 
2

>  <HBA>  (1099) 
2

>  <NRB>  (1099) 
2

>  <NR>  (1099) 
3

>  <NAR>  (1099) 
1

>  <PSA>  (1099) 
39.53

>  <Standard Type>  (1099) 
nan

>  <Standard Relation>  (1099) 
nan

>  <Standard Units>  (1099) 
nan

>  <Standard Value>  (1099) 
nan

>  <Assay ChEMBL ID>  (1099) 
nan

>  <Assay Description>  (1099) 
nan

>  <BAO Label>  (1099) 
nan

$$$$

     RDKit          2D

 16 18  0  0  0  0  0  0  0  0999 V2000
    1.6852   -5.3966    0.0000 O   0  0  0  0  0  0  0  0  0  0  0  0
    1.3515   -3.9342    0.0000 C   0  0  0  0  0  0  0  0  0  0  0  0
    2.8515   -3.9342    0.0000 O   0  0  0  0  0  0  0  0  0  0  0  0
   -0.0000   -4.5850    0.0000 C   0  0  0  0  0  0  0  0  0  0  0  0
   -1.3515   -3.9342    0.0000 C   0  0  0  0  0  0  0  0  0  0  0  0
   -1.6852   -2.4718    0.0000 C   0  0  0  0  0  0  0  0  0  0  0  0
   -0.8878   -2.1408    0.0000 C   0  0  0  0  0  0  0  0  0  0  0  0
   -0.0000   -1.7586    0.0000 C   0  0  0  0  0  0  0  0  0  0  0  0
    0.8878   -2.1408    0.0000 C   0  0  0  0  0  0  0  0  0  0  0  0
    1.6852   -2.4718    0.0000 N   0  0  0  0  0  0  0  0  0  0  0  0
    0.7500   -1.2990    0.0000 C   0  0  0  0  0  0  0  0  0  0  0  0
    1.5000    0.0000    0.0000 C   0  0  0  0  0  0  0  0  0  0  0  0
    0.7500    1.2990    0.0000 C   0  0  0  0  0  0  0  0  0  0  0  0
   -0.7500    1.2990    0.0000 C   0  0  0  0  0  0  0  0  0  0  0  0
   -1.5000    0.0000    0.0000 C   0  0  0  0  0  0  0  0  0  0  0  0
   -0.7500   -1.2990    0.0000 C   0  0  0  0  0  0  0  0  0  0  0  0
  1  2  1  0
  2  3  1  0
  2  4  1  0
  4  5  1  0
  6  5  1  6
  6  7  1  0
  7  8  1  0
  8  9  1  0
  9 10  1  0
 10 11  1  0
 11 12  2  0
 12 13  1  0
 13 14  2  0
 14 15  1  0
 15 16  2  0
 10  2  1  0
 16 11  1  0
 16  6  1  0
M  END
>  <Compound_ID>  (1100) 
C39098115

>  <Active>  (1100) 
0.0

>  <Smiles>  (1100) 
OC1(O)CC[C@H]2CCCN1c1ccccc12

>  <canonical_smi>  (1100) 
OC1(O)CC[C@H]2CCCN1c1ccccc12

>  <Set>  (1100) 
G2 inactive

>  <Set_type>  (1100) 
Test

>  <MW>  (1100) 
219.28

>  <HBD>  (1100) 
2

>  <HBA>  (1100) 
3

>  <NRB>  (1100) 
0

>  <NR>  (1100) 
3

>  <NAR>  (1100) 
1

>  <PSA>  (1100) 
43.7

>  <Standard Type>  (1100) 
nan

>  <Standard Relation>  (1100) 
nan

>  <Standard Units>  (1100) 
nan

>  <Standard Value>  (1100) 
nan

>  <Assay ChEMBL ID>  (1100) 
nan

>  <Assay Description>  (1100) 
nan

>  <BAO Label>  (1100) 
nan

$$$$

     RDKit          2D

 19 21  0  0  0  0  0  0  0  0999 V2000
   -4.3764    3.7611    0.0000 O   0  0  0  0  0  0  0  0  0  0  0  0
   -2.9499    4.2246    0.0000 C   0  0  0  0  0  0  0  0  0  0  0  0
   -2.6380    5.6918    0.0000 O   0  0  0  0  0  1  0  0  0  0  0  0
   -1.8351    3.2209    0.0000 C   0  0  0  0  0  0  0  0  0  0  0  0
   -0.4086    3.6844    0.0000 C   0  0  0  0  0  0  0  0  0  0  0  0
    0.7062    2.6807    0.0000 N   0  0  0  0  0  0  0  0  0  0  0  0
    0.3943    1.2135    0.0000 C   0  0  0  0  0  0  0  0  0  0  0  0
    1.2760    0.0000    0.0000 S   0  0  0  0  0  0  0  0  0  0  0  0
    0.3943   -1.2135    0.0000 C   0  0  0  0  0  0  0  0  0  0  0  0
   -1.0323   -0.7500    0.0000 C   0  0  0  0  0  0  0  0  0  0  0  0
   -1.0323    0.7500    0.0000 C   0  0  0  0  0  0  0  0  0  0  0  0
   -2.1470    1.7537    0.0000 C   0  0  0  0  0  0  0  0  0  0  0  0
   -3.5736    1.2902    0.0000 N   0  0  0  0  0  4  0  0  0  0  0  0
   -3.8855   -0.1771    0.0000 C   0  0  0  0  0  0  0  0  0  0  0  0
   -5.3120   -0.6406    0.0000 C   0  0  0  0  0  0  0  0  0  0  0  0
   -5.6239   -2.1078    0.0000 C   0  0  0  0  0  0  0  0  0  0  0  0
   -4.5092   -3.1115    0.0000 C   0  0  0  0  0  0  0  0  0  0  0  0
   -3.0826   -2.6480    0.0000 C   0  0  0  0  0  0  0  0  0  0  0  0
   -2.7707   -1.1807    0.0000 C   0  0  0  0  0  0  0  0  0  0  0  0
  1  2  2  0
  2  3  1  0
  2  4  1  0
  4  5  2  0
  5  6  1  0
  6  7  1  0
  7  8  1  0
  8  9  1  0
  9 10  2  0
 10 11  1  0
 11 12  1  0
 12 13  2  0
 13 14  1  0
 14 15  2  0
 15 16  1  0
 16 17  2  0
 17 18  1  0
 18 19  2  0
 12  4  1  0
 19 14  1  0
 11  7  2  0
M  CHG  2   3  -1  13   1
M  END
>  <Compound_ID>  (1101) 
C40835820

>  <Active>  (1101) 
0.0

>  <Smiles>  (1101) 
O=C([O-])c1c[nH]c2sccc2/c1=[NH+]\c1ccccc1

>  <canonical_smi>  (1101) 
O=C([O-])c1c[nH]c2sccc2/c1=[NH+]\c1ccccc1

>  <Set>  (1101) 
G2 inactive

>  <Set_type>  (1101) 
Test

>  <MW>  (1101) 
270.31

>  <HBD>  (1101) 
2

>  <HBA>  (1101) 
2

>  <NRB>  (1101) 
2

>  <NR>  (1101) 
3

>  <NAR>  (1101) 
3

>  <PSA>  (1101) 
69.89

>  <Standard Type>  (1101) 
nan

>  <Standard Relation>  (1101) 
nan

>  <Standard Units>  (1101) 
nan

>  <Standard Value>  (1101) 
nan

>  <Assay ChEMBL ID>  (1101) 
nan

>  <Assay Description>  (1101) 
nan

>  <BAO Label>  (1101) 
nan

$$$$

     RDKit          2D

 12 12  0  0  0  0  0  0  0  0999 V2000
    3.0000    0.0000    0.0000 C   0  0  0  0  0  0  0  0  0  0  0  0
    1.5000    0.0000    0.0000 C   0  0  0  0  0  0  0  0  0  0  0  0
    0.7500   -1.2990    0.0000 C   0  0  0  0  0  0  0  0  0  0  0  0
   -0.7500   -1.2990    0.0000 C   0  0  0  0  0  0  0  0  0  0  0  0
   -1.5000    0.0000    0.0000 C   0  0  0  0  0  0  0  0  0  0  0  0
   -0.7500    1.2990    0.0000 C   0  0  0  0  0  0  0  0  0  0  0  0
   -2.1595    1.8121    0.0000 C   0  0  0  0  0  0  0  0  0  0  0  0
   -2.4200    3.2893    0.0000 O   0  0  0  0  0  0  0  0  0  0  0  0
   -0.4895    2.7762    0.0000 N   0  0  0  0  0  0  0  0  0  0  0  0
    0.9200    3.2893    0.0000 C   0  0  0  0  0  0  0  0  0  0  0  0
    2.3296    3.8023    0.0000 N   0  0  0  0  0  0  0  0  0  0  0  0
    0.7500    1.2990    0.0000 C   0  0  0  0  0  0  0  0  0  0  0  0
  2  1  1  6
  2  3  1  0
  3  4  1  0
  4  5  1  0
  5  6  1  0
  6  7  1  1
  7  8  1  0
  6  9  1  0
  9 10  1  0
 10 11  3  0
  6 12  1  0
 12  2  1  0
M  END
>  <Compound_ID>  (1102) 
C53125617

>  <Active>  (1102) 
0.0

>  <Smiles>  (1102) 
C[C@@H]1CCC[C@](CO)(NC#N)C1

>  <canonical_smi>  (1102) 
C[C@@H]1CCC[C@](CO)(NC#N)C1

>  <Set>  (1102) 
G2 inactive

>  <Set_type>  (1102) 
Test

>  <MW>  (1102) 
168.24

>  <HBD>  (1102) 
2

>  <HBA>  (1102) 
3

>  <NRB>  (1102) 
2

>  <NR>  (1102) 
1

>  <NAR>  (1102) 
0

>  <PSA>  (1102) 
56.05

>  <Standard Type>  (1102) 
nan

>  <Standard Relation>  (1102) 
nan

>  <Standard Units>  (1102) 
nan

>  <Standard Value>  (1102) 
nan

>  <Assay ChEMBL ID>  (1102) 
nan

>  <Assay Description>  (1102) 
nan

>  <BAO Label>  (1102) 
nan

$$$$

     RDKit          2D

 18 20  0  0  0  0  0  0  0  0999 V2000
    2.1328    3.1443    0.0000 N   0  0  0  0  0  0  0  0  0  0  0  0
    0.7062    2.6807    0.0000 C   0  0  0  0  0  0  0  0  0  0  0  0
   -0.4086    3.6844    0.0000 N   0  0  0  0  0  0  0  0  0  0  0  0
   -1.8351    3.2209    0.0000 C   0  0  0  0  0  0  0  0  0  0  0  0
   -2.9499    4.2246    0.0000 C   0  0  0  0  0  0  0  0  0  0  0  0
   -2.6380    5.6918    0.0000 C   0  0  0  0  0  0  0  0  0  0  0  0
   -3.7527    6.6955    0.0000 C   0  0  0  0  0  0  0  0  0  0  0  0
   -5.1793    6.2320    0.0000 C   0  0  0  0  0  0  0  0  0  0  0  0
   -5.4912    4.7648    0.0000 C   0  0  0  0  0  0  0  0  0  0  0  0
   -6.9177    4.3013    0.0000 Cl  0  0  0  0  0  0  0  0  0  0  0  0
   -4.3764    3.7611    0.0000 C   0  0  0  0  0  0  0  0  0  0  0  0
   -4.6883    2.2939    0.0000 Cl  0  0  0  0  0  0  0  0  0  0  0  0
   -2.1470    1.7537    0.0000 N   0  0  0  0  0  0  0  0  0  0  0  0
   -1.0323    0.7500    0.0000 C   0  0  0  0  0  0  0  0  0  0  0  0
    0.3943    1.2135    0.0000 C   0  0  0  0  0  0  0  0  0  0  0  0
    1.2760    0.0000    0.0000 C   0  0  0  0  0  0  0  0  0  0  0  0
    0.3943   -1.2135    0.0000 C   0  0  0  0  0  0  0  0  0  0  0  0
   -1.0323   -0.7500    0.0000 C   0  0  0  0  0  0  0  0  0  0  0  0
  1  2  1  0
  2  3  2  0
  3  4  1  0
  4  5  1  0
  5  6  2  0
  6  7  1  0
  7  8  2  0
  8  9  1  0
  9 10  1  0
  9 11  2  0
 11 12  1  0
  4 13  2  0
 13 14  1  0
 14 15  2  0
 15 16  1  0
 16 17  1  0
 17 18  1  0
 15  2  1  0
 11  5  1  0
 18 14  1  0
M  END
>  <Compound_ID>  (1103) 
C50866128

>  <Active>  (1103) 
0.0

>  <Smiles>  (1103) 
Nc1nc(-c2cccc(Cl)c2Cl)nc2c1CCC2

>  <canonical_smi>  (1103) 
Nc1nc(-c2cccc(Cl)c2Cl)nc2c1CCC2

>  <Set>  (1103) 
G2 inactive

>  <Set_type>  (1103) 
Test

>  <MW>  (1103) 
280.16

>  <HBD>  (1103) 
1

>  <HBA>  (1103) 
3

>  <NRB>  (1103) 
1

>  <NR>  (1103) 
3

>  <NAR>  (1103) 
2

>  <PSA>  (1103) 
51.8

>  <Standard Type>  (1103) 
nan

>  <Standard Relation>  (1103) 
nan

>  <Standard Units>  (1103) 
nan

>  <Standard Value>  (1103) 
nan

>  <Assay ChEMBL ID>  (1103) 
nan

>  <Assay Description>  (1103) 
nan

>  <BAO Label>  (1103) 
nan

$$$$

     RDKit          2D

 29 32  0  0  0  0  0  0  0  0999 V2000
  -12.5140   -5.4658    0.0000 C   0  0  0  0  0  0  0  0  0  0  0  0
  -11.0874   -5.0022    0.0000 C   0  0  0  0  0  0  0  0  0  0  0  0
   -9.9727   -6.0059    0.0000 O   0  0  0  0  0  0  0  0  0  0  0  0
   -8.5461   -5.5424    0.0000 C   0  0  0  0  0  0  0  0  0  0  0  0
   -8.2343   -4.0752    0.0000 O   0  0  0  0  0  0  0  0  0  0  0  0
   -7.4314   -6.5461    0.0000 C   0  0  0  0  0  0  0  0  0  0  0  0
   -6.0048   -6.0826    0.0000 C   0  0  0  0  0  0  0  0  0  0  0  0
   -4.8901   -7.0863    0.0000 C   0  0  0  0  0  0  0  0  0  0  0  0
   -5.2020   -8.5535    0.0000 C   0  0  0  0  0  0  0  0  0  0  0  0
   -3.4635   -6.6227    0.0000 C   0  0  0  0  0  0  0  0  0  0  0  0
   -2.2500   -7.5044    0.0000 C   0  0  0  0  0  0  0  0  0  0  0  0
   -1.0365   -6.6227    0.0000 C   0  0  0  0  0  0  0  0  0  0  0  0
   -1.5000   -5.1962    0.0000 C   0  0  0  0  0  0  0  0  0  0  0  0
   -0.7500   -3.8971    0.0000 C   0  0  0  0  0  0  0  0  0  0  0  0
    0.7500   -3.8971    0.0000 C   0  0  0  0  0  0  0  0  0  0  0  0
    1.5000   -2.5981    0.0000 C   0  0  0  0  0  0  0  0  0  0  0  0
    0.7500   -1.2990    0.0000 C   0  0  0  0  0  0  0  0  0  0  0  0
    1.5000    0.0000    0.0000 C   0  0  0  0  0  0  0  0  0  0  0  0
    0.7500    1.2990    0.0000 C   0  0  0  0  0  0  0  0  0  0  0  0
    1.5000    2.5981    0.0000 O   0  0  0  0  0  0  0  0  0  0  0  0
   -0.7500    1.2990    0.0000 C   0  0  0  0  0  0  0  0  0  0  0  0
   -1.5000    0.0000    0.0000 C   0  0  0  0  0  0  0  0  0  0  0  0
   -0.7500   -1.2990    0.0000 C   0  0  0  0  0  0  0  0  0  0  0  0
   -2.2500   -1.2990    0.0000 C   0  0  0  0  0  0  0  0  0  0  0  0
   -1.5000   -2.5981    0.0000 C   0  0  0  0  0  0  0  0  0  0  0  0
   -3.0000   -2.5981    0.0000 C   0  0  0  0  0  0  0  0  0  0  0  0
   -3.7500   -3.8971    0.0000 C   0  0  0  0  0  0  0  0  0  0  0  0
   -3.0000   -5.1962    0.0000 C   0  0  0  0  0  0  0  0  0  0  0  0
   -4.4918   -5.3529    0.0000 C   0  0  0  0  0  0  0  0  0  0  0  0
  1  2  1  0
  2  3  1  0
  3  4  1  0
  4  5  2  0
  4  6  1  0
  6  7  1  0
  7  8  1  0
  8  9  1  1
  8 10  1  0
 10 11  1  1
 11 12  1  0
 13 12  1  1
 13 14  1  0
 14 15  1  1
 15 16  1  0
 16 17  1  0
 17 18  2  0
 18 19  1  0
 19 20  1  6
 19 21  1  0
 21 22  1  0
 22 23  1  0
 23 24  1  6
 23 25  1  0
 25 26  1  1
 26 27  1  0
 27 28  1  0
 28 29  1  6
 28 10  1  0
 28 13  1  0
 25 14  1  0
 23 17  1  0
M  END
>  <Compound_ID>  (1104) 
C12654427

>  <Active>  (1104) 
0.0

>  <Smiles>  (1104) 
CCOC(=O)CC[C@H](C)[C@@H]1CC[C@@H]2[C@@H]3CCC4=C[C@@H](O)CC[C@]4(C)[C@@H]3CC[C@@]21C

>  <canonical_smi>  (1104) 
CCOC(=O)CC[C@H](C)[C@@H]1CC[C@@H]2[C@@H]3CCC4=C[C@@H](O)CC[C@]4(C)[C@@H]3CC[C@]12C

>  <Set>  (1104) 
G2 inactive

>  <Set_type>  (1104) 
Test

>  <MW>  (1104) 
402.62

>  <HBD>  (1104) 
1

>  <HBA>  (1104) 
3

>  <NRB>  (1104) 
5

>  <NR>  (1104) 
4

>  <NAR>  (1104) 
0

>  <PSA>  (1104) 
46.53

>  <Standard Type>  (1104) 
nan

>  <Standard Relation>  (1104) 
nan

>  <Standard Units>  (1104) 
nan

>  <Standard Value>  (1104) 
nan

>  <Assay ChEMBL ID>  (1104) 
nan

>  <Assay Description>  (1104) 
nan

>  <BAO Label>  (1104) 
nan

$$$$

     RDKit          2D

 28 29  0  0  0  0  0  0  0  0999 V2000
    7.9336   -1.1492    0.0000 C   0  0  0  0  0  0  0  0  0  0  0  0
    6.4664   -0.8373    0.0000 C   0  0  0  0  0  0  0  0  0  0  0  0
    5.4627   -1.9520    0.0000 C   0  0  0  0  0  0  0  0  0  0  0  0
    3.9955   -1.6402    0.0000 C   0  0  0  0  0  0  0  0  0  0  0  0
    2.9918   -2.7549    0.0000 N   0  0  0  0  0  0  0  0  0  0  0  0
    1.5000   -2.5981    0.0000 C   0  0  0  0  0  0  0  0  0  0  0  0
    0.7500   -1.2990    0.0000 C   0  0  0  0  0  0  0  0  0  0  0  0
    1.5000    0.0000    0.0000 C   0  0  0  0  0  0  0  0  0  0  0  0
    0.7500    1.2990    0.0000 C   0  0  0  0  0  0  0  0  0  0  0  0
    1.5000    2.5981    0.0000 C   0  0  0  0  0  0  0  0  0  0  0  0
    2.7990    1.8481    0.0000 C   0  0  0  0  0  0  0  0  0  0  0  0
    0.2010    3.3481    0.0000 C   0  0  0  0  0  0  0  0  0  0  0  0
    2.2500    3.8971    0.0000 C   0  0  0  0  0  0  0  0  0  0  0  0
   -0.7500    1.2990    0.0000 C   0  0  0  0  0  0  0  0  0  0  0  0
   -1.5000    2.5981    0.0000 O   0  0  0  0  0  0  0  0  0  0  0  0
   -1.5000    0.0000    0.0000 C   0  0  0  0  0  0  0  0  0  0  0  0
   -3.0000    0.0000    0.0000 C   0  0  0  0  0  0  0  0  0  0  0  0
   -3.0000    1.5000    0.0000 C   0  0  0  0  0  0  0  0  0  0  0  0
   -3.0000   -1.5000    0.0000 C   0  0  0  0  0  0  0  0  0  0  0  0
   -4.5000    0.0000    0.0000 C   0  0  0  0  0  0  0  0  0  0  0  0
   -0.7500   -1.2990    0.0000 C   0  0  0  0  0  0  0  0  0  0  0  0
    0.8899   -3.9684    0.0000 C   0  0  0  0  0  0  0  0  0  0  0  0
    2.0046   -4.9721    0.0000 C   0  0  0  0  0  0  0  0  0  0  0  0
    1.8478   -6.4639    0.0000 C   0  0  0  0  0  0  0  0  0  0  0  0
    0.4775   -7.0740    0.0000 N   0  0  0  0  0  0  0  0  0  0  0  0
    3.0613   -7.3456    0.0000 O   0  0  0  0  0  0  0  0  0  0  0  0
    3.3037   -4.2221    0.0000 C   0  0  0  0  0  0  0  0  0  0  0  0
    4.6740   -4.8322    0.0000 C   0  0  0  0  0  0  0  0  0  0  0  0
  1  2  1  0
  2  3  1  0
  3  4  1  0
  4  5  1  0
  5  6  1  0
  6  7  1  0
  7  8  2  0
  8  9  1  0
  9 10  1  0
 10 11  1  0
 10 12  1  0
 10 13  1  0
  9 14  2  0
 14 15  1  0
 14 16  1  0
 16 17  1  0
 17 18  1  0
 17 19  1  0
 17 20  1  0
 16 21  2  0
  6 22  2  0
 22 23  1  0
 23 24  1  0
 24 25  1  0
 24 26  2  0
 23 27  2  0
 27 28  1  0
 27  5  1  0
 21  7  1  0
M  END
>  <Compound_ID>  (1105) 
C43224047

>  <Active>  (1105) 
0.0

>  <Smiles>  (1105) 
CCCCn1c(-c2cc(C(C)(C)C)c(O)c(C(C)(C)C)c2)cc(C(N)=O)c1C

>  <canonical_smi>  (1105) 
CCCCn1c(-c2cc(C(C)(C)C)c(O)c(C(C)(C)C)c2)cc(C(N)=O)c1C

>  <Set>  (1105) 
G2 inactive

>  <Set_type>  (1105) 
Test

>  <MW>  (1105) 
384.56

>  <HBD>  (1105) 
2

>  <HBA>  (1105) 
2

>  <NRB>  (1105) 
5

>  <NR>  (1105) 
2

>  <NAR>  (1105) 
2

>  <PSA>  (1105) 
68.25

>  <Standard Type>  (1105) 
nan

>  <Standard Relation>  (1105) 
nan

>  <Standard Units>  (1105) 
nan

>  <Standard Value>  (1105) 
nan

>  <Assay ChEMBL ID>  (1105) 
nan

>  <Assay Description>  (1105) 
nan

>  <BAO Label>  (1105) 
nan

$$$$

     RDKit          2D

 24 26  0  0  0  0  0  0  0  0999 V2000
   -3.7500    3.8971    0.0000 C   0  0  0  0  0  0  0  0  0  0  0  0
   -3.0000    2.5981    0.0000 C   0  0  0  0  0  0  0  0  0  0  0  0
   -1.5000    2.5981    0.0000 O   0  0  0  0  0  0  0  0  0  0  0  0
   -0.7500    1.2990    0.0000 C   0  0  0  0  0  0  0  0  0  0  0  0
   -1.5000    0.0000    0.0000 C   0  0  0  0  0  0  0  0  0  0  0  0
   -0.7500   -1.2990    0.0000 C   0  0  0  0  0  0  0  0  0  0  0  0
    0.7500   -1.2990    0.0000 C   0  0  0  0  0  0  0  0  0  0  0  0
    1.5000   -0.0000    0.0000 C   0  0  0  0  0  0  0  0  0  0  0  0
    0.7500    1.2990    0.0000 C   0  0  0  0  0  0  0  0  0  0  0  0
    1.5000    2.5981    0.0000 N   0  0  0  0  0  0  0  0  0  0  0  0
    3.0000    2.5981    0.0000 C   0  0  0  0  0  0  0  0  0  0  0  0
    3.8817    3.8116    0.0000 N   0  0  0  0  0  0  0  0  0  0  0  0
    5.3083    3.3481    0.0000 C   0  0  0  0  0  0  0  0  0  0  0  0
    6.5218    4.2298    0.0000 O   0  0  0  0  0  0  0  0  0  0  0  0
    5.3083    1.8481    0.0000 C   0  0  0  0  0  0  0  0  0  0  0  0
    6.5218    0.9664    0.0000 C   0  0  0  0  0  0  0  0  0  0  0  0
    6.3650   -0.5254    0.0000 C   0  0  0  0  0  0  0  0  0  0  0  0
    7.5785   -1.4071    0.0000 C   0  0  0  0  0  0  0  0  0  0  0  0
    7.4217   -2.8988    0.0000 C   0  0  0  0  0  0  0  0  0  0  0  0
    6.0514   -3.5090    0.0000 C   0  0  0  0  0  0  0  0  0  0  0  0
    5.8946   -5.0007    0.0000 Cl  0  0  0  0  0  0  0  0  0  0  0  0
    4.8379   -2.6273    0.0000 C   0  0  0  0  0  0  0  0  0  0  0  0
    4.9947   -1.1355    0.0000 C   0  0  0  0  0  0  0  0  0  0  0  0
    3.8817    1.3846    0.0000 S   0  0  0  0  0  0  0  0  0  0  0  0
  1  2  1  0
  2  3  1  0
  3  4  1  0
  4  5  2  0
  5  6  1  0
  6  7  2  0
  7  8  1  0
  8  9  2  0
  9 10  1  0
 10 11  2  0
 11 12  1  0
 12 13  1  0
 13 14  2  0
 13 15  1  0
 15 16  2  0
 16 17  1  0
 17 18  2  0
 18 19  1  0
 19 20  2  0
 20 21  1  0
 20 22  1  0
 22 23  2  0
 15 24  1  0
  9  4  1  0
 24 11  1  0
 23 17  1  0
M  END
>  <Compound_ID>  (1106) 
C06870630

>  <Active>  (1106) 
0.0

>  <Smiles>  (1106) 
CCOc1ccccc1/N=C1/NC(=O)/C(=C/c2ccc(Cl)cc2)S1

>  <canonical_smi>  (1106) 
CCOc1ccccc1/N=C1/NC(=O)/C(=C/c2ccc(Cl)cc2)S1

>  <Set>  (1106) 
G2 inactive

>  <Set_type>  (1106) 
Test

>  <MW>  (1106) 
358.85

>  <HBD>  (1106) 
1

>  <HBA>  (1106) 
3

>  <NRB>  (1106) 
4

>  <NR>  (1106) 
3

>  <NAR>  (1106) 
2

>  <PSA>  (1106) 
50.69

>  <Standard Type>  (1106) 
nan

>  <Standard Relation>  (1106) 
nan

>  <Standard Units>  (1106) 
nan

>  <Standard Value>  (1106) 
nan

>  <Assay ChEMBL ID>  (1106) 
nan

>  <Assay Description>  (1106) 
nan

>  <BAO Label>  (1106) 
nan

$$$$

     RDKit          2D

 24 26  0  0  0  0  0  0  0  0999 V2000
   -1.0409   -5.7068    0.0000 C   0  0  0  0  0  0  0  0  0  0  0  0
   -0.5773   -4.2803    0.0000 C   0  0  0  0  0  0  0  0  0  0  0  0
    0.8899   -3.9684    0.0000 C   0  0  0  0  0  0  0  0  0  0  0  0
    2.0046   -4.9721    0.0000 C   0  0  0  0  0  0  0  0  0  0  0  0
    3.3037   -4.2221    0.0000 O   0  0  0  0  0  0  0  0  0  0  0  0
    2.9918   -2.7549    0.0000 C   0  0  0  0  0  0  0  0  0  0  0  0
    2.9918   -1.2549    0.0000 C   0  0  0  0  0  0  0  0  0  0  0  0
    4.4836   -2.5981    0.0000 C   0  0  0  0  0  0  0  0  0  0  0  0
    5.3652   -3.8116    0.0000 C   0  0  0  0  0  0  0  0  0  0  0  0
    6.8570   -3.6548    0.0000 C   0  0  0  0  0  0  0  0  0  0  0  0
    7.7387   -4.8683    0.0000 C   0  0  0  0  0  0  0  0  0  0  0  0
    7.4671   -2.2845    0.0000 C   0  0  0  0  0  0  0  0  0  0  0  0
    1.5000   -2.5981    0.0000 N   0  0  0  0  0  0  0  0  0  0  0  0
    0.7500   -1.2990    0.0000 C   0  0  0  0  0  0  0  0  0  0  0  0
    1.5000    0.0000    0.0000 C   0  0  0  0  0  0  0  0  0  0  0  0
    0.7500    1.2990    0.0000 C   0  0  0  0  0  0  0  0  0  0  0  0
   -0.7500    1.2990    0.0000 C   0  0  0  0  0  0  0  0  0  0  0  0
   -1.5000    2.5981    0.0000 C   0  0  0  0  0  0  0  0  0  0  0  0
   -3.0000    2.5981    0.0000 C   0  0  0  0  0  0  0  0  0  0  0  0
   -3.7500    1.2990    0.0000 C   0  0  0  0  0  0  0  0  0  0  0  0
   -3.0000    0.0000    0.0000 C   0  0  0  0  0  0  0  0  0  0  0  0
   -3.7500   -1.2990    0.0000 O   0  0  0  0  0  0  0  0  0  0  0  0
   -1.5000    0.0000    0.0000 C   0  0  0  0  0  0  0  0  0  0  0  0
   -0.7500   -1.2990    0.0000 N   0  0  0  0  0  0  0  0  0  0  0  0
  1  2  1  0
  3  2  1  1
  3  4  1  0
  4  5  1  0
  5  6  1  0
  6  7  1  1
  6  8  1  0
  8  9  1  0
  9 10  1  0
 10 11  1  0
 10 12  1  0
  6 13  1  0
 13 14  1  0
 14 15  2  0
 15 16  1  0
 16 17  2  0
 17 18  1  0
 18 19  2  0
 19 20  1  0
 20 21  2  0
 21 22  1  0
 21 23  1  0
 23 24  2  0
 13  3  1  0
 24 14  1  0
 23 17  1  0
M  END
>  <Compound_ID>  (1107) 
C41669881

>  <Active>  (1107) 
0.0

>  <Smiles>  (1107) 
CC[C@@H]1CO[C@@](C)(CCC(C)C)N1c1ccc2cccc(O)c2n1

>  <canonical_smi>  (1107) 
CC[C@@H]1CO[C@@](C)(CCC(C)C)N1c1ccc2cccc(O)c2n1

>  <Set>  (1107) 
G2 inactive

>  <Set_type>  (1107) 
Test

>  <MW>  (1107) 
328.46

>  <HBD>  (1107) 
1

>  <HBA>  (1107) 
4

>  <NRB>  (1107) 
5

>  <NR>  (1107) 
3

>  <NAR>  (1107) 
2

>  <PSA>  (1107) 
45.59

>  <Standard Type>  (1107) 
nan

>  <Standard Relation>  (1107) 
nan

>  <Standard Units>  (1107) 
nan

>  <Standard Value>  (1107) 
nan

>  <Assay ChEMBL ID>  (1107) 
nan

>  <Assay Description>  (1107) 
nan

>  <BAO Label>  (1107) 
nan

$$$$

     RDKit          2D

 33 37  0  0  0  0  0  0  0  0999 V2000
   -3.7500   -6.4952    0.0000 C   0  0  0  0  0  0  0  0  0  0  0  0
   -3.0000   -5.1962    0.0000 C   0  0  0  0  0  0  0  0  0  0  0  0
   -1.5000   -5.1962    0.0000 C   0  0  0  0  0  0  0  0  0  0  0  0
   -0.7500   -3.8971    0.0000 N   0  0  0  0  0  0  0  0  0  0  0  0
    0.7500   -3.8971    0.0000 C   0  0  0  0  0  0  0  0  0  0  0  0
    1.5000   -5.1962    0.0000 S   0  0  0  0  0  0  0  0  0  0  0  0
    0.7500   -6.4952    0.0000 C   0  0  0  0  0  0  0  0  0  0  0  0
    1.5000   -7.7942    0.0000 C   0  0  0  0  0  0  0  0  0  0  0  0
    3.0000   -7.7942    0.0000 O   0  0  0  0  0  0  0  0  0  0  0  0
    0.7500   -9.0933    0.0000 N   0  0  0  0  0  0  0  0  0  0  0  0
    1.5000  -10.3923    0.0000 C   0  0  0  0  0  0  0  0  0  0  0  0
    3.0000  -10.3923    0.0000 O   0  0  0  0  0  0  0  0  0  0  0  0
    0.7500  -11.6913    0.0000 N   0  0  0  0  0  0  0  0  0  0  0  0
    1.5000  -12.9904    0.0000 C   0  0  0  0  0  0  0  0  0  0  0  0
    0.7500  -14.2894    0.0000 C   0  0  0  0  0  0  0  0  0  0  0  0
    1.5000  -15.5885    0.0000 C   0  0  0  0  0  0  0  0  0  0  0  0
    3.0000  -15.5885    0.0000 C   0  0  0  0  0  0  0  0  0  0  0  0
    3.7500  -14.2894    0.0000 C   0  0  0  0  0  0  0  0  0  0  0  0
    0.5490  -13.5394    0.0000 C   0  0  0  0  0  0  0  0  0  0  0  0
   -0.7500  -14.2894    0.0000 C   0  0  0  0  0  0  0  0  0  0  0  0
    0.0000  -15.5885    0.0000 C   0  0  0  0  0  0  0  0  0  0  0  0
    0.0000  -12.9904    0.0000 C   0  0  0  0  0  0  0  0  0  0  0  0
    3.0000  -12.9904    0.0000 C   0  0  0  0  0  0  0  0  0  0  0  0
    1.5000   -2.5981    0.0000 N   0  0  0  0  0  0  0  0  0  0  0  0
    0.7500   -1.2990    0.0000 C   0  0  0  0  0  0  0  0  0  0  0  0
    1.5000    0.0000    0.0000 C   0  0  0  0  0  0  0  0  0  0  0  0
    0.7500    1.2990    0.0000 C   0  0  0  0  0  0  0  0  0  0  0  0
    1.5000    2.5981    0.0000 Cl  0  0  0  0  0  0  0  0  0  0  0  0
   -0.7500    1.2990    0.0000 C   0  0  0  0  0  0  0  0  0  0  0  0
   -1.5000    0.0000    0.0000 C   0  0  0  0  0  0  0  0  0  0  0  0
   -0.7500   -1.2990    0.0000 C   0  0  0  0  0  0  0  0  0  0  0  0
   -1.5000   -2.5981    0.0000 C   0  0  0  0  0  0  0  0  0  0  0  0
   -3.0000   -2.5981    0.0000 O   0  0  0  0  0  0  0  0  0  0  0  0
  1  2  1  0
  2  3  1  0
  3  4  1  0
  4  5  1  0
  5  6  1  0
  6  7  1  0
  7  8  1  0
  8  9  2  0
  8 10  1  0
 10 11  1  0
 11 12  2  0
 11 13  1  0
 13 14  1  0
 14 15  1  0
 15 16  1  0
 16 17  1  0
 17 18  1  0
 18 19  1  0
 19 20  1  0
 20 21  1  0
 20 22  1  0
 18 23  1  0
  5 24  2  0
 24 25  1  0
 25 26  2  0
 26 27  1  0
 27 28  1  0
 27 29  2  0
 29 30  1  0
 30 31  2  0
 31 32  1  0
 32 33  2  0
 32  4  1  0
 22 14  1  0
 31 25  1  0
 23 14  1  0
 21 16  1  0
M  END
>  <Compound_ID>  (1108) 
C09398730

>  <Active>  (1108) 
0.0

>  <Smiles>  (1108) 
CCCn1c(SCC(=O)NC(=O)NC23CC4CC(CC(C4)C2)C3)nc2cc(Cl)ccc2c1=O

>  <canonical_smi>  (1108) 
CCCn1c(SCC(=O)NC(=O)NC23CC4CC(CC(C4)C2)C3)nc2cc(Cl)ccc2c1=O

>  <Set>  (1108) 
G2 inactive

>  <Set_type>  (1108) 
Test

>  <MW>  (1108) 
489.04

>  <HBD>  (1108) 
2

>  <HBA>  (1108) 
5

>  <NRB>  (1108) 
6

>  <NR>  (1108) 
6

>  <NAR>  (1108) 
2

>  <PSA>  (1108) 
93.09

>  <Standard Type>  (1108) 
nan

>  <Standard Relation>  (1108) 
nan

>  <Standard Units>  (1108) 
nan

>  <Standard Value>  (1108) 
nan

>  <Assay ChEMBL ID>  (1108) 
nan

>  <Assay Description>  (1108) 
nan

>  <BAO Label>  (1108) 
nan

$$$$

     RDKit          2D

 25 28  0  0  0  0  0  0  0  0999 V2000
    6.0000   -5.1962    0.0000 C   0  0  0  0  0  0  0  0  0  0  0  0
    5.2500   -3.8971    0.0000 C   0  0  0  0  0  0  0  0  0  0  0  0
    3.7500   -3.8971    0.0000 C   0  0  0  0  0  0  0  0  0  0  0  0
    3.0000   -2.5981    0.0000 C   0  0  0  0  0  0  0  0  0  0  0  0
    1.5000   -2.5981    0.0000 C   0  0  0  0  0  0  0  0  0  0  0  0
    0.7500   -3.8971    0.0000 N   0  0  0  0  0  0  0  0  0  0  0  0
   -0.7500   -3.8971    0.0000 C   0  0  0  0  0  0  0  0  0  0  0  0
   -1.7537   -5.0118    0.0000 S   0  0  0  0  0  0  0  0  0  0  0  0
   -3.1240   -4.4017    0.0000 C   0  0  0  0  0  0  0  0  0  0  0  0
   -4.4943   -5.0118    0.0000 C   0  0  0  0  0  0  0  0  0  0  0  0
   -4.6511   -6.5036    0.0000 N   0  0  0  0  0  0  0  0  0  0  0  0
   -6.0214   -7.1137    0.0000 N   0  0  0  0  0  0  0  0  0  0  0  0
   -5.7079   -4.1302    0.0000 N   0  0  0  0  0  0  0  0  0  0  0  0
   -5.5511   -2.6384    0.0000 C   0  0  0  0  0  0  0  0  0  0  0  0
   -6.7646   -1.7567    0.0000 S   0  0  0  0  0  0  0  0  0  0  0  0
   -6.6078   -0.2649    0.0000 C   0  0  0  0  0  0  0  0  0  0  0  0
   -4.1807   -2.0283    0.0000 N   0  0  0  0  0  0  0  0  0  0  0  0
   -2.9672   -2.9099    0.0000 C   0  0  0  0  0  0  0  0  0  0  0  0
   -1.5000   -2.5981    0.0000 C   0  0  0  0  0  0  0  0  0  0  0  0
   -0.7500   -1.2990    0.0000 C   0  0  0  0  0  0  0  0  0  0  0  0
    0.7500   -1.2990    0.0000 C   0  0  0  0  0  0  0  0  0  0  0  0
    1.5000    0.0000    0.0000 C   0  0  0  0  0  0  0  0  0  0  0  0
    0.7500    1.2990    0.0000 C   0  0  0  0  0  0  0  0  0  0  0  0
   -0.7500    1.2990    0.0000 C   0  0  0  0  0  0  0  0  0  0  0  0
   -1.5000    0.0000    0.0000 C   0  0  0  0  0  0  0  0  0  0  0  0
  1  2  1  0
  2  3  1  0
  3  4  1  0
  4  5  1  0
  5  6  2  0
  6  7  1  0
  7  8  1  0
  8  9  1  0
  9 10  2  0
 10 11  1  0
 11 12  1  0
 10 13  1  0
 13 14  2  0
 14 15  1  0
 15 16  1  0
 14 17  1  0
 17 18  2  0
 18 19  1  0
 19 20  1  0
 20 21  2  0
 21 22  1  0
 22 23  1  0
 23 24  1  0
 24 25  1  0
 21  5  1  0
 19  7  2  0
 25 20  1  0
 18  9  1  0
M  END
>  <Compound_ID>  (1109) 
C02231536

>  <Active>  (1109) 
0.0

>  <Smiles>  (1109) 
CCCCc1nc2sc3c(NN)nc(SC)nc3c2c2c1CCCC2

>  <canonical_smi>  (1109) 
CCCCc1nc2sc3c(NN)nc(SC)nc3c2c2c1CCCC2

>  <Set>  (1109) 
G2 inactive

>  <Set_type>  (1109) 
Test

>  <MW>  (1109) 
373.55

>  <HBD>  (1109) 
2

>  <HBA>  (1109) 
6

>  <NRB>  (1109) 
5

>  <NR>  (1109) 
4

>  <NAR>  (1109) 
3

>  <PSA>  (1109) 
76.72

>  <Standard Type>  (1109) 
nan

>  <Standard Relation>  (1109) 
nan

>  <Standard Units>  (1109) 
nan

>  <Standard Value>  (1109) 
nan

>  <Assay ChEMBL ID>  (1109) 
nan

>  <Assay Description>  (1109) 
nan

>  <BAO Label>  (1109) 
nan

$$$$

     RDKit          2D

 22 24  0  0  0  0  0  0  0  0999 V2000
   -0.7500   -3.8971    0.0000 O   0  0  0  0  0  0  0  0  0  0  0  0
    0.7500   -3.8971    0.0000 C   0  0  0  0  0  0  0  0  0  0  0  0
    1.5000   -2.5981    0.0000 N   0  0  0  0  0  0  0  0  0  0  0  0
    0.7500   -1.2990    0.0000 C   0  0  0  0  0  0  0  0  0  0  0  0
    1.5000    0.0000    0.0000 C   0  0  0  0  0  0  0  0  0  0  0  0
    0.7500    1.2990    0.0000 N   0  0  0  0  0  0  0  0  0  0  0  0
   -0.7500    1.2990    0.0000 C   0  0  0  0  0  0  0  0  0  0  0  0
   -1.5000    0.0000    0.0000 C   0  0  0  0  0  0  0  0  0  0  0  0
   -0.7500   -1.2990    0.0000 C   0  0  0  0  0  0  0  0  0  0  0  0
   -1.5000   -2.5981    0.0000 O   0  0  0  0  0  0  0  0  0  0  0  0
    1.5000   -5.1962    0.0000 C   0  0  0  0  0  0  0  0  0  0  0  0
    2.9918   -5.3529    0.0000 C   0  0  0  0  0  0  0  0  0  0  0  0
    3.3037   -6.8202    0.0000 S   0  0  0  0  0  0  0  0  0  0  0  0
    2.0046   -7.5702    0.0000 C   0  0  0  0  0  0  0  0  0  0  0  0
    1.8478   -9.0619    0.0000 C   0  0  0  0  0  0  0  0  0  0  0  0
    0.4775   -9.6721    0.0000 C   0  0  0  0  0  0  0  0  0  0  0  0
    0.3207  -11.1638    0.0000 C   0  0  0  0  0  0  0  0  0  0  0  0
    1.5342  -12.0455    0.0000 C   0  0  0  0  0  0  0  0  0  0  0  0
    2.9046  -11.4354    0.0000 C   0  0  0  0  0  0  0  0  0  0  0  0
    3.0613   -9.9436    0.0000 C   0  0  0  0  0  0  0  0  0  0  0  0
    4.4317   -9.3335    0.0000 F   0  0  0  0  0  0  0  0  0  0  0  0
    0.8899   -6.5665    0.0000 N   0  0  0  0  0  0  0  0  0  0  0  0
  1  2  2  0
  2  3  1  0
  3  4  1  0
  4  5  2  0
  5  6  1  0
  6  7  1  0
  7  8  2  0
  8  9  1  0
  9 10  2  0
  2 11  1  0
 11 12  2  0
 12 13  1  0
 13 14  1  0
 14 15  1  0
 15 16  2  0
 16 17  1  0
 17 18  2  0
 18 19  1  0
 19 20  2  0
 20 21  1  0
 14 22  2  0
  9  4  1  0
 22 11  1  0
 20 15  1  0
M  END
>  <Compound_ID>  (1110) 
C63745180

>  <Active>  (1110) 
0.0

>  <Smiles>  (1110) 
O=C(Nc1c[nH]ccc1=O)c1csc(-c2ccccc2F)n1

>  <canonical_smi>  (1110) 
O=C(Nc1c[nH]ccc1=O)c1csc(-c2ccccc2F)n1

>  <Set>  (1110) 
G2 inactive

>  <Set_type>  (1110) 
Test

>  <MW>  (1110) 
315.33

>  <HBD>  (1110) 
2

>  <HBA>  (1110) 
3

>  <NRB>  (1110) 
3

>  <NR>  (1110) 
3

>  <NAR>  (1110) 
3

>  <PSA>  (1110) 
74.85

>  <Standard Type>  (1110) 
nan

>  <Standard Relation>  (1110) 
nan

>  <Standard Units>  (1110) 
nan

>  <Standard Value>  (1110) 
nan

>  <Assay ChEMBL ID>  (1110) 
nan

>  <Assay Description>  (1110) 
nan

>  <BAO Label>  (1110) 
nan

$$$$

     RDKit          2D

 33 37  0  0  0  0  0  0  0  0999 V2000
   -0.0000  -18.0977    0.0000 C   0  0  0  0  0  0  0  0  0  0  0  0
   -0.0000  -16.5977    0.0000 C   0  0  0  0  0  0  0  0  0  0  0  0
    1.2135  -15.7160    0.0000 S   0  0  0  0  0  0  0  0  0  0  0  0
    0.7500  -14.2894    0.0000 C   0  0  0  0  0  0  0  0  0  0  0  0
    1.5000  -12.9904    0.0000 N   0  0  0  0  0  4  0  0  0  0  0  0
    0.7500  -11.6913    0.0000 C   0  0  0  0  0  0  0  0  0  0  0  0
    1.5000  -10.3923    0.0000 N   0  0  0  0  0  0  0  0  0  0  0  0
    0.7500   -9.0933    0.0000 C   0  0  0  0  0  0  0  0  0  0  0  0
   -0.7500   -9.0933    0.0000 O   0  0  0  0  0  0  0  0  0  0  0  0
    1.5000   -7.7942    0.0000 C   0  0  0  0  0  0  0  0  0  0  0  0
    0.7500   -6.4952    0.0000 C   0  0  0  0  0  0  0  0  0  0  0  0
    1.5000   -5.1962    0.0000 C   0  0  0  0  0  0  0  0  0  0  0  0
    0.7500   -3.8971    0.0000 N   0  0  0  0  0  0  0  0  0  0  0  0
    1.5000   -2.5981    0.0000 C   0  0  0  0  0  0  0  0  0  0  0  0
    3.0000   -2.5981    0.0000 O   0  0  0  0  0  0  0  0  0  0  0  0
    0.7500   -1.2990    0.0000 C   0  0  0  0  0  0  0  0  0  0  0  0
    1.5000    0.0000    0.0000 C   0  0  0  0  0  0  0  0  0  0  0  0
    0.7500    1.2990    0.0000 C   0  0  0  0  0  0  0  0  0  0  0  0
   -0.7500    1.2990    0.0000 C   0  0  0  0  0  0  0  0  0  0  0  0
   -1.5000    0.0000    0.0000 C   0  0  0  0  0  0  0  0  0  0  0  0
   -3.0000   -0.0000    0.0000 C   0  0  0  0  0  0  0  0  0  0  0  0
   -3.7500   -1.2990    0.0000 C   0  0  0  0  0  0  0  0  0  0  0  0
   -3.0000   -2.5981    0.0000 C   0  0  0  0  0  0  0  0  0  0  0  0
   -1.5000   -2.5981    0.0000 C   0  0  0  0  0  0  0  0  0  0  0  0
   -0.7500   -1.2990    0.0000 C   0  0  0  0  0  0  0  0  0  0  0  0
   -0.7500   -3.8971    0.0000 C   0  0  0  0  0  0  0  0  0  0  0  0
   -1.5000   -5.1962    0.0000 O   0  0  0  0  0  0  0  0  0  0  0  0
   -0.7500  -11.6913    0.0000 S   0  0  0  0  0  0  0  0  0  0  0  0
   -1.5000  -12.9904    0.0000 C   0  0  0  0  0  0  0  0  0  0  0  0
   -3.0000  -12.9904    0.0000 O   0  0  0  0  0  0  0  0  0  0  0  0
   -0.7500  -14.2894    0.0000 C   0  0  0  0  0  0  0  0  0  0  0  0
   -1.2135  -15.7160    0.0000 C   0  0  0  0  0  0  0  0  0  0  0  0
   -2.6401  -16.1795    0.0000 C   0  0  0  0  0  0  0  0  0  0  0  0
  1  2  1  0
  2  3  1  0
  3  4  1  0
  4  5  1  0
  5  6  2  0
  6  7  1  0
  7  8  1  0
  8  9  2  0
  8 10  1  0
 10 11  1  0
 11 12  1  0
 12 13  1  0
 13 14  1  0
 14 15  2  0
 14 16  1  0
 16 17  2  0
 17 18  1  0
 18 19  2  0
 19 20  1  0
 20 21  2  0
 21 22  1  0
 22 23  2  0
 23 24  1  0
 24 25  2  0
 24 26  1  0
 26 27  2  0
  6 28  1  0
 28 29  1  0
 29 30  2  0
 29 31  1  0
 31 32  1  0
 32 33  1  0
 32  2  2  0
 31  4  2  0
 26 13  1  0
 25 16  1  0
 25 20  1  0
M  CHG  1   5   1
M  END
>  <Compound_ID>  (1111) 
C67207080

>  <Active>  (1111) 
0.0

>  <Smiles>  (1111) 
Cc1sc2[nH+]c(NC(=O)CCCN3C(=O)c4cccc5cccc(c45)C3=O)sc(=O)c2c1C

>  <canonical_smi>  (1111) 
Cc1sc2[nH+]c(NC(=O)CCCN3C(=O)c4cccc5cccc(c45)C3=O)sc(=O)c2c1C

>  <Set>  (1111) 
G2 inactive

>  <Set_type>  (1111) 
Test

>  <MW>  (1111) 
478.58

>  <HBD>  (1111) 
1

>  <HBA>  (1111) 
4

>  <NRB>  (1111) 
5

>  <NR>  (1111) 
5

>  <NAR>  (1111) 
4

>  <PSA>  (1111) 
97.69

>  <Standard Type>  (1111) 
nan

>  <Standard Relation>  (1111) 
nan

>  <Standard Units>  (1111) 
nan

>  <Standard Value>  (1111) 
nan

>  <Assay ChEMBL ID>  (1111) 
nan

>  <Assay Description>  (1111) 
nan

>  <BAO Label>  (1111) 
nan

$$$$

     RDKit          2D

 35 39  0  0  0  0  0  0  0  0999 V2000
    1.5000   -2.5981    0.0000 C   0  0  0  0  0  0  0  0  0  0  0  0
    0.7500   -1.2990    0.0000 C   0  0  0  0  0  0  0  0  0  0  0  0
    1.5000    0.0000    0.0000 C   0  0  0  0  0  0  0  0  0  0  0  0
    0.7500    1.2990    0.0000 N   0  0  0  0  0  0  0  0  0  0  0  0
    1.5000    2.5981    0.0000 C   0  0  0  0  0  0  0  0  0  0  0  0
    0.7500    3.8971    0.0000 O   0  0  0  0  0  0  0  0  0  0  0  0
    3.0000    2.5981    0.0000 C   0  0  0  0  0  0  0  0  0  0  0  0
    3.7500    1.2990    0.0000 C   0  0  0  0  0  0  0  0  0  0  0  0
    5.2500    1.2990    0.0000 C   0  0  0  0  0  0  0  0  0  0  0  0
    6.0000    2.5981    0.0000 C   0  0  0  0  0  0  0  0  0  0  0  0
    5.2500    3.8971    0.0000 C   0  0  0  0  0  0  0  0  0  0  0  0
    3.7500    3.8971    0.0000 C   0  0  0  0  0  0  0  0  0  0  0  0
    3.0000    5.1962    0.0000 O   0  0  0  0  0  0  0  0  0  0  0  0
   -0.7500    1.2990    0.0000 C   0  0  0  0  0  0  0  0  0  0  0  0
   -1.5000    0.0000    0.0000 C   0  0  0  0  0  0  0  0  0  0  0  0
   -3.0000    0.0000    0.0000 C   0  0  0  0  0  0  0  0  0  0  0  0
   -3.7500    1.2990    0.0000 C   0  0  0  0  0  0  0  0  0  0  0  0
   -5.2500    1.2990    0.0000 C   0  0  0  0  0  0  0  0  0  0  0  0
   -6.0000    0.0000    0.0000 C   0  0  0  0  0  0  0  0  0  0  0  0
   -5.2500   -1.2990    0.0000 C   0  0  0  0  0  0  0  0  0  0  0  0
   -3.7500   -1.2990    0.0000 C   0  0  0  0  0  0  0  0  0  0  0  0
   -2.2500   -1.2990    0.0000 C   0  0  0  0  0  0  0  0  0  0  0  0
   -1.5000   -2.5981    0.0000 N   0  0  0  0  0  0  0  0  0  0  0  0
   -2.2500   -3.8971    0.0000 C   0  0  0  0  0  0  0  0  0  0  0  0
   -3.7500   -3.8971    0.0000 O   0  0  0  0  0  0  0  0  0  0  0  0
   -1.5000   -5.1962    0.0000 C   0  0  0  0  0  0  0  0  0  0  0  0
   -2.2500   -6.4952    0.0000 C   0  0  0  0  0  0  0  0  0  0  0  0
   -1.5000   -7.7942    0.0000 C   0  0  0  0  0  0  0  0  0  0  0  0
   -0.0000   -7.7942    0.0000 C   0  0  0  0  0  0  0  0  0  0  0  0
    0.7500   -6.4952    0.0000 C   0  0  0  0  0  0  0  0  0  0  0  0
   -0.0000   -5.1962    0.0000 C   0  0  0  0  0  0  0  0  0  0  0  0
    0.7500   -3.8971    0.0000 O   0  0  0  0  0  0  0  0  0  0  0  0
   -0.0000   -2.5981    0.0000 C   0  0  0  0  0  0  0  0  0  0  0  0
   -0.7500   -1.2990    0.0000 C   0  0  0  0  0  0  0  0  0  0  0  0
   -0.9697   -2.0653    0.0000 O   0  0  0  0  0  0  0  0  0  0  0  0
  1  2  1  0
  2  3  1  0
  3  4  1  0
  4  5  1  0
  5  6  2  0
  5  7  1  0
  7  8  2  0
  8  9  1  0
  9 10  2  0
 10 11  1  0
 11 12  2  0
 12 13  1  0
  4 14  1  0
 14 15  1  0
 15 16  1  0
 16 17  2  0
 17 18  1  0
 18 19  2  0
 19 20  1  0
 20 21  2  0
 15 22  1  0
 22 23  1  0
 23 24  1  0
 24 25  2  0
 24 26  1  0
 26 27  2  0
 27 28  1  0
 28 29  2  0
 29 30  1  0
 30 31  2  0
 31 32  1  0
 23 33  1  0
 15 34  1  0
 34 35  2  0
 33  2  1  0
 34  2  1  0
 12  7  1  0
 21 16  1  0
 31 26  1  0
M  END
>  <Compound_ID>  (1112) 
C16889088

>  <Active>  (1112) 
0.0

>  <Smiles>  (1112) 
CC12CN(C(=O)c3ccccc3O)CC(c3ccccc3)(CN(C(=O)c3ccccc3O)C1)C2=O

>  <canonical_smi>  (1112) 
CC12CN(C(=O)c3ccccc3O)CC(c3ccccc3)(CN(C(=O)c3ccccc3O)C1)C2=O

>  <Set>  (1112) 
G2 inactive

>  <Set_type>  (1112) 
Test

>  <MW>  (1112) 
470.53

>  <HBD>  (1112) 
2

>  <HBA>  (1112) 
5

>  <NRB>  (1112) 
3

>  <NR>  (1112) 
5

>  <NAR>  (1112) 
3

>  <PSA>  (1112) 
98.15

>  <Standard Type>  (1112) 
nan

>  <Standard Relation>  (1112) 
nan

>  <Standard Units>  (1112) 
nan

>  <Standard Value>  (1112) 
nan

>  <Assay ChEMBL ID>  (1112) 
nan

>  <Assay Description>  (1112) 
nan

>  <BAO Label>  (1112) 
nan

$$$$

     RDKit          2D

 24 26  0  0  0  0  0  0  0  0999 V2000
    3.0000    0.0000    0.0000 C   0  0  0  0  0  0  0  0  0  0  0  0
    1.5000    0.0000    0.0000 C   0  0  0  0  0  0  0  0  0  0  0  0
    0.7500   -1.2990    0.0000 C   0  0  0  0  0  0  0  0  0  0  0  0
   -0.7500   -1.2990    0.0000 C   0  0  0  0  0  0  0  0  0  0  0  0
   -1.5000   -2.5981    0.0000 C   0  0  0  0  0  0  0  0  0  0  0  0
   -1.5000    0.0000    0.0000 C   0  0  0  0  0  0  0  0  0  0  0  0
   -2.9672    0.3119    0.0000 C   0  0  0  0  0  0  0  0  0  0  0  0
   -4.0819   -0.6918    0.0000 C   0  0  0  0  0  0  0  0  0  0  0  0
   -3.1240    1.8037    0.0000 C   0  0  0  0  0  0  0  0  0  0  0  0
   -4.4231    2.5537    0.0000 C   0  0  0  0  0  0  0  0  0  0  0  0
   -5.7221    1.8037    0.0000 O   0  0  0  0  0  0  0  0  0  0  0  0
   -4.4231    4.0537    0.0000 N   0  0  0  0  0  0  0  0  0  0  0  0
   -5.7221    4.8037    0.0000 N   0  0  0  0  0  0  0  0  0  0  0  0
   -5.7221    6.3037    0.0000 C   0  0  0  0  0  0  0  0  0  0  0  0
   -4.4231    7.0537    0.0000 O   0  0  0  0  0  0  0  0  0  0  0  0
   -7.0211    7.0537    0.0000 C   0  0  0  0  0  0  0  0  0  0  0  0
   -8.3914    6.4435    0.0000 S   0  0  0  0  0  0  0  0  0  0  0  0
   -9.3951    7.5583    0.0000 C   0  0  0  0  0  0  0  0  0  0  0  0
   -8.6451    8.8573    0.0000 C   0  0  0  0  0  0  0  0  0  0  0  0
   -7.1779    8.5454    0.0000 C   0  0  0  0  0  0  0  0  0  0  0  0
   -6.0632    9.5491    0.0000 C   0  0  0  0  0  0  0  0  0  0  0  0
   -1.7537    2.4138    0.0000 S   0  0  0  0  0  0  0  0  0  0  0  0
   -0.7500    1.2990    0.0000 C   0  0  0  0  0  0  0  0  0  0  0  0
    0.7500    1.2990    0.0000 N   0  0  0  0  0  0  0  0  0  0  0  0
  1  2  1  0
  2  3  2  0
  3  4  1  0
  4  5  1  0
  4  6  2  0
  6  7  1  0
  7  8  1  0
  7  9  2  0
  9 10  1  0
 10 11  2  0
 10 12  1  0
 12 13  1  0
 13 14  1  0
 14 15  2  0
 14 16  1  0
 16 17  1  0
 17 18  1  0
 18 19  2  0
 19 20  1  0
 20 21  1  0
  9 22  1  0
 22 23  1  0
 23 24  2  0
 24  2  1  0
 23  6  1  0
 20 16  2  0
M  END
>  <Compound_ID>  (1113) 
C66557488

>  <Active>  (1113) 
0.0

>  <Smiles>  (1113) 
Cc1cc(C)c2c(C)c(C(=O)NNC(=O)c3sccc3C)sc2n1

>  <canonical_smi>  (1113) 
Cc1cc(C)c2c(C)c(C(=O)NNC(=O)c3sccc3C)sc2n1

>  <Set>  (1113) 
G2 inactive

>  <Set_type>  (1113) 
Test

>  <MW>  (1113) 
359.48

>  <HBD>  (1113) 
2

>  <HBA>  (1113) 
3

>  <NRB>  (1113) 
2

>  <NR>  (1113) 
3

>  <NAR>  (1113) 
3

>  <PSA>  (1113) 
71.09

>  <Standard Type>  (1113) 
nan

>  <Standard Relation>  (1113) 
nan

>  <Standard Units>  (1113) 
nan

>  <Standard Value>  (1113) 
nan

>  <Assay ChEMBL ID>  (1113) 
nan

>  <Assay Description>  (1113) 
nan

>  <BAO Label>  (1113) 
nan

$$$$

     RDKit          2D

 26 29  0  0  0  0  0  0  0  0999 V2000
   -1.5000   -5.1962    0.0000 C   0  0  0  0  0  0  0  0  0  0  0  0
   -0.7500   -3.8971    0.0000 C   0  0  0  0  0  0  0  0  0  0  0  0
    0.7500   -3.8971    0.0000 C   0  0  0  0  0  0  0  0  0  0  0  0
    1.5000   -2.5981    0.0000 C   0  0  0  0  0  0  0  0  0  0  0  0
    0.7500   -1.2990    0.0000 C   0  0  0  0  0  0  0  0  0  0  0  0
    1.5000    0.0000    0.0000 C   0  0  0  0  0  0  0  0  0  0  0  0
    0.7500    1.2990    0.0000 C   0  0  0  0  0  0  0  0  0  0  0  0
    1.5000    2.5981    0.0000 F   0  0  0  0  0  0  0  0  0  0  0  0
   -0.7500    1.2990    0.0000 C   0  0  0  0  0  0  0  0  0  0  0  0
   -1.5000    0.0000    0.0000 C   0  0  0  0  0  0  0  0  0  0  0  0
   -0.7500   -1.2990    0.0000 C   0  0  0  0  0  0  0  0  0  0  0  0
   -1.5000   -2.5981    0.0000 N   0  0  0  0  0  0  0  0  0  0  0  0
   -3.0000   -2.5981    0.0000 C   0  0  0  0  0  0  0  0  0  0  0  0
   -3.7500   -3.8971    0.0000 O   0  0  0  0  0  0  0  0  0  0  0  0
   -3.7500   -1.2990    0.0000 C   0  0  0  0  0  0  0  0  0  0  0  0
   -3.1399    0.0713    0.0000 C   0  0  0  0  0  0  0  0  0  0  0  0
   -4.2546    1.0750    0.0000 C   0  0  0  0  0  0  0  0  0  0  0  0
   -5.5537    0.3250    0.0000 C   0  0  0  0  0  0  0  0  0  0  0  0
   -6.9240    0.9351    0.0000 C   0  0  0  0  0  0  0  0  0  0  0  0
   -6.1638   -1.0453    0.0000 C   0  0  0  0  0  0  0  0  0  0  0  0
   -7.6310   -1.3572    0.0000 N   0  0  0  0  0  0  0  0  0  0  0  0
   -8.0945   -2.7838    0.0000 O   0  0  0  0  0  0  0  0  0  0  0  0
   -5.0490   -2.0490    0.0000 C   0  0  0  0  0  0  0  0  0  0  0  0
   -5.2418   -1.1422    0.0000 C   0  0  0  0  0  0  0  0  0  0  0  0
   -6.6513   -1.6554    0.0000 C   0  0  0  0  0  0  0  0  0  0  0  0
   -5.6047   -2.5977    0.0000 C   0  0  0  0  0  0  0  0  0  0  0  0
  2  1  1  6
  2  3  1  0
  3  4  1  0
  4  5  1  0
  5  6  2  0
  6  7  1  0
  7  8  1  0
  7  9  2  0
  9 10  1  0
 10 11  2  0
 11 12  1  0
 12 13  1  0
 13 14  2  0
 15 13  1  6
 15 16  1  0
 16 17  1  0
 17 18  1  0
 18 19  1  6
 18 20  1  0
 20 21  2  0
 21 22  1  0
 20 23  1  0
 18 24  1  0
 24 25  1  0
 24 26  1  0
 12  2  1  0
 23 15  1  0
 11  5  1  0
 24 15  1  0
M  END
>  <Compound_ID>  (1114) 
C08535479

>  <Active>  (1114) 
0.0

>  <Smiles>  (1114) 
C[C@H]1CCc2cc(F)ccc2N1C(=O)[C@]12CC[C@](C)(/C(=N/O)C1)C2(C)C

>  <canonical_smi>  (1114) 
C[C@H]1CCc2cc(F)ccc2N1C(=O)[C@]12CC[C@](C)(/C(=N/O)C1)C2(C)C

>  <Set>  (1114) 
G2 inactive

>  <Set_type>  (1114) 
Test

>  <MW>  (1114) 
358.46

>  <HBD>  (1114) 
1

>  <HBA>  (1114) 
2

>  <NRB>  (1114) 
1

>  <NR>  (1114) 
4

>  <NAR>  (1114) 
1

>  <PSA>  (1114) 
52.9

>  <Standard Type>  (1114) 
nan

>  <Standard Relation>  (1114) 
nan

>  <Standard Units>  (1114) 
nan

>  <Standard Value>  (1114) 
nan

>  <Assay ChEMBL ID>  (1114) 
nan

>  <Assay Description>  (1114) 
nan

>  <BAO Label>  (1114) 
nan

$$$$

     RDKit          2D

 36 41  0  0  0  0  0  0  0  0999 V2000
   -3.9955   -4.2382    0.0000 O   0  0  0  0  0  0  0  0  0  0  0  0
   -2.9918   -5.3529    0.0000 C   0  0  0  0  0  0  0  0  0  0  0  0
   -3.3037   -6.8202    0.0000 C   0  0  0  0  0  0  0  0  0  0  0  0
   -4.6027   -7.5702    0.0000 C   0  0  0  0  0  0  0  0  0  0  0  0
   -4.6027   -9.0702    0.0000 C   0  0  0  0  0  0  0  0  0  0  0  0
   -3.3037   -9.8202    0.0000 C   0  0  0  0  0  0  0  0  0  0  0  0
   -2.0046   -9.0702    0.0000 C   0  0  0  0  0  0  0  0  0  0  0  0
   -2.0046   -7.5702    0.0000 C   0  0  0  0  0  0  0  0  0  0  0  0
   -0.8899   -6.5665    0.0000 C   0  0  0  0  0  0  0  0  0  0  0  0
    0.5773   -6.8783    0.0000 O   0  0  0  0  0  0  0  0  0  0  0  0
   -1.5000   -5.1962    0.0000 N   0  0  0  0  0  0  0  0  0  0  0  0
   -0.7500   -3.8971    0.0000 C   0  0  0  0  0  0  0  0  0  0  0  0
    0.7500   -3.8971    0.0000 C   0  0  0  0  0  0  0  0  0  0  0  0
    1.5000   -5.1962    0.0000 O   0  0  0  0  0  0  0  0  0  0  0  0
    3.0000   -5.1962    0.0000 C   0  0  0  0  0  0  0  0  0  0  0  0
    3.7500   -6.4952    0.0000 C   0  0  0  0  0  0  0  0  0  0  0  0
    3.0000   -7.7942    0.0000 C   0  0  0  0  0  0  0  0  0  0  0  0
    3.7500   -9.0933    0.0000 C   0  0  0  0  0  0  0  0  0  0  0  0
    5.2500   -9.0933    0.0000 C   0  0  0  0  0  0  0  0  0  0  0  0
    6.0000   -7.7942    0.0000 C   0  0  0  0  0  0  0  0  0  0  0  0
    5.2500   -6.4952    0.0000 C   0  0  0  0  0  0  0  0  0  0  0  0
    1.5000   -2.5981    0.0000 O   0  0  0  0  0  0  0  0  0  0  0  0
    0.7500   -1.2990    0.0000 C   0  0  0  0  0  0  0  0  0  0  0  0
    1.5000    0.0000    0.0000 C   0  0  0  0  0  0  0  0  0  0  0  0
    0.7500    1.2990    0.0000 O   0  0  0  0  0  0  0  0  0  0  0  0
   -0.7500    1.2990    0.0000 C   0  0  0  0  0  0  0  0  0  0  0  0
   -1.5000    2.5981    0.0000 C   0  0  0  0  0  0  0  0  0  0  0  0
   -0.7500    3.8971    0.0000 C   0  0  0  0  0  0  0  0  0  0  0  0
   -1.5000    5.1962    0.0000 C   0  0  0  0  0  0  0  0  0  0  0  0
   -3.0000    5.1962    0.0000 C   0  0  0  0  0  0  0  0  0  0  0  0
   -3.7500    3.8971    0.0000 C   0  0  0  0  0  0  0  0  0  0  0  0
   -3.0000    2.5981    0.0000 C   0  0  0  0  0  0  0  0  0  0  0  0
   -1.5000    0.0000    0.0000 O   0  0  0  0  0  0  0  0  0  0  0  0
   -0.7500   -1.2990    0.0000 C   0  0  0  0  0  0  0  0  0  0  0  0
   -1.5000   -2.5981    0.0000 C   0  0  0  0  0  0  0  0  0  0  0  0
   -3.0000   -2.5981    0.0000 O   0  0  0  0  0  0  0  0  0  0  0  0
  1  2  2  0
  2  3  1  0
  3  4  2  0
  4  5  1  0
  5  6  2  0
  6  7  1  0
  7  8  2  0
  8  9  1  0
  9 10  2  0
  9 11  1  0
 12 11  1  1
 12 13  1  0
 13 14  1  1
 14 15  1  0
 15 16  1  0
 16 17  2  0
 17 18  1  0
 18 19  2  0
 19 20  1  0
 20 21  2  0
 13 22  1  0
 22 23  1  0
 23 24  1  1
 24 25  1  0
 25 26  1  0
 26 27  1  1
 27 28  2  0
 28 29  1  0
 29 30  2  0
 30 31  1  0
 31 32  2  0
 26 33  1  0
 34 33  1  6
 34 35  1  0
 35 36  1  6
 11  2  1  0
 35 12  1  0
  8  3  1  0
 21 16  1  0
 34 23  1  0
 32 27  1  0
M  END
>  <Compound_ID>  (1115) 
C39935803

>  <Active>  (1115) 
0.0

>  <Smiles>  (1115) 
O=C1c2ccccc2C(=O)N1[C@@H]1[C@H](OCc2ccccc2)O[C@@H]2CO[C@H](c3ccccc3)O[C@H]2[C@H]1O

>  <canonical_smi>  (1115) 
O=C1c2ccccc2C(=O)N1[C@H]1[C@H](O)[C@@H]2O[C@@H](c3ccccc3)OC[C@H]2O[C@H]1OCc1ccccc1

>  <Set>  (1115) 
G2 inactive

>  <Set_type>  (1115) 
Test

>  <MW>  (1115) 
487.51

>  <HBD>  (1115) 
1

>  <HBA>  (1115) 
7

>  <NRB>  (1115) 
5

>  <NR>  (1115) 
6

>  <NAR>  (1115) 
3

>  <PSA>  (1115) 
94.53

>  <Standard Type>  (1115) 
nan

>  <Standard Relation>  (1115) 
nan

>  <Standard Units>  (1115) 
nan

>  <Standard Value>  (1115) 
nan

>  <Assay ChEMBL ID>  (1115) 
nan

>  <Assay Description>  (1115) 
nan

>  <BAO Label>  (1115) 
nan

$$$$

     RDKit          2D

 32 36  0  0  0  0  0  0  0  0999 V2000
   -4.0051  -12.2839    0.0000 C   0  0  0  0  0  0  0  0  0  0  0  0
   -3.1235  -11.0704    0.0000 C   0  0  0  0  0  0  0  0  0  0  0  0
   -1.6317  -11.2272    0.0000 C   0  0  0  0  0  0  0  0  0  0  0  0
   -0.7500  -10.0136    0.0000 C   0  0  0  0  0  0  0  0  0  0  0  0
    0.7500  -10.0136    0.0000 N   0  0  0  0  0  0  0  0  0  0  0  0
    1.2135   -8.5871    0.0000 N   0  0  0  0  0  0  0  0  0  0  0  0
   -0.0000   -7.7054    0.0000 C   0  0  0  0  0  0  0  0  0  0  0  0
   -0.0000   -6.2054    0.0000 N   0  0  0  0  0  0  0  0  0  0  0  0
    1.2135   -5.3237    0.0000 C   0  0  0  0  0  0  0  0  0  0  0  0
    2.6401   -5.7872    0.0000 O   0  0  0  0  0  0  0  0  0  0  0  0
    0.7500   -3.8971    0.0000 C   0  0  0  0  0  0  0  0  0  0  0  0
    1.5000   -2.5981    0.0000 O   0  0  0  0  0  0  0  0  0  0  0  0
    0.7500   -1.2990    0.0000 C   0  0  0  0  0  0  0  0  0  0  0  0
    1.5000    0.0000    0.0000 C   0  0  0  0  0  0  0  0  0  0  0  0
    3.0000    0.0000    0.0000 C   0  0  0  0  0  0  0  0  0  0  0  0
    0.7500    1.2990    0.0000 C   0  0  0  0  0  0  0  0  0  0  0  0
   -0.7500    1.2990    0.0000 C   0  0  0  0  0  0  0  0  0  0  0  0
   -1.5000    2.5981    0.0000 C   0  0  0  0  0  0  0  0  0  0  0  0
   -1.5000    0.0000    0.0000 C   0  0  0  0  0  0  0  0  0  0  0  0
   -0.7500   -1.2990    0.0000 C   0  0  0  0  0  0  0  0  0  0  0  0
   -1.5000   -2.5981    0.0000 C   0  0  0  0  0  0  0  0  0  0  0  0
   -3.0000   -2.5981    0.0000 O   0  0  0  0  0  0  0  0  0  0  0  0
   -0.7500   -3.8971    0.0000 C   0  0  0  0  0  0  0  0  0  0  0  0
   -1.2135   -5.3237    0.0000 C   0  0  0  0  0  0  0  0  0  0  0  0
   -2.6401   -5.7872    0.0000 C   0  0  0  0  0  0  0  0  0  0  0  0
   -3.7548   -4.7835    0.0000 C   0  0  0  0  0  0  0  0  0  0  0  0
   -5.1814   -5.2471    0.0000 C   0  0  0  0  0  0  0  0  0  0  0  0
   -5.4933   -6.7143    0.0000 C   0  0  0  0  0  0  0  0  0  0  0  0
   -6.9199   -7.1778    0.0000 O   0  0  0  0  0  0  0  0  0  0  0  0
   -4.3786   -7.7180    0.0000 C   0  0  0  0  0  0  0  0  0  0  0  0
   -2.9520   -7.2544    0.0000 C   0  0  0  0  0  0  0  0  0  0  0  0
   -1.2135   -8.5871    0.0000 S   0  0  0  0  0  0  0  0  0  0  0  0
  1  2  1  0
  2  3  1  0
  3  4  1  0
  4  5  2  0
  5  6  1  0
  6  7  2  0
  7  8  1  0
  8  9  1  0
  9 10  2  0
  9 11  1  0
 11 12  1  0
 12 13  1  0
 13 14  2  0
 14 15  1  0
 14 16  1  0
 16 17  2  0
 17 18  1  0
 17 19  1  0
 19 20  2  0
 20 21  1  0
 21 22  2  0
 21 23  1  0
 23 24  1  0
 24 25  1  1
 25 26  2  0
 26 27  1  0
 27 28  2  0
 28 29  1  0
 28 30  1  0
 30 31  2  0
  7 32  1  0
 32  4  1  0
 24  8  1  0
 31 25  1  0
 23 11  2  0
 20 13  1  0
M  END
>  <Compound_ID>  (1116) 
C40041110

>  <Active>  (1116) 
0.0

>  <Smiles>  (1116) 
CCCc1nnc(N2C(=O)c3oc4c(C)cc(C)cc4c(=O)c3[C@@H]2c2ccc(O)cc2)s1

>  <canonical_smi>  (1116) 
CCCc1nnc(N2C(=O)c3oc4c(C)cc(C)cc4c(=O)c3[C@@H]2c2ccc(O)cc2)s1

>  <Set>  (1116) 
G2 inactive

>  <Set_type>  (1116) 
Test

>  <MW>  (1116) 
447.52

>  <HBD>  (1116) 
1

>  <HBA>  (1116) 
6

>  <NRB>  (1116) 
4

>  <NR>  (1116) 
5

>  <NAR>  (1116) 
4

>  <PSA>  (1116) 
96.53

>  <Standard Type>  (1116) 
nan

>  <Standard Relation>  (1116) 
nan

>  <Standard Units>  (1116) 
nan

>  <Standard Value>  (1116) 
nan

>  <Assay ChEMBL ID>  (1116) 
nan

>  <Assay Description>  (1116) 
nan

>  <BAO Label>  (1116) 
nan

$$$$

     RDKit          2D

 34 38  0  0  0  0  0  0  0  0999 V2000
   -2.9499    4.2246    0.0000 C   0  0  0  0  0  0  0  0  0  0  0  0
   -1.8351    3.2209    0.0000 C   0  0  0  0  0  0  0  0  0  0  0  0
   -0.4086    3.6844    0.0000 C   0  0  0  0  0  0  0  0  0  0  0  0
   -0.0967    5.1517    0.0000 C   0  0  0  0  0  0  0  0  0  0  0  0
   -1.2114    6.1554    0.0000 O   0  0  0  0  0  0  0  0  0  0  0  0
    1.3299    5.6152    0.0000 N   0  0  0  0  0  0  0  0  0  0  0  0
    1.6418    7.0824    0.0000 C   0  0  0  0  0  0  0  0  0  0  0  0
    3.0684    7.5459    0.0000 C   0  0  0  0  0  0  0  0  0  0  0  0
    3.3802    9.0132    0.0000 C   0  0  0  0  0  0  0  0  0  0  0  0
    2.2655   10.0169    0.0000 C   0  0  0  0  0  0  0  0  0  0  0  0
    0.8389    9.5533    0.0000 N   0  0  0  0  0  0  0  0  0  0  0  0
    0.5271    8.0861    0.0000 C   0  0  0  0  0  0  0  0  0  0  0  0
    0.7062    2.6807    0.0000 C   0  0  0  0  0  0  0  0  0  0  0  0
    2.1328    3.1443    0.0000 C   0  0  0  0  0  0  0  0  0  0  0  0
    3.2475    2.1406    0.0000 C   0  0  0  0  0  0  0  0  0  0  0  0
    4.6741    2.6041    0.0000 C   0  0  0  0  0  0  0  0  0  0  0  0
    4.9859    4.0713    0.0000 C   0  0  0  0  0  0  0  0  0  0  0  0
    3.8712    5.0750    0.0000 C   0  0  0  0  0  0  0  0  0  0  0  0
    2.4446    4.6115    0.0000 C   0  0  0  0  0  0  0  0  0  0  0  0
    0.3943    1.2135    0.0000 N   0  0  0  0  0  0  0  0  0  0  0  0
    1.2760    0.0000    0.0000 N   0  0  0  0  0  0  0  0  0  0  0  0
    0.3943   -1.2135    0.0000 C   0  0  0  0  0  0  0  0  0  0  0  0
    0.8578   -2.6401    0.0000 S   0  0  0  0  0  0  0  0  0  0  0  0
   -0.1459   -3.7548    0.0000 C   0  0  0  0  0  0  0  0  0  0  0  0
    0.3177   -5.1814    0.0000 C   0  0  0  0  0  0  0  0  0  0  0  0
   -0.6860   -6.2961    0.0000 C   0  0  0  0  0  0  0  0  0  0  0  0
   -0.2225   -7.7227    0.0000 C   0  0  0  0  0  0  0  0  0  0  0  0
    1.2447   -8.0346    0.0000 C   0  0  0  0  0  0  0  0  0  0  0  0
    2.2484   -6.9199    0.0000 C   0  0  0  0  0  0  0  0  0  0  0  0
    1.7849   -5.4933    0.0000 C   0  0  0  0  0  0  0  0  0  0  0  0
    2.7886   -4.3786    0.0000 F   0  0  0  0  0  0  0  0  0  0  0  0
   -1.0323   -0.7500    0.0000 N   0  0  0  0  0  0  0  0  0  0  0  0
   -1.0323    0.7500    0.0000 C   0  0  0  0  0  0  0  0  0  0  0  0
   -2.1470    1.7537    0.0000 N   0  0  0  0  0  0  0  0  0  0  0  0
  1  2  1  0
  2  3  2  0
  3  4  1  0
  4  5  2  0
  4  6  1  0
  6  7  1  0
  7  8  2  0
  8  9  1  0
  9 10  2  0
 10 11  1  0
 11 12  2  0
  3 13  1  0
 13 14  1  6
 14 15  2  0
 15 16  1  0
 16 17  2  0
 17 18  1  0
 18 19  2  0
 13 20  1  0
 20 21  1  0
 21 22  2  0
 22 23  1  0
 23 24  1  0
 24 25  1  0
 25 26  2  0
 26 27  1  0
 27 28  2  0
 28 29  1  0
 29 30  2  0
 30 31  1  0
 22 32  1  0
 32 33  2  0
 33 34  1  0
 34  2  1  0
 12  7  1  0
 19 14  1  0
 33 20  1  0
 30 25  1  0
M  END
>  <Compound_ID>  (1117) 
C08591610

>  <Active>  (1117) 
0.0

>  <Smiles>  (1117) 
CC1=C(C(=O)Nc2cccnc2)[C@H](c2ccccc2)n2nc(SCc3ccccc3F)nc2N1

>  <canonical_smi>  (1117) 
CC1=C(C(=O)Nc2cccnc2)[C@H](c2ccccc2)n2nc(SCc3ccccc3F)nc2N1

>  <Set>  (1117) 
G2 inactive

>  <Set_type>  (1117) 
Test

>  <MW>  (1117) 
472.55

>  <HBD>  (1117) 
2

>  <HBA>  (1117) 
6

>  <NRB>  (1117) 
6

>  <NR>  (1117) 
5

>  <NAR>  (1117) 
4

>  <PSA>  (1117) 
84.73

>  <Standard Type>  (1117) 
nan

>  <Standard Relation>  (1117) 
nan

>  <Standard Units>  (1117) 
nan

>  <Standard Value>  (1117) 
nan

>  <Assay ChEMBL ID>  (1117) 
nan

>  <Assay Description>  (1117) 
nan

>  <BAO Label>  (1117) 
nan

$$$$

     RDKit          2D

 32 35  0  0  0  0  0  0  0  0999 V2000
    3.0000    0.0000    0.0000 C   0  0  0  0  0  0  0  0  0  0  0  0
    1.5000    0.0000    0.0000 C   0  0  0  0  0  0  0  0  0  0  0  0
    0.7500   -1.2990    0.0000 C   0  0  0  0  0  0  0  0  0  0  0  0
   -0.7500   -1.2990    0.0000 C   0  0  0  0  0  0  0  0  0  0  0  0
   -1.5000    0.0000    0.0000 C   0  0  0  0  0  0  0  0  0  0  0  0
   -3.0000    0.0000    0.0000 N   0  0  0  0  0  0  0  0  0  0  0  0
   -3.8817   -1.2135    0.0000 C   0  0  0  0  0  0  0  0  0  0  0  0
   -3.4182   -2.6401    0.0000 S   0  0  0  0  0  0  0  0  0  0  0  0
   -4.4218   -3.7548    0.0000 C   0  0  0  0  0  0  0  0  0  0  0  0
   -3.9583   -5.1814    0.0000 C   0  0  0  0  0  0  0  0  0  0  0  0
   -4.9620   -6.2961    0.0000 C   0  0  0  0  0  0  0  0  0  0  0  0
   -4.4985   -7.7227    0.0000 C   0  0  0  0  0  0  0  0  0  0  0  0
   -3.0313   -8.0346    0.0000 C   0  0  0  0  0  0  0  0  0  0  0  0
   -2.0276   -6.9199    0.0000 C   0  0  0  0  0  0  0  0  0  0  0  0
   -2.4911   -5.4933    0.0000 C   0  0  0  0  0  0  0  0  0  0  0  0
   -5.3083   -0.7500    0.0000 N   0  0  0  0  0  0  0  0  0  0  0  0
   -5.3083    0.7500    0.0000 N   0  0  0  0  0  0  0  0  0  0  0  0
   -3.8817    1.2135    0.0000 C   0  0  0  0  0  0  0  0  0  0  0  0
   -3.4182    2.6401    0.0000 C   0  0  0  0  0  0  0  0  0  0  0  0
   -4.4218    3.7548    0.0000 C   0  0  0  0  0  0  0  0  0  0  0  0
   -1.9509    2.9520    0.0000 N   0  0  0  0  0  0  0  0  0  0  0  0
   -1.4874    4.3786    0.0000 C   0  0  0  0  0  0  0  0  0  0  0  0
   -2.4911    5.4933    0.0000 O   0  0  0  0  0  0  0  0  0  0  0  0
   -0.0202    4.6904    0.0000 N   0  0  0  0  0  0  0  0  0  0  0  0
    0.4433    6.1170    0.0000 C   0  0  0  0  0  0  0  0  0  0  0  0
    1.9106    6.4289    0.0000 C   0  0  0  0  0  0  0  0  0  0  0  0
    2.3741    7.8555    0.0000 C   0  0  0  0  0  0  0  0  0  0  0  0
    1.3704    8.9702    0.0000 C   0  0  0  0  0  0  0  0  0  0  0  0
   -0.0968    8.6583    0.0000 C   0  0  0  0  0  0  0  0  0  0  0  0
   -0.5604    7.2317    0.0000 C   0  0  0  0  0  0  0  0  0  0  0  0
   -0.7500    1.2990    0.0000 C   0  0  0  0  0  0  0  0  0  0  0  0
    0.7500    1.2990    0.0000 C   0  0  0  0  0  0  0  0  0  0  0  0
  1  2  1  0
  2  3  2  0
  3  4  1  0
  4  5  2  0
  5  6  1  0
  6  7  1  0
  7  8  1  0
  8  9  1  0
  9 10  1  0
 10 11  2  0
 11 12  1  0
 12 13  2  0
 13 14  1  0
 14 15  2  0
  7 16  2  0
 16 17  1  0
 17 18  2  0
 18 19  1  0
 19 20  1  1
 19 21  1  0
 21 22  1  0
 22 23  2  0
 22 24  1  0
 24 25  1  0
 25 26  1  0
 26 27  1  0
 27 28  1  0
 28 29  1  0
 29 30  1  0
  5 31  1  0
 31 32  2  0
 32  2  1  0
 18  6  1  0
 30 25  1  0
 15 10  1  0
M  END
>  <Compound_ID>  (1118) 
C35226226

>  <Active>  (1118) 
0.0

>  <Smiles>  (1118) 
Cc1ccc(-n2c(SCc3ccccc3)nnc2[C@@H](C)NC(=O)NC2CCCCC2)cc1

>  <canonical_smi>  (1118) 
Cc1ccc(-n2c(SCc3ccccc3)nnc2[C@@H](C)NC(=O)NC2CCCCC2)cc1

>  <Set>  (1118) 
G2 inactive

>  <Set_type>  (1118) 
Test

>  <MW>  (1118) 
449.62

>  <HBD>  (1118) 
2

>  <HBA>  (1118) 
4

>  <NRB>  (1118) 
7

>  <NR>  (1118) 
4

>  <NAR>  (1118) 
3

>  <PSA>  (1118) 
71.84

>  <Standard Type>  (1118) 
nan

>  <Standard Relation>  (1118) 
nan

>  <Standard Units>  (1118) 
nan

>  <Standard Value>  (1118) 
nan

>  <Assay ChEMBL ID>  (1118) 
nan

>  <Assay Description>  (1118) 
nan

>  <BAO Label>  (1118) 
nan

$$$$

     RDKit          2D

 29 32  0  0  0  0  0  0  0  0999 V2000
    8.7500   13.2420    0.0000 C   0  0  0  0  0  0  0  0  0  0  0  0
    7.5365   12.3603    0.0000 C   0  0  0  0  0  0  0  0  0  0  0  0
    6.1099   12.8238    0.0000 C   0  0  0  0  0  0  0  0  0  0  0  0
    5.2282   11.6103    0.0000 C   0  0  0  0  0  0  0  0  0  0  0  0
    3.7282   11.6103    0.0000 C   0  0  0  0  0  0  0  0  0  0  0  0
    6.1099   10.3968    0.0000 N   0  0  0  0  0  0  0  0  0  0  0  0
    5.6464    8.9702    0.0000 C   0  0  0  0  0  0  0  0  0  0  0  0
    4.1791    8.6583    0.0000 C   0  0  0  0  0  0  0  0  0  0  0  0
    3.7156    7.2317    0.0000 C   0  0  0  0  0  0  0  0  0  0  0  0
    4.7193    6.1170    0.0000 C   0  0  0  0  0  0  0  0  0  0  0  0
    4.2558    4.6904    0.0000 C   0  0  0  0  0  0  0  0  0  0  0  0
    5.2595    3.5757    0.0000 O   0  0  0  0  0  0  0  0  0  0  0  0
    2.7886    4.3786    0.0000 N   0  0  0  0  0  0  0  0  0  0  0  0
    2.3250    2.9520    0.0000 C   0  0  0  0  0  0  0  0  0  0  0  0
    0.8578    2.6401    0.0000 C   0  0  0  0  0  0  0  0  0  0  0  0
    0.3943    1.2135    0.0000 C   0  0  0  0  0  0  0  0  0  0  0  0
    1.2760    0.0000    0.0000 N   0  0  0  0  0  0  0  0  0  0  0  0
    0.3943   -1.2135    0.0000 C   0  0  0  0  0  0  0  0  0  0  0  0
    0.7062   -2.6807    0.0000 C   0  0  0  0  0  0  0  0  0  0  0  0
   -0.4086   -3.6844    0.0000 C   0  0  0  0  0  0  0  0  0  0  0  0
   -0.0967   -5.1517    0.0000 C   0  0  0  0  0  0  0  0  0  0  0  0
   -1.8351   -3.2209    0.0000 C   0  0  0  0  0  0  0  0  0  0  0  0
   -2.9499   -4.2246    0.0000 C   0  0  0  0  0  0  0  0  0  0  0  0
   -2.1470   -1.7537    0.0000 C   0  0  0  0  0  0  0  0  0  0  0  0
   -1.0323   -0.7500    0.0000 C   0  0  0  0  0  0  0  0  0  0  0  0
   -1.0323    0.7500    0.0000 N   0  0  0  0  0  0  0  0  0  0  0  0
    6.1865    6.4289    0.0000 C   0  0  0  0  0  0  0  0  0  0  0  0
    6.6501    7.8555    0.0000 C   0  0  0  0  0  0  0  0  0  0  0  0
    7.5365   10.8603    0.0000 N   0  0  0  0  0  0  0  0  0  0  0  0
  1  2  1  0
  2  3  1  0
  3  4  2  0
  4  5  1  0
  4  6  1  0
  6  7  1  0
  7  8  2  0
  8  9  1  0
  9 10  2  0
 10 11  1  0
 11 12  2  0
 11 13  1  0
 13 14  1  0
 14 15  1  0
 15 16  1  0
 16 17  2  0
 17 18  1  0
 18 19  2  0
 19 20  1  0
 20 21  1  0
 20 22  2  0
 22 23  1  0
 22 24  1  0
 24 25  2  0
 25 26  1  0
 10 27  1  0
 27 28  2  0
  6 29  1  0
 29  2  2  0
 28  7  1  0
 26 16  1  0
 25 18  1  0
M  END
>  <Compound_ID>  (1119) 
C19659997

>  <Active>  (1119) 
0.0

>  <Smiles>  (1119) 
Cc1cc(C)n(-c2ccc(C(=O)NCCc3nc4cc(C)c(C)cc4[nH]3)cc2)n1

>  <canonical_smi>  (1119) 
Cc1cc(C)n(-c2ccc(C(=O)NCCc3nc4cc(C)c(C)cc4[nH]3)cc2)n1

>  <Set>  (1119) 
G2 inactive

>  <Set_type>  (1119) 
Test

>  <MW>  (1119) 
387.49

>  <HBD>  (1119) 
2

>  <HBA>  (1119) 
3

>  <NRB>  (1119) 
5

>  <NR>  (1119) 
4

>  <NAR>  (1119) 
4

>  <PSA>  (1119) 
75.6

>  <Standard Type>  (1119) 
nan

>  <Standard Relation>  (1119) 
nan

>  <Standard Units>  (1119) 
nan

>  <Standard Value>  (1119) 
nan

>  <Assay ChEMBL ID>  (1119) 
nan

>  <Assay Description>  (1119) 
nan

>  <BAO Label>  (1119) 
nan

$$$$

     RDKit          2D

 27 28  0  0  0  0  0  0  0  0999 V2000
    3.0000    0.0000    0.0000 C   0  0  0  0  0  0  0  0  0  0  0  0
    1.5000    0.0000    0.0000 C   0  0  0  0  0  0  0  0  0  0  0  0
    0.7500   -1.2990    0.0000 C   0  0  0  0  0  0  0  0  0  0  0  0
   -0.7500   -1.2990    0.0000 C   0  0  0  0  0  0  0  0  0  0  0  0
   -1.5000   -2.5981    0.0000 C   0  0  0  0  0  0  0  0  0  0  0  0
   -1.5000    0.0000    0.0000 C   0  0  0  0  0  0  0  0  0  0  0  0
   -0.7500    1.2990    0.0000 N   0  0  0  0  0  4  0  0  0  0  0  0
   -1.5000    2.5981    0.0000 C   0  0  0  0  0  0  0  0  0  0  0  0
   -0.7500    3.8971    0.0000 C   0  0  0  0  0  0  0  0  0  0  0  0
   -1.5000    5.1962    0.0000 N   0  0  0  0  0  0  0  0  0  0  0  0
   -0.7500    6.4952    0.0000 C   0  0  0  0  0  0  0  0  0  0  0  0
    0.7500    6.4952    0.0000 O   0  0  0  0  0  0  0  0  0  0  0  0
   -1.5000    7.7942    0.0000 N   0  0  0  0  0  0  0  0  0  0  0  0
   -0.7500    9.0933    0.0000 N   0  0  0  0  0  0  0  0  0  0  0  0
   -1.5000   10.3923    0.0000 C   0  0  0  0  0  0  0  0  0  0  0  0
   -3.0000   10.3923    0.0000 O   0  0  0  0  0  0  0  0  0  0  0  0
   -0.7500   11.6913    0.0000 C   0  0  0  0  0  0  0  0  0  0  0  0
   -1.5000   12.9904    0.0000 C   0  0  0  0  0  0  0  0  0  0  0  0
    0.7500   11.6913    0.0000 O   0  0  0  0  0  0  0  0  0  0  0  0
    1.5000   12.9904    0.0000 C   0  0  0  0  0  0  0  0  0  0  0  0
    3.0000   12.9904    0.0000 C   0  0  0  0  0  0  0  0  0  0  0  0
    3.7500   14.2894    0.0000 C   0  0  0  0  0  0  0  0  0  0  0  0
    3.0000   15.5885    0.0000 C   0  0  0  0  0  0  0  0  0  0  0  0
    3.7500   16.8875    0.0000 F   0  0  0  0  0  0  0  0  0  0  0  0
    1.5000   15.5885    0.0000 C   0  0  0  0  0  0  0  0  0  0  0  0
    0.7500   14.2894    0.0000 C   0  0  0  0  0  0  0  0  0  0  0  0
    0.7500    1.2990    0.0000 C   0  0  0  0  0  0  0  0  0  0  0  0
  2  1  1  6
  2  3  1  0
  3  4  1  0
  4  5  1  6
  4  6  1  0
  6  7  1  0
  7  8  1  0
  8  9  1  0
  9 10  1  0
 10 11  1  0
 11 12  2  0
 11 13  1  0
 13 14  1  0
 14 15  1  0
 15 16  2  0
 15 17  1  0
 17 18  1  1
 17 19  1  0
 19 20  1  0
 20 21  2  0
 21 22  1  0
 22 23  2  0
 23 24  1  0
 23 25  1  0
 25 26  2  0
  7 27  1  0
 27  2  1  0
 26 20  1  0
M  CHG  1   7   1
M  END
>  <Compound_ID>  (1120) 
C46424088

>  <Active>  (1120) 
0.0

>  <Smiles>  (1120) 
C[C@@H]1C[C@H](C)C[NH+](CCNC(=O)NNC(=O)[C@@H](C)Oc2ccc(F)cc2)C1

>  <canonical_smi>  (1120) 
C[C@H]1C[C@@H](C)C[NH+](CCNC(=O)NNC(=O)[C@@H](C)Oc2ccc(F)cc2)C1

>  <Set>  (1120) 
G2 inactive

>  <Set_type>  (1120) 
Test

>  <MW>  (1120) 
381.47

>  <HBD>  (1120) 
4

>  <HBA>  (1120) 
3

>  <NRB>  (1120) 
6

>  <NR>  (1120) 
2

>  <NAR>  (1120) 
1

>  <PSA>  (1120) 
83.9

>  <Standard Type>  (1120) 
nan

>  <Standard Relation>  (1120) 
nan

>  <Standard Units>  (1120) 
nan

>  <Standard Value>  (1120) 
nan

>  <Assay ChEMBL ID>  (1120) 
nan

>  <Assay Description>  (1120) 
nan

>  <BAO Label>  (1120) 
nan

$$$$

     RDKit          2D

 28 30  0  0  0  0  0  0  0  0999 V2000
    3.0000    0.0000    0.0000 C   0  0  0  0  0  0  0  0  0  0  0  0
    1.5000    0.0000    0.0000 C   0  0  0  0  0  0  0  0  0  0  0  0
    0.7500   -1.2990    0.0000 C   0  0  0  0  0  0  0  0  0  0  0  0
   -0.7500   -1.2990    0.0000 C   0  0  0  0  0  0  0  0  0  0  0  0
   -1.5000    0.0000    0.0000 N   0  0  0  0  0  4  0  0  0  0  0  0
   -3.0000    0.0000    0.0000 C   0  0  0  0  0  0  0  0  0  0  0  0
   -3.7500    1.2990    0.0000 C   0  0  0  0  0  0  0  0  0  0  0  0
   -5.2418    1.4558    0.0000 C   0  0  0  0  0  0  0  0  0  0  0  0
   -5.5537    2.9231    0.0000 S   0  0  0  0  0  0  0  0  0  0  0  0
   -4.2546    3.6731    0.0000 C   0  0  0  0  0  0  0  0  0  0  0  0
   -4.0978    5.1648    0.0000 N   0  0  0  0  0  0  0  0  0  0  0  0
   -5.3113    6.0465    0.0000 S   0  0  0  0  0  0  0  0  0  0  0  0
   -6.1930    4.8330    0.0000 O   0  0  0  0  0  0  0  0  0  0  0  0
   -4.4297    7.2600    0.0000 O   0  0  0  0  0  0  0  0  0  0  0  0
   -6.5249    6.9282    0.0000 C   0  0  0  0  0  0  0  0  0  0  0  0
   -6.3681    8.4200    0.0000 C   0  0  0  0  0  0  0  0  0  0  0  0
   -7.5816    9.3017    0.0000 C   0  0  0  0  0  0  0  0  0  0  0  0
   -8.9519    8.6915    0.0000 C   0  0  0  0  0  0  0  0  0  0  0  0
  -10.1654    9.5732    0.0000 C   0  0  0  0  0  0  0  0  0  0  0  0
  -10.0087   11.0650    0.0000 C   0  0  0  0  0  0  0  0  0  0  0  0
  -11.2222   11.9467    0.0000 C   0  0  0  0  0  0  0  0  0  0  0  0
  -12.5925   11.3366    0.0000 O   0  0  0  0  0  0  0  0  0  0  0  0
  -11.0654   13.4385    0.0000 O   0  0  0  0  0  1  0  0  0  0  0  0
   -9.1087    7.1998    0.0000 C   0  0  0  0  0  0  0  0  0  0  0  0
   -7.8952    6.3181    0.0000 C   0  0  0  0  0  0  0  0  0  0  0  0
   -3.1399    2.6694    0.0000 N   0  0  0  0  0  0  0  0  0  0  0  0
   -0.7500    1.2990    0.0000 C   0  0  0  0  0  0  0  0  0  0  0  0
    0.7500    1.2990    0.0000 C   0  0  0  0  0  0  0  0  0  0  0  0
  1  2  1  0
  2  3  1  0
  3  4  1  0
  4  5  1  0
  5  6  1  0
  6  7  1  0
  7  8  2  0
  8  9  1  0
  9 10  1  0
 10 11  2  0
 11 12  1  0
 12 13  2  0
 12 14  2  0
 12 15  1  0
 15 16  2  0
 16 17  1  0
 17 18  2  0
 18 19  1  0
 19 20  1  0
 20 21  1  0
 21 22  2  0
 21 23  1  0
 18 24  1  0
 24 25  2  0
 10 26  1  0
  5 27  1  0
 27 28  1  0
 28  2  1  0
 26  7  1  0
 25 15  1  0
M  CHG  2   5   1  23  -1
M  END
>  <Compound_ID>  (1121) 
C13030581

>  <Active>  (1121) 
0.0

>  <Smiles>  (1121) 
CC1CC[NH+](Cc2cs/c(=N\S(=O)(=O)c3ccc(CCC(=O)[O-])cc3)[nH]2)CC1

>  <canonical_smi>  (1121) 
CC1CC[NH+](Cc2cs/c(=N\S(=O)(=O)c3ccc(CCC(=O)[O-])cc3)[nH]2)CC1

>  <Set>  (1121) 
G2 inactive

>  <Set_type>  (1121) 
Test

>  <MW>  (1121) 
423.56

>  <HBD>  (1121) 
2

>  <HBA>  (1121) 
4

>  <NRB>  (1121) 
7

>  <NR>  (1121) 
3

>  <NAR>  (1121) 
2

>  <PSA>  (1121) 
106.86

>  <Standard Type>  (1121) 
nan

>  <Standard Relation>  (1121) 
nan

>  <Standard Units>  (1121) 
nan

>  <Standard Value>  (1121) 
nan

>  <Assay ChEMBL ID>  (1121) 
nan

>  <Assay Description>  (1121) 
nan

>  <BAO Label>  (1121) 
nan

$$$$

     RDKit          2D

 31 34  0  0  0  0  0  0  0  0999 V2000
    3.7500   -1.2990    0.0000 C   0  0  0  0  0  0  0  0  0  0  0  0
    3.0000    0.0000    0.0000 O   0  0  0  0  0  0  0  0  0  0  0  0
    1.5000    0.0000    0.0000 C   0  0  0  0  0  0  0  0  0  0  0  0
    0.7500   -1.2990    0.0000 C   0  0  0  0  0  0  0  0  0  0  0  0
   -0.7500   -1.2990    0.0000 C   0  0  0  0  0  0  0  0  0  0  0  0
   -1.5000    0.0000    0.0000 C   0  0  0  0  0  0  0  0  0  0  0  0
   -3.0000    0.0000    0.0000 N   0  0  0  0  0  2  0  0  0  0  0  0
   -3.7500    1.2990    0.0000 S   0  0  0  0  0  0  0  0  0  0  0  0
   -2.4510    2.0490    0.0000 O   0  0  0  0  0  0  0  0  0  0  0  0
   -5.0490    0.5490    0.0000 O   0  0  0  0  0  0  0  0  0  0  0  0
   -4.5000    2.5981    0.0000 C   0  0  0  0  0  0  0  0  0  0  0  0
   -5.9918    2.7549    0.0000 C   0  0  0  0  0  0  0  0  0  0  0  0
   -6.3037    4.2221    0.0000 C   0  0  0  0  0  0  0  0  0  0  0  0
   -5.0046    4.9721    0.0000 C   0  0  0  0  0  0  0  0  0  0  0  0
   -4.8478    6.4639    0.0000 C   0  0  0  0  0  0  0  0  0  0  0  0
   -3.4775    7.0740    0.0000 C   0  0  0  0  0  0  0  0  0  0  0  0
   -3.3207    8.5658    0.0000 C   0  0  0  0  0  0  0  0  0  0  0  0
   -4.5342    9.4474    0.0000 C   0  0  0  0  0  0  0  0  0  0  0  0
   -5.9046    8.8373    0.0000 C   0  0  0  0  0  0  0  0  0  0  0  0
   -6.0613    7.3456    0.0000 N   0  0  0  0  0  0  0  0  0  0  0  0
   -3.8899    3.9684    0.0000 S   0  0  0  0  0  0  0  0  0  0  0  0
   -0.7500    1.2990    0.0000 C   0  0  0  0  0  0  0  0  0  0  0  0
    0.7500    1.2990    0.0000 C   0  0  0  0  0  0  0  0  0  0  0  0
    1.5000    2.5981    0.0000 N   0  0  0  0  0  0  0  0  0  0  0  0
    3.0000    2.5981    0.0000 C   0  0  0  0  0  0  0  0  0  0  0  0
    3.7500    3.8971    0.0000 C   0  0  0  0  0  0  0  0  0  0  0  0
    5.2500    3.8971    0.0000 C   0  0  0  0  0  0  0  0  0  0  0  0
    3.0000    5.1962    0.0000 N   0  0  0  0  0  4  0  0  0  0  0  0
    1.5000    5.1962    0.0000 C   0  0  0  0  0  0  0  0  0  0  0  0
    0.7500    6.4952    0.0000 C   0  0  0  0  0  0  0  0  0  0  0  0
    0.7500    3.8971    0.0000 C   0  0  0  0  0  0  0  0  0  0  0  0
  1  2  1  0
  2  3  1  0
  3  4  2  0
  4  5  1  0
  5  6  2  0
  6  7  1  0
  7  8  1  0
  8  9  2  0
  8 10  2  0
  8 11  1  0
 11 12  2  0
 12 13  1  0
 13 14  2  0
 14 15  1  0
 15 16  2  0
 16 17  1  0
 17 18  2  0
 18 19  1  0
 19 20  2  0
 14 21  1  0
  6 22  1  0
 22 23  2  0
 23 24  1  0
 24 25  1  0
 25 26  1  0
 26 27  1  6
 26 28  1  0
 28 29  1  0
 29 30  1  6
 29 31  1  0
 23  3  1  0
 31 24  1  0
 21 11  1  0
 20 15  1  0
M  CHG  2   7  -1  28   1
M  END
>  <Compound_ID>  (1122) 
C29124821

>  <Active>  (1122) 
0.0

>  <Smiles>  (1122) 
COc1ccc([N-]S(=O)(=O)c2ccc(-c3ccccn3)s2)cc1N1C[C@@H](C)[NH2+][C@@H](C)C1

>  <canonical_smi>  (1122) 
COc1ccc([N-]S(=O)(=O)c2ccc(-c3ccccn3)s2)cc1N1C[C@H](C)[NH2+][C@H](C)C1

>  <Set>  (1122) 
G2 inactive

>  <Set_type>  (1122) 
Test

>  <MW>  (1122) 
458.61

>  <HBD>  (1122) 
1

>  <HBA>  (1122) 
5

>  <NRB>  (1122) 
6

>  <NR>  (1122) 
4

>  <NAR>  (1122) 
3

>  <PSA>  (1122) 
90.21

>  <Standard Type>  (1122) 
nan

>  <Standard Relation>  (1122) 
nan

>  <Standard Units>  (1122) 
nan

>  <Standard Value>  (1122) 
nan

>  <Assay ChEMBL ID>  (1122) 
nan

>  <Assay Description>  (1122) 
nan

>  <BAO Label>  (1122) 
nan

$$$$

     RDKit          2D

 31 33  0  0  0  0  0  0  0  0999 V2000
    6.5490    0.5490    0.0000 C   0  0  0  0  0  0  0  0  0  0  0  0
    5.2500    1.2990    0.0000 C   0  0  0  0  0  0  0  0  0  0  0  0
    3.9510    2.0490    0.0000 C   0  0  0  0  0  0  0  0  0  0  0  0
    6.0000    2.5981    0.0000 C   0  0  0  0  0  0  0  0  0  0  0  0
    4.5000    0.0000    0.0000 N   0  0  0  0  0  0  0  0  0  0  0  0
    3.0000    0.0000    0.0000 S   0  0  0  0  0  0  0  0  0  0  0  0
    3.0000   -1.5000    0.0000 O   0  0  0  0  0  0  0  0  0  0  0  0
    3.0000    1.5000    0.0000 O   0  0  0  0  0  0  0  0  0  0  0  0
    1.5000    0.0000    0.0000 C   0  0  0  0  0  0  0  0  0  0  0  0
    0.7500   -1.2990    0.0000 C   0  0  0  0  0  0  0  0  0  0  0  0
   -0.7500   -1.2990    0.0000 C   0  0  0  0  0  0  0  0  0  0  0  0
   -1.5000    0.0000    0.0000 C   0  0  0  0  0  0  0  0  0  0  0  0
   -0.7500    1.2990    0.0000 C   0  0  0  0  0  0  0  0  0  0  0  0
    0.7500    1.2990    0.0000 C   0  0  0  0  0  0  0  0  0  0  0  0
   -1.5000    2.5981    0.0000 O   0  0  0  0  0  0  0  0  0  0  0  0
   -3.0000    2.5981    0.0000 C   0  0  0  0  0  0  0  0  0  0  0  0
   -3.7500    3.8971    0.0000 O   0  0  0  0  0  0  0  0  0  0  0  0
   -3.7500    1.2990    0.0000 C   0  0  0  0  0  0  0  0  0  0  0  0
   -5.2500    1.2990    0.0000 C   0  0  0  0  0  0  0  0  0  0  0  0
   -6.0000    0.0000    0.0000 C   0  0  0  0  0  0  0  0  0  0  0  0
   -7.5000    0.0000    0.0000 S   0  0  0  0  0  0  0  0  0  0  0  0
   -7.5000    1.5000    0.0000 O   0  0  0  0  0  0  0  0  0  0  0  0
   -7.5000   -1.5000    0.0000 O   0  0  0  0  0  0  0  0  0  0  0  0
   -9.0000   -0.0000    0.0000 N   0  0  0  0  0  0  0  0  0  0  0  0
   -9.7500   -1.2990    0.0000 C   0  0  0  0  0  0  0  0  0  0  0  0
  -11.0490   -0.5490    0.0000 C   0  0  0  0  0  0  0  0  0  0  0  0
   -8.4510   -2.0490    0.0000 C   0  0  0  0  0  0  0  0  0  0  0  0
  -10.5000   -2.5981    0.0000 C   0  0  0  0  0  0  0  0  0  0  0  0
   -5.2500   -1.2990    0.0000 C   0  0  0  0  0  0  0  0  0  0  0  0
   -3.7500   -1.2990    0.0000 C   0  0  0  0  0  0  0  0  0  0  0  0
   -3.0000    0.0000    0.0000 C   0  0  0  0  0  0  0  0  0  0  0  0
  1  2  1  0
  2  3  1  0
  2  4  1  0
  2  5  1  0
  5  6  1  0
  6  7  2  0
  6  8  2  0
  6  9  1  0
  9 10  2  0
 10 11  1  0
 11 12  2  0
 12 13  1  0
 13 14  2  0
 13 15  1  0
 15 16  1  0
 16 17  2  0
 16 18  1  0
 18 19  2  0
 19 20  1  0
 20 21  1  0
 21 22  2  0
 21 23  2  0
 21 24  1  0
 24 25  1  0
 25 26  1  0
 25 27  1  0
 25 28  1  0
 20 29  2  0
 29 30  1  0
 30 31  2  0
 14  9  1  0
 31 18  1  0
 31 12  1  0
M  END
>  <Compound_ID>  (1123) 
C02478049

>  <Active>  (1123) 
0.0

>  <Smiles>  (1123) 
CC(C)(C)NS(=O)(=O)c1ccc2c(c1)oc(=O)c1cc(S(=O)(=O)NC(C)(C)C)ccc12

>  <canonical_smi>  (1123) 
CC(C)(C)NS(=O)(=O)c1ccc2c(c1)oc(=O)c1cc(S(=O)(=O)NC(C)(C)C)ccc12

>  <Set>  (1123) 
G2 inactive

>  <Set_type>  (1123) 
Test

>  <MW>  (1123) 
466.58

>  <HBD>  (1123) 
2

>  <HBA>  (1123) 
6

>  <NRB>  (1123) 
4

>  <NR>  (1123) 
3

>  <NAR>  (1123) 
3

>  <PSA>  (1123) 
122.55

>  <Standard Type>  (1123) 
nan

>  <Standard Relation>  (1123) 
nan

>  <Standard Units>  (1123) 
nan

>  <Standard Value>  (1123) 
nan

>  <Assay ChEMBL ID>  (1123) 
nan

>  <Assay Description>  (1123) 
nan

>  <BAO Label>  (1123) 
nan

$$$$

     RDKit          2D

 31 34  0  0  0  0  0  0  0  0999 V2000
    6.9240   -6.1312    0.0000 C   0  0  0  0  0  0  0  0  0  0  0  0
    5.5537   -5.5211    0.0000 C   0  0  0  0  0  0  0  0  0  0  0  0
    5.2418   -4.0539    0.0000 C   0  0  0  0  0  0  0  0  0  0  0  0
    3.7500   -3.8971    0.0000 C   0  0  0  0  0  0  0  0  0  0  0  0
    3.0000   -2.5981    0.0000 C   0  0  0  0  0  0  0  0  0  0  0  0
    3.7500   -1.2990    0.0000 O   0  0  0  0  0  0  0  0  0  0  0  0
    1.5000   -2.5981    0.0000 N   0  0  0  0  0  0  0  0  0  0  0  0
    0.7500   -1.2990    0.0000 C   0  0  0  0  0  0  0  0  0  0  0  0
    1.5000    0.0000    0.0000 C   0  0  0  0  0  0  0  0  0  0  0  0
    0.7500    1.2990    0.0000 C   0  0  0  0  0  0  0  0  0  0  0  0
   -0.7500    1.2990    0.0000 C   0  0  0  0  0  0  0  0  0  0  0  0
   -1.5000    0.0000    0.0000 C   0  0  0  0  0  0  0  0  0  0  0  0
   -0.7500   -1.2990    0.0000 C   0  0  0  0  0  0  0  0  0  0  0  0
   -1.5000   -2.5981    0.0000 C   0  0  0  0  0  0  0  0  0  0  0  0
   -3.0000   -2.5981    0.0000 N   0  0  0  0  0  4  0  0  0  0  0  0
   -3.7500   -3.8971    0.0000 C   0  0  0  0  0  0  0  0  0  0  0  0
   -3.7500   -1.2990    0.0000 C   0  0  0  0  0  0  0  0  0  0  0  0
   -3.0000    0.0000    0.0000 C   0  0  0  0  0  0  0  0  0  0  0  0
   -3.7500    1.2990    0.0000 C   0  0  0  0  0  0  0  0  0  0  0  0
   -5.2500    1.2990    0.0000 C   0  0  0  0  0  0  0  0  0  0  0  0
   -6.0000    0.0000    0.0000 C   0  0  0  0  0  0  0  0  0  0  0  0
   -5.2500   -1.2990    0.0000 C   0  0  0  0  0  0  0  0  0  0  0  0
    3.1399   -5.2674    0.0000 C   0  0  0  0  0  0  0  0  0  0  0  0
    1.6727   -5.5793    0.0000 C   0  0  0  0  0  0  0  0  0  0  0  0
    4.2546   -6.2711    0.0000 N   0  0  0  0  0  0  0  0  0  0  0  0
    4.0978   -7.7629    0.0000 C   0  0  0  0  0  0  0  0  0  0  0  0
    2.7275   -8.3730    0.0000 C   0  0  0  0  0  0  0  0  0  0  0  0
    2.4156   -9.8402    0.0000 C   0  0  0  0  0  0  0  0  0  0  0  0
    0.9239   -9.9970    0.0000 C   0  0  0  0  0  0  0  0  0  0  0  0
    0.3137   -8.6267    0.0000 C   0  0  0  0  0  0  0  0  0  0  0  0
    1.4285   -7.6230    0.0000 O   0  0  0  0  0  0  0  0  0  0  0  0
  1  2  1  0
  2  3  2  0
  3  4  1  0
  4  5  1  0
  5  6  2  0
  5  7  1  0
  7  8  1  0
  8  9  2  0
  9 10  1  0
 10 11  2  0
 11 12  1  0
 12 13  2  0
 13 14  1  0
 14 15  1  0
 15 16  1  0
 15 17  1  0
 17 18  1  0
 18 19  1  0
 19 20  1  0
 20 21  1  0
 21 22  1  0
  4 23  2  0
 23 24  1  0
 23 25  1  0
 25 26  1  0
 26 27  1  0
 27 28  2  0
 28 29  1  0
 29 30  2  0
 30 31  1  0
 25  2  1  0
 31 27  1  0
 13  8  1  0
 22 17  1  0
M  CHG  1  15   1
M  END
>  <Compound_ID>  (1124) 
C36751171

>  <Active>  (1124) 
0.0

>  <Smiles>  (1124) 
Cc1cc(C(=O)Nc2ccccc2C[NH+](C)C2CCCCC2)c(C)n1Cc1ccco1

>  <canonical_smi>  (1124) 
Cc1cc(C(=O)Nc2ccccc2C[NH+](C)C2CCCCC2)c(C)n1Cc1ccco1

>  <Set>  (1124) 
G2 inactive

>  <Set_type>  (1124) 
Test

>  <MW>  (1124) 
420.58

>  <HBD>  (1124) 
2

>  <HBA>  (1124) 
2

>  <NRB>  (1124) 
7

>  <NR>  (1124) 
4

>  <NAR>  (1124) 
3

>  <PSA>  (1124) 
51.61

>  <Standard Type>  (1124) 
nan

>  <Standard Relation>  (1124) 
nan

>  <Standard Units>  (1124) 
nan

>  <Standard Value>  (1124) 
nan

>  <Assay ChEMBL ID>  (1124) 
nan

>  <Assay Description>  (1124) 
nan

>  <BAO Label>  (1124) 
nan

$$$$

     RDKit          2D

 17 18  0  0  0  0  0  0  0  0999 V2000
    0.4022   -7.7629    0.0000 C   0  0  0  0  0  0  0  0  0  0  0  0
    0.2454   -6.2711    0.0000 C   0  0  0  0  0  0  0  0  0  0  0  0
   -1.0537   -5.5211    0.0000 N   0  0  0  0  0  0  0  0  0  0  0  0
   -0.7418   -4.0539    0.0000 N   0  0  0  0  0  0  0  0  0  0  0  0
    0.7500   -3.8971    0.0000 C   0  0  0  0  0  0  0  0  0  0  0  0
    1.5000   -2.5981    0.0000 C   0  0  0  0  0  0  0  0  0  0  0  0
    3.0000   -2.5981    0.0000 O   0  0  0  0  0  0  0  0  0  0  0  0
    0.7500   -1.2990    0.0000 N   0  0  0  0  0  0  0  0  0  0  0  0
    1.5000    0.0000    0.0000 C   0  0  0  0  0  0  0  0  0  0  0  0
    3.0000    0.0000    0.0000 C   0  0  0  0  0  0  0  0  0  0  0  0
    0.7500    1.2990    0.0000 C   0  0  0  0  0  0  0  0  0  0  0  0
   -0.7500    1.2990    0.0000 C   0  0  0  0  0  0  0  0  0  0  0  0
   -1.5000    0.0000    0.0000 C   0  0  0  0  0  0  0  0  0  0  0  0
   -0.7500   -1.2990    0.0000 C   0  0  0  0  0  0  0  0  0  0  0  0
   -1.5000   -2.5981    0.0000 C   0  0  0  0  0  0  0  0  0  0  0  0
    1.3601   -5.2674    0.0000 C   0  0  0  0  0  0  0  0  0  0  0  0
    2.8273   -5.5793    0.0000 N   0  0  0  0  0  0  0  0  0  0  0  0
  1  2  1  0
  2  3  1  0
  3  4  1  0
  4  5  2  0
  5  6  1  0
  6  7  2  0
  6  8  1  0
  8  9  1  0
  9 10  1  1
  9 11  1  0
 11 12  1  0
 12 13  1  0
 13 14  1  0
 14 15  1  6
  5 16  1  0
 16 17  1  0
 16  2  2  0
 14  8  1  0
M  END
>  <Compound_ID>  (1125) 
C50305373

>  <Active>  (1125) 
0.0

>  <Smiles>  (1125) 
Cc1[nH]nc(C(=O)N2[C@H](C)CCC[C@H]2C)c1N

>  <canonical_smi>  (1125) 
Cc1[nH]nc(C(=O)N2[C@H](C)CCC[C@H]2C)c1N

>  <Set>  (1125) 
G2 inactive

>  <Set_type>  (1125) 
Test

>  <MW>  (1125) 
236.32

>  <HBD>  (1125) 
2

>  <HBA>  (1125) 
3

>  <NRB>  (1125) 
1

>  <NR>  (1125) 
2

>  <NAR>  (1125) 
1

>  <PSA>  (1125) 
75.01

>  <Standard Type>  (1125) 
nan

>  <Standard Relation>  (1125) 
nan

>  <Standard Units>  (1125) 
nan

>  <Standard Value>  (1125) 
nan

>  <Assay ChEMBL ID>  (1125) 
nan

>  <Assay Description>  (1125) 
nan

>  <BAO Label>  (1125) 
nan

$$$$

     RDKit          2D

 22 23  0  0  0  0  0  0  0  0999 V2000
    3.0000   -5.1962    0.0000 C   0  0  0  0  0  0  0  0  0  0  0  0
    1.5000   -5.1962    0.0000 C   0  0  0  0  0  0  0  0  0  0  0  0
    0.7500   -3.8971    0.0000 C   0  0  0  0  0  0  0  0  0  0  0  0
    1.5000   -2.5981    0.0000 C   0  0  0  0  0  0  0  0  0  0  0  0
    0.7500   -1.2990    0.0000 C   0  0  0  0  0  0  0  0  0  0  0  0
    1.5000    0.0000    0.0000 C   0  0  0  0  0  0  0  0  0  0  0  0
    0.7500    1.2990    0.0000 C   0  0  0  0  0  0  0  0  0  0  0  0
   -0.7500    1.2990    0.0000 C   0  0  0  0  0  0  0  0  0  0  0  0
   -1.5000    0.0000    0.0000 C   0  0  0  0  0  0  0  0  0  0  0  0
   -0.7500   -1.2990    0.0000 C   0  0  0  0  0  0  0  0  0  0  0  0
    0.7500   -6.4952    0.0000 N   0  0  0  0  0  0  0  0  0  0  0  0
   -0.7500   -6.4952    0.0000 N   0  0  0  0  0  0  0  0  0  0  0  0
   -1.5000   -7.7942    0.0000 S   0  0  0  0  0  0  0  0  0  0  0  0
   -0.2010   -8.5442    0.0000 O   0  0  0  0  0  0  0  0  0  0  0  0
   -2.7990   -7.0442    0.0000 O   0  0  0  0  0  0  0  0  0  0  0  0
   -2.2500   -9.0933    0.0000 C   0  0  0  0  0  0  0  0  0  0  0  0
   -3.7500   -9.0933    0.0000 C   0  0  0  0  0  0  0  0  0  0  0  0
   -4.5000  -10.3923    0.0000 C   0  0  0  0  0  0  0  0  0  0  0  0
   -3.7500  -11.6913    0.0000 C   0  0  0  0  0  0  0  0  0  0  0  0
   -4.5000  -12.9904    0.0000 N   0  0  0  0  0  0  0  0  0  0  0  0
   -2.2500  -11.6913    0.0000 C   0  0  0  0  0  0  0  0  0  0  0  0
   -1.5000  -10.3923    0.0000 C   0  0  0  0  0  0  0  0  0  0  0  0
  1  2  1  0
  2  3  1  0
  3  4  2  0
  4  5  1  0
  5  6  2  0
  6  7  1  0
  7  8  2  0
  8  9  1  0
  9 10  2  0
  2 11  2  0
 11 12  1  0
 12 13  1  0
 13 14  2  0
 13 15  2  0
 13 16  1  0
 16 17  2  0
 17 18  1  0
 18 19  2  0
 19 20  1  0
 19 21  1  0
 21 22  2  0
 10  5  1  0
 22 16  1  0
M  END
>  <Compound_ID>  (1126) 
C04367064

>  <Active>  (1126) 
0.0

>  <Smiles>  (1126) 
CC(/C=C/c1ccccc1)=N/NS(=O)(=O)c1ccc(N)cc1

>  <canonical_smi>  (1126) 
CC(/C=C/c1ccccc1)=N/NS(=O)(=O)c1ccc(N)cc1

>  <Set>  (1126) 
G2 inactive

>  <Set_type>  (1126) 
Test

>  <MW>  (1126) 
315.4

>  <HBD>  (1126) 
2

>  <HBA>  (1126) 
3

>  <NRB>  (1126) 
5

>  <NR>  (1126) 
2

>  <NAR>  (1126) 
2

>  <PSA>  (1126) 
84.55

>  <Standard Type>  (1126) 
nan

>  <Standard Relation>  (1126) 
nan

>  <Standard Units>  (1126) 
nan

>  <Standard Value>  (1126) 
nan

>  <Assay ChEMBL ID>  (1126) 
nan

>  <Assay Description>  (1126) 
nan

>  <BAO Label>  (1126) 
nan

$$$$

     RDKit          2D

 33 37  0  0  0  0  0  0  0  0999 V2000
    4.6741    2.6041    0.0000 O   0  0  0  0  0  0  0  0  0  0  0  0
    4.9859    4.0713    0.0000 C   0  0  0  0  0  0  0  0  0  0  0  0
    6.4125    4.5348    0.0000 C   0  0  0  0  0  0  0  0  0  0  0  0
    7.5272    3.5312    0.0000 C   0  0  0  0  0  0  0  0  0  0  0  0
    8.9538    3.9947    0.0000 C   0  0  0  0  0  0  0  0  0  0  0  0
   10.0685    2.9910    0.0000 C   0  0  0  0  0  0  0  0  0  0  0  0
   11.4951    3.4545    0.0000 C   0  0  0  0  0  0  0  0  0  0  0  0
   11.8070    4.9217    0.0000 C   0  0  0  0  0  0  0  0  0  0  0  0
   10.6923    5.9254    0.0000 C   0  0  0  0  0  0  0  0  0  0  0  0
    9.2657    5.4619    0.0000 C   0  0  0  0  0  0  0  0  0  0  0  0
    3.8712    5.0750    0.0000 N   0  0  0  0  0  0  0  0  0  0  0  0
    2.4446    4.6115    0.0000 C   0  0  0  0  0  0  0  0  0  0  0  0
    1.3299    5.6152    0.0000 C   0  0  0  0  0  0  0  0  0  0  0  0
   -0.0967    5.1517    0.0000 C   0  0  0  0  0  0  0  0  0  0  0  0
   -0.4086    3.6844    0.0000 C   0  0  0  0  0  0  0  0  0  0  0  0
    0.7062    2.6807    0.0000 C   0  0  0  0  0  0  0  0  0  0  0  0
    2.1328    3.1443    0.0000 C   0  0  0  0  0  0  0  0  0  0  0  0
    0.3943    1.2135    0.0000 C   0  0  0  0  0  0  0  0  0  0  0  0
    1.2760    0.0000    0.0000 C   0  0  0  0  0  0  0  0  0  0  0  0
    0.3943   -1.2135    0.0000 C   0  0  0  0  0  0  0  0  0  0  0  0
   -1.0323   -0.7500    0.0000 C   0  0  0  0  0  0  0  0  0  0  0  0
   -1.0323    0.7500    0.0000 C   0  0  0  0  0  0  0  0  0  0  0  0
   -2.1470    1.7537    0.0000 C   0  0  0  0  0  0  0  0  0  0  0  0
   -3.5736    1.2902    0.0000 C   0  0  0  0  0  0  0  0  0  0  0  0
   -4.6883    2.2939    0.0000 C   0  0  0  0  0  0  0  0  0  0  0  0
   -6.1149    1.8303    0.0000 C   0  0  0  0  0  0  0  0  0  0  0  0
   -6.4268    0.3631    0.0000 C   0  0  0  0  0  0  0  0  0  0  0  0
   -5.3120   -0.6406    0.0000 C   0  0  0  0  0  0  0  0  0  0  0  0
   -5.6239   -2.1078    0.0000 N   0  0  0  0  0  4  0  0  0  0  0  0
   -4.5092   -3.1115    0.0000 O   0  0  0  0  0  0  0  0  0  0  0  0
   -7.0505   -2.5713    0.0000 O   0  0  0  0  0  1  0  0  0  0  0  0
   -3.8855   -0.1771    0.0000 C   0  0  0  0  0  0  0  0  0  0  0  0
   -1.8351    3.2209    0.0000 N   0  0  0  0  0  0  0  0  0  0  0  0
  1  2  2  0
  2  3  1  0
  3  4  1  0
  4  5  1  0
  5  6  2  0
  6  7  1  0
  7  8  2  0
  8  9  1  0
  9 10  2  0
  2 11  1  0
 11 12  1  0
 12 13  2  0
 13 14  1  0
 14 15  2  0
 15 16  1  0
 16 17  2  0
 16 18  1  0
 18 19  1  1
 19 20  2  0
 20 21  1  0
 22 21  1  6
 22 23  1  0
 23 24  1  6
 24 25  2  0
 25 26  1  0
 26 27  2  0
 27 28  1  0
 28 29  1  0
 29 30  2  0
 29 31  1  0
 28 32  2  0
 23 33  1  0
 10  5  1  0
 17 12  1  0
 22 18  1  0
 32 24  1  0
 33 15  1  0
M  CHG  2  29   1  31  -1
M  END
>  <Compound_ID>  (1127) 
C14472467

>  <Active>  (1127) 
0.0

>  <Smiles>  (1127) 
O=C(CCc1ccccc1)Nc1ccc2c(c1)[C@H]1C=CC[C@@H]1[C@H](c1cccc([N+](=O)[O-])c1)N2

>  <canonical_smi>  (1127) 
O=C(CCc1ccccc1)Nc1ccc2c(c1)[C@H]1C=CC[C@@H]1[C@H](c1cccc([N+](=O)[O-])c1)N2

>  <Set>  (1127) 
G2 inactive

>  <Set_type>  (1127) 
Test

>  <MW>  (1127) 
439.52

>  <HBD>  (1127) 
2

>  <HBA>  (1127) 
4

>  <NRB>  (1127) 
6

>  <NR>  (1127) 
5

>  <NAR>  (1127) 
3

>  <PSA>  (1127) 
84.27

>  <Standard Type>  (1127) 
nan

>  <Standard Relation>  (1127) 
nan

>  <Standard Units>  (1127) 
nan

>  <Standard Value>  (1127) 
nan

>  <Assay ChEMBL ID>  (1127) 
nan

>  <Assay Description>  (1127) 
nan

>  <BAO Label>  (1127) 
nan

$$$$

     RDKit          2D

 30 33  0  0  0  0  0  0  0  0999 V2000
    3.0000    0.0000    0.0000 N   0  0  0  0  0  2  0  0  0  0  0  0
    1.5000    0.0000    0.0000 C   0  0  0  0  0  0  0  0  0  0  0  0
    0.7500   -1.2990    0.0000 N   0  0  0  0  0  0  0  0  0  0  0  0
   -0.7500   -1.2990    0.0000 C   0  0  0  0  0  0  0  0  0  0  0  0
   -1.5000   -2.5981    0.0000 O   0  0  0  0  0  0  0  0  0  0  0  0
   -1.5000    0.0000    0.0000 C   0  0  0  0  0  0  0  0  0  0  0  0
   -2.9672    0.3119    0.0000 N   0  0  0  0  0  0  0  0  0  0  0  0
   -3.1240    1.8037    0.0000 C   0  0  0  0  0  0  0  0  0  0  0  0
   -4.4231    2.5537    0.0000 N   0  0  0  0  0  0  0  0  0  0  0  0
   -4.4231    4.0537    0.0000 N   0  0  0  0  0  0  0  0  0  0  0  0
   -5.7221    4.8037    0.0000 C   0  0  0  0  0  0  0  0  0  0  0  0
   -5.7221    6.3037    0.0000 C   0  0  0  0  0  0  0  0  0  0  0  0
   -4.4231    7.0537    0.0000 C   0  0  0  0  0  0  0  0  0  0  0  0
   -4.4231    8.5537    0.0000 C   0  0  0  0  0  0  0  0  0  0  0  0
   -5.7221    9.3037    0.0000 C   0  0  0  0  0  0  0  0  0  0  0  0
   -5.7221   10.8037    0.0000 Br  0  0  0  0  0  0  0  0  0  0  0  0
   -7.0211    8.5537    0.0000 C   0  0  0  0  0  0  0  0  0  0  0  0
   -7.0211    7.0537    0.0000 C   0  0  0  0  0  0  0  0  0  0  0  0
   -1.7537    2.4138    0.0000 N   0  0  0  0  0  0  0  0  0  0  0  0
   -1.4418    3.8810    0.0000 C   0  0  0  0  0  0  0  0  0  0  0  0
   -2.4455    4.9957    0.0000 O   0  0  0  0  0  0  0  0  0  0  0  0
   -1.6955    6.2947    0.0000 C   0  0  0  0  0  0  0  0  0  0  0  0
   -2.3056    7.6651    0.0000 C   0  0  0  0  0  0  0  0  0  0  0  0
   -1.4240    8.8786    0.0000 O   0  0  0  0  0  0  0  0  0  0  0  0
   -0.2283    5.9829    0.0000 C   0  0  0  0  0  0  0  0  0  0  0  0
    0.8864    6.9866    0.0000 O   0  0  0  0  0  0  0  0  0  0  0  0
   -0.0715    4.4911    0.0000 C   0  0  0  0  0  0  0  0  0  0  0  0
    1.2275    3.7411    0.0000 O   0  0  0  0  0  0  0  0  0  0  0  0
   -0.7500    1.2990    0.0000 C   0  0  0  0  0  0  0  0  0  0  0  0
    0.7500    1.2990    0.0000 N   0  0  0  0  0  0  0  0  0  0  0  0
  1  2  1  0
  2  3  2  0
  3  4  1  0
  4  5  2  0
  4  6  1  0
  6  7  2  0
  7  8  1  0
  8  9  1  6
  9 10  1  0
 10 11  2  0
 11 12  1  0
 12 13  2  0
 13 14  1  0
 14 15  2  0
 15 16  1  0
 15 17  1  0
 17 18  2  0
  8 19  1  0
 20 19  1  1
 20 21  1  0
 21 22  1  0
 22 23  1  1
 23 24  1  0
 22 25  1  0
 25 26  1  1
 25 27  1  0
 27 28  1  1
 19 29  1  0
 29 30  2  0
 30  2  1  0
 29  6  1  0
 18 12  1  0
 27 20  1  0
M  CHG  1   1  -1
M  END
>  <Compound_ID>  (1128) 
C39774490

>  <Active>  (1128) 
0.0

>  <Smiles>  (1128) 
[NH-]C1=NC(=O)C2=N[C@H](N/N=C/c3ccc(Br)cc3)N([C@H]3O[C@@H](CO)[C@@H](O)[C@H]3O)C2=N1

>  <canonical_smi>  (1128) 
[NH-]C1=NC(=O)C2=N[C@H](N/N=C/c3ccc(Br)cc3)N([C@H]3O[C@@H](CO)[C@@H](O)[C@H]3O)C2=N1

>  <Set>  (1128) 
G2 inactive

>  <Set_type>  (1128) 
Test

>  <MW>  (1128) 
479.27

>  <HBD>  (1128) 
4

>  <HBA>  (1128) 
7

>  <NRB>  (1128) 
5

>  <NR>  (1128) 
4

>  <NAR>  (1128) 
1

>  <PSA>  (1128) 
175.5

>  <Standard Type>  (1128) 
nan

>  <Standard Relation>  (1128) 
nan

>  <Standard Units>  (1128) 
nan

>  <Standard Value>  (1128) 
nan

>  <Assay ChEMBL ID>  (1128) 
nan

>  <Assay Description>  (1128) 
nan

>  <BAO Label>  (1128) 
nan

$$$$

     RDKit          2D

 20 21  0  0  0  0  0  0  0  0999 V2000
    1.5000   -5.1962    0.0000 C   0  0  0  0  0  0  0  0  0  0  0  0
    0.7500   -3.8971    0.0000 N   0  0  0  0  0  4  0  0  0  0  0  0
   -0.7500   -3.8971    0.0000 C   0  0  0  0  0  0  0  0  0  0  0  0
   -1.5000   -5.1962    0.0000 C   0  0  0  0  0  0  0  0  0  0  0  0
   -0.8899   -6.5665    0.0000 C   0  0  0  0  0  0  0  0  0  0  0  0
   -2.0046   -7.5702    0.0000 S   0  0  0  0  0  0  0  0  0  0  0  0
   -3.3037   -6.8202    0.0000 C   0  0  0  0  0  0  0  0  0  0  0  0
   -4.6740   -7.4303    0.0000 Br  0  0  0  0  0  0  0  0  0  0  0  0
   -2.9918   -5.3529    0.0000 C   0  0  0  0  0  0  0  0  0  0  0  0
    1.5000   -2.5981    0.0000 C   0  0  0  0  0  0  0  0  0  0  0  0
    0.7500   -1.2990    0.0000 C   0  0  0  0  0  0  0  0  0  0  0  0
    1.5000    0.0000    0.0000 C   0  0  0  0  0  0  0  0  0  0  0  0
    0.7500    1.2990    0.0000 C   0  0  0  0  0  0  0  0  0  0  0  0
   -0.7500    1.2990    0.0000 C   0  0  0  0  0  0  0  0  0  0  0  0
   -1.5000    2.5981    0.0000 C   0  0  0  0  0  0  0  0  0  0  0  0
   -0.7500    3.8971    0.0000 N   0  0  0  0  0  0  0  0  0  0  0  0
   -3.0000    2.5981    0.0000 S   0  0  0  0  0  0  0  0  0  0  0  0
   -1.5000    0.0000    0.0000 C   0  0  0  0  0  0  0  0  0  0  0  0
   -0.7500   -1.2990    0.0000 C   0  0  0  0  0  0  0  0  0  0  0  0
   -1.5000   -2.5981    0.0000 F   0  0  0  0  0  0  0  0  0  0  0  0
  1  2  1  0
  2  3  1  0
  3  4  1  0
  4  5  2  0
  5  6  1  0
  6  7  1  0
  7  8  1  0
  7  9  2  0
  2 10  1  0
 10 11  1  0
 11 12  2  0
 12 13  1  0
 13 14  2  0
 14 15  1  0
 15 16  1  0
 15 17  2  0
 14 18  1  0
 18 19  2  0
 19 20  1  0
  9  4  1  0
 19 11  1  0
M  CHG  1   2   1
M  END
>  <Compound_ID>  (1129) 
C42362349

>  <Active>  (1129) 
0.0

>  <Smiles>  (1129) 
C[NH+](Cc1csc(Br)c1)Cc1ccc(C(N)=S)cc1F

>  <canonical_smi>  (1129) 
C[NH+](Cc1csc(Br)c1)Cc1ccc(C(N)=S)cc1F

>  <Set>  (1129) 
G2 inactive

>  <Set_type>  (1129) 
Test

>  <MW>  (1129) 
374.32

>  <HBD>  (1129) 
2

>  <HBA>  (1129) 
2

>  <NRB>  (1129) 
5

>  <NR>  (1129) 
2

>  <NAR>  (1129) 
2

>  <PSA>  (1129) 
30.46

>  <Standard Type>  (1129) 
nan

>  <Standard Relation>  (1129) 
nan

>  <Standard Units>  (1129) 
nan

>  <Standard Value>  (1129) 
nan

>  <Assay ChEMBL ID>  (1129) 
nan

>  <Assay Description>  (1129) 
nan

>  <BAO Label>  (1129) 
nan

$$$$

     RDKit          2D

 20 21  0  0  0  0  0  0  0  0999 V2000
    3.0000    0.0000    0.0000 C   0  0  0  0  0  0  0  0  0  0  0  0
    1.5000    0.0000    0.0000 C   0  0  0  0  0  0  0  0  0  0  0  0
    0.7500   -1.2990    0.0000 C   0  0  0  0  0  0  0  0  0  0  0  0
   -0.7500   -1.2990    0.0000 C   0  0  0  0  0  0  0  0  0  0  0  0
   -1.5000   -2.5981    0.0000 C   0  0  0  0  0  0  0  0  0  0  0  0
   -1.5000    0.0000    0.0000 C   0  0  0  0  0  0  0  0  0  0  0  0
   -0.7500    1.2990    0.0000 C   0  0  0  0  0  0  0  0  0  0  0  0
   -1.5000    2.5981    0.0000 C   0  0  0  0  0  0  0  0  0  0  0  0
   -0.7500    3.8971    0.0000 C   0  0  0  0  0  0  0  0  0  0  0  0
   -1.5000    5.1962    0.0000 N   0  0  0  0  0  4  0  0  0  0  0  0
   -3.0000    2.5981    0.0000 N   0  0  0  0  0  0  0  0  0  0  0  0
   -3.7500    3.8971    0.0000 C   0  0  0  0  0  0  0  0  0  0  0  0
   -3.7500    1.2990    0.0000 C   0  0  0  0  0  0  0  0  0  0  0  0
   -5.2500    1.2990    0.0000 C   0  0  0  0  0  0  0  0  0  0  0  0
   -6.1317    0.0855    0.0000 C   0  0  0  0  0  0  0  0  0  0  0  0
   -7.5583    0.5490    0.0000 C   0  0  0  0  0  0  0  0  0  0  0  0
   -8.7718   -0.3326    0.0000 Br  0  0  0  0  0  0  0  0  0  0  0  0
   -7.5583    2.0490    0.0000 C   0  0  0  0  0  0  0  0  0  0  0  0
   -6.1317    2.5126    0.0000 S   0  0  0  0  0  0  0  0  0  0  0  0
    0.7500    1.2990    0.0000 C   0  0  0  0  0  0  0  0  0  0  0  0
  1  2  1  0
  2  3  2  0
  3  4  1  0
  4  5  1  0
  4  6  2  0
  6  7  1  0
  7  8  1  0
  8  9  1  1
  9 10  1  0
  8 11  1  0
 11 12  1  0
 11 13  1  0
 13 14  1  0
 14 15  2  0
 15 16  1  0
 16 17  1  0
 16 18  2  0
 18 19  1  0
  7 20  2  0
 20  2  1  0
 19 14  1  0
M  CHG  1  10   1
M  END
>  <Compound_ID>  (1130) 
C43394460

>  <Active>  (1130) 
0.0

>  <Smiles>  (1130) 
Cc1cc(C)cc([C@H](C[NH3+])N(C)Cc2cc(Br)cs2)c1

>  <canonical_smi>  (1130) 
Cc1cc(C)cc([C@H](C[NH3+])N(C)Cc2cc(Br)cs2)c1

>  <Set>  (1130) 
G2 inactive

>  <Set_type>  (1130) 
Test

>  <MW>  (1130) 
354.34

>  <HBD>  (1130) 
1

>  <HBA>  (1130) 
1

>  <NRB>  (1130) 
5

>  <NR>  (1130) 
2

>  <NAR>  (1130) 
2

>  <PSA>  (1130) 
30.88

>  <Standard Type>  (1130) 
nan

>  <Standard Relation>  (1130) 
nan

>  <Standard Units>  (1130) 
nan

>  <Standard Value>  (1130) 
nan

>  <Assay ChEMBL ID>  (1130) 
nan

>  <Assay Description>  (1130) 
nan

>  <BAO Label>  (1130) 
nan

$$$$

     RDKit          2D

 32 35  0  0  0  0  0  0  0  0999 V2000
    3.0000    0.0000    0.0000 C   0  0  0  0  0  0  0  0  0  0  0  0
    1.5000    0.0000    0.0000 C   0  0  0  0  0  0  0  0  0  0  0  0
    0.7500   -1.2990    0.0000 C   0  0  0  0  0  0  0  0  0  0  0  0
   -0.7500   -1.2990    0.0000 C   0  0  0  0  0  0  0  0  0  0  0  0
   -1.5000    0.0000    0.0000 C   0  0  0  0  0  0  0  0  0  0  0  0
   -0.7500    1.2990    0.0000 C   0  0  0  0  0  0  0  0  0  0  0  0
    0.7500    1.2990    0.0000 C   0  0  0  0  0  0  0  0  0  0  0  0
   -1.7537    2.4138    0.0000 C   0  0  0  0  0  0  0  0  0  0  0  0
   -1.4418    3.8810    0.0000 N   0  0  0  0  0  0  0  0  0  0  0  0
   -2.5565    4.8847    0.0000 N   0  0  0  0  0  0  0  0  0  0  0  0
   -2.2447    6.3519    0.0000 C   0  0  0  0  0  0  0  0  0  0  0  0
   -0.8181    6.8154    0.0000 O   0  0  0  0  0  0  0  0  0  0  0  0
   -3.3594    7.3556    0.0000 C   0  0  0  0  0  0  0  0  0  0  0  0
   -3.0475    8.8228    0.0000 C   0  0  0  0  0  0  0  0  0  0  0  0
   -4.1622    9.8265    0.0000 C   0  0  0  0  0  0  0  0  0  0  0  0
   -3.8504   11.2937    0.0000 C   0  0  0  0  0  0  0  0  0  0  0  0
   -4.9651   12.2974    0.0000 C   0  0  0  0  0  0  0  0  0  0  0  0
   -6.3917   11.8339    0.0000 C   0  0  0  0  0  0  0  0  0  0  0  0
   -6.7035   10.3667    0.0000 C   0  0  0  0  0  0  0  0  0  0  0  0
   -5.5888    9.3630    0.0000 C   0  0  0  0  0  0  0  0  0  0  0  0
   -4.7860    6.8921    0.0000 N   0  0  0  0  0  0  0  0  0  0  0  0
   -5.0978    5.4248    0.0000 C   0  0  0  0  0  0  0  0  0  0  0  0
   -3.9831    4.4211    0.0000 O   0  0  0  0  0  0  0  0  0  0  0  0
   -6.5244    4.9613    0.0000 C   0  0  0  0  0  0  0  0  0  0  0  0
   -6.8363    3.4941    0.0000 C   0  0  0  0  0  0  0  0  0  0  0  0
   -8.2629    3.0306    0.0000 C   0  0  0  0  0  0  0  0  0  0  0  0
   -9.3776    4.0343    0.0000 C   0  0  0  0  0  0  0  0  0  0  0  0
   -9.0657    5.5015    0.0000 C   0  0  0  0  0  0  0  0  0  0  0  0
   -7.6391    5.9650    0.0000 C   0  0  0  0  0  0  0  0  0  0  0  0
   -3.1240    1.8037    0.0000 C   0  0  0  0  0  0  0  0  0  0  0  0
   -4.4231    2.5537    0.0000 O   0  0  0  0  0  0  0  0  0  0  0  0
   -2.9672    0.3119    0.0000 N   0  0  0  0  0  4  0  0  0  0  0  0
  1  2  1  0
  2  3  1  0
  3  4  2  0
  4  5  1  0
  5  6  1  0
  6  7  1  0
  6  8  2  0
  8  9  1  0
  9 10  1  0
 10 11  1  0
 11 12  2  0
 11 13  1  0
 13 14  2  0
 14 15  1  0
 15 16  2  0
 16 17  1  0
 17 18  2  0
 18 19  1  0
 19 20  2  0
 13 21  1  0
 21 22  1  0
 22 23  2  0
 22 24  1  0
 24 25  2  0
 25 26  1  0
 26 27  2  0
 27 28  1  0
 28 29  2  0
  8 30  1  0
 30 31  2  0
 30 32  1  0
  7  2  2  0
 20 15  1  0
 29 24  1  0
 32  5  2  0
M  CHG  1  32   1
M  END
>  <Compound_ID>  (1131) 
C01504916

>  <Active>  (1131) 
0.0

>  <Smiles>  (1131) 
Cc1ccc2c(c1)=C(NNC(=O)/C(=C/c1ccccc1)NC(=O)c1ccccc1)C(=O)[NH+]=2

>  <canonical_smi>  (1131) 
Cc1ccc2c(c1)=C(NNC(=O)/C(=C/c1ccccc1)NC(=O)c1ccccc1)C(=O)[NH+]=2

>  <Set>  (1131) 
G2 inactive

>  <Set_type>  (1131) 
Test

>  <MW>  (1131) 
425.47

>  <HBD>  (1131) 
4

>  <HBA>  (1131) 
4

>  <NRB>  (1131) 
6

>  <NR>  (1131) 
4

>  <NAR>  (1131) 
3

>  <PSA>  (1131) 
101.27

>  <Standard Type>  (1131) 
nan

>  <Standard Relation>  (1131) 
nan

>  <Standard Units>  (1131) 
nan

>  <Standard Value>  (1131) 
nan

>  <Assay ChEMBL ID>  (1131) 
nan

>  <Assay Description>  (1131) 
nan

>  <BAO Label>  (1131) 
nan

$$$$

     RDKit          2D

 16 17  0  0  0  0  0  0  0  0999 V2000
    2.7760    0.0000    0.0000 C   0  0  0  0  0  0  0  0  0  0  0  0
    1.2760    0.0000    0.0000 C   0  0  0  0  0  0  0  0  0  0  0  0
    0.3943    1.2135    0.0000 C   0  0  0  0  0  0  0  0  0  0  0  0
   -1.0323    0.7500    0.0000 C   0  0  0  0  0  0  0  0  0  0  0  0
   -1.0323   -0.7500    0.0000 N   0  0  0  0  0  0  0  0  0  0  0  0
   -2.2458   -1.6317    0.0000 C   0  0  0  0  0  0  0  0  0  0  0  0
    0.3943   -1.2135    0.0000 C   0  0  0  0  0  0  0  0  0  0  0  0
    0.8578   -2.6401    0.0000 C   0  0  0  0  0  0  0  0  0  0  0  0
   -0.1459   -3.7548    0.0000 C   0  0  0  0  0  0  0  0  0  0  0  0
    0.3177   -5.1814    0.0000 C   0  0  0  0  0  0  0  0  0  0  0  0
    1.6880   -4.5713    0.0000 C   0  0  0  0  0  0  0  0  0  0  0  0
    1.0677   -6.4805    0.0000 C   0  0  0  0  0  0  0  0  0  0  0  0
    0.0640   -7.5952    0.0000 O   0  0  0  0  0  0  0  0  0  0  0  0
   -1.3064   -6.9851    0.0000 C   0  0  0  0  0  0  0  0  0  0  0  0
   -2.6054   -7.7351    0.0000 O   0  0  0  0  0  0  0  0  0  0  0  0
   -1.1496   -5.4933    0.0000 N   0  0  0  0  0  0  0  0  0  0  0  0
  1  2  1  0
  2  3  1  0
  3  4  2  0
  4  5  1  0
  5  6  1  0
  5  7  1  0
  7  8  1  0
  8  9  1  0
  9 10  1  0
 10 11  1  1
 10 12  1  0
 12 13  1  0
 13 14  1  0
 14 15  2  0
 14 16  1  0
  7  2  2  0
 16 10  1  0
M  END
>  <Compound_ID>  (1132) 
C39110391

>  <Active>  (1132) 
0.0

>  <Smiles>  (1132) 
Cc1ccn(C)c1CC[C@]1(C)COC(=O)N1

>  <canonical_smi>  (1132) 
Cc1ccn(C)c1CC[C@]1(C)COC(=O)N1

>  <Set>  (1132) 
G2 inactive

>  <Set_type>  (1132) 
Test

>  <MW>  (1132) 
222.29

>  <HBD>  (1132) 
1

>  <HBA>  (1132) 
2

>  <NRB>  (1132) 
3

>  <NR>  (1132) 
2

>  <NAR>  (1132) 
1

>  <PSA>  (1132) 
43.26

>  <Standard Type>  (1132) 
nan

>  <Standard Relation>  (1132) 
nan

>  <Standard Units>  (1132) 
nan

>  <Standard Value>  (1132) 
nan

>  <Assay ChEMBL ID>  (1132) 
nan

>  <Assay Description>  (1132) 
nan

>  <BAO Label>  (1132) 
nan

$$$$

     RDKit          2D

 31 35  0  0  0  0  0  0  0  0999 V2000
    2.0046   -4.9721    0.0000 C   0  0  0  0  0  0  0  0  0  0  0  0
    3.3037   -4.2221    0.0000 N   0  0  0  0  0  0  0  0  0  0  0  0
    2.9918   -2.7549    0.0000 N   0  0  0  0  0  0  0  0  0  0  0  0
    1.5000   -2.5981    0.0000 C   0  0  0  0  0  0  0  0  0  0  0  0
    0.7500   -1.2990    0.0000 C   0  0  0  0  0  0  0  0  0  0  0  0
    1.5000    0.0000    0.0000 C   0  0  0  0  0  0  0  0  0  0  0  0
    0.7500    1.2990    0.0000 C   0  0  0  0  0  0  0  0  0  0  0  0
   -0.7500    1.2990    0.0000 C   0  0  0  0  0  0  0  0  0  0  0  0
   -1.5000    2.5981    0.0000 C   0  0  0  0  0  0  0  0  0  0  0  0
   -0.7500    3.8971    0.0000 C   0  0  0  0  0  0  0  0  0  0  0  0
   -1.5000    5.1962    0.0000 C   0  0  0  0  0  0  0  0  0  0  0  0
   -3.0000    5.1962    0.0000 C   0  0  0  0  0  0  0  0  0  0  0  0
   -3.7500    3.8971    0.0000 C   0  0  0  0  0  0  0  0  0  0  0  0
   -3.0000    2.5981    0.0000 C   0  0  0  0  0  0  0  0  0  0  0  0
   -1.5000    0.0000    0.0000 C   0  0  0  0  0  0  0  0  0  0  0  0
   -0.7500   -1.2990    0.0000 C   0  0  0  0  0  0  0  0  0  0  0  0
    0.8899   -3.9684    0.0000 C   0  0  0  0  0  0  0  0  0  0  0  0
   -0.5773   -4.2803    0.0000 C   0  0  0  0  0  0  0  0  0  0  0  0
   -1.0409   -5.7068    0.0000 N   0  0  0  0  0  4  0  0  0  0  0  0
   -2.5081   -6.0187    0.0000 C   0  0  0  0  0  0  0  0  0  0  0  0
   -2.9716   -7.4453    0.0000 C   0  0  0  0  0  0  0  0  0  0  0  0
   -2.0899   -8.6588    0.0000 C   0  0  0  0  0  0  0  0  0  0  0  0
   -2.9716   -9.8724    0.0000 C   0  0  0  0  0  0  0  0  0  0  0  0
   -2.5081  -11.2989    0.0000 C   0  0  0  0  0  0  0  0  0  0  0  0
   -3.5118  -12.4137    0.0000 C   0  0  0  0  0  0  0  0  0  0  0  0
   -3.0482  -13.8402    0.0000 C   0  0  0  0  0  0  0  0  0  0  0  0
   -1.5810  -14.1521    0.0000 C   0  0  0  0  0  0  0  0  0  0  0  0
   -0.5773  -13.0374    0.0000 C   0  0  0  0  0  0  0  0  0  0  0  0
   -1.0409  -11.6108    0.0000 C   0  0  0  0  0  0  0  0  0  0  0  0
   -4.3982   -9.4088    0.0000 O   0  0  0  0  0  0  0  0  0  0  0  0
   -4.3982   -7.9088    0.0000 N   0  0  0  0  0  0  0  0  0  0  0  0
  1  2  2  0
  2  3  1  0
  3  4  2  0
  4  5  1  0
  5  6  2  0
  6  7  1  0
  7  8  2  0
  8  9  1  0
  9 10  2  0
 10 11  1  0
 11 12  2  0
 12 13  1  0
 13 14  2  0
  8 15  1  0
 15 16  2  0
  4 17  1  0
 17 18  1  6
 18 19  1  0
 19 20  1  0
 20 21  1  0
 21 22  2  0
 22 23  1  0
 23 24  1  1
 24 25  2  0
 25 26  1  0
 26 27  2  0
 27 28  1  0
 28 29  2  0
 23 30  1  0
 30 31  1  0
 17  1  1  0
 31 21  1  0
 16  5  1  0
 29 24  1  0
 14  9  1  0
M  CHG  1  19   1
M  END
>  <Compound_ID>  (1133) 
C39454726

>  <Active>  (1133) 
0.0

>  <Smiles>  (1133) 
C1=NN=C(c2ccc(-c3ccccc3)cc2)[C@H]1C[NH2+]CC1=C[C@@H](c2ccccc2)ON1

>  <canonical_smi>  (1133) 
C1=NN=C(c2ccc(-c3ccccc3)cc2)[C@H]1C[NH2+]CC1=C[C@@H](c2ccccc2)ON1

>  <Set>  (1133) 
G2 inactive

>  <Set_type>  (1133) 
Test

>  <MW>  (1133) 
409.51

>  <HBD>  (1133) 
2

>  <HBA>  (1133) 
2

>  <NRB>  (1133) 
7

>  <NR>  (1133) 
5

>  <NAR>  (1133) 
3

>  <PSA>  (1133) 
62.59

>  <Standard Type>  (1133) 
nan

>  <Standard Relation>  (1133) 
nan

>  <Standard Units>  (1133) 
nan

>  <Standard Value>  (1133) 
nan

>  <Assay ChEMBL ID>  (1133) 
nan

>  <Assay Description>  (1133) 
nan

>  <BAO Label>  (1133) 
nan

$$$$

     RDKit          2D

 25 26  0  0  0  0  0  0  0  0999 V2000
    0.4775  -14.8682    0.0000 C   0  0  0  0  0  0  0  0  0  0  0  0
    1.8478  -14.2581    0.0000 C   0  0  0  0  0  0  0  0  0  0  0  0
    2.0046  -12.7663    0.0000 C   0  0  0  0  0  0  0  0  0  0  0  0
    3.3037  -12.0163    0.0000 C   0  0  0  0  0  0  0  0  0  0  0  0
    4.6740  -12.6264    0.0000 C   0  0  0  0  0  0  0  0  0  0  0  0
    2.9918  -10.5491    0.0000 S   0  0  0  0  0  0  0  0  0  0  0  0
    1.5000  -10.3923    0.0000 C   0  0  0  0  0  0  0  0  0  0  0  0
    0.7500   -9.0933    0.0000 N   0  0  0  0  0  0  0  0  0  0  0  0
    1.5000   -7.7942    0.0000 C   0  0  0  0  0  0  0  0  0  0  0  0
    3.0000   -7.7942    0.0000 S   0  0  0  0  0  0  0  0  0  0  0  0
    0.7500   -6.4952    0.0000 N   0  0  0  0  0  0  0  0  0  0  0  0
    1.5000   -5.1962    0.0000 C   0  0  0  0  0  0  0  0  0  0  0  0
    3.0000   -5.1962    0.0000 O   0  0  0  0  0  0  0  0  0  0  0  0
    0.7500   -3.8971    0.0000 C   0  0  0  0  0  0  0  0  0  0  0  0
    1.5000   -2.5981    0.0000 C   0  0  0  0  0  0  0  0  0  0  0  0
    0.7500   -1.2990    0.0000 C   0  0  0  0  0  0  0  0  0  0  0  0
    1.5000    0.0000    0.0000 C   0  0  0  0  0  0  0  0  0  0  0  0
    0.7500    1.2990    0.0000 C   0  0  0  0  0  0  0  0  0  0  0  0
   -0.7500    1.2990    0.0000 C   0  0  0  0  0  0  0  0  0  0  0  0
   -1.5000    0.0000    0.0000 C   0  0  0  0  0  0  0  0  0  0  0  0
   -0.7500   -1.2990    0.0000 C   0  0  0  0  0  0  0  0  0  0  0  0
    0.8899  -11.7626    0.0000 C   0  0  0  0  0  0  0  0  0  0  0  0
   -0.5773  -12.0745    0.0000 C   0  0  0  0  0  0  0  0  0  0  0  0
   -1.5810  -10.9598    0.0000 N   0  0  0  0  0  0  0  0  0  0  0  0
   -1.0409  -13.5011    0.0000 O   0  0  0  0  0  0  0  0  0  0  0  0
  1  2  1  0
  2  3  1  0
  3  4  2  0
  4  5  1  0
  4  6  1  0
  6  7  1  0
  7  8  1  0
  8  9  1  0
  9 10  2  0
  9 11  1  0
 11 12  1  0
 12 13  2  0
 12 14  1  0
 14 15  1  0
 15 16  1  0
 16 17  1  0
 17 18  1  0
 18 19  1  0
 19 20  1  0
 20 21  1  0
  7 22  2  0
 22 23  1  0
 23 24  1  0
 23 25  2  0
 22  3  1  0
 21 16  1  0
M  END
>  <Compound_ID>  (1134) 
C10149910

>  <Active>  (1134) 
0.0

>  <Smiles>  (1134) 
CCc1c(C)sc(NC(=S)NC(=O)CCC2CCCCC2)c1C(N)=O

>  <canonical_smi>  (1134) 
CCc1c(C)sc(NC(=S)NC(=O)CCC2CCCCC2)c1C(N)=O

>  <Set>  (1134) 
G2 inactive

>  <Set_type>  (1134) 
Test

>  <MW>  (1134) 
381.57

>  <HBD>  (1134) 
3

>  <HBA>  (1134) 
4

>  <NRB>  (1134) 
6

>  <NR>  (1134) 
2

>  <NAR>  (1134) 
1

>  <PSA>  (1134) 
84.22

>  <Standard Type>  (1134) 
nan

>  <Standard Relation>  (1134) 
nan

>  <Standard Units>  (1134) 
nan

>  <Standard Value>  (1134) 
nan

>  <Assay ChEMBL ID>  (1134) 
nan

>  <Assay Description>  (1134) 
nan

>  <BAO Label>  (1134) 
nan

$$$$

     RDKit          2D

 23 24  0  0  0  0  0  0  0  0999 V2000
    9.2942   -2.5981    0.0000 C   0  0  0  0  0  0  0  0  0  0  0  0
    7.9952   -1.8481    0.0000 C   0  0  0  0  0  0  0  0  0  0  0  0
    7.9952   -0.3481    0.0000 C   0  0  0  0  0  0  0  0  0  0  0  0
    6.6962   -2.5981    0.0000 C   0  0  0  0  0  0  0  0  0  0  0  0
    6.6962   -4.0981    0.0000 N   0  0  0  0  0  0  0  0  0  0  0  0
    7.9952   -4.8481    0.0000 C   0  0  0  0  0  0  0  0  0  0  0  0
    7.9952   -6.3481    0.0000 N   0  0  0  0  0  0  0  0  0  0  0  0
    9.2942   -4.0981    0.0000 O   0  0  0  0  0  0  0  0  0  0  0  0
    5.3971   -1.8481    0.0000 C   0  0  0  0  0  0  0  0  0  0  0  0
    5.3971   -0.3481    0.0000 O   0  0  0  0  0  0  0  0  0  0  0  0
    4.0981   -2.5981    0.0000 N   0  0  0  0  0  0  0  0  0  0  0  0
    2.7990   -1.8481    0.0000 C   0  0  0  0  0  0  0  0  0  0  0  0
    1.5000   -2.5981    0.0000 C   0  0  0  0  0  0  0  0  0  0  0  0
    0.7500   -1.2990    0.0000 C   0  0  0  0  0  0  0  0  0  0  0  0
    1.5000    0.0000    0.0000 C   0  0  0  0  0  0  0  0  0  0  0  0
    0.7500    1.2990    0.0000 C   0  0  0  0  0  0  0  0  0  0  0  0
   -0.7500    1.2990    0.0000 C   0  0  0  0  0  0  0  0  0  0  0  0
   -1.5000    2.5981    0.0000 Br  0  0  0  0  0  0  0  0  0  0  0  0
   -1.5000    0.0000    0.0000 C   0  0  0  0  0  0  0  0  0  0  0  0
   -0.7500   -1.2990    0.0000 C   0  0  0  0  0  0  0  0  0  0  0  0
    0.2010   -3.3481    0.0000 C   0  0  0  0  0  0  0  0  0  0  0  0
    0.9510   -4.6471    0.0000 C   0  0  0  0  0  0  0  0  0  0  0  0
    2.2500   -3.8971    0.0000 C   0  0  0  0  0  0  0  0  0  0  0  0
  1  2  1  0
  2  3  1  0
  2  4  1  0
  4  5  1  1
  5  6  1  0
  6  7  1  0
  6  8  2  0
  4  9  1  0
  9 10  2  0
  9 11  1  0
 11 12  1  0
 12 13  1  0
 13 14  1  0
 14 15  2  0
 15 16  1  0
 16 17  2  0
 17 18  1  0
 17 19  1  0
 19 20  2  0
 13 21  1  0
 21 22  1  0
 22 23  1  0
 23 13  1  0
 20 14  1  0
M  END
>  <Compound_ID>  (1135) 
C60417380

>  <Active>  (1135) 
0.0

>  <Smiles>  (1135) 
CC(C)[C@@H](NC(N)=O)C(=O)NCC1(c2ccc(Br)cc2)CCC1

>  <canonical_smi>  (1135) 
CC(C)[C@@H](NC(N)=O)C(=O)NCC1(c2ccc(Br)cc2)CCC1

>  <Set>  (1135) 
G2 inactive

>  <Set_type>  (1135) 
Test

>  <MW>  (1135) 
382.3

>  <HBD>  (1135) 
3

>  <HBA>  (1135) 
2

>  <NRB>  (1135) 
6

>  <NR>  (1135) 
2

>  <NAR>  (1135) 
1

>  <PSA>  (1135) 
84.22

>  <Standard Type>  (1135) 
nan

>  <Standard Relation>  (1135) 
nan

>  <Standard Units>  (1135) 
nan

>  <Standard Value>  (1135) 
nan

>  <Assay ChEMBL ID>  (1135) 
nan

>  <Assay Description>  (1135) 
nan

>  <BAO Label>  (1135) 
nan

$$$$

     RDKit          2D

 38 43  0  0  0  0  0  0  0  0999 V2000
   -1.4446   -8.4844    0.0000 O   0  0  0  0  0  0  0  0  0  0  0  0
   -1.9081   -7.0578    0.0000 C   0  0  0  0  0  0  0  0  0  0  0  0
   -0.9044   -5.9431    0.0000 C   0  0  0  0  0  0  0  0  0  0  0  0
    0.5628   -6.2550    0.0000 O   0  0  0  0  0  0  0  0  0  0  0  0
    1.5665   -5.1403    0.0000 C   0  0  0  0  0  0  0  0  0  0  0  0
    1.2546   -3.6731    0.0000 C   0  0  0  0  0  0  0  0  0  0  0  0
    0.1399   -2.6694    0.0000 O   0  0  0  0  0  0  0  0  0  0  0  0
    0.7500   -1.2990    0.0000 C   0  0  0  0  0  0  0  0  0  0  0  0
    1.5000    0.0000    0.0000 C   0  0  0  0  0  0  0  0  0  0  0  0
    0.7500    1.2990    0.0000 C   0  0  0  0  0  0  0  0  0  0  0  0
   -0.7500    1.2990    0.0000 C   0  0  0  0  0  0  0  0  0  0  0  0
   -1.5000    0.0000    0.0000 C   0  0  0  0  0  0  0  0  0  0  0  0
   -0.7500   -1.2990    0.0000 C   0  0  0  0  0  0  0  0  0  0  0  0
    2.2418   -1.4558    0.0000 O   0  0  0  0  0  0  0  0  0  0  0  0
    2.5537   -2.9231    0.0000 C   0  0  0  0  0  0  0  0  0  0  0  0
    3.6684   -3.9267    0.0000 O   0  0  0  0  0  0  0  0  0  0  0  0
    3.0583   -5.2971    0.0000 C   0  0  0  0  0  0  0  0  0  0  0  0
    3.8083   -6.5961    0.0000 C   0  0  0  0  0  0  0  0  0  0  0  0
    3.1982   -7.9664    0.0000 C   0  0  0  0  0  0  0  0  0  0  0  0
    4.3129   -8.9701    0.0000 O   0  0  0  0  0  0  0  0  0  0  0  0
    5.6119   -8.2201    0.0000 C   0  0  0  0  0  0  0  0  0  0  0  0
    6.8254   -7.3384    0.0000 C   0  0  0  0  0  0  0  0  0  0  0  0
    8.1958   -7.9485    0.0000 C   0  0  0  0  0  0  0  0  0  0  0  0
    8.3525   -9.4403    0.0000 C   0  0  0  0  0  0  0  0  0  0  0  0
    7.1390  -10.3220    0.0000 C   0  0  0  0  0  0  0  0  0  0  0  0
    5.7687   -9.7119    0.0000 C   0  0  0  0  0  0  0  0  0  0  0  0
    5.3000   -6.7529    0.0000 O   0  0  0  0  0  0  0  0  0  0  0  0
   -3.3754   -6.7460    0.0000 N   0  0  0  0  0  0  0  0  0  0  0  0
   -4.3791   -7.8607    0.0000 N   0  0  0  0  0  0  0  0  0  0  0  0
   -5.8463   -7.5488    0.0000 C   0  0  0  0  0  0  0  0  0  0  0  0
   -6.3098   -6.1222    0.0000 O   0  0  0  0  0  0  0  0  0  0  0  0
   -6.8500   -8.6635    0.0000 C   0  0  0  0  0  0  0  0  0  0  0  0
   -8.3172   -8.3517    0.0000 C   0  0  0  0  0  0  0  0  0  0  0  0
   -9.3209   -9.4664    0.0000 C   0  0  0  0  0  0  0  0  0  0  0  0
   -8.8574  -10.8930    0.0000 C   0  0  0  0  0  0  0  0  0  0  0  0
   -7.3901  -11.2048    0.0000 C   0  0  0  0  0  0  0  0  0  0  0  0
   -6.9266  -12.6314    0.0000 F   0  0  0  0  0  0  0  0  0  0  0  0
   -6.3864  -10.0901    0.0000 C   0  0  0  0  0  0  0  0  0  0  0  0
  1  2  2  0
  2  3  1  0
  3  4  1  0
  5  4  1  6
  5  6  1  0
  6  7  1  1
  7  8  1  0
  8  9  1  0
  9 10  1  0
 10 11  1  0
 11 12  1  0
 12 13  1  0
  8 14  1  0
 15 14  1  6
 15 16  1  0
 17 16  1  6
 17 18  1  0
 18 19  1  1
 19 20  1  0
 20 21  1  0
 21 22  1  0
 22 23  1  0
 23 24  1  0
 24 25  1  0
 25 26  1  0
 21 27  1  0
  2 28  1  0
 28 29  1  0
 29 30  1  0
 30 31  2  0
 30 32  1  0
 32 33  2  0
 33 34  1  0
 34 35  2  0
 35 36  1  0
 36 37  1  0
 36 38  2  0
 17  5  1  0
 27 18  1  0
 38 32  1  0
 15  6  1  0
 26 21  1  0
 13  8  1  0
M  END
>  <Compound_ID>  (1136) 
C36185397

>  <Active>  (1136) 
0.0

>  <Smiles>  (1136) 
O=C(CO[C@@H]1[C@H]2OC3(CCCCC3)O[C@@H]2O[C@@H]1[C@@H]1COC2(CCCCC2)O1)NNC(=O)c1cccc(F)c1

>  <canonical_smi>  (1136) 
O=C(CO[C@H]1[C@@H]([C@@H]2COC3(CCCCC3)O2)O[C@H]2OC3(CCCCC3)O[C@@H]21)NNC(=O)c1cccc(F)c1

>  <Set>  (1136) 
G2 inactive

>  <Set_type>  (1136) 
Test

>  <MW>  (1136) 
534.58

>  <HBD>  (1136) 
2

>  <HBA>  (1136) 
8

>  <NRB>  (1136) 
5

>  <NR>  (1136) 
6

>  <NAR>  (1136) 
1

>  <PSA>  (1136) 
113.58

>  <Standard Type>  (1136) 
nan

>  <Standard Relation>  (1136) 
nan

>  <Standard Units>  (1136) 
nan

>  <Standard Value>  (1136) 
nan

>  <Assay ChEMBL ID>  (1136) 
nan

>  <Assay Description>  (1136) 
nan

>  <BAO Label>  (1136) 
nan

$$$$

     RDKit          2D

 29 33  0  0  0  0  0  0  0  0999 V2000
    2.6401   -3.1891    0.0000 Br  0  0  0  0  0  0  0  0  0  0  0  0
    1.2135   -2.7256    0.0000 C   0  0  0  0  0  0  0  0  0  0  0  0
   -0.0000   -3.6073    0.0000 C   0  0  0  0  0  0  0  0  0  0  0  0
   -0.0000   -5.1073    0.0000 C   0  0  0  0  0  0  0  0  0  0  0  0
   -1.2990   -5.8573    0.0000 C   0  0  0  0  0  0  0  0  0  0  0  0
   -1.2990   -7.3573    0.0000 C   0  0  0  0  0  0  0  0  0  0  0  0
   -0.0000   -8.1073    0.0000 C   0  0  0  0  0  0  0  0  0  0  0  0
    1.2990   -7.3573    0.0000 C   0  0  0  0  0  0  0  0  0  0  0  0
    1.2990   -5.8573    0.0000 C   0  0  0  0  0  0  0  0  0  0  0  0
   -1.2135   -2.7256    0.0000 N   0  0  0  0  0  0  0  0  0  0  0  0
   -0.7500   -1.2990    0.0000 C   0  0  0  0  0  0  0  0  0  0  0  0
    0.7500   -1.2990    0.0000 N   0  0  0  0  0  0  0  0  0  0  0  0
    1.5000    0.0000    0.0000 N   0  0  0  0  0  0  0  0  0  0  0  0
    0.7500    1.2990    0.0000 C   0  0  0  0  0  0  0  0  0  0  0  0
    1.5000    2.5981    0.0000 C   0  0  0  0  0  0  0  0  0  0  0  0
    3.0000    2.5981    0.0000 C   0  0  0  0  0  0  0  0  0  0  0  0
    3.7500    3.8971    0.0000 C   0  0  0  0  0  0  0  0  0  0  0  0
    3.0000    5.1962    0.0000 C   0  0  0  0  0  0  0  0  0  0  0  0
    3.7500    6.4952    0.0000 O   0  0  0  0  0  0  0  0  0  0  0  0
    5.2500    6.4952    0.0000 C   0  0  0  0  0  0  0  0  0  0  0  0
    6.0000    5.1962    0.0000 C   0  0  0  0  0  0  0  0  0  0  0  0
    7.5000    5.1962    0.0000 C   0  0  0  0  0  0  0  0  0  0  0  0
    8.2500    6.4952    0.0000 C   0  0  0  0  0  0  0  0  0  0  0  0
    7.5000    7.7942    0.0000 C   0  0  0  0  0  0  0  0  0  0  0  0
    6.0000    7.7942    0.0000 C   0  0  0  0  0  0  0  0  0  0  0  0
    1.5000    5.1962    0.0000 C   0  0  0  0  0  0  0  0  0  0  0  0
    0.7500    3.8971    0.0000 C   0  0  0  0  0  0  0  0  0  0  0  0
   -0.7500    1.2990    0.0000 C   0  0  0  0  0  0  0  0  0  0  0  0
   -1.5000    0.0000    0.0000 S   0  0  0  0  0  0  0  0  0  0  0  0
  1  2  1  0
  2  3  2  0
  3  4  1  0
  4  5  2  0
  5  6  1  0
  6  7  2  0
  7  8  1  0
  8  9  2  0
  3 10  1  0
 10 11  2  0
 11 12  1  0
 12 13  1  0
 13 14  1  0
 14 15  1  0
 15 16  2  0
 16 17  1  0
 17 18  2  0
 18 19  1  0
 19 20  1  0
 20 21  2  0
 21 22  1  0
 22 23  2  0
 23 24  1  0
 24 25  2  0
 18 26  1  0
 26 27  2  0
 14 28  2  0
 28 29  1  0
 12  2  1  0
 27 15  1  0
  9  4  1  0
 29 11  1  0
 25 20  1  0
M  END
>  <Compound_ID>  (1137) 
C05298022

>  <Active>  (1137) 
0.0

>  <Smiles>  (1137) 
Brc1c(-c2ccccc2)nc2n1NC(c1ccc(Oc3ccccc3)cc1)=CS2

>  <canonical_smi>  (1137) 
Brc1c(-c2ccccc2)nc2n1NC(c1ccc(Oc3ccccc3)cc1)=CS2

>  <Set>  (1137) 
G2 inactive

>  <Set_type>  (1137) 
Test

>  <MW>  (1137) 
462.37

>  <HBD>  (1137) 
1

>  <HBA>  (1137) 
4

>  <NRB>  (1137) 
4

>  <NR>  (1137) 
5

>  <NAR>  (1137) 
4

>  <PSA>  (1137) 
39.08

>  <Standard Type>  (1137) 
nan

>  <Standard Relation>  (1137) 
nan

>  <Standard Units>  (1137) 
nan

>  <Standard Value>  (1137) 
nan

>  <Assay ChEMBL ID>  (1137) 
nan

>  <Assay Description>  (1137) 
nan

>  <BAO Label>  (1137) 
nan

$$$$

     RDKit          2D

 33 37  0  0  0  0  0  0  0  0999 V2000
    1.5000   -5.1962    0.0000 C   0  0  0  0  0  0  0  0  0  0  0  0
    0.7500   -3.8971    0.0000 C   0  0  0  0  0  0  0  0  0  0  0  0
   -0.7500   -3.8971    0.0000 O   0  0  0  0  0  0  0  0  0  0  0  0
    1.5000   -2.5981    0.0000 N   0  0  0  0  0  0  0  0  0  0  0  0
    0.7500   -1.2990    0.0000 C   0  0  0  0  0  0  0  0  0  0  0  0
    1.5000    0.0000    0.0000 C   0  0  0  0  0  0  0  0  0  0  0  0
    0.7500    1.2990    0.0000 C   0  0  0  0  0  0  0  0  0  0  0  0
   -0.7500    1.2990    0.0000 C   0  0  0  0  0  0  0  0  0  0  0  0
   -1.5000    0.0000    0.0000 C   0  0  0  0  0  0  0  0  0  0  0  0
   -0.7500   -1.2990    0.0000 C   0  0  0  0  0  0  0  0  0  0  0  0
    1.7010   -0.7500    0.0000 C   0  0  0  0  0  0  0  0  0  0  0  0
    3.0000   -0.0000    0.0000 C   0  0  0  0  0  0  0  0  0  0  0  0
    4.5000   -0.0000    0.0000 C   0  0  0  0  0  0  0  0  0  0  0  0
    5.2500    1.2990    0.0000 O   0  0  0  0  0  0  0  0  0  0  0  0
    5.2500   -1.2990    0.0000 O   0  0  0  0  0  0  0  0  0  0  0  0
    6.7500   -1.2990    0.0000 C   0  0  0  0  0  0  0  0  0  0  0  0
    7.5000   -2.5981    0.0000 C   0  0  0  0  0  0  0  0  0  0  0  0
    6.7500   -3.8971    0.0000 O   0  0  0  0  0  0  0  0  0  0  0  0
    9.0000   -2.5981    0.0000 N   0  0  0  0  0  0  0  0  0  0  0  0
    9.7500   -3.8971    0.0000 C   0  0  0  0  0  0  0  0  0  0  0  0
   11.2500   -3.8971    0.0000 C   0  0  0  0  0  0  0  0  0  0  0  0
    9.0000   -5.1962    0.0000 C   0  0  0  0  0  0  0  0  0  0  0  0
    7.5000   -5.1962    0.0000 C   0  0  0  0  0  0  0  0  0  0  0  0
    6.7500   -6.4952    0.0000 C   0  0  0  0  0  0  0  0  0  0  0  0
    7.5000   -7.7942    0.0000 C   0  0  0  0  0  0  0  0  0  0  0  0
    9.0000   -7.7942    0.0000 C   0  0  0  0  0  0  0  0  0  0  0  0
    9.7500   -6.4952    0.0000 C   0  0  0  0  0  0  0  0  0  0  0  0
    9.7500   -9.0933    0.0000 C   0  0  0  0  0  0  0  0  0  0  0  0
    9.0000  -10.3923    0.0000 C   0  0  0  0  0  0  0  0  0  0  0  0
    7.5000  -10.3923    0.0000 C   0  0  0  0  0  0  0  0  0  0  0  0
    6.7500   -9.0933    0.0000 C   0  0  0  0  0  0  0  0  0  0  0  0
    2.2500    1.2990    0.0000 C   0  0  0  0  0  0  0  0  0  0  0  0
    2.2500   -1.2990    0.0000 C   0  0  0  0  0  0  0  0  0  0  0  0
  1  2  1  0
  2  3  2  0
  2  4  1  0
  4  5  1  0
  5  6  1  0
  7  6  1  6
  7  8  1  0
  9  8  1  6
  9 10  1  0
  9 11  1  0
 11 12  1  0
 12 13  1  0
 13 14  2  0
 13 15  1  0
 15 16  1  0
 16 17  1  0
 17 18  2  0
 17 19  1  0
 19 20  1  0
 20 21  1  6
 20 22  1  0
 22 23  2  0
 23 24  1  0
 24 25  2  0
 25 26  1  0
 26 27  2  0
 26 28  1  0
 28 29  1  0
 29 30  1  0
 30 31  1  0
 12 32  1  0
 12 33  1  0
 10  5  1  0
 27 22  1  0
 33  5  1  0
 32  7  1  0
 31 25  1  0
M  END
>  <Compound_ID>  (1138) 
C23327116

>  <Active>  (1138) 
0.0

>  <Smiles>  (1138) 
CC(=O)NC12C[C@H]3C[C@@H](C1)CC(C(=O)OCC(=O)N[C@H](C)c1ccc4c(c1)CCCC4)(C3)C2

>  <canonical_smi>  (1138) 
CC(=O)NC12C[C@H]3C[C@@H](C1)CC(C(=O)OCC(=O)N[C@H](C)c1ccc4c(c1)CCCC4)(C3)C2

>  <Set>  (1138) 
G2 inactive

>  <Set_type>  (1138) 
Test

>  <MW>  (1138) 
452.6

>  <HBD>  (1138) 
2

>  <HBA>  (1138) 
4

>  <NRB>  (1138) 
6

>  <NR>  (1138) 
6

>  <NAR>  (1138) 
1

>  <PSA>  (1138) 
84.5

>  <Standard Type>  (1138) 
nan

>  <Standard Relation>  (1138) 
nan

>  <Standard Units>  (1138) 
nan

>  <Standard Value>  (1138) 
nan

>  <Assay ChEMBL ID>  (1138) 
nan

>  <Assay Description>  (1138) 
nan

>  <BAO Label>  (1138) 
nan

$$$$

     RDKit          2D

 31 36  0  0  0  0  0  0  0  0999 V2000
    2.6491    0.9642    0.0000 C   0  0  0  0  0  0  0  0  0  0  0  0
    1.5000    0.0000    0.0000 C   0  0  0  0  0  0  0  0  0  0  0  0
    2.6491   -0.9642    0.0000 C   0  0  0  0  0  0  0  0  0  0  0  0
    0.7500   -1.2990    0.0000 C   0  0  0  0  0  0  0  0  0  0  0  0
   -0.7500   -1.2990    0.0000 C   0  0  0  0  0  0  0  0  0  0  0  0
   -1.5000    0.0000    0.0000 C   0  0  0  0  0  0  0  0  0  0  0  0
   -2.9672   -0.3119    0.0000 S   0  0  0  0  0  0  0  0  0  0  0  0
   -3.1240   -1.8037    0.0000 C   0  0  0  0  0  0  0  0  0  0  0  0
   -4.3375   -2.6853    0.0000 N   0  0  0  0  0  0  0  0  0  0  0  0
   -4.1807   -4.1771    0.0000 C   0  0  0  0  0  0  0  0  0  0  0  0
   -2.8104   -4.7872    0.0000 N   0  0  0  0  0  0  0  0  0  0  0  0
   -2.3469   -6.2138    0.0000 N   0  0  0  0  0  0  0  0  0  0  0  0
   -0.8469   -6.2138    0.0000 C   0  0  0  0  0  0  0  0  0  0  0  0
    0.0348   -7.4273    0.0000 C   0  0  0  0  0  0  0  0  0  0  0  0
    1.5348   -7.4273    0.0000 C   0  0  0  0  0  0  0  0  0  0  0  0
    1.9983   -8.8539    0.0000 N   0  0  0  0  0  0  0  0  0  0  0  0
    3.4249   -9.3174    0.0000 C   0  0  0  0  0  0  0  0  0  0  0  0
    4.5396   -8.3137    0.0000 C   0  0  0  0  0  0  0  0  0  0  0  0
    5.9662   -8.7773    0.0000 N   0  0  0  0  0  0  0  0  0  0  0  0
    4.2277   -6.8465    0.0000 O   0  0  0  0  0  0  0  0  0  0  0  0
    0.7848   -9.7356    0.0000 C   0  0  0  0  0  0  0  0  0  0  0  0
    0.6280  -11.2274    0.0000 C   0  0  0  0  0  0  0  0  0  0  0  0
   -0.7423  -11.8375    0.0000 C   0  0  0  0  0  0  0  0  0  0  0  0
   -1.9559  -10.9558    0.0000 C   0  0  0  0  0  0  0  0  0  0  0  0
   -1.7991   -9.4640    0.0000 C   0  0  0  0  0  0  0  0  0  0  0  0
   -0.4288   -8.8539    0.0000 C   0  0  0  0  0  0  0  0  0  0  0  0
   -0.3834   -4.7872    0.0000 N   0  0  0  0  0  0  0  0  0  0  0  0
   -1.5969   -3.9055    0.0000 C   0  0  0  0  0  0  0  0  0  0  0  0
   -1.7537   -2.4138    0.0000 C   0  0  0  0  0  0  0  0  0  0  0  0
   -0.7500    1.2990    0.0000 C   0  0  0  0  0  0  0  0  0  0  0  0
    0.7500    1.2990    0.0000 O   0  0  0  0  0  0  0  0  0  0  0  0
  1  2  1  0
  2  3  1  0
  2  4  1  0
  4  5  1  0
  5  6  2  0
  6  7  1  0
  7  8  1  0
  8  9  1  0
  9 10  2  0
 10 11  1  0
 11 12  1  0
 12 13  2  0
 13 14  1  0
 14 15  2  0
 15 16  1  0
 16 17  1  0
 17 18  1  0
 18 19  1  0
 18 20  2  0
 16 21  1  0
 21 22  2  0
 22 23  1  0
 23 24  2  0
 24 25  1  0
 25 26  2  0
 13 27  1  0
 27 28  2  0
 28 29  1  0
  6 30  1  0
 30 31  1  0
 31  2  1  0
 29  5  1  0
 29  8  2  0
 28 11  1  0
 26 14  1  0
 26 21  1  0
M  END
>  <Compound_ID>  (1139) 
C02342074

>  <Active>  (1139) 
0.0

>  <Smiles>  (1139) 
CC1(C)Cc2c(sc3ncn4nc(-c5cn(CC(N)=O)c6ccccc56)nc4c23)CO1

>  <canonical_smi>  (1139) 
CC1(C)Cc2c(sc3ncn4nc(-c5cn(CC(N)=O)c6ccccc56)nc4c23)CO1

>  <Set>  (1139) 
G2 inactive

>  <Set_type>  (1139) 
Test

>  <MW>  (1139) 
432.51

>  <HBD>  (1139) 
1

>  <HBA>  (1139) 
5

>  <NRB>  (1139) 
3

>  <NR>  (1139) 
6

>  <NAR>  (1139) 
5

>  <PSA>  (1139) 
100.33

>  <Standard Type>  (1139) 
nan

>  <Standard Relation>  (1139) 
nan

>  <Standard Units>  (1139) 
nan

>  <Standard Value>  (1139) 
nan

>  <Assay ChEMBL ID>  (1139) 
nan

>  <Assay Description>  (1139) 
nan

>  <BAO Label>  (1139) 
nan

$$$$

     RDKit          2D

 30 34  0  0  0  0  0  0  0  0999 V2000
    0.7500   -9.0933    0.0000 C   0  0  0  0  0  0  0  0  0  0  0  0
    1.5000   -7.7942    0.0000 C   0  0  0  0  0  0  0  0  0  0  0  0
    3.0000   -7.7942    0.0000 S   0  0  0  0  0  0  0  0  0  0  0  0
    3.7500   -9.0933    0.0000 C   0  0  0  0  0  0  0  0  0  0  0  0
    5.2418   -9.2501    0.0000 N   0  0  0  0  0  0  0  0  0  0  0  0
    5.5537  -10.7173    0.0000 N   0  0  0  0  0  0  0  0  0  0  0  0
    4.2546  -11.4673    0.0000 C   0  0  0  0  0  0  0  0  0  0  0  0
    4.0978  -12.9591    0.0000 C   0  0  0  0  0  0  0  0  0  0  0  0
    2.7988  -13.7091    0.0000 C   0  0  0  0  0  0  0  0  0  0  0  0
    3.1106  -15.1763    0.0000 N   0  0  0  0  0  0  0  0  0  0  0  0
    4.6024  -15.3331    0.0000 C   0  0  0  0  0  0  0  0  0  0  0  0
    5.4841  -16.5466    0.0000 C   0  0  0  0  0  0  0  0  0  0  0  0
    6.9759  -16.3898    0.0000 C   0  0  0  0  0  0  0  0  0  0  0  0
    7.5860  -15.0195    0.0000 C   0  0  0  0  0  0  0  0  0  0  0  0
    6.7043  -13.8060    0.0000 C   0  0  0  0  0  0  0  0  0  0  0  0
    5.2125  -13.9628    0.0000 C   0  0  0  0  0  0  0  0  0  0  0  0
    3.1399  -10.4636    0.0000 O   0  0  0  0  0  0  0  0  0  0  0  0
    0.7500   -6.4952    0.0000 C   0  0  0  0  0  0  0  0  0  0  0  0
   -0.7500   -6.4952    0.0000 O   0  0  0  0  0  0  0  0  0  0  0  0
    1.5000   -5.1962    0.0000 N   0  0  0  0  0  0  0  0  0  0  0  0
    0.7500   -3.8971    0.0000 C   0  0  0  0  0  0  0  0  0  0  0  0
   -0.7500   -3.8971    0.0000 C   0  0  0  0  0  0  0  0  0  0  0  0
   -1.5000   -2.5981    0.0000 C   0  0  0  0  0  0  0  0  0  0  0  0
   -0.7500   -1.2990    0.0000 C   0  0  0  0  0  0  0  0  0  0  0  0
    0.7500   -1.2990    0.0000 C   0  0  0  0  0  0  0  0  0  0  0  0
    1.5000   -2.5981    0.0000 C   0  0  0  0  0  0  0  0  0  0  0  0
    1.5000    0.0000    0.0000 O   0  0  0  0  0  0  0  0  0  0  0  0
    0.7500    1.2990    0.0000 C   0  0  0  0  0  0  0  0  0  0  0  0
   -0.7500    1.2990    0.0000 C   0  0  0  0  0  0  0  0  0  0  0  0
   -1.5000    0.0000    0.0000 O   0  0  0  0  0  0  0  0  0  0  0  0
  2  1  1  6
  2  3  1  0
  3  4  1  0
  4  5  2  0
  5  6  1  0
  6  7  2  0
  7  8  1  0
  8  9  2  0
  9 10  1  0
 10 11  1  0
 11 12  2  0
 12 13  1  0
 13 14  2  0
 14 15  1  0
 15 16  2  0
  7 17  1  0
  2 18  1  0
 18 19  2  0
 18 20  1  0
 20 21  1  0
 21 22  2  0
 22 23  1  0
 23 24  2  0
 24 25  1  0
 25 26  2  0
 25 27  1  0
 27 28  1  0
 28 29  1  0
 29 30  1  0
 17  4  1  0
 26 21  1  0
 16  8  1  0
 30 24  1  0
 16 11  1  0
M  END
>  <Compound_ID>  (1140) 
C11347482

>  <Active>  (1140) 
0.0

>  <Smiles>  (1140) 
C[C@@H](Sc1nnc(-c2c[nH]c3ccccc23)o1)C(=O)Nc1ccc2c(c1)OCCO2

>  <canonical_smi>  (1140) 
C[C@@H](Sc1nnc(-c2c[nH]c3ccccc23)o1)C(=O)Nc1ccc2c(c1)OCCO2

>  <Set>  (1140) 
G2 inactive

>  <Set_type>  (1140) 
Test

>  <MW>  (1140) 
422.47

>  <HBD>  (1140) 
2

>  <HBA>  (1140) 
7

>  <NRB>  (1140) 
5

>  <NR>  (1140) 
5

>  <NAR>  (1140) 
4

>  <PSA>  (1140) 
102.27

>  <Standard Type>  (1140) 
nan

>  <Standard Relation>  (1140) 
nan

>  <Standard Units>  (1140) 
nan

>  <Standard Value>  (1140) 
nan

>  <Assay ChEMBL ID>  (1140) 
nan

>  <Assay Description>  (1140) 
nan

>  <BAO Label>  (1140) 
nan

$$$$

     RDKit          2D

 21 22  0  0  0  0  0  0  0  0999 V2000
   -0.7500   -3.8971    0.0000 O   0  0  0  0  0  0  0  0  0  0  0  0
    0.7500   -3.8971    0.0000 C   0  0  0  0  0  0  0  0  0  0  0  0
    1.5000   -5.1962    0.0000 C   0  0  0  0  0  0  0  0  0  0  0  0
    0.7500   -6.4952    0.0000 C   0  0  0  0  0  0  0  0  0  0  0  0
    1.3601   -7.8655    0.0000 C   0  0  0  0  0  0  0  0  0  0  0  0
    0.2454   -8.8692    0.0000 C   0  0  0  0  0  0  0  0  0  0  0  0
   -1.0537   -8.1192    0.0000 C   0  0  0  0  0  0  0  0  0  0  0  0
   -0.7418   -6.6520    0.0000 N   0  0  0  0  0  4  0  0  0  0  0  0
    1.5000   -2.5981    0.0000 N   0  0  0  0  0  0  0  0  0  0  0  0
    0.7500   -1.2990    0.0000 C   0  0  0  0  0  0  0  0  0  0  0  0
    1.5000    0.0000    0.0000 C   0  0  0  0  0  0  0  0  0  0  0  0
    0.7500    1.2990    0.0000 C   0  0  0  0  0  0  0  0  0  0  0  0
    1.5000    2.5981    0.0000 C   0  0  0  0  0  0  0  0  0  0  0  0
    0.7500    3.8971    0.0000 O   0  0  0  0  0  0  0  0  0  0  0  0
    3.0000    2.5981    0.0000 O   0  0  0  0  0  1  0  0  0  0  0  0
   -0.7500    1.2990    0.0000 C   0  0  0  0  0  0  0  0  0  0  0  0
   -1.5000    0.0000    0.0000 C   0  0  0  0  0  0  0  0  0  0  0  0
   -3.0000    0.0000    0.0000 C   0  0  0  0  0  0  0  0  0  0  0  0
   -3.7500   -1.2990    0.0000 O   0  0  0  0  0  0  0  0  0  0  0  0
   -3.7500    1.2990    0.0000 O   0  0  0  0  0  1  0  0  0  0  0  0
   -0.7500   -1.2990    0.0000 C   0  0  0  0  0  0  0  0  0  0  0  0
  1  2  2  0
  2  3  1  0
  4  3  1  1
  4  5  1  0
  5  6  1  0
  6  7  1  0
  7  8  1  0
  2  9  1  0
  9 10  1  0
 10 11  2  0
 11 12  1  0
 12 13  1  0
 13 14  2  0
 13 15  1  0
 12 16  2  0
 16 17  1  0
 17 18  1  0
 18 19  2  0
 18 20  1  0
 17 21  2  0
  8  4  1  0
 21 10  1  0
M  CHG  3   8   1  15  -1  20  -1
M  END
>  <Compound_ID>  (1141) 
C42170970

>  <Active>  (1141) 
0.0

>  <Smiles>  (1141) 
O=C(C[C@H]1CCC[NH2+]1)Nc1cc(C(=O)[O-])cc(C(=O)[O-])c1

>  <canonical_smi>  (1141) 
O=C(C[C@H]1CCC[NH2+]1)Nc1cc(C(=O)[O-])cc(C(=O)[O-])c1

>  <Set>  (1141) 
G2 inactive

>  <Set_type>  (1141) 
Test

>  <MW>  (1141) 
291.28

>  <HBD>  (1141) 
2

>  <HBA>  (1141) 
5

>  <NRB>  (1141) 
5

>  <NR>  (1141) 
2

>  <NAR>  (1141) 
1

>  <PSA>  (1141) 
125.97

>  <Standard Type>  (1141) 
nan

>  <Standard Relation>  (1141) 
nan

>  <Standard Units>  (1141) 
nan

>  <Standard Value>  (1141) 
nan

>  <Assay ChEMBL ID>  (1141) 
nan

>  <Assay Description>  (1141) 
nan

>  <BAO Label>  (1141) 
nan

$$$$

     RDKit          2D

 21 23  0  0  0  0  0  0  0  0999 V2000
   -5.5793   -3.7800    0.0000 C   0  0  0  0  0  0  0  0  0  0  0  0
   -5.2674   -5.2472    0.0000 C   0  0  0  0  0  0  0  0  0  0  0  0
   -6.2711   -6.3619    0.0000 O   0  0  0  0  0  0  0  0  0  0  0  0
   -5.5211   -7.6610    0.0000 C   0  0  0  0  0  0  0  0  0  0  0  0
   -4.0539   -7.3491    0.0000 C   0  0  0  0  0  0  0  0  0  0  0  0
   -3.8971   -5.8573    0.0000 C   0  0  0  0  0  0  0  0  0  0  0  0
   -2.5981   -5.1073    0.0000 C   0  0  0  0  0  0  0  0  0  0  0  0
   -1.2990   -5.8573    0.0000 N   0  0  0  0  0  0  0  0  0  0  0  0
   -1.2990   -7.3573    0.0000 C   0  0  0  0  0  0  0  0  0  0  0  0
   -0.0000   -5.1073    0.0000 C   0  0  0  0  0  0  0  0  0  0  0  0
    1.2990   -5.8573    0.0000 O   0  0  0  0  0  0  0  0  0  0  0  0
   -0.0000   -3.6073    0.0000 C   0  0  0  0  0  0  0  0  0  0  0  0
    1.2135   -2.7256    0.0000 C   0  0  0  0  0  0  0  0  0  0  0  0
    0.7500   -1.2990    0.0000 C   0  0  0  0  0  0  0  0  0  0  0  0
    1.5000    0.0000    0.0000 C   0  0  0  0  0  0  0  0  0  0  0  0
    0.7500    1.2990    0.0000 C   0  0  0  0  0  0  0  0  0  0  0  0
   -0.7500    1.2990    0.0000 C   0  0  0  0  0  0  0  0  0  0  0  0
   -1.5000    0.0000    0.0000 C   0  0  0  0  0  0  0  0  0  0  0  0
   -3.0000    0.0000    0.0000 N   0  0  0  0  0  0  0  0  0  0  0  0
   -0.7500   -1.2990    0.0000 C   0  0  0  0  0  0  0  0  0  0  0  0
   -1.2135   -2.7256    0.0000 N   0  0  0  0  0  0  0  0  0  0  0  0
  1  2  1  0
  2  3  1  0
  3  4  1  0
  4  5  2  0
  5  6  1  0
  6  7  1  0
  7  8  1  0
  8  9  1  0
  8 10  1  0
 10 11  2  0
 10 12  1  0
 12 13  2  0
 13 14  1  0
 14 15  2  0
 15 16  1  0
 16 17  2  0
 17 18  1  0
 18 19  1  0
 18 20  2  0
 20 21  1  0
  6  2  2  0
 21 12  1  0
 20 14  1  0
M  END
>  <Compound_ID>  (1142) 
C62833871

>  <Active>  (1142) 
0.0

>  <Smiles>  (1142) 
Cc1occc1CN(C)C(=O)c1cc2cccc(N)c2[nH]1

>  <canonical_smi>  (1142) 
Cc1occc1CN(C)C(=O)c1cc2cccc(N)c2[nH]1

>  <Set>  (1142) 
G2 inactive

>  <Set_type>  (1142) 
Test

>  <MW>  (1142) 
283.33

>  <HBD>  (1142) 
2

>  <HBA>  (1142) 
3

>  <NRB>  (1142) 
3

>  <NR>  (1142) 
3

>  <NAR>  (1142) 
3

>  <PSA>  (1142) 
75.26

>  <Standard Type>  (1142) 
nan

>  <Standard Relation>  (1142) 
nan

>  <Standard Units>  (1142) 
nan

>  <Standard Value>  (1142) 
nan

>  <Assay ChEMBL ID>  (1142) 
nan

>  <Assay Description>  (1142) 
nan

>  <BAO Label>  (1142) 
nan

$$$$

     RDKit          2D

 23 24  0  0  0  0  0  0  0  0999 V2000
    3.0000    0.0000    0.0000 C   0  0  0  0  0  0  0  0  0  0  0  0
    1.5000    0.0000    0.0000 C   0  0  0  0  0  0  0  0  0  0  0  0
    0.7500   -1.2990    0.0000 C   0  0  0  0  0  0  0  0  0  0  0  0
    1.5000   -2.5981    0.0000 C   0  0  0  0  0  0  0  0  0  0  0  0
   -0.7500   -1.2990    0.0000 C   0  0  0  0  0  0  0  0  0  0  0  0
   -1.5000    0.0000    0.0000 C   0  0  0  0  0  0  0  0  0  0  0  0
   -0.7500    1.2990    0.0000 C   0  0  0  0  0  0  0  0  0  0  0  0
    0.7500    1.2990    0.0000 C   0  0  0  0  0  0  0  0  0  0  0  0
    1.5000    2.5981    0.0000 N   0  0  0  0  0  0  0  0  0  0  0  0
    0.7500    3.8971    0.0000 C   0  0  0  0  0  0  0  0  0  0  0  0
   -0.7500    3.8971    0.0000 S   0  0  0  0  0  0  0  0  0  0  0  0
    1.5000    5.1962    0.0000 N   0  0  0  0  0  0  0  0  0  0  0  0
    0.7500    6.4952    0.0000 N   0  0  0  0  0  0  0  0  0  0  0  0
    1.5000    7.7942    0.0000 C   0  0  0  0  0  0  0  0  0  0  0  0
    3.0000    7.7942    0.0000 O   0  0  0  0  0  0  0  0  0  0  0  0
    0.7500    9.0933    0.0000 C   0  0  0  0  0  0  0  0  0  0  0  0
    1.5000   10.3923    0.0000 N   0  0  0  0  0  0  0  0  0  0  0  0
    0.7500   11.6913    0.0000 C   0  0  0  0  0  0  0  0  0  0  0  0
    1.5000   12.9904    0.0000 Cl  0  0  0  0  0  0  0  0  0  0  0  0
   -0.7500   11.6913    0.0000 C   0  0  0  0  0  0  0  0  0  0  0  0
   -1.5000   10.3923    0.0000 C   0  0  0  0  0  0  0  0  0  0  0  0
   -0.7500    9.0933    0.0000 C   0  0  0  0  0  0  0  0  0  0  0  0
   -1.5000    7.7942    0.0000 Cl  0  0  0  0  0  0  0  0  0  0  0  0
  2  1  1  6
  2  3  1  0
  3  4  1  6
  3  5  1  0
  5  6  1  0
  6  7  1  0
  7  8  1  0
  8  9  1  1
  9 10  1  0
 10 11  2  0
 10 12  1  0
 12 13  1  0
 13 14  1  0
 14 15  2  0
 14 16  1  0
 16 17  2  0
 17 18  1  0
 18 19  1  0
 18 20  2  0
 20 21  1  0
 21 22  2  0
 22 23  1  0
  8  2  1  0
 22 16  1  0
M  END
>  <Compound_ID>  (1143) 
C15761613

>  <Active>  (1143) 
0.0

>  <Smiles>  (1143) 
C[C@@H]1[C@H](C)CCC[C@H]1NC(=S)NNC(=O)c1nc(Cl)ccc1Cl

>  <canonical_smi>  (1143) 
C[C@@H]1CCC[C@@H](NC(=S)NNC(=O)c2nc(Cl)ccc2Cl)[C@@H]1C

>  <Set>  (1143) 
G2 inactive

>  <Set_type>  (1143) 
Test

>  <MW>  (1143) 
375.33

>  <HBD>  (1143) 
3

>  <HBA>  (1143) 
5

>  <NRB>  (1143) 
2

>  <NR>  (1143) 
2

>  <NAR>  (1143) 
1

>  <PSA>  (1143) 
66.05

>  <Standard Type>  (1143) 
nan

>  <Standard Relation>  (1143) 
nan

>  <Standard Units>  (1143) 
nan

>  <Standard Value>  (1143) 
nan

>  <Assay ChEMBL ID>  (1143) 
nan

>  <Assay Description>  (1143) 
nan

>  <BAO Label>  (1143) 
nan

$$$$

     RDKit          2D

 20 20  0  0  0  0  0  0  0  0999 V2000
    6.5490   -5.0490    0.0000 C   0  0  0  0  0  0  0  0  0  0  0  0
    6.5490   -3.5490    0.0000 C   0  0  0  0  0  0  0  0  0  0  0  0
    5.2500   -2.7990    0.0000 C   0  0  0  0  0  0  0  0  0  0  0  0
    5.2500   -1.2990    0.0000 C   0  0  0  0  0  0  0  0  0  0  0  0
    5.2500    0.2010    0.0000 C   0  0  0  0  0  0  0  0  0  0  0  0
    6.7500   -1.2990    0.0000 N   0  0  0  0  0  4  0  0  0  0  0  0
    3.7500   -1.2990    0.0000 C   0  0  0  0  0  0  0  0  0  0  0  0
    3.0000   -2.5981    0.0000 O   0  0  0  0  0  0  0  0  0  0  0  0
    3.0000    0.0000    0.0000 N   0  0  0  0  0  0  0  0  0  0  0  0
    1.5000    0.0000    0.0000 C   0  0  0  0  0  0  0  0  0  0  0  0
    0.7500   -1.2990    0.0000 C   0  0  0  0  0  0  0  0  0  0  0  0
    1.5000   -2.5981    0.0000 Cl  0  0  0  0  0  0  0  0  0  0  0  0
   -0.7500   -1.2990    0.0000 C   0  0  0  0  0  0  0  0  0  0  0  0
   -1.5000    0.0000    0.0000 C   0  0  0  0  0  0  0  0  0  0  0  0
   -3.0000    0.0000    0.0000 Cl  0  0  0  0  0  0  0  0  0  0  0  0
   -0.7500    1.2990    0.0000 C   0  0  0  0  0  0  0  0  0  0  0  0
    0.7500    1.2990    0.0000 C   0  0  0  0  0  0  0  0  0  0  0  0
    1.5000    2.5981    0.0000 C   0  0  0  0  0  0  0  0  0  0  0  0
    0.7500    3.8971    0.0000 O   0  0  0  0  0  0  0  0  0  0  0  0
    3.0000    2.5981    0.0000 O   0  0  0  0  0  1  0  0  0  0  0  0
  1  2  1  0
  2  3  1  0
  3  4  1  0
  4  5  1  6
  4  6  1  0
  4  7  1  0
  7  8  2  0
  7  9  1  0
  9 10  1  0
 10 11  2  0
 11 12  1  0
 11 13  1  0
 13 14  2  0
 14 15  1  0
 14 16  1  0
 16 17  2  0
 17 18  1  0
 18 19  2  0
 18 20  1  0
 17 10  1  0
M  CHG  2   6   1  20  -1
M  END
>  <Compound_ID>  (1144) 
C40481210

>  <Active>  (1144) 
0.0

>  <Smiles>  (1144) 
CCC[C@](C)([NH3+])C(=O)Nc1c(Cl)cc(Cl)cc1C(=O)[O-]

>  <canonical_smi>  (1144) 
CCC[C@](C)([NH3+])C(=O)Nc1c(Cl)cc(Cl)cc1C(=O)[O-]

>  <Set>  (1144) 
G2 inactive

>  <Set_type>  (1144) 
Test

>  <MW>  (1144) 
319.19

>  <HBD>  (1144) 
2

>  <HBA>  (1144) 
3

>  <NRB>  (1144) 
5

>  <NR>  (1144) 
1

>  <NAR>  (1144) 
1

>  <PSA>  (1144) 
96.87

>  <Standard Type>  (1144) 
nan

>  <Standard Relation>  (1144) 
nan

>  <Standard Units>  (1144) 
nan

>  <Standard Value>  (1144) 
nan

>  <Assay ChEMBL ID>  (1144) 
nan

>  <Assay Description>  (1144) 
nan

>  <BAO Label>  (1144) 
nan

$$$$

     RDKit          2D

 29 31  0  0  0  0  0  0  0  0999 V2000
    3.7500   -1.2990    0.0000 C   0  0  0  0  0  0  0  0  0  0  0  0
    3.0000    0.0000    0.0000 C   0  0  0  0  0  0  0  0  0  0  0  0
    1.5000    0.0000    0.0000 C   0  0  0  0  0  0  0  0  0  0  0  0
    0.7500   -1.2990    0.0000 C   0  0  0  0  0  0  0  0  0  0  0  0
   -0.7500   -1.2990    0.0000 C   0  0  0  0  0  0  0  0  0  0  0  0
   -1.5000   -2.5981    0.0000 N   0  0  0  0  0  0  0  0  0  0  0  0
   -3.0000   -2.5981    0.0000 C   0  0  0  0  0  0  0  0  0  0  0  0
   -3.7500   -3.8971    0.0000 C   0  0  0  0  0  0  0  0  0  0  0  0
   -3.0000   -5.1962    0.0000 O   0  0  0  0  0  0  0  0  0  0  0  0
   -5.2500   -3.8971    0.0000 N   0  0  0  0  0  0  0  0  0  0  0  0
   -6.0000   -2.5981    0.0000 C   0  0  0  0  0  0  0  0  0  0  0  0
   -7.5000   -2.5981    0.0000 O   0  0  0  0  0  0  0  0  0  0  0  0
   -5.2500   -1.2990    0.0000 N   0  0  0  0  0  0  0  0  0  0  0  0
   -3.7500   -1.2990    0.0000 C   0  0  0  0  0  0  0  0  0  0  0  0
   -3.0000    0.0000    0.0000 N   0  0  0  0  0  0  0  0  0  0  0  0
   -3.7500    1.2990    0.0000 C   0  0  0  0  0  0  0  0  0  0  0  0
   -3.0000    2.5981    0.0000 C   0  0  0  0  0  0  0  0  0  0  0  0
   -1.5000    2.5981    0.0000 O   0  0  0  0  0  0  0  0  0  0  0  0
   -3.7500    3.8971    0.0000 C   0  0  0  0  0  0  0  0  0  0  0  0
   -5.2500    3.8971    0.0000 O   0  0  0  0  0  0  0  0  0  0  0  0
   -3.0000    5.1962    0.0000 C   0  0  0  0  0  0  0  0  0  0  0  0
   -1.5000    5.1962    0.0000 O   0  0  0  0  0  0  0  0  0  0  0  0
   -3.7500    6.4952    0.0000 C   0  0  0  0  0  0  0  0  0  0  0  0
   -3.0000    7.7942    0.0000 O   0  0  0  0  0  0  0  0  0  0  0  0
   -1.5000    0.0000    0.0000 C   0  0  0  0  0  0  0  0  0  0  0  0
   -0.7500    1.2990    0.0000 C   0  0  0  0  0  0  0  0  0  0  0  0
    0.7500    1.2990    0.0000 C   0  0  0  0  0  0  0  0  0  0  0  0
    1.5000    2.5981    0.0000 C   0  0  0  0  0  0  0  0  0  0  0  0
    0.7500    3.8971    0.0000 C   0  0  0  0  0  0  0  0  0  0  0  0
  1  2  1  0
  2  3  1  0
  3  4  2  0
  4  5  1  0
  5  6  1  0
  6  7  2  0
  7  8  1  0
  8  9  2  0
  8 10  1  0
 10 11  1  0
 11 12  2  0
 11 13  1  0
 13 14  2  0
 14 15  1  0
 15 16  1  0
 16 17  1  0
 17 18  1  1
 17 19  1  0
 19 20  1  6
 19 21  1  0
 21 22  1  1
 21 23  1  0
 23 24  1  0
 15 25  1  0
 25 26  1  0
 26 27  2  0
 27 28  1  0
 28 29  1  0
 27  3  1  0
 25  5  2  0
 14  7  1  0
M  END
>  <Compound_ID>  (1145) 
C04430517

>  <Active>  (1145) 
0.0

>  <Smiles>  (1145) 
CCc1cc2nc3c(=O)[nH]c(=O)nc-3n(C[C@H](O)[C@H](O)[C@H](O)CO)c2cc1CC

>  <canonical_smi>  (1145) 
CCc1cc2nc3c(=O)[nH]c(=O)nc-3n(C[C@H](O)[C@H](O)[C@H](O)CO)c2cc1CC

>  <Set>  (1145) 
G2 inactive

>  <Set_type>  (1145) 
Test

>  <MW>  (1145) 
404.42

>  <HBD>  (1145) 
5

>  <HBA>  (1145) 
8

>  <NRB>  (1145) 
7

>  <NR>  (1145) 
3

>  <NAR>  (1145) 
3

>  <PSA>  (1145) 
161.56

>  <Standard Type>  (1145) 
nan

>  <Standard Relation>  (1145) 
nan

>  <Standard Units>  (1145) 
nan

>  <Standard Value>  (1145) 
nan

>  <Assay ChEMBL ID>  (1145) 
nan

>  <Assay Description>  (1145) 
nan

>  <BAO Label>  (1145) 
nan

$$$$

     RDKit          2D

 14 15  0  0  0  0  0  0  0  0999 V2000
    3.5260   -1.2990    0.0000 C   0  0  0  0  0  0  0  0  0  0  0  0
    2.7760    0.0000    0.0000 C   0  0  0  0  0  0  0  0  0  0  0  0
    3.5260    1.2990    0.0000 C   0  0  0  0  0  0  0  0  0  0  0  0
    1.2760    0.0000    0.0000 C   0  0  0  0  0  0  0  0  0  0  0  0
    0.3943    1.2135    0.0000 C   0  0  0  0  0  0  0  0  0  0  0  0
   -1.0323    0.7500    0.0000 C   0  0  0  0  0  0  0  0  0  0  0  0
   -2.2458    1.6317    0.0000 C   0  0  0  0  0  0  0  0  0  0  0  0
   -3.6724    1.1682    0.0000 N   0  0  0  0  0  0  0  0  0  0  0  0
   -4.5541    2.3817    0.0000 N   0  0  0  0  0  0  0  0  0  0  0  0
   -3.6724    3.5952    0.0000 C   0  0  0  0  0  0  0  0  0  0  0  0
   -4.1359    5.0218    0.0000 S   0  0  0  0  0  0  0  0  0  0  0  0
   -2.2458    3.1317    0.0000 S   0  0  0  0  0  0  0  0  0  0  0  0
   -1.0323   -0.7500    0.0000 N   0  0  0  0  0  0  0  0  0  0  0  0
    0.3943   -1.2135    0.0000 N   0  0  0  0  0  0  0  0  0  0  0  0
  1  2  1  0
  2  3  1  0
  2  4  1  0
  4  5  2  0
  6  5  1  1
  6  7  1  0
  7  8  1  6
  8  9  1  0
  9 10  1  0
 10 11  2  0
 10 12  1  0
  6 13  1  0
 13 14  2  0
 14  4  1  0
 12  7  1  0
M  END
>  <Compound_ID>  (1146) 
C39334682

>  <Active>  (1146) 
0.0

>  <Smiles>  (1146) 
CC(C)C1=C[C@H]([C@@H]2NNC(=S)S2)N=N1

>  <canonical_smi>  (1146) 
CC(C)C1=C[C@H]([C@@H]2NNC(=S)S2)N=N1

>  <Set>  (1146) 
G2 inactive

>  <Set_type>  (1146) 
Test

>  <MW>  (1146) 
228.35

>  <HBD>  (1146) 
2

>  <HBA>  (1146) 
4

>  <NRB>  (1146) 
2

>  <NR>  (1146) 
2

>  <NAR>  (1146) 
0

>  <PSA>  (1146) 
48.78

>  <Standard Type>  (1146) 
nan

>  <Standard Relation>  (1146) 
nan

>  <Standard Units>  (1146) 
nan

>  <Standard Value>  (1146) 
nan

>  <Assay ChEMBL ID>  (1146) 
nan

>  <Assay Description>  (1146) 
nan

>  <BAO Label>  (1146) 
nan

$$$$

     RDKit          2D

 33 35  0  0  0  0  0  0  0  0999 V2000
    4.7581   -9.9158    0.0000 C   0  0  0  0  0  0  0  0  0  0  0  0
    3.2909   -9.6040    0.0000 C   0  0  0  0  0  0  0  0  0  0  0  0
    2.8273   -8.1774    0.0000 C   0  0  0  0  0  0  0  0  0  0  0  0
    1.3601   -7.8655    0.0000 N   0  0  0  0  0  0  0  0  0  0  0  0
    0.7500   -6.4952    0.0000 C   0  0  0  0  0  0  0  0  0  0  0  0
    1.5000   -5.1962    0.0000 S   0  0  0  0  0  0  0  0  0  0  0  0
    0.7500   -3.8971    0.0000 C   0  0  0  0  0  0  0  0  0  0  0  0
    1.5000   -2.5981    0.0000 C   0  0  0  0  0  0  0  0  0  0  0  0
    3.0000   -2.5981    0.0000 O   0  0  0  0  0  0  0  0  0  0  0  0
    0.7500   -1.2990    0.0000 C   0  0  0  0  0  0  0  0  0  0  0  0
    1.5000    0.0000    0.0000 C   0  0  0  0  0  0  0  0  0  0  0  0
    3.0000    0.0000    0.0000 N   0  0  0  0  0  0  0  0  0  0  0  0
    0.7500    1.2990    0.0000 N   0  0  0  0  0  0  0  0  0  0  0  0
    1.5000    2.5981    0.0000 C   0  0  0  0  0  0  0  0  0  0  0  0
   -0.7500    1.2990    0.0000 C   0  0  0  0  0  0  0  0  0  0  0  0
   -1.5000    2.5981    0.0000 O   0  0  0  0  0  0  0  0  0  0  0  0
   -1.5000    0.0000    0.0000 N   0  0  0  0  0  0  0  0  0  0  0  0
   -3.0000    0.0000    0.0000 C   0  0  0  0  0  0  0  0  0  0  0  0
   -0.7500   -1.2990    0.0000 C   0  0  0  0  0  0  0  0  0  0  0  0
   -1.5000   -2.5981    0.0000 O   0  0  0  0  0  0  0  0  0  0  0  0
   -0.7418   -6.6520    0.0000 N   0  0  0  0  0  0  0  0  0  0  0  0
   -1.0537   -8.1192    0.0000 N   0  0  0  0  0  0  0  0  0  0  0  0
    0.2454   -8.8692    0.0000 C   0  0  0  0  0  0  0  0  0  0  0  0
    0.4022  -10.3610    0.0000 C   0  0  0  0  0  0  0  0  0  0  0  0
   -0.8113  -11.2427    0.0000 C   0  0  0  0  0  0  0  0  0  0  0  0
   -0.6546  -12.7344    0.0000 C   0  0  0  0  0  0  0  0  0  0  0  0
    0.7158  -13.3446    0.0000 C   0  0  0  0  0  0  0  0  0  0  0  0
    0.8726  -14.8363    0.0000 C   0  0  0  0  0  0  0  0  0  0  0  0
   -0.6192  -14.9931    0.0000 C   0  0  0  0  0  0  0  0  0  0  0  0
    2.3643  -14.6795    0.0000 C   0  0  0  0  0  0  0  0  0  0  0  0
    1.0294  -16.3281    0.0000 C   0  0  0  0  0  0  0  0  0  0  0  0
    1.9293  -12.4629    0.0000 C   0  0  0  0  0  0  0  0  0  0  0  0
    1.7725  -10.9711    0.0000 C   0  0  0  0  0  0  0  0  0  0  0  0
  1  2  2  0
  2  3  1  0
  3  4  1  0
  4  5  1  0
  5  6  1  0
  6  7  1  0
  7  8  1  0
  8  9  2  0
  8 10  1  0
 10 11  2  0
 11 12  1  0
 11 13  1  0
 13 14  1  0
 13 15  1  0
 15 16  2  0
 15 17  1  0
 17 18  1  0
 17 19  1  0
 19 20  2  0
  5 21  2  0
 21 22  1  0
 22 23  2  0
 23 24  1  0
 24 25  2  0
 25 26  1  0
 26 27  2  0
 27 28  1  0
 28 29  1  0
 28 30  1  0
 28 31  1  0
 27 32  1  0
 32 33  2  0
 23  4  1  0
 33 24  1  0
 19 10  1  0
M  END
>  <Compound_ID>  (1147) 
C09632493

>  <Active>  (1147) 
0.0

>  <Smiles>  (1147) 
C=CCn1c(SCC(=O)c2c(N)n(C)c(=O)n(C)c2=O)nnc1-c1ccc(C(C)(C)C)cc1

>  <canonical_smi>  (1147) 
C=CCn1c(SCC(=O)c2c(N)n(C)c(=O)n(C)c2=O)nnc1-c1ccc(C(C)(C)C)cc1

>  <Set>  (1147) 
G2 inactive

>  <Set_type>  (1147) 
Test

>  <MW>  (1147) 
468.58

>  <HBD>  (1147) 
1

>  <HBA>  (1147) 
7

>  <NRB>  (1147) 
7

>  <NR>  (1147) 
3

>  <NAR>  (1147) 
3

>  <PSA>  (1147) 
117.8

>  <Standard Type>  (1147) 
nan

>  <Standard Relation>  (1147) 
nan

>  <Standard Units>  (1147) 
nan

>  <Standard Value>  (1147) 
nan

>  <Assay ChEMBL ID>  (1147) 
nan

>  <Assay Description>  (1147) 
nan

>  <BAO Label>  (1147) 
nan

$$$$

     RDKit          2D

 35 40  0  0  0  0  0  0  0  0999 V2000
   -8.3749    1.1802    0.0000 C   0  0  0  0  0  0  0  0  0  0  0  0
   -7.9114    2.6068    0.0000 O   0  0  0  0  0  0  0  0  0  0  0  0
   -6.4442    2.9186    0.0000 C   0  0  0  0  0  0  0  0  0  0  0  0
   -5.4405    1.8039    0.0000 O   0  0  0  0  0  0  0  0  0  0  0  0
   -5.9807    4.3452    0.0000 C   0  0  0  0  0  0  0  0  0  0  0  0
   -4.5541    4.8087    0.0000 C   0  0  0  0  0  0  0  0  0  0  0  0
   -3.3405    3.9271    0.0000 N   0  0  0  0  0  0  0  0  0  0  0  0
   -3.3405    2.4271    0.0000 C   0  0  0  0  0  0  0  0  0  0  0  0
   -4.5541    1.5454    0.0000 O   0  0  0  0  0  0  0  0  0  0  0  0
   -1.9140    1.9635    0.0000 C   0  0  0  0  0  0  0  0  0  0  0  0
   -1.0323    3.1771    0.0000 C   0  0  0  0  0  0  0  0  0  0  0  0
   -1.9140    4.3906    0.0000 C   0  0  0  0  0  0  0  0  0  0  0  0
   -1.4504    5.8172    0.0000 O   0  0  0  0  0  0  0  0  0  0  0  0
    0.3943    2.7135    0.0000 C   0  0  0  0  0  0  0  0  0  0  0  0
    0.3943    4.2135    0.0000 C   0  0  0  0  0  0  0  0  0  0  0  0
   -0.8192    5.0952    0.0000 O   0  0  0  0  0  0  0  0  0  0  0  0
    1.8209    4.6771    0.0000 N   0  0  0  0  0  0  0  0  0  0  0  0
    2.7026    3.4635    0.0000 C   0  0  0  0  0  0  0  0  0  0  0  0
    4.1943    3.3067    0.0000 C   0  0  0  0  0  0  0  0  0  0  0  0
    5.0760    4.5203    0.0000 C   0  0  0  0  0  0  0  0  0  0  0  0
    4.8044    1.9364    0.0000 C   0  0  0  0  0  0  0  0  0  0  0  0
    3.9228    0.7229    0.0000 C   0  0  0  0  0  0  0  0  0  0  0  0
    4.5329   -0.6474    0.0000 C   0  0  0  0  0  0  0  0  0  0  0  0
    2.4310    0.8797    0.0000 C   0  0  0  0  0  0  0  0  0  0  0  0
    1.8209    2.2500    0.0000 C   0  0  0  0  0  0  0  0  0  0  0  0
    0.3943    1.2135    0.0000 N   0  0  0  0  0  4  0  0  0  0  0  0
    1.2760    0.0000    0.0000 C   0  0  0  0  0  0  0  0  0  0  0  0
    0.3943   -1.2135    0.0000 C   0  0  0  0  0  0  0  0  0  0  0  0
   -1.0323   -0.7500    0.0000 C   0  0  0  0  0  0  0  0  0  0  0  0
   -1.0323    0.7500    0.0000 C   0  0  0  0  0  0  0  0  0  0  0  0
   -4.5541    6.3087    0.0000 S   0  0  0  0  0  0  0  0  0  0  0  0
   -5.9807    6.7723    0.0000 C   0  0  0  0  0  0  0  0  0  0  0  0
   -6.4442    8.1988    0.0000 C   0  0  0  0  0  0  0  0  0  0  0  0
   -6.8623    5.5587    0.0000 C   0  0  0  0  0  0  0  0  0  0  0  0
   -8.3623    5.5587    0.0000 C   0  0  0  0  0  0  0  0  0  0  0  0
  1  2  1  0
  2  3  1  0
  3  4  2  0
  3  5  1  0
  5  6  2  0
  6  7  1  0
  7  8  1  0
  8  9  2  0
 10  8  1  6
 10 11  1  0
 11 12  1  1
 12 13  2  0
 11 14  1  0
 14 15  1  0
 15 16  2  0
 15 17  1  0
 17 18  1  0
 18 19  2  0
 19 20  1  0
 19 21  1  0
 21 22  2  0
 22 23  1  0
 22 24  1  0
 24 25  2  0
 14 26  1  1
 26 27  1  0
 27 28  1  0
 28 29  1  0
 30 29  1  1
  6 31  1  0
 31 32  1  0
 32 33  1  0
 32 34  2  0
 34 35  1  0
 34  5  1  0
 12  7  1  0
 25 14  1  0
 30 26  1  0
 30 10  1  0
 25 18  1  0
M  CHG  1  26   1
M  END
>  <Compound_ID>  (1148) 
C16000538

>  <Active>  (1148) 
0.0

>  <Smiles>  (1148) 
COC(=O)c1c(N2C(=O)[C@@H]3[C@@H](C2=O)[C@@]2(C(=O)Nc4c(C)cc(C)cc42)[NH+]2CCC[C@@H]32)sc(C)c1C

>  <canonical_smi>  (1148) 
COC(=O)c1c(N2C(=O)[C@H]3[C@@H]4CCC[NH+]4[C@]4(C(=O)Nc5c(C)cc(C)cc54)[C@@H]3C2=O)sc(C)c1C

>  <Set>  (1148) 
G2 inactive

>  <Set_type>  (1148) 
Test

>  <MW>  (1148) 
494.59

>  <HBD>  (1148) 
2

>  <HBA>  (1148) 
5

>  <NRB>  (1148) 
2

>  <NR>  (1148) 
6

>  <NAR>  (1148) 
2

>  <PSA>  (1148) 
97.22

>  <Standard Type>  (1148) 
nan

>  <Standard Relation>  (1148) 
nan

>  <Standard Units>  (1148) 
nan

>  <Standard Value>  (1148) 
nan

>  <Assay ChEMBL ID>  (1148) 
nan

>  <Assay Description>  (1148) 
nan

>  <BAO Label>  (1148) 
nan

$$$$

     RDKit          2D

 19 21  0  0  0  0  0  0  0  0999 V2000
   -4.1634   11.2683    0.0000 C   0  0  0  0  0  0  0  0  0  0  0  0
   -5.2781   10.2646    0.0000 C   0  0  0  0  0  0  0  0  0  0  0  0
   -4.9662    8.7974    0.0000 C   0  0  0  0  0  0  0  0  0  0  0  0
   -5.9699    7.6827    0.0000 C   0  0  0  0  0  0  0  0  0  0  0  0
   -5.2199    6.3837    0.0000 C   0  0  0  0  0  0  0  0  0  0  0  0
   -3.7527    6.6955    0.0000 C   0  0  0  0  0  0  0  0  0  0  0  0
   -2.6380    5.6918    0.0000 C   0  0  0  0  0  0  0  0  0  0  0  0
   -2.9499    4.2246    0.0000 S   0  0  0  0  0  0  0  0  0  0  0  0
   -1.8351    3.2209    0.0000 C   0  0  0  0  0  0  0  0  0  0  0  0
   -0.4086    3.6844    0.0000 N   0  0  0  0  0  0  0  0  0  0  0  0
    0.7062    2.6807    0.0000 C   0  0  0  0  0  0  0  0  0  0  0  0
    2.1328    3.1443    0.0000 N   0  0  0  0  0  0  0  0  0  0  0  0
    0.3943    1.2135    0.0000 C   0  0  0  0  0  0  0  0  0  0  0  0
    1.2760    0.0000    0.0000 C   0  0  0  0  0  0  0  0  0  0  0  0
    0.3943   -1.2135    0.0000 C   0  0  0  0  0  0  0  0  0  0  0  0
   -1.0323   -0.7500    0.0000 S   0  0  0  0  0  0  0  0  0  0  0  0
   -1.0323    0.7500    0.0000 C   0  0  0  0  0  0  0  0  0  0  0  0
   -2.1470    1.7537    0.0000 N   0  0  0  0  0  0  0  0  0  0  0  0
   -3.5959    8.1873    0.0000 S   0  0  0  0  0  0  0  0  0  0  0  0
  1  2  1  0
  2  3  1  0
  3  4  2  0
  4  5  1  0
  5  6  2  0
  6  7  1  0
  7  8  1  0
  8  9  1  0
  9 10  2  0
 10 11  1  0
 11 12  1  0
 11 13  2  0
 13 14  1  0
 14 15  2  0
 15 16  1  0
 16 17  1  0
 17 18  2  0
  6 19  1  0
 19  3  1  0
 18  9  1  0
 17 13  1  0
M  END
>  <Compound_ID>  (1149) 
C54710923

>  <Active>  (1149) 
0.0

>  <Smiles>  (1149) 
CCc1ccc(CSc2nc(N)c3ccsc3n2)s1

>  <canonical_smi>  (1149) 
CCc1ccc(CSc2nc(N)c3ccsc3n2)s1

>  <Set>  (1149) 
G2 inactive

>  <Set_type>  (1149) 
Test

>  <MW>  (1149) 
307.47

>  <HBD>  (1149) 
1

>  <HBA>  (1149) 
4

>  <NRB>  (1149) 
4

>  <NR>  (1149) 
3

>  <NAR>  (1149) 
3

>  <PSA>  (1149) 
51.8

>  <Standard Type>  (1149) 
nan

>  <Standard Relation>  (1149) 
nan

>  <Standard Units>  (1149) 
nan

>  <Standard Value>  (1149) 
nan

>  <Assay ChEMBL ID>  (1149) 
nan

>  <Assay Description>  (1149) 
nan

>  <BAO Label>  (1149) 
nan

$$$$

     RDKit          2D

 14 15  0  0  0  0  0  0  0  0999 V2000
    3.0000   -2.5981    0.0000 C   0  0  0  0  0  0  0  0  0  0  0  0
    1.5000   -2.5981    0.0000 C   0  0  0  0  0  0  0  0  0  0  0  0
    0.7500   -3.8971    0.0000 C   0  0  0  0  0  0  0  0  0  0  0  0
    0.7500   -5.3971    0.0000 C   0  0  0  0  0  0  0  0  0  0  0  0
   -0.5490   -4.6471    0.0000 C   0  0  0  0  0  0  0  0  0  0  0  0
    0.7500   -1.2990    0.0000 N   0  0  0  0  0  0  0  0  0  0  0  0
    1.5000    0.0000    0.0000 N   0  0  0  0  0  0  0  0  0  0  0  0
    0.7500    1.2990    0.0000 C   0  0  0  0  0  0  0  0  0  0  0  0
   -0.7500    1.2990    0.0000 C   0  0  0  0  0  0  0  0  0  0  0  0
   -1.5000    2.5981    0.0000 Br  0  0  0  0  0  0  0  0  0  0  0  0
   -1.5000    0.0000    0.0000 C   0  0  0  0  0  0  0  0  0  0  0  0
   -3.0000    0.0000    0.0000 Br  0  0  0  0  0  0  0  0  0  0  0  0
   -0.7500   -1.2990    0.0000 C   0  0  0  0  0  0  0  0  0  0  0  0
   -1.5000   -2.5981    0.0000 O   0  0  0  0  0  0  0  0  0  0  0  0
  2  1  1  6
  2  3  1  0
  3  4  1  0
  4  5  1  0
  2  6  1  0
  6  7  1  0
  7  8  2  0
  8  9  1  0
  9 10  1  0
  9 11  2  0
 11 12  1  0
 11 13  1  0
 13 14  2  0
  5  3  1  0
 13  6  1  0
M  END
>  <Compound_ID>  (1150) 
C40932146

>  <Active>  (1150) 
0.0

>  <Smiles>  (1150) 
C[C@H](C1CC1)n1ncc(Br)c(Br)c1=O

>  <canonical_smi>  (1150) 
C[C@H](C1CC1)n1ncc(Br)c(Br)c1=O

>  <Set>  (1150) 
G2 inactive

>  <Set_type>  (1150) 
Test

>  <MW>  (1150) 
322.0

>  <HBD>  (1150) 
0

>  <HBA>  (1150) 
2

>  <NRB>  (1150) 
2

>  <NR>  (1150) 
2

>  <NAR>  (1150) 
1

>  <PSA>  (1150) 
34.89

>  <Standard Type>  (1150) 
nan

>  <Standard Relation>  (1150) 
nan

>  <Standard Units>  (1150) 
nan

>  <Standard Value>  (1150) 
nan

>  <Assay ChEMBL ID>  (1150) 
nan

>  <Assay Description>  (1150) 
nan

>  <BAO Label>  (1150) 
nan

$$$$

     RDKit          2D

 16 17  0  0  0  0  0  0  0  0999 V2000
    6.2011   -6.9341    0.0000 C   0  0  0  0  0  0  0  0  0  0  0  0
    4.8308   -6.3240    0.0000 C   0  0  0  0  0  0  0  0  0  0  0  0
    4.6740   -4.8322    0.0000 C   0  0  0  0  0  0  0  0  0  0  0  0
    5.8875   -3.9505    0.0000 Br  0  0  0  0  0  0  0  0  0  0  0  0
    3.3037   -4.2221    0.0000 C   0  0  0  0  0  0  0  0  0  0  0  0
    2.9918   -2.7549    0.0000 N   0  0  0  0  0  0  0  0  0  0  0  0
    1.5000   -2.5981    0.0000 C   0  0  0  0  0  0  0  0  0  0  0  0
    0.7500   -1.2990    0.0000 C   0  0  0  0  0  0  0  0  0  0  0  0
    1.5000    0.0000    0.0000 C   0  0  0  0  0  0  0  0  0  0  0  0
    0.7500    1.2990    0.0000 C   0  0  0  0  0  0  0  0  0  0  0  0
   -0.7500    1.2990    0.0000 C   0  0  0  0  0  0  0  0  0  0  0  0
   -1.5000    2.5981    0.0000 C   0  0  0  0  0  0  0  0  0  0  0  0
   -1.5000    0.0000    0.0000 C   0  0  0  0  0  0  0  0  0  0  0  0
   -0.7500   -1.2990    0.0000 C   0  0  0  0  0  0  0  0  0  0  0  0
    0.8899   -3.9684    0.0000 N   0  0  0  0  0  0  0  0  0  0  0  0
    2.0046   -4.9721    0.0000 O   0  0  0  0  0  0  0  0  0  0  0  0
  1  2  1  0
  2  3  1  0
  3  4  1  6
  3  5  1  0
  5  6  2  0
  6  7  1  0
  7  8  1  0
  8  9  1  0
  9 10  1  0
 10 11  1  0
 11 12  1  0
 11 13  1  0
 13 14  1  0
  7 15  2  0
 15 16  1  0
 16  5  1  0
 14  8  1  0
M  END
>  <Compound_ID>  (1151) 
C61496393

>  <Active>  (1151) 
0.0

>  <Smiles>  (1151) 
CC[C@@H](Br)c1nc(C2CCC(C)CC2)no1

>  <canonical_smi>  (1151) 
CC[C@@H](Br)c1nc(C2CCC(C)CC2)no1

>  <Set>  (1151) 
G2 inactive

>  <Set_type>  (1151) 
Test

>  <MW>  (1151) 
287.2

>  <HBD>  (1151) 
0

>  <HBA>  (1151) 
3

>  <NRB>  (1151) 
3

>  <NR>  (1151) 
2

>  <NAR>  (1151) 
1

>  <PSA>  (1151) 
38.92

>  <Standard Type>  (1151) 
nan

>  <Standard Relation>  (1151) 
nan

>  <Standard Units>  (1151) 
nan

>  <Standard Value>  (1151) 
nan

>  <Assay ChEMBL ID>  (1151) 
nan

>  <Assay Description>  (1151) 
nan

>  <BAO Label>  (1151) 
nan

$$$$

     RDKit          2D

 17 18  0  0  0  0  0  0  0  0999 V2000
    5.2500   -1.2990    0.0000 C   0  0  0  0  0  0  0  0  0  0  0  0
    3.7500   -1.2990    0.0000 C   0  0  0  0  0  0  0  0  0  0  0  0
    3.0000    0.0000    0.0000 C   0  0  0  0  0  0  0  0  0  0  0  0
    1.5000    0.0000    0.0000 C   0  0  0  0  0  0  0  0  0  0  0  0
    0.7500   -1.2990    0.0000 C   0  0  0  0  0  0  0  0  0  0  0  0
   -0.7500   -1.2990    0.0000 C   0  0  0  0  0  0  0  0  0  0  0  0
   -1.5000   -2.5981    0.0000 N   0  0  0  0  0  0  0  0  0  0  0  0
   -3.0000   -2.5981    0.0000 N   0  0  0  0  0  0  0  0  0  0  0  0
   -1.5000    0.0000    0.0000 N   0  0  0  0  0  0  0  0  0  0  0  0
   -0.7500    1.2990    0.0000 C   0  0  0  0  0  0  0  0  0  0  0  0
   -1.5000    2.5981    0.0000 C   0  0  0  0  0  0  0  0  0  0  0  0
   -0.7500    3.8971    0.0000 C   0  0  0  0  0  0  0  0  0  0  0  0
   -1.5000    5.1962    0.0000 C   0  0  0  0  0  0  0  0  0  0  0  0
   -3.0000    5.1962    0.0000 N   0  0  0  0  0  0  0  0  0  0  0  0
   -3.7500    3.8971    0.0000 C   0  0  0  0  0  0  0  0  0  0  0  0
   -3.0000    2.5981    0.0000 C   0  0  0  0  0  0  0  0  0  0  0  0
    0.7500    1.2990    0.0000 N   0  0  0  0  0  0  0  0  0  0  0  0
  1  2  1  0
  2  3  1  0
  3  4  1  0
  4  5  2  0
  5  6  1  0
  6  7  1  0
  7  8  1  0
  6  9  2  0
  9 10  1  0
 10 11  1  0
 11 12  2  0
 12 13  1  0
 13 14  2  0
 14 15  1  0
 15 16  2  0
 10 17  2  0
 17  4  1  0
 16 11  1  0
M  END
>  <Compound_ID>  (1152) 
C51152649

>  <Active>  (1152) 
0.0

>  <Smiles>  (1152) 
CCCc1cc(NN)nc(-c2ccncc2)n1

>  <canonical_smi>  (1152) 
CCCc1cc(NN)nc(-c2ccncc2)n1

>  <Set>  (1152) 
G2 inactive

>  <Set_type>  (1152) 
Test

>  <MW>  (1152) 
229.29

>  <HBD>  (1152) 
2

>  <HBA>  (1152) 
5

>  <NRB>  (1152) 
4

>  <NR>  (1152) 
2

>  <NAR>  (1152) 
2

>  <PSA>  (1152) 
76.72

>  <Standard Type>  (1152) 
nan

>  <Standard Relation>  (1152) 
nan

>  <Standard Units>  (1152) 
nan

>  <Standard Value>  (1152) 
nan

>  <Assay ChEMBL ID>  (1152) 
nan

>  <Assay Description>  (1152) 
nan

>  <BAO Label>  (1152) 
nan

$$$$

     RDKit          2D

 26 28  0  0  0  0  0  0  0  0999 V2000
    0.0000  -12.6073    0.0000 C   0  0  0  0  0  0  0  0  0  0  0  0
    1.2990  -11.8573    0.0000 C   0  0  0  0  0  0  0  0  0  0  0  0
    1.2990  -10.3573    0.0000 C   0  0  0  0  0  0  0  0  0  0  0  0
    0.0000   -9.6073    0.0000 C   0  0  0  0  0  0  0  0  0  0  0  0
    0.0000   -8.1073    0.0000 C   0  0  0  0  0  0  0  0  0  0  0  0
    1.2990   -7.3573    0.0000 C   0  0  0  0  0  0  0  0  0  0  0  0
    1.2990   -5.8573    0.0000 N   0  0  0  0  0  0  0  0  0  0  0  0
   -0.0000   -5.1073    0.0000 C   0  0  0  0  0  0  0  0  0  0  0  0
   -1.2990   -5.8573    0.0000 O   0  0  0  0  0  0  0  0  0  0  0  0
   -0.0000   -3.6073    0.0000 C   0  0  0  0  0  0  0  0  0  0  0  0
    1.2135   -2.7256    0.0000 O   0  0  0  0  0  0  0  0  0  0  0  0
    0.7500   -1.2990    0.0000 C   0  0  0  0  0  0  0  0  0  0  0  0
    1.5000    0.0000    0.0000 C   0  0  0  0  0  0  0  0  0  0  0  0
    0.7500    1.2990    0.0000 C   0  0  0  0  0  0  0  0  0  0  0  0
   -0.7500    1.2990    0.0000 C   0  0  0  0  0  0  0  0  0  0  0  0
   -1.5000    2.5981    0.0000 F   0  0  0  0  0  0  0  0  0  0  0  0
   -1.5000    0.0000    0.0000 C   0  0  0  0  0  0  0  0  0  0  0  0
   -0.7500   -1.2990    0.0000 C   0  0  0  0  0  0  0  0  0  0  0  0
   -1.2135   -2.7256    0.0000 C   0  0  0  0  0  0  0  0  0  0  0  0
   -2.6401   -3.1891    0.0000 C   0  0  0  0  0  0  0  0  0  0  0  0
    2.5981   -8.1073    0.0000 C   0  0  0  0  0  0  0  0  0  0  0  0
    2.5981   -9.6073    0.0000 C   0  0  0  0  0  0  0  0  0  0  0  0
    3.8971  -10.3573    0.0000 S   0  0  0  0  0  0  0  0  0  0  0  0
    5.1962  -11.1073    0.0000 N   0  0  0  0  0  0  0  0  0  0  0  0
    4.6471   -9.0583    0.0000 O   0  0  0  0  0  0  0  0  0  0  0  0
    3.1471  -11.6563    0.0000 O   0  0  0  0  0  0  0  0  0  0  0  0
  1  2  1  0
  2  3  1  0
  3  4  2  0
  4  5  1  0
  5  6  2  0
  6  7  1  0
  7  8  1  0
  8  9  2  0
  8 10  1  0
 10 11  1  0
 11 12  1  0
 12 13  2  0
 13 14  1  0
 14 15  2  0
 15 16  1  0
 15 17  1  0
 17 18  2  0
 18 19  1  0
 19 20  1  0
  6 21  1  0
 21 22  2  0
 22 23  1  0
 23 24  1  0
 23 25  2  0
 23 26  2  0
 22  3  1  0
 19 10  2  0
 18 12  1  0
M  END
>  <Compound_ID>  (1153) 
C67329107

>  <Active>  (1153) 
0.0

>  <Smiles>  (1153) 
CCc1ccc(NC(=O)c2oc3ccc(F)cc3c2C)cc1S(N)(=O)=O

>  <canonical_smi>  (1153) 
CCc1ccc(NC(=O)c2oc3ccc(F)cc3c2C)cc1S(N)(=O)=O

>  <Set>  (1153) 
G2 inactive

>  <Set_type>  (1153) 
Test

>  <MW>  (1153) 
376.41

>  <HBD>  (1153) 
2

>  <HBA>  (1153) 
4

>  <NRB>  (1153) 
4

>  <NR>  (1153) 
3

>  <NAR>  (1153) 
3

>  <PSA>  (1153) 
102.4

>  <Standard Type>  (1153) 
nan

>  <Standard Relation>  (1153) 
nan

>  <Standard Units>  (1153) 
nan

>  <Standard Value>  (1153) 
nan

>  <Assay ChEMBL ID>  (1153) 
nan

>  <Assay Description>  (1153) 
nan

>  <BAO Label>  (1153) 
nan

$$$$

     RDKit          2D

 20 22  0  0  0  0  0  0  0  0999 V2000
    3.0000    0.0000    0.0000 C   0  0  0  0  0  0  0  0  0  0  0  0
    1.5000    0.0000    0.0000 C   0  0  0  0  0  0  0  0  0  0  0  0
    0.7500   -1.2990    0.0000 C   0  0  0  0  0  0  0  0  0  0  0  0
   -0.7500   -1.2990    0.0000 C   0  0  0  0  0  0  0  0  0  0  0  0
   -1.5000    0.0000    0.0000 C   0  0  0  0  0  0  0  0  0  0  0  0
   -2.9672    0.3119    0.0000 N   0  0  0  0  0  0  0  0  0  0  0  0
   -3.1240    1.8037    0.0000 C   0  0  0  0  0  0  0  0  0  0  0  0
   -4.4231    2.5537    0.0000 N   0  0  0  0  0  0  0  0  0  0  0  0
   -5.7221    1.8037    0.0000 C   0  0  0  0  0  0  0  0  0  0  0  0
   -5.7221    0.3037    0.0000 O   0  0  0  0  0  0  0  0  0  0  0  0
   -7.0211    2.5537    0.0000 N   0  0  0  0  0  0  0  0  0  0  0  0
   -8.3202    1.8037    0.0000 C   0  0  0  0  0  0  0  0  0  0  0  0
   -9.6192    2.5537    0.0000 C   0  0  0  0  0  0  0  0  0  0  0  0
  -10.9895    1.9435    0.0000 C   0  0  0  0  0  0  0  0  0  0  0  0
  -11.9932    3.0583    0.0000 C   0  0  0  0  0  0  0  0  0  0  0  0
  -11.2432    4.3573    0.0000 S   0  0  0  0  0  0  0  0  0  0  0  0
   -9.7760    4.0454    0.0000 C   0  0  0  0  0  0  0  0  0  0  0  0
   -1.7537    2.4138    0.0000 S   0  0  0  0  0  0  0  0  0  0  0  0
   -0.7500    1.2990    0.0000 C   0  0  0  0  0  0  0  0  0  0  0  0
    0.7500    1.2990    0.0000 C   0  0  0  0  0  0  0  0  0  0  0  0
  1  2  1  0
  2  3  2  0
  3  4  1  0
  4  5  2  0
  5  6  1  0
  6  7  1  0
  7  8  2  0
  8  9  1  0
  9 10  2  0
  9 11  1  0
 11 12  1  0
 12 13  1  0
 13 14  1  0
 14 15  2  0
 15 16  1  0
 16 17  1  0
  7 18  1  0
 18 19  1  0
 19 20  2  0
 20  2  1  0
 19  5  1  0
 17 13  2  0
M  END
>  <Compound_ID>  (1154) 
C49209825

>  <Active>  (1154) 
0.0

>  <Smiles>  (1154) 
Cc1ccc2[nH]/c(=N\C(=O)NCc3ccsc3)sc2c1

>  <canonical_smi>  (1154) 
Cc1ccc2[nH]/c(=N\C(=O)NCc3ccsc3)sc2c1

>  <Set>  (1154) 
G2 inactive

>  <Set_type>  (1154) 
Test

>  <MW>  (1154) 
303.41

>  <HBD>  (1154) 
2

>  <HBA>  (1154) 
1

>  <NRB>  (1154) 
2

>  <NR>  (1154) 
3

>  <NAR>  (1154) 
3

>  <PSA>  (1154) 
57.25

>  <Standard Type>  (1154) 
nan

>  <Standard Relation>  (1154) 
nan

>  <Standard Units>  (1154) 
nan

>  <Standard Value>  (1154) 
nan

>  <Assay ChEMBL ID>  (1154) 
nan

>  <Assay Description>  (1154) 
nan

>  <BAO Label>  (1154) 
nan

$$$$

     RDKit          2D

 28 30  0  0  0  0  0  0  0  0999 V2000
   -2.5981  -12.2054    0.0000 C   0  0  0  0  0  0  0  0  0  0  0  0
   -1.2990  -11.4554    0.0000 C   0  0  0  0  0  0  0  0  0  0  0  0
   -1.2990   -9.9554    0.0000 C   0  0  0  0  0  0  0  0  0  0  0  0
   -2.5981   -9.2054    0.0000 O   0  0  0  0  0  0  0  0  0  0  0  0
   -0.0000   -9.2054    0.0000 O   0  0  0  0  0  0  0  0  0  0  0  0
   -0.0000   -7.7054    0.0000 C   0  0  0  0  0  0  0  0  0  0  0  0
   -1.5000   -7.7054    0.0000 C   0  0  0  0  0  0  0  0  0  0  0  0
    1.5000   -7.7054    0.0000 C   0  0  0  0  0  0  0  0  0  0  0  0
   -0.0000   -6.2054    0.0000 C   0  0  0  0  0  0  0  0  0  0  0  0
    1.2135   -5.3237    0.0000 O   0  0  0  0  0  0  0  0  0  0  0  0
    0.7500   -3.8971    0.0000 C   0  0  0  0  0  0  0  0  0  0  0  0
    1.5000   -2.5981    0.0000 C   0  0  0  0  0  0  0  0  0  0  0  0
    0.7500   -1.2990    0.0000 C   0  0  0  0  0  0  0  0  0  0  0  0
    1.5000    0.0000    0.0000 O   0  0  0  0  0  0  0  0  0  0  0  0
    0.7500    1.2990    0.0000 C   0  0  0  0  0  0  0  0  0  0  0  0
    1.5000    2.5981    0.0000 O   0  0  0  0  0  0  0  0  0  0  0  0
   -0.7500    1.2990    0.0000 C   0  0  0  0  0  0  0  0  0  0  0  0
   -1.5000    0.0000    0.0000 C   0  0  0  0  0  0  0  0  0  0  0  0
   -0.7500   -1.2990    0.0000 C   0  0  0  0  0  0  0  0  0  0  0  0
   -1.5000   -2.5981    0.0000 C   0  0  0  0  0  0  0  0  0  0  0  0
   -0.7500   -3.8971    0.0000 C   0  0  0  0  0  0  0  0  0  0  0  0
   -1.2135   -5.3237    0.0000 C   0  0  0  0  0  0  0  0  0  0  0  0
   -2.6401   -5.7872    0.0000 O   0  0  0  0  0  0  0  0  0  0  0  0
   -3.7548   -4.7835    0.0000 C   0  0  0  0  0  0  0  0  0  0  0  0
   -3.4430   -3.3163    0.0000 O   0  0  0  0  0  0  0  0  0  0  0  0
   -5.1814   -5.2471    0.0000 C   0  0  0  0  0  0  0  0  0  0  0  0
   -6.2961   -4.2434    0.0000 C   0  0  0  0  0  0  0  0  0  0  0  0
   -5.4933   -6.7143    0.0000 C   0  0  0  0  0  0  0  0  0  0  0  0
  1  2  1  0
  2  3  1  0
  3  4  2  0
  3  5  1  0
  5  6  1  0
  6  7  1  0
  6  8  1  0
  9  6  1  1
  9 10  1  0
 10 11  1  0
 11 12  2  0
 12 13  1  0
 13 14  1  0
 14 15  1  0
 15 16  2  0
 15 17  1  0
 17 18  2  0
 18 19  1  0
 19 20  1  0
 20 21  2  0
 21 22  1  0
 22 23  1  1
 23 24  1  0
 24 25  2  0
 24 26  1  0
 26 27  1  0
 26 28  1  0
 22  9  1  0
 21 11  1  0
 19 13  2  0
M  END
>  <Compound_ID>  (1155) 
C31162216

>  <Active>  (1155) 
0.0

>  <Smiles>  (1155) 
CCC(=O)OC(C)(C)[C@@H]1Oc2cc3oc(=O)ccc3cc2[C@@H]1OC(=O)C(C)C

>  <canonical_smi>  (1155) 
CCC(=O)OC(C)(C)[C@@H]1Oc2cc3oc(=O)ccc3cc2[C@@H]1OC(=O)C(C)C

>  <Set>  (1155) 
G2 inactive

>  <Set_type>  (1155) 
Test

>  <MW>  (1155) 
388.42

>  <HBD>  (1155) 
0

>  <HBA>  (1155) 
7

>  <NRB>  (1155) 
5

>  <NR>  (1155) 
3

>  <NAR>  (1155) 
2

>  <PSA>  (1155) 
92.04

>  <Standard Type>  (1155) 
nan

>  <Standard Relation>  (1155) 
nan

>  <Standard Units>  (1155) 
nan

>  <Standard Value>  (1155) 
nan

>  <Assay ChEMBL ID>  (1155) 
nan

>  <Assay Description>  (1155) 
nan

>  <BAO Label>  (1155) 
nan

$$$$

     RDKit          2D

 36 39  0  0  0  0  0  0  0  0999 V2000
  -13.5000  -10.3923    0.0000 C   0  0  0  0  0  0  0  0  0  0  0  0
  -14.2500   -9.0933    0.0000 O   0  0  0  0  0  0  0  0  0  0  0  0
  -15.7500   -9.0933    0.0000 C   0  0  0  0  0  0  0  0  0  0  0  0
  -16.5000  -10.3923    0.0000 N   0  0  0  0  0  0  0  0  0  0  0  0
  -18.0000  -10.3923    0.0000 C   0  0  0  0  0  0  0  0  0  0  0  0
  -18.7500   -9.0933    0.0000 C   0  0  0  0  0  0  0  0  0  0  0  0
  -18.0000   -7.7942    0.0000 N   0  0  0  0  0  0  0  0  0  0  0  0
  -16.5000   -7.7942    0.0000 C   0  0  0  0  0  0  0  0  0  0  0  0
  -15.7500   -6.4952    0.0000 N   0  0  0  0  0  2  0  0  0  0  0  0
  -14.2500   -6.4952    0.0000 S   0  0  0  0  0  0  0  0  0  0  0  0
  -14.2500   -4.9952    0.0000 O   0  0  0  0  0  0  0  0  0  0  0  0
  -14.2500   -7.9952    0.0000 O   0  0  0  0  0  0  0  0  0  0  0  0
  -12.7500   -6.4952    0.0000 C   0  0  0  0  0  0  0  0  0  0  0  0
  -12.0000   -7.7942    0.0000 C   0  0  0  0  0  0  0  0  0  0  0  0
  -10.5000   -7.7942    0.0000 C   0  0  0  0  0  0  0  0  0  0  0  0
   -9.7500   -6.4952    0.0000 C   0  0  0  0  0  0  0  0  0  0  0  0
   -8.2500   -6.4952    0.0000 N   0  0  0  0  0  0  0  0  0  0  0  0
   -7.5000   -5.1962    0.0000 C   0  0  0  0  0  0  0  0  0  0  0  0
   -8.2500   -3.8971    0.0000 S   0  0  0  0  0  0  0  0  0  0  0  0
   -6.0000   -5.1962    0.0000 N   0  0  0  0  0  0  0  0  0  0  0  0
   -5.2500   -3.8971    0.0000 C   0  0  0  0  0  0  0  0  0  0  0  0
   -6.0000   -2.5981    0.0000 O   0  0  0  0  0  0  0  0  0  0  0  0
   -3.7500   -3.8971    0.0000 C   0  0  0  0  0  0  0  0  0  0  0  0
   -3.0000   -2.5981    0.0000 C   0  0  0  0  0  0  0  0  0  0  0  0
   -1.5000   -2.5981    0.0000 C   0  0  0  0  0  0  0  0  0  0  0  0
   -0.7500   -3.8971    0.0000 C   0  0  0  0  0  0  0  0  0  0  0  0
    0.7500   -3.8971    0.0000 C   0  0  0  0  0  0  0  0  0  0  0  0
    1.5000   -2.5981    0.0000 C   0  0  0  0  0  0  0  0  0  0  0  0
    0.7500   -1.2990    0.0000 C   0  0  0  0  0  0  0  0  0  0  0  0
    1.5000    0.0000    0.0000 C   0  0  0  0  0  0  0  0  0  0  0  0
    0.7500    1.2990    0.0000 C   0  0  0  0  0  0  0  0  0  0  0  0
   -0.7500    1.2990    0.0000 C   0  0  0  0  0  0  0  0  0  0  0  0
   -1.5000    0.0000    0.0000 C   0  0  0  0  0  0  0  0  0  0  0  0
   -0.7500   -1.2990    0.0000 C   0  0  0  0  0  0  0  0  0  0  0  0
  -10.5000   -5.1962    0.0000 C   0  0  0  0  0  0  0  0  0  0  0  0
  -12.0000   -5.1962    0.0000 C   0  0  0  0  0  0  0  0  0  0  0  0
  1  2  1  0
  2  3  1  0
  3  4  2  0
  4  5  1  0
  5  6  2  0
  6  7  1  0
  7  8  2  0
  8  9  1  0
  9 10  1  0
 10 11  2  0
 10 12  2  0
 10 13  1  0
 13 14  2  0
 14 15  1  0
 15 16  2  0
 16 17  1  0
 17 18  1  0
 18 19  2  0
 18 20  1  0
 20 21  1  0
 21 22  2  0
 21 23  1  0
 23 24  2  0
 24 25  1  0
 25 26  2  0
 26 27  1  0
 27 28  2  0
 28 29  1  0
 29 30  2  0
 30 31  1  0
 31 32  2  0
 32 33  1  0
 33 34  2  0
 16 35  1  0
 35 36  2  0
  8  3  1  0
 36 13  1  0
 34 25  1  0
 34 29  1  0
M  CHG  1   9  -1
M  END
>  <Compound_ID>  (1156) 
C66200625

>  <Active>  (1156) 
0.0

>  <Smiles>  (1156) 
COc1nccnc1[N-]S(=O)(=O)c1ccc(NC(=S)NC(=O)/C=C/c2cccc3ccccc23)cc1

>  <canonical_smi>  (1156) 
COc1nccnc1[N-]S(=O)(=O)c1ccc(NC(=S)NC(=O)/C=C/c2cccc3ccccc23)cc1

>  <Set>  (1156) 
G2 inactive

>  <Set_type>  (1156) 
Test

>  <MW>  (1156) 
518.6

>  <HBD>  (1156) 
2

>  <HBA>  (1156) 
8

>  <NRB>  (1156) 
7

>  <NR>  (1156) 
4

>  <NAR>  (1156) 
4

>  <PSA>  (1156) 
124.38

>  <Standard Type>  (1156) 
nan

>  <Standard Relation>  (1156) 
nan

>  <Standard Units>  (1156) 
nan

>  <Standard Value>  (1156) 
nan

>  <Assay ChEMBL ID>  (1156) 
nan

>  <Assay Description>  (1156) 
nan

>  <BAO Label>  (1156) 
nan

$$$$

     RDKit          2D

 37 40  0  0  0  0  0  0  0  0999 V2000
    2.4510  -12.4413    0.0000 C   0  0  0  0  0  0  0  0  0  0  0  0
    3.7500  -11.6913    0.0000 C   0  0  0  0  0  0  0  0  0  0  0  0
    5.0490  -10.9413    0.0000 C   0  0  0  0  0  0  0  0  0  0  0  0
    4.5000  -12.9904    0.0000 C   0  0  0  0  0  0  0  0  0  0  0  0
    3.0000  -10.3923    0.0000 C   0  0  0  0  0  0  0  0  0  0  0  0
    1.5000  -10.3923    0.0000 C   0  0  0  0  0  0  0  0  0  0  0  0
    0.7500   -9.0933    0.0000 C   0  0  0  0  0  0  0  0  0  0  0  0
    1.5000   -7.7942    0.0000 C   0  0  0  0  0  0  0  0  0  0  0  0
    0.7500   -6.4952    0.0000 O   0  0  0  0  0  0  0  0  0  0  0  0
    1.5000   -5.1962    0.0000 C   0  0  0  0  0  0  0  0  0  0  0  0
    0.7500   -3.8971    0.0000 C   0  0  0  0  0  0  0  0  0  0  0  0
   -0.7500   -3.8971    0.0000 O   0  0  0  0  0  0  0  0  0  0  0  0
    1.5000   -2.5981    0.0000 O   0  0  0  0  0  0  0  0  0  0  0  0
    0.7500   -1.2990    0.0000 C   0  0  0  0  0  0  0  0  0  0  0  0
    1.5000    0.0000    0.0000 C   0  0  0  0  0  0  0  0  0  0  0  0
    0.7500    1.2990    0.0000 C   0  0  0  0  0  0  0  0  0  0  0  0
   -0.7500    1.2990    0.0000 C   0  0  0  0  0  0  0  0  0  0  0  0
   -1.5000    0.0000    0.0000 C   0  0  0  0  0  0  0  0  0  0  0  0
   -0.7500   -1.2990    0.0000 C   0  0  0  0  0  0  0  0  0  0  0  0
   -3.0000    0.0000    0.0000 O   0  0  0  0  0  0  0  0  0  0  0  0
   -3.7500    1.2990    0.0000 C   0  0  0  0  0  0  0  0  0  0  0  0
   -5.2500    1.2990    0.0000 N   0  0  0  0  0  0  0  0  0  0  0  0
   -3.0000    2.5981    0.0000 C   0  0  0  0  0  0  0  0  0  0  0  0
   -3.7500    3.8971    0.0000 C   0  0  0  0  0  0  0  0  0  0  0  0
   -4.5000    5.1962    0.0000 N   0  0  0  0  0  0  0  0  0  0  0  0
   -1.5000    2.5981    0.0000 C   0  0  0  0  0  0  0  0  0  0  0  0
   -0.7500    3.8971    0.0000 C   0  0  0  0  0  0  0  0  0  0  0  0
    0.7500    3.8971    0.0000 C   0  0  0  0  0  0  0  0  0  0  0  0
    1.5000    5.1962    0.0000 C   0  0  0  0  0  0  0  0  0  0  0  0
    0.7500    6.4952    0.0000 C   0  0  0  0  0  0  0  0  0  0  0  0
    1.5000    7.7942    0.0000 N   0  0  0  0  0  4  0  0  0  0  0  0
    0.7500    9.0933    0.0000 O   0  0  0  0  0  0  0  0  0  0  0  0
    3.0000    7.7942    0.0000 O   0  0  0  0  0  1  0  0  0  0  0  0
   -0.7500    6.4952    0.0000 C   0  0  0  0  0  0  0  0  0  0  0  0
   -1.5000    5.1962    0.0000 C   0  0  0  0  0  0  0  0  0  0  0  0
    3.0000   -7.7942    0.0000 C   0  0  0  0  0  0  0  0  0  0  0  0
    3.7500   -9.0933    0.0000 C   0  0  0  0  0  0  0  0  0  0  0  0
  1  2  1  0
  2  3  1  0
  2  4  1  0
  2  5  1  0
  5  6  2  0
  6  7  1  0
  7  8  2  0
  8  9  1  0
  9 10  1  0
 10 11  1  0
 11 12  2  0
 11 13  1  0
 13 14  1  0
 14 15  2  0
 15 16  1  0
 16 17  2  0
 17 18  1  0
 18 19  2  0
 18 20  1  0
 20 21  1  0
 21 22  1  0
 21 23  2  0
 23 24  1  0
 24 25  3  0
 23 26  1  0
 26 27  1  6
 27 28  2  0
 28 29  1  0
 29 30  2  0
 30 31  1  0
 31 32  2  0
 31 33  1  0
 30 34  1  0
 34 35  2  0
  8 36  1  0
 36 37  2  0
 37  5  1  0
 19 14  1  0
 35 27  1  0
 26 17  1  0
M  CHG  2  31   1  33  -1
M  END
>  <Compound_ID>  (1157) 
C38654868

>  <Active>  (1157) 
0.0

>  <Smiles>  (1157) 
CC(C)(C)c1ccc(OCC(=O)Oc2ccc3c(c2)OC(N)=C(C#N)[C@@H]3c2ccc([N+](=O)[O-])cc2)cc1

>  <canonical_smi>  (1157) 
CC(C)(C)c1ccc(OCC(=O)Oc2ccc3c(c2)OC(N)=C(C#N)[C@@H]3c2ccc([N+](=O)[O-])cc2)cc1

>  <Set>  (1157) 
G2 inactive

>  <Set_type>  (1157) 
Test

>  <MW>  (1157) 
499.52

>  <HBD>  (1157) 
1

>  <HBA>  (1157) 
8

>  <NRB>  (1157) 
6

>  <NR>  (1157) 
4

>  <NAR>  (1157) 
3

>  <PSA>  (1157) 
137.71

>  <Standard Type>  (1157) 
nan

>  <Standard Relation>  (1157) 
nan

>  <Standard Units>  (1157) 
nan

>  <Standard Value>  (1157) 
nan

>  <Assay ChEMBL ID>  (1157) 
nan

>  <Assay Description>  (1157) 
nan

>  <BAO Label>  (1157) 
nan

$$$$

     RDKit          2D

 25 28  0  0  0  0  0  0  0  0999 V2000
   -4.4947  -10.2490    0.0000 C   0  0  0  0  0  0  0  0  0  0  0  0
   -4.8065   -8.7818    0.0000 C   0  0  0  0  0  0  0  0  0  0  0  0
   -3.6918   -7.7781    0.0000 S   0  0  0  0  0  0  0  0  0  0  0  0
   -4.0037   -6.3109    0.0000 C   0  0  0  0  0  0  0  0  0  0  0  0
   -5.3740   -5.7008    0.0000 N   0  0  0  0  0  0  0  0  0  0  0  0
   -5.2172   -4.2090    0.0000 N   0  0  0  0  0  0  0  0  0  0  0  0
   -6.3319   -3.2053    0.0000 C   0  0  0  0  0  0  0  0  0  0  0  0
   -7.7585   -3.6688    0.0000 C   0  0  0  0  0  0  0  0  0  0  0  0
   -3.7500   -3.8971    0.0000 C   0  0  0  0  0  0  0  0  0  0  0  0
   -3.0000   -2.5981    0.0000 N   0  0  0  0  0  0  0  0  0  0  0  0
   -1.5000   -2.5981    0.0000 C   0  0  0  0  0  0  0  0  0  0  0  0
   -0.7500   -3.8971    0.0000 C   0  0  0  0  0  0  0  0  0  0  0  0
   -1.5000   -5.1962    0.0000 C   0  0  0  0  0  0  0  0  0  0  0  0
   -0.7500   -6.4952    0.0000 O   0  0  0  0  0  0  0  0  0  0  0  0
   -3.0000   -5.1962    0.0000 N   0  0  0  0  0  0  0  0  0  0  0  0
    0.7500   -3.8971    0.0000 C   0  0  0  0  0  0  0  0  0  0  0  0
    2.1595   -4.4101    0.0000 C   0  0  0  0  0  0  0  0  0  0  0  0
    0.4895   -5.3743    0.0000 C   0  0  0  0  0  0  0  0  0  0  0  0
    1.5000   -2.5981    0.0000 C   0  0  0  0  0  0  0  0  0  0  0  0
    0.7500   -1.2990    0.0000 C   0  0  0  0  0  0  0  0  0  0  0  0
    1.5000    0.0000    0.0000 C   0  0  0  0  0  0  0  0  0  0  0  0
    0.7500    1.2990    0.0000 C   0  0  0  0  0  0  0  0  0  0  0  0
   -0.7500    1.2990    0.0000 C   0  0  0  0  0  0  0  0  0  0  0  0
   -1.5000    0.0000    0.0000 C   0  0  0  0  0  0  0  0  0  0  0  0
   -0.7500   -1.2990    0.0000 C   0  0  0  0  0  0  0  0  0  0  0  0
  1  2  1  0
  2  3  1  0
  3  4  1  0
  4  5  2  0
  5  6  1  0
  6  7  1  0
  7  8  1  0
  6  9  1  0
  9 10  2  0
 10 11  1  0
 11 12  2  0
 12 13  1  0
 13 14  2  0
 13 15  1  0
 12 16  1  0
 16 17  1  0
 16 18  1  0
 16 19  1  0
 19 20  1  0
 20 21  2  0
 21 22  1  0
 22 23  2  0
 23 24  1  0
 24 25  2  0
 15  4  1  0
 25 20  1  0
 15  9  1  0
 25 11  1  0
M  END
>  <Compound_ID>  (1158) 
C15839022

>  <Active>  (1158) 
0.0

>  <Smiles>  (1158) 
CCSc1nn(CC)c2nc3c(c(=O)n12)C(C)(C)Cc1ccccc1-3

>  <canonical_smi>  (1158) 
CCSc1nn(CC)c2nc3c(c(=O)n12)C(C)(C)Cc1ccccc1-3

>  <Set>  (1158) 
G2 inactive

>  <Set_type>  (1158) 
Test

>  <MW>  (1158) 
354.48

>  <HBD>  (1158) 
0

>  <HBA>  (1158) 
4

>  <NRB>  (1158) 
3

>  <NR>  (1158) 
4

>  <NAR>  (1158) 
3

>  <PSA>  (1158) 
52.19

>  <Standard Type>  (1158) 
nan

>  <Standard Relation>  (1158) 
nan

>  <Standard Units>  (1158) 
nan

>  <Standard Value>  (1158) 
nan

>  <Assay ChEMBL ID>  (1158) 
nan

>  <Assay Description>  (1158) 
nan

>  <BAO Label>  (1158) 
nan

$$$$

     RDKit          2D

 31 33  0  0  0  0  0  0  0  0999 V2000
    3.0000    2.5981    0.0000 C   0  0  0  0  0  0  0  0  0  0  0  0
    3.7500    1.2990    0.0000 C   0  0  0  0  0  0  0  0  0  0  0  0
    5.2500    1.2990    0.0000 C   0  0  0  0  0  0  0  0  0  0  0  0
    3.0000   -0.0000    0.0000 O   0  0  0  0  0  0  0  0  0  0  0  0
    3.7500   -1.2990    0.0000 C   0  0  0  0  0  0  0  0  0  0  0  0
    5.2500   -1.2990    0.0000 C   0  0  0  0  0  0  0  0  0  0  0  0
    6.0000   -2.5981    0.0000 C   0  0  0  0  0  0  0  0  0  0  0  0
    5.2500   -3.8971    0.0000 C   0  0  0  0  0  0  0  0  0  0  0  0
    3.7500   -3.8971    0.0000 C   0  0  0  0  0  0  0  0  0  0  0  0
    3.0000   -2.5981    0.0000 C   0  0  0  0  0  0  0  0  0  0  0  0
    1.5000   -2.5981    0.0000 C   0  0  0  0  0  0  0  0  0  0  0  0
    0.7500   -1.2990    0.0000 C   0  0  0  0  0  0  0  0  0  0  0  0
    1.5000    0.0000    0.0000 C   0  0  0  0  0  0  0  0  0  0  0  0
    0.7500    1.2990    0.0000 C   0  0  0  0  0  0  0  0  0  0  0  0
    1.5000    2.5981    0.0000 C   0  0  0  0  0  0  0  0  0  0  0  0
    2.7990    1.8481    0.0000 C   0  0  0  0  0  0  0  0  0  0  0  0
    0.2010    3.3481    0.0000 C   0  0  0  0  0  0  0  0  0  0  0  0
    2.2500    3.8971    0.0000 C   0  0  0  0  0  0  0  0  0  0  0  0
   -0.7500    1.2990    0.0000 C   0  0  0  0  0  0  0  0  0  0  0  0
   -1.5000    0.0000    0.0000 C   0  0  0  0  0  0  0  0  0  0  0  0
   -0.7500   -1.2990    0.0000 C   0  0  0  0  0  0  0  0  0  0  0  0
   -1.5000   -2.5981    0.0000 C   0  0  0  0  0  0  0  0  0  0  0  0
   -3.0000   -2.5981    0.0000 C   0  0  0  0  0  0  0  0  0  0  0  0
   -4.5000   -2.5981    0.0000 N   0  0  0  0  0  0  0  0  0  0  0  0
   -0.7500   -3.8971    0.0000 C   0  0  0  0  0  0  0  0  0  0  0  0
   -1.5000   -5.1962    0.0000 N   0  0  0  0  0  0  0  0  0  0  0  0
    0.7500   -3.8971    0.0000 C   0  0  0  0  0  0  0  0  0  0  0  0
    2.1595   -4.4101    0.0000 C   0  0  0  0  0  0  0  0  0  0  0  0
    3.5691   -4.9232    0.0000 N   0  0  0  0  0  0  0  0  0  0  0  0
    0.4895   -5.3743    0.0000 C   0  0  0  0  0  0  0  0  0  0  0  0
    0.2291   -6.8515    0.0000 N   0  0  0  0  0  0  0  0  0  0  0  0
  1  2  1  0
  2  3  1  0
  2  4  1  0
  4  5  1  0
  5  6  2  0
  6  7  1  0
  7  8  2  0
  8  9  1  0
  9 10  2  0
 11 10  1  6
 11 12  1  0
 12 13  1  1
 13 14  1  0
 14 15  1  1
 15 16  1  0
 15 17  1  0
 15 18  1  0
 14 19  1  0
 19 20  1  0
 20 21  2  0
 21 22  1  0
 22 23  1  0
 23 24  3  0
 22 25  2  0
 25 26  1  0
 25 27  1  0
 27 28  1  0
 28 29  3  0
 27 30  1  0
 30 31  3  0
 10  5  1  0
 27 11  1  0
 21 12  1  0
M  END
>  <Compound_ID>  (1159) 
C19852908

>  <Active>  (1159) 
0.0

>  <Smiles>  (1159) 
CC(C)Oc1ccccc1[C@H]1[C@@H]2C[C@H](C(C)(C)C)CC=C2C(C#N)=C(N)C1(C#N)C#N

>  <canonical_smi>  (1159) 
CC(C)Oc1ccccc1[C@H]1[C@@H]2C[C@H](C(C)(C)C)CC=C2C(C#N)=C(N)C1(C#N)C#N

>  <Set>  (1159) 
G2 inactive

>  <Set_type>  (1159) 
Test

>  <MW>  (1159) 
414.55

>  <HBD>  (1159) 
1

>  <HBA>  (1159) 
5

>  <NRB>  (1159) 
3

>  <NR>  (1159) 
3

>  <NAR>  (1159) 
1

>  <PSA>  (1159) 
106.62

>  <Standard Type>  (1159) 
nan

>  <Standard Relation>  (1159) 
nan

>  <Standard Units>  (1159) 
nan

>  <Standard Value>  (1159) 
nan

>  <Assay ChEMBL ID>  (1159) 
nan

>  <Assay Description>  (1159) 
nan

>  <BAO Label>  (1159) 
nan

$$$$

     RDKit          2D

 34 38  0  0  0  0  0  0  0  0999 V2000
    9.0000   -2.5981    0.0000 C   0  0  0  0  0  0  0  0  0  0  0  0
    7.5000   -2.5981    0.0000 C   0  0  0  0  0  0  0  0  0  0  0  0
    6.7500   -3.8971    0.0000 C   0  0  0  0  0  0  0  0  0  0  0  0
    5.2500   -3.8971    0.0000 C   0  0  0  0  0  0  0  0  0  0  0  0
    4.5000   -2.5981    0.0000 C   0  0  0  0  0  0  0  0  0  0  0  0
    3.0000   -2.5981    0.0000 C   0  0  0  0  0  0  0  0  0  0  0  0
    2.2500   -1.2990    0.0000 N   0  0  0  0  0  0  0  0  0  0  0  0
    0.7500   -1.2990    0.0000 C   0  0  0  0  0  0  0  0  0  0  0  0
    1.5000    0.0000    0.0000 C   0  0  0  0  0  0  0  0  0  0  0  0
    0.7500    1.2990    0.0000 C   0  0  0  0  0  0  0  0  0  0  0  0
   -0.7500    1.2990    0.0000 N   0  0  0  0  0  4  0  0  0  0  0  0
   -1.5000    2.5981    0.0000 C   0  0  0  0  0  0  0  0  0  0  0  0
   -0.7500    3.8971    0.0000 C   0  0  0  0  0  0  0  0  0  0  0  0
    0.7500    3.8971    0.0000 C   0  0  0  0  0  0  0  0  0  0  0  0
    1.5000    5.1962    0.0000 C   0  0  0  0  0  0  0  0  0  0  0  0
    0.7500    6.4952    0.0000 C   0  0  0  0  0  0  0  0  0  0  0  0
   -0.7500    6.4952    0.0000 C   0  0  0  0  0  0  0  0  0  0  0  0
   -1.5000    5.1962    0.0000 C   0  0  0  0  0  0  0  0  0  0  0  0
   -1.5000    0.0000    0.0000 C   0  0  0  0  0  0  0  0  0  0  0  0
   -0.7500   -1.2990    0.0000 C   0  0  0  0  0  0  0  0  0  0  0  0
   -0.0000   -2.5981    0.0000 N   0  0  0  0  0  0  0  0  0  0  0  0
    0.7500   -3.8971    0.0000 C   0  0  0  0  0  0  0  0  0  0  0  0
   -0.0000   -5.1962    0.0000 C   0  0  0  0  0  0  0  0  0  0  0  0
   -1.5000   -5.1962    0.0000 C   0  0  0  0  0  0  0  0  0  0  0  0
   -2.2500   -6.4952    0.0000 C   0  0  0  0  0  0  0  0  0  0  0  0
   -3.7500   -6.4952    0.0000 Cl  0  0  0  0  0  0  0  0  0  0  0  0
   -1.5000   -7.7942    0.0000 C   0  0  0  0  0  0  0  0  0  0  0  0
   -0.0000   -7.7942    0.0000 C   0  0  0  0  0  0  0  0  0  0  0  0
    0.7500   -6.4952    0.0000 C   0  0  0  0  0  0  0  0  0  0  0  0
    2.2500   -6.4952    0.0000 O   0  0  0  0  0  0  0  0  0  0  0  0
    2.2500   -3.8971    0.0000 C   0  0  0  0  0  0  0  0  0  0  0  0
    5.2500   -1.2990    0.0000 C   0  0  0  0  0  0  0  0  0  0  0  0
    4.5000   -0.0000    0.0000 C   0  0  0  0  0  0  0  0  0  0  0  0
    6.7500   -1.2990    0.0000 C   0  0  0  0  0  0  0  0  0  0  0  0
  1  2  1  0
  2  3  2  0
  3  4  1  0
  4  5  2  0
  5  6  1  0
  6  7  2  0
  7  8  1  0
  8  9  1  0
  9 10  1  0
 10 11  1  0
 11 12  1  0
 12 13  1  0
 13 14  2  0
 14 15  1  0
 15 16  2  0
 16 17  1  0
 17 18  2  0
 11 19  1  0
 19 20  1  0
  8 21  1  0
 21 22  1  0
 22 23  1  6
 23 24  2  0
 24 25  1  0
 25 26  1  0
 25 27  2  0
 27 28  1  0
 28 29  2  0
 29 30  1  0
 22 31  1  0
  5 32  1  0
 32 33  1  0
 32 34  2  0
 34  2  1  0
 31  6  1  0
 20  8  1  0
 29 23  1  0
 18 13  1  0
M  CHG  1  11   1
M  END
>  <Compound_ID>  (1160) 
C65298051

>  <Active>  (1160) 
0.0

>  <Smiles>  (1160) 
Cc1ccc(C2=NC3(CC[NH+](Cc4ccccc4)CC3)N[C@@H](c3cc(Cl)ccc3O)C2)c(C)c1

>  <canonical_smi>  (1160) 
Cc1ccc(C2=NC3(CC[NH+](Cc4ccccc4)CC3)N[C@@H](c3cc(Cl)ccc3O)C2)c(C)c1

>  <Set>  (1160) 
G2 inactive

>  <Set_type>  (1160) 
Test

>  <MW>  (1160) 
475.06

>  <HBD>  (1160) 
3

>  <HBA>  (1160) 
2

>  <NRB>  (1160) 
4

>  <NR>  (1160) 
5

>  <NAR>  (1160) 
3

>  <PSA>  (1160) 
49.06

>  <Standard Type>  (1160) 
nan

>  <Standard Relation>  (1160) 
nan

>  <Standard Units>  (1160) 
nan

>  <Standard Value>  (1160) 
nan

>  <Assay ChEMBL ID>  (1160) 
nan

>  <Assay Description>  (1160) 
nan

>  <BAO Label>  (1160) 
nan

$$$$

     RDKit          2D

 36 40  0  0  0  0  0  0  0  0999 V2000
   -3.8855   -0.1771    0.0000 H   0  0  0  0  0  0  0  0  0  0  0  0
   -3.5736    1.2902    0.0000 N   0  0  0  0  0  0  0  0  0  0  0  0
   -2.1470    1.7537    0.0000 C   0  0  0  0  0  0  0  0  0  0  0  0
   -1.8351    3.2209    0.0000 C   0  0  0  0  0  0  0  0  0  0  0  0
   -2.9499    4.2246    0.0000 C   0  0  0  0  0  0  0  0  0  0  0  0
   -4.3764    3.7611    0.0000 C   0  0  0  0  0  0  0  0  0  0  0  0
   -4.8400    2.3345    0.0000 C   0  0  0  0  0  0  0  0  0  0  0  0
   -6.3400    2.3345    0.0000 C   0  0  0  0  0  0  0  0  0  0  0  0
   -6.8035    3.7611    0.0000 C   0  0  0  0  0  0  0  0  0  0  0  0
   -5.5900    4.6428    0.0000 N   0  0  0  0  0  0  0  0  0  0  0  0
   -5.5900    6.1428    0.0000 C   0  0  0  0  0  0  0  0  0  0  0  0
   -4.2909    6.8928    0.0000 C   0  0  0  0  0  0  0  0  0  0  0  0
   -4.2909    8.3928    0.0000 C   0  0  0  0  0  0  0  0  0  0  0  0
   -5.5900    9.1428    0.0000 C   0  0  0  0  0  0  0  0  0  0  0  0
   -5.5900   10.6428    0.0000 N   0  0  0  0  0  4  0  0  0  0  0  0
   -6.8890   11.3928    0.0000 O   0  0  0  0  0  0  0  0  0  0  0  0
   -4.2909   11.3928    0.0000 O   0  0  0  0  0  1  0  0  0  0  0  0
   -6.8890    8.3928    0.0000 C   0  0  0  0  0  0  0  0  0  0  0  0
   -6.8890    6.8928    0.0000 C   0  0  0  0  0  0  0  0  0  0  0  0
   -0.4086    3.6844    0.0000 C   0  0  0  0  0  0  0  0  0  0  0  0
   -0.0967    5.1517    0.0000 O   0  0  0  0  0  0  0  0  0  0  0  0
    0.7062    2.6807    0.0000 N   0  0  0  0  0  0  0  0  0  0  0  0
    0.3943    1.2135    0.0000 C   0  0  0  0  0  0  0  0  0  0  0  0
    1.2760    0.0000    0.0000 S   0  0  0  0  0  0  0  0  0  0  0  0
    0.3943   -1.2135    0.0000 C   0  0  0  0  0  0  0  0  0  0  0  0
    0.8578   -2.6401    0.0000 C   0  0  0  0  0  0  0  0  0  0  0  0
   -0.1459   -3.7548    0.0000 C   0  0  0  0  0  0  0  0  0  0  0  0
    0.3177   -5.1814    0.0000 C   0  0  0  0  0  0  0  0  0  0  0  0
    2.3250   -2.9520    0.0000 C   0  0  0  0  0  0  0  0  0  0  0  0
    2.7886   -4.3786    0.0000 C   0  0  0  0  0  0  0  0  0  0  0  0
    4.2558   -4.6904    0.0000 C   0  0  0  0  0  0  0  0  0  0  0  0
    5.2595   -3.5757    0.0000 C   0  0  0  0  0  0  0  0  0  0  0  0
    4.7960   -2.1491    0.0000 C   0  0  0  0  0  0  0  0  0  0  0  0
    3.3287   -1.8373    0.0000 C   0  0  0  0  0  0  0  0  0  0  0  0
   -1.0323   -0.7500    0.0000 N   0  0  0  0  0  0  0  0  0  0  0  0
   -1.0323    0.7500    0.0000 N   0  0  0  0  0  0  0  0  0  0  0  0
  1  2  1  0
  2  3  2  0
  3  4  1  0
  4  5  2  0
  5  6  1  0
  6  7  2  0
  7  8  1  0
  8  9  2  0
  9 10  1  0
 10 11  1  0
 11 12  2  0
 12 13  1  0
 13 14  2  0
 14 15  1  0
 15 16  2  0
 15 17  1  0
 14 18  1  0
 18 19  2  0
  4 20  1  0
 20 21  2  0
 20 22  1  0
 22 23  2  0
 23 24  1  0
 24 25  1  0
 25 26  1  0
 26 27  1  1
 27 28  1  0
 26 29  1  0
 29 30  2  0
 30 31  1  0
 31 32  2  0
 32 33  1  0
 33 34  2  0
 25 35  2  0
 35 36  1  0
 36  3  1  0
 10  6  1  0
 19 11  1  0
 36 23  1  0
 34 29  1  0
M  CHG  2  15   1  17  -1
M  END
>  <Compound_ID>  (1161) 
C32964363

>  <Active>  (1161) 
0.0

>  <Smiles>  (1161) 
[H]/N=C1C(=C\c2cccn2-c2ccc([N+](=O)[O-])cc2)/C(=O)N=C2SC([C@H](CC)c3ccccc3)=NN2/1

>  <canonical_smi>  (1161) 
[H]/N=C1C(=C\c2cccn2-c2ccc([N+](=O)[O-])cc2)/C(=O)N=C2SC([C@H](CC)c3ccccc3)=NN2/1

>  <Set>  (1161) 
G2 inactive

>  <Set_type>  (1161) 
Test

>  <MW>  (1161) 
484.54

>  <HBD>  (1161) 
1

>  <HBA>  (1161) 
5

>  <NRB>  (1161) 
6

>  <NR>  (1161) 
5

>  <NAR>  (1161) 
3

>  <PSA>  (1161) 
116.95

>  <Standard Type>  (1161) 
nan

>  <Standard Relation>  (1161) 
nan

>  <Standard Units>  (1161) 
nan

>  <Standard Value>  (1161) 
nan

>  <Assay ChEMBL ID>  (1161) 
nan

>  <Assay Description>  (1161) 
nan

>  <BAO Label>  (1161) 
nan

$$$$

     RDKit          2D

 32 35  0  0  0  0  0  0  0  0999 V2000
   -8.1975   -5.2841    0.0000 C   0  0  0  0  0  0  0  0  0  0  0  0
   -6.8271   -4.6740    0.0000 C   0  0  0  0  0  0  0  0  0  0  0  0
   -5.6136   -5.5557    0.0000 C   0  0  0  0  0  0  0  0  0  0  0  0
   -4.2433   -4.9456    0.0000 C   0  0  0  0  0  0  0  0  0  0  0  0
   -4.0865   -3.4538    0.0000 N   0  0  0  0  0  0  0  0  0  0  0  0
   -5.3000   -2.5721    0.0000 C   0  0  0  0  0  0  0  0  0  0  0  0
   -5.1432   -1.0803    0.0000 S   0  0  0  0  0  0  0  0  0  0  0  0
   -3.7729   -0.4702    0.0000 C   0  0  0  0  0  0  0  0  0  0  0  0
   -3.6161    1.0216    0.0000 C   0  0  0  0  0  0  0  0  0  0  0  0
   -4.8297    1.9033    0.0000 C   0  0  0  0  0  0  0  0  0  0  0  0
   -2.2458    1.6317    0.0000 C   0  0  0  0  0  0  0  0  0  0  0  0
   -1.0323    0.7500    0.0000 N   0  0  0  0  0  0  0  0  0  0  0  0
    0.3943    1.2135    0.0000 C   0  0  0  0  0  0  0  0  0  0  0  0
    0.8578    2.6401    0.0000 N   0  0  0  0  0  0  0  0  0  0  0  0
    2.3250    2.9520    0.0000 C   0  0  0  0  0  0  0  0  0  0  0  0
    2.7886    4.3786    0.0000 C   0  0  0  0  0  0  0  0  0  0  0  0
    4.2558    4.6904    0.0000 C   0  0  0  0  0  0  0  0  0  0  0  0
    1.7849    5.4933    0.0000 C   0  0  0  0  0  0  0  0  0  0  0  0
    0.3177    5.1814    0.0000 C   0  0  0  0  0  0  0  0  0  0  0  0
   -0.6860    6.2961    0.0000 C   0  0  0  0  0  0  0  0  0  0  0  0
   -0.1459    3.7548    0.0000 C   0  0  0  0  0  0  0  0  0  0  0  0
    1.2760    0.0000    0.0000 N   0  0  0  0  0  0  0  0  0  0  0  0
    0.3943   -1.2135    0.0000 C   0  0  0  0  0  0  0  0  0  0  0  0
   -1.0323   -0.7500    0.0000 C   0  0  0  0  0  0  0  0  0  0  0  0
   -2.1470   -1.7537    0.0000 C   0  0  0  0  0  0  0  0  0  0  0  0
   -3.5736   -1.2902    0.0000 O   0  0  0  0  0  0  0  0  0  0  0  0
   -1.8351   -3.2209    0.0000 N   0  0  0  0  0  0  0  0  0  0  0  0
   -0.4086   -3.6844    0.0000 C   0  0  0  0  0  0  0  0  0  0  0  0
   -0.0967   -5.1517    0.0000 O   0  0  0  0  0  0  0  0  0  0  0  0
    0.7062   -2.6807    0.0000 N   0  0  0  0  0  0  0  0  0  0  0  0
    2.1328   -3.1443    0.0000 C   0  0  0  0  0  0  0  0  0  0  0  0
   -6.6704   -3.1822    0.0000 N   0  0  0  0  0  0  0  0  0  0  0  0
  1  2  1  0
  2  3  2  0
  3  4  1  0
  4  5  2  0
  5  6  1  0
  6  7  1  0
  7  8  1  0
  8  9  1  0
  9 10  1  6
  9 11  1  0
 11 12  1  0
 12 13  1  0
 13 14  1  0
 14 15  1  0
 15 16  1  0
 16 17  1  6
 16 18  1  0
 18 19  1  0
 19 20  1  1
 19 21  1  0
 13 22  2  0
 22 23  1  0
 23 24  2  0
 24 25  1  0
 25 26  2  0
 25 27  1  0
 27 28  1  0
 28 29  2  0
 28 30  1  0
 30 31  1  0
  6 32  2  0
 32  2  1  0
 24 12  1  0
 21 14  1  0
 30 23  1  0
M  END
>  <Compound_ID>  (1162) 
C10249121

>  <Active>  (1162) 
0.0

>  <Smiles>  (1162) 
Cc1ccnc(SC[C@H](C)Cn2c(N3C[C@@H](C)C[C@H](C)C3)nc3c2c(=O)[nH]c(=O)n3C)n1

>  <canonical_smi>  (1162) 
Cc1ccnc(SC[C@H](C)Cn2c(N3C[C@@H](C)C[C@H](C)C3)nc3c2c(=O)[nH]c(=O)n3C)n1

>  <Set>  (1162) 
G2 inactive

>  <Set_type>  (1162) 
Test

>  <MW>  (1162) 
457.6

>  <HBD>  (1162) 
1

>  <HBA>  (1162) 
7

>  <NRB>  (1162) 
6

>  <NR>  (1162) 
4

>  <NAR>  (1162) 
3

>  <PSA>  (1162) 
101.7

>  <Standard Type>  (1162) 
nan

>  <Standard Relation>  (1162) 
nan

>  <Standard Units>  (1162) 
nan

>  <Standard Value>  (1162) 
nan

>  <Assay ChEMBL ID>  (1162) 
nan

>  <Assay Description>  (1162) 
nan

>  <BAO Label>  (1162) 
nan

$$$$

     RDKit          2D

 35 38  0  0  0  0  0  0  0  0999 V2000
    3.0000    0.0000    0.0000 C   0  0  0  0  0  0  0  0  0  0  0  0
    1.5000    0.0000    0.0000 C   0  0  0  0  0  0  0  0  0  0  0  0
    0.7500   -1.2990    0.0000 C   0  0  0  0  0  0  0  0  0  0  0  0
   -0.7500   -1.2990    0.0000 C   0  0  0  0  0  0  0  0  0  0  0  0
   -1.5000    0.0000    0.0000 C   0  0  0  0  0  0  0  0  0  0  0  0
   -3.0000    0.0000    0.0000 C   0  0  0  0  0  0  0  0  0  0  0  0
   -3.7500    1.2990    0.0000 C   0  0  0  0  0  0  0  0  0  0  0  0
   -5.2500    1.2990    0.0000 C   0  0  0  0  0  0  0  0  0  0  0  0
   -6.0000    0.0000    0.0000 C   0  0  0  0  0  0  0  0  0  0  0  0
   -7.5000    0.0000    0.0000 O   0  0  0  0  0  0  0  0  0  0  0  0
   -5.2500   -1.2990    0.0000 N   0  0  0  0  0  0  0  0  0  0  0  0
   -6.0000   -2.5981    0.0000 C   0  0  0  0  0  0  0  0  0  0  0  0
   -5.2500   -3.8971    0.0000 C   0  0  0  0  0  0  0  0  0  0  0  0
   -6.0000   -5.1962    0.0000 N   0  0  0  0  0  4  0  0  0  0  0  0
   -7.5000   -5.1962    0.0000 C   0  0  0  0  0  0  0  0  0  0  0  0
   -8.2500   -6.4952    0.0000 C   0  0  0  0  0  0  0  0  0  0  0  0
   -7.5000   -7.7942    0.0000 N   0  0  0  0  0  0  0  0  0  0  0  0
   -8.2500   -9.0933    0.0000 S   0  0  0  0  0  0  0  0  0  0  0  0
   -6.9510   -9.8433    0.0000 O   0  0  0  0  0  0  0  0  0  0  0  0
   -9.5490   -8.3433    0.0000 O   0  0  0  0  0  0  0  0  0  0  0  0
   -9.0000  -10.3923    0.0000 C   0  0  0  0  0  0  0  0  0  0  0  0
  -10.5000  -10.3923    0.0000 C   0  0  0  0  0  0  0  0  0  0  0  0
  -11.2500  -11.6913    0.0000 C   0  0  0  0  0  0  0  0  0  0  0  0
  -12.7500  -11.6913    0.0000 N   0  0  0  0  0  4  0  0  0  0  0  0
  -13.5000  -12.9904    0.0000 O   0  0  0  0  0  0  0  0  0  0  0  0
  -13.5000  -10.3923    0.0000 O   0  0  0  0  0  1  0  0  0  0  0  0
  -10.5000  -12.9904    0.0000 C   0  0  0  0  0  0  0  0  0  0  0  0
   -9.0000  -12.9904    0.0000 C   0  0  0  0  0  0  0  0  0  0  0  0
   -8.2500  -11.6913    0.0000 C   0  0  0  0  0  0  0  0  0  0  0  0
   -6.7500  -11.6913    0.0000 Cl  0  0  0  0  0  0  0  0  0  0  0  0
   -6.0000   -7.7942    0.0000 C   0  0  0  0  0  0  0  0  0  0  0  0
   -5.2500   -6.4952    0.0000 C   0  0  0  0  0  0  0  0  0  0  0  0
   -3.7500   -1.2990    0.0000 N   0  0  0  0  0  0  0  0  0  0  0  0
   -0.7500    1.2990    0.0000 C   0  0  0  0  0  0  0  0  0  0  0  0
    0.7500    1.2990    0.0000 C   0  0  0  0  0  0  0  0  0  0  0  0
  1  2  1  0
  2  3  2  0
  3  4  1  0
  4  5  2  0
  5  6  1  0
  6  7  1  0
  7  8  2  0
  8  9  1  0
  9 10  2  0
  9 11  1  0
 11 12  1  0
 12 13  1  0
 13 14  1  0
 14 15  1  0
 15 16  1  0
 16 17  1  0
 17 18  1  0
 18 19  2  0
 18 20  2  0
 18 21  1  0
 21 22  2  0
 22 23  1  0
 23 24  1  0
 24 25  2  0
 24 26  1  0
 23 27  2  0
 27 28  1  0
 28 29  2  0
 29 30  1  0
 17 31  1  0
 31 32  1  0
 11 33  1  0
  5 34  1  0
 34 35  2  0
 35  2  1  0
 33  6  2  0
 32 14  1  0
 29 21  1  0
M  CHG  3  14   1  24   1  26  -1
M  END
>  <Compound_ID>  (1163) 
C23244785

>  <Active>  (1163) 
0.0

>  <Smiles>  (1163) 
Cc1ccc(-c2ccc(=O)n(CC[NH+]3CCN(S(=O)(=O)c4cc([N+](=O)[O-])ccc4Cl)CC3)n2)cc1

>  <canonical_smi>  (1163) 
Cc1ccc(-c2ccc(=O)n(CC[NH+]3CCN(S(=O)(=O)c4cc([N+](=O)[O-])ccc4Cl)CC3)n2)cc1

>  <Set>  (1163) 
G2 inactive

>  <Set_type>  (1163) 
Test

>  <MW>  (1163) 
519.0

>  <HBD>  (1163) 
1

>  <HBA>  (1163) 
6

>  <NRB>  (1163) 
7

>  <NR>  (1163) 
4

>  <NAR>  (1163) 
3

>  <PSA>  (1163) 
119.85

>  <Standard Type>  (1163) 
nan

>  <Standard Relation>  (1163) 
nan

>  <Standard Units>  (1163) 
nan

>  <Standard Value>  (1163) 
nan

>  <Assay ChEMBL ID>  (1163) 
nan

>  <Assay Description>  (1163) 
nan

>  <BAO Label>  (1163) 
nan

$$$$

     RDKit          2D

 40 43  0  0  0  0  0  0  0  0999 V2000
    7.5000    2.5981    0.0000 C   0  0  0  0  0  0  0  0  0  0  0  0
    6.7500    1.2990    0.0000 C   0  0  0  0  0  0  0  0  0  0  0  0
    5.2500    1.2990    0.0000 N   0  0  0  0  0  0  0  0  0  0  0  0
    4.5000    2.5981    0.0000 C   0  0  0  0  0  0  0  0  0  0  0  0
    5.2500    3.8971    0.0000 C   0  0  0  0  0  0  0  0  0  0  0  0
    4.5000    0.0000    0.0000 C   0  0  0  0  0  0  0  0  0  0  0  0
    5.2500   -1.2990    0.0000 O   0  0  0  0  0  0  0  0  0  0  0  0
    3.0000    0.0000    0.0000 C   0  0  0  0  0  0  0  0  0  0  0  0
    3.0000    1.5000    0.0000 C   0  0  0  0  0  0  0  0  0  0  0  0
    3.0000   -1.5000    0.0000 C   0  0  0  0  0  0  0  0  0  0  0  0
    1.5000    0.0000    0.0000 C   0  0  0  0  0  0  0  0  0  0  0  0
    0.7500   -1.2990    0.0000 C   0  0  0  0  0  0  0  0  0  0  0  0
   -0.7500   -1.2990    0.0000 C   0  0  0  0  0  0  0  0  0  0  0  0
   -1.5000    0.0000    0.0000 C   0  0  0  0  0  0  0  0  0  0  0  0
   -2.9672    0.3119    0.0000 N   0  0  0  0  0  0  0  0  0  0  0  0
   -3.1240    1.8037    0.0000 C   0  0  0  0  0  0  0  0  0  0  0  0
   -4.4231    2.5537    0.0000 C   0  0  0  0  0  0  0  0  0  0  0  0
   -4.4231    4.0537    0.0000 C   0  0  0  0  0  0  0  0  0  0  0  0
   -5.7221    4.8037    0.0000 C   0  0  0  0  0  0  0  0  0  0  0  0
   -5.7221    6.3037    0.0000 C   0  0  0  0  0  0  0  0  0  0  0  0
   -7.0211    4.0537    0.0000 C   0  0  0  0  0  0  0  0  0  0  0  0
   -7.0211    2.5537    0.0000 C   0  0  0  0  0  0  0  0  0  0  0  0
   -8.3202    1.8037    0.0000 C   0  0  0  0  0  0  0  0  0  0  0  0
   -5.7221    1.8037    0.0000 C   0  0  0  0  0  0  0  0  0  0  0  0
   -1.7537    2.4138    0.0000 C   0  0  0  0  0  0  0  0  0  0  0  0
   -1.4418    3.8810    0.0000 C   0  0  0  0  0  0  0  0  0  0  0  0
   -2.5565    4.8847    0.0000 C   0  0  0  0  0  0  0  0  0  0  0  0
   -2.2447    6.3519    0.0000 N   0  0  0  0  0  4  0  0  0  0  0  0
   -3.3594    7.3556    0.0000 C   0  0  0  0  0  0  0  0  0  0  0  0
   -3.0475    8.8228    0.0000 C   0  0  0  0  0  0  0  0  0  0  0  0
   -4.1622    9.8265    0.0000 C   0  0  0  0  0  0  0  0  0  0  0  0
   -3.8504   11.2937    0.0000 C   0  0  0  0  0  0  0  0  0  0  0  0
   -4.9651   12.2974    0.0000 C   0  0  0  0  0  0  0  0  0  0  0  0
   -4.6532   13.7646    0.0000 C   0  0  0  0  0  0  0  0  0  0  0  0
   -5.7679   14.7683    0.0000 C   0  0  0  0  0  0  0  0  0  0  0  0
   -7.1945   14.3048    0.0000 C   0  0  0  0  0  0  0  0  0  0  0  0
   -7.5064   12.8376    0.0000 N   0  0  0  0  0  0  0  0  0  0  0  0
   -6.3917   11.8339    0.0000 C   0  0  0  0  0  0  0  0  0  0  0  0
   -0.7500    1.2990    0.0000 C   0  0  0  0  0  0  0  0  0  0  0  0
    0.7500    1.2990    0.0000 C   0  0  0  0  0  0  0  0  0  0  0  0
  1  2  1  0
  2  3  1  0
  3  4  1  0
  4  5  1  0
  3  6  1  0
  6  7  2  0
  6  8  1  0
  8  9  1  0
  8 10  1  0
  8 11  1  0
 11 12  2  0
 12 13  1  0
 13 14  2  0
 14 15  1  0
 15 16  1  0
 16 17  1  0
 17 18  2  0
 18 19  1  0
 19 20  1  0
 19 21  2  0
 21 22  1  0
 22 23  1  0
 22 24  2  0
 16 25  2  0
 25 26  1  0
 26 27  1  0
 27 28  1  0
 28 29  1  0
 29 30  1  0
 30 31  1  0
 31 32  1  0
 32 33  1  0
 33 34  2  0
 34 35  1  0
 35 36  2  0
 36 37  1  0
 37 38  2  0
 25 39  1  0
 39 40  2  0
 40 11  1  0
 39 14  1  0
 24 17  1  0
 38 33  1  0
M  CHG  1  28   1
M  END
>  <Compound_ID>  (1164) 
C29412709

>  <Active>  (1164) 
0.0

>  <Smiles>  (1164) 
CCN(CC)C(=O)C(C)(C)c1ccc2[nH]c(-c3cc(C)cc(C)c3)c(CC[NH2+]CCCCc3cccnc3)c2c1

>  <canonical_smi>  (1164) 
CCN(CC)C(=O)C(C)(C)c1ccc2[nH]c(-c3cc(C)cc(C)c3)c(CC[NH2+]CCCCc3cccnc3)c2c1

>  <Set>  (1164) 
G2 inactive

>  <Set_type>  (1164) 
Test

>  <MW>  (1164) 
539.79

>  <HBD>  (1164) 
2

>  <HBA>  (1164) 
2

>  <NRB>  (1164) 
13

>  <NR>  (1164) 
4

>  <NAR>  (1164) 
4

>  <PSA>  (1164) 
65.6

>  <Standard Type>  (1164) 
nan

>  <Standard Relation>  (1164) 
nan

>  <Standard Units>  (1164) 
nan

>  <Standard Value>  (1164) 
nan

>  <Assay ChEMBL ID>  (1164) 
nan

>  <Assay Description>  (1164) 
nan

>  <BAO Label>  (1164) 
nan

$$$$

     RDKit          2D

 36 40  0  0  0  0  0  0  0  0999 V2000
    3.0000    0.0000    0.0000 C   0  0  0  0  0  0  0  0  0  0  0  0
    1.5000    0.0000    0.0000 C   0  0  0  0  0  0  0  0  0  0  0  0
    0.7500   -1.2990    0.0000 C   0  0  0  0  0  0  0  0  0  0  0  0
   -0.7500   -1.2990    0.0000 C   0  0  0  0  0  0  0  0  0  0  0  0
   -1.5000    0.0000    0.0000 C   0  0  0  0  0  0  0  0  0  0  0  0
   -3.0000    0.0000    0.0000 C   0  0  0  0  0  0  0  0  0  0  0  0
   -3.7500    1.2990    0.0000 C   0  0  0  0  0  0  0  0  0  0  0  0
   -5.2500    1.2990    0.0000 C   0  0  0  0  0  0  0  0  0  0  0  0
   -6.0000    0.0000    0.0000 N   0  0  0  0  0  0  0  0  0  0  0  0
   -7.5000    0.0000    0.0000 C   0  0  0  0  0  0  0  0  0  0  0  0
   -8.2500    1.2990    0.0000 C   0  0  0  0  0  0  0  0  0  0  0  0
   -9.7500    1.2990    0.0000 C   0  0  0  0  0  0  0  0  0  0  0  0
  -10.5000    2.5981    0.0000 N   0  0  0  0  0  0  0  0  0  0  0  0
  -11.9918    2.7549    0.0000 C   0  0  0  0  0  0  0  0  0  0  0  0
  -12.3037    4.2221    0.0000 C   0  0  0  0  0  0  0  0  0  0  0  0
  -11.0046    4.9721    0.0000 C   0  0  0  0  0  0  0  0  0  0  0  0
   -9.8899    3.9684    0.0000 C   0  0  0  0  0  0  0  0  0  0  0  0
   -8.4227    4.2803    0.0000 O   0  0  0  0  0  0  0  0  0  0  0  0
   -5.2500   -1.2990    0.0000 C   0  0  0  0  0  0  0  0  0  0  0  0
   -3.7500   -1.2990    0.0000 O   0  0  0  0  0  0  0  0  0  0  0  0
   -6.0000   -2.5981    0.0000 C   0  0  0  0  0  0  0  0  0  0  0  0
   -5.3899   -3.9684    0.0000 C   0  0  0  0  0  0  0  0  0  0  0  0
   -6.5046   -4.9721    0.0000 N   0  0  0  0  0  0  0  0  0  0  0  0
   -7.8037   -4.2221    0.0000 C   0  0  0  0  0  0  0  0  0  0  0  0
   -7.4918   -2.7549    0.0000 S   0  0  0  0  0  0  0  0  0  0  0  0
   -3.0000    2.5981    0.0000 C   0  0  0  0  0  0  0  0  0  0  0  0
   -3.7500    3.8971    0.0000 N   0  0  0  0  0  0  0  0  0  0  0  0
   -3.0000    5.1962    0.0000 C   0  0  0  0  0  0  0  0  0  0  0  0
   -3.7500    6.4952    0.0000 C   0  0  0  0  0  0  0  0  0  0  0  0
   -5.2500    6.4952    0.0000 C   0  0  0  0  0  0  0  0  0  0  0  0
   -6.0000    5.1962    0.0000 C   0  0  0  0  0  0  0  0  0  0  0  0
   -7.5000    5.1962    0.0000 O   0  0  0  0  0  0  0  0  0  0  0  0
   -5.2500    3.8971    0.0000 C   0  0  0  0  0  0  0  0  0  0  0  0
   -1.5000    2.5981    0.0000 N   0  0  0  0  0  4  0  0  0  0  0  0
   -0.7500    1.2990    0.0000 C   0  0  0  0  0  0  0  0  0  0  0  0
    0.7500    1.2990    0.0000 C   0  0  0  0  0  0  0  0  0  0  0  0
  1  2  1  0
  2  3  2  0
  3  4  1  0
  4  5  2  0
  5  6  1  0
  6  7  2  0
  7  8  1  0
  8  9  1  0
  9 10  1  0
 10 11  1  0
 11 12  1  0
 12 13  1  0
 13 14  1  0
 14 15  1  0
 15 16  1  0
 16 17  1  0
 17 18  2  0
  9 19  1  0
 19 20  2  0
 19 21  1  0
 21 22  2  0
 22 23  1  0
 23 24  2  0
 24 25  1  0
  7 26  1  0
 26 27  1  0
 27 28  1  0
 28 29  1  0
 29 30  1  0
 30 31  1  0
 31 32  1  1
 31 33  1  0
 26 34  2  0
 34 35  1  0
 35 36  2  0
 36  2  1  0
 35  5  1  0
 17 13  1  0
 25 21  1  0
 33 27  1  0
M  CHG  1  34   1
M  END
>  <Compound_ID>  (1165) 
C12470729

>  <Active>  (1165) 
0.0

>  <Smiles>  (1165) 
Cc1ccc2cc(CN(CCCN3CCCC3=O)C(=O)c3cncs3)c(N3CCC[C@H](O)C3)[nH+]c2c1

>  <canonical_smi>  (1165) 
Cc1ccc2cc(CN(CCCN3CCCC3=O)C(=O)c3cncs3)c(N3CCC[C@H](O)C3)[nH+]c2c1

>  <Set>  (1165) 
G2 inactive

>  <Set_type>  (1165) 
Test

>  <MW>  (1165) 
508.67

>  <HBD>  (1165) 
1

>  <HBA>  (1165) 
5

>  <NRB>  (1165) 
8

>  <NR>  (1165) 
5

>  <NAR>  (1165) 
3

>  <PSA>  (1165) 
91.12

>  <Standard Type>  (1165) 
nan

>  <Standard Relation>  (1165) 
nan

>  <Standard Units>  (1165) 
nan

>  <Standard Value>  (1165) 
nan

>  <Assay ChEMBL ID>  (1165) 
nan

>  <Assay Description>  (1165) 
nan

>  <BAO Label>  (1165) 
nan

$$$$

     RDKit          2D

 34 37  0  0  0  0  0  0  0  0999 V2000
   -3.8971  -12.9554    0.0000 C   0  0  0  0  0  0  0  0  0  0  0  0
   -2.5981  -12.2054    0.0000 N   0  0  0  0  0  4  0  0  0  0  0  0
   -1.2990  -12.9554    0.0000 C   0  0  0  0  0  0  0  0  0  0  0  0
   -2.5981  -10.7054    0.0000 C   0  0  0  0  0  0  0  0  0  0  0  0
   -1.2990   -9.9554    0.0000 C   0  0  0  0  0  0  0  0  0  0  0  0
   -1.2990   -8.4554    0.0000 C   0  0  0  0  0  0  0  0  0  0  0  0
    0.0000   -7.7054    0.0000 N   0  0  0  0  0  0  0  0  0  0  0  0
    1.2990   -8.4554    0.0000 C   0  0  0  0  0  0  0  0  0  0  0  0
    1.2990   -9.9554    0.0000 O   0  0  0  0  0  0  0  0  0  0  0  0
    2.5981   -7.7054    0.0000 C   0  0  0  0  0  0  0  0  0  0  0  0
    2.5981   -6.2054    0.0000 C   0  0  0  0  0  0  0  0  0  0  0  0
    3.8971   -5.4554    0.0000 C   0  0  0  0  0  0  0  0  0  0  0  0
    3.8971   -3.9554    0.0000 N   0  0  0  0  0  4  0  0  0  0  0  0
    2.5981   -3.2054    0.0000 O   0  0  0  0  0  0  0  0  0  0  0  0
    5.1962   -3.2054    0.0000 O   0  0  0  0  0  1  0  0  0  0  0  0
    5.1962   -6.2054    0.0000 C   0  0  0  0  0  0  0  0  0  0  0  0
    5.1962   -7.7054    0.0000 C   0  0  0  0  0  0  0  0  0  0  0  0
    6.4952   -8.4554    0.0000 N   0  0  0  0  0  4  0  0  0  0  0  0
    6.4952   -9.9554    0.0000 O   0  0  0  0  0  0  0  0  0  0  0  0
    7.7942   -7.7054    0.0000 O   0  0  0  0  0  1  0  0  0  0  0  0
    3.8971   -8.4554    0.0000 C   0  0  0  0  0  0  0  0  0  0  0  0
    0.0000   -6.2054    0.0000 C   0  0  0  0  0  0  0  0  0  0  0  0
   -1.2135   -5.3237    0.0000 N   0  0  0  0  0  0  0  0  0  0  0  0
   -0.7500   -3.8971    0.0000 C   0  0  0  0  0  0  0  0  0  0  0  0
   -1.5000   -2.5981    0.0000 C   0  0  0  0  0  0  0  0  0  0  0  0
   -0.7500   -1.2990    0.0000 C   0  0  0  0  0  0  0  0  0  0  0  0
    0.7500   -1.2990    0.0000 C   0  0  0  0  0  0  0  0  0  0  0  0
    1.5000   -2.5981    0.0000 C   0  0  0  0  0  0  0  0  0  0  0  0
    0.7500   -3.8971    0.0000 C   0  0  0  0  0  0  0  0  0  0  0  0
    1.2135   -5.3237    0.0000 S   0  0  0  0  0  0  0  0  0  0  0  0
    1.5000    0.0000    0.0000 O   0  0  0  0  0  0  0  0  0  0  0  0
    0.7500    1.2990    0.0000 C   0  0  0  0  0  0  0  0  0  0  0  0
   -0.7500    1.2990    0.0000 C   0  0  0  0  0  0  0  0  0  0  0  0
   -1.5000    0.0000    0.0000 O   0  0  0  0  0  0  0  0  0  0  0  0
  1  2  1  0
  2  3  1  0
  2  4  1  0
  4  5  1  0
  5  6  1  0
  6  7  1  0
  7  8  1  0
  8  9  2  0
  8 10  1  0
 10 11  2  0
 11 12  1  0
 12 13  1  0
 13 14  2  0
 13 15  1  0
 12 16  2  0
 16 17  1  0
 17 18  1  0
 18 19  2  0
 18 20  1  0
 17 21  2  0
  7 22  1  0
 22 23  2  0
 23 24  1  0
 24 25  2  0
 25 26  1  0
 26 27  2  0
 27 28  1  0
 28 29  2  0
 29 30  1  0
 27 31  1  0
 31 32  1  0
 32 33  1  0
 33 34  1  0
 21 10  1  0
 30 22  1  0
 29 24  1  0
 34 26  1  0
M  CHG  5   2   1  13   1  15  -1  18   1  20  -1
M  END
>  <Compound_ID>  (1166) 
C10068290

>  <Active>  (1166) 
0.0

>  <Smiles>  (1166) 
C[NH+](C)CCCN(C(=O)c1cc([N+](=O)[O-])cc([N+](=O)[O-])c1)c1nc2cc3c(cc2s1)OCCO3

>  <canonical_smi>  (1166) 
C[NH+](C)CCCN(C(=O)c1cc([N+](=O)[O-])cc([N+](=O)[O-])c1)c1nc2cc3c(cc2s1)OCCO3

>  <Set>  (1166) 
G2 inactive

>  <Set_type>  (1166) 
Test

>  <MW>  (1166) 
488.5

>  <HBD>  (1166) 
1

>  <HBA>  (1166) 
8

>  <NRB>  (1166) 
8

>  <NR>  (1166) 
4

>  <NAR>  (1166) 
3

>  <PSA>  (1166) 
142.38

>  <Standard Type>  (1166) 
nan

>  <Standard Relation>  (1166) 
nan

>  <Standard Units>  (1166) 
nan

>  <Standard Value>  (1166) 
nan

>  <Assay ChEMBL ID>  (1166) 
nan

>  <Assay Description>  (1166) 
nan

>  <BAO Label>  (1166) 
nan

$$$$

     RDKit          2D

 27 29  0  0  0  0  0  0  0  0999 V2000
    2.0490   -9.8433    0.0000 C   0  0  0  0  0  0  0  0  0  0  0  0
    0.7500   -9.0933    0.0000 C   0  0  0  0  0  0  0  0  0  0  0  0
   -0.5490   -8.3433    0.0000 C   0  0  0  0  0  0  0  0  0  0  0  0
    1.5000   -7.7942    0.0000 C   0  0  0  0  0  0  0  0  0  0  0  0
    0.7500   -6.4952    0.0000 N   0  0  0  0  0  0  0  0  0  0  0  0
    1.5000   -5.1962    0.0000 C   0  0  0  0  0  0  0  0  0  0  0  0
    3.0000   -5.1962    0.0000 O   0  0  0  0  0  0  0  0  0  0  0  0
    0.7500   -3.8971    0.0000 N   0  0  0  0  0  0  0  0  0  0  0  0
    1.5000   -2.5981    0.0000 N   0  0  0  0  0  0  0  0  0  0  0  0
    0.7500   -1.2990    0.0000 C   0  0  0  0  0  0  0  0  0  0  0  0
    1.5000    0.0000    0.0000 C   0  0  0  0  0  0  0  0  0  0  0  0
    0.7500    1.2990    0.0000 C   0  0  0  0  0  0  0  0  0  0  0  0
   -0.7500    1.2990    0.0000 C   0  0  0  0  0  0  0  0  0  0  0  0
   -1.5000    2.5981    0.0000 N   0  0  0  0  0  0  0  0  0  0  0  0
   -2.9918    2.7549    0.0000 C   0  0  0  0  0  0  0  0  0  0  0  0
   -3.3037    4.2221    0.0000 C   0  0  0  0  0  0  0  0  0  0  0  0
   -2.0046    4.9721    0.0000 C   0  0  0  0  0  0  0  0  0  0  0  0
   -0.8899    3.9684    0.0000 N   0  0  0  0  0  0  0  0  0  0  0  0
   -1.5000    0.0000    0.0000 N   0  0  0  0  0  0  0  0  0  0  0  0
   -0.7500   -1.2990    0.0000 N   0  0  0  0  0  0  0  0  0  0  0  0
   -0.0000  -10.3923    0.0000 C   0  0  0  0  0  0  0  0  0  0  0  0
   -1.5000  -10.3923    0.0000 C   0  0  0  0  0  0  0  0  0  0  0  0
   -2.2500  -11.6913    0.0000 C   0  0  0  0  0  0  0  0  0  0  0  0
   -1.5000  -12.9904    0.0000 C   0  0  0  0  0  0  0  0  0  0  0  0
   -2.2500  -14.2894    0.0000 Cl  0  0  0  0  0  0  0  0  0  0  0  0
   -0.0000  -12.9904    0.0000 C   0  0  0  0  0  0  0  0  0  0  0  0
    0.7500  -11.6913    0.0000 C   0  0  0  0  0  0  0  0  0  0  0  0
  1  2  1  0
  2  3  1  0
  2  4  1  0
  4  5  1  0
  5  6  1  0
  6  7  2  0
  6  8  1  0
  8  9  1  0
  9 10  1  0
 10 11  2  0
 11 12  1  0
 12 13  2  0
 13 14  1  0
 14 15  1  0
 15 16  2  0
 16 17  1  0
 17 18  2  0
 13 19  1  0
 19 20  2  0
  2 21  1  0
 21 22  2  0
 22 23  1  0
 23 24  2  0
 24 25  1  0
 24 26  1  0
 26 27  2  0
 20 10  1  0
 27 21  1  0
 18 14  1  0
M  END
>  <Compound_ID>  (1167) 
C57281653

>  <Active>  (1167) 
0.0

>  <Smiles>  (1167) 
CC(C)(CNC(=O)NNc1ccc(-n2cccn2)nn1)c1ccc(Cl)cc1

>  <canonical_smi>  (1167) 
CC(C)(CNC(=O)NNc1ccc(-n2cccn2)nn1)c1ccc(Cl)cc1

>  <Set>  (1167) 
G2 inactive

>  <Set_type>  (1167) 
Test

>  <MW>  (1167) 
385.86

>  <HBD>  (1167) 
3

>  <HBA>  (1167) 
5

>  <NRB>  (1167) 
6

>  <NR>  (1167) 
3

>  <NAR>  (1167) 
3

>  <PSA>  (1167) 
96.76

>  <Standard Type>  (1167) 
nan

>  <Standard Relation>  (1167) 
nan

>  <Standard Units>  (1167) 
nan

>  <Standard Value>  (1167) 
nan

>  <Assay ChEMBL ID>  (1167) 
nan

>  <Assay Description>  (1167) 
nan

>  <BAO Label>  (1167) 
nan

$$$$

     RDKit          2D

 25 28  0  0  0  0  0  0  0  0999 V2000
   -1.5000   -5.1962    0.0000 C   0  0  0  0  0  0  0  0  0  0  0  0
   -0.7500   -3.8971    0.0000 C   0  0  0  0  0  0  0  0  0  0  0  0
    0.7500   -3.8971    0.0000 C   0  0  0  0  0  0  0  0  0  0  0  0
    1.5000   -2.5981    0.0000 C   0  0  0  0  0  0  0  0  0  0  0  0
    3.0000   -2.5981    0.0000 N   0  0  0  0  0  0  0  0  0  0  0  0
    3.7500   -3.8971    0.0000 C   0  0  0  0  0  0  0  0  0  0  0  0
    3.0000   -5.1962    0.0000 O   0  0  0  0  0  0  0  0  0  0  0  0
    5.2500   -3.8971    0.0000 C   0  0  0  0  0  0  0  0  0  0  0  0
    6.0000   -5.1962    0.0000 N   0  0  0  0  0  0  0  0  0  0  0  0
    7.5000   -5.1962    0.0000 C   0  0  0  0  0  0  0  0  0  0  0  0
    8.2500   -6.4952    0.0000 C   0  0  0  0  0  0  0  0  0  0  0  0
    9.7500   -6.4952    0.0000 C   0  0  0  0  0  0  0  0  0  0  0  0
   10.5000   -5.1962    0.0000 C   0  0  0  0  0  0  0  0  0  0  0  0
    9.7500   -3.8971    0.0000 C   0  0  0  0  0  0  0  0  0  0  0  0
    8.2500   -3.8971    0.0000 C   0  0  0  0  0  0  0  0  0  0  0  0
    7.5000   -2.5981    0.0000 N   0  0  0  0  0  0  0  0  0  0  0  0
    6.0000   -2.5981    0.0000 C   0  0  0  0  0  0  0  0  0  0  0  0
    5.2500   -1.2990    0.0000 Cl  0  0  0  0  0  0  0  0  0  0  0  0
    0.7500   -1.2990    0.0000 C   0  0  0  0  0  0  0  0  0  0  0  0
    1.5000    0.0000    0.0000 C   0  0  0  0  0  0  0  0  0  0  0  0
    0.7500    1.2990    0.0000 C   0  0  0  0  0  0  0  0  0  0  0  0
   -0.7500    1.2990    0.0000 C   0  0  0  0  0  0  0  0  0  0  0  0
   -1.5000    0.0000    0.0000 C   0  0  0  0  0  0  0  0  0  0  0  0
   -0.7500   -1.2990    0.0000 C   0  0  0  0  0  0  0  0  0  0  0  0
   -1.5000   -2.5981    0.0000 N   0  0  0  0  0  0  0  0  0  0  0  0
  1  2  1  0
  2  3  2  0
  3  4  1  0
  4  5  2  3
  5  6  1  0
  6  7  2  0
  6  8  1  0
  8  9  2  0
  9 10  1  0
 10 11  2  0
 11 12  1  0
 12 13  2  0
 13 14  1  0
 14 15  2  0
 15 16  1  0
 16 17  2  0
 17 18  1  0
  4 19  1  0
 19 20  2  0
 20 21  1  0
 21 22  2  0
 22 23  1  0
 23 24  2  0
 24 25  1  0
 25  2  1  0
 17  8  1  0
 24 19  1  0
 15 10  1  0
M  END
>  <Compound_ID>  (1168) 
C21366982

>  <Active>  (1168) 
0.0

>  <Smiles>  (1168) 
Cc1cc(=NC(=O)c2nc3ccccc3nc2Cl)c2ccccc2[nH]1

>  <canonical_smi>  (1168) 
Cc1cc(=NC(=O)c2nc3ccccc3nc2Cl)c2ccccc2[nH]1

>  <Set>  (1168) 
G2 inactive

>  <Set_type>  (1168) 
Test

>  <MW>  (1168) 
348.79

>  <HBD>  (1168) 
1

>  <HBA>  (1168) 
3

>  <NRB>  (1168) 
1

>  <NR>  (1168) 
4

>  <NAR>  (1168) 
4

>  <PSA>  (1168) 
71.0

>  <Standard Type>  (1168) 
nan

>  <Standard Relation>  (1168) 
nan

>  <Standard Units>  (1168) 
nan

>  <Standard Value>  (1168) 
nan

>  <Assay ChEMBL ID>  (1168) 
nan

>  <Assay Description>  (1168) 
nan

>  <BAO Label>  (1168) 
nan

$$$$

     RDKit          2D

 34 38  0  0  0  0  0  0  0  0999 V2000
    0.7500   -9.0933    0.0000 C   0  0  0  0  0  0  0  0  0  0  0  0
    1.5000   -7.7942    0.0000 S   0  0  0  0  0  0  0  0  0  0  0  0
    0.7500   -6.4952    0.0000 C   0  0  0  0  0  0  0  0  0  0  0  0
    1.5000   -5.1962    0.0000 C   0  0  0  0  0  0  0  0  0  0  0  0
    0.7500   -3.8971    0.0000 C   0  0  0  0  0  0  0  0  0  0  0  0
   -0.7500   -3.8971    0.0000 N   0  0  0  0  0  0  0  0  0  0  0  0
   -1.5000   -5.1962    0.0000 C   0  0  0  0  0  0  0  0  0  0  0  0
   -0.7500   -6.4952    0.0000 O   0  0  0  0  0  0  0  0  0  0  0  0
   -3.0000   -5.1962    0.0000 C   0  0  0  0  0  0  0  0  0  0  0  0
   -3.7500   -3.8971    0.0000 C   0  0  0  0  0  0  0  0  0  0  0  0
   -5.2500   -3.8971    0.0000 C   0  0  0  0  0  0  0  0  0  0  0  0
   -6.0000   -5.1962    0.0000 C   0  0  0  0  0  0  0  0  0  0  0  0
   -7.5000   -5.1962    0.0000 C   0  0  0  0  0  0  0  0  0  0  0  0
   -8.2500   -6.4952    0.0000 C   0  0  0  0  0  0  0  0  0  0  0  0
   -7.5000   -7.7942    0.0000 C   0  0  0  0  0  0  0  0  0  0  0  0
   -6.0000   -7.7942    0.0000 C   0  0  0  0  0  0  0  0  0  0  0  0
   -5.2500   -6.4952    0.0000 C   0  0  0  0  0  0  0  0  0  0  0  0
   -3.7500   -6.4952    0.0000 C   0  0  0  0  0  0  0  0  0  0  0  0
    1.5000   -2.5981    0.0000 C   0  0  0  0  0  0  0  0  0  0  0  0
    3.0000   -2.5981    0.0000 O   0  0  0  0  0  0  0  0  0  0  0  0
    0.7500   -1.2990    0.0000 N   0  0  0  0  0  0  0  0  0  0  0  0
    1.5000    0.0000    0.0000 C   0  0  0  0  0  0  0  0  0  0  0  0
    0.7500    1.2990    0.0000 C   0  0  0  0  0  0  0  0  0  0  0  0
   -0.7500    1.2990    0.0000 C   0  0  0  0  0  0  0  0  0  0  0  0
   -1.5000    0.0000    0.0000 C   0  0  0  0  0  0  0  0  0  0  0  0
   -0.7500   -1.2990    0.0000 C   0  0  0  0  0  0  0  0  0  0  0  0
    0.0000    2.5981    0.0000 N   0  0  0  0  0  0  0  0  0  0  0  0
   -0.7500    3.8971    0.0000 C   0  0  0  0  0  0  0  0  0  0  0  0
   -2.2500    3.8971    0.0000 C   0  0  0  0  0  0  0  0  0  0  0  0
   -3.0000    2.5981    0.0000 C   0  0  0  0  0  0  0  0  0  0  0  0
   -4.4672    2.2862    0.0000 N   0  0  0  0  0  0  0  0  0  0  0  0
   -4.6240    0.7944    0.0000 C   0  0  0  0  0  0  0  0  0  0  0  0
   -3.2537    0.1843    0.0000 N   0  0  0  0  0  4  0  0  0  0  0  0
   -2.2500    1.2990    0.0000 C   0  0  0  0  0  0  0  0  0  0  0  0
  1  2  1  0
  2  3  1  0
  3  4  1  0
  5  4  1  6
  5  6  1  0
  6  7  1  0
  7  8  2  0
  7  9  1  0
  9 10  2  0
 10 11  1  0
 11 12  2  0
 12 13  1  0
 13 14  2  0
 14 15  1  0
 15 16  2  0
 16 17  1  0
 17 18  2  0
  5 19  1  0
 19 20  2  0
 19 21  1  0
 21 22  1  0
 22 23  1  0
 23 24  1  0
 24 25  1  0
 25 26  1  0
 24 27  1  0
 27 28  1  0
 28 29  1  0
 29 30  1  0
 30 31  1  0
 31 32  1  0
 32 33  2  0
 33 34  1  0
 18  9  1  0
 26 21  1  0
 34 30  2  0
 17 12  1  0
 34 24  1  0
M  CHG  1  33   1
M  END
>  <Compound_ID>  (1169) 
C20573496

>  <Active>  (1169) 
0.0

>  <Smiles>  (1169) 
CSCC[C@H](NC(=O)c1ccc2ccccc2c1)C(=O)N1CCC2(CC1)NCCc1[nH]c[nH+]c12

>  <canonical_smi>  (1169) 
CSCC[C@H](NC(=O)c1ccc2ccccc2c1)C(=O)N1CCC2(CC1)NCCc1[nH]c[nH+]c12

>  <Set>  (1169) 
G2 inactive

>  <Set_type>  (1169) 
Test

>  <MW>  (1169) 
478.64

>  <HBD>  (1169) 
3

>  <HBA>  (1169) 
4

>  <NRB>  (1169) 
6

>  <NR>  (1169) 
5

>  <NAR>  (1169) 
3

>  <PSA>  (1169) 
91.37

>  <Standard Type>  (1169) 
nan

>  <Standard Relation>  (1169) 
nan

>  <Standard Units>  (1169) 
nan

>  <Standard Value>  (1169) 
nan

>  <Assay ChEMBL ID>  (1169) 
nan

>  <Assay Description>  (1169) 
nan

>  <BAO Label>  (1169) 
nan

$$$$

     RDKit          2D

 28 31  0  0  0  0  0  0  0  0999 V2000
   -2.6401   -3.1891    0.0000 C   0  0  0  0  0  0  0  0  0  0  0  0
   -1.2135   -2.7256    0.0000 N   0  0  0  0  0  0  0  0  0  0  0  0
   -0.0000   -3.6073    0.0000 C   0  0  0  0  0  0  0  0  0  0  0  0
    1.2135   -2.7256    0.0000 C   0  0  0  0  0  0  0  0  0  0  0  0
    0.7500   -1.2990    0.0000 C   0  0  0  0  0  0  0  0  0  0  0  0
    1.5000    0.0000    0.0000 C   0  0  0  0  0  0  0  0  0  0  0  0
    0.7500    1.2990    0.0000 C   0  0  0  0  0  0  0  0  0  0  0  0
    1.5000    2.5981    0.0000 C   0  0  0  0  0  0  0  0  0  0  0  0
    3.0000    2.5981    0.0000 C   0  0  0  0  0  0  0  0  0  0  0  0
    3.7500    3.8971    0.0000 N   0  0  0  0  0  0  0  0  0  0  0  0
    5.2500    3.8971    0.0000 S   0  0  0  0  0  0  0  0  0  0  0  0
    5.2500    2.3971    0.0000 O   0  0  0  0  0  0  0  0  0  0  0  0
    5.2500    5.3971    0.0000 O   0  0  0  0  0  0  0  0  0  0  0  0
    6.7500    3.8971    0.0000 C   0  0  0  0  0  0  0  0  0  0  0  0
    7.6317    5.1106    0.0000 C   0  0  0  0  0  0  0  0  0  0  0  0
    9.0583    4.6471    0.0000 C   0  0  0  0  0  0  0  0  0  0  0  0
    9.0583    3.1471    0.0000 C   0  0  0  0  0  0  0  0  0  0  0  0
    7.6317    2.6836    0.0000 S   0  0  0  0  0  0  0  0  0  0  0  0
    0.7500    3.8971    0.0000 N   0  0  0  0  0  0  0  0  0  0  0  0
    1.5000    5.1962    0.0000 C   0  0  0  0  0  0  0  0  0  0  0  0
    0.7500    6.4952    0.0000 C   0  0  0  0  0  0  0  0  0  0  0  0
   -0.7500    6.4952    0.0000 N   0  0  0  0  0  4  0  0  0  0  0  0
   -1.5000    7.7942    0.0000 C   0  0  0  0  0  0  0  0  0  0  0  0
   -1.5000    5.1962    0.0000 C   0  0  0  0  0  0  0  0  0  0  0  0
   -0.7500    3.8971    0.0000 C   0  0  0  0  0  0  0  0  0  0  0  0
   -0.7500    1.2990    0.0000 C   0  0  0  0  0  0  0  0  0  0  0  0
   -1.5000    0.0000    0.0000 C   0  0  0  0  0  0  0  0  0  0  0  0
   -0.7500   -1.2990    0.0000 C   0  0  0  0  0  0  0  0  0  0  0  0
  1  2  1  0
  2  3  1  0
  3  4  1  0
  4  5  1  0
  5  6  2  0
  6  7  1  0
  7  8  1  0
  8  9  1  1
  9 10  1  0
 10 11  1  0
 11 12  2  0
 11 13  2  0
 11 14  1  0
 14 15  2  0
 15 16  1  0
 16 17  2  0
 17 18  1  0
  8 19  1  0
 19 20  1  0
 20 21  1  0
 21 22  1  0
 22 23  1  0
 22 24  1  0
 24 25  1  0
  7 26  2  0
 26 27  1  0
 27 28  2  0
 28  2  1  0
 28  5  1  0
 18 14  1  0
 25 19  1  0
M  CHG  1  22   1
M  END
>  <Compound_ID>  (1170) 
C22735776

>  <Active>  (1170) 
0.0

>  <Smiles>  (1170) 
CN1CCc2cc([C@H](CNS(=O)(=O)c3cccs3)N3CC[NH+](C)CC3)ccc21

>  <canonical_smi>  (1170) 
CN1CCc2cc([C@H](CNS(=O)(=O)c3cccs3)N3CC[NH+](C)CC3)ccc21

>  <Set>  (1170) 
G2 inactive

>  <Set_type>  (1170) 
Test

>  <MW>  (1170) 
421.61

>  <HBD>  (1170) 
2

>  <HBA>  (1170) 
4

>  <NRB>  (1170) 
6

>  <NR>  (1170) 
4

>  <NAR>  (1170) 
2

>  <PSA>  (1170) 
57.09

>  <Standard Type>  (1170) 
nan

>  <Standard Relation>  (1170) 
nan

>  <Standard Units>  (1170) 
nan

>  <Standard Value>  (1170) 
nan

>  <Assay ChEMBL ID>  (1170) 
nan

>  <Assay Description>  (1170) 
nan

>  <BAO Label>  (1170) 
nan

$$$$

     RDKit          2D

 31 34  0  0  0  0  0  0  0  0999 V2000
   -8.1626   -3.9763    0.0000 C   0  0  0  0  0  0  0  0  0  0  0  0
   -6.8636   -4.7263    0.0000 C   0  0  0  0  0  0  0  0  0  0  0  0
   -6.7068   -6.2181    0.0000 N   0  0  0  0  0  0  0  0  0  0  0  0
   -5.2396   -6.5300    0.0000 N   0  0  0  0  0  0  0  0  0  0  0  0
   -4.6295   -7.9003    0.0000 C   0  0  0  0  0  0  0  0  0  0  0  0
   -4.4896   -5.2309    0.0000 C   0  0  0  0  0  0  0  0  0  0  0  0
   -5.4933   -4.1162    0.0000 C   0  0  0  0  0  0  0  0  0  0  0  0
   -5.1814   -2.6490    0.0000 C   0  0  0  0  0  0  0  0  0  0  0  0
   -6.2961   -1.6453    0.0000 C   0  0  0  0  0  0  0  0  0  0  0  0
   -3.7548   -2.1855    0.0000 N   0  0  0  0  0  4  0  0  0  0  0  0
   -2.6401   -3.1891    0.0000 C   0  0  0  0  0  0  0  0  0  0  0  0
   -1.2135   -2.7256    0.0000 C   0  0  0  0  0  0  0  0  0  0  0  0
   -0.0000   -3.6073    0.0000 C   0  0  0  0  0  0  0  0  0  0  0  0
   -0.0000   -5.1073    0.0000 C   0  0  0  0  0  0  0  0  0  0  0  0
   -1.2990   -5.8573    0.0000 O   0  0  0  0  0  0  0  0  0  0  0  0
    1.2990   -5.8573    0.0000 N   0  0  0  0  0  0  0  0  0  0  0  0
    2.4891   -4.9442    0.0000 C   0  0  0  0  0  0  0  0  0  0  0  0
    3.9762   -5.1399    0.0000 C   0  0  0  0  0  0  0  0  0  0  0  0
    4.8894   -6.3300    0.0000 C   0  0  0  0  0  0  0  0  0  0  0  0
    4.6936   -7.8171    0.0000 C   0  0  0  0  0  0  0  0  0  0  0  0
    3.5036   -8.7303    0.0000 C   0  0  0  0  0  0  0  0  0  0  0  0
    2.0164   -8.5345    0.0000 C   0  0  0  0  0  0  0  0  0  0  0  0
    1.1032   -7.3445    0.0000 C   0  0  0  0  0  0  0  0  0  0  0  0
    1.2135   -2.7256    0.0000 N   0  0  0  0  0  0  0  0  0  0  0  0
    0.7500   -1.2990    0.0000 C   0  0  0  0  0  0  0  0  0  0  0  0
    1.5000    0.0000    0.0000 C   0  0  0  0  0  0  0  0  0  0  0  0
    0.7500    1.2990    0.0000 C   0  0  0  0  0  0  0  0  0  0  0  0
   -0.7500    1.2990    0.0000 C   0  0  0  0  0  0  0  0  0  0  0  0
   -1.5000    2.5981    0.0000 Cl  0  0  0  0  0  0  0  0  0  0  0  0
   -1.5000    0.0000    0.0000 C   0  0  0  0  0  0  0  0  0  0  0  0
   -0.7500   -1.2990    0.0000 N   0  0  0  0  0  0  0  0  0  0  0  0
  1  2  1  0
  2  3  2  0
  3  4  1  0
  4  5  1  0
  4  6  1  0
  6  7  2  0
  7  8  1  0
  8  9  1  1
  8 10  1  0
 10 11  1  0
 11 12  1  0
 12 13  2  0
 13 14  1  0
 14 15  2  0
 14 16  1  0
 16 17  1  0
 17 18  1  0
 18 19  1  0
 19 20  1  0
 20 21  1  0
 21 22  1  0
 22 23  1  0
 13 24  1  0
 24 25  2  0
 25 26  1  0
 26 27  2  0
 27 28  1  0
 28 29  1  0
 28 30  2  0
 30 31  1  0
  7  2  1  0
 31 12  1  0
 23 16  1  0
 31 25  1  0
M  CHG  1  10   1
M  END
>  <Compound_ID>  (1171) 
C12300862

>  <Active>  (1171) 
0.0

>  <Smiles>  (1171) 
Cc1nn(C)cc1[C@@H](C)[NH2+]Cc1c(C(=O)N2CCCCCCC2)nc2ccc(Cl)cn12

>  <canonical_smi>  (1171) 
Cc1nn(C)cc1[C@@H](C)[NH2+]Cc1c(C(=O)N2CCCCCCC2)nc2ccc(Cl)cn12

>  <Set>  (1171) 
G2 inactive

>  <Set_type>  (1171) 
Test

>  <MW>  (1171) 
444.0

>  <HBD>  (1171) 
1

>  <HBA>  (1171) 
3

>  <NRB>  (1171) 
5

>  <NR>  (1171) 
4

>  <NAR>  (1171) 
3

>  <PSA>  (1171) 
72.04

>  <Standard Type>  (1171) 
nan

>  <Standard Relation>  (1171) 
nan

>  <Standard Units>  (1171) 
nan

>  <Standard Value>  (1171) 
nan

>  <Assay ChEMBL ID>  (1171) 
nan

>  <Assay Description>  (1171) 
nan

>  <BAO Label>  (1171) 
nan

$$$$

     RDKit          2D

 31 35  0  0  0  0  0  0  0  0999 V2000
    9.3469   -1.7986    0.0000 O   0  0  0  0  0  0  0  0  0  0  0  0
    9.0350   -3.2658    0.0000 C   0  0  0  0  0  0  0  0  0  0  0  0
    7.6085   -3.7293    0.0000 C   0  0  0  0  0  0  0  0  0  0  0  0
    6.4937   -2.7256    0.0000 S   0  0  0  0  0  0  0  0  0  0  0  0
    5.0672   -3.1891    0.0000 C   0  0  0  0  0  0  0  0  0  0  0  0
    4.6036   -4.6157    0.0000 N   0  0  0  0  0  0  0  0  0  0  0  0
    3.1036   -4.6157    0.0000 N   0  0  0  0  0  0  0  0  0  0  0  0
    2.6401   -3.1891    0.0000 C   0  0  0  0  0  0  0  0  0  0  0  0
    1.2135   -2.7256    0.0000 C   0  0  0  0  0  0  0  0  0  0  0  0
    0.7500   -1.2990    0.0000 C   0  0  0  0  0  0  0  0  0  0  0  0
    1.5000    0.0000    0.0000 C   0  0  0  0  0  0  0  0  0  0  0  0
    0.7500    1.2990    0.0000 C   0  0  0  0  0  0  0  0  0  0  0  0
   -0.7500    1.2990    0.0000 C   0  0  0  0  0  0  0  0  0  0  0  0
   -1.5000    0.0000    0.0000 C   0  0  0  0  0  0  0  0  0  0  0  0
   -0.7500   -1.2990    0.0000 C   0  0  0  0  0  0  0  0  0  0  0  0
   -1.2135   -2.7256    0.0000 N   0  0  0  0  0  4  0  0  0  0  0  0
    0.0000   -3.6073    0.0000 C   0  0  0  0  0  0  0  0  0  0  0  0
    3.8536   -2.3075    0.0000 N   0  0  0  0  0  0  0  0  0  0  0  0
    3.8536   -0.8075    0.0000 C   0  0  0  0  0  0  0  0  0  0  0  0
    5.1527   -0.0575    0.0000 C   0  0  0  0  0  0  0  0  0  0  0  0
    5.3095    1.4343    0.0000 C   0  0  0  0  0  0  0  0  0  0  0  0
    6.7767    1.7462    0.0000 C   0  0  0  0  0  0  0  0  0  0  0  0
    7.5267    0.4471    0.0000 C   0  0  0  0  0  0  0  0  0  0  0  0
    6.5230   -0.6676    0.0000 O   0  0  0  0  0  0  0  0  0  0  0  0
   10.1498   -4.2695    0.0000 N   0  0  0  0  0  0  0  0  0  0  0  0
   11.5764   -3.8060    0.0000 C   0  0  0  0  0  0  0  0  0  0  0  0
   12.6911   -4.8097    0.0000 C   0  0  0  0  0  0  0  0  0  0  0  0
   14.1177   -4.3461    0.0000 C   0  0  0  0  0  0  0  0  0  0  0  0
   14.4295   -2.8789    0.0000 C   0  0  0  0  0  0  0  0  0  0  0  0
   13.3148   -1.8752    0.0000 C   0  0  0  0  0  0  0  0  0  0  0  0
   11.8882   -2.3387    0.0000 C   0  0  0  0  0  0  0  0  0  0  0  0
  1  2  2  0
  2  3  1  0
  3  4  1  0
  5  4  1  6
  5  6  1  0
  6  7  1  0
  7  8  2  0
  8  9  1  0
  9 10  2  0
 10 11  1  0
 11 12  2  0
 12 13  1  0
 13 14  2  0
 14 15  1  0
 15 16  2  0
 16 17  1  0
  8 18  1  0
 18 19  1  0
 20 19  1  1
 20 21  1  0
 21 22  1  0
 22 23  1  0
 23 24  1  0
  2 25  1  0
 25 26  1  0
 26 27  2  0
 27 28  1  0
 28 29  2  0
 29 30  1  0
 30 31  2  0
 18  5  1  0
 24 20  1  0
 31 26  1  0
 17  9  1  0
 15 10  1  0
M  CHG  1  16   1
M  END
>  <Compound_ID>  (1172) 
C39142631

>  <Active>  (1172) 
0.0

>  <Smiles>  (1172) 
O=C(CS[C@@H]1NN=C(C2=c3ccccc3=[NH+]C2)N1C[C@H]1CCCO1)Nc1ccccc1

>  <canonical_smi>  (1172) 
O=C(CS[C@@H]1NN=C(C2=c3ccccc3=[NH+]C2)N1C[C@H]1CCCO1)Nc1ccccc1

>  <Set>  (1172) 
G2 inactive

>  <Set_type>  (1172) 
Test

>  <MW>  (1172) 
436.56

>  <HBD>  (1172) 
3

>  <HBA>  (1172) 
5

>  <NRB>  (1172) 
7

>  <NR>  (1172) 
5

>  <NAR>  (1172) 
2

>  <PSA>  (1172) 
79.93

>  <Standard Type>  (1172) 
nan

>  <Standard Relation>  (1172) 
nan

>  <Standard Units>  (1172) 
nan

>  <Standard Value>  (1172) 
nan

>  <Assay ChEMBL ID>  (1172) 
nan

>  <Assay Description>  (1172) 
nan

>  <BAO Label>  (1172) 
nan

$$$$

     RDKit          2D

 31 35  0  0  0  0  0  0  0  0999 V2000
    8.3467   -1.6056    0.0000 C   0  0  0  0  0  0  0  0  0  0  0  0
    7.3598   -0.4760    0.0000 C   0  0  0  0  0  0  0  0  0  0  0  0
    7.8446    0.9435    0.0000 O   0  0  0  0  0  0  0  0  0  0  0  0
    6.8577    2.0731    0.0000 C   0  0  0  0  0  0  0  0  0  0  0  0
    5.3859    1.7832    0.0000 C   0  0  0  0  0  0  0  0  0  0  0  0
    4.9011    0.3638    0.0000 Cl  0  0  0  0  0  0  0  0  0  0  0  0
    4.3990    2.9128    0.0000 C   0  0  0  0  0  0  0  0  0  0  0  0
    4.8839    4.3323    0.0000 C   0  0  0  0  0  0  0  0  0  0  0  0
    3.8969    5.4619    0.0000 C   0  0  0  0  0  0  0  0  0  0  0  0
    4.3818    6.8814    0.0000 N   0  0  0  0  0  0  0  0  0  0  0  0
    3.3949    8.0110    0.0000 C   0  0  0  0  0  0  0  0  0  0  0  0
    3.8797    9.4305    0.0000 N   0  0  0  0  0  4  0  0  0  0  0  0
    1.9231    7.7212    0.0000 N   0  0  0  0  0  0  0  0  0  0  0  0
    1.4383    6.3017    0.0000 C   0  0  0  0  0  0  0  0  0  0  0  0
    0.0590    5.7121    0.0000 N   0  0  0  0  0  0  0  0  0  0  0  0
    0.1935    4.2182    0.0000 C   0  0  0  0  0  0  0  0  0  0  0  0
   -0.8268    3.1186    0.0000 C   0  0  0  0  0  0  0  0  0  0  0  0
   -0.3846    1.6852    0.0000 C   0  0  0  0  0  0  0  0  0  0  0  0
    1.0777    1.3515    0.0000 C   0  0  0  0  0  0  0  0  0  0  0  0
    2.0980    2.4510    0.0000 C   0  0  0  0  0  0  0  0  0  0  0  0
    1.6559    3.8844    0.0000 C   0  0  0  0  0  0  0  0  0  0  0  0
    2.4252    5.1721    0.0000 N   0  0  0  0  0  0  0  0  0  0  0  0
    1.7286    0.0000    0.0000 O   0  0  0  0  0  0  0  0  0  0  0  0
    1.0777   -1.3515    0.0000 C   0  0  0  0  0  0  0  0  0  0  0  0
   -0.3846   -1.6852    0.0000 C   0  0  0  0  0  0  0  0  0  0  0  0
   -1.5574   -0.7500    0.0000 C   0  0  0  0  0  0  0  0  0  0  0  0
   -1.5574    0.7500    0.0000 O   0  0  0  0  0  0  0  0  0  0  0  0
    6.3556    4.6222    0.0000 C   0  0  0  0  0  0  0  0  0  0  0  0
    7.3425    3.4926    0.0000 C   0  0  0  0  0  0  0  0  0  0  0  0
    8.8142    3.7825    0.0000 O   0  0  0  0  0  0  0  0  0  0  0  0
    9.2990    5.2020    0.0000 C   0  0  0  0  0  0  0  0  0  0  0  0
  1  2  1  0
  2  3  1  0
  3  4  1  0
  4  5  2  0
  5  6  1  0
  5  7  1  0
  7  8  2  0
  9  8  1  6
  9 10  1  0
 10 11  1  0
 11 12  2  0
 11 13  1  0
 13 14  1  0
 14 15  2  0
 15 16  1  0
 16 17  2  0
 17 18  1  0
 18 19  2  0
 19 20  1  0
 20 21  2  0
 21 22  1  0
 19 23  1  0
 23 24  1  0
 24 25  1  0
 25 26  1  0
 26 27  1  0
  8 28  1  0
 28 29  2  0
 29 30  1  0
 30 31  1  0
 29  4  1  0
 22  9  1  0
 22 14  1  0
 21 16  1  0
 27 18  1  0
M  CHG  1  12   1
M  END
>  <Compound_ID>  (1173) 
C12549652

>  <Active>  (1173) 
0.0

>  <Smiles>  (1173) 
CCOc1c(Cl)cc([C@H]2NC(=[NH2+])Nc3nc4cc5c(cc4n32)OCCCO5)cc1OC

>  <canonical_smi>  (1173) 
CCOc1c(Cl)cc([C@H]2NC(=[NH2+])Nc3nc4cc5c(cc4n32)OCCCO5)cc1OC

>  <Set>  (1173) 
G2 inactive

>  <Set_type>  (1173) 
Test

>  <MW>  (1173) 
444.9

>  <HBD>  (1173) 
3

>  <HBA>  (1173) 
7

>  <NRB>  (1173) 
4

>  <NR>  (1173) 
5

>  <NAR>  (1173) 
3

>  <PSA>  (1173) 
104.39

>  <Standard Type>  (1173) 
nan

>  <Standard Relation>  (1173) 
nan

>  <Standard Units>  (1173) 
nan

>  <Standard Value>  (1173) 
nan

>  <Assay ChEMBL ID>  (1173) 
nan

>  <Assay Description>  (1173) 
nan

>  <BAO Label>  (1173) 
nan

$$$$

     RDKit          2D

 32 33  0  0  0  0  0  0  0  0999 V2000
   10.5000    2.5981    0.0000 C   0  0  0  0  0  0  0  0  0  0  0  0
    9.7500    1.2990    0.0000 C   0  0  0  0  0  0  0  0  0  0  0  0
    8.2500    1.2990    0.0000 C   0  0  0  0  0  0  0  0  0  0  0  0
    7.5000   -0.0000    0.0000 C   0  0  0  0  0  0  0  0  0  0  0  0
    6.0000   -0.0000    0.0000 N   0  0  0  0  0  0  0  0  0  0  0  0
    5.2500   -1.2990    0.0000 C   0  0  0  0  0  0  0  0  0  0  0  0
    6.0000   -2.5981    0.0000 O   0  0  0  0  0  0  0  0  0  0  0  0
    3.7500   -1.2990    0.0000 C   0  0  0  0  0  0  0  0  0  0  0  0
    3.0000   -2.5981    0.0000 N   0  0  0  0  0  4  0  0  0  0  0  0
    3.7500   -3.8971    0.0000 C   0  0  0  0  0  0  0  0  0  0  0  0
    1.5000   -2.5981    0.0000 C   0  0  0  0  0  0  0  0  0  0  0  0
    0.7500   -3.8971    0.0000 C   0  0  0  0  0  0  0  0  0  0  0  0
    0.7500   -1.2990    0.0000 C   0  0  0  0  0  0  0  0  0  0  0  0
    1.5000    0.0000    0.0000 C   0  0  0  0  0  0  0  0  0  0  0  0
    0.7500    1.2990    0.0000 C   0  0  0  0  0  0  0  0  0  0  0  0
   -0.7500    1.2990    0.0000 C   0  0  0  0  0  0  0  0  0  0  0  0
   -1.5000    2.5981    0.0000 F   0  0  0  0  0  0  0  0  0  0  0  0
   -1.5000    0.0000    0.0000 C   0  0  0  0  0  0  0  0  0  0  0  0
   -0.7500   -1.2990    0.0000 C   0  0  0  0  0  0  0  0  0  0  0  0
    5.2500    1.2990    0.0000 C   0  0  0  0  0  0  0  0  0  0  0  0
    6.0000    2.5981    0.0000 C   0  0  0  0  0  0  0  0  0  0  0  0
    7.5000    2.5981    0.0000 N   0  0  0  0  0  0  0  0  0  0  0  0
    5.2500    3.8971    0.0000 N   0  0  0  0  0  0  0  0  0  0  0  0
    6.0000    5.1962    0.0000 C   0  0  0  0  0  0  0  0  0  0  0  0
    5.2500    6.4952    0.0000 C   0  0  0  0  0  0  0  0  0  0  0  0
    6.0000    7.7942    0.0000 C   0  0  0  0  0  0  0  0  0  0  0  0
    3.7500    6.4952    0.0000 C   0  0  0  0  0  0  0  0  0  0  0  0
    3.7500    3.8971    0.0000 C   0  0  0  0  0  0  0  0  0  0  0  0
    3.0000    5.1962    0.0000 O   0  0  0  0  0  0  0  0  0  0  0  0
    3.0000    2.5981    0.0000 N   0  0  0  0  0  0  0  0  0  0  0  0
    3.7500    1.2990    0.0000 C   0  0  0  0  0  0  0  0  0  0  0  0
    3.0000   -0.0000    0.0000 O   0  0  0  0  0  0  0  0  0  0  0  0
  1  2  1  0
  2  3  1  0
  3  4  1  0
  4  5  1  0
  5  6  1  0
  6  7  2  0
  6  8  1  0
  8  9  1  0
  9 10  1  0
  9 11  1  0
 11 12  1  1
 11 13  1  0
 13 14  2  0
 14 15  1  0
 15 16  2  0
 16 17  1  0
 16 18  1  0
 18 19  2  0
  5 20  1  0
 20 21  2  0
 21 22  1  0
 21 23  1  0
 23 24  1  0
 24 25  1  0
 25 26  1  0
 25 27  1  0
 23 28  1  0
 28 29  2  0
 28 30  1  0
 30 31  1  0
 31 32  2  0
 19 13  1  0
 31 20  1  0
M  CHG  1   9   1
M  END
>  <Compound_ID>  (1174) 
C27557871

>  <Active>  (1174) 
0.0

>  <Smiles>  (1174) 
CCCCN(C(=O)C[NH+](C)[C@@H](C)c1ccc(F)cc1)c1c(N)n(CC(C)C)c(=O)[nH]c1=O

>  <canonical_smi>  (1174) 
CCCCN(C(=O)C[NH+](C)[C@@H](C)c1ccc(F)cc1)c1c(N)n(CC(C)C)c(=O)[nH]c1=O

>  <Set>  (1174) 
G2 inactive

>  <Set_type>  (1174) 
Test

>  <MW>  (1174) 
448.56

>  <HBD>  (1174) 
3

>  <HBA>  (1174) 
4

>  <NRB>  (1174) 
10

>  <NR>  (1174) 
2

>  <NAR>  (1174) 
2

>  <PSA>  (1174) 
105.63

>  <Standard Type>  (1174) 
nan

>  <Standard Relation>  (1174) 
nan

>  <Standard Units>  (1174) 
nan

>  <Standard Value>  (1174) 
nan

>  <Assay ChEMBL ID>  (1174) 
nan

>  <Assay Description>  (1174) 
nan

>  <BAO Label>  (1174) 
nan

$$$$

     RDKit          2D

 30 33  0  0  0  0  0  0  0  0999 V2000
    3.7500   -1.2990    0.0000 C   0  0  0  0  0  0  0  0  0  0  0  0
    3.0000    0.0000    0.0000 O   0  0  0  0  0  0  0  0  0  0  0  0
    1.5000    0.0000    0.0000 C   0  0  0  0  0  0  0  0  0  0  0  0
    0.7500   -1.2990    0.0000 C   0  0  0  0  0  0  0  0  0  0  0  0
   -0.7500   -1.2990    0.0000 C   0  0  0  0  0  0  0  0  0  0  0  0
   -1.5000    0.0000    0.0000 C   0  0  0  0  0  0  0  0  0  0  0  0
   -3.0000    0.0000    0.0000 N   0  0  0  0  0  0  0  0  0  0  0  0
   -3.8817   -1.2135    0.0000 C   0  0  0  0  0  0  0  0  0  0  0  0
   -5.3083   -0.7500    0.0000 C   0  0  0  0  0  0  0  0  0  0  0  0
   -6.5218   -1.6317    0.0000 C   0  0  0  0  0  0  0  0  0  0  0  0
   -7.8921   -1.0216    0.0000 N   0  0  0  0  0  4  0  0  0  0  0  0
   -9.1056   -1.9033    0.0000 C   0  0  0  0  0  0  0  0  0  0  0  0
  -10.4760   -1.2931    0.0000 C   0  0  0  0  0  0  0  0  0  0  0  0
  -11.6895   -2.1748    0.0000 S   0  0  0  0  0  0  0  0  0  0  0  0
  -13.0598   -1.5647    0.0000 C   0  0  0  0  0  0  0  0  0  0  0  0
  -14.3588   -2.3147    0.0000 C   0  0  0  0  0  0  0  0  0  0  0  0
  -15.4735   -1.3110    0.0000 N   0  0  0  0  0  0  0  0  0  0  0  0
  -14.8634    0.0593    0.0000 N   0  0  0  0  0  0  0  0  0  0  0  0
  -13.3717   -0.0975    0.0000 N   0  0  0  0  0  0  0  0  0  0  0  0
   -5.3083    0.7500    0.0000 C   0  0  0  0  0  0  0  0  0  0  0  0
   -6.5218    1.6317    0.0000 C   0  0  0  0  0  0  0  0  0  0  0  0
   -7.8921    1.0216    0.0000 C   0  0  0  0  0  0  0  0  0  0  0  0
   -9.1056    1.9033    0.0000 C   0  0  0  0  0  0  0  0  0  0  0  0
   -8.9488    3.3950    0.0000 C   0  0  0  0  0  0  0  0  0  0  0  0
   -7.5785    4.0051    0.0000 C   0  0  0  0  0  0  0  0  0  0  0  0
   -6.3650    3.1235    0.0000 C   0  0  0  0  0  0  0  0  0  0  0  0
   -4.9947    3.7336    0.0000 Cl  0  0  0  0  0  0  0  0  0  0  0  0
   -3.8817    1.2135    0.0000 N   0  0  0  0  0  0  0  0  0  0  0  0
   -0.7500    1.2990    0.0000 C   0  0  0  0  0  0  0  0  0  0  0  0
    0.7500    1.2990    0.0000 C   0  0  0  0  0  0  0  0  0  0  0  0
  1  2  1  0
  2  3  1  0
  3  4  2  0
  4  5  1  0
  5  6  2  0
  6  7  1  0
  7  8  1  0
  8  9  1  0
  9 10  1  6
 10 11  1  0
 11 12  1  0
 12 13  1  0
 13 14  1  0
 14 15  1  0
 15 16  2  0
 16 17  1  0
 17 18  2  0
 18 19  1  0
  9 20  1  0
 20 21  1  6
 21 22  2  0
 22 23  1  0
 23 24  2  0
 24 25  1  0
 25 26  2  0
 26 27  1  0
 20 28  1  0
  6 29  1  0
 29 30  2  0
 30  3  1  0
 28  7  1  0
 19 15  1  0
 26 21  1  0
M  CHG  1  11   1
M  END
>  <Compound_ID>  (1175) 
C39461380

>  <Active>  (1175) 
0.0

>  <Smiles>  (1175) 
COc1ccc(N2C[C@H](C[NH2+]CCSc3cnn[nH]3)[C@H](c3ccccc3Cl)N2)cc1

>  <canonical_smi>  (1175) 
COc1ccc(N2C[C@H](C[NH2+]CCSc3cnn[nH]3)[C@H](c3ccccc3Cl)N2)cc1

>  <Set>  (1175) 
G2 inactive

>  <Set_type>  (1175) 
Test

>  <MW>  (1175) 
446.0

>  <HBD>  (1175) 
3

>  <HBA>  (1175) 
6

>  <NRB>  (1175) 
9

>  <NR>  (1175) 
4

>  <NAR>  (1175) 
3

>  <PSA>  (1175) 
82.68

>  <Standard Type>  (1175) 
nan

>  <Standard Relation>  (1175) 
nan

>  <Standard Units>  (1175) 
nan

>  <Standard Value>  (1175) 
nan

>  <Assay ChEMBL ID>  (1175) 
nan

>  <Assay Description>  (1175) 
nan

>  <BAO Label>  (1175) 
nan

$$$$

     RDKit          2D

 31 34  0  0  0  0  0  0  0  0999 V2000
    3.5260   -1.2990    0.0000 C   0  0  0  0  0  0  0  0  0  0  0  0
    2.7760    0.0000    0.0000 N   0  0  0  0  0  0  0  0  0  0  0  0
    1.2760    0.0000    0.0000 C   0  0  0  0  0  0  0  0  0  0  0  0
    0.3943    1.2135    0.0000 N   0  0  0  0  0  4  0  0  0  0  0  0
   -1.0323    0.7500    0.0000 C   0  0  0  0  0  0  0  0  0  0  0  0
   -1.0323   -0.7500    0.0000 C   0  0  0  0  0  0  0  0  0  0  0  0
    0.3943   -1.2135    0.0000 S   0  0  0  0  0  0  0  0  0  0  0  0
   -2.3313   -1.5000    0.0000 C   0  0  0  0  0  0  0  0  0  0  0  0
   -3.6304   -0.7500    0.0000 C   0  0  0  0  0  0  0  0  0  0  0  0
   -3.6304   -2.2500    0.0000 C   0  0  0  0  0  0  0  0  0  0  0  0
   -4.9294   -1.5000    0.0000 C   0  0  0  0  0  0  0  0  0  0  0  0
   -6.2284   -0.7500    0.0000 C   0  0  0  0  0  0  0  0  0  0  0  0
   -6.2284    0.7500    0.0000 C   0  0  0  0  0  0  0  0  0  0  0  0
   -7.5275    1.5000    0.0000 C   0  0  0  0  0  0  0  0  0  0  0  0
   -7.5275    3.0000    0.0000 C   0  0  0  0  0  0  0  0  0  0  0  0
   -8.8265    0.7500    0.0000 C   0  0  0  0  0  0  0  0  0  0  0  0
   -8.8265   -0.7500    0.0000 O   0  0  0  0  0  0  0  0  0  0  0  0
  -10.1256    1.5000    0.0000 N   0  0  0  0  0  0  0  0  0  0  0  0
  -11.4246    0.7500    0.0000 C   0  0  0  0  0  0  0  0  0  0  0  0
  -12.7236    1.5000    0.0000 C   0  0  0  0  0  0  0  0  0  0  0  0
  -14.0227    0.7500    0.0000 N   0  0  0  0  0  0  0  0  0  0  0  0
  -15.3217    1.5000    0.0000 C   0  0  0  0  0  0  0  0  0  0  0  0
  -16.6207    0.7500    0.0000 C   0  0  0  0  0  0  0  0  0  0  0  0
  -16.6207   -0.7500    0.0000 O   0  0  0  0  0  0  0  0  0  0  0  0
  -15.3217   -1.5000    0.0000 C   0  0  0  0  0  0  0  0  0  0  0  0
  -14.0227   -0.7500    0.0000 C   0  0  0  0  0  0  0  0  0  0  0  0
   -4.9294    1.5000    0.0000 C   0  0  0  0  0  0  0  0  0  0  0  0
   -4.9294    3.0000    0.0000 O   0  0  0  0  0  0  0  0  0  0  0  0
   -3.6304    0.7500    0.0000 C   0  0  0  0  0  0  0  0  0  0  0  0
   -2.3313    1.5000    0.0000 C   0  0  0  0  0  0  0  0  0  0  0  0
   -2.3313    3.0000    0.0000 C   0  0  0  0  0  0  0  0  0  0  0  0
  1  2  1  0
  2  3  1  0
  3  4  2  0
  4  5  1  0
  5  6  2  0
  6  7  1  0
  6  8  1  0
  8  9  1  0
  9 10  1  6
  9 11  1  0
 11 12  1  0
 13 12  1  6
 13 14  1  0
 14 15  1  1
 14 16  1  0
 16 17  2  0
 16 18  1  0
 18 19  1  0
 19 20  1  0
 20 21  1  0
 21 22  1  0
 22 23  1  0
 23 24  1  0
 24 25  1  0
 25 26  1  0
 13 27  1  0
 27 28  1  6
 27 29  1  0
 29 30  1  1
 30 31  1  6
  7  3  1  0
 29  9  1  0
 30  5  1  0
 26 21  1  0
M  CHG  1   4   1
M  END
>  <Compound_ID>  (1176) 
C43548355

>  <Active>  (1176) 
0.0

>  <Smiles>  (1176) 
CNc1[nH+]c2c(s1)C[C@@]1(C)CC[C@H]([C@H](C)C(=O)NCCN3CCOCC3)[C@H](O)[C@H]1[C@@H]2C

>  <canonical_smi>  (1176) 
CNc1[nH+]c2c(s1)C[C@@]1(C)CC[C@H]([C@H](C)C(=O)NCCN3CCOCC3)[C@H](O)[C@H]1[C@@H]2C

>  <Set>  (1176) 
G2 inactive

>  <Set_type>  (1176) 
Test

>  <MW>  (1176) 
451.66

>  <HBD>  (1176) 
3

>  <HBA>  (1176) 
5

>  <NRB>  (1176) 
6

>  <NR>  (1176) 
4

>  <NAR>  (1176) 
1

>  <PSA>  (1176) 
87.97

>  <Standard Type>  (1176) 
nan

>  <Standard Relation>  (1176) 
nan

>  <Standard Units>  (1176) 
nan

>  <Standard Value>  (1176) 
nan

>  <Assay ChEMBL ID>  (1176) 
nan

>  <Assay Description>  (1176) 
nan

>  <BAO Label>  (1176) 
nan

$$$$

     RDKit          2D

 22 24  0  0  0  0  0  0  0  0999 V2000
   -7.7206    6.7722    0.0000 C   0  0  0  0  0  0  0  0  0  0  0  0
   -6.2940    7.2357    0.0000 C   0  0  0  0  0  0  0  0  0  0  0  0
   -5.9821    8.7029    0.0000 C   0  0  0  0  0  0  0  0  0  0  0  0
   -4.5556    9.1664    0.0000 C   0  0  0  0  0  0  0  0  0  0  0  0
   -4.2437   10.6337    0.0000 O   0  0  0  0  0  0  0  0  0  0  0  0
   -3.4408    8.1628    0.0000 N   0  0  0  0  0  0  0  0  0  0  0  0
   -3.7527    6.6955    0.0000 C   0  0  0  0  0  0  0  0  0  0  0  0
   -2.6380    5.6918    0.0000 S   0  0  0  0  0  0  0  0  0  0  0  0
   -2.9499    4.2246    0.0000 C   0  0  0  0  0  0  0  0  0  0  0  0
   -1.8351    3.2209    0.0000 C   0  0  0  0  0  0  0  0  0  0  0  0
   -2.1470    1.7537    0.0000 C   0  0  0  0  0  0  0  0  0  0  0  0
   -1.0323    0.7500    0.0000 C   0  0  0  0  0  0  0  0  0  0  0  0
    0.3943    1.2135    0.0000 C   0  0  0  0  0  0  0  0  0  0  0  0
    0.7062    2.6807    0.0000 C   0  0  0  0  0  0  0  0  0  0  0  0
   -0.4086    3.6844    0.0000 C   0  0  0  0  0  0  0  0  0  0  0  0
   -0.0967    5.1517    0.0000 Cl  0  0  0  0  0  0  0  0  0  0  0  0
    1.2760    0.0000    0.0000 O   0  0  0  0  0  0  0  0  0  0  0  0
    0.3943   -1.2135    0.0000 C   0  0  0  0  0  0  0  0  0  0  0  0
   -1.0323   -0.7500    0.0000 O   0  0  0  0  0  0  0  0  0  0  0  0
   -5.1793    6.2320    0.0000 C   0  0  0  0  0  0  0  0  0  0  0  0
   -5.4912    4.7648    0.0000 C   0  0  0  0  0  0  0  0  0  0  0  0
   -5.8030    3.2976    0.0000 N   0  0  0  0  0  0  0  0  0  0  0  0
  1  2  1  0
  2  3  2  0
  3  4  1  0
  4  5  2  0
  4  6  1  0
  6  7  1  0
  7  8  1  0
  8  9  1  0
  9 10  1  0
 10 11  2  0
 11 12  1  0
 12 13  2  0
 13 14  1  0
 14 15  2  0
 15 16  1  0
 13 17  1  0
 17 18  1  0
 18 19  1  0
  7 20  2  0
 20 21  1  0
 21 22  3  0
 20  2  1  0
 15 10  1  0
 19 12  1  0
M  END
>  <Compound_ID>  (1177) 
C05640882

>  <Active>  (1177) 
0.0

>  <Smiles>  (1177) 
Cc1cc(=O)[nH]c(SCc2cc3c(cc2Cl)OCO3)c1C#N

>  <canonical_smi>  (1177) 
Cc1cc(=O)[nH]c(SCc2cc3c(cc2Cl)OCO3)c1C#N

>  <Set>  (1177) 
G2 inactive

>  <Set_type>  (1177) 
Test

>  <MW>  (1177) 
334.78

>  <HBD>  (1177) 
1

>  <HBA>  (1177) 
5

>  <NRB>  (1177) 
3

>  <NR>  (1177) 
3

>  <NAR>  (1177) 
2

>  <PSA>  (1177) 
75.11

>  <Standard Type>  (1177) 
nan

>  <Standard Relation>  (1177) 
nan

>  <Standard Units>  (1177) 
nan

>  <Standard Value>  (1177) 
nan

>  <Assay ChEMBL ID>  (1177) 
nan

>  <Assay Description>  (1177) 
nan

>  <BAO Label>  (1177) 
nan

$$$$

     RDKit          2D

 32 34  0  0  0  0  0  0  0  0999 V2000
   -8.2500   -1.2990    0.0000 C   0  0  0  0  0  0  0  0  0  0  0  0
   -7.5000   -2.5981    0.0000 O   0  0  0  0  0  0  0  0  0  0  0  0
   -6.0000   -2.5981    0.0000 C   0  0  0  0  0  0  0  0  0  0  0  0
   -5.2500   -1.2990    0.0000 C   0  0  0  0  0  0  0  0  0  0  0  0
   -3.7500   -1.2990    0.0000 C   0  0  0  0  0  0  0  0  0  0  0  0
   -3.0000   -2.5981    0.0000 C   0  0  0  0  0  0  0  0  0  0  0  0
   -1.5000   -2.5981    0.0000 N   0  0  0  0  0  0  0  0  0  0  0  0
   -0.7500   -1.2990    0.0000 C   0  0  0  0  0  0  0  0  0  0  0  0
    0.7500   -1.2990    0.0000 C   0  0  0  0  0  0  0  0  0  0  0  0
    1.5000   -2.5981    0.0000 C   0  0  0  0  0  0  0  0  0  0  0  0
    3.0000   -2.5981    0.0000 O   0  0  0  0  0  0  0  0  0  0  0  0
    0.7500   -3.8971    0.0000 N   0  0  0  0  0  0  0  0  0  0  0  0
   -0.7500   -3.8971    0.0000 C   0  0  0  0  0  0  0  0  0  0  0  0
   -1.5000   -5.1962    0.0000 O   0  0  0  0  0  0  0  0  0  0  0  0
    1.5000    0.0000    0.0000 C   0  0  0  0  0  0  0  0  0  0  0  0
    2.6491    0.9642    0.0000 C   0  0  0  0  0  0  0  0  0  0  0  0
    3.7981    1.9284    0.0000 F   0  0  0  0  0  0  0  0  0  0  0  0
    3.2321    0.4205    0.0000 F   0  0  0  0  0  0  0  0  0  0  0  0
    1.6849    2.1132    0.0000 F   0  0  0  0  0  0  0  0  0  0  0  0
    2.6491   -0.9642    0.0000 C   0  0  0  0  0  0  0  0  0  0  0  0
    3.7981   -1.9284    0.0000 F   0  0  0  0  0  0  0  0  0  0  0  0
    2.1165   -2.0562    0.0000 F   0  0  0  0  0  0  0  0  0  0  0  0
    3.2321   -0.4205    0.0000 F   0  0  0  0  0  0  0  0  0  0  0  0
    0.7500    1.2990    0.0000 N   0  0  0  0  0  4  0  0  0  0  0  0
   -0.7500    1.2990    0.0000 C   0  0  0  0  0  0  0  0  0  0  0  0
   -1.5000    2.5981    0.0000 C   0  0  0  0  0  0  0  0  0  0  0  0
   -0.7500    3.8971    0.0000 C   0  0  0  0  0  0  0  0  0  0  0  0
   -1.5000    5.1962    0.0000 C   0  0  0  0  0  0  0  0  0  0  0  0
    0.7500    3.8971    0.0000 C   0  0  0  0  0  0  0  0  0  0  0  0
   -1.5000    0.0000    0.0000 N   0  0  0  0  0  0  0  0  0  0  0  0
   -3.7500   -3.8971    0.0000 C   0  0  0  0  0  0  0  0  0  0  0  0
   -5.2500   -3.8971    0.0000 C   0  0  0  0  0  0  0  0  0  0  0  0
  1  2  1  0
  2  3  1  0
  3  4  2  0
  4  5  1  0
  5  6  2  0
  6  7  1  0
  7  8  1  0
  8  9  2  0
  9 10  1  0
 10 11  2  0
 10 12  1  0
 12 13  1  0
 13 14  2  0
  9 15  1  0
 15 16  1  0
 16 17  1  0
 16 18  1  0
 16 19  1  0
 15 20  1  0
 20 21  1  0
 20 22  1  0
 20 23  1  0
 15 24  1  0
 24 25  2  0
 25 26  1  0
 26 27  1  0
 27 28  1  0
 27 29  1  0
 25 30  1  0
  6 31  1  0
 31 32  2  0
 32  3  1  0
 13  7  1  0
 30  8  1  0
M  CHG  1  24   1
M  END
>  <Compound_ID>  (1178) 
C08869266

>  <Active>  (1178) 
0.0

>  <Smiles>  (1178) 
COc1ccc(-n2c3c(c(=O)[nH]c2=O)C(C(F)(F)F)(C(F)(F)F)[NH+]=C(CC(C)C)N3)cc1

>  <canonical_smi>  (1178) 
COc1ccc(-n2c3c(c(=O)[nH]c2=O)C(C(F)(F)F)(C(F)(F)F)[NH+]=C(CC(C)C)N3)cc1

>  <Set>  (1178) 
G2 inactive

>  <Set_type>  (1178) 
Test

>  <MW>  (1178) 
465.37

>  <HBD>  (1178) 
3

>  <HBA>  (1178) 
4

>  <NRB>  (1178) 
4

>  <NR>  (1178) 
3

>  <NAR>  (1178) 
2

>  <PSA>  (1178) 
90.09

>  <Standard Type>  (1178) 
nan

>  <Standard Relation>  (1178) 
nan

>  <Standard Units>  (1178) 
nan

>  <Standard Value>  (1178) 
nan

>  <Assay ChEMBL ID>  (1178) 
nan

>  <Assay Description>  (1178) 
nan

>  <BAO Label>  (1178) 
nan

$$$$

     RDKit          2D

 34 38  0  0  0  0  0  0  0  0999 V2000
    4.8697   -6.7399    0.0000 O   0  0  0  0  0  0  0  0  0  0  0  0
    3.4734   -7.2879    0.0000 C   0  0  0  0  0  0  0  0  0  0  0  0
    2.3006   -6.3527    0.0000 C   0  0  0  0  0  0  0  0  0  0  0  0
    2.5242   -4.8694    0.0000 C   0  0  0  0  0  0  0  0  0  0  0  0
    1.3515   -3.9342    0.0000 N   0  0  0  0  0  4  0  0  0  0  0  0
    1.6852   -2.4718    0.0000 C   0  0  0  0  0  0  0  0  0  0  0  0
    0.7500   -1.2990    0.0000 C   0  0  0  0  0  0  0  0  0  0  0  0
    1.5000    0.0000    0.0000 C   0  0  0  0  0  0  0  0  0  0  0  0
    0.7500    1.2990    0.0000 C   0  0  0  0  0  0  0  0  0  0  0  0
   -0.7500    1.2990    0.0000 C   0  0  0  0  0  0  0  0  0  0  0  0
   -1.5000    0.0000    0.0000 C   0  0  0  0  0  0  0  0  0  0  0  0
   -0.7500   -1.2990    0.0000 C   0  0  0  0  0  0  0  0  0  0  0  0
   -1.6852   -2.4718    0.0000 O   0  0  0  0  0  0  0  0  0  0  0  0
   -1.3515   -3.9342    0.0000 C   0  0  0  0  0  0  0  0  0  0  0  0
   -2.5242   -4.8694    0.0000 C   0  0  0  0  0  0  0  0  0  0  0  0
   -3.9205   -4.3214    0.0000 C   0  0  0  0  0  0  0  0  0  0  0  0
   -5.0933   -5.2566    0.0000 C   0  0  0  0  0  0  0  0  0  0  0  0
   -4.8697   -6.7399    0.0000 C   0  0  0  0  0  0  0  0  0  0  0  0
   -3.4734   -7.2879    0.0000 C   0  0  0  0  0  0  0  0  0  0  0  0
   -2.3006   -6.3527    0.0000 C   0  0  0  0  0  0  0  0  0  0  0  0
    0.0000   -4.5850    0.0000 C   0  0  0  0  0  0  0  0  0  0  0  0
    3.2498   -8.7711    0.0000 N   0  0  0  0  0  0  0  0  0  0  0  0
    4.4226   -9.7064    0.0000 C   0  0  0  0  0  0  0  0  0  0  0  0
    4.1990  -11.1896    0.0000 C   0  0  0  0  0  0  0  0  0  0  0  0
    5.2676  -12.2423    0.0000 C   0  0  0  0  0  0  0  0  0  0  0  0
    4.5966  -13.5839    0.0000 C   0  0  0  0  0  0  0  0  0  0  0  0
    5.2876  -14.9153    0.0000 C   0  0  0  0  0  0  0  0  0  0  0  0
    4.4800  -16.1793    0.0000 C   0  0  0  0  0  0  0  0  0  0  0  0
    5.1710  -17.5107    0.0000 C   0  0  0  0  0  0  0  0  0  0  0  0
    6.6695  -17.5780    0.0000 C   0  0  0  0  0  0  0  0  0  0  0  0
    7.4770  -16.3139    0.0000 C   0  0  0  0  0  0  0  0  0  0  0  0
    6.7861  -14.9826    0.0000 C   0  0  0  0  0  0  0  0  0  0  0  0
    3.1134  -13.3603    0.0000 N   0  0  0  0  0  4  0  0  0  0  0  0
    2.8676  -11.8806    0.0000 N   0  0  0  0  0  0  0  0  0  0  0  0
  1  2  2  0
  2  3  1  0
  3  4  1  0
  4  5  1  0
  5  6  1  0
  6  7  1  0
  7  8  2  0
  8  9  1  0
  9 10  2  0
 10 11  1  0
 11 12  2  0
 12 13  1  0
 13 14  1  0
 14 15  1  1
 15 16  2  0
 16 17  1  0
 17 18  2  0
 18 19  1  0
 19 20  2  0
 14 21  1  0
  2 22  1  0
 22 23  1  0
 23 24  1  0
 24 25  2  0
 25 26  1  0
 26 27  1  6
 27 28  2  0
 28 29  1  0
 29 30  2  0
 30 31  1  0
 31 32  2  0
 26 33  1  0
 33 34  2  0
 21  5  1  0
 34 24  1  0
 12  7  1  0
 20 15  1  0
 32 27  1  0
M  CHG  2   5   1  33   1
M  END
>  <Compound_ID>  (1179) 
C39429813

>  <Active>  (1179) 
0.0

>  <Smiles>  (1179) 
O=C(CC[NH+]1Cc2ccccc2O[C@H](c2ccccc2)C1)NCC1=C[C@H](c2ccccc2)[NH+]=N1

>  <canonical_smi>  (1179) 
O=C(CC[NH+]1Cc2ccccc2O[C@H](c2ccccc2)C1)NCC1=C[C@H](c2ccccc2)[NH+]=N1

>  <Set>  (1179) 
G2 inactive

>  <Set_type>  (1179) 
Test

>  <MW>  (1179) 
454.57

>  <HBD>  (1179) 
3

>  <HBA>  (1179) 
2

>  <NRB>  (1179) 
7

>  <NR>  (1179) 
5

>  <NAR>  (1179) 
3

>  <PSA>  (1179) 
69.1

>  <Standard Type>  (1179) 
nan

>  <Standard Relation>  (1179) 
nan

>  <Standard Units>  (1179) 
nan

>  <Standard Value>  (1179) 
nan

>  <Assay ChEMBL ID>  (1179) 
nan

>  <Assay Description>  (1179) 
nan

>  <BAO Label>  (1179) 
nan

$$$$

     RDKit          2D

 37 41  0  0  0  0  0  0  0  0999 V2000
   15.4270    8.8183    0.0000 C   0  0  0  0  0  0  0  0  0  0  0  0
   14.0567    9.4284    0.0000 N   0  0  0  0  0  0  0  0  0  0  0  0
   13.8999   10.9202    0.0000 C   0  0  0  0  0  0  0  0  0  0  0  0
   12.8431    8.5467    0.0000 C   0  0  0  0  0  0  0  0  0  0  0  0
   12.9999    7.0550    0.0000 C   0  0  0  0  0  0  0  0  0  0  0  0
   11.7864    6.1733    0.0000 C   0  0  0  0  0  0  0  0  0  0  0  0
   10.4161    6.7834    0.0000 C   0  0  0  0  0  0  0  0  0  0  0  0
    9.2026    5.9017    0.0000 N   0  0  0  0  0  0  0  0  0  0  0  0
    7.8322    6.5118    0.0000 N   0  0  0  0  0  0  0  0  0  0  0  0
    6.6187    5.6301    0.0000 C   0  0  0  0  0  0  0  0  0  0  0  0
    5.2484    6.2402    0.0000 C   0  0  0  0  0  0  0  0  0  0  0  0
    4.0349    5.3586    0.0000 C   0  0  0  0  0  0  0  0  0  0  0  0
    4.1917    3.8668    0.0000 C   0  0  0  0  0  0  0  0  0  0  0  0
    2.9781    2.9851    0.0000 C   0  0  0  0  0  0  0  0  0  0  0  0
    3.1349    1.4933    0.0000 O   0  0  0  0  0  0  0  0  0  0  0  0
    1.6078    3.5952    0.0000 O   0  0  0  0  0  0  0  0  0  0  0  0
    0.3943    2.7135    0.0000 C   0  0  0  0  0  0  0  0  0  0  0  0
    0.3943    1.2135    0.0000 C   0  0  0  0  0  0  0  0  0  0  0  0
    1.2760    0.0000    0.0000 O   0  0  0  0  0  0  0  0  0  0  0  0
    0.3943   -1.2135    0.0000 C   0  0  0  0  0  0  0  0  0  0  0  0
    1.6933   -1.9635    0.0000 C   0  0  0  0  0  0  0  0  0  0  0  0
   -0.2158   -2.5838    0.0000 C   0  0  0  0  0  0  0  0  0  0  0  0
   -1.0323   -0.7500    0.0000 O   0  0  0  0  0  0  0  0  0  0  0  0
   -1.0323    0.7500    0.0000 C   0  0  0  0  0  0  0  0  0  0  0  0
   -1.9140    1.9635    0.0000 O   0  0  0  0  0  0  0  0  0  0  0  0
   -1.0323    3.1771    0.0000 C   0  0  0  0  0  0  0  0  0  0  0  0
   -1.4958    4.6036    0.0000 C   0  0  0  0  0  0  0  0  0  0  0  0
   -2.9224    5.0672    0.0000 C   0  0  0  0  0  0  0  0  0  0  0  0
   -2.9224    6.5672    0.0000 O   0  0  0  0  0  0  0  0  0  0  0  0
   -1.4958    7.0307    0.0000 C   0  0  0  0  0  0  0  0  0  0  0  0
   -2.1059    8.4010    0.0000 C   0  0  0  0  0  0  0  0  0  0  0  0
   -0.1968    7.7807    0.0000 C   0  0  0  0  0  0  0  0  0  0  0  0
   -0.6141    5.8172    0.0000 O   0  0  0  0  0  0  0  0  0  0  0  0
    5.5620    3.2567    0.0000 C   0  0  0  0  0  0  0  0  0  0  0  0
    6.7755    4.1383    0.0000 C   0  0  0  0  0  0  0  0  0  0  0  0
   10.2593    8.2752    0.0000 C   0  0  0  0  0  0  0  0  0  0  0  0
   11.4728    9.1568    0.0000 C   0  0  0  0  0  0  0  0  0  0  0  0
  1  2  1  0
  2  3  1  0
  2  4  1  0
  4  5  2  0
  5  6  1  0
  6  7  2  0
  7  8  1  0
  8  9  2  0
  9 10  1  0
 10 11  2  0
 11 12  1  0
 12 13  2  0
 13 14  1  0
 14 15  2  0
 14 16  1  0
 17 16  1  1
 17 18  1  0
 18 19  1  6
 19 20  1  0
 20 21  1  0
 20 22  1  0
 20 23  1  0
 24 23  1  6
 24 25  1  0
 26 25  1  1
 26 27  1  0
 27 28  1  6
 28 29  1  0
 29 30  1  0
 30 31  1  0
 30 32  1  0
 30 33  1  0
 13 34  1  0
 34 35  2  0
  7 36  1  0
 36 37  2  0
 37  4  1  0
 35 10  1  0
 26 17  1  0
 33 27  1  0
 24 18  1  0
M  END
>  <Compound_ID>  (1180) 
C32603007

>  <Active>  (1180) 
0.0

>  <Smiles>  (1180) 
CN(C)c1ccc(/N=N/c2ccc(C(=O)O[C@H]3[C@@H]4OC(C)(C)O[C@@H]4O[C@H]3[C@@H]3COC(C)(C)O3)cc2)cc1

>  <canonical_smi>  (1180) 
CN(C)c1ccc(/N=N/c2ccc(C(=O)O[C@@H]3[C@H]([C@@H]4COC(C)(C)O4)O[C@H]4OC(C)(C)O[C@H]43)cc2)cc1

>  <Set>  (1180) 
G2 inactive

>  <Set_type>  (1180) 
Test

>  <MW>  (1180) 
511.58

>  <HBD>  (1180) 
0

>  <HBA>  (1180) 
8

>  <NRB>  (1180) 
6

>  <NR>  (1180) 
5

>  <NAR>  (1180) 
2

>  <PSA>  (1180) 
100.41

>  <Standard Type>  (1180) 
nan

>  <Standard Relation>  (1180) 
nan

>  <Standard Units>  (1180) 
nan

>  <Standard Value>  (1180) 
nan

>  <Assay ChEMBL ID>  (1180) 
nan

>  <Assay Description>  (1180) 
nan

>  <BAO Label>  (1180) 
nan

$$$$

     RDKit          2D

 28 30  0  0  0  0  0  0  0  0999 V2000
    3.0000    0.0000    0.0000 C   0  0  0  0  0  0  0  0  0  0  0  0
    1.5000    0.0000    0.0000 C   0  0  0  0  0  0  0  0  0  0  0  0
    0.7500   -1.2990    0.0000 C   0  0  0  0  0  0  0  0  0  0  0  0
   -0.7500   -1.2990    0.0000 C   0  0  0  0  0  0  0  0  0  0  0  0
   -1.5000    0.0000    0.0000 C   0  0  0  0  0  0  0  0  0  0  0  0
   -3.0000    0.0000    0.0000 S   0  0  0  0  0  0  0  0  0  0  0  0
   -3.0000    1.5000    0.0000 O   0  0  0  0  0  0  0  0  0  0  0  0
   -3.0000   -1.5000    0.0000 O   0  0  0  0  0  0  0  0  0  0  0  0
   -4.5000    0.0000    0.0000 N   0  0  0  0  0  0  0  0  0  0  0  0
   -5.2500   -1.2990    0.0000 C   0  0  0  0  0  0  0  0  0  0  0  0
   -5.2500    1.2990    0.0000 C   0  0  0  0  0  0  0  0  0  0  0  0
   -0.7500    1.2990    0.0000 C   0  0  0  0  0  0  0  0  0  0  0  0
    0.7500    1.2990    0.0000 C   0  0  0  0  0  0  0  0  0  0  0  0
    1.5000    2.5981    0.0000 N   0  0  0  0  0  0  0  0  0  0  0  0
    0.7500    3.8971    0.0000 C   0  0  0  0  0  0  0  0  0  0  0  0
   -0.7500    3.8971    0.0000 O   0  0  0  0  0  0  0  0  0  0  0  0
    1.5000    5.1962    0.0000 C   0  0  0  0  0  0  0  0  0  0  0  0
    0.8899    6.5665    0.0000 C   0  0  0  0  0  0  0  0  0  0  0  0
    2.0046    7.5702    0.0000 N   0  0  0  0  0  0  0  0  0  0  0  0
    1.8478    9.0619    0.0000 C   0  0  0  0  0  0  0  0  0  0  0  0
    3.0613    9.9436    0.0000 C   0  0  0  0  0  0  0  0  0  0  0  0
    2.9046   11.4354    0.0000 C   0  0  0  0  0  0  0  0  0  0  0  0
    1.5342   12.0455    0.0000 C   0  0  0  0  0  0  0  0  0  0  0  0
    0.3207   11.1638    0.0000 C   0  0  0  0  0  0  0  0  0  0  0  0
    0.4775    9.6721    0.0000 C   0  0  0  0  0  0  0  0  0  0  0  0
   -0.7360    8.7904    0.0000 Br  0  0  0  0  0  0  0  0  0  0  0  0
    3.3037    6.8202    0.0000 N   0  0  0  0  0  0  0  0  0  0  0  0
    2.9918    5.3529    0.0000 N   0  0  0  0  0  0  0  0  0  0  0  0
  1  2  1  0
  2  3  2  0
  3  4  1  0
  4  5  2  0
  5  6  1  0
  6  7  2  0
  6  8  2  0
  6  9  1  0
  9 10  1  0
  9 11  1  0
  5 12  1  0
 12 13  2  0
 13 14  1  0
 14 15  1  0
 15 16  2  0
 15 17  1  0
 17 18  2  0
 18 19  1  0
 19 20  1  0
 20 21  2  0
 21 22  1  0
 22 23  2  0
 23 24  1  0
 24 25  2  0
 25 26  1  0
 19 27  1  0
 27 28  2  0
 13  2  1  0
 28 17  1  0
 25 20  1  0
M  END
>  <Compound_ID>  (1181) 
C31874448

>  <Active>  (1181) 
0.0

>  <Smiles>  (1181) 
Cc1ccc(S(=O)(=O)N(C)C)cc1NC(=O)c1cn(-c2ccccc2Br)nn1

>  <canonical_smi>  (1181) 
Cc1ccc(S(=O)(=O)N(C)C)cc1NC(=O)c1cn(-c2ccccc2Br)nn1

>  <Set>  (1181) 
G2 inactive

>  <Set_type>  (1181) 
Test

>  <MW>  (1181) 
464.35

>  <HBD>  (1181) 
1

>  <HBA>  (1181) 
5

>  <NRB>  (1181) 
5

>  <NR>  (1181) 
3

>  <NAR>  (1181) 
3

>  <PSA>  (1181) 
97.19

>  <Standard Type>  (1181) 
nan

>  <Standard Relation>  (1181) 
nan

>  <Standard Units>  (1181) 
nan

>  <Standard Value>  (1181) 
nan

>  <Assay ChEMBL ID>  (1181) 
nan

>  <Assay Description>  (1181) 
nan

>  <BAO Label>  (1181) 
nan

$$$$

     RDKit          2D

 37 41  0  0  0  0  0  0  0  0999 V2000
    1.5000   -5.1962    0.0000 C   0  0  0  0  0  0  0  0  0  0  0  0
    0.7500   -3.8971    0.0000 N   0  0  0  0  0  4  0  0  0  0  0  0
    1.5000   -2.5981    0.0000 C   0  0  0  0  0  0  0  0  0  0  0  0
    0.7500   -1.2990    0.0000 C   0  0  0  0  0  0  0  0  0  0  0  0
    1.5000    0.0000    0.0000 C   0  0  0  0  0  0  0  0  0  0  0  0
    0.7500    1.2990    0.0000 C   0  0  0  0  0  0  0  0  0  0  0  0
   -0.7500    1.2990    0.0000 C   0  0  0  0  0  0  0  0  0  0  0  0
   -1.5000    2.5981    0.0000 O   0  0  0  0  0  0  0  0  0  0  0  0
   -0.7500    3.8971    0.0000 C   0  0  0  0  0  0  0  0  0  0  0  0
   -1.5000    5.1962    0.0000 C   0  0  0  0  0  0  0  0  0  0  0  0
   -0.7500    6.4952    0.0000 C   0  0  0  0  0  0  0  0  0  0  0  0
   -1.5000    7.7942    0.0000 C   0  0  0  0  0  0  0  0  0  0  0  0
   -3.0000    7.7942    0.0000 C   0  0  0  0  0  0  0  0  0  0  0  0
   -3.7500    6.4952    0.0000 N   0  0  0  0  0  0  0  0  0  0  0  0
   -5.2500    6.4952    0.0000 C   0  0  0  0  0  0  0  0  0  0  0  0
   -6.0000    5.1962    0.0000 O   0  0  0  0  0  0  0  0  0  0  0  0
   -6.0000    7.7942    0.0000 C   0  0  0  0  0  0  0  0  0  0  0  0
   -5.2500    9.0933    0.0000 C   0  0  0  0  0  0  0  0  0  0  0  0
   -6.0000   10.3923    0.0000 C   0  0  0  0  0  0  0  0  0  0  0  0
   -7.5000   10.3923    0.0000 C   0  0  0  0  0  0  0  0  0  0  0  0
   -8.2500    9.0933    0.0000 C   0  0  0  0  0  0  0  0  0  0  0  0
   -9.7500    9.0933    0.0000 N   0  0  0  0  0  0  0  0  0  0  0  0
  -10.6317    7.8797    0.0000 C   0  0  0  0  0  0  0  0  0  0  0  0
  -12.0583    8.3433    0.0000 C   0  0  0  0  0  0  0  0  0  0  0  0
  -12.0583    9.8433    0.0000 N   0  0  0  0  0  0  0  0  0  0  0  0
  -10.6317   10.3068    0.0000 C   0  0  0  0  0  0  0  0  0  0  0  0
  -10.1682   11.7334    0.0000 O   0  0  0  0  0  0  0  0  0  0  0  0
   -7.5000    7.7942    0.0000 C   0  0  0  0  0  0  0  0  0  0  0  0
   -3.0000    5.1962    0.0000 C   0  0  0  0  0  0  0  0  0  0  0  0
   -1.5000    0.0000    0.0000 C   0  0  0  0  0  0  0  0  0  0  0  0
   -0.7500   -1.2990    0.0000 C   0  0  0  0  0  0  0  0  0  0  0  0
   -0.7500   -3.8971    0.0000 C   0  0  0  0  0  0  0  0  0  0  0  0
   -1.5000   -5.1962    0.0000 C   0  0  0  0  0  0  0  0  0  0  0  0
   -0.8899   -6.5665    0.0000 C   0  0  0  0  0  0  0  0  0  0  0  0
   -2.0046   -7.5702    0.0000 C   0  0  0  0  0  0  0  0  0  0  0  0
   -3.3037   -6.8202    0.0000 O   0  0  0  0  0  0  0  0  0  0  0  0
   -2.9918   -5.3529    0.0000 N   0  0  0  0  0  0  0  0  0  0  0  0
  1  2  1  0
  2  3  1  0
  3  4  1  0
  4  5  2  0
  5  6  1  0
  6  7  2  0
  7  8  1  0
  8  9  1  0
 10  9  1  6
 10 11  1  0
 11 12  1  0
 12 13  1  0
 13 14  1  0
 14 15  1  0
 15 16  2  0
 15 17  1  0
 17 18  2  0
 18 19  1  0
 19 20  2  0
 20 21  1  0
 21 22  1  0
 22 23  1  0
 23 24  1  0
 24 25  1  0
 25 26  1  0
 26 27  2  0
 21 28  2  0
 14 29  1  0
  7 30  1  0
 30 31  2  0
  2 32  1  0
 32 33  1  0
 33 34  1  0
 34 35  2  0
 35 36  1  0
 36 37  1  0
 31  4  1  0
 37 33  2  0
 29 10  1  0
 28 17  1  0
 26 22  1  0
M  CHG  1   2   1
M  END
>  <Compound_ID>  (1182) 
C12039681

>  <Active>  (1182) 
0.0

>  <Smiles>  (1182) 
C[NH+](Cc1ccc(OC[C@H]2CCCN(C(=O)c3cccc(N4CCNC4=O)c3)C2)cc1)Cc1ccon1

>  <canonical_smi>  (1182) 
C[NH+](Cc1ccc(OC[C@H]2CCCN(C(=O)c3cccc(N4CCNC4=O)c3)C2)cc1)Cc1ccon1

>  <Set>  (1182) 
G2 inactive

>  <Set_type>  (1182) 
Test

>  <MW>  (1182) 
504.61

>  <HBD>  (1182) 
2

>  <HBA>  (1182) 
5

>  <NRB>  (1182) 
9

>  <NR>  (1182) 
5

>  <NAR>  (1182) 
3

>  <PSA>  (1182) 
92.35

>  <Standard Type>  (1182) 
nan

>  <Standard Relation>  (1182) 
nan

>  <Standard Units>  (1182) 
nan

>  <Standard Value>  (1182) 
nan

>  <Assay ChEMBL ID>  (1182) 
nan

>  <Assay Description>  (1182) 
nan

>  <BAO Label>  (1182) 
nan

$$$$

     RDKit          2D

 20 21  0  0  0  0  0  0  0  0999 V2000
    5.2500   -3.8971    0.0000 C   0  0  0  0  0  0  0  0  0  0  0  0
    3.7500   -3.8971    0.0000 C   0  0  0  0  0  0  0  0  0  0  0  0
    3.0000   -2.5981    0.0000 N   0  0  0  0  0  4  0  0  0  0  0  0
    1.5000   -2.5981    0.0000 C   0  0  0  0  0  0  0  0  0  0  0  0
    0.7500   -3.8971    0.0000 C   0  0  0  0  0  0  0  0  0  0  0  0
    1.3601   -5.2674    0.0000 C   0  0  0  0  0  0  0  0  0  0  0  0
    0.2454   -6.2711    0.0000 C   0  0  0  0  0  0  0  0  0  0  0  0
   -1.0537   -5.5211    0.0000 C   0  0  0  0  0  0  0  0  0  0  0  0
   -2.4240   -6.1312    0.0000 N   0  0  0  0  0  4  0  0  0  0  0  0
   -2.5808   -7.6230    0.0000 O   0  0  0  0  0  0  0  0  0  0  0  0
   -3.6375   -5.2496    0.0000 O   0  0  0  0  0  1  0  0  0  0  0  0
   -0.7418   -4.0539    0.0000 O   0  0  0  0  0  0  0  0  0  0  0  0
    0.7500   -1.2990    0.0000 C   0  0  0  0  0  0  0  0  0  0  0  0
    1.5000    0.0000    0.0000 C   0  0  0  0  0  0  0  0  0  0  0  0
    0.7500    1.2990    0.0000 C   0  0  0  0  0  0  0  0  0  0  0  0
    1.5000    2.5981    0.0000 Br  0  0  0  0  0  0  0  0  0  0  0  0
   -0.7500    1.2990    0.0000 C   0  0  0  0  0  0  0  0  0  0  0  0
   -1.5000    0.0000    0.0000 C   0  0  0  0  0  0  0  0  0  0  0  0
   -0.7500   -1.2990    0.0000 C   0  0  0  0  0  0  0  0  0  0  0  0
   -1.5000   -2.5981    0.0000 Br  0  0  0  0  0  0  0  0  0  0  0  0
  1  2  1  0
  2  3  1  0
  4  3  1  6
  4  5  1  0
  5  6  2  0
  6  7  1  0
  7  8  2  0
  8  9  1  0
  9 10  2  0
  9 11  1  0
  8 12  1  0
  4 13  1  0
 13 14  2  0
 14 15  1  0
 15 16  1  0
 15 17  2  0
 17 18  1  0
 18 19  2  0
 19 20  1  0
 12  5  1  0
 19 13  1  0
M  CHG  3   3   1   9   1  11  -1
M  END
>  <Compound_ID>  (1183) 
C35541686

>  <Active>  (1183) 
0.0

>  <Smiles>  (1183) 
CC[NH2+][C@H](c1ccc([N+](=O)[O-])o1)c1cc(Br)ccc1Br

>  <canonical_smi>  (1183) 
CC[NH2+][C@H](c1ccc([N+](=O)[O-])o1)c1cc(Br)ccc1Br

>  <Set>  (1183) 
G2 inactive

>  <Set_type>  (1183) 
Test

>  <MW>  (1183) 
405.07

>  <HBD>  (1183) 
1

>  <HBA>  (1183) 
3

>  <NRB>  (1183) 
5

>  <NR>  (1183) 
2

>  <NAR>  (1183) 
2

>  <PSA>  (1183) 
72.89

>  <Standard Type>  (1183) 
nan

>  <Standard Relation>  (1183) 
nan

>  <Standard Units>  (1183) 
nan

>  <Standard Value>  (1183) 
nan

>  <Assay ChEMBL ID>  (1183) 
nan

>  <Assay Description>  (1183) 
nan

>  <BAO Label>  (1183) 
nan

$$$$

     RDKit          2D

 30 33  0  0  0  0  0  0  0  0999 V2000
    6.0000   -2.5981    0.0000 C   0  0  0  0  0  0  0  0  0  0  0  0
    5.2500   -3.8971    0.0000 C   0  0  0  0  0  0  0  0  0  0  0  0
    3.7500   -3.8971    0.0000 N   0  0  0  0  0  0  0  0  0  0  0  0
    3.0000   -2.5981    0.0000 N   0  0  0  0  0  0  0  0  0  0  0  0
    1.5000   -2.5981    0.0000 C   0  0  0  0  0  0  0  0  0  0  0  0
    0.7500   -3.8971    0.0000 O   0  0  0  0  0  0  0  0  0  0  0  0
    0.7500   -1.2990    0.0000 C   0  0  0  0  0  0  0  0  0  0  0  0
    1.5000    0.0000    0.0000 C   0  0  0  0  0  0  0  0  0  0  0  0
    0.7500    1.2990    0.0000 C   0  0  0  0  0  0  0  0  0  0  0  0
    1.5000    2.5981    0.0000 C   0  0  0  0  0  0  0  0  0  0  0  0
    1.5000    4.0981    0.0000 C   0  0  0  0  0  0  0  0  0  0  0  0
    2.7990    3.3481    0.0000 C   0  0  0  0  0  0  0  0  0  0  0  0
   -0.7500    1.2990    0.0000 N   0  0  0  0  0  0  0  0  0  0  0  0
   -1.5000    0.0000    0.0000 C   0  0  0  0  0  0  0  0  0  0  0  0
   -0.7500   -1.2990    0.0000 C   0  0  0  0  0  0  0  0  0  0  0  0
   -1.7537   -2.4138    0.0000 C   0  0  0  0  0  0  0  0  0  0  0  0
   -1.4418   -3.8810    0.0000 C   0  0  0  0  0  0  0  0  0  0  0  0
   -3.1240   -1.8037    0.0000 N   0  0  0  0  0  0  0  0  0  0  0  0
   -2.9672   -0.3119    0.0000 N   0  0  0  0  0  0  0  0  0  0  0  0
   -4.0819    0.6918    0.0000 C   0  0  0  0  0  0  0  0  0  0  0  0
    6.0000   -5.1962    0.0000 C   0  0  0  0  0  0  0  0  0  0  0  0
    5.2500   -6.4952    0.0000 C   0  0  0  0  0  0  0  0  0  0  0  0
    6.0000   -7.7942    0.0000 C   0  0  0  0  0  0  0  0  0  0  0  0
    7.5000   -7.7942    0.0000 C   0  0  0  0  0  0  0  0  0  0  0  0
    8.2500   -9.0933    0.0000 O   0  0  0  0  0  0  0  0  0  0  0  0
    7.5000  -10.3923    0.0000 C   0  0  0  0  0  0  0  0  0  0  0  0
    8.2500  -11.6913    0.0000 F   0  0  0  0  0  0  0  0  0  0  0  0
    6.0000  -10.3923    0.0000 F   0  0  0  0  0  0  0  0  0  0  0  0
    8.2500   -6.4952    0.0000 C   0  0  0  0  0  0  0  0  0  0  0  0
    7.5000   -5.1962    0.0000 C   0  0  0  0  0  0  0  0  0  0  0  0
  1  2  1  0
  2  3  2  0
  3  4  1  0
  4  5  1  0
  5  6  2  0
  5  7  1  0
  7  8  2  0
  8  9  1  0
  9 10  1  0
 10 11  1  0
 11 12  1  0
  9 13  2  0
 13 14  1  0
 14 15  2  0
 15 16  1  0
 16 17  1  0
 16 18  2  0
 18 19  1  0
 19 20  1  0
  2 21  1  0
 21 22  2  0
 22 23  1  0
 23 24  2  0
 24 25  1  0
 25 26  1  0
 26 27  1  0
 26 28  1  0
 24 29  1  0
 29 30  2  0
 15  7  1  0
 30 21  1  0
 12 10  1  0
 19 14  1  0
M  END
>  <Compound_ID>  (1184) 
C13960923

>  <Active>  (1184) 
0.0

>  <Smiles>  (1184) 
C/C(=N\NC(=O)c1cc(C2CC2)nc2c1c(C)nn2C)c1ccc(OC(F)F)cc1

>  <canonical_smi>  (1184) 
C/C(=N\NC(=O)c1cc(C2CC2)nc2c1c(C)nn2C)c1ccc(OC(F)F)cc1

>  <Set>  (1184) 
G2 inactive

>  <Set_type>  (1184) 
Test

>  <MW>  (1184) 
413.43

>  <HBD>  (1184) 
1

>  <HBA>  (1184) 
4

>  <NRB>  (1184) 
6

>  <NR>  (1184) 
4

>  <NAR>  (1184) 
3

>  <PSA>  (1184) 
81.4

>  <Standard Type>  (1184) 
nan

>  <Standard Relation>  (1184) 
nan

>  <Standard Units>  (1184) 
nan

>  <Standard Value>  (1184) 
nan

>  <Assay ChEMBL ID>  (1184) 
nan

>  <Assay Description>  (1184) 
nan

>  <BAO Label>  (1184) 
nan

$$$$

     RDKit          2D

 26 30  0  0  0  0  0  0  0  0999 V2000
    1.4418   -6.4791    0.0000 O   0  0  0  0  0  0  0  0  0  0  0  0
    1.7537   -5.0118    0.0000 C   0  0  0  0  0  0  0  0  0  0  0  0
    3.1240   -4.4017    0.0000 C   0  0  0  0  0  0  0  0  0  0  0  0
    4.4231   -5.1517    0.0000 C   0  0  0  0  0  0  0  0  0  0  0  0
    5.7221   -4.4017    0.0000 C   0  0  0  0  0  0  0  0  0  0  0  0
    5.8789   -2.9099    0.0000 C   0  0  0  0  0  0  0  0  0  0  0  0
    7.3461   -2.5981    0.0000 C   0  0  0  0  0  0  0  0  0  0  0  0
    8.0961   -3.8971    0.0000 C   0  0  0  0  0  0  0  0  0  0  0  0
    7.0924   -5.0118    0.0000 S   0  0  0  0  0  0  0  0  0  0  0  0
    2.9672   -2.9099    0.0000 O   0  0  0  0  0  0  0  0  0  0  0  0
    1.5000   -2.5981    0.0000 C   0  0  0  0  0  0  0  0  0  0  0  0
    0.7500   -3.8971    0.0000 C   0  0  0  0  0  0  0  0  0  0  0  0
   -0.7500   -3.8971    0.0000 C   0  0  0  0  0  0  0  0  0  0  0  0
   -1.5000   -2.5981    0.0000 C   0  0  0  0  0  0  0  0  0  0  0  0
   -0.7500   -1.2990    0.0000 C   0  0  0  0  0  0  0  0  0  0  0  0
    0.7500   -1.2990    0.0000 C   0  0  0  0  0  0  0  0  0  0  0  0
    1.5000    0.0000    0.0000 C   0  0  0  0  0  0  0  0  0  0  0  0
    0.7500    1.2990    0.0000 N   0  0  0  0  0  0  0  0  0  0  0  0
    1.5000    2.5981    0.0000 C   0  0  0  0  0  0  0  0  0  0  0  0
    3.0000    2.5981    0.0000 C   0  0  0  0  0  0  0  0  0  0  0  0
    3.7500    3.8971    0.0000 C   0  0  0  0  0  0  0  0  0  0  0  0
    3.0000    5.1962    0.0000 C   0  0  0  0  0  0  0  0  0  0  0  0
    1.5000    5.1962    0.0000 C   0  0  0  0  0  0  0  0  0  0  0  0
    0.7500    3.8971    0.0000 C   0  0  0  0  0  0  0  0  0  0  0  0
   -0.7500    1.2990    0.0000 C   0  0  0  0  0  0  0  0  0  0  0  0
   -1.5000    0.0000    0.0000 O   0  0  0  0  0  0  0  0  0  0  0  0
  1  2  2  0
  2  3  1  0
  3  4  2  0
  4  5  1  0
  5  6  2  0
  6  7  1  0
  7  8  2  0
  8  9  1  0
  3 10  1  0
 10 11  1  0
 11 12  2  0
 12 13  1  0
 13 14  2  0
 14 15  1  0
 15 16  2  0
 16 17  1  0
 17 18  1  0
 18 19  1  0
 19 20  1  0
 20 21  1  0
 21 22  1  0
 22 23  1  0
 23 24  1  0
 18 25  1  0
 25 26  1  0
 12  2  1  0
 26 15  1  0
  9  5  1  0
 16 11  1  0
 24 19  1  0
M  END
>  <Compound_ID>  (1185) 
C41653987

>  <Active>  (1185) 
0.0

>  <Smiles>  (1185) 
O=C1/C(=C/c2cccs2)Oc2c1ccc1c2CN(C2CCCCC2)CO1

>  <canonical_smi>  (1185) 
O=C1/C(=C/c2cccs2)Oc2c1ccc1c2CN(C2CCCCC2)CO1

>  <Set>  (1185) 
G2 inactive

>  <Set_type>  (1185) 
Test

>  <MW>  (1185) 
367.47

>  <HBD>  (1185) 
0

>  <HBA>  (1185) 
4

>  <NRB>  (1185) 
2

>  <NR>  (1185) 
5

>  <NAR>  (1185) 
2

>  <PSA>  (1185) 
38.77

>  <Standard Type>  (1185) 
nan

>  <Standard Relation>  (1185) 
nan

>  <Standard Units>  (1185) 
nan

>  <Standard Value>  (1185) 
nan

>  <Assay ChEMBL ID>  (1185) 
nan

>  <Assay Description>  (1185) 
nan

>  <BAO Label>  (1185) 
nan

$$$$

     RDKit          2D

 19 20  0  0  0  0  0  0  0  0999 V2000
    3.0000   -5.1962    0.0000 O   0  0  0  0  0  0  0  0  0  0  0  0
    3.7500   -3.8971    0.0000 C   0  0  0  0  0  0  0  0  0  0  0  0
    3.0000   -2.5981    0.0000 C   0  0  0  0  0  0  0  0  0  0  0  0
    1.5000   -2.5981    0.0000 S   0  0  0  0  0  0  0  0  0  0  0  0
    0.7500   -1.2990    0.0000 C   0  0  0  0  0  0  0  0  0  0  0  0
    1.5000    0.0000    0.0000 C   0  0  0  0  0  0  0  0  0  0  0  0
    0.7500    1.2990    0.0000 C   0  0  0  0  0  0  0  0  0  0  0  0
   -0.7500    1.2990    0.0000 C   0  0  0  0  0  0  0  0  0  0  0  0
   -1.5000    0.0000    0.0000 C   0  0  0  0  0  0  0  0  0  0  0  0
   -0.7500   -1.2990    0.0000 C   0  0  0  0  0  0  0  0  0  0  0  0
   -1.5000   -2.5981    0.0000 N   0  0  0  0  0  4  0  0  0  0  0  0
   -0.7500   -3.8971    0.0000 O   0  0  0  0  0  0  0  0  0  0  0  0
   -3.0000   -2.5981    0.0000 O   0  0  0  0  0  1  0  0  0  0  0  0
    5.2500   -3.8971    0.0000 C   0  0  0  0  0  0  0  0  0  0  0  0
    6.1317   -2.6836    0.0000 C   0  0  0  0  0  0  0  0  0  0  0  0
    7.5583   -3.1471    0.0000 C   0  0  0  0  0  0  0  0  0  0  0  0
    7.5583   -4.6471    0.0000 C   0  0  0  0  0  0  0  0  0  0  0  0
    8.7718   -5.5288    0.0000 Cl  0  0  0  0  0  0  0  0  0  0  0  0
    6.1317   -5.1106    0.0000 S   0  0  0  0  0  0  0  0  0  0  0  0
  1  2  2  0
  2  3  1  0
  3  4  1  0
  4  5  1  0
  5  6  2  0
  6  7  1  0
  7  8  2  0
  8  9  1  0
  9 10  2  0
 10 11  1  0
 11 12  2  0
 11 13  1  0
  2 14  1  0
 14 15  2  0
 15 16  1  0
 16 17  2  0
 17 18  1  0
 17 19  1  0
 10  5  1  0
 19 14  1  0
M  CHG  2  11   1  13  -1
M  END
>  <Compound_ID>  (1186) 
C37352204

>  <Active>  (1186) 
0.0

>  <Smiles>  (1186) 
O=C(CSc1ccccc1[N+](=O)[O-])c1ccc(Cl)s1

>  <canonical_smi>  (1186) 
O=C(CSc1ccccc1[N+](=O)[O-])c1ccc(Cl)s1

>  <Set>  (1186) 
G2 inactive

>  <Set_type>  (1186) 
Test

>  <MW>  (1186) 
313.79

>  <HBD>  (1186) 
0

>  <HBA>  (1186) 
4

>  <NRB>  (1186) 
5

>  <NR>  (1186) 
2

>  <NAR>  (1186) 
2

>  <PSA>  (1186) 
60.21

>  <Standard Type>  (1186) 
nan

>  <Standard Relation>  (1186) 
nan

>  <Standard Units>  (1186) 
nan

>  <Standard Value>  (1186) 
nan

>  <Assay ChEMBL ID>  (1186) 
nan

>  <Assay Description>  (1186) 
nan

>  <BAO Label>  (1186) 
nan

$$$$

     RDKit          2D

 25 28  0  0  0  0  0  0  0  0999 V2000
   -0.7360   -6.1923    0.0000 O   0  0  0  0  0  0  0  0  0  0  0  0
    0.4775   -7.0740    0.0000 C   0  0  0  0  0  0  0  0  0  0  0  0
    1.8478   -6.4639    0.0000 N   0  0  0  0  0  0  0  0  0  0  0  0
    2.0046   -4.9721    0.0000 C   0  0  0  0  0  0  0  0  0  0  0  0
    0.8899   -3.9684    0.0000 N   0  0  0  0  0  0  0  0  0  0  0  0
    1.5000   -2.5981    0.0000 C   0  0  0  0  0  0  0  0  0  0  0  0
    0.7500   -1.2990    0.0000 C   0  0  0  0  0  0  0  0  0  0  0  0
    1.5000    0.0000    0.0000 C   0  0  0  0  0  0  0  0  0  0  0  0
    0.7500    1.2990    0.0000 C   0  0  0  0  0  0  0  0  0  0  0  0
   -0.7500    1.2990    0.0000 C   0  0  0  0  0  0  0  0  0  0  0  0
   -1.5000    0.0000    0.0000 C   0  0  0  0  0  0  0  0  0  0  0  0
   -0.7500   -1.2990    0.0000 C   0  0  0  0  0  0  0  0  0  0  0  0
    2.9918   -2.7549    0.0000 N   0  0  0  0  0  0  0  0  0  0  0  0
    3.3037   -4.2221    0.0000 S   0  0  0  0  0  0  0  0  0  0  0  0
    0.3207   -8.5658    0.0000 C   0  0  0  0  0  0  0  0  0  0  0  0
    1.4354   -9.5695    0.0000 C   0  0  0  0  0  0  0  0  0  0  0  0
    0.8253  -10.9398    0.0000 C   0  0  0  0  0  0  0  0  0  0  0  0
    1.5753  -12.2388    0.0000 C   0  0  0  0  0  0  0  0  0  0  0  0
    0.8253  -13.5379    0.0000 C   0  0  0  0  0  0  0  0  0  0  0  0
    1.5753  -14.8369    0.0000 C   0  0  0  0  0  0  0  0  0  0  0  0
    3.0753  -14.8369    0.0000 C   0  0  0  0  0  0  0  0  0  0  0  0
    3.8253  -13.5379    0.0000 C   0  0  0  0  0  0  0  0  0  0  0  0
    3.0753  -12.2388    0.0000 C   0  0  0  0  0  0  0  0  0  0  0  0
   -0.6665  -10.7830    0.0000 N   0  0  0  0  0  0  0  0  0  0  0  0
   -0.9783   -9.3158    0.0000 O   0  0  0  0  0  0  0  0  0  0  0  0
  1  2  2  0
  2  3  1  0
  3  4  1  0
  4  5  2  0
  5  6  1  0
  6  7  1  0
  7  8  2  0
  8  9  1  0
  9 10  2  0
 10 11  1  0
 11 12  2  0
  6 13  2  0
 13 14  1  0
 15  2  1  1
 15 16  1  0
 16 17  1  0
 17 18  1  0
 18 19  2  0
 19 20  1  0
 20 21  2  0
 21 22  1  0
 22 23  2  0
 17 24  2  0
 24 25  1  0
 14  4  1  0
 25 15  1  0
 12  7  1  0
 23 18  1  0
M  END
>  <Compound_ID>  (1187) 
C55410536

>  <Active>  (1187) 
0.0

>  <Smiles>  (1187) 
O=C(Nc1nc(-c2ccccc2)ns1)[C@H]1CC(c2ccccc2)=NO1

>  <canonical_smi>  (1187) 
O=C(Nc1nc(-c2ccccc2)ns1)[C@H]1CC(c2ccccc2)=NO1

>  <Set>  (1187) 
G2 inactive

>  <Set_type>  (1187) 
Test

>  <MW>  (1187) 
350.4

>  <HBD>  (1187) 
1

>  <HBA>  (1187) 
4

>  <NRB>  (1187) 
4

>  <NR>  (1187) 
4

>  <NAR>  (1187) 
3

>  <PSA>  (1187) 
76.47

>  <Standard Type>  (1187) 
nan

>  <Standard Relation>  (1187) 
nan

>  <Standard Units>  (1187) 
nan

>  <Standard Value>  (1187) 
nan

>  <Assay ChEMBL ID>  (1187) 
nan

>  <Assay Description>  (1187) 
nan

>  <BAO Label>  (1187) 
nan

$$$$

     RDKit          2D

 27 29  0  0  0  0  0  0  0  0999 V2000
   -5.1793    6.2320    0.0000 C   0  0  0  0  0  0  0  0  0  0  0  0
   -3.7527    6.6955    0.0000 O   0  0  0  0  0  0  0  0  0  0  0  0
   -2.6380    5.6918    0.0000 C   0  0  0  0  0  0  0  0  0  0  0  0
   -1.2114    6.1554    0.0000 C   0  0  0  0  0  0  0  0  0  0  0  0
   -0.8995    7.6226    0.0000 C   0  0  0  0  0  0  0  0  0  0  0  0
   -0.0967    5.1517    0.0000 C   0  0  0  0  0  0  0  0  0  0  0  0
    1.3299    5.6152    0.0000 O   0  0  0  0  0  0  0  0  0  0  0  0
   -0.4086    3.6844    0.0000 C   0  0  0  0  0  0  0  0  0  0  0  0
   -1.8351    3.2209    0.0000 C   0  0  0  0  0  0  0  0  0  0  0  0
   -2.1470    1.7537    0.0000 C   0  0  0  0  0  0  0  0  0  0  0  0
   -1.0323    0.7500    0.0000 C   0  0  0  0  0  0  0  0  0  0  0  0
    0.3943    1.2135    0.0000 C   0  0  0  0  0  0  0  0  0  0  0  0
    0.7062    2.6807    0.0000 C   0  0  0  0  0  0  0  0  0  0  0  0
    2.1328    3.1443    0.0000 O   0  0  0  0  0  0  0  0  0  0  0  0
    1.2760    0.0000    0.0000 C   0  0  0  0  0  0  0  0  0  0  0  0
    2.3907    1.0037    0.0000 C   0  0  0  0  0  0  0  0  0  0  0  0
    2.3907   -1.0037    0.0000 C   0  0  0  0  0  0  0  0  0  0  0  0
    2.0788   -2.4709    0.0000 C   0  0  0  0  0  0  0  0  0  0  0  0
    3.1935   -3.4746    0.0000 C   0  0  0  0  0  0  0  0  0  0  0  0
    2.8817   -4.9418    0.0000 C   0  0  0  0  0  0  0  0  0  0  0  0
    3.9964   -5.9455    0.0000 C   0  0  0  0  0  0  0  0  0  0  0  0
    1.4551   -5.4054    0.0000 C   0  0  0  0  0  0  0  0  0  0  0  0
    0.3943   -1.2135    0.0000 C   0  0  0  0  0  0  0  0  0  0  0  0
    0.8578   -2.6401    0.0000 C   0  0  0  0  0  0  0  0  0  0  0  0
   -1.0323   -0.7500    0.0000 O   0  0  0  0  0  0  0  0  0  0  0  0
   -2.9499    4.2246    0.0000 C   0  0  0  0  0  0  0  0  0  0  0  0
   -4.3764    3.7611    0.0000 O   0  0  0  0  0  0  0  0  0  0  0  0
  1  2  1  0
  2  3  1  0
  3  4  2  0
  4  5  1  0
  4  6  1  0
  6  7  2  0
  6  8  1  0
  8  9  2  0
  9 10  1  0
 10 11  2  0
 11 12  1  0
 12 13  2  0
 13 14  1  0
 12 15  1  0
 15 16  1  1
 15 17  1  0
 17 18  1  0
 18 19  1  0
 19 20  2  0
 20 21  1  0
 20 22  1  0
 15 23  1  0
 23 24  1  1
 23 25  1  0
  9 26  1  0
 26 27  2  0
 26  3  1  0
 13  8  1  0
 25 11  1  0
M  END
>  <Compound_ID>  (1188) 
C01630730

>  <Active>  (1188) 
0.0

>  <Smiles>  (1188) 
COC1=C(C)C(=O)c2c(cc3c(c2O)[C@](C)(CCC=C(C)C)[C@@H](C)O3)C1=O

>  <canonical_smi>  (1188) 
COC1=C(C)C(=O)c2c(cc3c(c2O)[C@](C)(CCC=C(C)C)[C@@H](C)O3)C1=O

>  <Set>  (1188) 
G2 inactive

>  <Set_type>  (1188) 
Test

>  <MW>  (1188) 
370.45

>  <HBD>  (1188) 
1

>  <HBA>  (1188) 
5

>  <NRB>  (1188) 
4

>  <NR>  (1188) 
3

>  <NAR>  (1188) 
1

>  <PSA>  (1188) 
72.83

>  <Standard Type>  (1188) 
nan

>  <Standard Relation>  (1188) 
nan

>  <Standard Units>  (1188) 
nan

>  <Standard Value>  (1188) 
nan

>  <Assay ChEMBL ID>  (1188) 
nan

>  <Assay Description>  (1188) 
nan

>  <BAO Label>  (1188) 
nan

$$$$

     RDKit          2D

 20 22  0  0  0  0  0  0  0  0999 V2000
   -2.9499    4.2246    0.0000 C   0  0  0  0  0  0  0  0  0  0  0  0
   -1.8351    3.2209    0.0000 C   0  0  0  0  0  0  0  0  0  0  0  0
   -0.4086    3.6844    0.0000 C   0  0  0  0  0  0  0  0  0  0  0  0
    0.7062    2.6807    0.0000 C   0  0  0  0  0  0  0  0  0  0  0  0
    2.1328    3.1443    0.0000 N   0  0  0  0  0  0  0  0  0  0  0  0
    2.4446    4.6115    0.0000 C   0  0  0  0  0  0  0  0  0  0  0  0
    3.8712    5.0750    0.0000 C   0  0  0  0  0  0  0  0  0  0  0  0
    5.2077    4.3940    0.0000 C   0  0  0  0  0  0  0  0  0  0  0  0
    5.8887    5.7305    0.0000 C   0  0  0  0  0  0  0  0  0  0  0  0
    4.5522    6.4115    0.0000 C   0  0  0  0  0  0  0  0  0  0  0  0
    0.3943    1.2135    0.0000 N   0  0  0  0  0  0  0  0  0  0  0  0
    1.2760    0.0000    0.0000 N   0  0  0  0  0  0  0  0  0  0  0  0
    0.3943   -1.2135    0.0000 C   0  0  0  0  0  0  0  0  0  0  0  0
    0.8578   -2.6401    0.0000 C   0  0  0  0  0  0  0  0  0  0  0  0
    1.3213   -4.0667    0.0000 F   0  0  0  0  0  0  0  0  0  0  0  0
   -0.5688   -3.1036    0.0000 F   0  0  0  0  0  0  0  0  0  0  0  0
    2.2844   -2.1766    0.0000 F   0  0  0  0  0  0  0  0  0  0  0  0
   -1.0323   -0.7500    0.0000 N   0  0  0  0  0  0  0  0  0  0  0  0
   -1.0323    0.7500    0.0000 C   0  0  0  0  0  0  0  0  0  0  0  0
   -2.1470    1.7537    0.0000 N   0  0  0  0  0  0  0  0  0  0  0  0
  1  2  1  0
  2  3  1  0
  3  4  2  0
  4  5  1  0
  5  6  1  0
  6  7  1  0
  7  8  1  0
  8  9  1  0
  9 10  1  0
  4 11  1  0
 11 12  1  0
 12 13  2  0
 13 14  1  0
 14 15  1  0
 14 16  1  0
 14 17  1  0
 13 18  1  0
 18 19  2  0
 19 20  1  0
 20  2  2  0
 10  7  1  0
 19 11  1  0
M  END
>  <Compound_ID>  (1189) 
C42099902

>  <Active>  (1189) 
0.0

>  <Smiles>  (1189) 
Cc1cc(NCC2CCC2)n2nc(C(F)(F)F)nc2n1

>  <canonical_smi>  (1189) 
Cc1cc(NCC2CCC2)n2nc(C(F)(F)F)nc2n1

>  <Set>  (1189) 
G2 inactive

>  <Set_type>  (1189) 
Test

>  <MW>  (1189) 
285.27

>  <HBD>  (1189) 
1

>  <HBA>  (1189) 
4

>  <NRB>  (1189) 
3

>  <NR>  (1189) 
3

>  <NAR>  (1189) 
2

>  <PSA>  (1189) 
55.11

>  <Standard Type>  (1189) 
nan

>  <Standard Relation>  (1189) 
nan

>  <Standard Units>  (1189) 
nan

>  <Standard Value>  (1189) 
nan

>  <Assay ChEMBL ID>  (1189) 
nan

>  <Assay Description>  (1189) 
nan

>  <BAO Label>  (1189) 
nan

$$$$

     RDKit          2D

 25 28  0  0  0  0  0  0  0  0999 V2000
   -0.6860    6.2961    0.0000 C   0  0  0  0  0  0  0  0  0  0  0  0
    0.3177    5.1814    0.0000 C   0  0  0  0  0  0  0  0  0  0  0  0
    1.7849    5.4933    0.0000 C   0  0  0  0  0  0  0  0  0  0  0  0
    2.7886    4.3786    0.0000 C   0  0  0  0  0  0  0  0  0  0  0  0
    2.3250    2.9520    0.0000 C   0  0  0  0  0  0  0  0  0  0  0  0
    0.8578    2.6401    0.0000 C   0  0  0  0  0  0  0  0  0  0  0  0
    0.3943    1.2135    0.0000 N   0  0  0  0  0  0  0  0  0  0  0  0
    1.2760    0.0000    0.0000 N   0  0  0  0  0  0  0  0  0  0  0  0
    0.3943   -1.2135    0.0000 N   0  0  0  0  0  0  0  0  0  0  0  0
   -1.0323   -0.7500    0.0000 C   0  0  0  0  0  0  0  0  0  0  0  0
   -2.3313   -1.5000    0.0000 C   0  0  0  0  0  0  0  0  0  0  0  0
   -2.3313   -3.0000    0.0000 O   0  0  0  0  0  0  0  0  0  0  0  0
   -3.6304   -0.7500    0.0000 N   0  0  0  0  0  0  0  0  0  0  0  0
   -4.9294   -1.5000    0.0000 C   0  0  0  0  0  0  0  0  0  0  0  0
   -6.2284   -0.7500    0.0000 C   0  0  0  0  0  0  0  0  0  0  0  0
   -6.2284    0.7500    0.0000 C   0  0  0  0  0  0  0  0  0  0  0  0
   -7.5275    1.5000    0.0000 C   0  0  0  0  0  0  0  0  0  0  0  0
   -8.8265    0.7500    0.0000 C   0  0  0  0  0  0  0  0  0  0  0  0
   -8.8265   -0.7500    0.0000 C   0  0  0  0  0  0  0  0  0  0  0  0
   -7.5275   -1.5000    0.0000 C   0  0  0  0  0  0  0  0  0  0  0  0
   -7.5275   -3.0000    0.0000 C   0  0  0  0  0  0  0  0  0  0  0  0
   -3.6304    0.7500    0.0000 C   0  0  0  0  0  0  0  0  0  0  0  0
   -2.3313    1.5000    0.0000 N   0  0  0  0  0  0  0  0  0  0  0  0
   -1.0323    0.7500    0.0000 C   0  0  0  0  0  0  0  0  0  0  0  0
   -0.1459    3.7548    0.0000 C   0  0  0  0  0  0  0  0  0  0  0  0
  1  2  1  0
  2  3  2  0
  3  4  1  0
  4  5  2  0
  5  6  1  0
  6  7  1  0
  7  8  1  0
  8  9  2  0
  9 10  1  0
 10 11  1  0
 11 12  2  0
 11 13  1  0
 13 14  1  0
 14 15  1  0
 15 16  2  0
 16 17  1  0
 17 18  2  0
 18 19  1  0
 19 20  2  0
 20 21  1  0
 13 22  1  0
 22 23  2  0
 23 24  1  0
  6 25  2  0
 25  2  1  0
 24  7  1  0
 24 10  2  0
 20 15  1  0
M  END
>  <Compound_ID>  (1190) 
C05056967

>  <Active>  (1190) 
0.0

>  <Smiles>  (1190) 
Cc1cccc(-n2nnc3c(=O)n(Cc4ccccc4C)cnc32)c1

>  <canonical_smi>  (1190) 
Cc1cccc(-n2nnc3c(=O)n(Cc4ccccc4C)cnc32)c1

>  <Set>  (1190) 
G2 inactive

>  <Set_type>  (1190) 
Test

>  <MW>  (1190) 
331.38

>  <HBD>  (1190) 
0

>  <HBA>  (1190) 
4

>  <NRB>  (1190) 
3

>  <NR>  (1190) 
4

>  <NAR>  (1190) 
4

>  <PSA>  (1190) 
65.6

>  <Standard Type>  (1190) 
nan

>  <Standard Relation>  (1190) 
nan

>  <Standard Units>  (1190) 
nan

>  <Standard Value>  (1190) 
nan

>  <Assay ChEMBL ID>  (1190) 
nan

>  <Assay Description>  (1190) 
nan

>  <BAO Label>  (1190) 
nan

$$$$

     RDKit          2D

 27 30  0  0  0  0  0  0  0  0999 V2000
    3.7500   -1.2990    0.0000 C   0  0  0  0  0  0  0  0  0  0  0  0
    3.0000    0.0000    0.0000 N   0  0  0  0  0  0  0  0  0  0  0  0
    1.5000    0.0000    0.0000 C   0  0  0  0  0  0  0  0  0  0  0  0
    0.7500   -1.2990    0.0000 C   0  0  0  0  0  0  0  0  0  0  0  0
   -0.7500   -1.2990    0.0000 C   0  0  0  0  0  0  0  0  0  0  0  0
   -1.5000    0.0000    0.0000 C   0  0  0  0  0  0  0  0  0  0  0  0
   -3.0000    0.0000    0.0000 C   0  0  0  0  0  0  0  0  0  0  0  0
   -3.7500   -1.2990    0.0000 C   0  0  0  0  0  0  0  0  0  0  0  0
   -5.2500   -1.2990    0.0000 C   0  0  0  0  0  0  0  0  0  0  0  0
   -6.0000   -2.5981    0.0000 C   0  0  0  0  0  0  0  0  0  0  0  0
   -5.2500   -3.8971    0.0000 C   0  0  0  0  0  0  0  0  0  0  0  0
   -3.7500   -3.8971    0.0000 C   0  0  0  0  0  0  0  0  0  0  0  0
   -3.0000   -2.5981    0.0000 C   0  0  0  0  0  0  0  0  0  0  0  0
   -1.5000   -2.5981    0.0000 C   0  0  0  0  0  0  0  0  0  0  0  0
   -0.9462   -2.0247    0.0000 O   0  0  0  0  0  0  0  0  0  0  0  0
   -0.7500   -3.8971    0.0000 O   0  0  0  0  0  1  0  0  0  0  0  0
   -3.7500    1.2990    0.0000 C   0  0  0  0  0  0  0  0  0  0  0  0
   -5.2500    1.2990    0.0000 C   0  0  0  0  0  0  0  0  0  0  0  0
   -6.0000    2.5981    0.0000 C   0  0  0  0  0  0  0  0  0  0  0  0
   -5.2500    3.8971    0.0000 C   0  0  0  0  0  0  0  0  0  0  0  0
   -6.0000    5.1962    0.0000 N   0  0  0  0  0  4  0  0  0  0  0  0
   -7.5000    5.1962    0.0000 C   0  0  0  0  0  0  0  0  0  0  0  0
   -3.7500    3.8971    0.0000 C   0  0  0  0  0  0  0  0  0  0  0  0
   -3.0000    2.5981    0.0000 C   0  0  0  0  0  0  0  0  0  0  0  0
   -1.5000    2.5981    0.0000 O   0  0  0  0  0  0  0  0  0  0  0  0
   -0.7500    1.2990    0.0000 C   0  0  0  0  0  0  0  0  0  0  0  0
    0.7500    1.2990    0.0000 C   0  0  0  0  0  0  0  0  0  0  0  0
  1  2  1  0
  2  3  1  0
  3  4  2  0
  4  5  1  0
  5  6  2  0
  6  7  1  0
  7  8  1  0
  8  9  2  0
  9 10  1  0
 10 11  2  0
 11 12  1  0
 12 13  2  0
 13 14  1  0
 14 15  2  0
 14 16  1  0
  7 17  2  0
 17 18  1  0
 18 19  2  0
 19 20  1  0
 20 21  2  0
 21 22  1  0
 20 23  1  0
 23 24  2  0
 24 25  1  0
 25 26  1  0
 26 27  2  0
 27  3  1  0
 26  6  1  0
 13  8  1  0
 24 17  1  0
M  CHG  2  16  -1  21   1
M  END
>  <Compound_ID>  (1191) 
C19594756

>  <Active>  (1191) 
0.0

>  <Smiles>  (1191) 
CNc1ccc2c(-c3ccccc3C(=O)[O-])c3cc/c(=[NH+]\C)cc-3oc2c1

>  <canonical_smi>  (1191) 
CNc1ccc2c(-c3ccccc3C(=O)[O-])c3cc/c(=[NH+]\C)cc-3oc2c1

>  <Set>  (1191) 
G2 inactive

>  <Set_type>  (1191) 
Test

>  <MW>  (1191) 
358.4

>  <HBD>  (1191) 
2

>  <HBA>  (1191) 
4

>  <NRB>  (1191) 
3

>  <NR>  (1191) 
4

>  <NAR>  (1191) 
4

>  <PSA>  (1191) 
79.27

>  <Standard Type>  (1191) 
nan

>  <Standard Relation>  (1191) 
nan

>  <Standard Units>  (1191) 
nan

>  <Standard Value>  (1191) 
nan

>  <Assay ChEMBL ID>  (1191) 
nan

>  <Assay Description>  (1191) 
nan

>  <BAO Label>  (1191) 
nan

$$$$

     RDKit          2D

 27 29  0  0  0  0  0  0  0  0999 V2000
   -3.0000   -7.7942    0.0000 C   0  0  0  0  0  0  0  0  0  0  0  0
   -1.5000   -7.7942    0.0000 C   0  0  0  0  0  0  0  0  0  0  0  0
   -0.7500   -9.0933    0.0000 C   0  0  0  0  0  0  0  0  0  0  0  0
   -1.5000  -10.3923    0.0000 C   0  0  0  0  0  0  0  0  0  0  0  0
    0.7500   -9.0933    0.0000 N   0  0  0  0  0  0  0  0  0  0  0  0
    1.5000  -10.3923    0.0000 C   0  0  0  0  0  0  0  0  0  0  0  0
    0.7500  -11.6913    0.0000 C   0  0  0  0  0  0  0  0  0  0  0  0
   -0.7500  -11.6913    0.0000 C   0  0  0  0  0  0  0  0  0  0  0  0
   -1.5000  -12.9904    0.0000 C   0  0  0  0  0  0  0  0  0  0  0  0
   -0.7500  -14.2894    0.0000 C   0  0  0  0  0  0  0  0  0  0  0  0
    0.7500  -14.2894    0.0000 C   0  0  0  0  0  0  0  0  0  0  0  0
    1.5000  -12.9904    0.0000 C   0  0  0  0  0  0  0  0  0  0  0  0
    1.5000   -7.7942    0.0000 C   0  0  0  0  0  0  0  0  0  0  0  0
    3.0000   -7.7942    0.0000 O   0  0  0  0  0  0  0  0  0  0  0  0
    0.7500   -6.4952    0.0000 C   0  0  0  0  0  0  0  0  0  0  0  0
    1.5000   -5.1962    0.0000 C   0  0  0  0  0  0  0  0  0  0  0  0
    0.7500   -3.8971    0.0000 C   0  0  0  0  0  0  0  0  0  0  0  0
    1.5000   -2.5981    0.0000 C   0  0  0  0  0  0  0  0  0  0  0  0
    0.7500   -1.2990    0.0000 C   0  0  0  0  0  0  0  0  0  0  0  0
    1.5000    0.0000    0.0000 C   0  0  0  0  0  0  0  0  0  0  0  0
    0.7500    1.2990    0.0000 C   0  0  0  0  0  0  0  0  0  0  0  0
   -0.7500    1.2990    0.0000 C   0  0  0  0  0  0  0  0  0  0  0  0
   -1.5000    0.0000    0.0000 C   0  0  0  0  0  0  0  0  0  0  0  0
   -0.7500   -1.2990    0.0000 C   0  0  0  0  0  0  0  0  0  0  0  0
   -1.5000   -2.5981    0.0000 N   0  0  0  0  0  0  0  0  0  0  0  0
   -0.7500   -3.8971    0.0000 C   0  0  0  0  0  0  0  0  0  0  0  0
   -1.5000   -5.1962    0.0000 O   0  0  0  0  0  0  0  0  0  0  0  0
  1  2  1  0
  2  3  1  0
  3  4  1  6
  3  5  1  0
  5  6  1  0
  6  7  1  0
  7  8  2  0
  8  9  1  0
  9 10  2  0
 10 11  1  0
 11 12  2  0
  5 13  1  0
 13 14  2  0
 13 15  1  0
 15 16  1  0
 17 16  1  6
 17 18  1  0
 18 19  1  0
 19 20  2  0
 20 21  1  0
 21 22  2  0
 22 23  1  0
 23 24  2  0
 24 25  1  0
 25 26  1  0
 26 27  2  0
 12  7  1  0
 26 17  1  0
 24 19  1  0
M  END
>  <Compound_ID>  (1192) 
C22407127

>  <Active>  (1192) 
0.0

>  <Smiles>  (1192) 
CC[C@@H](C)N(Cc1ccccc1)C(=O)CC[C@H]1Cc2ccccc2NC1=O

>  <canonical_smi>  (1192) 
CC[C@@H](C)N(Cc1ccccc1)C(=O)CC[C@H]1Cc2ccccc2NC1=O

>  <Set>  (1192) 
G2 inactive

>  <Set_type>  (1192) 
Test

>  <MW>  (1192) 
364.49

>  <HBD>  (1192) 
1

>  <HBA>  (1192) 
2

>  <NRB>  (1192) 
7

>  <NR>  (1192) 
3

>  <NAR>  (1192) 
2

>  <PSA>  (1192) 
49.41

>  <Standard Type>  (1192) 
nan

>  <Standard Relation>  (1192) 
nan

>  <Standard Units>  (1192) 
nan

>  <Standard Value>  (1192) 
nan

>  <Assay ChEMBL ID>  (1192) 
nan

>  <Assay Description>  (1192) 
nan

>  <BAO Label>  (1192) 
nan

$$$$

     RDKit          2D

 17 18  0  0  0  0  0  0  0  0999 V2000
    4.5000    0.0000    0.0000 F   0  0  0  0  0  0  0  0  0  0  0  0
    3.0000    0.0000    0.0000 C   0  0  0  0  0  0  0  0  0  0  0  0
    3.0000   -1.5000    0.0000 F   0  0  0  0  0  0  0  0  0  0  0  0
    3.0000    1.5000    0.0000 F   0  0  0  0  0  0  0  0  0  0  0  0
    1.5000    0.0000    0.0000 C   0  0  0  0  0  0  0  0  0  0  0  0
    0.7500   -1.2990    0.0000 C   0  0  0  0  0  0  0  0  0  0  0  0
   -0.7500   -1.2990    0.0000 C   0  0  0  0  0  0  0  0  0  0  0  0
   -1.5000    0.0000    0.0000 C   0  0  0  0  0  0  0  0  0  0  0  0
   -3.0000    0.0000    0.0000 N   0  0  0  0  0  0  0  0  0  0  0  0
   -3.8817   -1.2135    0.0000 N   0  0  0  0  0  0  0  0  0  0  0  0
   -5.3083   -0.7500    0.0000 N   0  0  0  0  0  0  0  0  0  0  0  0
   -5.3083    0.7500    0.0000 N   0  0  0  0  0  0  0  0  0  0  0  0
   -3.8817    1.2135    0.0000 C   0  0  0  0  0  0  0  0  0  0  0  0
   -3.4182    2.6401    0.0000 C   0  0  0  0  0  0  0  0  0  0  0  0
   -4.4218    3.7548    0.0000 Cl  0  0  0  0  0  0  0  0  0  0  0  0
   -0.7500    1.2990    0.0000 C   0  0  0  0  0  0  0  0  0  0  0  0
    0.7500    1.2990    0.0000 C   0  0  0  0  0  0  0  0  0  0  0  0
  1  2  1  0
  2  3  1  0
  2  4  1  0
  2  5  1  0
  5  6  2  0
  6  7  1  0
  7  8  2  0
  8  9  1  0
  9 10  1  0
 10 11  2  0
 11 12  1  0
 12 13  2  0
 13 14  1  0
 14 15  1  0
  8 16  1  0
 16 17  2  0
 17  5  1  0
 13  9  1  0
M  END
>  <Compound_ID>  (1193) 
C36138822

>  <Active>  (1193) 
0.0

>  <Smiles>  (1193) 
FC(F)(F)c1ccc(-n2nnnc2CCl)cc1

>  <canonical_smi>  (1193) 
FC(F)(F)c1ccc(-n2nnnc2CCl)cc1

>  <Set>  (1193) 
G2 inactive

>  <Set_type>  (1193) 
Test

>  <MW>  (1193) 
262.62

>  <HBD>  (1193) 
0

>  <HBA>  (1193) 
3

>  <NRB>  (1193) 
2

>  <NR>  (1193) 
2

>  <NAR>  (1193) 
2

>  <PSA>  (1193) 
43.6

>  <Standard Type>  (1193) 
nan

>  <Standard Relation>  (1193) 
nan

>  <Standard Units>  (1193) 
nan

>  <Standard Value>  (1193) 
nan

>  <Assay ChEMBL ID>  (1193) 
nan

>  <Assay Description>  (1193) 
nan

>  <BAO Label>  (1193) 
nan

$$$$

     RDKit          2D

 16 16  0  0  0  0  0  0  0  0999 V2000
    3.0000   -1.5000    0.0000 C   0  0  0  0  0  0  0  0  0  0  0  0
    3.0000    0.0000    0.0000 C   0  0  0  0  0  0  0  0  0  0  0  0
    3.0000    1.5000    0.0000 C   0  0  0  0  0  0  0  0  0  0  0  0
    4.5000    0.0000    0.0000 C   0  0  0  0  0  0  0  0  0  0  0  0
    1.5000    0.0000    0.0000 C   0  0  0  0  0  0  0  0  0  0  0  0
    0.7500   -1.2990    0.0000 C   0  0  0  0  0  0  0  0  0  0  0  0
   -0.7500   -1.2990    0.0000 C   0  0  0  0  0  0  0  0  0  0  0  0
   -1.5000   -2.5981    0.0000 Cl  0  0  0  0  0  0  0  0  0  0  0  0
   -1.5000    0.0000    0.0000 N   0  0  0  0  0  0  0  0  0  0  0  0
   -0.7500    1.2990    0.0000 C   0  0  0  0  0  0  0  0  0  0  0  0
   -1.5000    2.5981    0.0000 C   0  0  0  0  0  0  0  0  0  0  0  0
   -0.7500    3.8971    0.0000 S   0  0  0  0  0  0  0  0  0  0  0  0
    0.0000    5.1962    0.0000 C   0  0  0  0  0  0  0  0  0  0  0  0
    0.5490    3.1471    0.0000 O   0  0  0  0  0  0  0  0  0  0  0  0
   -2.0490    4.6471    0.0000 O   0  0  0  0  0  0  0  0  0  0  0  0
    0.7500    1.2990    0.0000 N   0  0  0  0  0  0  0  0  0  0  0  0
  1  2  1  0
  2  3  1  0
  2  4  1  0
  2  5  1  0
  5  6  2  0
  6  7  1  0
  7  8  1  0
  7  9  2  0
  9 10  1  0
 10 11  1  0
 11 12  1  0
 12 13  1  0
 12 14  2  0
 12 15  2  0
 10 16  2  0
 16  5  1  0
M  END
>  <Compound_ID>  (1194) 
C52788582

>  <Active>  (1194) 
0.0

>  <Smiles>  (1194) 
CC(C)(C)c1cc(Cl)nc(CS(C)(=O)=O)n1

>  <canonical_smi>  (1194) 
CC(C)(C)c1cc(Cl)nc(CS(C)(=O)=O)n1

>  <Set>  (1194) 
G2 inactive

>  <Set_type>  (1194) 
Test

>  <MW>  (1194) 
262.76

>  <HBD>  (1194) 
0

>  <HBA>  (1194) 
4

>  <NRB>  (1194) 
2

>  <NR>  (1194) 
1

>  <NAR>  (1194) 
1

>  <PSA>  (1194) 
59.92

>  <Standard Type>  (1194) 
nan

>  <Standard Relation>  (1194) 
nan

>  <Standard Units>  (1194) 
nan

>  <Standard Value>  (1194) 
nan

>  <Assay ChEMBL ID>  (1194) 
nan

>  <Assay Description>  (1194) 
nan

>  <BAO Label>  (1194) 
nan

$$$$

     RDKit          2D

 32 35  0  0  0  0  0  0  0  0999 V2000
   -1.7455   -5.5373    0.0000 C   0  0  0  0  0  0  0  0  0  0  0  0
   -0.7418   -6.6520    0.0000 C   0  0  0  0  0  0  0  0  0  0  0  0
   -1.0537   -8.1192    0.0000 O   0  0  0  0  0  0  0  0  0  0  0  0
    0.2454   -8.8692    0.0000 C   0  0  0  0  0  0  0  0  0  0  0  0
    0.4022  -10.3610    0.0000 C   0  0  0  0  0  0  0  0  0  0  0  0
    1.7012  -11.1110    0.0000 C   0  0  0  0  0  0  0  0  0  0  0  0
    1.3894  -12.5782    0.0000 C   0  0  0  0  0  0  0  0  0  0  0  0
   -0.1024  -12.7350    0.0000 C   0  0  0  0  0  0  0  0  0  0  0  0
   -0.7125  -11.3647    0.0000 S   0  0  0  0  0  0  0  0  0  0  0  0
    1.3601   -7.8655    0.0000 N   0  0  0  0  0  0  0  0  0  0  0  0
    0.7500   -6.4952    0.0000 C   0  0  0  0  0  0  0  0  0  0  0  0
    1.5000   -5.1962    0.0000 C   0  0  0  0  0  0  0  0  0  0  0  0
    0.7500   -3.8971    0.0000 C   0  0  0  0  0  0  0  0  0  0  0  0
   -0.7500   -3.8971    0.0000 O   0  0  0  0  0  0  0  0  0  0  0  0
    1.5000   -2.5981    0.0000 N   0  0  0  0  0  0  0  0  0  0  0  0
    0.7500   -1.2990    0.0000 C   0  0  0  0  0  0  0  0  0  0  0  0
    1.5000    0.0000    0.0000 C   0  0  0  0  0  0  0  0  0  0  0  0
    0.7500    1.2990    0.0000 C   0  0  0  0  0  0  0  0  0  0  0  0
   -0.7500    1.2990    0.0000 C   0  0  0  0  0  0  0  0  0  0  0  0
   -1.5000    2.5981    0.0000 S   0  0  0  0  0  0  0  0  0  0  0  0
   -0.2010    3.3481    0.0000 O   0  0  0  0  0  0  0  0  0  0  0  0
   -2.7990    1.8481    0.0000 O   0  0  0  0  0  0  0  0  0  0  0  0
   -2.2500    3.8971    0.0000 N   0  0  0  0  0  0  0  0  0  0  0  0
   -1.5000    5.1962    0.0000 C   0  0  0  0  0  0  0  0  0  0  0  0
   -2.2500    6.4952    0.0000 C   0  0  0  0  0  0  0  0  0  0  0  0
   -1.5000    7.7942    0.0000 C   0  0  0  0  0  0  0  0  0  0  0  0
   -3.7500    6.4952    0.0000 C   0  0  0  0  0  0  0  0  0  0  0  0
   -4.5000    5.1962    0.0000 C   0  0  0  0  0  0  0  0  0  0  0  0
   -6.0000    5.1962    0.0000 C   0  0  0  0  0  0  0  0  0  0  0  0
   -3.7500    3.8971    0.0000 C   0  0  0  0  0  0  0  0  0  0  0  0
   -1.5000    0.0000    0.0000 C   0  0  0  0  0  0  0  0  0  0  0  0
   -0.7500   -1.2990    0.0000 C   0  0  0  0  0  0  0  0  0  0  0  0
  1  2  1  0
  2  3  1  0
  3  4  1  0
  4  5  1  0
  5  6  2  0
  6  7  1  0
  7  8  2  0
  8  9  1  0
  4 10  2  0
 10 11  1  0
 11 12  1  0
 12 13  1  0
 13 14  2  0
 13 15  1  0
 15 16  1  0
 16 17  2  0
 17 18  1  0
 18 19  2  0
 19 20  1  0
 20 21  2  0
 20 22  2  0
 20 23  1  0
 23 24  1  0
 24 25  1  0
 25 26  1  1
 25 27  1  0
 27 28  1  0
 28 29  1  1
 28 30  1  0
 19 31  1  0
 31 32  2  0
 11  2  2  0
 32 16  1  0
  9  5  1  0
 30 23  1  0
M  END
>  <Compound_ID>  (1195) 
C22475481

>  <Active>  (1195) 
0.0

>  <Smiles>  (1195) 
Cc1oc(-c2cccs2)nc1CC(=O)Nc1ccc(S(=O)(=O)N2C[C@H](C)C[C@H](C)C2)cc1

>  <canonical_smi>  (1195) 
Cc1oc(-c2cccs2)nc1CC(=O)Nc1ccc(S(=O)(=O)N2C[C@@H](C)C[C@@H](C)C2)cc1

>  <Set>  (1195) 
G2 inactive

>  <Set_type>  (1195) 
Test

>  <MW>  (1195) 
473.62

>  <HBD>  (1195) 
1

>  <HBA>  (1195) 
5

>  <NRB>  (1195) 
6

>  <NR>  (1195) 
4

>  <NAR>  (1195) 
3

>  <PSA>  (1195) 
92.51

>  <Standard Type>  (1195) 
nan

>  <Standard Relation>  (1195) 
nan

>  <Standard Units>  (1195) 
nan

>  <Standard Value>  (1195) 
nan

>  <Assay ChEMBL ID>  (1195) 
nan

>  <Assay Description>  (1195) 
nan

>  <BAO Label>  (1195) 
nan

$$$$
