
     RDKit          2D

 26 30  0  0  0  0  0  0  0  0999 V2000
    3.1965   -4.4337    0.0000 O   0  0  0  0  0  0  0  0  0  0  0  0
    1.8107   -3.8597    0.0000 C   0  0  0  0  0  0  0  0  0  0  0  0
    1.8107   -2.3597    0.0000 N   0  0  0  0  0  0  0  0  0  0  0  0
    0.7500   -1.2990    0.0000 C   0  0  0  0  0  0  0  0  0  0  0  0
    1.5000    0.0000    0.0000 C   0  0  0  0  0  0  0  0  0  0  0  0
    0.7500    1.2990    0.0000 C   0  0  0  0  0  0  0  0  0  0  0  0
   -0.7500    1.2990    0.0000 C   0  0  0  0  0  0  0  0  0  0  0  0
   -1.5000    0.0000    0.0000 C   0  0  0  0  0  0  0  0  0  0  0  0
   -0.7500   -1.2990    0.0000 C   0  0  0  0  0  0  0  0  0  0  0  0
   -1.8107   -2.3597    0.0000 C   0  0  0  0  0  0  0  0  0  0  0  0
   -3.1097   -1.6097    0.0000 C   0  0  0  0  0  0  0  0  0  0  0  0
   -4.4087   -2.3597    0.0000 C   0  0  0  0  0  0  0  0  0  0  0  0
   -4.4087   -3.8597    0.0000 N   0  0  0  0  0  0  0  0  0  0  0  0
   -3.1097   -4.6097    0.0000 C   0  0  0  0  0  0  0  0  0  0  0  0
   -2.8363   -6.0846    0.0000 N   0  0  0  0  0  0  0  0  0  0  0  0
   -1.3492   -6.2804    0.0000 C   0  0  0  0  0  0  0  0  0  0  0  0
   -0.7500   -4.9204    0.0000 C   0  0  0  0  0  0  0  0  0  0  0  0
   -1.8107   -3.8597    0.0000 C   0  0  0  0  0  0  0  0  0  0  0  0
    0.7500   -4.9204    0.0000 C   0  0  0  0  0  0  0  0  0  0  0  0
    1.3240   -6.3062    0.0000 C   0  0  0  0  0  0  0  0  0  0  0  0
    0.4109   -7.4962    0.0000 C   0  0  0  0  0  0  0  0  0  0  0  0
    0.9849   -8.8820    0.0000 C   0  0  0  0  0  0  0  0  0  0  0  0
    2.4721   -9.0778    0.0000 C   0  0  0  0  0  0  0  0  0  0  0  0
    3.0461  -10.4636    0.0000 O   0  0  0  0  0  0  0  0  0  0  0  0
    3.3852   -7.8878    0.0000 C   0  0  0  0  0  0  0  0  0  0  0  0
    2.8112   -6.5020    0.0000 C   0  0  0  0  0  0  0  0  0  0  0  0
  1  2  2  0
  2  3  1  0
  3  4  1  0
  4  5  2  0
  5  6  1  0
  6  7  2  0
  7  8  1  0
  8  9  2  0
  9 10  1  0
 10 11  1  0
 11 12  2  0
 12 13  1  0
 13 14  2  0
 14 15  1  0
 15 16  1  0
 16 17  2  0
 17 18  1  0
 17 19  1  0
 19 20  1  0
 20 21  2  0
 21 22  1  0
 22 23  2  0
 23 24  1  0
 23 25  1  0
 25 26  2  0
 19  2  1  0
 26 20  1  0
  9  4  1  0
 18 10  2  0
 18 14  1  0
M  END
>  <Compound_ID>  (1) 
CHEMBL584052

>  <Active>  (1) 
1

>  <Smiles>  (1) 
O=C1Nc2ccccc2-c2ccnc3[nH]cc(c23)C1c1ccc(O)cc1

>  <canonical_smi>  (1) 
O=C1Nc2ccccc2-c2ccnc3[nH]cc(c23)C1c1ccc(O)cc1

>  <Set>  (1) 
G1 active

>  <Set_type>  (1) 
G1

>  <MW>  (1) 
341.37

>  <HBD>  (1) 
3

>  <HBA>  (1) 
3

>  <NRB>  (1) 
1

>  <NR>  (1) 
5

>  <NAR>  (1) 
4

>  <PSA>  (1) 
78.01

>  <Standard Type>  (1) 
nan

>  <Standard Relation>  (1) 
nan

>  <Standard Units>  (1) 
nan

>  <Standard Value>  (1) 
nan

>  <Assay ChEMBL ID>  (1) 
nan

>  <Assay Description>  (1) 
nan

>  <BAO Label>  (1) 
nan

$$$$

     RDKit          2D

 26 29  0  0  0  0  0  0  0  0999 V2000
   -6.4289   -8.5179    0.0000 C   0  0  0  0  0  0  0  0  0  0  0  0
   -6.1170   -7.0506    0.0000 C   0  0  0  0  0  0  0  0  0  0  0  0
   -4.6904   -6.5871    0.0000 N   0  0  0  0  0  0  0  0  0  0  0  0
   -4.3786   -5.1199    0.0000 C   0  0  0  0  0  0  0  0  0  0  0  0
   -2.9520   -4.6564    0.0000 C   0  0  0  0  0  0  0  0  0  0  0  0
   -2.6401   -3.1891    0.0000 C   0  0  0  0  0  0  0  0  0  0  0  0
   -1.2135   -2.7256    0.0000 C   0  0  0  0  0  0  0  0  0  0  0  0
   -0.0000   -3.6073    0.0000 C   0  0  0  0  0  0  0  0  0  0  0  0
    0.0000   -5.1073    0.0000 N   0  0  0  0  0  0  0  0  0  0  0  0
    1.2135   -2.7256    0.0000 N   0  0  0  0  0  0  0  0  0  0  0  0
    0.7500   -1.2990    0.0000 N   0  0  0  0  0  0  0  0  0  0  0  0
    1.5000    0.0000    0.0000 C   0  0  0  0  0  0  0  0  0  0  0  0
    0.7500    1.2990    0.0000 C   0  0  0  0  0  0  0  0  0  0  0  0
   -0.7500    1.2990    0.0000 C   0  0  0  0  0  0  0  0  0  0  0  0
   -1.5000    0.0000    0.0000 N   0  0  0  0  0  0  0  0  0  0  0  0
   -0.7500   -1.2990    0.0000 C   0  0  0  0  0  0  0  0  0  0  0  0
   -3.7548   -2.1855    0.0000 N   0  0  0  0  0  0  0  0  0  0  0  0
   -5.1814   -2.6490    0.0000 C   0  0  0  0  0  0  0  0  0  0  0  0
   -5.4933   -4.1162    0.0000 N   0  0  0  0  0  0  0  0  0  0  0  0
   -7.2317   -6.0469    0.0000 C   0  0  0  0  0  0  0  0  0  0  0  0
   -6.9199   -4.5797    0.0000 C   0  0  0  0  0  0  0  0  0  0  0  0
   -8.0346   -3.5760    0.0000 C   0  0  0  0  0  0  0  0  0  0  0  0
   -9.4612   -4.0396    0.0000 C   0  0  0  0  0  0  0  0  0  0  0  0
  -10.5759   -3.0359    0.0000 F   0  0  0  0  0  0  0  0  0  0  0  0
   -9.7730   -5.5068    0.0000 C   0  0  0  0  0  0  0  0  0  0  0  0
   -8.6583   -6.5105    0.0000 C   0  0  0  0  0  0  0  0  0  0  0  0
  2  1  1  6
  2  3  1  0
  3  4  1  0
  4  5  2  0
  5  6  1  0
  6  7  1  0
  7  8  1  0
  8  9  1  0
  8 10  2  0
 10 11  1  0
 11 12  1  0
 12 13  2  0
 13 14  1  0
 14 15  2  0
 15 16  1  0
  6 17  2  0
 17 18  1  0
 18 19  2  0
  2 20  1  0
 20 21  2  0
 21 22  1  0
 22 23  2  0
 23 24  1  0
 23 25  1  0
 25 26  2  0
 19  4  1  0
 26 20  1  0
 16  7  2  0
 16 11  1  0
M  END
>  <Compound_ID>  (2) 
CHEMBL583895

>  <Active>  (2) 
1

>  <Smiles>  (2) 
C[C@@H](Nc1cc(-c2c(N)nn3cccnc23)ncn1)c1ccc(F)cc1

>  <canonical_smi>  (2) 
C[C@@H](Nc1cc(-c2c(N)nn3cccnc23)ncn1)c1ccc(F)cc1

>  <Set>  (2) 
G1 active

>  <Set_type>  (2) 
G1

>  <MW>  (2) 
349.37

>  <HBD>  (2) 
2

>  <HBA>  (2) 
6

>  <NRB>  (2) 
4

>  <NR>  (2) 
4

>  <NAR>  (2) 
4

>  <PSA>  (2) 
94.02

>  <Standard Type>  (2) 
nan

>  <Standard Relation>  (2) 
nan

>  <Standard Units>  (2) 
nan

>  <Standard Value>  (2) 
nan

>  <Assay ChEMBL ID>  (2) 
nan

>  <Assay Description>  (2) 
nan

>  <BAO Label>  (2) 
nan

$$$$

     RDKit          2D

 25 29  0  0  0  0  0  0  0  0999 V2000
    6.0424   -7.6751    0.0000 O   0  0  0  0  0  0  0  0  0  0  0  0
    4.8697   -6.7399    0.0000 C   0  0  0  0  0  0  0  0  0  0  0  0
    3.4734   -7.2879    0.0000 C   0  0  0  0  0  0  0  0  0  0  0  0
    2.3006   -6.3527    0.0000 C   0  0  0  0  0  0  0  0  0  0  0  0
    2.5242   -4.8694    0.0000 C   0  0  0  0  0  0  0  0  0  0  0  0
    1.3515   -3.9342    0.0000 C   0  0  0  0  0  0  0  0  0  0  0  0
    1.6852   -2.4718    0.0000 N   0  0  0  0  0  0  0  0  0  0  0  0
    0.7500   -1.2990    0.0000 C   0  0  0  0  0  0  0  0  0  0  0  0
    1.5000    0.0000    0.0000 C   0  0  0  0  0  0  0  0  0  0  0  0
    0.7500    1.2990    0.0000 C   0  0  0  0  0  0  0  0  0  0  0  0
   -0.7500    1.2990    0.0000 C   0  0  0  0  0  0  0  0  0  0  0  0
   -1.5000    0.0000    0.0000 C   0  0  0  0  0  0  0  0  0  0  0  0
   -0.7500   -1.2990    0.0000 C   0  0  0  0  0  0  0  0  0  0  0  0
   -1.6852   -2.4718    0.0000 C   0  0  0  0  0  0  0  0  0  0  0  0
   -3.1186   -2.0297    0.0000 C   0  0  0  0  0  0  0  0  0  0  0  0
   -4.2182   -3.0499    0.0000 C   0  0  0  0  0  0  0  0  0  0  0  0
   -3.8844   -4.5123    0.0000 N   0  0  0  0  0  0  0  0  0  0  0  0
   -2.4510   -4.9544    0.0000 C   0  0  0  0  0  0  0  0  0  0  0  0
   -1.7801   -6.2960    0.0000 N   0  0  0  0  0  0  0  0  0  0  0  0
   -0.2968   -6.0724    0.0000 C   0  0  0  0  0  0  0  0  0  0  0  0
    0.0000   -4.5850    0.0000 C   0  0  0  0  0  0  0  0  0  0  0  0
   -1.3515   -3.9342    0.0000 C   0  0  0  0  0  0  0  0  0  0  0  0
    3.9205   -4.3214    0.0000 C   0  0  0  0  0  0  0  0  0  0  0  0
    5.0933   -5.2566    0.0000 C   0  0  0  0  0  0  0  0  0  0  0  0
    6.4896   -4.7086    0.0000 F   0  0  0  0  0  0  0  0  0  0  0  0
  1  2  1  0
  2  3  2  0
  3  4  1  0
  4  5  2  0
  5  6  1  0
  6  7  1  0
  7  8  1  0
  8  9  2  0
  9 10  1  0
 10 11  2  0
 11 12  1  0
 12 13  2  0
 13 14  1  0
 14 15  1  0
 15 16  2  0
 16 17  1  0
 17 18  2  0
 18 19  1  0
 19 20  1  0
 20 21  2  0
 21 22  1  0
  5 23  1  0
 23 24  2  0
 24 25  1  0
 24  2  1  0
 21  6  1  0
 13  8  1  0
 22 14  2  0
 22 18  1  0
M  END
>  <Compound_ID>  (3) 
CHEMBL591096

>  <Active>  (3) 
1

>  <Smiles>  (3) 
Oc1ccc(C2Nc3ccccc3-c3ccnc4[nH]cc2c34)cc1F

>  <canonical_smi>  (3) 
Oc1ccc(C2Nc3ccccc3-c3ccnc4[nH]cc2c34)cc1F

>  <Set>  (3) 
G1 active

>  <Set_type>  (3) 
G1

>  <MW>  (3) 
331.35

>  <HBD>  (3) 
3

>  <HBA>  (3) 
3

>  <NRB>  (3) 
1

>  <NR>  (3) 
5

>  <NAR>  (3) 
4

>  <PSA>  (3) 
60.94

>  <Standard Type>  (3) 
nan

>  <Standard Relation>  (3) 
nan

>  <Standard Units>  (3) 
nan

>  <Standard Value>  (3) 
nan

>  <Assay ChEMBL ID>  (3) 
nan

>  <Assay Description>  (3) 
nan

>  <BAO Label>  (3) 
nan

$$$$

     RDKit          2D

 25 29  0  0  0  0  0  0  0  0999 V2000
    6.0424   -7.6751    0.0000 O   0  0  0  0  0  0  0  0  0  0  0  0
    4.8697   -6.7399    0.0000 C   0  0  0  0  0  0  0  0  0  0  0  0
    3.4734   -7.2879    0.0000 C   0  0  0  0  0  0  0  0  0  0  0  0
    2.3006   -6.3527    0.0000 C   0  0  0  0  0  0  0  0  0  0  0  0
    2.5242   -4.8694    0.0000 C   0  0  0  0  0  0  0  0  0  0  0  0
    1.3515   -3.9342    0.0000 C   0  0  0  0  0  0  0  0  0  0  0  0
    1.6852   -2.4718    0.0000 N   0  0  0  0  0  0  0  0  0  0  0  0
    0.7500   -1.2990    0.0000 C   0  0  0  0  0  0  0  0  0  0  0  0
    1.5000    0.0000    0.0000 C   0  0  0  0  0  0  0  0  0  0  0  0
    0.7500    1.2990    0.0000 C   0  0  0  0  0  0  0  0  0  0  0  0
   -0.7500    1.2990    0.0000 C   0  0  0  0  0  0  0  0  0  0  0  0
   -1.5000    0.0000    0.0000 C   0  0  0  0  0  0  0  0  0  0  0  0
   -0.7500   -1.2990    0.0000 C   0  0  0  0  0  0  0  0  0  0  0  0
   -1.6852   -2.4718    0.0000 C   0  0  0  0  0  0  0  0  0  0  0  0
   -3.1186   -2.0297    0.0000 N   0  0  0  0  0  0  0  0  0  0  0  0
   -4.2182   -3.0499    0.0000 C   0  0  0  0  0  0  0  0  0  0  0  0
   -3.8844   -4.5123    0.0000 N   0  0  0  0  0  0  0  0  0  0  0  0
   -2.4510   -4.9544    0.0000 C   0  0  0  0  0  0  0  0  0  0  0  0
   -1.7801   -6.2960    0.0000 N   0  0  0  0  0  0  0  0  0  0  0  0
   -0.2968   -6.0724    0.0000 C   0  0  0  0  0  0  0  0  0  0  0  0
    0.0000   -4.5850    0.0000 C   0  0  0  0  0  0  0  0  0  0  0  0
   -1.3515   -3.9342    0.0000 C   0  0  0  0  0  0  0  0  0  0  0  0
    3.9205   -4.3214    0.0000 C   0  0  0  0  0  0  0  0  0  0  0  0
    4.1441   -2.8382    0.0000 Cl  0  0  0  0  0  0  0  0  0  0  0  0
    5.0933   -5.2566    0.0000 C   0  0  0  0  0  0  0  0  0  0  0  0
  1  2  1  0
  2  3  2  0
  3  4  1  0
  4  5  2  0
  5  6  1  0
  6  7  2  0
  7  8  1  0
  8  9  2  0
  9 10  1  0
 10 11  2  0
 11 12  1  0
 12 13  2  0
 13 14  1  0
 14 15  1  0
 15 16  2  0
 16 17  1  0
 17 18  2  0
 18 19  1  0
 19 20  1  0
 20 21  2  0
 21 22  1  0
  5 23  1  0
 23 24  1  0
 23 25  2  0
 25  2  1  0
 21  6  1  0
 13  8  1  0
 22 14  2  0
 22 18  1  0
M  END
>  <Compound_ID>  (4) 
CHEMBL603048

>  <Active>  (4) 
1

>  <Smiles>  (4) 
Oc1ccc(C2=Nc3ccccc3-c3ncnc4[nH]cc2c34)c(Cl)c1

>  <canonical_smi>  (4) 
Oc1ccc(C2=Nc3ccccc3-c3ncnc4[nH]cc2c34)c(Cl)c1

>  <Set>  (4) 
G1 active

>  <Set_type>  (4) 
G1

>  <MW>  (4) 
346.78

>  <HBD>  (4) 
2

>  <HBA>  (4) 
3

>  <NRB>  (4) 
1

>  <NR>  (4) 
5

>  <NAR>  (4) 
5

>  <PSA>  (4) 
74.16

>  <Standard Type>  (4) 
nan

>  <Standard Relation>  (4) 
nan

>  <Standard Units>  (4) 
nan

>  <Standard Value>  (4) 
nan

>  <Assay ChEMBL ID>  (4) 
nan

>  <Assay Description>  (4) 
nan

>  <BAO Label>  (4) 
nan

$$$$

     RDKit          2D

 23 26  0  0  0  0  0  0  0  0999 V2000
    3.6731   -6.4508    0.0000 C   0  0  0  0  0  0  0  0  0  0  0  0
    4.4231   -5.1517    0.0000 C   0  0  0  0  0  0  0  0  0  0  0  0
    5.1731   -3.8527    0.0000 C   0  0  0  0  0  0  0  0  0  0  0  0
    5.7221   -5.9017    0.0000 C   0  0  0  0  0  0  0  0  0  0  0  0
    3.1240   -4.4017    0.0000 C   0  0  0  0  0  0  0  0  0  0  0  0
    2.9672   -2.9099    0.0000 N   0  0  0  0  0  0  0  0  0  0  0  0
    1.5000   -2.5981    0.0000 C   0  0  0  0  0  0  0  0  0  0  0  0
    0.7500   -1.2990    0.0000 C   0  0  0  0  0  0  0  0  0  0  0  0
    1.5000    0.0000    0.0000 C   0  0  0  0  0  0  0  0  0  0  0  0
    0.7500    1.2990    0.0000 C   0  0  0  0  0  0  0  0  0  0  0  0
   -0.7500    1.2990    0.0000 C   0  0  0  0  0  0  0  0  0  0  0  0
   -1.5000    2.5981    0.0000 F   0  0  0  0  0  0  0  0  0  0  0  0
   -1.5000    0.0000    0.0000 C   0  0  0  0  0  0  0  0  0  0  0  0
   -0.7500   -1.2990    0.0000 C   0  0  0  0  0  0  0  0  0  0  0  0
   -1.5000   -2.5981    0.0000 C   0  0  0  0  0  0  0  0  0  0  0  0
   -3.0000   -2.5981    0.0000 C   0  0  0  0  0  0  0  0  0  0  0  0
   -3.7500   -1.2990    0.0000 O   0  0  0  0  0  0  0  0  0  0  0  0
   -3.7500   -3.8971    0.0000 N   0  0  0  0  0  0  0  0  0  0  0  0
   -3.0000   -5.1962    0.0000 C   0  0  0  0  0  0  0  0  0  0  0  0
   -1.5000   -5.1962    0.0000 C   0  0  0  0  0  0  0  0  0  0  0  0
   -0.7500   -3.8971    0.0000 C   0  0  0  0  0  0  0  0  0  0  0  0
    0.7500   -3.8971    0.0000 C   0  0  0  0  0  0  0  0  0  0  0  0
    1.7537   -5.0118    0.0000 N   0  0  0  0  0  0  0  0  0  0  0  0
  1  2  1  0
  2  3  1  0
  2  4  1  0
  2  5  1  0
  5  6  2  0
  6  7  1  0
  7  8  2  0
  8  9  1  0
  9 10  2  0
 10 11  1  0
 11 12  1  0
 11 13  2  0
 13 14  1  0
 14 15  2  0
 15 16  1  0
 16 17  2  0
 16 18  1  0
 18 19  1  0
 19 20  2  0
 20 21  1  0
 21 22  2  0
 22 23  1  0
 23  5  1  0
 22  7  1  0
 14  8  1  0
 21 15  1  0
M  END
>  <Compound_ID>  (5) 
CHEMBL21156

>  <Active>  (5) 
1

>  <Smiles>  (5) 
CC(C)(C)c1nc2c3ccc(F)cc3c3c(=O)[nH]ccc3c2[nH]1

>  <canonical_smi>  (5) 
CC(C)(C)c1nc2c3ccc(F)cc3c3c(=O)[nH]ccc3c2[nH]1

>  <Set>  (5) 
G1 active

>  <Set_type>  (5) 
G1

>  <MW>  (5) 
309.34

>  <HBD>  (5) 
2

>  <HBA>  (5) 
2

>  <NRB>  (5) 
0

>  <NR>  (5) 
4

>  <NAR>  (5) 
4

>  <PSA>  (5) 
61.54

>  <Standard Type>  (5) 
nan

>  <Standard Relation>  (5) 
nan

>  <Standard Units>  (5) 
nan

>  <Standard Value>  (5) 
nan

>  <Assay ChEMBL ID>  (5) 
nan

>  <Assay Description>  (5) 
nan

>  <BAO Label>  (5) 
nan

$$$$

     RDKit          2D

 28 32  0  0  0  0  0  0  0  0999 V2000
    3.4430   -7.9964    0.0000 O   0  0  0  0  0  0  0  0  0  0  0  0
    3.7548   -6.5291    0.0000 C   0  0  0  0  0  0  0  0  0  0  0  0
    2.6401   -5.5255    0.0000 N   0  0  0  0  0  0  0  0  0  0  0  0
    1.2135   -5.9890    0.0000 C   0  0  0  0  0  0  0  0  0  0  0  0
    0.7500   -7.4156    0.0000 C   0  0  0  0  0  0  0  0  0  0  0  0
   -0.7500   -7.4156    0.0000 N   0  0  0  0  0  0  0  0  0  0  0  0
   -1.2135   -5.9890    0.0000 N   0  0  0  0  0  0  0  0  0  0  0  0
   -0.0000   -5.1073    0.0000 C   0  0  0  0  0  0  0  0  0  0  0  0
   -0.0000   -3.6073    0.0000 C   0  0  0  0  0  0  0  0  0  0  0  0
    1.2135   -2.7256    0.0000 N   0  0  0  0  0  0  0  0  0  0  0  0
    0.7500   -1.2990    0.0000 C   0  0  0  0  0  0  0  0  0  0  0  0
    1.5000    0.0000    0.0000 C   0  0  0  0  0  0  0  0  0  0  0  0
    0.7500    1.2990    0.0000 C   0  0  0  0  0  0  0  0  0  0  0  0
    1.5000    2.5981    0.0000 C   0  0  0  0  0  0  0  0  0  0  0  0
    3.0000    2.5981    0.0000 N   0  0  0  0  0  0  0  0  0  0  0  0
    3.7500    1.2990    0.0000 C   0  0  0  0  0  0  0  0  0  0  0  0
    5.2500    1.2990    0.0000 C   0  0  0  0  0  0  0  0  0  0  0  0
    6.0000    2.5981    0.0000 O   0  0  0  0  0  0  0  0  0  0  0  0
    5.2500    3.8971    0.0000 C   0  0  0  0  0  0  0  0  0  0  0  0
    3.7500    3.8971    0.0000 C   0  0  0  0  0  0  0  0  0  0  0  0
   -0.7500    1.2990    0.0000 C   0  0  0  0  0  0  0  0  0  0  0  0
   -1.5000    0.0000    0.0000 C   0  0  0  0  0  0  0  0  0  0  0  0
   -0.7500   -1.2990    0.0000 C   0  0  0  0  0  0  0  0  0  0  0  0
   -1.2135   -2.7256    0.0000 N   0  0  0  0  0  0  0  0  0  0  0  0
    5.1814   -6.0656    0.0000 N   0  0  0  0  0  0  0  0  0  0  0  0
    6.2961   -7.0693    0.0000 C   0  0  0  0  0  0  0  0  0  0  0  0
    7.7634   -7.3812    0.0000 C   0  0  0  0  0  0  0  0  0  0  0  0
    6.7597   -8.4959    0.0000 C   0  0  0  0  0  0  0  0  0  0  0  0
  1  2  2  0
  2  3  1  0
  3  4  1  0
  4  5  2  0
  5  6  1  0
  6  7  1  0
  7  8  2  0
  8  9  1  0
  9 10  2  0
 10 11  1  0
 11 12  2  0
 12 13  1  0
 13 14  1  0
 14 15  1  0
 15 16  1  0
 16 17  1  0
 17 18  1  0
 18 19  1  0
 19 20  1  0
 13 21  2  0
 21 22  1  0
 22 23  2  0
 23 24  1  0
  2 25  1  0
 25 26  1  0
 26 27  1  0
 27 28  1  0
  8  4  1  0
 24  9  1  0
 28 26  1  0
 23 11  1  0
 20 15  1  0
M  END
>  <Compound_ID>  (6) 
CHEMBL495727

>  <Active>  (6) 
1

>  <Smiles>  (6) 
O=C(Nc1c[nH]nc1-c1nc2cc(CN3CCOCC3)ccc2[nH]1)NC1CC1

>  <canonical_smi>  (6) 
O=C(Nc1c[nH]nc1-c1nc2cc(CN3CCOCC3)ccc2[nH]1)NC1CC1

>  <Set>  (6) 
G1 active

>  <Set_type>  (6) 
G1

>  <MW>  (6) 
381.44

>  <HBD>  (6) 
4

>  <HBA>  (6) 
5

>  <NRB>  (6) 
5

>  <NR>  (6) 
5

>  <NAR>  (6) 
3

>  <PSA>  (6) 
110.96

>  <Standard Type>  (6) 
nan

>  <Standard Relation>  (6) 
nan

>  <Standard Units>  (6) 
nan

>  <Standard Value>  (6) 
nan

>  <Assay ChEMBL ID>  (6) 
nan

>  <Assay Description>  (6) 
nan

>  <BAO Label>  (6) 
nan

$$$$

     RDKit          2D

 25 29  0  0  0  0  0  0  0  0999 V2000
    6.0424   -7.6751    0.0000 O   0  0  0  0  0  0  0  0  0  0  0  0
    4.8697   -6.7399    0.0000 C   0  0  0  0  0  0  0  0  0  0  0  0
    3.4734   -7.2879    0.0000 C   0  0  0  0  0  0  0  0  0  0  0  0
    2.3006   -6.3527    0.0000 C   0  0  0  0  0  0  0  0  0  0  0  0
    2.5242   -4.8694    0.0000 C   0  0  0  0  0  0  0  0  0  0  0  0
    1.3515   -3.9342    0.0000 C   0  0  0  0  0  0  0  0  0  0  0  0
    1.6852   -2.4718    0.0000 N   0  0  0  0  0  0  0  0  0  0  0  0
    0.7500   -1.2990    0.0000 C   0  0  0  0  0  0  0  0  0  0  0  0
    1.5000    0.0000    0.0000 C   0  0  0  0  0  0  0  0  0  0  0  0
    0.7500    1.2990    0.0000 C   0  0  0  0  0  0  0  0  0  0  0  0
   -0.7500    1.2990    0.0000 C   0  0  0  0  0  0  0  0  0  0  0  0
   -1.5000    0.0000    0.0000 C   0  0  0  0  0  0  0  0  0  0  0  0
   -0.7500   -1.2990    0.0000 C   0  0  0  0  0  0  0  0  0  0  0  0
   -1.6852   -2.4718    0.0000 C   0  0  0  0  0  0  0  0  0  0  0  0
   -3.1186   -2.0297    0.0000 N   0  0  0  0  0  0  0  0  0  0  0  0
   -4.2182   -3.0499    0.0000 C   0  0  0  0  0  0  0  0  0  0  0  0
   -3.8844   -4.5123    0.0000 N   0  0  0  0  0  0  0  0  0  0  0  0
   -2.4510   -4.9544    0.0000 C   0  0  0  0  0  0  0  0  0  0  0  0
   -1.7801   -6.2960    0.0000 N   0  0  0  0  0  0  0  0  0  0  0  0
   -0.2968   -6.0724    0.0000 C   0  0  0  0  0  0  0  0  0  0  0  0
    0.0000   -4.5850    0.0000 C   0  0  0  0  0  0  0  0  0  0  0  0
   -1.3515   -3.9342    0.0000 C   0  0  0  0  0  0  0  0  0  0  0  0
    3.9205   -4.3214    0.0000 C   0  0  0  0  0  0  0  0  0  0  0  0
    4.1441   -2.8382    0.0000 F   0  0  0  0  0  0  0  0  0  0  0  0
    5.0933   -5.2566    0.0000 C   0  0  0  0  0  0  0  0  0  0  0  0
  1  2  1  0
  2  3  2  0
  3  4  1  0
  4  5  2  0
  5  6  1  0
  6  7  1  0
  7  8  1  0
  8  9  2  0
  9 10  1  0
 10 11  2  0
 11 12  1  0
 12 13  2  0
 13 14  1  0
 14 15  1  0
 15 16  2  0
 16 17  1  0
 17 18  2  0
 18 19  1  0
 19 20  1  0
 20 21  2  0
 21 22  1  0
  5 23  1  0
 23 24  1  0
 23 25  2  0
 25  2  1  0
 21  6  1  0
 13  8  1  0
 22 14  2  0
 22 18  1  0
M  END
>  <Compound_ID>  (7) 
CHEMBL604038

>  <Active>  (7) 
1

>  <Smiles>  (7) 
Oc1ccc(C2Nc3ccccc3-c3ncnc4[nH]cc2c34)c(F)c1

>  <canonical_smi>  (7) 
Oc1ccc(C2Nc3ccccc3-c3ncnc4[nH]cc2c34)c(F)c1

>  <Set>  (7) 
G1 active

>  <Set_type>  (7) 
G1

>  <MW>  (7) 
332.34

>  <HBD>  (7) 
3

>  <HBA>  (7) 
4

>  <NRB>  (7) 
1

>  <NR>  (7) 
5

>  <NAR>  (7) 
4

>  <PSA>  (7) 
73.83

>  <Standard Type>  (7) 
nan

>  <Standard Relation>  (7) 
nan

>  <Standard Units>  (7) 
nan

>  <Standard Value>  (7) 
nan

>  <Assay ChEMBL ID>  (7) 
nan

>  <Assay Description>  (7) 
nan

>  <BAO Label>  (7) 
nan

$$$$

     RDKit          2D

 23 25  0  0  0  0  0  0  0  0999 V2000
   -1.3442   -0.7172    0.0000 C   0  0  0  0  0  0  0  0  0  0  0  0
   -2.7707   -1.1807    0.0000 C   0  0  0  0  0  0  0  0  0  0  0  0
   -3.0826   -2.6480    0.0000 C   0  0  0  0  0  0  0  0  0  0  0  0
   -4.5092   -3.1115    0.0000 C   0  0  0  0  0  0  0  0  0  0  0  0
   -5.6239   -2.1078    0.0000 N   0  0  0  0  0  0  0  0  0  0  0  0
   -7.0505   -2.5713    0.0000 C   0  0  0  0  0  0  0  0  0  0  0  0
   -7.3624   -4.0385    0.0000 O   0  0  0  0  0  0  0  0  0  0  0  0
   -8.1652   -1.5676    0.0000 C   0  0  0  0  0  0  0  0  0  0  0  0
   -9.5918   -2.0312    0.0000 C   0  0  0  0  0  0  0  0  0  0  0  0
  -11.0184   -2.4947    0.0000 N   0  0  0  0  0  0  0  0  0  0  0  0
   -5.3120   -0.6406    0.0000 C   0  0  0  0  0  0  0  0  0  0  0  0
   -3.8855   -0.1771    0.0000 C   0  0  0  0  0  0  0  0  0  0  0  0
   -3.5736    1.2902    0.0000 N   0  0  0  0  0  0  0  0  0  0  0  0
   -4.6883    2.2939    0.0000 C   0  0  0  0  0  0  0  0  0  0  0  0
   -2.1470    1.7537    0.0000 C   0  0  0  0  0  0  0  0  0  0  0  0
   -1.0323    0.7500    0.0000 N   0  0  0  0  0  0  0  0  0  0  0  0
    0.3943    1.2135    0.0000 C   0  0  0  0  0  0  0  0  0  0  0  0
    0.7062    2.6807    0.0000 N   0  0  0  0  0  0  0  0  0  0  0  0
   -0.4086    3.6844    0.0000 C   0  0  0  0  0  0  0  0  0  0  0  0
   -0.4086    5.1844    0.0000 N   0  0  0  0  0  0  0  0  0  0  0  0
   -1.8351    5.6480    0.0000 C   0  0  0  0  0  0  0  0  0  0  0  0
   -2.7168    4.4344    0.0000 C   0  0  0  0  0  0  0  0  0  0  0  0
   -1.8351    3.2209    0.0000 C   0  0  0  0  0  0  0  0  0  0  0  0
  2  1  1  6
  2  3  1  0
  3  4  1  0
  4  5  1  0
  5  6  1  0
  6  7  2  0
  6  8  1  0
  8  9  1  0
  9 10  3  0
  5 11  1  0
 11 12  1  0
 12 13  1  6
 13 14  1  0
 13 15  1  0
 15 16  2  0
 16 17  1  0
 17 18  2  0
 18 19  1  0
 19 20  1  0
 20 21  1  0
 21 22  2  0
 22 23  1  0
 12  2  1  0
 23 15  1  0
 23 19  2  0
M  END
>  <Compound_ID>  (8) 
CHEMBL221959

>  <Active>  (8) 
1

>  <Smiles>  (8) 
C[C@@H]1CCN(C(=O)CC#N)C[C@@H]1N(C)c1ncnc2[nH]ccc12

>  <canonical_smi>  (8) 
C[C@@H]1CCN(C(=O)CC#N)C[C@@H]1N(C)c1ncnc2[nH]ccc12

>  <Set>  (8) 
G1 active

>  <Set_type>  (8) 
G1

>  <MW>  (8) 
312.38

>  <HBD>  (8) 
1

>  <HBA>  (8) 
5

>  <NRB>  (8) 
3

>  <NR>  (8) 
3

>  <NAR>  (8) 
2

>  <PSA>  (8) 
88.91

>  <Standard Type>  (8) 
nan

>  <Standard Relation>  (8) 
nan

>  <Standard Units>  (8) 
nan

>  <Standard Value>  (8) 
nan

>  <Assay ChEMBL ID>  (8) 
nan

>  <Assay Description>  (8) 
nan

>  <BAO Label>  (8) 
nan

$$$$

     RDKit          2D

 25 27  0  0  0  0  0  0  0  0999 V2000
    6.5218   -4.2298    0.0000 C   0  0  0  0  0  0  0  0  0  0  0  0
    5.3083   -3.3481    0.0000 C   0  0  0  0  0  0  0  0  0  0  0  0
    3.8817   -3.8116    0.0000 C   0  0  0  0  0  0  0  0  0  0  0  0
    3.0000   -2.5981    0.0000 C   0  0  0  0  0  0  0  0  0  0  0  0
    1.5000   -2.5981    0.0000 N   0  0  0  0  0  0  0  0  0  0  0  0
    0.7500   -1.2990    0.0000 C   0  0  0  0  0  0  0  0  0  0  0  0
    1.5000    0.0000    0.0000 C   0  0  0  0  0  0  0  0  0  0  0  0
    0.7500    1.2990    0.0000 N   0  0  0  0  0  0  0  0  0  0  0  0
   -0.7500    1.2990    0.0000 C   0  0  0  0  0  0  0  0  0  0  0  0
   -1.5000    2.5981    0.0000 C   0  0  0  0  0  0  0  0  0  0  0  0
   -2.2500    3.8971    0.0000 N   0  0  0  0  0  0  0  0  0  0  0  0
   -1.5000    0.0000    0.0000 C   0  0  0  0  0  0  0  0  0  0  0  0
   -3.0000    0.0000    0.0000 N   0  0  0  0  0  0  0  0  0  0  0  0
   -3.7500   -1.2990    0.0000 C   0  0  0  0  0  0  0  0  0  0  0  0
   -5.2500   -1.2990    0.0000 C   0  0  0  0  0  0  0  0  0  0  0  0
   -3.0000   -2.5981    0.0000 C   0  0  0  0  0  0  0  0  0  0  0  0
   -3.7500   -3.8971    0.0000 C   0  0  0  0  0  0  0  0  0  0  0  0
   -3.0000   -5.1962    0.0000 C   0  0  0  0  0  0  0  0  0  0  0  0
   -1.5000   -5.1962    0.0000 C   0  0  0  0  0  0  0  0  0  0  0  0
   -0.7500   -6.4952    0.0000 F   0  0  0  0  0  0  0  0  0  0  0  0
   -0.7500   -3.8971    0.0000 C   0  0  0  0  0  0  0  0  0  0  0  0
   -1.5000   -2.5981    0.0000 N   0  0  0  0  0  0  0  0  0  0  0  0
   -0.7500   -1.2990    0.0000 N   0  0  0  0  0  0  0  0  0  0  0  0
    3.8817   -1.3846    0.0000 N   0  0  0  0  0  0  0  0  0  0  0  0
    5.3083   -1.8481    0.0000 N   0  0  0  0  0  0  0  0  0  0  0  0
  1  2  1  0
  2  3  2  0
  3  4  1  0
  4  5  1  0
  5  6  1  0
  6  7  2  0
  7  8  1  0
  8  9  2  0
  9 10  1  0
 10 11  3  0
  9 12  1  0
 12 13  1  0
 13 14  1  0
 14 15  1  0
 14 16  1  0
 16 17  2  0
 17 18  1  0
 18 19  2  0
 19 20  1  0
 19 21  1  0
 21 22  2  0
 12 23  2  0
  4 24  2  0
 24 25  1  0
 25  2  1  0
 23  6  1  0
 22 16  1  0
M  END
>  <Compound_ID>  (9) 
CHEMBL568788

>  <Active>  (9) 
1

>  <Smiles>  (9) 
Cc1cc(Nc2cnc(C#N)c(NC(C)c3ccc(F)cn3)n2)n[nH]1

>  <canonical_smi>  (9) 
Cc1cc(Nc2cnc(C#N)c(NC(C)c3ccc(F)cn3)n2)n[nH]1

>  <Set>  (9) 
G1 active

>  <Set_type>  (9) 
G1

>  <MW>  (9) 
338.35

>  <HBD>  (9) 
3

>  <HBA>  (9) 
7

>  <NRB>  (9) 
5

>  <NR>  (9) 
3

>  <NAR>  (9) 
3

>  <PSA>  (9) 
115.2

>  <Standard Type>  (9) 
nan

>  <Standard Relation>  (9) 
nan

>  <Standard Units>  (9) 
nan

>  <Standard Value>  (9) 
nan

>  <Assay ChEMBL ID>  (9) 
nan

>  <Assay Description>  (9) 
nan

>  <BAO Label>  (9) 
nan

$$$$

     RDKit          2D

 29 32  0  0  0  0  0  0  0  0999 V2000
   -2.4240   -6.1312    0.0000 C   0  0  0  0  0  0  0  0  0  0  0  0
   -1.0537   -5.5211    0.0000 C   0  0  0  0  0  0  0  0  0  0  0  0
    0.2454   -6.2711    0.0000 C   0  0  0  0  0  0  0  0  0  0  0  0
    1.3601   -5.2674    0.0000 N   0  0  0  0  0  0  0  0  0  0  0  0
    0.7500   -3.8971    0.0000 C   0  0  0  0  0  0  0  0  0  0  0  0
    1.5000   -2.5981    0.0000 N   0  0  0  0  0  0  0  0  0  0  0  0
    0.7500   -1.2990    0.0000 C   0  0  0  0  0  0  0  0  0  0  0  0
    1.5000    0.0000    0.0000 C   0  0  0  0  0  0  0  0  0  0  0  0
    0.7500    1.2990    0.0000 C   0  0  0  0  0  0  0  0  0  0  0  0
    1.5000    2.5981    0.0000 N   0  0  0  0  0  0  0  0  0  0  0  0
    3.0000    2.5981    0.0000 C   0  0  0  0  0  0  0  0  0  0  0  0
    3.7500    3.8971    0.0000 C   0  0  0  0  0  0  0  0  0  0  0  0
    3.0000    5.1962    0.0000 O   0  0  0  0  0  0  0  0  0  0  0  0
    1.5000    5.1962    0.0000 C   0  0  0  0  0  0  0  0  0  0  0  0
    0.7500    3.8971    0.0000 C   0  0  0  0  0  0  0  0  0  0  0  0
   -0.7500    1.2990    0.0000 N   0  0  0  0  0  0  0  0  0  0  0  0
   -1.5000    0.0000    0.0000 C   0  0  0  0  0  0  0  0  0  0  0  0
   -3.0000    0.0000    0.0000 N   0  0  0  0  0  0  0  0  0  0  0  0
   -3.7500    1.2990    0.0000 C   0  0  0  0  0  0  0  0  0  0  0  0
   -5.2500    1.2990    0.0000 C   0  0  0  0  0  0  0  0  0  0  0  0
   -3.0000    2.5981    0.0000 C   0  0  0  0  0  0  0  0  0  0  0  0
   -1.5000    2.5981    0.0000 N   0  0  0  0  0  0  0  0  0  0  0  0
   -0.7500    3.8971    0.0000 C   0  0  0  0  0  0  0  0  0  0  0  0
   -1.5000    5.1962    0.0000 C   0  0  0  0  0  0  0  0  0  0  0  0
   -0.7500    6.4952    0.0000 F   0  0  0  0  0  0  0  0  0  0  0  0
   -3.0000    5.1962    0.0000 C   0  0  0  0  0  0  0  0  0  0  0  0
   -3.7500    3.8971    0.0000 N   0  0  0  0  0  0  0  0  0  0  0  0
   -0.7500   -1.2990    0.0000 N   0  0  0  0  0  0  0  0  0  0  0  0
   -0.7418   -4.0539    0.0000 S   0  0  0  0  0  0  0  0  0  0  0  0
  1  2  1  0
  2  3  2  0
  3  4  1  0
  4  5  2  0
  5  6  1  0
  6  7  1  0
  7  8  2  0
  8  9  1  0
  9 10  1  0
 10 11  1  0
 11 12  1  0
 12 13  1  0
 13 14  1  0
 14 15  1  0
  9 16  2  0
 16 17  1  0
 17 18  1  0
 18 19  1  0
 19 20  1  1
 19 21  1  0
 21 22  2  0
 22 23  1  0
 23 24  2  0
 24 25  1  0
 24 26  1  0
 26 27  2  0
 17 28  2  0
  5 29  1  0
 29  2  1  0
 28  7  1  0
 15 10  1  0
 27 21  1  0
M  END
>  <Compound_ID>  (10) 
CHEMBL1088030

>  <Active>  (10) 
1

>  <Smiles>  (10) 
Cc1cnc(Nc2cc(N3CCOCC3)nc(N[C@@H](C)c3ncc(F)cn3)n2)s1

>  <canonical_smi>  (10) 
Cc1cnc(Nc2cc(N3CCOCC3)nc(N[C@@H](C)c3ncc(F)cn3)n2)s1

>  <Set>  (10) 
G1 active

>  <Set_type>  (10) 
G1

>  <MW>  (10) 
416.49

>  <HBD>  (10) 
2

>  <HBA>  (10) 
9

>  <NRB>  (10) 
6

>  <NR>  (10) 
4

>  <NAR>  (10) 
3

>  <PSA>  (10) 
100.98

>  <Standard Type>  (10) 
nan

>  <Standard Relation>  (10) 
nan

>  <Standard Units>  (10) 
nan

>  <Standard Value>  (10) 
nan

>  <Assay ChEMBL ID>  (10) 
nan

>  <Assay Description>  (10) 
nan

>  <BAO Label>  (10) 
nan

$$$$

     RDKit          2D

 40 45  0  0  0  0  0  0  0  0999 V2000
    0.7500   -6.4952    0.0000 C   0  0  0  0  0  0  0  0  0  0  0  0
    1.5000   -5.1962    0.0000 C   0  0  0  0  0  0  0  0  0  0  0  0
    0.7500   -3.8971    0.0000 C   0  0  0  0  0  0  0  0  0  0  0  0
    1.5000   -2.5981    0.0000 C   0  0  0  0  0  0  0  0  0  0  0  0
    0.7500   -1.2990    0.0000 C   0  0  0  0  0  0  0  0  0  0  0  0
    1.5000    0.0000    0.0000 C   0  0  0  0  0  0  0  0  0  0  0  0
    0.7500    1.2990    0.0000 N   0  0  0  0  0  0  0  0  0  0  0  0
   -0.7500    1.2990    0.0000 C   0  0  0  0  0  0  0  0  0  0  0  0
   -1.5000    2.5981    0.0000 C   0  0  0  0  0  0  0  0  0  0  0  0
   -3.0000    2.5981    0.0000 C   0  0  0  0  0  0  0  0  0  0  0  0
   -3.7500    1.2990    0.0000 C   0  0  0  0  0  0  0  0  0  0  0  0
   -3.0000    0.0000    0.0000 C   0  0  0  0  0  0  0  0  0  0  0  0
   -3.7500   -1.2990    0.0000 C   0  0  0  0  0  0  0  0  0  0  0  0
   -5.2500   -1.2990    0.0000 C   0  0  0  0  0  0  0  0  0  0  0  0
   -6.0000   -2.5981    0.0000 C   0  0  0  0  0  0  0  0  0  0  0  0
   -7.5000   -2.5981    0.0000 F   0  0  0  0  0  0  0  0  0  0  0  0
   -5.2500   -3.8971    0.0000 C   0  0  0  0  0  0  0  0  0  0  0  0
   -6.0000   -5.1962    0.0000 C   0  0  0  0  0  0  0  0  0  0  0  0
   -5.2500   -6.4952    0.0000 N   0  0  0  0  0  0  0  0  0  0  0  0
   -6.0000   -7.7942    0.0000 C   0  0  0  0  0  0  0  0  0  0  0  0
   -5.2500   -9.0933    0.0000 C   0  0  0  0  0  0  0  0  0  0  0  0
   -3.7500   -9.0933    0.0000 O   0  0  0  0  0  0  0  0  0  0  0  0
   -3.0000   -7.7942    0.0000 C   0  0  0  0  0  0  0  0  0  0  0  0
   -3.7500   -6.4952    0.0000 C   0  0  0  0  0  0  0  0  0  0  0  0
   -3.7500   -3.8971    0.0000 C   0  0  0  0  0  0  0  0  0  0  0  0
   -3.0000   -5.1962    0.0000 F   0  0  0  0  0  0  0  0  0  0  0  0
   -3.0000   -2.5981    0.0000 C   0  0  0  0  0  0  0  0  0  0  0  0
   -1.5000    0.0000    0.0000 C   0  0  0  0  0  0  0  0  0  0  0  0
   -0.7500   -1.2990    0.0000 N   0  0  0  0  0  0  0  0  0  0  0  0
    3.0000   -2.5981    0.0000 C   0  0  0  0  0  0  0  0  0  0  0  0
    3.7500   -3.8971    0.0000 C   0  0  0  0  0  0  0  0  0  0  0  0
    3.0000   -5.1962    0.0000 C   0  0  0  0  0  0  0  0  0  0  0  0
    3.7500   -6.4952    0.0000 C   0  0  0  0  0  0  0  0  0  0  0  0
    3.0000   -7.7942    0.0000 O   0  0  0  0  0  0  0  0  0  0  0  0
    5.2500   -6.4952    0.0000 N   0  0  0  0  0  0  0  0  0  0  0  0
    6.0000   -7.7942    0.0000 C   0  0  0  0  0  0  0  0  0  0  0  0
    7.5000   -7.7942    0.0000 C   0  0  0  0  0  0  0  0  0  0  0  0
    8.2500   -6.4952    0.0000 O   0  0  0  0  0  0  0  0  0  0  0  0
    7.5000   -5.1962    0.0000 C   0  0  0  0  0  0  0  0  0  0  0  0
    6.0000   -5.1962    0.0000 C   0  0  0  0  0  0  0  0  0  0  0  0
  1  2  1  0
  2  3  2  0
  3  4  1  0
  4  5  1  0
  5  6  2  0
  6  7  1  0
  7  8  2  0
  8  9  1  0
  9 10  2  0
 10 11  1  0
 11 12  2  0
 12 13  1  0
 13 14  2  0
 14 15  1  0
 15 16  1  0
 15 17  2  0
 17 18  1  0
 18 19  1  0
 19 20  1  0
 20 21  1  0
 21 22  1  0
 22 23  1  0
 23 24  1  0
 17 25  1  0
 25 26  1  0
 25 27  2  0
 12 28  1  0
 28 29  2  0
  4 30  2  0
 30 31  1  0
 31 32  2  0
 32 33  1  0
 33 34  2  0
 33 35  1  0
 35 36  1  0
 36 37  1  0
 37 38  1  0
 38 39  1  0
 39 40  1  0
 32  2  1  0
 40 35  1  0
 29  5  1  0
 28  8  1  0
 27 13  1  0
 24 19  1  0
M  END
>  <Compound_ID>  (11) 
CHEMBL1093119

>  <Active>  (11) 
1

>  <Smiles>  (11) 
Cc1cc(-c2cnc3cccc(-c4cc(F)c(CN5CCOCC5)c(F)c4)c3n2)ccc1C(=O)N1CCOCC1

>  <canonical_smi>  (11) 
Cc1cc(-c2cnc3cccc(-c4cc(F)c(CN5CCOCC5)c(F)c4)c3n2)ccc1C(=O)N1CCOCC1

>  <Set>  (11) 
G1 active

>  <Set_type>  (11) 
G1

>  <MW>  (11) 
544.6

>  <HBD>  (11) 
0

>  <HBA>  (11) 
6

>  <NRB>  (11) 
5

>  <NR>  (11) 
6

>  <NAR>  (11) 
4

>  <PSA>  (11) 
67.79

>  <Standard Type>  (11) 
nan

>  <Standard Relation>  (11) 
nan

>  <Standard Units>  (11) 
nan

>  <Standard Value>  (11) 
nan

>  <Assay ChEMBL ID>  (11) 
nan

>  <Assay Description>  (11) 
nan

>  <BAO Label>  (11) 
nan

$$$$

     RDKit          2D

 23 25  0  0  0  0  0  0  0  0999 V2000
   -2.4240   -6.1312    0.0000 C   0  0  0  0  0  0  0  0  0  0  0  0
   -1.0537   -5.5211    0.0000 C   0  0  0  0  0  0  0  0  0  0  0  0
    0.2454   -6.2711    0.0000 C   0  0  0  0  0  0  0  0  0  0  0  0
    1.3601   -5.2674    0.0000 N   0  0  0  0  0  0  0  0  0  0  0  0
    0.7500   -3.8971    0.0000 C   0  0  0  0  0  0  0  0  0  0  0  0
    1.5000   -2.5981    0.0000 N   0  0  0  0  0  0  0  0  0  0  0  0
    0.7500   -1.2990    0.0000 C   0  0  0  0  0  0  0  0  0  0  0  0
    1.5000    0.0000    0.0000 C   0  0  0  0  0  0  0  0  0  0  0  0
    0.7500    1.2990    0.0000 N   0  0  0  0  0  0  0  0  0  0  0  0
   -0.7500    1.2990    0.0000 C   0  0  0  0  0  0  0  0  0  0  0  0
   -1.5000    0.0000    0.0000 C   0  0  0  0  0  0  0  0  0  0  0  0
   -3.0000    0.0000    0.0000 N   0  0  0  0  0  0  0  0  0  0  0  0
   -3.7500    1.2990    0.0000 C   0  0  0  0  0  0  0  0  0  0  0  0
   -5.2500    1.2990    0.0000 C   0  0  0  0  0  0  0  0  0  0  0  0
   -3.0000    2.5981    0.0000 C   0  0  0  0  0  0  0  0  0  0  0  0
   -1.5000    2.5981    0.0000 N   0  0  0  0  0  0  0  0  0  0  0  0
   -0.7500    3.8971    0.0000 C   0  0  0  0  0  0  0  0  0  0  0  0
   -1.5000    5.1962    0.0000 C   0  0  0  0  0  0  0  0  0  0  0  0
   -0.7500    6.4952    0.0000 F   0  0  0  0  0  0  0  0  0  0  0  0
   -3.0000    5.1962    0.0000 C   0  0  0  0  0  0  0  0  0  0  0  0
   -3.7500    3.8971    0.0000 N   0  0  0  0  0  0  0  0  0  0  0  0
   -0.7500   -1.2990    0.0000 N   0  0  0  0  0  0  0  0  0  0  0  0
   -0.7418   -4.0539    0.0000 S   0  0  0  0  0  0  0  0  0  0  0  0
  1  2  1  0
  2  3  2  0
  3  4  1  0
  4  5  2  0
  5  6  1  0
  6  7  1  0
  7  8  2  0
  8  9  1  0
  9 10  2  0
 10 11  1  0
 11 12  1  0
 12 13  1  0
 13 14  1  1
 13 15  1  0
 15 16  2  0
 16 17  1  0
 17 18  2  0
 18 19  1  0
 18 20  1  0
 20 21  2  0
 11 22  2  0
  5 23  1  0
 23  2  1  0
 22  7  1  0
 21 15  1  0
M  END
>  <Compound_ID>  (12) 
CHEMBL1087898

>  <Active>  (12) 
1

>  <Smiles>  (12) 
Cc1cnc(Nc2cncc(N[C@@H](C)c3ncc(F)cn3)n2)s1

>  <canonical_smi>  (12) 
Cc1cnc(Nc2cncc(N[C@@H](C)c3ncc(F)cn3)n2)s1

>  <Set>  (12) 
G1 active

>  <Set_type>  (12) 
G1

>  <MW>  (12) 
331.38

>  <HBD>  (12) 
2

>  <HBA>  (12) 
7

>  <NRB>  (12) 
5

>  <NR>  (12) 
3

>  <NAR>  (12) 
3

>  <PSA>  (12) 
88.51

>  <Standard Type>  (12) 
nan

>  <Standard Relation>  (12) 
nan

>  <Standard Units>  (12) 
nan

>  <Standard Value>  (12) 
nan

>  <Assay ChEMBL ID>  (12) 
nan

>  <Assay Description>  (12) 
nan

>  <BAO Label>  (12) 
nan

$$$$

     RDKit          2D

 35 42  0  0  0  0  0  0  0  0999 V2000
    7.0384   -5.9220    0.0000 C   0  0  0  0  0  0  0  0  0  0  0  0
    6.3474   -4.5907    0.0000 N   0  0  0  0  0  0  0  0  0  0  0  0
    4.8489   -4.5234    0.0000 C   0  0  0  0  0  0  0  0  0  0  0  0
    4.0414   -5.7874    0.0000 C   0  0  0  0  0  0  0  0  0  0  0  0
    2.5382   -5.8249    0.0000 C   0  0  0  0  0  0  0  0  0  0  0  0
    3.2490   -4.5040    0.0000 O   0  0  0  0  0  0  0  0  0  0  0  0
    2.6595   -3.1247    0.0000 C   0  0  0  0  0  0  0  0  0  0  0  0
    3.6464   -1.9951    0.0000 C   0  0  0  0  0  0  0  0  0  0  0  0
    4.1580   -3.1920    0.0000 C   0  0  0  0  0  0  0  0  0  0  0  0
    4.9655   -1.9279    0.0000 O   0  0  0  0  0  0  0  0  0  0  0  0
    6.4640   -1.9952    0.0000 C   0  0  0  0  0  0  0  0  0  0  0  0
    1.2135   -2.7256    0.0000 N   0  0  0  0  0  0  0  0  0  0  0  0
    0.7500   -1.2990    0.0000 C   0  0  0  0  0  0  0  0  0  0  0  0
    1.5000    0.0000    0.0000 C   0  0  0  0  0  0  0  0  0  0  0  0
    0.7500    1.2990    0.0000 C   0  0  0  0  0  0  0  0  0  0  0  0
   -0.7500    1.2990    0.0000 C   0  0  0  0  0  0  0  0  0  0  0  0
   -1.5000    0.0000    0.0000 C   0  0  0  0  0  0  0  0  0  0  0  0
   -0.7500   -1.2990    0.0000 C   0  0  0  0  0  0  0  0  0  0  0  0
   -1.2135   -2.7256    0.0000 C   0  0  0  0  0  0  0  0  0  0  0  0
   -2.5518   -3.5691    0.0000 C   0  0  0  0  0  0  0  0  0  0  0  0
   -2.6191   -5.0676    0.0000 C   0  0  0  0  0  0  0  0  0  0  0  0
   -1.3550   -5.8751    0.0000 C   0  0  0  0  0  0  0  0  0  0  0  0
   -1.0212   -7.3375    0.0000 C   0  0  0  0  0  0  0  0  0  0  0  0
   -1.8846   -8.5641    0.0000 C   0  0  0  0  0  0  0  0  0  0  0  0
   -1.2541   -9.9251    0.0000 C   0  0  0  0  0  0  0  0  0  0  0  0
    0.2399  -10.0596    0.0000 C   0  0  0  0  0  0  0  0  0  0  0  0
    1.1033   -8.8330    0.0000 C   0  0  0  0  0  0  0  0  0  0  0  0
    0.4728   -7.4720    0.0000 C   0  0  0  0  0  0  0  0  0  0  0  0
    1.0623   -6.0927    0.0000 N   0  0  0  0  0  0  0  0  0  0  0  0
   -0.0673   -5.1058    0.0000 C   0  0  0  0  0  0  0  0  0  0  0  0
   -0.0000   -3.6073    0.0000 C   0  0  0  0  0  0  0  0  0  0  0  0
   -4.0650   -5.4667    0.0000 C   0  0  0  0  0  0  0  0  0  0  0  0
   -4.5921   -6.8710    0.0000 O   0  0  0  0  0  0  0  0  0  0  0  0
   -4.8913   -4.2148    0.0000 N   0  0  0  0  0  0  0  0  0  0  0  0
   -3.9561   -3.0421    0.0000 C   0  0  0  0  0  0  0  0  0  0  0  0
  1  2  1  0
  3  2  1  6
  3  4  1  0
  4  5  1  0
  5  6  1  0
  6  7  1  0
  7  8  1  1
  7  9  1  0
  9 10  1  6
 10 11  1  0
  7 12  1  0
 12 13  1  0
 13 14  2  0
 14 15  1  0
 15 16  2  0
 16 17  1  0
 17 18  2  0
 18 19  1  0
 19 20  2  0
 20 21  1  0
 21 22  2  0
 22 23  1  0
 23 24  2  0
 24 25  1  0
 25 26  2  0
 26 27  1  0
 27 28  2  0
 28 29  1  0
 29 30  1  0
 30 31  2  0
 21 32  1  0
 32 33  2  0
 32 34  1  0
 34 35  1  0
  9  3  1  0
 31 12  1  0
 29  5  1  0
 18 13  1  0
 31 19  1  0
 35 20  1  0
 30 22  1  0
 28 23  1  0
M  END
>  <Compound_ID>  (13) 
CHEMBL162

>  <Active>  (13) 
1

>  <Smiles>  (13) 
CN[C@@H]1CC2O[C@@](C)([C@@H]1OC)n1c3ccccc3c3c4c(c5c6ccccc6n2c5c31)C(=O)NC4

>  <canonical_smi>  (13) 
CN[C@@H]1CC2O[C@@](C)([C@@H]1OC)n1c3ccccc3c3c4c(c5c6ccccc6n2c5c31)C(=O)NC4

>  <Set>  (13) 
G1 active

>  <Set_type>  (13) 
G1

>  <MW>  (13) 
466.54

>  <HBD>  (13) 
2

>  <HBA>  (13) 
4

>  <NRB>  (13) 
2

>  <NR>  (13) 
8

>  <NAR>  (13) 
5

>  <PSA>  (13) 
69.45

>  <Standard Type>  (13) 
nan

>  <Standard Relation>  (13) 
nan

>  <Standard Units>  (13) 
nan

>  <Standard Value>  (13) 
nan

>  <Assay ChEMBL ID>  (13) 
nan

>  <Assay Description>  (13) 
nan

>  <BAO Label>  (13) 
nan

$$$$

     RDKit          2D

 19 20  0  0  0  0  0  0  0  0999 V2000
    7.2578   -4.5606    0.0000 N   0  0  0  0  0  0  0  0  0  0  0  0
    5.8875   -3.9505    0.0000 C   0  0  0  0  0  0  0  0  0  0  0  0
    5.7307   -2.4587    0.0000 O   0  0  0  0  0  0  0  0  0  0  0  0
    4.6740   -4.8322    0.0000 N   0  0  0  0  0  0  0  0  0  0  0  0
    3.3037   -4.2221    0.0000 C   0  0  0  0  0  0  0  0  0  0  0  0
    2.9918   -2.7549    0.0000 S   0  0  0  0  0  0  0  0  0  0  0  0
    1.5000   -2.5981    0.0000 C   0  0  0  0  0  0  0  0  0  0  0  0
    0.7500   -1.2990    0.0000 C   0  0  0  0  0  0  0  0  0  0  0  0
    1.5000    0.0000    0.0000 C   0  0  0  0  0  0  0  0  0  0  0  0
    0.7500    1.2990    0.0000 C   0  0  0  0  0  0  0  0  0  0  0  0
   -0.7500    1.2990    0.0000 C   0  0  0  0  0  0  0  0  0  0  0  0
   -1.5000    2.5981    0.0000 F   0  0  0  0  0  0  0  0  0  0  0  0
   -1.5000    0.0000    0.0000 C   0  0  0  0  0  0  0  0  0  0  0  0
   -0.7500   -1.2990    0.0000 C   0  0  0  0  0  0  0  0  0  0  0  0
    0.8899   -3.9684    0.0000 C   0  0  0  0  0  0  0  0  0  0  0  0
    2.0046   -4.9721    0.0000 C   0  0  0  0  0  0  0  0  0  0  0  0
    1.8478   -6.4639    0.0000 C   0  0  0  0  0  0  0  0  0  0  0  0
    3.0613   -7.3456    0.0000 N   0  0  0  0  0  0  0  0  0  0  0  0
    0.4775   -7.0740    0.0000 O   0  0  0  0  0  0  0  0  0  0  0  0
  1  2  1  0
  2  3  2  0
  2  4  1  0
  4  5  1  0
  5  6  1  0
  6  7  1  0
  7  8  1  0
  8  9  2  0
  9 10  1  0
 10 11  2  0
 11 12  1  0
 11 13  1  0
 13 14  2  0
  7 15  2  0
 15 16  1  0
 16 17  1  0
 17 18  1  0
 17 19  2  0
 16  5  2  0
 14  8  1  0
M  END
>  <Compound_ID>  (14) 
CHEMBL257167

>  <Active>  (14) 
1

>  <Smiles>  (14) 
NC(=O)Nc1sc(-c2ccc(F)cc2)cc1C(N)=O

>  <canonical_smi>  (14) 
NC(=O)Nc1sc(-c2ccc(F)cc2)cc1C(N)=O

>  <Set>  (14) 
G1 active

>  <Set_type>  (14) 
G1

>  <MW>  (14) 
279.3

>  <HBD>  (14) 
3

>  <HBA>  (14) 
2

>  <NRB>  (14) 
3

>  <NR>  (14) 
2

>  <NAR>  (14) 
2

>  <PSA>  (14) 
98.21

>  <Standard Type>  (14) 
nan

>  <Standard Relation>  (14) 
nan

>  <Standard Units>  (14) 
nan

>  <Standard Value>  (14) 
nan

>  <Assay ChEMBL ID>  (14) 
nan

>  <Assay Description>  (14) 
nan

>  <BAO Label>  (14) 
nan

$$$$

     RDKit          2D

 37 41  0  0  0  0  0  0  0  0999 V2000
   -5.1962   -5.1073    0.0000 C   0  0  0  0  0  0  0  0  0  0  0  0
   -3.8971   -5.8573    0.0000 C   0  0  0  0  0  0  0  0  0  0  0  0
   -2.5981   -5.1073    0.0000 C   0  0  0  0  0  0  0  0  0  0  0  0
   -1.2990   -5.8573    0.0000 C   0  0  0  0  0  0  0  0  0  0  0  0
   -0.0000   -5.1073    0.0000 N   0  0  0  0  0  0  0  0  0  0  0  0
   -0.0000   -3.6073    0.0000 C   0  0  0  0  0  0  0  0  0  0  0  0
    1.2135   -2.7256    0.0000 N   0  0  0  0  0  0  0  0  0  0  0  0
    0.7500   -1.2990    0.0000 C   0  0  0  0  0  0  0  0  0  0  0  0
    1.5000    0.0000    0.0000 C   0  0  0  0  0  0  0  0  0  0  0  0
    0.7500    1.2990    0.0000 C   0  0  0  0  0  0  0  0  0  0  0  0
   -0.7500    1.2990    0.0000 C   0  0  0  0  0  0  0  0  0  0  0  0
   -1.5000    0.0000    0.0000 C   0  0  0  0  0  0  0  0  0  0  0  0
   -3.0000    0.0000    0.0000 C   0  0  0  0  0  0  0  0  0  0  0  0
   -3.7500    1.2990    0.0000 C   0  0  0  0  0  0  0  0  0  0  0  0
   -5.2500    1.2990    0.0000 C   0  0  0  0  0  0  0  0  0  0  0  0
   -6.0000    2.5981    0.0000 F   0  0  0  0  0  0  0  0  0  0  0  0
   -6.0000    0.0000    0.0000 C   0  0  0  0  0  0  0  0  0  0  0  0
   -7.5000    0.0000    0.0000 C   0  0  0  0  0  0  0  0  0  0  0  0
   -8.2500   -1.2990    0.0000 N   0  0  0  0  0  0  0  0  0  0  0  0
   -9.7500   -1.2990    0.0000 C   0  0  0  0  0  0  0  0  0  0  0  0
  -10.5000   -2.5981    0.0000 C   0  0  0  0  0  0  0  0  0  0  0  0
   -9.7500   -3.8971    0.0000 O   0  0  0  0  0  0  0  0  0  0  0  0
   -8.2500   -3.8971    0.0000 C   0  0  0  0  0  0  0  0  0  0  0  0
   -7.5000   -2.5981    0.0000 C   0  0  0  0  0  0  0  0  0  0  0  0
   -5.2500   -1.2990    0.0000 C   0  0  0  0  0  0  0  0  0  0  0  0
   -6.0000   -2.5981    0.0000 F   0  0  0  0  0  0  0  0  0  0  0  0
   -3.7500   -1.2990    0.0000 C   0  0  0  0  0  0  0  0  0  0  0  0
   -0.7500   -1.2990    0.0000 C   0  0  0  0  0  0  0  0  0  0  0  0
   -1.2135   -2.7256    0.0000 O   0  0  0  0  0  0  0  0  0  0  0  0
   -1.2990   -7.3573    0.0000 C   0  0  0  0  0  0  0  0  0  0  0  0
   -2.5981   -8.1073    0.0000 C   0  0  0  0  0  0  0  0  0  0  0  0
   -3.8971   -7.3573    0.0000 C   0  0  0  0  0  0  0  0  0  0  0  0
   -5.1962   -8.1073    0.0000 C   0  0  0  0  0  0  0  0  0  0  0  0
   -6.4952   -7.3573    0.0000 O   0  0  0  0  0  0  0  0  0  0  0  0
   -5.1962   -9.6073    0.0000 N   0  0  0  0  0  0  0  0  0  0  0  0
   -6.4952  -10.3573    0.0000 C   0  0  0  0  0  0  0  0  0  0  0  0
   -3.8971  -10.3573    0.0000 C   0  0  0  0  0  0  0  0  0  0  0  0
  1  2  1  0
  2  3  2  0
  3  4  1  0
  4  5  1  0
  5  6  1  0
  6  7  2  0
  7  8  1  0
  8  9  2  0
  9 10  1  0
 10 11  2  0
 11 12  1  0
 12 13  1  0
 13 14  2  0
 14 15  1  0
 15 16  1  0
 15 17  2  0
 17 18  1  0
 18 19  1  0
 19 20  1  0
 20 21  1  0
 21 22  1  0
 22 23  1  0
 23 24  1  0
 17 25  1  0
 25 26  1  0
 25 27  2  0
 12 28  2  0
 28 29  1  0
  4 30  2  0
 30 31  1  0
 31 32  2  0
 32 33  1  0
 33 34  2  0
 33 35  1  0
 35 36  1  0
 35 37  1  0
 32  2  1  0
 29  6  1  0
 28  8  1  0
 27 13  1  0
 24 19  1  0
M  END
>  <Compound_ID>  (15) 
CHEMBL1080159

>  <Active>  (15) 
1

>  <Smiles>  (15) 
Cc1cc(Nc2nc3cccc(-c4cc(F)c(CN5CCOCC5)c(F)c4)c3o2)ccc1C(=O)N(C)C

>  <canonical_smi>  (15) 
Cc1cc(Nc2nc3cccc(-c4cc(F)c(CN5CCOCC5)c(F)c4)c3o2)ccc1C(=O)N(C)C

>  <Set>  (15) 
G1 active

>  <Set_type>  (15) 
G1

>  <MW>  (15) 
506.55

>  <HBD>  (15) 
1

>  <HBA>  (15) 
6

>  <NRB>  (15) 
6

>  <NR>  (15) 
5

>  <NAR>  (15) 
4

>  <PSA>  (15) 
70.84

>  <Standard Type>  (15) 
nan

>  <Standard Relation>  (15) 
nan

>  <Standard Units>  (15) 
nan

>  <Standard Value>  (15) 
nan

>  <Assay ChEMBL ID>  (15) 
nan

>  <Assay Description>  (15) 
nan

>  <BAO Label>  (15) 
nan

$$$$

     RDKit          2D

 28 31  0  0  0  0  0  0  0  0999 V2000
   -3.7500   -6.4952    0.0000 C   0  0  0  0  0  0  0  0  0  0  0  0
   -3.0000   -5.1962    0.0000 O   0  0  0  0  0  0  0  0  0  0  0  0
   -1.5000   -5.1962    0.0000 C   0  0  0  0  0  0  0  0  0  0  0  0
   -0.7500   -3.8971    0.0000 C   0  0  0  0  0  0  0  0  0  0  0  0
    0.7500   -3.8971    0.0000 C   0  0  0  0  0  0  0  0  0  0  0  0
    1.5000   -2.5981    0.0000 N   0  0  0  0  0  0  0  0  0  0  0  0
    0.7500   -1.2990    0.0000 C   0  0  0  0  0  0  0  0  0  0  0  0
    1.5000    0.0000    0.0000 N   0  0  0  0  0  0  0  0  0  0  0  0
    0.7500    1.2990    0.0000 C   0  0  0  0  0  0  0  0  0  0  0  0
   -0.7500    1.2990    0.0000 C   0  0  0  0  0  0  0  0  0  0  0  0
   -1.7537    2.4138    0.0000 C   0  0  0  0  0  0  0  0  0  0  0  0
   -3.1240    1.8037    0.0000 C   0  0  0  0  0  0  0  0  0  0  0  0
   -2.9672    0.3119    0.0000 N   0  0  0  0  0  0  0  0  0  0  0  0
   -4.0819   -0.6918    0.0000 C   0  0  0  0  0  0  0  0  0  0  0  0
   -5.5085   -0.2283    0.0000 C   0  0  0  0  0  0  0  0  0  0  0  0
   -6.6232   -1.2320    0.0000 C   0  0  0  0  0  0  0  0  0  0  0  0
   -6.3114   -2.6992    0.0000 C   0  0  0  0  0  0  0  0  0  0  0  0
   -4.8848   -3.1627    0.0000 C   0  0  0  0  0  0  0  0  0  0  0  0
   -3.7701   -2.1590    0.0000 N   0  0  0  0  0  0  0  0  0  0  0  0
   -1.5000    0.0000    0.0000 C   0  0  0  0  0  0  0  0  0  0  0  0
   -0.7500   -1.2990    0.0000 N   0  0  0  0  0  0  0  0  0  0  0  0
    1.5000   -5.1962    0.0000 C   0  0  0  0  0  0  0  0  0  0  0  0
    0.7500   -6.4952    0.0000 C   0  0  0  0  0  0  0  0  0  0  0  0
    1.5000   -7.7942    0.0000 O   0  0  0  0  0  0  0  0  0  0  0  0
    0.7500   -9.0933    0.0000 C   0  0  0  0  0  0  0  0  0  0  0  0
   -0.7500   -6.4952    0.0000 C   0  0  0  0  0  0  0  0  0  0  0  0
   -1.5000   -7.7942    0.0000 O   0  0  0  0  0  0  0  0  0  0  0  0
   -3.0000   -7.7942    0.0000 C   0  0  0  0  0  0  0  0  0  0  0  0
  1  2  1  0
  2  3  1  0
  3  4  2  0
  4  5  1  0
  5  6  1  0
  6  7  1  0
  7  8  2  0
  8  9  1  0
  9 10  2  0
 10 11  1  0
 11 12  2  0
 12 13  1  0
 13 14  1  0
 14 15  2  0
 15 16  1  0
 16 17  2  0
 17 18  1  0
 18 19  2  0
 13 20  1  0
 20 21  2  0
  5 22  2  0
 22 23  1  0
 23 24  1  0
 24 25  1  0
 23 26  2  0
 26 27  1  0
 27 28  1  0
 26  3  1  0
 21  7  1  0
 20 10  1  0
 19 14  1  0
M  END
>  <Compound_ID>  (16) 
CHEMBL205098

>  <Active>  (16) 
1

>  <Smiles>  (16) 
COc1cc(Nc2ncc3ccn(-c4ccccn4)c3n2)cc(OC)c1OC

>  <canonical_smi>  (16) 
COc1cc(Nc2ncc3ccn(-c4ccccn4)c3n2)cc(OC)c1OC

>  <Set>  (16) 
G1 active

>  <Set_type>  (16) 
G1

>  <MW>  (16) 
377.4

>  <HBD>  (16) 
1

>  <HBA>  (16) 
7

>  <NRB>  (16) 
6

>  <NR>  (16) 
4

>  <NAR>  (16) 
4

>  <PSA>  (16) 
83.32

>  <Standard Type>  (16) 
nan

>  <Standard Relation>  (16) 
nan

>  <Standard Units>  (16) 
nan

>  <Standard Value>  (16) 
nan

>  <Assay ChEMBL ID>  (16) 
nan

>  <Assay Description>  (16) 
nan

>  <BAO Label>  (16) 
nan

$$$$

     RDKit          2D

 31 34  0  0  0  0  0  0  0  0999 V2000
    4.5000   -2.5981    0.0000 C   0  0  0  0  0  0  0  0  0  0  0  0
    3.7500   -1.2990    0.0000 S   0  0  0  0  0  0  0  0  0  0  0  0
    2.4510   -2.0490    0.0000 O   0  0  0  0  0  0  0  0  0  0  0  0
    5.0490   -0.5490    0.0000 O   0  0  0  0  0  0  0  0  0  0  0  0
    3.0000    0.0000    0.0000 N   0  0  0  0  0  0  0  0  0  0  0  0
    1.5000    0.0000    0.0000 C   0  0  0  0  0  0  0  0  0  0  0  0
    0.7500   -1.2990    0.0000 C   0  0  0  0  0  0  0  0  0  0  0  0
   -0.7500   -1.2990    0.0000 C   0  0  0  0  0  0  0  0  0  0  0  0
   -1.5000    0.0000    0.0000 C   0  0  0  0  0  0  0  0  0  0  0  0
   -3.0000    0.0000    0.0000 C   0  0  0  0  0  0  0  0  0  0  0  0
   -3.7500    1.2990    0.0000 C   0  0  0  0  0  0  0  0  0  0  0  0
   -5.2500    1.2990    0.0000 C   0  0  0  0  0  0  0  0  0  0  0  0
   -6.0000    0.0000    0.0000 N   0  0  0  0  0  0  0  0  0  0  0  0
   -5.2500   -1.2990    0.0000 C   0  0  0  0  0  0  0  0  0  0  0  0
   -6.0000   -2.5981    0.0000 N   0  0  0  0  0  0  0  0  0  0  0  0
   -7.5000   -2.5981    0.0000 C   0  0  0  0  0  0  0  0  0  0  0  0
   -8.2500   -1.2990    0.0000 C   0  0  0  0  0  0  0  0  0  0  0  0
   -9.7500   -1.2990    0.0000 C   0  0  0  0  0  0  0  0  0  0  0  0
  -10.5000   -2.5981    0.0000 C   0  0  0  0  0  0  0  0  0  0  0  0
  -12.0000   -2.5981    0.0000 N   0  0  0  0  0  0  0  0  0  0  0  0
  -12.7500   -1.2990    0.0000 C   0  0  0  0  0  0  0  0  0  0  0  0
  -14.2500   -1.2990    0.0000 C   0  0  0  0  0  0  0  0  0  0  0  0
  -15.0000   -2.5981    0.0000 C   0  0  0  0  0  0  0  0  0  0  0  0
  -16.5000   -2.5981    0.0000 O   0  0  0  0  0  0  0  0  0  0  0  0
  -14.2500   -3.8971    0.0000 C   0  0  0  0  0  0  0  0  0  0  0  0
  -12.7500   -3.8971    0.0000 C   0  0  0  0  0  0  0  0  0  0  0  0
   -9.7500   -3.8971    0.0000 C   0  0  0  0  0  0  0  0  0  0  0  0
   -8.2500   -3.8971    0.0000 C   0  0  0  0  0  0  0  0  0  0  0  0
   -3.7500   -1.2990    0.0000 N   0  0  0  0  0  0  0  0  0  0  0  0
   -0.7500    1.2990    0.0000 C   0  0  0  0  0  0  0  0  0  0  0  0
    0.7500    1.2990    0.0000 C   0  0  0  0  0  0  0  0  0  0  0  0
  1  2  1  0
  2  3  2  0
  2  4  2  0
  2  5  1  0
  5  6  1  0
  6  7  2  0
  7  8  1  0
  8  9  2  0
  9 10  1  0
 10 11  2  0
 11 12  1  0
 12 13  2  0
 13 14  1  0
 14 15  1  0
 15 16  1  0
 16 17  2  0
 17 18  1  0
 18 19  2  0
 19 20  1  0
 20 21  1  0
 21 22  1  0
 22 23  1  0
 23 24  1  0
 23 25  1  0
 25 26  1  0
 19 27  1  0
 27 28  2  0
 14 29  2  0
  9 30  1  0
 30 31  2  0
 31  6  1  0
 29 10  1  0
 28 16  1  0
 26 20  1  0
M  END
>  <Compound_ID>  (17) 
CHEMBL1079078

>  <Active>  (17) 
1

>  <Smiles>  (17) 
CS(=O)(=O)Nc1ccc(-c2ccnc(Nc3ccc(N4CCC(O)CC4)cc3)n2)cc1

>  <canonical_smi>  (17) 
CS(=O)(=O)Nc1ccc(-c2ccnc(Nc3ccc(N4CCC(O)CC4)cc3)n2)cc1

>  <Set>  (17) 
G1 active

>  <Set_type>  (17) 
G1

>  <MW>  (17) 
439.54

>  <HBD>  (17) 
3

>  <HBA>  (17) 
7

>  <NRB>  (17) 
6

>  <NR>  (17) 
4

>  <NAR>  (17) 
3

>  <PSA>  (17) 
107.45

>  <Standard Type>  (17) 
nan

>  <Standard Relation>  (17) 
nan

>  <Standard Units>  (17) 
nan

>  <Standard Value>  (17) 
nan

>  <Assay ChEMBL ID>  (17) 
nan

>  <Assay Description>  (17) 
nan

>  <BAO Label>  (17) 
nan

$$$$

     RDKit          2D

 40 45  0  0  0  0  0  0  0  0999 V2000
    6.0000  -10.3923    0.0000 C   0  0  0  0  0  0  0  0  0  0  0  0
    5.2500   -9.0933    0.0000 N   0  0  0  0  0  0  0  0  0  0  0  0
    3.7500   -9.0933    0.0000 C   0  0  0  0  0  0  0  0  0  0  0  0
    3.0000   -7.7942    0.0000 C   0  0  0  0  0  0  0  0  0  0  0  0
    3.7500   -6.4952    0.0000 N   0  0  0  0  0  0  0  0  0  0  0  0
    3.0000   -5.1962    0.0000 C   0  0  0  0  0  0  0  0  0  0  0  0
    3.7500   -3.8971    0.0000 C   0  0  0  0  0  0  0  0  0  0  0  0
    3.0000   -2.5981    0.0000 C   0  0  0  0  0  0  0  0  0  0  0  0
    1.5000   -2.5981    0.0000 C   0  0  0  0  0  0  0  0  0  0  0  0
    0.7500   -1.2990    0.0000 C   0  0  0  0  0  0  0  0  0  0  0  0
    1.5000    0.0000    0.0000 C   0  0  0  0  0  0  0  0  0  0  0  0
    0.7500    1.2990    0.0000 N   0  0  0  0  0  0  0  0  0  0  0  0
   -0.7500    1.2990    0.0000 C   0  0  0  0  0  0  0  0  0  0  0  0
   -1.5000    2.5981    0.0000 C   0  0  0  0  0  0  0  0  0  0  0  0
   -3.0000    2.5981    0.0000 C   0  0  0  0  0  0  0  0  0  0  0  0
   -3.7500    1.2990    0.0000 C   0  0  0  0  0  0  0  0  0  0  0  0
   -3.0000    0.0000    0.0000 C   0  0  0  0  0  0  0  0  0  0  0  0
   -3.7500   -1.2990    0.0000 C   0  0  0  0  0  0  0  0  0  0  0  0
   -5.2500   -1.2990    0.0000 C   0  0  0  0  0  0  0  0  0  0  0  0
   -6.0000   -2.5981    0.0000 C   0  0  0  0  0  0  0  0  0  0  0  0
   -7.5000   -2.5981    0.0000 F   0  0  0  0  0  0  0  0  0  0  0  0
   -5.2500   -3.8971    0.0000 C   0  0  0  0  0  0  0  0  0  0  0  0
   -6.0000   -5.1962    0.0000 C   0  0  0  0  0  0  0  0  0  0  0  0
   -5.2500   -6.4952    0.0000 N   0  0  0  0  0  0  0  0  0  0  0  0
   -6.0000   -7.7942    0.0000 C   0  0  0  0  0  0  0  0  0  0  0  0
   -5.2500   -9.0933    0.0000 C   0  0  0  0  0  0  0  0  0  0  0  0
   -3.7500   -9.0933    0.0000 S   0  0  0  0  0  0  0  0  0  0  0  0
   -2.3405   -9.6063    0.0000 O   0  0  0  0  0  0  0  0  0  0  0  0
   -4.0105  -10.5705    0.0000 O   0  0  0  0  0  0  0  0  0  0  0  0
   -3.0000   -7.7942    0.0000 C   0  0  0  0  0  0  0  0  0  0  0  0
   -3.7500   -6.4952    0.0000 C   0  0  0  0  0  0  0  0  0  0  0  0
   -3.7500   -3.8971    0.0000 C   0  0  0  0  0  0  0  0  0  0  0  0
   -3.0000   -5.1962    0.0000 F   0  0  0  0  0  0  0  0  0  0  0  0
   -3.0000   -2.5981    0.0000 C   0  0  0  0  0  0  0  0  0  0  0  0
   -1.5000    0.0000    0.0000 C   0  0  0  0  0  0  0  0  0  0  0  0
   -0.7500   -1.2990    0.0000 N   0  0  0  0  0  0  0  0  0  0  0  0
    0.7500   -3.8971    0.0000 C   0  0  0  0  0  0  0  0  0  0  0  0
    1.5000   -5.1962    0.0000 N   0  0  0  0  0  0  0  0  0  0  0  0
    5.2500   -6.4952    0.0000 C   0  0  0  0  0  0  0  0  0  0  0  0
    6.0000   -7.7942    0.0000 C   0  0  0  0  0  0  0  0  0  0  0  0
  1  2  1  0
  2  3  1  0
  3  4  1  0
  4  5  1  0
  5  6  1  0
  6  7  2  0
  7  8  1  0
  8  9  2  0
  9 10  1  0
 10 11  2  0
 11 12  1  0
 12 13  2  0
 13 14  1  0
 14 15  2  0
 15 16  1  0
 16 17  2  0
 17 18  1  0
 18 19  2  0
 19 20  1  0
 20 21  1  0
 20 22  2  0
 22 23  1  0
 23 24  1  0
 24 25  1  0
 25 26  1  0
 26 27  1  0
 27 28  2  0
 27 29  2  0
 27 30  1  0
 30 31  1  0
 22 32  1  0
 32 33  1  0
 32 34  2  0
 17 35  1  0
 35 36  2  0
  9 37  1  0
 37 38  2  0
  5 39  1  0
 39 40  1  0
 40  2  1  0
 38  6  1  0
 36 10  1  0
 35 13  1  0
 34 18  1  0
 31 24  1  0
M  END
>  <Compound_ID>  (18) 
CHEMBL1092925

>  <Active>  (18) 
1

>  <Smiles>  (18) 
CN1CCN(c2ccc(-c3cnc4cccc(-c5cc(F)c(CN6CCS(=O)(=O)CC6)c(F)c5)c4n3)cn2)CC1

>  <canonical_smi>  (18) 
CN1CCN(c2ccc(-c3cnc4cccc(-c5cc(F)c(CN6CCS(=O)(=O)CC6)c(F)c5)c4n3)cn2)CC1

>  <Set>  (18) 
G1 active

>  <Set_type>  (18) 
G1

>  <MW>  (18) 
564.66

>  <HBD>  (18) 
0

>  <HBA>  (18) 
8

>  <NRB>  (18) 
5

>  <NR>  (18) 
6

>  <NAR>  (18) 
4

>  <PSA>  (18) 
82.53

>  <Standard Type>  (18) 
nan

>  <Standard Relation>  (18) 
nan

>  <Standard Units>  (18) 
nan

>  <Standard Value>  (18) 
nan

>  <Assay ChEMBL ID>  (18) 
nan

>  <Assay Description>  (18) 
nan

>  <BAO Label>  (18) 
nan

$$$$

     RDKit          2D

 32 36  0  0  0  0  0  0  0  0999 V2000
   -1.7241  -12.7988    0.0000 C   0  0  0  0  0  0  0  0  0  0  0  0
   -0.4250  -13.5488    0.0000 O   0  0  0  0  0  0  0  0  0  0  0  0
    0.8740  -12.7988    0.0000 C   0  0  0  0  0  0  0  0  0  0  0  0
    0.8740  -11.2988    0.0000 C   0  0  0  0  0  0  0  0  0  0  0  0
    2.1731  -10.5488    0.0000 C   0  0  0  0  0  0  0  0  0  0  0  0
    2.1731   -9.0488    0.0000 N   0  0  0  0  0  0  0  0  0  0  0  0
    0.8740   -8.2988    0.0000 C   0  0  0  0  0  0  0  0  0  0  0  0
   -0.4963   -8.9089    0.0000 N   0  0  0  0  0  0  0  0  0  0  0  0
   -1.5000   -7.7942    0.0000 C   0  0  0  0  0  0  0  0  0  0  0  0
   -3.0000   -7.7942    0.0000 C   0  0  0  0  0  0  0  0  0  0  0  0
   -3.7500   -6.4952    0.0000 C   0  0  0  0  0  0  0  0  0  0  0  0
   -3.0000   -5.1962    0.0000 C   0  0  0  0  0  0  0  0  0  0  0  0
   -1.5000   -5.1962    0.0000 C   0  0  0  0  0  0  0  0  0  0  0  0
   -0.7500   -3.8971    0.0000 C   0  0  0  0  0  0  0  0  0  0  0  0
    0.7500   -3.8971    0.0000 C   0  0  0  0  0  0  0  0  0  0  0  0
    1.5000   -2.5981    0.0000 C   0  0  0  0  0  0  0  0  0  0  0  0
    0.7500   -1.2990    0.0000 C   0  0  0  0  0  0  0  0  0  0  0  0
    1.5000    0.0000    0.0000 N   0  0  0  0  0  0  0  0  0  0  0  0
    0.7500    1.2990    0.0000 C   0  0  0  0  0  0  0  0  0  0  0  0
   -0.7500    1.2990    0.0000 C   0  0  0  0  0  0  0  0  0  0  0  0
   -1.5000    0.0000    0.0000 C   0  0  0  0  0  0  0  0  0  0  0  0
   -0.7500   -1.2990    0.0000 C   0  0  0  0  0  0  0  0  0  0  0  0
   -1.5000   -2.5981    0.0000 C   0  0  0  0  0  0  0  0  0  0  0  0
   -0.7500   -6.4952    0.0000 C   0  0  0  0  0  0  0  0  0  0  0  0
    0.7172   -6.8071    0.0000 O   0  0  0  0  0  0  0  0  0  0  0  0
    3.4721  -11.2988    0.0000 C   0  0  0  0  0  0  0  0  0  0  0  0
    3.4721  -12.7988    0.0000 C   0  0  0  0  0  0  0  0  0  0  0  0
    4.7711  -13.5488    0.0000 O   0  0  0  0  0  0  0  0  0  0  0  0
    4.7711  -15.0488    0.0000 C   0  0  0  0  0  0  0  0  0  0  0  0
    2.1731  -13.5488    0.0000 C   0  0  0  0  0  0  0  0  0  0  0  0
    2.1731  -15.0488    0.0000 O   0  0  0  0  0  0  0  0  0  0  0  0
    0.8740  -15.7988    0.0000 C   0  0  0  0  0  0  0  0  0  0  0  0
  1  2  1  0
  2  3  1  0
  3  4  2  0
  4  5  1  0
  5  6  1  0
  6  7  1  0
  7  8  2  0
  8  9  1  0
  9 10  2  0
 10 11  1  0
 11 12  2  0
 12 13  1  0
 13 14  1  0
 14 15  2  0
 15 16  1  0
 16 17  2  0
 17 18  1  0
 18 19  2  0
 19 20  1  0
 20 21  2  0
 21 22  1  0
 22 23  2  0
 13 24  2  0
 24 25  1  0
  5 26  2  0
 26 27  1  0
 27 28  1  0
 28 29  1  0
 27 30  2  0
 30 31  1  0
 31 32  1  0
 30  3  1  0
 25  7  1  0
 24  9  1  0
 23 14  1  0
 22 17  1  0
M  END
>  <Compound_ID>  (19) 
CHEMBL1081975

>  <Active>  (19) 
1

>  <Smiles>  (19) 
COc1cc(Nc2nc3cccc(-c4ccc5ncccc5c4)c3o2)cc(OC)c1OC

>  <canonical_smi>  (19) 
COc1cc(Nc2nc3cccc(-c4ccc5ncccc5c4)c3o2)cc(OC)c1OC

>  <Set>  (19) 
G1 active

>  <Set_type>  (19) 
G1

>  <MW>  (19) 
427.46

>  <HBD>  (19) 
1

>  <HBA>  (19) 
7

>  <NRB>  (19) 
6

>  <NR>  (19) 
5

>  <NAR>  (19) 
5

>  <PSA>  (19) 
78.64

>  <Standard Type>  (19) 
nan

>  <Standard Relation>  (19) 
nan

>  <Standard Units>  (19) 
nan

>  <Standard Value>  (19) 
nan

>  <Assay ChEMBL ID>  (19) 
nan

>  <Assay Description>  (19) 
nan

>  <BAO Label>  (19) 
nan

$$$$

     RDKit          2D

 38 43  0  0  0  0  0  0  0  0999 V2000
    0.7500   -6.4952    0.0000 C   0  0  0  0  0  0  0  0  0  0  0  0
    1.5000   -5.1962    0.0000 C   0  0  0  0  0  0  0  0  0  0  0  0
    0.7500   -3.8971    0.0000 C   0  0  0  0  0  0  0  0  0  0  0  0
    1.5000   -2.5981    0.0000 C   0  0  0  0  0  0  0  0  0  0  0  0
    0.7500   -1.2990    0.0000 C   0  0  0  0  0  0  0  0  0  0  0  0
    1.5000    0.0000    0.0000 C   0  0  0  0  0  0  0  0  0  0  0  0
    0.7500    1.2990    0.0000 C   0  0  0  0  0  0  0  0  0  0  0  0
   -0.7500    1.2990    0.0000 C   0  0  0  0  0  0  0  0  0  0  0  0
   -1.5000    0.0000    0.0000 C   0  0  0  0  0  0  0  0  0  0  0  0
   -2.9672   -0.3119    0.0000 N   0  0  0  0  0  0  0  0  0  0  0  0
   -3.1240   -1.8037    0.0000 C   0  0  0  0  0  0  0  0  0  0  0  0
   -4.4231   -2.5537    0.0000 N   0  0  0  0  0  0  0  0  0  0  0  0
   -5.7221   -1.8037    0.0000 C   0  0  0  0  0  0  0  0  0  0  0  0
   -5.7221   -0.3037    0.0000 C   0  0  0  0  0  0  0  0  0  0  0  0
   -7.0211    0.4463    0.0000 C   0  0  0  0  0  0  0  0  0  0  0  0
   -8.3202   -0.3037    0.0000 C   0  0  0  0  0  0  0  0  0  0  0  0
   -9.6192    0.4463    0.0000 N   0  0  0  0  0  0  0  0  0  0  0  0
   -9.6192    1.9463    0.0000 C   0  0  0  0  0  0  0  0  0  0  0  0
  -10.9182    2.6963    0.0000 C   0  0  0  0  0  0  0  0  0  0  0  0
  -12.2173    1.9463    0.0000 N   0  0  0  0  0  0  0  0  0  0  0  0
  -13.5163    2.6963    0.0000 C   0  0  0  0  0  0  0  0  0  0  0  0
  -12.2173    0.4463    0.0000 C   0  0  0  0  0  0  0  0  0  0  0  0
  -10.9182   -0.3037    0.0000 C   0  0  0  0  0  0  0  0  0  0  0  0
   -8.3202   -1.8037    0.0000 C   0  0  0  0  0  0  0  0  0  0  0  0
   -7.0211   -2.5537    0.0000 C   0  0  0  0  0  0  0  0  0  0  0  0
   -1.7537   -2.4138    0.0000 O   0  0  0  0  0  0  0  0  0  0  0  0
   -0.7500   -1.2990    0.0000 C   0  0  0  0  0  0  0  0  0  0  0  0
    3.0000   -2.5981    0.0000 C   0  0  0  0  0  0  0  0  0  0  0  0
    3.7500   -3.8971    0.0000 C   0  0  0  0  0  0  0  0  0  0  0  0
    3.0000   -5.1962    0.0000 C   0  0  0  0  0  0  0  0  0  0  0  0
    3.7500   -6.4952    0.0000 C   0  0  0  0  0  0  0  0  0  0  0  0
    3.0000   -7.7942    0.0000 O   0  0  0  0  0  0  0  0  0  0  0  0
    5.2500   -6.4952    0.0000 N   0  0  0  0  0  0  0  0  0  0  0  0
    6.0000   -7.7942    0.0000 C   0  0  0  0  0  0  0  0  0  0  0  0
    7.5000   -7.7942    0.0000 C   0  0  0  0  0  0  0  0  0  0  0  0
    8.2500   -6.4952    0.0000 O   0  0  0  0  0  0  0  0  0  0  0  0
    7.5000   -5.1962    0.0000 C   0  0  0  0  0  0  0  0  0  0  0  0
    6.0000   -5.1962    0.0000 C   0  0  0  0  0  0  0  0  0  0  0  0
  1  2  1  0
  2  3  2  0
  3  4  1  0
  4  5  1  0
  5  6  2  0
  6  7  1  0
  7  8  2  0
  8  9  1  0
  9 10  1  0
 10 11  2  0
 11 12  1  0
 12 13  1  0
 13 14  2  0
 14 15  1  0
 15 16  2  0
 16 17  1  0
 17 18  1  0
 18 19  1  0
 19 20  1  0
 20 21  1  0
 20 22  1  0
 22 23  1  0
 16 24  1  0
 24 25  2  0
 11 26  1  0
 26 27  1  0
  4 28  2  0
 28 29  1  0
 29 30  2  0
 30 31  1  0
 31 32  2  0
 31 33  1  0
 33 34  1  0
 34 35  1  0
 35 36  1  0
 36 37  1  0
 37 38  1  0
 30  2  1  0
 38 33  1  0
 27  5  1  0
 27  9  2  0
 25 13  1  0
 23 17  1  0
M  END
>  <Compound_ID>  (20) 
CHEMBL1082023

>  <Active>  (20) 
1

>  <Smiles>  (20) 
Cc1cc(-c2cccc3nc(Nc4ccc(N5CCN(C)CC5)cc4)oc23)ccc1C(=O)N1CCOCC1

>  <canonical_smi>  (20) 
Cc1cc(-c2cccc3nc(Nc4ccc(N5CCN(C)CC5)cc4)oc23)ccc1C(=O)N1CCOCC1

>  <Set>  (20) 
G1 active

>  <Set_type>  (20) 
G1

>  <MW>  (20) 
511.63

>  <HBD>  (20) 
1

>  <HBA>  (20) 
7

>  <NRB>  (20) 
5

>  <NR>  (20) 
6

>  <NAR>  (20) 
4

>  <PSA>  (20) 
74.08

>  <Standard Type>  (20) 
nan

>  <Standard Relation>  (20) 
nan

>  <Standard Units>  (20) 
nan

>  <Standard Value>  (20) 
nan

>  <Assay ChEMBL ID>  (20) 
nan

>  <Assay Description>  (20) 
nan

>  <BAO Label>  (20) 
nan

$$$$

     RDKit          2D

 36 40  0  0  0  0  0  0  0  0999 V2000
   -0.7500   -6.4952    0.0000 C   0  0  0  0  0  0  0  0  0  0  0  0
    0.7500   -6.4952    0.0000 O   0  0  0  0  0  0  0  0  0  0  0  0
    1.5000   -5.1962    0.0000 C   0  0  0  0  0  0  0  0  0  0  0  0
    0.7500   -3.8971    0.0000 C   0  0  0  0  0  0  0  0  0  0  0  0
    1.5000   -2.5981    0.0000 C   0  0  0  0  0  0  0  0  0  0  0  0
    0.7500   -1.2990    0.0000 C   0  0  0  0  0  0  0  0  0  0  0  0
    1.5000    0.0000    0.0000 C   0  0  0  0  0  0  0  0  0  0  0  0
    0.7500    1.2990    0.0000 N   0  0  0  0  0  0  0  0  0  0  0  0
   -0.7500    1.2990    0.0000 C   0  0  0  0  0  0  0  0  0  0  0  0
   -1.5000    2.5981    0.0000 C   0  0  0  0  0  0  0  0  0  0  0  0
   -3.0000    2.5981    0.0000 C   0  0  0  0  0  0  0  0  0  0  0  0
   -3.7500    1.2990    0.0000 C   0  0  0  0  0  0  0  0  0  0  0  0
   -3.0000    0.0000    0.0000 C   0  0  0  0  0  0  0  0  0  0  0  0
   -3.7500   -1.2990    0.0000 C   0  0  0  0  0  0  0  0  0  0  0  0
   -5.2500   -1.2990    0.0000 C   0  0  0  0  0  0  0  0  0  0  0  0
   -6.0000   -2.5981    0.0000 C   0  0  0  0  0  0  0  0  0  0  0  0
   -5.2500   -3.8971    0.0000 C   0  0  0  0  0  0  0  0  0  0  0  0
   -6.0000   -5.1962    0.0000 C   0  0  0  0  0  0  0  0  0  0  0  0
   -7.5000   -5.1962    0.0000 N   0  0  0  0  0  0  0  0  0  0  0  0
   -8.2500   -3.8971    0.0000 C   0  0  0  0  0  0  0  0  0  0  0  0
   -9.7500   -3.8971    0.0000 C   0  0  0  0  0  0  0  0  0  0  0  0
  -10.5000   -5.1962    0.0000 O   0  0  0  0  0  0  0  0  0  0  0  0
   -9.7500   -6.4952    0.0000 C   0  0  0  0  0  0  0  0  0  0  0  0
   -8.2500   -6.4952    0.0000 C   0  0  0  0  0  0  0  0  0  0  0  0
   -3.7500   -3.8971    0.0000 C   0  0  0  0  0  0  0  0  0  0  0  0
   -3.0000   -5.1962    0.0000 F   0  0  0  0  0  0  0  0  0  0  0  0
   -3.0000   -2.5981    0.0000 C   0  0  0  0  0  0  0  0  0  0  0  0
   -1.5000    0.0000    0.0000 C   0  0  0  0  0  0  0  0  0  0  0  0
   -0.7500   -1.2990    0.0000 N   0  0  0  0  0  0  0  0  0  0  0  0
    3.0000   -2.5981    0.0000 C   0  0  0  0  0  0  0  0  0  0  0  0
    3.7500   -3.8971    0.0000 C   0  0  0  0  0  0  0  0  0  0  0  0
    5.2500   -3.8971    0.0000 O   0  0  0  0  0  0  0  0  0  0  0  0
    6.0000   -5.1962    0.0000 C   0  0  0  0  0  0  0  0  0  0  0  0
    3.0000   -5.1962    0.0000 C   0  0  0  0  0  0  0  0  0  0  0  0
    3.7500   -6.4952    0.0000 O   0  0  0  0  0  0  0  0  0  0  0  0
    3.0000   -7.7942    0.0000 C   0  0  0  0  0  0  0  0  0  0  0  0
  1  2  1  0
  2  3  1  0
  3  4  2  0
  4  5  1  0
  5  6  1  0
  6  7  2  0
  7  8  1  0
  8  9  2  0
  9 10  1  0
 10 11  2  0
 11 12  1  0
 12 13  2  0
 13 14  1  0
 14 15  2  0
 15 16  1  0
 16 17  2  0
 17 18  1  0
 18 19  1  0
 19 20  1  0
 20 21  1  0
 21 22  1  0
 22 23  1  0
 23 24  1  0
 17 25  1  0
 25 26  1  0
 25 27  2  0
 13 28  1  0
 28 29  2  0
  5 30  2  0
 30 31  1  0
 31 32  1  0
 32 33  1  0
 31 34  2  0
 34 35  1  0
 35 36  1  0
 34  3  1  0
 29  6  1  0
 28  9  1  0
 27 14  1  0
 24 19  1  0
M  END
>  <Compound_ID>  (21) 
CHEMBL1088857

>  <Active>  (21) 
1

>  <Smiles>  (21) 
COc1cc(-c2cnc3cccc(-c4ccc(CN5CCOCC5)c(F)c4)c3n2)cc(OC)c1OC

>  <canonical_smi>  (21) 
COc1cc(-c2cnc3cccc(-c4ccc(CN5CCOCC5)c(F)c4)c3n2)cc(OC)c1OC

>  <Set>  (21) 
G1 active

>  <Set_type>  (21) 
G1

>  <MW>  (21) 
489.55

>  <HBD>  (21) 
0

>  <HBA>  (21) 
7

>  <NRB>  (21) 
7

>  <NR>  (21) 
5

>  <NAR>  (21) 
4

>  <PSA>  (21) 
65.94

>  <Standard Type>  (21) 
nan

>  <Standard Relation>  (21) 
nan

>  <Standard Units>  (21) 
nan

>  <Standard Value>  (21) 
nan

>  <Assay ChEMBL ID>  (21) 
nan

>  <Assay Description>  (21) 
nan

>  <BAO Label>  (21) 
nan

$$$$

     RDKit          2D

 36 41  0  0  0  0  0  0  0  0999 V2000
    3.7500   -1.2990    0.0000 C   0  0  0  0  0  0  0  0  0  0  0  0
    3.0000   -2.5981    0.0000 C   0  0  0  0  0  0  0  0  0  0  0  0
    1.5000   -2.5981    0.0000 N   0  0  0  0  0  0  0  0  0  0  0  0
    0.7500   -1.2990    0.0000 C   0  0  0  0  0  0  0  0  0  0  0  0
    1.5000    0.0000    0.0000 N   0  0  0  0  0  0  0  0  0  0  0  0
    0.7500    1.2990    0.0000 C   0  0  0  0  0  0  0  0  0  0  0  0
    1.5000    2.5981    0.0000 N   0  0  0  0  0  0  0  0  0  0  0  0
    0.8899    3.9684    0.0000 C   0  0  0  0  0  0  0  0  0  0  0  0
    2.0046    4.9721    0.0000 N   0  0  0  0  0  0  0  0  0  0  0  0
    3.3037    4.2221    0.0000 C   0  0  0  0  0  0  0  0  0  0  0  0
    4.7302    4.6856    0.0000 C   0  0  0  0  0  0  0  0  0  0  0  0
    5.8450    3.6819    0.0000 C   0  0  0  0  0  0  0  0  0  0  0  0
    5.5331    2.2147    0.0000 N   0  0  0  0  0  0  0  0  0  0  0  0
    4.1065    1.7512    0.0000 C   0  0  0  0  0  0  0  0  0  0  0  0
    2.9918    2.7549    0.0000 C   0  0  0  0  0  0  0  0  0  0  0  0
   -0.7500    1.2990    0.0000 N   0  0  0  0  0  0  0  0  0  0  0  0
   -1.5000    0.0000    0.0000 C   0  0  0  0  0  0  0  0  0  0  0  0
   -0.7500   -1.2990    0.0000 C   0  0  0  0  0  0  0  0  0  0  0  0
   -1.7537   -2.4138    0.0000 C   0  0  0  0  0  0  0  0  0  0  0  0
   -3.1240   -1.8037    0.0000 C   0  0  0  0  0  0  0  0  0  0  0  0
   -4.4231   -2.5537    0.0000 C   0  0  0  0  0  0  0  0  0  0  0  0
   -4.4231   -4.0537    0.0000 O   0  0  0  0  0  0  0  0  0  0  0  0
   -5.7221   -1.8037    0.0000 N   0  0  0  0  0  0  0  0  0  0  0  0
   -5.7221   -0.3037    0.0000 C   0  0  0  0  0  0  0  0  0  0  0  0
   -7.0211    0.4463    0.0000 C   0  0  0  0  0  0  0  0  0  0  0  0
   -8.3202   -0.3037    0.0000 O   0  0  0  0  0  0  0  0  0  0  0  0
   -8.3202   -1.8037    0.0000 C   0  0  0  0  0  0  0  0  0  0  0  0
   -7.0211   -2.5537    0.0000 C   0  0  0  0  0  0  0  0  0  0  0  0
   -2.9672   -0.3119    0.0000 N   0  0  0  0  0  0  0  0  0  0  0  0
   -4.0819    0.6918    0.0000 C   0  0  0  0  0  0  0  0  0  0  0  0
    3.7500   -3.8971    0.0000 C   0  0  0  0  0  0  0  0  0  0  0  0
    5.2500   -3.8971    0.0000 C   0  0  0  0  0  0  0  0  0  0  0  0
    6.0000   -5.1962    0.0000 C   0  0  0  0  0  0  0  0  0  0  0  0
    5.2500   -6.4952    0.0000 C   0  0  0  0  0  0  0  0  0  0  0  0
    3.7500   -6.4952    0.0000 C   0  0  0  0  0  0  0  0  0  0  0  0
    3.0000   -5.1962    0.0000 C   0  0  0  0  0  0  0  0  0  0  0  0
  2  1  1  1
  2  3  1  0
  3  4  1  0
  4  5  2  0
  5  6  1  0
  6  7  1  0
  7  8  1  0
  8  9  2  0
  9 10  1  0
 10 11  2  0
 11 12  1  0
 12 13  2  0
 13 14  1  0
 14 15  2  0
  6 16  2  0
 16 17  1  0
 17 18  2  0
 18 19  1  0
 19 20  2  0
 20 21  1  0
 21 22  2  0
 21 23  1  0
 23 24  1  0
 24 25  1  0
 25 26  1  0
 26 27  1  0
 27 28  1  0
 20 29  1  0
 29 30  1  0
  2 31  1  0
 31 32  2  0
 32 33  1  0
 33 34  2  0
 34 35  1  0
 35 36  2  0
 18  4  1  0
 28 23  1  0
 36 31  1  0
 15  7  1  0
 29 17  1  0
 15 10  1  0
M  END
>  <Compound_ID>  (22) 
CHEMBL391096

>  <Active>  (22) 
1

>  <Smiles>  (22) 
C[C@H](Nc1nc(-n2cnc3ccncc32)nc2c1cc(C(=O)N1CCOCC1)n2C)c1ccccc1

>  <canonical_smi>  (22) 
C[C@H](Nc1nc(-n2cnc3ccncc32)nc2c1cc(C(=O)N1CCOCC1)n2C)c1ccccc1

>  <Set>  (22) 
G1 active

>  <Set_type>  (22) 
G1

>  <MW>  (22) 
482.55

>  <HBD>  (22) 
1

>  <HBA>  (22) 
7

>  <NRB>  (22) 
5

>  <NR>  (22) 
6

>  <NAR>  (22) 
5

>  <PSA>  (22) 
102.99

>  <Standard Type>  (22) 
nan

>  <Standard Relation>  (22) 
nan

>  <Standard Units>  (22) 
nan

>  <Standard Value>  (22) 
nan

>  <Assay ChEMBL ID>  (22) 
nan

>  <Assay Description>  (22) 
nan

>  <BAO Label>  (22) 
nan

$$$$

     RDKit          2D

 30 34  0  0  0  0  0  0  0  0999 V2000
    4.5000    0.0000    0.0000 N   0  0  0  0  0  0  0  0  0  0  0  0
    3.0000    0.0000    0.0000 C   0  0  0  0  0  0  0  0  0  0  0  0
    1.5000    0.0000    0.0000 C   0  0  0  0  0  0  0  0  0  0  0  0
    0.7500   -1.2990    0.0000 C   0  0  0  0  0  0  0  0  0  0  0  0
   -0.7500   -1.2990    0.0000 C   0  0  0  0  0  0  0  0  0  0  0  0
   -1.5000    0.0000    0.0000 C   0  0  0  0  0  0  0  0  0  0  0  0
   -2.9672    0.3119    0.0000 N   0  0  0  0  0  0  0  0  0  0  0  0
   -3.1240    1.8037    0.0000 C   0  0  0  0  0  0  0  0  0  0  0  0
   -1.7537    2.4138    0.0000 N   0  0  0  0  0  0  0  0  0  0  0  0
   -1.4418    3.8810    0.0000 C   0  0  0  0  0  0  0  0  0  0  0  0
   -0.0152    4.3445    0.0000 N   0  0  0  0  0  0  0  0  0  0  0  0
    0.2966    5.8117    0.0000 C   0  0  0  0  0  0  0  0  0  0  0  0
   -0.8181    6.8154    0.0000 C   0  0  0  0  0  0  0  0  0  0  0  0
   -0.8181    8.3154    0.0000 N   0  0  0  0  0  0  0  0  0  0  0  0
   -2.2447    8.7789    0.0000 C   0  0  0  0  0  0  0  0  0  0  0  0
   -2.7082   10.2055    0.0000 O   0  0  0  0  0  0  0  0  0  0  0  0
   -3.1264    7.5654    0.0000 N   0  0  0  0  0  0  0  0  0  0  0  0
   -4.6264    7.5654    0.0000 C   0  0  0  0  0  0  0  0  0  0  0  0
   -5.3764    6.2664    0.0000 C   0  0  0  0  0  0  0  0  0  0  0  0
   -6.8764    6.2664    0.0000 C   0  0  0  0  0  0  0  0  0  0  0  0
   -7.6264    7.5654    0.0000 F   0  0  0  0  0  0  0  0  0  0  0  0
   -7.6264    4.9673    0.0000 C   0  0  0  0  0  0  0  0  0  0  0  0
   -6.8764    3.6683    0.0000 C   0  0  0  0  0  0  0  0  0  0  0  0
   -5.3764    3.6683    0.0000 C   0  0  0  0  0  0  0  0  0  0  0  0
   -4.6264    4.9673    0.0000 C   0  0  0  0  0  0  0  0  0  0  0  0
   -3.4475    4.6733    0.0000 F   0  0  0  0  0  0  0  0  0  0  0  0
   -2.2447    6.3519    0.0000 C   0  0  0  0  0  0  0  0  0  0  0  0
   -2.5565    4.8847    0.0000 N   0  0  0  0  0  0  0  0  0  0  0  0
   -0.7500    1.2990    0.0000 C   0  0  0  0  0  0  0  0  0  0  0  0
    0.7500    1.2990    0.0000 C   0  0  0  0  0  0  0  0  0  0  0  0
  1  2  3  0
  2  3  1  0
  3  4  2  0
  4  5  1  0
  5  6  2  0
  6  7  1  0
  7  8  2  0
  8  9  1  0
  9 10  1  0
 10 11  2  0
 11 12  1  0
 12 13  2  0
 13 14  1  0
 14 15  1  0
 15 16  2  0
 15 17  1  0
 17 18  1  0
 18 19  1  0
 19 20  2  0
 20 21  1  0
 20 22  1  0
 22 23  2  0
 23 24  1  0
 24 25  2  0
 25 26  1  0
 17 27  1  0
 27 28  2  0
  9 29  1  0
 29 30  2  0
 30  3  1  0
 29  6  1  0
 28 10  1  0
 27 13  1  0
 25 19  1  0
M  END
>  <Compound_ID>  (23) 
CHEMBL1079523

>  <Active>  (23) 
1

>  <Smiles>  (23) 
N#Cc1ccc2ncn(-c3ncc4[nH]c(=O)n(Cc5c(F)cccc5F)c4n3)c2c1

>  <canonical_smi>  (23) 
N#Cc1ccc2ncn(-c3ncc4[nH]c(=O)n(Cc5c(F)cccc5F)c4n3)c2c1

>  <Set>  (23) 
G1 active

>  <Set_type>  (23) 
G1

>  <MW>  (23) 
403.35

>  <HBD>  (23) 
1

>  <HBA>  (23) 
5

>  <NRB>  (23) 
3

>  <NR>  (23) 
5

>  <NAR>  (23) 
5

>  <PSA>  (23) 
105.18

>  <Standard Type>  (23) 
nan

>  <Standard Relation>  (23) 
nan

>  <Standard Units>  (23) 
nan

>  <Standard Value>  (23) 
nan

>  <Assay ChEMBL ID>  (23) 
nan

>  <Assay Description>  (23) 
nan

>  <BAO Label>  (23) 
nan

$$$$

     RDKit          2D

 27 31  0  0  0  0  0  0  0  0999 V2000
   -3.1965   -1.7857    0.0000 O   0  0  0  0  0  0  0  0  0  0  0  0
   -1.8107   -2.3597    0.0000 C   0  0  0  0  0  0  0  0  0  0  0  0
   -1.8107   -3.8597    0.0000 N   0  0  0  0  0  0  0  0  0  0  0  0
   -0.7500   -4.9204    0.0000 C   0  0  0  0  0  0  0  0  0  0  0  0
   -1.3240   -6.3062    0.0000 C   0  0  0  0  0  0  0  0  0  0  0  0
   -2.8112   -6.5020    0.0000 C   0  0  0  0  0  0  0  0  0  0  0  0
   -3.3852   -7.8878    0.0000 C   0  0  0  0  0  0  0  0  0  0  0  0
   -2.4721   -9.0778    0.0000 C   0  0  0  0  0  0  0  0  0  0  0  0
   -3.0461  -10.4636    0.0000 O   0  0  0  0  0  0  0  0  0  0  0  0
   -0.9849   -8.8820    0.0000 C   0  0  0  0  0  0  0  0  0  0  0  0
   -0.4109   -7.4962    0.0000 C   0  0  0  0  0  0  0  0  0  0  0  0
    1.0763   -7.3004    0.0000 F   0  0  0  0  0  0  0  0  0  0  0  0
    0.7500   -4.9204    0.0000 C   0  0  0  0  0  0  0  0  0  0  0  0
    1.4310   -6.2569    0.0000 C   0  0  0  0  0  0  0  0  0  0  0  0
    2.9125   -6.0222    0.0000 N   0  0  0  0  0  0  0  0  0  0  0  0
    3.1472   -4.5407    0.0000 C   0  0  0  0  0  0  0  0  0  0  0  0
    4.4471   -3.7912    0.0000 N   0  0  0  0  0  0  0  0  0  0  0  0
    4.4078   -2.2917    0.0000 C   0  0  0  0  0  0  0  0  0  0  0  0
    3.0896   -1.5760    0.0000 C   0  0  0  0  0  0  0  0  0  0  0  0
    1.8107   -2.3597    0.0000 C   0  0  0  0  0  0  0  0  0  0  0  0
    1.8107   -3.8597    0.0000 C   0  0  0  0  0  0  0  0  0  0  0  0
    0.7500   -1.2990    0.0000 C   0  0  0  0  0  0  0  0  0  0  0  0
    1.5000    0.0000    0.0000 C   0  0  0  0  0  0  0  0  0  0  0  0
    0.7500    1.2990    0.0000 C   0  0  0  0  0  0  0  0  0  0  0  0
   -0.7500    1.2990    0.0000 C   0  0  0  0  0  0  0  0  0  0  0  0
   -1.5000    0.0000    0.0000 C   0  0  0  0  0  0  0  0  0  0  0  0
   -0.7500   -1.2990    0.0000 C   0  0  0  0  0  0  0  0  0  0  0  0
  1  2  2  0
  2  3  1  0
  3  4  1  0
  4  5  1  0
  5  6  2  0
  6  7  1  0
  7  8  2  0
  8  9  1  0
  8 10  1  0
 10 11  2  0
 11 12  1  0
  4 13  1  0
 13 14  2  0
 14 15  1  0
 15 16  1  0
 16 17  1  0
 17 18  2  0
 18 19  1  0
 19 20  2  0
 20 21  1  0
 20 22  1  0
 22 23  2  0
 23 24  1  0
 24 25  2  0
 25 26  1  0
 26 27  2  0
 27  2  1  0
 11  5  1  0
 21 13  1  0
 27 22  1  0
 21 16  2  0
M  END
>  <Compound_ID>  (24) 
CHEMBL589633

>  <Active>  (24) 
1

>  <Smiles>  (24) 
O=C1NC(c2ccc(O)cc2F)c2c[nH]c3nccc(c23)-c2ccccc21

>  <canonical_smi>  (24) 
O=C1NC(c2ccc(O)cc2F)c2c[nH]c3nccc(c23)-c2ccccc21

>  <Set>  (24) 
G1 active

>  <Set_type>  (24) 
G1

>  <MW>  (24) 
359.36

>  <HBD>  (24) 
3

>  <HBA>  (24) 
3

>  <NRB>  (24) 
1

>  <NR>  (24) 
5

>  <NAR>  (24) 
4

>  <PSA>  (24) 
78.01

>  <Standard Type>  (24) 
nan

>  <Standard Relation>  (24) 
nan

>  <Standard Units>  (24) 
nan

>  <Standard Value>  (24) 
nan

>  <Assay ChEMBL ID>  (24) 
nan

>  <Assay Description>  (24) 
nan

>  <BAO Label>  (24) 
nan

$$$$

     RDKit          2D

 25 27  0  0  0  0  0  0  0  0999 V2000
    6.0000   -9.2942    0.0000 C   0  0  0  0  0  0  0  0  0  0  0  0
    6.0000   -7.7942    0.0000 C   0  0  0  0  0  0  0  0  0  0  0  0
    6.0000   -6.2942    0.0000 C   0  0  0  0  0  0  0  0  0  0  0  0
    7.5000   -7.7942    0.0000 C   0  0  0  0  0  0  0  0  0  0  0  0
    4.5000   -7.7942    0.0000 N   0  0  0  0  0  0  0  0  0  0  0  0
    3.7500   -6.4952    0.0000 S   0  0  0  0  0  0  0  0  0  0  0  0
    2.4510   -7.2452    0.0000 O   0  0  0  0  0  0  0  0  0  0  0  0
    5.0490   -5.7452    0.0000 O   0  0  0  0  0  0  0  0  0  0  0  0
    3.0000   -5.1962    0.0000 C   0  0  0  0  0  0  0  0  0  0  0  0
    1.5000   -5.1962    0.0000 C   0  0  0  0  0  0  0  0  0  0  0  0
    0.7500   -3.8971    0.0000 C   0  0  0  0  0  0  0  0  0  0  0  0
    1.5000   -2.5981    0.0000 C   0  0  0  0  0  0  0  0  0  0  0  0
    0.7500   -1.2990    0.0000 C   0  0  0  0  0  0  0  0  0  0  0  0
    1.5000    0.0000    0.0000 C   0  0  0  0  0  0  0  0  0  0  0  0
    0.7500    1.2990    0.0000 C   0  0  0  0  0  0  0  0  0  0  0  0
   -0.7500    1.2990    0.0000 C   0  0  0  0  0  0  0  0  0  0  0  0
   -1.7537    2.4138    0.0000 N   0  0  0  0  0  0  0  0  0  0  0  0
   -3.1240    1.8037    0.0000 N   0  0  0  0  0  0  0  0  0  0  0  0
   -2.9672    0.3119    0.0000 C   0  0  0  0  0  0  0  0  0  0  0  0
   -4.0819   -0.6918    0.0000 N   0  0  0  0  0  0  0  0  0  0  0  0
   -1.5000    0.0000    0.0000 C   0  0  0  0  0  0  0  0  0  0  0  0
   -0.7500   -1.2990    0.0000 C   0  0  0  0  0  0  0  0  0  0  0  0
    3.0000   -2.5981    0.0000 C   0  0  0  0  0  0  0  0  0  0  0  0
    3.7500   -1.2990    0.0000 Cl  0  0  0  0  0  0  0  0  0  0  0  0
    3.7500   -3.8971    0.0000 C   0  0  0  0  0  0  0  0  0  0  0  0
  1  2  1  0
  2  3  1  0
  2  4  1  0
  2  5  1  0
  5  6  1  0
  6  7  2  0
  6  8  2  0
  6  9  1  0
  9 10  2  0
 10 11  1  0
 11 12  2  0
 12 13  1  0
 13 14  2  0
 14 15  1  0
 15 16  2  0
 16 17  1  0
 17 18  1  0
 18 19  2  0
 19 20  1  0
 19 21  1  0
 21 22  2  0
 12 23  1  0
 23 24  1  0
 23 25  2  0
 25  9  1  0
 22 13  1  0
 21 16  1  0
M  END
>  <Compound_ID>  (25) 
CHEMBL482189

>  <Active>  (25) 
1

>  <Smiles>  (25) 
CC(C)(C)NS(=O)(=O)c1ccc(-c2ccc3[nH]nc(N)c3c2)c(Cl)c1

>  <canonical_smi>  (25) 
CC(C)(C)NS(=O)(=O)c1ccc(-c2ccc3[nH]nc(N)c3c2)c(Cl)c1

>  <Set>  (25) 
G1 active

>  <Set_type>  (25) 
G1

>  <MW>  (25) 
378.89

>  <HBD>  (25) 
3

>  <HBA>  (25) 
4

>  <NRB>  (25) 
3

>  <NR>  (25) 
3

>  <NAR>  (25) 
3

>  <PSA>  (25) 
100.87

>  <Standard Type>  (25) 
nan

>  <Standard Relation>  (25) 
nan

>  <Standard Units>  (25) 
nan

>  <Standard Value>  (25) 
nan

>  <Assay ChEMBL ID>  (25) 
nan

>  <Assay Description>  (25) 
nan

>  <BAO Label>  (25) 
nan

$$$$

     RDKit          2D

 24 27  0  0  0  0  0  0  0  0999 V2000
   -4.5577    0.2855    0.0000 C   0  0  0  0  0  0  0  0  0  0  0  0
   -5.9843   -0.1781    0.0000 C   0  0  0  0  0  0  0  0  0  0  0  0
   -6.2961   -1.6453    0.0000 N   0  0  0  0  0  0  0  0  0  0  0  0
   -5.1814   -2.6490    0.0000 C   0  0  0  0  0  0  0  0  0  0  0  0
   -5.4933   -4.1162    0.0000 N   0  0  0  0  0  0  0  0  0  0  0  0
   -4.3786   -5.1199    0.0000 C   0  0  0  0  0  0  0  0  0  0  0  0
   -2.9520   -4.6564    0.0000 C   0  0  0  0  0  0  0  0  0  0  0  0
   -2.6401   -3.1891    0.0000 C   0  0  0  0  0  0  0  0  0  0  0  0
   -1.2135   -2.7256    0.0000 N   0  0  0  0  0  0  0  0  0  0  0  0
   -0.0000   -3.6073    0.0000 C   0  0  0  0  0  0  0  0  0  0  0  0
    1.2135   -2.7256    0.0000 N   0  0  0  0  0  0  0  0  0  0  0  0
    0.7500   -1.2990    0.0000 C   0  0  0  0  0  0  0  0  0  0  0  0
    1.5000    0.0000    0.0000 C   0  0  0  0  0  0  0  0  0  0  0  0
    0.7500    1.2990    0.0000 C   0  0  0  0  0  0  0  0  0  0  0  0
   -0.7500    1.2990    0.0000 N   0  0  0  0  0  0  0  0  0  0  0  0
   -1.5000    0.0000    0.0000 C   0  0  0  0  0  0  0  0  0  0  0  0
   -0.7500   -1.2990    0.0000 C   0  0  0  0  0  0  0  0  0  0  0  0
   -3.7548   -2.1855    0.0000 N   0  0  0  0  0  0  0  0  0  0  0  0
   -7.0990    0.8256    0.0000 C   0  0  0  0  0  0  0  0  0  0  0  0
   -8.5256    0.3621    0.0000 C   0  0  0  0  0  0  0  0  0  0  0  0
   -9.6403    1.3658    0.0000 C   0  0  0  0  0  0  0  0  0  0  0  0
   -9.3284    2.8330    0.0000 C   0  0  0  0  0  0  0  0  0  0  0  0
   -7.9018    3.2966    0.0000 C   0  0  0  0  0  0  0  0  0  0  0  0
   -6.7871    2.2929    0.0000 C   0  0  0  0  0  0  0  0  0  0  0  0
  2  1  1  1
  2  3  1  0
  3  4  1  0
  4  5  2  0
  5  6  1  0
  6  7  2  0
  7  8  1  0
  8  9  1  0
  9 10  1  0
 10 11  2  0
 11 12  1  0
 12 13  2  0
 13 14  1  0
 14 15  2  0
 15 16  1  0
 16 17  2  0
  8 18  2  0
  2 19  1  0
 19 20  2  0
 20 21  1  0
 21 22  2  0
 22 23  1  0
 23 24  2  0
 18  4  1  0
 24 19  1  0
 17  9  1  0
 17 12  1  0
M  END
>  <Compound_ID>  (26) 
CHEMBL375076

>  <Active>  (26) 
1

>  <Smiles>  (26) 
C[C@@H](Nc1nccc(-n2cnc3ccncc32)n1)c1ccccc1

>  <canonical_smi>  (26) 
C[C@@H](Nc1nccc(-n2cnc3ccncc32)n1)c1ccccc1

>  <Set>  (26) 
G1 active

>  <Set_type>  (26) 
G1

>  <MW>  (26) 
316.37

>  <HBD>  (26) 
1

>  <HBA>  (26) 
5

>  <NRB>  (26) 
4

>  <NR>  (26) 
4

>  <NAR>  (26) 
4

>  <PSA>  (26) 
68.52

>  <Standard Type>  (26) 
nan

>  <Standard Relation>  (26) 
nan

>  <Standard Units>  (26) 
nan

>  <Standard Value>  (26) 
nan

>  <Assay ChEMBL ID>  (26) 
nan

>  <Assay Description>  (26) 
nan

>  <BAO Label>  (26) 
nan

$$$$

     RDKit          2D

 24 27  0  0  0  0  0  0  0  0999 V2000
   -4.5577    0.2855    0.0000 C   0  0  0  0  0  0  0  0  0  0  0  0
   -5.9843   -0.1781    0.0000 C   0  0  0  0  0  0  0  0  0  0  0  0
   -6.2961   -1.6453    0.0000 N   0  0  0  0  0  0  0  0  0  0  0  0
   -5.1814   -2.6490    0.0000 C   0  0  0  0  0  0  0  0  0  0  0  0
   -5.4933   -4.1162    0.0000 C   0  0  0  0  0  0  0  0  0  0  0  0
   -4.3786   -5.1199    0.0000 C   0  0  0  0  0  0  0  0  0  0  0  0
   -2.9520   -4.6564    0.0000 N   0  0  0  0  0  0  0  0  0  0  0  0
   -2.6401   -3.1891    0.0000 C   0  0  0  0  0  0  0  0  0  0  0  0
   -1.2135   -2.7256    0.0000 N   0  0  0  0  0  0  0  0  0  0  0  0
   -0.0000   -3.6073    0.0000 C   0  0  0  0  0  0  0  0  0  0  0  0
    1.2135   -2.7256    0.0000 N   0  0  0  0  0  0  0  0  0  0  0  0
    0.7500   -1.2990    0.0000 C   0  0  0  0  0  0  0  0  0  0  0  0
    1.5000    0.0000    0.0000 C   0  0  0  0  0  0  0  0  0  0  0  0
    0.7500    1.2990    0.0000 N   0  0  0  0  0  0  0  0  0  0  0  0
   -0.7500    1.2990    0.0000 C   0  0  0  0  0  0  0  0  0  0  0  0
   -1.5000    0.0000    0.0000 C   0  0  0  0  0  0  0  0  0  0  0  0
   -0.7500   -1.2990    0.0000 C   0  0  0  0  0  0  0  0  0  0  0  0
   -3.7548   -2.1855    0.0000 N   0  0  0  0  0  0  0  0  0  0  0  0
   -7.0990    0.8256    0.0000 C   0  0  0  0  0  0  0  0  0  0  0  0
   -8.5256    0.3621    0.0000 C   0  0  0  0  0  0  0  0  0  0  0  0
   -9.6403    1.3658    0.0000 C   0  0  0  0  0  0  0  0  0  0  0  0
   -9.3284    2.8330    0.0000 C   0  0  0  0  0  0  0  0  0  0  0  0
   -7.9018    3.2966    0.0000 C   0  0  0  0  0  0  0  0  0  0  0  0
   -6.7871    2.2929    0.0000 C   0  0  0  0  0  0  0  0  0  0  0  0
  2  1  1  6
  2  3  1  0
  3  4  1  0
  4  5  2  0
  5  6  1  0
  6  7  2  0
  7  8  1  0
  8  9  1  0
  9 10  1  0
 10 11  2  0
 11 12  1  0
 12 13  2  0
 13 14  1  0
 14 15  2  0
 15 16  1  0
 16 17  2  0
  8 18  2  0
  2 19  1  0
 19 20  2  0
 20 21  1  0
 21 22  2  0
 22 23  1  0
 23 24  2  0
 18  4  1  0
 24 19  1  0
 17  9  1  0
 17 12  1  0
M  END
>  <Compound_ID>  (27) 
CHEMBL220585

>  <Active>  (27) 
1

>  <Smiles>  (27) 
C[C@H](Nc1ccnc(-n2cnc3cnccc32)n1)c1ccccc1

>  <canonical_smi>  (27) 
C[C@H](Nc1ccnc(-n2cnc3cnccc32)n1)c1ccccc1

>  <Set>  (27) 
G1 active

>  <Set_type>  (27) 
G1

>  <MW>  (27) 
316.37

>  <HBD>  (27) 
1

>  <HBA>  (27) 
5

>  <NRB>  (27) 
4

>  <NR>  (27) 
4

>  <NAR>  (27) 
4

>  <PSA>  (27) 
68.52

>  <Standard Type>  (27) 
nan

>  <Standard Relation>  (27) 
nan

>  <Standard Units>  (27) 
nan

>  <Standard Value>  (27) 
nan

>  <Assay ChEMBL ID>  (27) 
nan

>  <Assay Description>  (27) 
nan

>  <BAO Label>  (27) 
nan

$$$$

     RDKit          2D

 32 33  0  0  0  0  0  0  0  0999 V2000
   -1.5000   -5.1962    0.0000 C   0  0  0  0  0  0  0  0  0  0  0  0
   -0.7500   -3.8971    0.0000 C   0  0  0  0  0  0  0  0  0  0  0  0
    0.7500   -3.8971    0.0000 C   0  0  0  0  0  0  0  0  0  0  0  0
    1.5000   -2.5981    0.0000 C   0  0  0  0  0  0  0  0  0  0  0  0
    3.0000   -2.5981    0.0000 C   0  0  0  0  0  0  0  0  0  0  0  0
    3.7500   -3.8971    0.0000 C   0  0  0  0  0  0  0  0  0  0  0  0
    0.7500   -1.2990    0.0000 C   0  0  0  0  0  0  0  0  0  0  0  0
    1.5000    0.0000    0.0000 C   0  0  0  0  0  0  0  0  0  0  0  0
    0.7500    1.2990    0.0000 C   0  0  0  0  0  0  0  0  0  0  0  0
   -0.7500    1.2990    0.0000 C   0  0  0  0  0  0  0  0  0  0  0  0
   -1.5000    2.5981    0.0000 O   0  0  0  0  0  0  0  0  0  0  0  0
   -1.5000    0.0000    0.0000 C   0  0  0  0  0  0  0  0  0  0  0  0
   -3.0000    0.0000    0.0000 C   0  0  0  0  0  0  0  0  0  0  0  0
   -3.7500    1.2990    0.0000 N   0  0  0  0  0  0  0  0  0  0  0  0
   -5.2500    1.2990    0.0000 C   0  0  0  0  0  0  0  0  0  0  0  0
   -6.0000    2.5981    0.0000 C   0  0  0  0  0  0  0  0  0  0  0  0
   -3.0000    2.5981    0.0000 C   0  0  0  0  0  0  0  0  0  0  0  0
   -3.7500    3.8971    0.0000 C   0  0  0  0  0  0  0  0  0  0  0  0
   -0.7500   -1.2990    0.0000 C   0  0  0  0  0  0  0  0  0  0  0  0
    1.5000   -5.1962    0.0000 C   0  0  0  0  0  0  0  0  0  0  0  0
    0.7500   -6.4952    0.0000 C   0  0  0  0  0  0  0  0  0  0  0  0
    1.5000   -7.7942    0.0000 C   0  0  0  0  0  0  0  0  0  0  0  0
    3.0000   -7.7942    0.0000 C   0  0  0  0  0  0  0  0  0  0  0  0
    3.7500   -9.0933    0.0000 O   0  0  0  0  0  0  0  0  0  0  0  0
    3.7500   -6.4952    0.0000 C   0  0  0  0  0  0  0  0  0  0  0  0
    5.2500   -6.4952    0.0000 C   0  0  0  0  0  0  0  0  0  0  0  0
    6.0000   -7.7942    0.0000 N   0  0  0  0  0  0  0  0  0  0  0  0
    7.5000   -7.7942    0.0000 C   0  0  0  0  0  0  0  0  0  0  0  0
    8.2500   -9.0933    0.0000 C   0  0  0  0  0  0  0  0  0  0  0  0
    5.2500   -9.0933    0.0000 C   0  0  0  0  0  0  0  0  0  0  0  0
    6.0000  -10.3923    0.0000 C   0  0  0  0  0  0  0  0  0  0  0  0
    3.0000   -5.1962    0.0000 C   0  0  0  0  0  0  0  0  0  0  0  0
  1  2  1  0
  2  3  1  0
  3  4  2  0
  4  5  1  0
  5  6  1  0
  4  7  1  0
  7  8  2  0
  8  9  1  0
  9 10  2  0
 10 11  1  0
 10 12  1  0
 12 13  1  0
 13 14  1  0
 14 15  1  0
 15 16  1  0
 14 17  1  0
 17 18  1  0
 12 19  2  0
  3 20  1  0
 20 21  2  0
 21 22  1  0
 22 23  2  0
 23 24  1  0
 23 25  1  0
 25 26  1  0
 26 27  1  0
 27 28  1  0
 28 29  1  0
 27 30  1  0
 30 31  1  0
 25 32  2  0
 19  7  1  0
 32 20  1  0
M  END
>  <Compound_ID>  (28) 
CHEMBL559626

>  <Active>  (28) 
1

>  <Smiles>  (28) 
CC/C(=C(/CC)c1ccc(O)c(CN(CC)CC)c1)c1ccc(O)c(CN(CC)CC)c1

>  <canonical_smi>  (28) 
CC/C(=C(/CC)c1ccc(O)c(CN(CC)CC)c1)c1ccc(O)c(CN(CC)CC)c1

>  <Set>  (28) 
G1 active

>  <Set_type>  (28) 
G1

>  <MW>  (28) 
438.66

>  <HBD>  (28) 
2

>  <HBA>  (28) 
4

>  <NRB>  (28) 
12

>  <NR>  (28) 
2

>  <NAR>  (28) 
2

>  <PSA>  (28) 
46.94

>  <Standard Type>  (28) 
nan

>  <Standard Relation>  (28) 
nan

>  <Standard Units>  (28) 
nan

>  <Standard Value>  (28) 
nan

>  <Assay ChEMBL ID>  (28) 
nan

>  <Assay Description>  (28) 
nan

>  <BAO Label>  (28) 
nan

$$$$

     RDKit          2D

 30 34  0  0  0  0  0  0  0  0999 V2000
   -4.5577    0.2855    0.0000 C   0  0  0  0  0  0  0  0  0  0  0  0
   -5.9843   -0.1781    0.0000 C   0  0  0  0  0  0  0  0  0  0  0  0
   -6.2961   -1.6453    0.0000 N   0  0  0  0  0  0  0  0  0  0  0  0
   -5.1814   -2.6490    0.0000 C   0  0  0  0  0  0  0  0  0  0  0  0
   -5.4933   -4.1162    0.0000 C   0  0  0  0  0  0  0  0  0  0  0  0
   -4.3786   -5.1199    0.0000 C   0  0  0  0  0  0  0  0  0  0  0  0
   -4.6904   -6.5871    0.0000 C   0  0  0  0  0  0  0  0  0  0  0  0
   -3.6867   -7.7018    0.0000 C   0  0  0  0  0  0  0  0  0  0  0  0
   -4.4367   -9.0009    0.0000 N   0  0  0  0  0  0  0  0  0  0  0  0
   -5.9040   -8.6890    0.0000 N   0  0  0  0  0  0  0  0  0  0  0  0
   -7.0187   -9.6927    0.0000 C   0  0  0  0  0  0  0  0  0  0  0  0
   -6.0607   -7.1972    0.0000 C   0  0  0  0  0  0  0  0  0  0  0  0
   -2.9520   -4.6564    0.0000 N   0  0  0  0  0  0  0  0  0  0  0  0
   -2.6401   -3.1891    0.0000 C   0  0  0  0  0  0  0  0  0  0  0  0
   -1.2135   -2.7256    0.0000 N   0  0  0  0  0  0  0  0  0  0  0  0
   -0.0000   -3.6073    0.0000 C   0  0  0  0  0  0  0  0  0  0  0  0
    1.2135   -2.7256    0.0000 N   0  0  0  0  0  0  0  0  0  0  0  0
    0.7500   -1.2990    0.0000 C   0  0  0  0  0  0  0  0  0  0  0  0
    1.5000    0.0000    0.0000 C   0  0  0  0  0  0  0  0  0  0  0  0
    0.7500    1.2990    0.0000 C   0  0  0  0  0  0  0  0  0  0  0  0
   -0.7500    1.2990    0.0000 N   0  0  0  0  0  0  0  0  0  0  0  0
   -1.5000    0.0000    0.0000 C   0  0  0  0  0  0  0  0  0  0  0  0
   -0.7500   -1.2990    0.0000 C   0  0  0  0  0  0  0  0  0  0  0  0
   -3.7548   -2.1855    0.0000 N   0  0  0  0  0  0  0  0  0  0  0  0
   -7.0990    0.8256    0.0000 C   0  0  0  0  0  0  0  0  0  0  0  0
   -8.5256    0.3621    0.0000 C   0  0  0  0  0  0  0  0  0  0  0  0
   -9.6403    1.3658    0.0000 C   0  0  0  0  0  0  0  0  0  0  0  0
   -9.3284    2.8330    0.0000 C   0  0  0  0  0  0  0  0  0  0  0  0
   -7.9018    3.2966    0.0000 C   0  0  0  0  0  0  0  0  0  0  0  0
   -6.7871    2.2929    0.0000 C   0  0  0  0  0  0  0  0  0  0  0  0
  2  1  1  6
  2  3  1  0
  3  4  1  0
  4  5  2  0
  5  6  1  0
  6  7  1  0
  7  8  1  0
  8  9  2  0
  9 10  1  0
 10 11  1  0
 10 12  1  0
  6 13  2  0
 13 14  1  0
 14 15  1  0
 15 16  1  0
 16 17  2  0
 17 18  1  0
 18 19  2  0
 19 20  1  0
 20 21  2  0
 21 22  1  0
 22 23  2  0
 14 24  2  0
  2 25  1  0
 25 26  2  0
 26 27  1  0
 27 28  2  0
 28 29  1  0
 29 30  2  0
 24  4  1  0
 30 25  1  0
 12  7  2  0
 23 15  1  0
 23 18  1  0
M  END
>  <Compound_ID>  (29) 
CHEMBL221376

>  <Active>  (29) 
1

>  <Smiles>  (29) 
C[C@H](Nc1cc(-c2cnn(C)c2)nc(-n2cnc3ccncc32)n1)c1ccccc1

>  <canonical_smi>  (29) 
C[C@H](Nc1cc(-c2cnn(C)c2)nc(-n2cnc3ccncc32)n1)c1ccccc1

>  <Set>  (29) 
G1 active

>  <Set_type>  (29) 
G1

>  <MW>  (29) 
396.46

>  <HBD>  (29) 
1

>  <HBA>  (29) 
6

>  <NRB>  (29) 
5

>  <NR>  (29) 
5

>  <NAR>  (29) 
5

>  <PSA>  (29) 
86.34

>  <Standard Type>  (29) 
nan

>  <Standard Relation>  (29) 
nan

>  <Standard Units>  (29) 
nan

>  <Standard Value>  (29) 
nan

>  <Assay ChEMBL ID>  (29) 
nan

>  <Assay Description>  (29) 
nan

>  <BAO Label>  (29) 
nan

$$$$

     RDKit          2D

 28 32  0  0  0  0  0  0  0  0999 V2000
   -1.8250   -8.1517    0.0000 N   0  0  0  0  0  0  0  0  0  0  0  0
   -3.1240   -7.4017    0.0000 C   0  0  0  0  0  0  0  0  0  0  0  0
   -4.4231   -6.6517    0.0000 C   0  0  0  0  0  0  0  0  0  0  0  0
   -5.7221   -7.4017    0.0000 C   0  0  0  0  0  0  0  0  0  0  0  0
   -7.0211   -6.6517    0.0000 C   0  0  0  0  0  0  0  0  0  0  0  0
   -7.0211   -5.1517    0.0000 C   0  0  0  0  0  0  0  0  0  0  0  0
   -5.7221   -4.4017    0.0000 C   0  0  0  0  0  0  0  0  0  0  0  0
   -5.7221   -2.9017    0.0000 C   0  0  0  0  0  0  0  0  0  0  0  0
   -5.7221   -1.4017    0.0000 N   0  0  0  0  0  0  0  0  0  0  0  0
   -4.4231   -5.1517    0.0000 C   0  0  0  0  0  0  0  0  0  0  0  0
   -3.1240   -4.4017    0.0000 C   0  0  0  0  0  0  0  0  0  0  0  0
   -1.7537   -5.0118    0.0000 N   0  0  0  0  0  0  0  0  0  0  0  0
   -0.7500   -3.8971    0.0000 C   0  0  0  0  0  0  0  0  0  0  0  0
    0.7500   -3.8971    0.0000 C   0  0  0  0  0  0  0  0  0  0  0  0
    1.5000   -5.1962    0.0000 C   0  0  0  0  0  0  0  0  0  0  0  0
    3.0000   -5.1962    0.0000 C   0  0  0  0  0  0  0  0  0  0  0  0
    3.7500   -3.8971    0.0000 C   0  0  0  0  0  0  0  0  0  0  0  0
    5.2500   -3.8971    0.0000 Cl  0  0  0  0  0  0  0  0  0  0  0  0
    3.0000   -2.5981    0.0000 C   0  0  0  0  0  0  0  0  0  0  0  0
    1.5000   -2.5981    0.0000 C   0  0  0  0  0  0  0  0  0  0  0  0
    0.7500   -1.2990    0.0000 C   0  0  0  0  0  0  0  0  0  0  0  0
    1.5000    0.0000    0.0000 C   0  0  0  0  0  0  0  0  0  0  0  0
    0.7500    1.2990    0.0000 C   0  0  0  0  0  0  0  0  0  0  0  0
   -0.7500    1.2990    0.0000 C   0  0  0  0  0  0  0  0  0  0  0  0
   -1.5000    0.0000    0.0000 C   0  0  0  0  0  0  0  0  0  0  0  0
   -0.7500   -1.2990    0.0000 C   0  0  0  0  0  0  0  0  0  0  0  0
   -1.5000   -2.5981    0.0000 C   0  0  0  0  0  0  0  0  0  0  0  0
   -2.9672   -2.9099    0.0000 N   0  0  0  0  0  0  0  0  0  0  0  0
  1  2  3  0
  2  3  1  0
  3  4  2  0
  4  5  1  0
  5  6  2  0
  6  7  1  0
  7  8  1  0
  8  9  3  0
  7 10  2  0
 10 11  1  0
 11 12  2  0
 12 13  1  0
 13 14  2  0
 14 15  1  0
 15 16  2  0
 16 17  1  0
 17 18  1  0
 17 19  2  0
 19 20  1  0
 20 21  2  0
 21 22  1  0
 22 23  2  0
 23 24  1  0
 24 25  2  0
 25 26  1  0
 26 27  2  0
 27 28  1  0
 10  3  1  0
 28 11  1  0
 27 13  1  0
 20 14  1  0
 26 21  1  0
M  END
>  <Compound_ID>  (30) 
CHEMBL412099

>  <Active>  (30) 
1

>  <Smiles>  (30) 
N#Cc1cccc(C#N)c1-c1nc2c3ccc(Cl)cc3c3ccccc3c2[nH]1

>  <canonical_smi>  (30) 
N#Cc1cccc(C#N)c1-c1nc2c3ccc(Cl)cc3c3ccccc3c2[nH]1

>  <Set>  (30) 
G1 active

>  <Set_type>  (30) 
G1

>  <MW>  (30) 
378.82

>  <HBD>  (30) 
1

>  <HBA>  (30) 
3

>  <NRB>  (30) 
1

>  <NR>  (30) 
5

>  <NAR>  (30) 
5

>  <PSA>  (30) 
76.26

>  <Standard Type>  (30) 
nan

>  <Standard Relation>  (30) 
nan

>  <Standard Units>  (30) 
nan

>  <Standard Value>  (30) 
nan

>  <Assay ChEMBL ID>  (30) 
nan

>  <Assay Description>  (30) 
nan

>  <BAO Label>  (30) 
nan

$$$$

     RDKit          2D

 30 34  0  0  0  0  0  0  0  0999 V2000
   -9.6403    1.3658    0.0000 C   0  0  0  0  0  0  0  0  0  0  0  0
   -8.5256    0.3621    0.0000 N   0  0  0  0  0  0  0  0  0  0  0  0
   -7.0990    0.8256    0.0000 C   0  0  0  0  0  0  0  0  0  0  0  0
   -5.9843   -0.1781    0.0000 C   0  0  0  0  0  0  0  0  0  0  0  0
   -6.2961   -1.6453    0.0000 N   0  0  0  0  0  0  0  0  0  0  0  0
   -5.1814   -2.6490    0.0000 C   0  0  0  0  0  0  0  0  0  0  0  0
   -5.4933   -4.1162    0.0000 C   0  0  0  0  0  0  0  0  0  0  0  0
   -4.3786   -5.1199    0.0000 C   0  0  0  0  0  0  0  0  0  0  0  0
   -4.6904   -6.5871    0.0000 N   0  0  0  0  0  0  0  0  0  0  0  0
   -6.1170   -7.0506    0.0000 C   0  0  0  0  0  0  0  0  0  0  0  0
   -7.2317   -6.0469    0.0000 C   0  0  0  0  0  0  0  0  0  0  0  0
   -8.6583   -6.5105    0.0000 C   0  0  0  0  0  0  0  0  0  0  0  0
   -8.9702   -7.9777    0.0000 C   0  0  0  0  0  0  0  0  0  0  0  0
   -7.8555   -8.9814    0.0000 C   0  0  0  0  0  0  0  0  0  0  0  0
   -6.4289   -8.5179    0.0000 C   0  0  0  0  0  0  0  0  0  0  0  0
   -5.3142   -9.5216    0.0000 Cl  0  0  0  0  0  0  0  0  0  0  0  0
   -2.9520   -4.6564    0.0000 N   0  0  0  0  0  0  0  0  0  0  0  0
   -2.6401   -3.1891    0.0000 C   0  0  0  0  0  0  0  0  0  0  0  0
   -1.2135   -2.7256    0.0000 N   0  0  0  0  0  0  0  0  0  0  0  0
   -0.0000   -3.6073    0.0000 C   0  0  0  0  0  0  0  0  0  0  0  0
    1.2135   -2.7256    0.0000 N   0  0  0  0  0  0  0  0  0  0  0  0
    0.7500   -1.2990    0.0000 C   0  0  0  0  0  0  0  0  0  0  0  0
    1.5000    0.0000    0.0000 C   0  0  0  0  0  0  0  0  0  0  0  0
    0.7500    1.2990    0.0000 C   0  0  0  0  0  0  0  0  0  0  0  0
   -0.7500    1.2990    0.0000 N   0  0  0  0  0  0  0  0  0  0  0  0
   -1.5000    0.0000    0.0000 C   0  0  0  0  0  0  0  0  0  0  0  0
   -0.7500   -1.2990    0.0000 C   0  0  0  0  0  0  0  0  0  0  0  0
   -3.7548   -2.1855    0.0000 N   0  0  0  0  0  0  0  0  0  0  0  0
   -7.7227   -2.1088    0.0000 C   0  0  0  0  0  0  0  0  0  0  0  0
   -8.8374   -1.1051    0.0000 C   0  0  0  0  0  0  0  0  0  0  0  0
  1  2  1  0
  2  3  1  0
  3  4  1  0
  4  5  1  0
  5  6  1  0
  6  7  2  0
  7  8  1  0
  8  9  1  0
  9 10  1  0
 10 11  2  0
 11 12  1  0
 12 13  2  0
 13 14  1  0
 14 15  2  0
 15 16  1  0
  8 17  2  0
 17 18  1  0
 18 19  1  0
 19 20  1  0
 20 21  2  0
 21 22  1  0
 22 23  2  0
 23 24  1  0
 24 25  2  0
 25 26  1  0
 26 27  2  0
 18 28  2  0
  5 29  1  0
 29 30  1  0
 30  2  1  0
 28  6  1  0
 15 10  1  0
 27 19  1  0
 27 22  1  0
M  END
>  <Compound_ID>  (31) 
CHEMBL376885

>  <Active>  (31) 
1

>  <Smiles>  (31) 
CN1CCN(c2cc(Nc3ccccc3Cl)nc(-n3cnc4ccncc43)n2)CC1

>  <canonical_smi>  (31) 
CN1CCN(c2cc(Nc3ccccc3Cl)nc(-n3cnc4ccncc43)n2)CC1

>  <Set>  (31) 
G1 active

>  <Set_type>  (31) 
G1

>  <MW>  (31) 
420.91

>  <HBD>  (31) 
1

>  <HBA>  (31) 
7

>  <NRB>  (31) 
4

>  <NR>  (31) 
5

>  <NAR>  (31) 
4

>  <PSA>  (31) 
75.0

>  <Standard Type>  (31) 
nan

>  <Standard Relation>  (31) 
nan

>  <Standard Units>  (31) 
nan

>  <Standard Value>  (31) 
nan

>  <Assay ChEMBL ID>  (31) 
nan

>  <Assay Description>  (31) 
nan

>  <BAO Label>  (31) 
nan

$$$$

     RDKit          2D

 23 25  0  0  0  0  0  0  0  0999 V2000
   -9.7730   -5.5068    0.0000 C   0  0  0  0  0  0  0  0  0  0  0  0
   -8.6583   -6.5105    0.0000 O   0  0  0  0  0  0  0  0  0  0  0  0
   -7.2317   -6.0469    0.0000 C   0  0  0  0  0  0  0  0  0  0  0  0
   -6.1170   -7.0506    0.0000 C   0  0  0  0  0  0  0  0  0  0  0  0
   -6.4289   -8.5179    0.0000 C   0  0  0  0  0  0  0  0  0  0  0  0
   -4.6904   -6.5871    0.0000 N   0  0  0  0  0  0  0  0  0  0  0  0
   -4.3786   -5.1199    0.0000 C   0  0  0  0  0  0  0  0  0  0  0  0
   -5.4933   -4.1162    0.0000 C   0  0  0  0  0  0  0  0  0  0  0  0
   -5.1814   -2.6490    0.0000 C   0  0  0  0  0  0  0  0  0  0  0  0
   -3.7548   -2.1855    0.0000 N   0  0  0  0  0  0  0  0  0  0  0  0
   -2.6401   -3.1891    0.0000 C   0  0  0  0  0  0  0  0  0  0  0  0
   -1.2135   -2.7256    0.0000 N   0  0  0  0  0  0  0  0  0  0  0  0
   -0.0000   -3.6073    0.0000 C   0  0  0  0  0  0  0  0  0  0  0  0
    1.2135   -2.7256    0.0000 N   0  0  0  0  0  0  0  0  0  0  0  0
    0.7500   -1.2990    0.0000 C   0  0  0  0  0  0  0  0  0  0  0  0
    1.5000    0.0000    0.0000 C   0  0  0  0  0  0  0  0  0  0  0  0
    0.7500    1.2990    0.0000 C   0  0  0  0  0  0  0  0  0  0  0  0
   -0.7500    1.2990    0.0000 C   0  0  0  0  0  0  0  0  0  0  0  0
   -1.5000    2.5981    0.0000 C   0  0  0  0  0  0  0  0  0  0  0  0
   -2.2500    3.8971    0.0000 N   0  0  0  0  0  0  0  0  0  0  0  0
   -1.5000    0.0000    0.0000 C   0  0  0  0  0  0  0  0  0  0  0  0
   -0.7500   -1.2990    0.0000 C   0  0  0  0  0  0  0  0  0  0  0  0
   -2.9520   -4.6564    0.0000 N   0  0  0  0  0  0  0  0  0  0  0  0
  1  2  1  0
  2  3  1  0
  3  4  1  0
  4  5  1  1
  4  6  1  0
  6  7  1  0
  7  8  2  0
  8  9  1  0
  9 10  2  0
 10 11  1  0
 11 12  1  0
 12 13  1  0
 13 14  2  0
 14 15  1  0
 15 16  2  0
 16 17  1  0
 17 18  2  0
 18 19  1  0
 19 20  3  0
 18 21  1  0
 21 22  2  0
 11 23  2  0
 23  7  1  0
 22 12  1  0
 22 15  1  0
M  END
>  <Compound_ID>  (32) 
CHEMBL221912

>  <Active>  (32) 
1

>  <Smiles>  (32) 
COC[C@H](C)Nc1ccnc(-n2cnc3ccc(C#N)cc32)n1

>  <canonical_smi>  (32) 
COC[C@H](C)Nc1ccnc(-n2cnc3ccc(C#N)cc32)n1

>  <Set>  (32) 
G1 active

>  <Set_type>  (32) 
G1

>  <MW>  (32) 
308.35

>  <HBD>  (32) 
1

>  <HBA>  (32) 
6

>  <NRB>  (32) 
5

>  <NR>  (32) 
3

>  <NAR>  (32) 
3

>  <PSA>  (32) 
88.65

>  <Standard Type>  (32) 
nan

>  <Standard Relation>  (32) 
nan

>  <Standard Units>  (32) 
nan

>  <Standard Value>  (32) 
nan

>  <Assay ChEMBL ID>  (32) 
nan

>  <Assay Description>  (32) 
nan

>  <BAO Label>  (32) 
nan

$$$$

     RDKit          2D

 34 36  0  0  0  0  0  0  0  0999 V2000
    9.7500   -3.8971    0.0000 C   0  0  0  0  0  0  0  0  0  0  0  0
    8.2500   -3.8971    0.0000 C   0  0  0  0  0  0  0  0  0  0  0  0
    7.5000   -2.5981    0.0000 N   0  0  0  0  0  0  0  0  0  0  0  0
    8.2500   -1.2990    0.0000 C   0  0  0  0  0  0  0  0  0  0  0  0
    9.7500   -1.2990    0.0000 C   0  0  0  0  0  0  0  0  0  0  0  0
    6.0000   -2.5981    0.0000 C   0  0  0  0  0  0  0  0  0  0  0  0
    5.2500   -1.2990    0.0000 C   0  0  0  0  0  0  0  0  0  0  0  0
    3.7500   -1.2990    0.0000 C   0  0  0  0  0  0  0  0  0  0  0  0
    3.0000    0.0000    0.0000 O   0  0  0  0  0  0  0  0  0  0  0  0
    1.5000    0.0000    0.0000 C   0  0  0  0  0  0  0  0  0  0  0  0
    0.7500   -1.2990    0.0000 C   0  0  0  0  0  0  0  0  0  0  0  0
   -0.7500   -1.2990    0.0000 C   0  0  0  0  0  0  0  0  0  0  0  0
   -1.5000    0.0000    0.0000 C   0  0  0  0  0  0  0  0  0  0  0  0
   -3.0000    0.0000    0.0000 N   0  0  0  0  0  0  0  0  0  0  0  0
   -3.7500    1.2990    0.0000 C   0  0  0  0  0  0  0  0  0  0  0  0
   -3.0000    2.5981    0.0000 N   0  0  0  0  0  0  0  0  0  0  0  0
   -3.7500    3.8971    0.0000 C   0  0  0  0  0  0  0  0  0  0  0  0
   -5.2500    3.8971    0.0000 C   0  0  0  0  0  0  0  0  0  0  0  0
   -6.0000    2.5981    0.0000 C   0  0  0  0  0  0  0  0  0  0  0  0
   -7.5000    2.5981    0.0000 C   0  0  0  0  0  0  0  0  0  0  0  0
   -8.2500    3.8971    0.0000 C   0  0  0  0  0  0  0  0  0  0  0  0
   -9.7500    3.8971    0.0000 C   0  0  0  0  0  0  0  0  0  0  0  0
  -10.5000    2.5981    0.0000 C   0  0  0  0  0  0  0  0  0  0  0  0
  -12.0000    2.5981    0.0000 C   0  0  0  0  0  0  0  0  0  0  0  0
  -12.7500    1.2990    0.0000 O   0  0  0  0  0  0  0  0  0  0  0  0
  -12.7500    3.8971    0.0000 N   0  0  0  0  0  0  0  0  0  0  0  0
  -14.2500    3.8971    0.0000 C   0  0  0  0  0  0  0  0  0  0  0  0
  -15.0000    5.1962    0.0000 C   0  0  0  0  0  0  0  0  0  0  0  0
  -15.7500    6.4952    0.0000 N   0  0  0  0  0  0  0  0  0  0  0  0
   -9.7500    1.2990    0.0000 C   0  0  0  0  0  0  0  0  0  0  0  0
   -8.2500    1.2990    0.0000 C   0  0  0  0  0  0  0  0  0  0  0  0
   -5.2500    1.2990    0.0000 N   0  0  0  0  0  0  0  0  0  0  0  0
   -0.7500    1.2990    0.0000 C   0  0  0  0  0  0  0  0  0  0  0  0
    0.7500    1.2990    0.0000 C   0  0  0  0  0  0  0  0  0  0  0  0
  1  2  1  0
  2  3  1  0
  3  4  1  0
  4  5  1  0
  3  6  1  0
  6  7  1  0
  7  8  1  0
  8  9  1  0
  9 10  1  0
 10 11  2  0
 11 12  1  0
 12 13  2  0
 13 14  1  0
 14 15  1  0
 15 16  2  0
 16 17  1  0
 17 18  2  0
 18 19  1  0
 19 20  1  0
 20 21  2  0
 21 22  1  0
 22 23  2  0
 23 24  1  0
 24 25  2  0
 24 26  1  0
 26 27  1  0
 27 28  1  0
 28 29  3  0
 23 30  1  0
 30 31  2  0
 19 32  2  0
 13 33  1  0
 33 34  2  0
 34 10  1  0
 32 15  1  0
 31 20  1  0
M  END
>  <Compound_ID>  (33) 
CHEMBL1078720

>  <Active>  (33) 
1

>  <Smiles>  (33) 
CCN(CC)CCCOc1ccc(Nc2nccc(-c3ccc(C(=O)NCC#N)cc3)n2)cc1

>  <canonical_smi>  (33) 
CCN(CC)CCCOc1ccc(Nc2nccc(-c3ccc(C(=O)NCC#N)cc3)n2)cc1

>  <Set>  (33) 
G1 active

>  <Set_type>  (33) 
G1

>  <MW>  (33) 
458.57

>  <HBD>  (33) 
2

>  <HBA>  (33) 
7

>  <NRB>  (33) 
12

>  <NR>  (33) 
3

>  <NAR>  (33) 
3

>  <PSA>  (33) 
103.17

>  <Standard Type>  (33) 
nan

>  <Standard Relation>  (33) 
nan

>  <Standard Units>  (33) 
nan

>  <Standard Value>  (33) 
nan

>  <Assay ChEMBL ID>  (33) 
nan

>  <Assay Description>  (33) 
nan

>  <BAO Label>  (33) 
nan

$$$$

     RDKit          2D

 33 37  0  0  0  0  0  0  0  0999 V2000
    0.4022   -7.7629    0.0000 C   0  0  0  0  0  0  0  0  0  0  0  0
    0.2454   -6.2711    0.0000 C   0  0  0  0  0  0  0  0  0  0  0  0
    1.3601   -5.2674    0.0000 C   0  0  0  0  0  0  0  0  0  0  0  0
    0.7500   -3.8971    0.0000 C   0  0  0  0  0  0  0  0  0  0  0  0
    1.5000   -2.5981    0.0000 N   0  0  0  0  0  0  0  0  0  0  0  0
    0.7500   -1.2990    0.0000 C   0  0  0  0  0  0  0  0  0  0  0  0
    1.5000    0.0000    0.0000 C   0  0  0  0  0  0  0  0  0  0  0  0
    0.7500    1.2990    0.0000 C   0  0  0  0  0  0  0  0  0  0  0  0
    1.5000    2.5981    0.0000 N   0  0  0  0  0  0  0  0  0  0  0  0
    3.0000    2.5981    0.0000 C   0  0  0  0  0  0  0  0  0  0  0  0
    3.7500    3.8971    0.0000 C   0  0  0  0  0  0  0  0  0  0  0  0
    3.0000    5.1962    0.0000 N   0  0  0  0  0  0  0  0  0  0  0  0
    3.7500    6.4952    0.0000 C   0  0  0  0  0  0  0  0  0  0  0  0
    1.5000    5.1962    0.0000 C   0  0  0  0  0  0  0  0  0  0  0  0
    0.7500    3.8971    0.0000 C   0  0  0  0  0  0  0  0  0  0  0  0
   -0.7500    1.2990    0.0000 N   0  0  0  0  0  0  0  0  0  0  0  0
   -1.5000    0.0000    0.0000 C   0  0  0  0  0  0  0  0  0  0  0  0
   -3.0000    0.0000    0.0000 S   0  0  0  0  0  0  0  0  0  0  0  0
   -3.7500    1.2990    0.0000 C   0  0  0  0  0  0  0  0  0  0  0  0
   -3.0000    2.5981    0.0000 C   0  0  0  0  0  0  0  0  0  0  0  0
   -3.7500    3.8971    0.0000 C   0  0  0  0  0  0  0  0  0  0  0  0
   -5.2500    3.8971    0.0000 C   0  0  0  0  0  0  0  0  0  0  0  0
   -6.0000    5.1962    0.0000 N   0  0  0  0  0  0  0  0  0  0  0  0
   -5.2500    6.4952    0.0000 C   0  0  0  0  0  0  0  0  0  0  0  0
   -3.7500    6.4952    0.0000 O   0  0  0  0  0  0  0  0  0  0  0  0
   -6.0000    7.7942    0.0000 C   0  0  0  0  0  0  0  0  0  0  0  0
   -7.2990    8.5442    0.0000 C   0  0  0  0  0  0  0  0  0  0  0  0
   -6.0000    9.2942    0.0000 C   0  0  0  0  0  0  0  0  0  0  0  0
   -6.0000    2.5981    0.0000 C   0  0  0  0  0  0  0  0  0  0  0  0
   -5.2500    1.2990    0.0000 C   0  0  0  0  0  0  0  0  0  0  0  0
   -0.7500   -1.2990    0.0000 N   0  0  0  0  0  0  0  0  0  0  0  0
   -0.7418   -4.0539    0.0000 N   0  0  0  0  0  0  0  0  0  0  0  0
   -1.0537   -5.5211    0.0000 N   0  0  0  0  0  0  0  0  0  0  0  0
  1  2  1  0
  2  3  1  0
  3  4  2  0
  4  5  1  0
  5  6  1  0
  6  7  2  0
  7  8  1  0
  8  9  1  0
  9 10  1  0
 10 11  1  0
 11 12  1  0
 12 13  1  0
 12 14  1  0
 14 15  1  0
  8 16  2  0
 16 17  1  0
 17 18  1  0
 18 19  1  0
 19 20  2  0
 20 21  1  0
 21 22  2  0
 22 23  1  0
 23 24  1  0
 24 25  2  0
 24 26  1  0
 26 27  1  0
 27 28  1  0
 22 29  1  0
 29 30  2  0
 17 31  2  0
  4 32  1  0
 32 33  1  0
 33  2  2  0
 31  6  1  0
 15  9  1  0
 30 19  1  0
 28 26  1  0
M  END
>  <Compound_ID>  (34) 
CHEMBL572878

>  <Active>  (34) 
1

>  <Smiles>  (34) 
Cc1cc(Nc2cc(N3CCN(C)CC3)nc(Sc3ccc(NC(=O)C4CC4)cc3)n2)[nH]n1

>  <canonical_smi>  (34) 
Cc1cc(Nc2cc(N3CCN(C)CC3)nc(Sc3ccc(NC(=O)C4CC4)cc3)n2)[nH]n1

>  <Set>  (34) 
G1 active

>  <Set_type>  (34) 
G1

>  <MW>  (34) 
464.6

>  <HBD>  (34) 
3

>  <HBA>  (34) 
8

>  <NRB>  (34) 
7

>  <NR>  (34) 
5

>  <NAR>  (34) 
3

>  <PSA>  (34) 
102.07

>  <Standard Type>  (34) 
nan

>  <Standard Relation>  (34) 
nan

>  <Standard Units>  (34) 
nan

>  <Standard Value>  (34) 
nan

>  <Assay ChEMBL ID>  (34) 
nan

>  <Assay Description>  (34) 
nan

>  <BAO Label>  (34) 
nan

$$$$

     RDKit          2D

 34 38  0  0  0  0  0  0  0  0999 V2000
    3.0000   -2.5981    0.0000 O   0  0  0  0  0  0  0  0  0  0  0  0
    1.5000   -2.5981    0.0000 C   0  0  0  0  0  0  0  0  0  0  0  0
    0.7500   -3.8971    0.0000 N   0  0  0  0  0  0  0  0  0  0  0  0
    1.5000   -5.1962    0.0000 C   0  0  0  0  0  0  0  0  0  0  0  0
    0.7500   -6.4952    0.0000 C   0  0  0  0  0  0  0  0  0  0  0  0
    1.3601   -7.8655    0.0000 C   0  0  0  0  0  0  0  0  0  0  0  0
    0.2454   -8.8692    0.0000 C   0  0  0  0  0  0  0  0  0  0  0  0
   -1.0537   -8.1192    0.0000 C   0  0  0  0  0  0  0  0  0  0  0  0
   -0.7418   -6.6520    0.0000 O   0  0  0  0  0  0  0  0  0  0  0  0
    0.7500   -1.2990    0.0000 C   0  0  0  0  0  0  0  0  0  0  0  0
    1.5000    0.0000    0.0000 C   0  0  0  0  0  0  0  0  0  0  0  0
    0.7500    1.2990    0.0000 C   0  0  0  0  0  0  0  0  0  0  0  0
   -0.7500    1.2990    0.0000 C   0  0  0  0  0  0  0  0  0  0  0  0
   -1.5000    2.5981    0.0000 C   0  0  0  0  0  0  0  0  0  0  0  0
   -0.7500    3.8971    0.0000 C   0  0  0  0  0  0  0  0  0  0  0  0
   -1.5000    5.1962    0.0000 C   0  0  0  0  0  0  0  0  0  0  0  0
   -3.0000    5.1962    0.0000 N   0  0  0  0  0  0  0  0  0  0  0  0
   -3.7500    3.8971    0.0000 C   0  0  0  0  0  0  0  0  0  0  0  0
   -5.2500    3.8971    0.0000 N   0  0  0  0  0  0  0  0  0  0  0  0
   -6.0000    5.1962    0.0000 C   0  0  0  0  0  0  0  0  0  0  0  0
   -5.2500    6.4952    0.0000 C   0  0  0  0  0  0  0  0  0  0  0  0
   -6.0000    7.7942    0.0000 C   0  0  0  0  0  0  0  0  0  0  0  0
   -7.5000    7.7942    0.0000 C   0  0  0  0  0  0  0  0  0  0  0  0
   -8.2500    9.0933    0.0000 N   0  0  0  0  0  0  0  0  0  0  0  0
   -7.5000   10.3923    0.0000 C   0  0  0  0  0  0  0  0  0  0  0  0
   -8.2500   11.6913    0.0000 C   0  0  0  0  0  0  0  0  0  0  0  0
   -9.7500   11.6913    0.0000 O   0  0  0  0  0  0  0  0  0  0  0  0
  -10.5000   10.3923    0.0000 C   0  0  0  0  0  0  0  0  0  0  0  0
   -9.7500    9.0933    0.0000 C   0  0  0  0  0  0  0  0  0  0  0  0
   -8.2500    6.4952    0.0000 C   0  0  0  0  0  0  0  0  0  0  0  0
   -7.5000    5.1962    0.0000 C   0  0  0  0  0  0  0  0  0  0  0  0
   -3.0000    2.5981    0.0000 N   0  0  0  0  0  0  0  0  0  0  0  0
   -1.5000    0.0000    0.0000 C   0  0  0  0  0  0  0  0  0  0  0  0
   -0.7500   -1.2990    0.0000 C   0  0  0  0  0  0  0  0  0  0  0  0
  1  2  2  0
  2  3  1  0
  3  4  1  0
  4  5  1  0
  5  6  2  0
  6  7  1  0
  7  8  2  0
  8  9  1  0
  2 10  1  0
 10 11  2  0
 11 12  1  0
 12 13  2  0
 13 14  1  0
 14 15  2  0
 15 16  1  0
 16 17  2  0
 17 18  1  0
 18 19  1  0
 19 20  1  0
 20 21  2  0
 21 22  1  0
 22 23  2  0
 23 24  1  0
 24 25  1  0
 25 26  1  0
 26 27  1  0
 27 28  1  0
 28 29  1  0
 23 30  1  0
 30 31  2  0
 18 32  2  0
 13 33  1  0
 33 34  2  0
  9  5  1  0
 34 10  1  0
 32 14  1  0
 31 20  1  0
 29 24  1  0
M  END
>  <Compound_ID>  (35) 
CHEMBL1079690

>  <Active>  (35) 
1

>  <Smiles>  (35) 
O=C(NCc1ccco1)c1ccc(-c2ccnc(Nc3ccc(N4CCOCC4)cc3)n2)cc1

>  <canonical_smi>  (35) 
O=C(NCc1ccco1)c1ccc(-c2ccnc(Nc3ccc(N4CCOCC4)cc3)n2)cc1

>  <Set>  (35) 
G1 active

>  <Set_type>  (35) 
G1

>  <MW>  (35) 
455.52

>  <HBD>  (35) 
2

>  <HBA>  (35) 
7

>  <NRB>  (35) 
7

>  <NR>  (35) 
5

>  <NAR>  (35) 
4

>  <PSA>  (35) 
92.52

>  <Standard Type>  (35) 
nan

>  <Standard Relation>  (35) 
nan

>  <Standard Units>  (35) 
nan

>  <Standard Value>  (35) 
nan

>  <Assay ChEMBL ID>  (35) 
nan

>  <Assay Description>  (35) 
nan

>  <BAO Label>  (35) 
nan

$$$$

     RDKit          2D

 22 25  0  0  0  0  0  0  0  0999 V2000
   -0.0000   -5.1073    0.0000 N   0  0  0  0  0  0  0  0  0  0  0  0
   -0.0000   -3.6073    0.0000 C   0  0  0  0  0  0  0  0  0  0  0  0
    1.2135   -2.7256    0.0000 N   0  0  0  0  0  0  0  0  0  0  0  0
    0.7500   -1.2990    0.0000 N   0  0  0  0  0  0  0  0  0  0  0  0
    1.5000    0.0000    0.0000 C   0  0  0  0  0  0  0  0  0  0  0  0
    0.7500    1.2990    0.0000 C   0  0  0  0  0  0  0  0  0  0  0  0
   -0.7500    1.2990    0.0000 C   0  0  0  0  0  0  0  0  0  0  0  0
   -1.5000    0.0000    0.0000 N   0  0  0  0  0  0  0  0  0  0  0  0
   -0.7500   -1.2990    0.0000 C   0  0  0  0  0  0  0  0  0  0  0  0
   -1.2135   -2.7256    0.0000 C   0  0  0  0  0  0  0  0  0  0  0  0
   -2.6401   -3.1891    0.0000 C   0  0  0  0  0  0  0  0  0  0  0  0
   -3.7548   -2.1855    0.0000 C   0  0  0  0  0  0  0  0  0  0  0  0
   -5.1814   -2.6490    0.0000 C   0  0  0  0  0  0  0  0  0  0  0  0
   -6.2961   -1.6453    0.0000 N   0  0  0  0  0  0  0  0  0  0  0  0
   -5.9843   -0.1781    0.0000 C   0  0  0  0  0  0  0  0  0  0  0  0
   -7.0990    0.8256    0.0000 C   0  0  0  0  0  0  0  0  0  0  0  0
   -8.5256    0.3621    0.0000 O   0  0  0  0  0  0  0  0  0  0  0  0
   -8.8374   -1.1051    0.0000 C   0  0  0  0  0  0  0  0  0  0  0  0
   -7.7227   -2.1088    0.0000 C   0  0  0  0  0  0  0  0  0  0  0  0
   -5.4933   -4.1162    0.0000 N   0  0  0  0  0  0  0  0  0  0  0  0
   -4.3786   -5.1199    0.0000 C   0  0  0  0  0  0  0  0  0  0  0  0
   -2.9520   -4.6564    0.0000 N   0  0  0  0  0  0  0  0  0  0  0  0
  1  2  1  0
  2  3  2  0
  3  4  1  0
  4  5  1  0
  5  6  2  0
  6  7  1  0
  7  8  2  0
  8  9  1  0
  9 10  2  0
 10 11  1  0
 11 12  2  0
 12 13  1  0
 13 14  1  0
 14 15  1  0
 15 16  1  0
 16 17  1  0
 17 18  1  0
 18 19  1  0
 13 20  2  0
 20 21  1  0
 21 22  2  0
 10  2  1  0
 22 11  1  0
  9  4  1  0
 19 14  1  0
M  END
>  <Compound_ID>  (36) 
CHEMBL576486

>  <Active>  (36) 
1

>  <Smiles>  (36) 
Nc1nn2cccnc2c1-c1cc(N2CCOCC2)ncn1

>  <canonical_smi>  (36) 
Nc1nn2cccnc2c1-c1cc(N2CCOCC2)ncn1

>  <Set>  (36) 
G1 active

>  <Set_type>  (36) 
G1

>  <MW>  (36) 
297.32

>  <HBD>  (36) 
1

>  <HBA>  (36) 
7

>  <NRB>  (36) 
2

>  <NR>  (36) 
4

>  <NAR>  (36) 
3

>  <PSA>  (36) 
94.46

>  <Standard Type>  (36) 
nan

>  <Standard Relation>  (36) 
nan

>  <Standard Units>  (36) 
nan

>  <Standard Value>  (36) 
nan

>  <Assay ChEMBL ID>  (36) 
nan

>  <Assay Description>  (36) 
nan

>  <BAO Label>  (36) 
nan

$$$$

     RDKit          2D

 27 29  0  0  0  0  0  0  0  0999 V2000
    0.4022   -7.7629    0.0000 N   0  0  0  0  0  0  0  0  0  0  0  0
    0.2454   -6.2711    0.0000 C   0  0  0  0  0  0  0  0  0  0  0  0
    1.3601   -5.2674    0.0000 N   0  0  0  0  0  0  0  0  0  0  0  0
    0.7500   -3.8971    0.0000 C   0  0  0  0  0  0  0  0  0  0  0  0
    1.5000   -2.5981    0.0000 N   0  0  0  0  0  0  0  0  0  0  0  0
    0.7500   -1.2990    0.0000 C   0  0  0  0  0  0  0  0  0  0  0  0
    1.5000    0.0000    0.0000 C   0  0  0  0  0  0  0  0  0  0  0  0
    0.7500    1.2990    0.0000 C   0  0  0  0  0  0  0  0  0  0  0  0
   -0.7500    1.2990    0.0000 C   0  0  0  0  0  0  0  0  0  0  0  0
   -1.5000    2.5981    0.0000 S   0  0  0  0  0  0  0  0  0  0  0  0
   -2.2500    3.8971    0.0000 N   0  0  0  0  0  0  0  0  0  0  0  0
   -0.2010    3.3481    0.0000 O   0  0  0  0  0  0  0  0  0  0  0  0
   -2.7990    1.8481    0.0000 O   0  0  0  0  0  0  0  0  0  0  0  0
   -1.5000    0.0000    0.0000 C   0  0  0  0  0  0  0  0  0  0  0  0
   -0.7500   -1.2990    0.0000 C   0  0  0  0  0  0  0  0  0  0  0  0
   -0.7418   -4.0539    0.0000 N   0  0  0  0  0  0  0  0  0  0  0  0
   -1.0537   -5.5211    0.0000 N   0  0  0  0  0  0  0  0  0  0  0  0
   -2.4240   -6.1312    0.0000 C   0  0  0  0  0  0  0  0  0  0  0  0
   -2.5808   -7.6230    0.0000 O   0  0  0  0  0  0  0  0  0  0  0  0
   -3.6375   -5.2496    0.0000 C   0  0  0  0  0  0  0  0  0  0  0  0
   -3.4807   -3.7578    0.0000 C   0  0  0  0  0  0  0  0  0  0  0  0
   -2.1104   -3.1477    0.0000 F   0  0  0  0  0  0  0  0  0  0  0  0
   -4.6942   -2.8761    0.0000 C   0  0  0  0  0  0  0  0  0  0  0  0
   -6.0645   -3.4862    0.0000 C   0  0  0  0  0  0  0  0  0  0  0  0
   -6.2213   -4.9780    0.0000 C   0  0  0  0  0  0  0  0  0  0  0  0
   -5.0078   -5.8597    0.0000 C   0  0  0  0  0  0  0  0  0  0  0  0
   -5.1646   -7.3514    0.0000 F   0  0  0  0  0  0  0  0  0  0  0  0
  1  2  1  0
  2  3  2  0
  3  4  1  0
  4  5  1  0
  5  6  1  0
  6  7  2  0
  7  8  1  0
  8  9  2  0
  9 10  1  0
 10 11  1  0
 10 12  2  0
 10 13  2  0
  9 14  1  0
 14 15  2  0
  4 16  2  0
 16 17  1  0
 17 18  1  0
 18 19  2  0
 18 20  1  0
 20 21  2  0
 21 22  1  0
 21 23  1  0
 23 24  2  0
 24 25  1  0
 25 26  2  0
 26 27  1  0
 17  2  1  0
 26 20  1  0
 15  6  1  0
M  END
>  <Compound_ID>  (37) 
CHEMBL191003

>  <Active>  (37) 
1

>  <Smiles>  (37) 
Nc1nc(Nc2ccc(S(N)(=O)=O)cc2)nn1C(=O)c1c(F)cccc1F

>  <canonical_smi>  (37) 
Nc1nc(Nc2ccc(S(N)(=O)=O)cc2)nn1C(=O)c1c(F)cccc1F

>  <Set>  (37) 
G1 active

>  <Set_type>  (37) 
G1

>  <MW>  (37) 
394.36

>  <HBD>  (37) 
3

>  <HBA>  (37) 
7

>  <NRB>  (37) 
4

>  <NR>  (37) 
3

>  <NAR>  (37) 
3

>  <PSA>  (37) 
145.99

>  <Standard Type>  (37) 
nan

>  <Standard Relation>  (37) 
nan

>  <Standard Units>  (37) 
nan

>  <Standard Value>  (37) 
nan

>  <Assay ChEMBL ID>  (37) 
nan

>  <Assay Description>  (37) 
nan

>  <BAO Label>  (37) 
nan

$$$$

     RDKit          2D

 16 18  0  0  0  0  0  0  0  0999 V2000
    3.0000    0.0000    0.0000 Cl  0  0  0  0  0  0  0  0  0  0  0  0
    1.5000    0.0000    0.0000 C   0  0  0  0  0  0  0  0  0  0  0  0
    0.7500   -1.2990    0.0000 C   0  0  0  0  0  0  0  0  0  0  0  0
   -0.7500   -1.2990    0.0000 N   0  0  0  0  0  0  0  0  0  0  0  0
   -1.5000    0.0000    0.0000 C   0  0  0  0  0  0  0  0  0  0  0  0
   -2.9672    0.3119    0.0000 N   0  0  0  0  0  0  0  0  0  0  0  0
   -3.1240    1.8037    0.0000 C   0  0  0  0  0  0  0  0  0  0  0  0
   -1.7537    2.4138    0.0000 C   0  0  0  0  0  0  0  0  0  0  0  0
   -1.4418    3.8810    0.0000 C   0  0  0  0  0  0  0  0  0  0  0  0
   -0.0152    4.3445    0.0000 C   0  0  0  0  0  0  0  0  0  0  0  0
    0.2966    5.8117    0.0000 C   0  0  0  0  0  0  0  0  0  0  0  0
   -0.8181    6.8154    0.0000 C   0  0  0  0  0  0  0  0  0  0  0  0
   -2.2447    6.3519    0.0000 C   0  0  0  0  0  0  0  0  0  0  0  0
   -2.5565    4.8847    0.0000 C   0  0  0  0  0  0  0  0  0  0  0  0
   -0.7500    1.2990    0.0000 C   0  0  0  0  0  0  0  0  0  0  0  0
    0.7500    1.2990    0.0000 C   0  0  0  0  0  0  0  0  0  0  0  0
  1  2  1  0
  2  3  2  0
  3  4  1  0
  4  5  2  0
  5  6  1  0
  6  7  1  0
  7  8  2  0
  8  9  1  0
  9 10  2  0
 10 11  1  0
 11 12  2  0
 12 13  1  0
 13 14  2  0
  8 15  1  0
 15 16  2  0
 16  2  1  0
 15  5  1  0
 14  9  1  0
M  END
>  <Compound_ID>  (38) 
CHEMBL583105

>  <Active>  (38) 
1

>  <Smiles>  (38) 
Clc1cnc2[nH]cc(-c3ccccc3)c2c1

>  <canonical_smi>  (38) 
Clc1cnc2[nH]cc(-c3ccccc3)c2c1

>  <Set>  (38) 
G1 active

>  <Set_type>  (38) 
G1

>  <MW>  (38) 
228.68

>  <HBD>  (38) 
1

>  <HBA>  (38) 
1

>  <NRB>  (38) 
1

>  <NR>  (38) 
3

>  <NAR>  (38) 
3

>  <PSA>  (38) 
28.68

>  <Standard Type>  (38) 
nan

>  <Standard Relation>  (38) 
nan

>  <Standard Units>  (38) 
nan

>  <Standard Value>  (38) 
nan

>  <Assay ChEMBL ID>  (38) 
nan

>  <Assay Description>  (38) 
nan

>  <BAO Label>  (38) 
nan

$$$$

     RDKit          2D

 17 19  0  0  0  0  0  0  0  0999 V2000
    1.8478   -6.4639    0.0000 C   0  0  0  0  0  0  0  0  0  0  0  0
    2.0046   -4.9721    0.0000 C   0  0  0  0  0  0  0  0  0  0  0  0
    3.3037   -4.2221    0.0000 N   0  0  0  0  0  0  0  0  0  0  0  0
    2.9918   -2.7549    0.0000 C   0  0  0  0  0  0  0  0  0  0  0  0
    3.9955   -1.6402    0.0000 C   0  0  0  0  0  0  0  0  0  0  0  0
    1.5000   -2.5981    0.0000 C   0  0  0  0  0  0  0  0  0  0  0  0
    0.7500   -1.2990    0.0000 C   0  0  0  0  0  0  0  0  0  0  0  0
    1.5000    0.0000    0.0000 C   0  0  0  0  0  0  0  0  0  0  0  0
    0.7500    1.2990    0.0000 C   0  0  0  0  0  0  0  0  0  0  0  0
   -0.7500    1.2990    0.0000 C   0  0  0  0  0  0  0  0  0  0  0  0
   -1.7537    2.4138    0.0000 N   0  0  0  0  0  0  0  0  0  0  0  0
   -3.1240    1.8037    0.0000 N   0  0  0  0  0  0  0  0  0  0  0  0
   -2.9672    0.3119    0.0000 C   0  0  0  0  0  0  0  0  0  0  0  0
   -4.0819   -0.6918    0.0000 N   0  0  0  0  0  0  0  0  0  0  0  0
   -1.5000    0.0000    0.0000 C   0  0  0  0  0  0  0  0  0  0  0  0
   -0.7500   -1.2990    0.0000 C   0  0  0  0  0  0  0  0  0  0  0  0
    0.8899   -3.9684    0.0000 S   0  0  0  0  0  0  0  0  0  0  0  0
  1  2  1  0
  2  3  2  0
  3  4  1  0
  4  5  1  0
  4  6  2  0
  6  7  1  0
  7  8  2  0
  8  9  1  0
  9 10  2  0
 10 11  1  0
 11 12  1  0
 12 13  2  0
 13 14  1  0
 13 15  1  0
 15 16  2  0
  6 17  1  0
 17  2  1  0
 16  7  1  0
 15 10  1  0
M  END
>  <Compound_ID>  (39) 
CHEMBL510641

>  <Active>  (39) 
1

>  <Smiles>  (39) 
Cc1nc(C)c(-c2ccc3[nH]nc(N)c3c2)s1

>  <canonical_smi>  (39) 
Cc1nc(C)c(-c2ccc3[nH]nc(N)c3c2)s1

>  <Set>  (39) 
G1 active

>  <Set_type>  (39) 
G1

>  <MW>  (39) 
244.32

>  <HBD>  (39) 
2

>  <HBA>  (39) 
3

>  <NRB>  (39) 
1

>  <NR>  (39) 
3

>  <NAR>  (39) 
3

>  <PSA>  (39) 
67.59

>  <Standard Type>  (39) 
nan

>  <Standard Relation>  (39) 
nan

>  <Standard Units>  (39) 
nan

>  <Standard Value>  (39) 
nan

>  <Assay ChEMBL ID>  (39) 
nan

>  <Assay Description>  (39) 
nan

>  <BAO Label>  (39) 
nan

$$$$

     RDKit          2D

 25 28  0  0  0  0  0  0  0  0999 V2000
   -2.6401   -3.1891    0.0000 N   0  0  0  0  0  0  0  0  0  0  0  0
   -1.2135   -2.7256    0.0000 C   0  0  0  0  0  0  0  0  0  0  0  0
   -0.0000   -3.6073    0.0000 N   0  0  0  0  0  0  0  0  0  0  0  0
    1.2135   -2.7256    0.0000 N   0  0  0  0  0  0  0  0  0  0  0  0
    0.7500   -1.2990    0.0000 C   0  0  0  0  0  0  0  0  0  0  0  0
    1.5000    0.0000    0.0000 C   0  0  0  0  0  0  0  0  0  0  0  0
    0.7500    1.2990    0.0000 C   0  0  0  0  0  0  0  0  0  0  0  0
   -0.7500    1.2990    0.0000 C   0  0  0  0  0  0  0  0  0  0  0  0
   -1.5000    2.5981    0.0000 C   0  0  0  0  0  0  0  0  0  0  0  0
   -0.7500    3.8971    0.0000 C   0  0  0  0  0  0  0  0  0  0  0  0
   -1.5000    5.1962    0.0000 C   0  0  0  0  0  0  0  0  0  0  0  0
   -3.0000    5.1962    0.0000 C   0  0  0  0  0  0  0  0  0  0  0  0
   -3.7500    6.4952    0.0000 S   0  0  0  0  0  0  0  0  0  0  0  0
   -2.4510    7.2452    0.0000 O   0  0  0  0  0  0  0  0  0  0  0  0
   -5.0490    5.7452    0.0000 O   0  0  0  0  0  0  0  0  0  0  0  0
   -4.5000    7.7942    0.0000 N   0  0  0  0  0  0  0  0  0  0  0  0
   -3.7500    9.0933    0.0000 C   0  0  0  0  0  0  0  0  0  0  0  0
   -4.5000   10.3923    0.0000 C   0  0  0  0  0  0  0  0  0  0  0  0
   -6.0000   10.3923    0.0000 O   0  0  0  0  0  0  0  0  0  0  0  0
   -6.7500    9.0933    0.0000 C   0  0  0  0  0  0  0  0  0  0  0  0
   -6.0000    7.7942    0.0000 C   0  0  0  0  0  0  0  0  0  0  0  0
   -3.7500    3.8971    0.0000 C   0  0  0  0  0  0  0  0  0  0  0  0
   -3.0000    2.5981    0.0000 C   0  0  0  0  0  0  0  0  0  0  0  0
   -1.5000    0.0000    0.0000 C   0  0  0  0  0  0  0  0  0  0  0  0
   -0.7500   -1.2990    0.0000 C   0  0  0  0  0  0  0  0  0  0  0  0
  1  2  1  0
  2  3  2  0
  3  4  1  0
  4  5  1  0
  5  6  2  0
  6  7  1  0
  7  8  2  0
  8  9  1  0
  9 10  2  0
 10 11  1  0
 11 12  2  0
 12 13  1  0
 13 14  2  0
 13 15  2  0
 13 16  1  0
 16 17  1  0
 17 18  1  0
 18 19  1  0
 19 20  1  0
 20 21  1  0
 12 22  1  0
 22 23  2  0
  8 24  1  0
 24 25  2  0
 25  2  1  0
 25  5  1  0
 23  9  1  0
 21 16  1  0
M  END
>  <Compound_ID>  (40) 
CHEMBL520947

>  <Active>  (40) 
1

>  <Smiles>  (40) 
Nc1n[nH]c2ccc(-c3ccc(S(=O)(=O)N4CCOCC4)cc3)cc12

>  <canonical_smi>  (40) 
Nc1n[nH]c2ccc(-c3ccc(S(=O)(=O)N4CCOCC4)cc3)cc12

>  <Set>  (40) 
G1 active

>  <Set_type>  (40) 
G1

>  <MW>  (40) 
358.42

>  <HBD>  (40) 
2

>  <HBA>  (40) 
5

>  <NRB>  (40) 
3

>  <NR>  (40) 
4

>  <NAR>  (40) 
3

>  <PSA>  (40) 
101.31

>  <Standard Type>  (40) 
nan

>  <Standard Relation>  (40) 
nan

>  <Standard Units>  (40) 
nan

>  <Standard Value>  (40) 
nan

>  <Assay ChEMBL ID>  (40) 
nan

>  <Assay Description>  (40) 
nan

>  <BAO Label>  (40) 
nan

$$$$

     RDKit          2D

 26 30  0  0  0  0  0  0  0  0999 V2000
   -0.0000   -5.1073    0.0000 O   0  0  0  0  0  0  0  0  0  0  0  0
   -0.0000   -3.6073    0.0000 C   0  0  0  0  0  0  0  0  0  0  0  0
    1.2135   -2.7256    0.0000 N   0  0  0  0  0  0  0  0  0  0  0  0
    0.7500   -1.2990    0.0000 C   0  0  0  0  0  0  0  0  0  0  0  0
    1.5000    0.0000    0.0000 C   0  0  0  0  0  0  0  0  0  0  0  0
    0.7500    1.2990    0.0000 N   0  0  0  0  0  0  0  0  0  0  0  0
   -0.7500    1.2990    0.0000 C   0  0  0  0  0  0  0  0  0  0  0  0
   -1.5000    2.5981    0.0000 N   0  0  0  0  0  0  0  0  0  0  0  0
   -2.9918    2.7549    0.0000 C   0  0  0  0  0  0  0  0  0  0  0  0
   -3.3037    4.2221    0.0000 N   0  0  0  0  0  0  0  0  0  0  0  0
   -2.0046    4.9721    0.0000 C   0  0  0  0  0  0  0  0  0  0  0  0
   -1.6927    6.4393    0.0000 C   0  0  0  0  0  0  0  0  0  0  0  0
   -0.2662    6.9028    0.0000 C   0  0  0  0  0  0  0  0  0  0  0  0
    0.8486    5.8991    0.0000 C   0  0  0  0  0  0  0  0  0  0  0  0
    2.2751    6.3627    0.0000 Cl  0  0  0  0  0  0  0  0  0  0  0  0
    0.5367    4.4319    0.0000 C   0  0  0  0  0  0  0  0  0  0  0  0
   -0.8899    3.9684    0.0000 C   0  0  0  0  0  0  0  0  0  0  0  0
   -1.5000    0.0000    0.0000 N   0  0  0  0  0  0  0  0  0  0  0  0
   -0.7500   -1.2990    0.0000 C   0  0  0  0  0  0  0  0  0  0  0  0
   -1.2135   -2.7256    0.0000 N   0  0  0  0  0  0  0  0  0  0  0  0
   -2.6401   -3.1891    0.0000 C   0  0  0  0  0  0  0  0  0  0  0  0
   -3.7548   -2.1855    0.0000 C   0  0  0  0  0  0  0  0  0  0  0  0
   -5.1814   -2.6490    0.0000 C   0  0  0  0  0  0  0  0  0  0  0  0
   -5.4933   -4.1162    0.0000 O   0  0  0  0  0  0  0  0  0  0  0  0
   -4.3786   -5.1199    0.0000 C   0  0  0  0  0  0  0  0  0  0  0  0
   -2.9520   -4.6564    0.0000 C   0  0  0  0  0  0  0  0  0  0  0  0
  1  2  2  0
  2  3  1  0
  3  4  1  0
  4  5  2  0
  5  6  1  0
  6  7  2  0
  7  8  1  0
  8  9  1  0
  9 10  2  0
 10 11  1  0
 11 12  2  0
 12 13  1  0
 13 14  2  0
 14 15  1  0
 14 16  1  0
 16 17  2  0
  7 18  1  0
 18 19  2  0
 19 20  1  0
 20 21  1  0
 21 22  1  0
 22 23  1  0
 23 24  1  0
 24 25  1  0
 25 26  1  0
 20  2  1  0
 26 21  1  0
 19  4  1  0
 17  8  1  0
 17 11  1  0
M  END
>  <Compound_ID>  (41) 
CHEMBL1080322

>  <Active>  (41) 
1

>  <Smiles>  (41) 
O=c1[nH]c2cnc(-n3cnc4ccc(Cl)cc43)nc2n1C1CCOCC1

>  <canonical_smi>  (41) 
O=c1[nH]c2cnc(-n3cnc4ccc(Cl)cc43)nc2n1C1CCOCC1

>  <Set>  (41) 
G1 active

>  <Set_type>  (41) 
G1

>  <MW>  (41) 
370.8

>  <HBD>  (41) 
1

>  <HBA>  (41) 
5

>  <NRB>  (41) 
2

>  <NR>  (41) 
5

>  <NAR>  (41) 
4

>  <PSA>  (41) 
90.62

>  <Standard Type>  (41) 
nan

>  <Standard Relation>  (41) 
nan

>  <Standard Units>  (41) 
nan

>  <Standard Value>  (41) 
nan

>  <Assay ChEMBL ID>  (41) 
nan

>  <Assay Description>  (41) 
nan

>  <BAO Label>  (41) 
nan

$$$$

     RDKit          2D

 22 25  0  0  0  0  0  0  0  0999 V2000
    7.6623   -5.6439    0.0000 O   0  0  0  0  0  0  0  0  0  0  0  0
    6.4896   -4.7086    0.0000 C   0  0  0  0  0  0  0  0  0  0  0  0
    5.0933   -5.2566    0.0000 C   0  0  0  0  0  0  0  0  0  0  0  0
    3.9205   -4.3214    0.0000 C   0  0  0  0  0  0  0  0  0  0  0  0
    2.5242   -4.8694    0.0000 C   0  0  0  0  0  0  0  0  0  0  0  0
    1.3515   -3.9342    0.0000 C   0  0  0  0  0  0  0  0  0  0  0  0
    1.6852   -2.4718    0.0000 N   0  0  0  0  0  0  0  0  0  0  0  0
    0.7500   -1.2990    0.0000 C   0  0  0  0  0  0  0  0  0  0  0  0
    1.5000    0.0000    0.0000 C   0  0  0  0  0  0  0  0  0  0  0  0
    0.7500    1.2990    0.0000 C   0  0  0  0  0  0  0  0  0  0  0  0
   -0.7500    1.2990    0.0000 C   0  0  0  0  0  0  0  0  0  0  0  0
   -1.5000    0.0000    0.0000 C   0  0  0  0  0  0  0  0  0  0  0  0
   -0.7500   -1.2990    0.0000 C   0  0  0  0  0  0  0  0  0  0  0  0
   -1.6852   -2.4718    0.0000 C   0  0  0  0  0  0  0  0  0  0  0  0
   -3.1186   -2.0297    0.0000 N   0  0  0  0  0  0  0  0  0  0  0  0
   -4.2182   -3.0499    0.0000 C   0  0  0  0  0  0  0  0  0  0  0  0
   -3.8844   -4.5123    0.0000 N   0  0  0  0  0  0  0  0  0  0  0  0
   -2.4510   -4.9544    0.0000 C   0  0  0  0  0  0  0  0  0  0  0  0
   -1.7801   -6.2960    0.0000 N   0  0  0  0  0  0  0  0  0  0  0  0
   -0.2968   -6.0724    0.0000 C   0  0  0  0  0  0  0  0  0  0  0  0
   -0.0000   -4.5850    0.0000 C   0  0  0  0  0  0  0  0  0  0  0  0
   -1.3515   -3.9342    0.0000 C   0  0  0  0  0  0  0  0  0  0  0  0
  1  2  1  0
  2  3  1  0
  3  4  1  0
  4  5  1  0
  5  6  1  0
  6  7  2  0
  7  8  1  0
  8  9  2  0
  9 10  1  0
 10 11  2  0
 11 12  1  0
 12 13  2  0
 13 14  1  0
 14 15  2  0
 15 16  1  0
 16 17  2  0
 17 18  1  0
 18 19  1  0
 19 20  1  0
 20 21  2  0
 21 22  1  0
 21  6  1  0
 13  8  1  0
 22 14  1  0
 22 18  2  0
M  END
>  <Compound_ID>  (42) 
CHEMBL604578

>  <Active>  (42) 
1

>  <Smiles>  (42) 
OCCCCC1=Nc2ccccc2-c2ncnc3[nH]cc1c23

>  <canonical_smi>  (42) 
OCCCCC1=Nc2ccccc2-c2ncnc3[nH]cc1c23

>  <Set>  (42) 
G1 active

>  <Set_type>  (42) 
G1

>  <MW>  (42) 
292.34

>  <HBD>  (42) 
2

>  <HBA>  (42) 
3

>  <NRB>  (42) 
4

>  <NR>  (42) 
4

>  <NAR>  (42) 
3

>  <PSA>  (42) 
74.16

>  <Standard Type>  (42) 
nan

>  <Standard Relation>  (42) 
nan

>  <Standard Units>  (42) 
nan

>  <Standard Value>  (42) 
nan

>  <Assay ChEMBL ID>  (42) 
nan

>  <Assay Description>  (42) 
nan

>  <BAO Label>  (42) 
nan

$$$$

     RDKit          2D

 29 31  0  0  0  0  0  0  0  0999 V2000
  -12.9041   -9.3825    0.0000 C   0  0  0  0  0  0  0  0  0  0  0  0
  -11.7894   -8.3788    0.0000 C   0  0  0  0  0  0  0  0  0  0  0  0
  -10.3628   -8.8423    0.0000 N   0  0  0  0  0  0  0  0  0  0  0  0
  -10.0510  -10.3095    0.0000 C   0  0  0  0  0  0  0  0  0  0  0  0
  -11.1657  -11.3132    0.0000 C   0  0  0  0  0  0  0  0  0  0  0  0
   -9.2481   -7.8386    0.0000 C   0  0  0  0  0  0  0  0  0  0  0  0
   -7.8215   -8.3021    0.0000 C   0  0  0  0  0  0  0  0  0  0  0  0
   -6.7068   -7.2984    0.0000 N   0  0  0  0  0  0  0  0  0  0  0  0
   -5.2802   -7.7620    0.0000 C   0  0  0  0  0  0  0  0  0  0  0  0
   -4.9684   -9.2292    0.0000 O   0  0  0  0  0  0  0  0  0  0  0  0
   -4.1655   -6.7583    0.0000 C   0  0  0  0  0  0  0  0  0  0  0  0
   -2.6983   -7.0701    0.0000 C   0  0  0  0  0  0  0  0  0  0  0  0
   -2.0882   -8.4404    0.0000 C   0  0  0  0  0  0  0  0  0  0  0  0
   -1.9483   -5.7711    0.0000 N   0  0  0  0  0  0  0  0  0  0  0  0
   -2.9520   -4.6564    0.0000 C   0  0  0  0  0  0  0  0  0  0  0  0
   -2.6401   -3.1891    0.0000 C   0  0  0  0  0  0  0  0  0  0  0  0
   -1.2135   -2.7256    0.0000 C   0  0  0  0  0  0  0  0  0  0  0  0
   -0.0000   -3.6073    0.0000 C   0  0  0  0  0  0  0  0  0  0  0  0
    0.0000   -5.1073    0.0000 O   0  0  0  0  0  0  0  0  0  0  0  0
    1.2135   -2.7256    0.0000 N   0  0  0  0  0  0  0  0  0  0  0  0
    0.7500   -1.2990    0.0000 C   0  0  0  0  0  0  0  0  0  0  0  0
    1.5000    0.0000    0.0000 C   0  0  0  0  0  0  0  0  0  0  0  0
    0.7500    1.2990    0.0000 C   0  0  0  0  0  0  0  0  0  0  0  0
   -0.7500    1.2990    0.0000 C   0  0  0  0  0  0  0  0  0  0  0  0
   -1.5000    2.5981    0.0000 F   0  0  0  0  0  0  0  0  0  0  0  0
   -1.5000    0.0000    0.0000 C   0  0  0  0  0  0  0  0  0  0  0  0
   -0.7500   -1.2990    0.0000 C   0  0  0  0  0  0  0  0  0  0  0  0
   -4.3223   -5.2665    0.0000 C   0  0  0  0  0  0  0  0  0  0  0  0
   -5.6213   -4.5165    0.0000 C   0  0  0  0  0  0  0  0  0  0  0  0
  1  2  1  0
  2  3  1  0
  3  4  1  0
  4  5  1  0
  3  6  1  0
  6  7  1  0
  7  8  1  0
  8  9  1  0
  9 10  2  0
  9 11  1  0
 11 12  2  0
 12 13  1  0
 12 14  1  0
 14 15  1  0
 15 16  1  0
 16 17  2  0
 17 18  1  0
 18 19  2  0
 18 20  1  0
 20 21  1  0
 21 22  2  0
 22 23  1  0
 23 24  2  0
 24 25  1  0
 24 26  1  0
 26 27  2  0
 15 28  2  0
 28 29  1  0
 28 11  1  0
 27 17  1  0
 27 21  1  0
M  END
>  <Compound_ID>  (43) 
CHEMBL535

>  <Active>  (43) 
1

>  <Smiles>  (43) 
CCN(CC)CCNC(=O)c1c(C)[nH]c(/C=C2\C(=O)Nc3ccc(F)cc32)c1C

>  <canonical_smi>  (43) 
CCN(CC)CCNC(=O)c1c(C)[nH]c(/C=C2\C(=O)Nc3ccc(F)cc32)c1C

>  <Set>  (43) 
G1 active

>  <Set_type>  (43) 
G1

>  <MW>  (43) 
398.48

>  <HBD>  (43) 
3

>  <HBA>  (43) 
3

>  <NRB>  (43) 
7

>  <NR>  (43) 
3

>  <NAR>  (43) 
2

>  <PSA>  (43) 
77.23

>  <Standard Type>  (43) 
nan

>  <Standard Relation>  (43) 
nan

>  <Standard Units>  (43) 
nan

>  <Standard Value>  (43) 
nan

>  <Assay ChEMBL ID>  (43) 
nan

>  <Assay Description>  (43) 
nan

>  <BAO Label>  (43) 
nan

$$$$

     RDKit          2D

 22 25  0  0  0  0  0  0  0  0999 V2000
    6.4896   -4.7086    0.0000 C   0  0  0  0  0  0  0  0  0  0  0  0
    5.0933   -5.2566    0.0000 O   0  0  0  0  0  0  0  0  0  0  0  0
    3.9205   -4.3214    0.0000 C   0  0  0  0  0  0  0  0  0  0  0  0
    4.1441   -2.8382    0.0000 O   0  0  0  0  0  0  0  0  0  0  0  0
    2.5242   -4.8694    0.0000 C   0  0  0  0  0  0  0  0  0  0  0  0
    1.3515   -3.9342    0.0000 C   0  0  0  0  0  0  0  0  0  0  0  0
    1.6852   -2.4718    0.0000 N   0  0  0  0  0  0  0  0  0  0  0  0
    0.7500   -1.2990    0.0000 C   0  0  0  0  0  0  0  0  0  0  0  0
    1.5000    0.0000    0.0000 C   0  0  0  0  0  0  0  0  0  0  0  0
    0.7500    1.2990    0.0000 C   0  0  0  0  0  0  0  0  0  0  0  0
   -0.7500    1.2990    0.0000 C   0  0  0  0  0  0  0  0  0  0  0  0
   -1.5000    0.0000    0.0000 C   0  0  0  0  0  0  0  0  0  0  0  0
   -0.7500   -1.2990    0.0000 C   0  0  0  0  0  0  0  0  0  0  0  0
   -1.6852   -2.4718    0.0000 C   0  0  0  0  0  0  0  0  0  0  0  0
   -3.1186   -2.0297    0.0000 C   0  0  0  0  0  0  0  0  0  0  0  0
   -4.2182   -3.0499    0.0000 C   0  0  0  0  0  0  0  0  0  0  0  0
   -3.8844   -4.5123    0.0000 N   0  0  0  0  0  0  0  0  0  0  0  0
   -2.4510   -4.9544    0.0000 C   0  0  0  0  0  0  0  0  0  0  0  0
   -1.7801   -6.2960    0.0000 N   0  0  0  0  0  0  0  0  0  0  0  0
   -0.2968   -6.0724    0.0000 C   0  0  0  0  0  0  0  0  0  0  0  0
   -0.0000   -4.5850    0.0000 C   0  0  0  0  0  0  0  0  0  0  0  0
   -1.3515   -3.9342    0.0000 C   0  0  0  0  0  0  0  0  0  0  0  0
  1  2  1  0
  2  3  1  0
  3  4  2  0
  3  5  1  0
  5  6  1  0
  6  7  1  0
  7  8  1  0
  8  9  2  0
  9 10  1  0
 10 11  2  0
 11 12  1  0
 12 13  2  0
 13 14  1  0
 14 15  2  0
 15 16  1  0
 16 17  2  0
 17 18  1  0
 18 19  1  0
 19 20  1  0
 20 21  2  0
 21 22  1  0
 21  6  1  0
 13  8  1  0
 22 14  1  0
 22 18  2  0
M  END
>  <Compound_ID>  (44) 
CHEMBL595397

>  <Active>  (44) 
1

>  <Smiles>  (44) 
COC(=O)CC1Nc2ccccc2-c2ccnc3[nH]cc1c23

>  <canonical_smi>  (44) 
COC(=O)CC1Nc2ccccc2-c2ccnc3[nH]cc1c23

>  <Set>  (44) 
G1 active

>  <Set_type>  (44) 
G1

>  <MW>  (44) 
293.33

>  <HBD>  (44) 
2

>  <HBA>  (44) 
4

>  <NRB>  (44) 
2

>  <NR>  (44) 
4

>  <NAR>  (44) 
3

>  <PSA>  (44) 
67.01

>  <Standard Type>  (44) 
nan

>  <Standard Relation>  (44) 
nan

>  <Standard Units>  (44) 
nan

>  <Standard Value>  (44) 
nan

>  <Assay ChEMBL ID>  (44) 
nan

>  <Assay Description>  (44) 
nan

>  <BAO Label>  (44) 
nan

$$$$

     RDKit          2D

 15 17  0  0  0  0  0  0  0  0999 V2000
   -6.4268    0.3631    0.0000 C   0  0  0  0  0  0  0  0  0  0  0  0
   -6.1149    1.8303    0.0000 C   0  0  0  0  0  0  0  0  0  0  0  0
   -4.6883    2.2939    0.0000 C   0  0  0  0  0  0  0  0  0  0  0  0
   -3.5736    1.2902    0.0000 C   0  0  0  0  0  0  0  0  0  0  0  0
   -2.1470    1.7537    0.0000 C   0  0  0  0  0  0  0  0  0  0  0  0
   -1.8351    3.2209    0.0000 N   0  0  0  0  0  0  0  0  0  0  0  0
   -0.4086    3.6844    0.0000 C   0  0  0  0  0  0  0  0  0  0  0  0
    0.7062    2.6807    0.0000 N   0  0  0  0  0  0  0  0  0  0  0  0
    0.3943    1.2135    0.0000 C   0  0  0  0  0  0  0  0  0  0  0  0
    1.2760    0.0000    0.0000 N   0  0  0  0  0  0  0  0  0  0  0  0
    0.3943   -1.2135    0.0000 C   0  0  0  0  0  0  0  0  0  0  0  0
   -1.0323   -0.7500    0.0000 C   0  0  0  0  0  0  0  0  0  0  0  0
   -1.0323    0.7500    0.0000 C   0  0  0  0  0  0  0  0  0  0  0  0
   -3.8855   -0.1771    0.0000 C   0  0  0  0  0  0  0  0  0  0  0  0
   -5.3120   -0.6406    0.0000 C   0  0  0  0  0  0  0  0  0  0  0  0
  1  2  2  0
  2  3  1  0
  3  4  2  0
  4  5  1  0
  5  6  2  0
  6  7  1  0
  7  8  2  0
  8  9  1  0
  9 10  1  0
 10 11  1  0
 11 12  2  0
 12 13  1  0
  4 14  1  0
 14 15  2  0
 15  1  1  0
 13  5  1  0
 13  9  2  0
M  END
>  <Compound_ID>  (45) 
CHEMBL578974

>  <Active>  (45) 
1

>  <Smiles>  (45) 
c1ccc(-c2ncnc3[nH]ccc23)cc1

>  <canonical_smi>  (45) 
c1ccc(-c2ncnc3[nH]ccc23)cc1

>  <Set>  (45) 
G1 active

>  <Set_type>  (45) 
G1

>  <MW>  (45) 
195.23

>  <HBD>  (45) 
1

>  <HBA>  (45) 
2

>  <NRB>  (45) 
1

>  <NR>  (45) 
3

>  <NAR>  (45) 
3

>  <PSA>  (45) 
41.57

>  <Standard Type>  (45) 
nan

>  <Standard Relation>  (45) 
nan

>  <Standard Units>  (45) 
nan

>  <Standard Value>  (45) 
nan

>  <Assay ChEMBL ID>  (45) 
nan

>  <Assay Description>  (45) 
nan

>  <BAO Label>  (45) 
nan

$$$$

     RDKit          2D

 30 33  0  0  0  0  0  0  0  0999 V2000
  -10.3923    0.8927    0.0000 C   0  0  0  0  0  0  0  0  0  0  0  0
  -10.3923   -0.6073    0.0000 N   0  0  0  0  0  0  0  0  0  0  0  0
  -11.6913   -1.3573    0.0000 C   0  0  0  0  0  0  0  0  0  0  0  0
   -9.0933   -1.3573    0.0000 C   0  0  0  0  0  0  0  0  0  0  0  0
   -9.0933   -2.8573    0.0000 C   0  0  0  0  0  0  0  0  0  0  0  0
   -7.7942   -3.6073    0.0000 N   0  0  0  0  0  0  0  0  0  0  0  0
   -7.7942   -5.1073    0.0000 C   0  0  0  0  0  0  0  0  0  0  0  0
   -9.0933   -5.8573    0.0000 O   0  0  0  0  0  0  0  0  0  0  0  0
   -6.4952   -5.8573    0.0000 C   0  0  0  0  0  0  0  0  0  0  0  0
   -5.1962   -5.1073    0.0000 C   0  0  0  0  0  0  0  0  0  0  0  0
   -3.8971   -5.8573    0.0000 C   0  0  0  0  0  0  0  0  0  0  0  0
   -3.8971   -7.3573    0.0000 C   0  0  0  0  0  0  0  0  0  0  0  0
   -2.5981   -8.1073    0.0000 N   0  0  0  0  0  0  0  0  0  0  0  0
   -1.2990   -7.3573    0.0000 C   0  0  0  0  0  0  0  0  0  0  0  0
    0.0000   -8.1073    0.0000 N   0  0  0  0  0  0  0  0  0  0  0  0
    1.2990   -7.3573    0.0000 C   0  0  0  0  0  0  0  0  0  0  0  0
    1.2990   -5.8573    0.0000 C   0  0  0  0  0  0  0  0  0  0  0  0
   -0.0000   -5.1073    0.0000 C   0  0  0  0  0  0  0  0  0  0  0  0
   -0.0000   -3.6073    0.0000 C   0  0  0  0  0  0  0  0  0  0  0  0
    1.2135   -2.7256    0.0000 C   0  0  0  0  0  0  0  0  0  0  0  0
    0.7500   -1.2990    0.0000 C   0  0  0  0  0  0  0  0  0  0  0  0
    1.5000    0.0000    0.0000 C   0  0  0  0  0  0  0  0  0  0  0  0
    0.7500    1.2990    0.0000 C   0  0  0  0  0  0  0  0  0  0  0  0
   -0.7500    1.2990    0.0000 C   0  0  0  0  0  0  0  0  0  0  0  0
   -1.5000    0.0000    0.0000 C   0  0  0  0  0  0  0  0  0  0  0  0
   -0.7500   -1.2990    0.0000 C   0  0  0  0  0  0  0  0  0  0  0  0
   -1.2135   -2.7256    0.0000 S   0  0  0  0  0  0  0  0  0  0  0  0
   -1.2990   -5.8573    0.0000 N   0  0  0  0  0  0  0  0  0  0  0  0
   -5.1962   -8.1073    0.0000 C   0  0  0  0  0  0  0  0  0  0  0  0
   -6.4952   -7.3573    0.0000 C   0  0  0  0  0  0  0  0  0  0  0  0
  1  2  1  0
  2  3  1  0
  2  4  1  0
  4  5  1  0
  5  6  1  0
  6  7  1  0
  7  8  2  0
  7  9  1  0
  9 10  2  0
 10 11  1  0
 11 12  2  0
 12 13  1  0
 13 14  1  0
 14 15  2  0
 15 16  1  0
 16 17  2  0
 17 18  1  0
 18 19  1  0
 19 20  2  0
 20 21  1  0
 21 22  2  0
 22 23  1  0
 23 24  2  0
 24 25  1  0
 25 26  2  0
 26 27  1  0
 18 28  2  0
 12 29  1  0
 29 30  2  0
 30  9  1  0
 28 14  1  0
 27 19  1  0
 26 21  1  0
M  END
>  <Compound_ID>  (46) 
CHEMBL200832

>  <Active>  (46) 
1

>  <Smiles>  (46) 
CN(C)CCNC(=O)c1ccc(Nc2nccc(-c3cc4ccccc4s3)n2)cc1

>  <canonical_smi>  (46) 
CN(C)CCNC(=O)c1ccc(Nc2nccc(-c3cc4ccccc4s3)n2)cc1

>  <Set>  (46) 
G1 active

>  <Set_type>  (46) 
G1

>  <MW>  (46) 
417.54

>  <HBD>  (46) 
2

>  <HBA>  (46) 
5

>  <NRB>  (46) 
7

>  <NR>  (46) 
4

>  <NAR>  (46) 
4

>  <PSA>  (46) 
70.15

>  <Standard Type>  (46) 
nan

>  <Standard Relation>  (46) 
nan

>  <Standard Units>  (46) 
nan

>  <Standard Value>  (46) 
nan

>  <Assay ChEMBL ID>  (46) 
nan

>  <Assay Description>  (46) 
nan

>  <BAO Label>  (46) 
nan

$$$$

     RDKit          2D

 38 41  0  0  0  0  0  0  0  0999 V2000
    3.7500   -1.2990    0.0000 C   0  0  0  0  0  0  0  0  0  0  0  0
    3.0000    0.0000    0.0000 N   0  0  0  0  0  0  0  0  0  0  0  0
    3.7500    1.2990    0.0000 C   0  0  0  0  0  0  0  0  0  0  0  0
    1.5000    0.0000    0.0000 C   0  0  0  0  0  0  0  0  0  0  0  0
    0.7500   -1.2990    0.0000 C   0  0  0  0  0  0  0  0  0  0  0  0
   -0.7500   -1.2990    0.0000 C   0  0  0  0  0  0  0  0  0  0  0  0
   -1.5000    0.0000    0.0000 C   0  0  0  0  0  0  0  0  0  0  0  0
   -0.7500    1.2990    0.0000 N   0  0  0  0  0  0  0  0  0  0  0  0
   -1.5000    2.5981    0.0000 C   0  0  0  0  0  0  0  0  0  0  0  0
   -0.7500    3.8971    0.0000 C   0  0  0  0  0  0  0  0  0  0  0  0
   -1.5000    5.1962    0.0000 C   0  0  0  0  0  0  0  0  0  0  0  0
   -3.0000    5.1962    0.0000 C   0  0  0  0  0  0  0  0  0  0  0  0
   -3.7500    6.4952    0.0000 C   0  0  0  0  0  0  0  0  0  0  0  0
   -4.5000    7.7942    0.0000 F   0  0  0  0  0  0  0  0  0  0  0  0
   -2.4510    7.2452    0.0000 F   0  0  0  0  0  0  0  0  0  0  0  0
   -5.0490    5.7452    0.0000 F   0  0  0  0  0  0  0  0  0  0  0  0
   -3.7500    3.8971    0.0000 C   0  0  0  0  0  0  0  0  0  0  0  0
   -3.0000    2.5981    0.0000 C   0  0  0  0  0  0  0  0  0  0  0  0
   -3.7500    1.2990    0.0000 N   0  0  0  0  0  0  0  0  0  0  0  0
   -5.2500    1.2990    0.0000 C   0  0  0  0  0  0  0  0  0  0  0  0
   -6.0000    2.5981    0.0000 O   0  0  0  0  0  0  0  0  0  0  0  0
   -6.0000    0.0000    0.0000 C   0  0  0  0  0  0  0  0  0  0  0  0
   -7.5000    0.0000    0.0000 C   0  0  0  0  0  0  0  0  0  0  0  0
   -8.2500   -1.2990    0.0000 C   0  0  0  0  0  0  0  0  0  0  0  0
   -9.7500   -1.2990    0.0000 C   0  0  0  0  0  0  0  0  0  0  0  0
  -11.2500   -1.2990    0.0000 C   0  0  0  0  0  0  0  0  0  0  0  0
  -12.7500   -1.2990    0.0000 C   0  0  0  0  0  0  0  0  0  0  0  0
  -13.5000    0.0000    0.0000 C   0  0  0  0  0  0  0  0  0  0  0  0
  -15.0000    0.0000    0.0000 N   0  0  0  0  0  0  0  0  0  0  0  0
  -15.7500   -1.2990    0.0000 C   0  0  0  0  0  0  0  0  0  0  0  0
  -17.2500   -1.2990    0.0000 N   0  0  0  0  0  0  0  0  0  0  0  0
  -15.0000   -2.5981    0.0000 N   0  0  0  0  0  0  0  0  0  0  0  0
  -13.5000   -2.5981    0.0000 C   0  0  0  0  0  0  0  0  0  0  0  0
   -7.5000   -2.5981    0.0000 C   0  0  0  0  0  0  0  0  0  0  0  0
   -6.0000   -2.5981    0.0000 C   0  0  0  0  0  0  0  0  0  0  0  0
   -5.2500   -1.2990    0.0000 C   0  0  0  0  0  0  0  0  0  0  0  0
   -3.7500   -1.2990    0.0000 F   0  0  0  0  0  0  0  0  0  0  0  0
    0.7500    1.2990    0.0000 C   0  0  0  0  0  0  0  0  0  0  0  0
  1  2  1  0
  2  3  1  0
  4  2  1  1
  4  5  1  0
  5  6  1  0
  6  7  1  0
  7  8  1  0
  8  9  1  0
  9 10  2  0
 10 11  1  0
 11 12  2  0
 12 13  1  0
 13 14  1  0
 13 15  1  0
 13 16  1  0
 12 17  1  0
 17 18  2  0
 18 19  1  0
 19 20  1  0
 20 21  2  0
 20 22  1  0
 22 23  2  0
 23 24  1  0
 24 25  1  0
 25 26  3  0
 26 27  1  0
 27 28  2  0
 28 29  1  0
 29 30  2  0
 30 31  1  0
 30 32  1  0
 32 33  2  0
 24 34  2  0
 34 35  1  0
 35 36  2  0
 36 37  1  0
  8 38  1  0
 38  4  1  0
 18  9  1  0
 36 22  1  0
 33 27  1  0
M  END
>  <Compound_ID>  (47) 
CHEMBL386637

>  <Active>  (47) 
1

>  <Smiles>  (47) 
CN(C)[C@H]1CCCN(c2ccc(C(F)(F)F)cc2NC(=O)c2cc(C#Cc3cnc(N)nc3)ccc2F)C1

>  <canonical_smi>  (47) 
CN(C)[C@H]1CCCN(c2ccc(C(F)(F)F)cc2NC(=O)c2cc(C#Cc3cnc(N)nc3)ccc2F)C1

>  <Set>  (47) 
G1 active

>  <Set_type>  (47) 
G1

>  <MW>  (47) 
526.54

>  <HBD>  (47) 
2

>  <HBA>  (47) 
6

>  <NRB>  (47) 
4

>  <NR>  (47) 
4

>  <NAR>  (47) 
3

>  <PSA>  (47) 
87.38

>  <Standard Type>  (47) 
nan

>  <Standard Relation>  (47) 
nan

>  <Standard Units>  (47) 
nan

>  <Standard Value>  (47) 
nan

>  <Assay ChEMBL ID>  (47) 
nan

>  <Assay Description>  (47) 
nan

>  <BAO Label>  (47) 
nan

$$$$

     RDKit          2D

 26 29  0  0  0  0  0  0  0  0999 V2000
   -6.4289   -8.5179    0.0000 C   0  0  0  0  0  0  0  0  0  0  0  0
   -6.1170   -7.0506    0.0000 C   0  0  0  0  0  0  0  0  0  0  0  0
   -4.6904   -6.5871    0.0000 N   0  0  0  0  0  0  0  0  0  0  0  0
   -3.5757   -7.5908    0.0000 C   0  0  0  0  0  0  0  0  0  0  0  0
   -3.8876   -9.0580    0.0000 C   0  0  0  0  0  0  0  0  0  0  0  0
   -5.3142   -9.5216    0.0000 C   0  0  0  0  0  0  0  0  0  0  0  0
   -5.6260  -10.9888    0.0000 C   0  0  0  0  0  0  0  0  0  0  0  0
   -4.5113  -11.9925    0.0000 N   0  0  0  0  0  0  0  0  0  0  0  0
   -3.0847  -11.5290    0.0000 C   0  0  0  0  0  0  0  0  0  0  0  0
   -2.7729  -10.0617    0.0000 C   0  0  0  0  0  0  0  0  0  0  0  0
   -4.3786   -5.1199    0.0000 C   0  0  0  0  0  0  0  0  0  0  0  0
   -2.9520   -4.6564    0.0000 C   0  0  0  0  0  0  0  0  0  0  0  0
   -2.6401   -3.1891    0.0000 C   0  0  0  0  0  0  0  0  0  0  0  0
   -1.2135   -2.7256    0.0000 C   0  0  0  0  0  0  0  0  0  0  0  0
   -0.0000   -3.6073    0.0000 C   0  0  0  0  0  0  0  0  0  0  0  0
    0.0000   -5.1073    0.0000 N   0  0  0  0  0  0  0  0  0  0  0  0
    1.2135   -2.7256    0.0000 N   0  0  0  0  0  0  0  0  0  0  0  0
    0.7500   -1.2990    0.0000 N   0  0  0  0  0  0  0  0  0  0  0  0
    1.5000    0.0000    0.0000 C   0  0  0  0  0  0  0  0  0  0  0  0
    0.7500    1.2990    0.0000 C   0  0  0  0  0  0  0  0  0  0  0  0
   -0.7500    1.2990    0.0000 C   0  0  0  0  0  0  0  0  0  0  0  0
   -1.5000    0.0000    0.0000 N   0  0  0  0  0  0  0  0  0  0  0  0
   -0.7500   -1.2990    0.0000 C   0  0  0  0  0  0  0  0  0  0  0  0
   -3.7548   -2.1855    0.0000 N   0  0  0  0  0  0  0  0  0  0  0  0
   -5.1814   -2.6490    0.0000 C   0  0  0  0  0  0  0  0  0  0  0  0
   -5.4933   -4.1162    0.0000 N   0  0  0  0  0  0  0  0  0  0  0  0
  1  2  1  0
  2  3  1  0
  3  4  1  0
  4  5  1  0
  5  6  2  0
  6  7  1  0
  7  8  2  0
  8  9  1  0
  9 10  2  0
  3 11  1  0
 11 12  2  0
 12 13  1  0
 13 14  1  0
 14 15  1  0
 15 16  1  0
 15 17  2  0
 17 18  1  0
 18 19  1  0
 19 20  2  0
 20 21  1  0
 21 22  2  0
 22 23  1  0
 13 24  2  0
 24 25  1  0
 25 26  2  0
 10  5  1  0
 26 11  1  0
 23 14  2  0
 23 18  1  0
M  END
>  <Compound_ID>  (48) 
CHEMBL569739

>  <Active>  (48) 
1

>  <Smiles>  (48) 
CCN(Cc1ccncc1)c1cc(-c2c(N)nn3cccnc23)ncn1

>  <canonical_smi>  (48) 
CCN(Cc1ccncc1)c1cc(-c2c(N)nn3cccnc23)ncn1

>  <Set>  (48) 
G1 active

>  <Set_type>  (48) 
G1

>  <MW>  (48) 
346.4

>  <HBD>  (48) 
1

>  <HBA>  (48) 
7

>  <NRB>  (48) 
5

>  <NR>  (48) 
4

>  <NAR>  (48) 
4

>  <PSA>  (48) 
98.12

>  <Standard Type>  (48) 
nan

>  <Standard Relation>  (48) 
nan

>  <Standard Units>  (48) 
nan

>  <Standard Value>  (48) 
nan

>  <Assay ChEMBL ID>  (48) 
nan

>  <Assay Description>  (48) 
nan

>  <BAO Label>  (48) 
nan

$$$$

     RDKit          2D

 22 25  0  0  0  0  0  0  0  0999 V2000
   -0.0000   -5.1073    0.0000 O   0  0  0  0  0  0  0  0  0  0  0  0
   -0.0000   -3.6073    0.0000 C   0  0  0  0  0  0  0  0  0  0  0  0
    1.2135   -2.7256    0.0000 N   0  0  0  0  0  0  0  0  0  0  0  0
    0.7500   -1.2990    0.0000 C   0  0  0  0  0  0  0  0  0  0  0  0
    1.5000    0.0000    0.0000 C   0  0  0  0  0  0  0  0  0  0  0  0
    0.7500    1.2990    0.0000 C   0  0  0  0  0  0  0  0  0  0  0  0
   -0.7500    1.2990    0.0000 C   0  0  0  0  0  0  0  0  0  0  0  0
   -1.5000    2.5981    0.0000 C   0  0  0  0  0  0  0  0  0  0  0  0
   -0.7500    3.8971    0.0000 C   0  0  0  0  0  0  0  0  0  0  0  0
   -1.5000    5.1962    0.0000 C   0  0  0  0  0  0  0  0  0  0  0  0
   -3.0000    5.1962    0.0000 C   0  0  0  0  0  0  0  0  0  0  0  0
   -3.7500    3.8971    0.0000 N   0  0  0  0  0  0  0  0  0  0  0  0
   -3.0000    2.5981    0.0000 C   0  0  0  0  0  0  0  0  0  0  0  0
   -1.5000    0.0000    0.0000 C   0  0  0  0  0  0  0  0  0  0  0  0
   -0.7500   -1.2990    0.0000 C   0  0  0  0  0  0  0  0  0  0  0  0
   -1.2135   -2.7256    0.0000 C   0  0  0  0  0  0  0  0  0  0  0  0
   -2.6401   -3.1891    0.0000 C   0  0  0  0  0  0  0  0  0  0  0  0
   -2.9520   -4.6564    0.0000 C   0  0  0  0  0  0  0  0  0  0  0  0
   -1.9483   -5.7711    0.0000 C   0  0  0  0  0  0  0  0  0  0  0  0
   -2.6983   -7.0701    0.0000 C   0  0  0  0  0  0  0  0  0  0  0  0
   -4.1655   -6.7583    0.0000 C   0  0  0  0  0  0  0  0  0  0  0  0
   -4.3223   -5.2665    0.0000 N   0  0  0  0  0  0  0  0  0  0  0  0
  1  2  2  0
  2  3  1  0
  3  4  1  0
  4  5  2  0
  5  6  1  0
  6  7  2  0
  7  8  1  0
  8  9  2  0
  9 10  1  0
 10 11  2  0
 11 12  1  0
 12 13  2  0
  7 14  1  0
 14 15  2  0
 15 16  1  0
 16 17  2  0
 17 18  1  0
 18 19  2  0
 19 20  1  0
 20 21  2  0
 21 22  1  0
 16  2  1  0
 22 18  1  0
 15  4  1  0
 13  8  1  0
M  END
>  <Compound_ID>  (49) 
CHEMBL323994

>  <Active>  (49) 
1

>  <Smiles>  (49) 
O=C1Nc2ccc(-c3cccnc3)cc2/C1=C/c1ccc[nH]1

>  <canonical_smi>  (49) 
O=C1Nc2ccc(-c3cccnc3)cc2/C1=C/c1ccc[nH]1

>  <Set>  (49) 
G1 active

>  <Set_type>  (49) 
G1

>  <MW>  (49) 
287.32

>  <HBD>  (49) 
2

>  <HBA>  (49) 
2

>  <NRB>  (49) 
2

>  <NR>  (49) 
4

>  <NAR>  (49) 
3

>  <PSA>  (49) 
57.78

>  <Standard Type>  (49) 
nan

>  <Standard Relation>  (49) 
nan

>  <Standard Units>  (49) 
nan

>  <Standard Value>  (49) 
nan

>  <Assay ChEMBL ID>  (49) 
nan

>  <Assay Description>  (49) 
nan

>  <BAO Label>  (49) 
nan

$$$$

     RDKit          2D

 38 41  0  0  0  0  0  0  0  0999 V2000
    3.7500   -1.2990    0.0000 C   0  0  0  0  0  0  0  0  0  0  0  0
    3.0000    0.0000    0.0000 C   0  0  0  0  0  0  0  0  0  0  0  0
    1.5000    0.0000    0.0000 N   0  0  0  0  0  0  0  0  0  0  0  0
    0.7500   -1.2990    0.0000 C   0  0  0  0  0  0  0  0  0  0  0  0
   -0.7500   -1.2990    0.0000 C   0  0  0  0  0  0  0  0  0  0  0  0
   -1.5000    0.0000    0.0000 N   0  0  0  0  0  0  0  0  0  0  0  0
   -3.0000    0.0000    0.0000 C   0  0  0  0  0  0  0  0  0  0  0  0
   -3.7500    1.2990    0.0000 C   0  0  0  0  0  0  0  0  0  0  0  0
   -3.0000    2.5981    0.0000 C   0  0  0  0  0  0  0  0  0  0  0  0
   -3.7500    3.8971    0.0000 C   0  0  0  0  0  0  0  0  0  0  0  0
   -5.2500    3.8971    0.0000 C   0  0  0  0  0  0  0  0  0  0  0  0
   -6.0000    5.1962    0.0000 N   0  0  0  0  0  0  0  0  0  0  0  0
   -5.2500    6.4952    0.0000 C   0  0  0  0  0  0  0  0  0  0  0  0
   -3.7500    6.4952    0.0000 O   0  0  0  0  0  0  0  0  0  0  0  0
   -6.0000    7.7942    0.0000 N   0  0  0  0  0  0  0  0  0  0  0  0
   -5.2500    9.0933    0.0000 C   0  0  0  0  0  0  0  0  0  0  0  0
   -3.7500    9.0933    0.0000 C   0  0  0  0  0  0  0  0  0  0  0  0
   -3.0000   10.3923    0.0000 C   0  0  0  0  0  0  0  0  0  0  0  0
   -3.7500   11.6913    0.0000 C   0  0  0  0  0  0  0  0  0  0  0  0
   -3.0000   12.9904    0.0000 O   0  0  0  0  0  0  0  0  0  0  0  0
   -1.5000   12.9904    0.0000 C   0  0  0  0  0  0  0  0  0  0  0  0
   -0.7500   11.6913    0.0000 C   0  0  0  0  0  0  0  0  0  0  0  0
    0.7500   11.6913    0.0000 C   0  0  0  0  0  0  0  0  0  0  0  0
    1.5000   10.3923    0.0000 N   0  0  0  0  0  0  0  0  0  0  0  0
    0.7500    9.0933    0.0000 C   0  0  0  0  0  0  0  0  0  0  0  0
    1.5000   12.9904    0.0000 N   0  0  0  0  0  0  0  0  0  0  0  0
    0.7500   14.2894    0.0000 C   0  0  0  0  0  0  0  0  0  0  0  0
   -0.7500   14.2894    0.0000 N   0  0  0  0  0  0  0  0  0  0  0  0
   -5.2500   11.6913    0.0000 C   0  0  0  0  0  0  0  0  0  0  0  0
   -6.0000   10.3923    0.0000 C   0  0  0  0  0  0  0  0  0  0  0  0
   -6.0000    2.5981    0.0000 C   0  0  0  0  0  0  0  0  0  0  0  0
   -5.2500    1.2990    0.0000 C   0  0  0  0  0  0  0  0  0  0  0  0
   -6.0000    0.0000    0.0000 C   0  0  0  0  0  0  0  0  0  0  0  0
   -6.7500   -1.2990    0.0000 F   0  0  0  0  0  0  0  0  0  0  0  0
   -7.2990    0.7500    0.0000 F   0  0  0  0  0  0  0  0  0  0  0  0
   -4.7010   -0.7500    0.0000 F   0  0  0  0  0  0  0  0  0  0  0  0
   -0.7500    1.2990    0.0000 C   0  0  0  0  0  0  0  0  0  0  0  0
    0.7500    1.2990    0.0000 C   0  0  0  0  0  0  0  0  0  0  0  0
  1  2  1  0
  2  3  1  0
  3  4  1  0
  4  5  1  0
  5  6  1  0
  6  7  1  0
  7  8  1  0
  8  9  2  0
  9 10  1  0
 10 11  2  0
 11 12  1  0
 12 13  1  0
 13 14  2  0
 13 15  1  0
 15 16  1  0
 16 17  2  0
 17 18  1  0
 18 19  2  0
 19 20  1  0
 20 21  1  0
 21 22  2  0
 22 23  1  0
 23 24  1  0
 24 25  1  0
 23 26  2  0
 26 27  1  0
 27 28  2  0
 19 29  1  0
 29 30  2  0
 11 31  1  0
 31 32  2  0
 32 33  1  0
 33 34  1  0
 33 35  1  0
 33 36  1  0
  6 37  1  0
 37 38  1  0
 38  3  1  0
 32  8  1  0
 30 16  1  0
 28 21  1  0
M  END
>  <Compound_ID>  (50) 
CHEMBL574738

>  <Active>  (50) 
1

>  <Smiles>  (50) 
CCN1CCN(Cc2ccc(NC(=O)Nc3ccc(Oc4cc(NC)ncn4)cc3)cc2C(F)(F)F)CC1

>  <canonical_smi>  (50) 
CCN1CCN(Cc2ccc(NC(=O)Nc3ccc(Oc4cc(NC)ncn4)cc3)cc2C(F)(F)F)CC1

>  <Set>  (50) 
G1 active

>  <Set_type>  (50) 
G1

>  <MW>  (50) 
529.57

>  <HBD>  (50) 
3

>  <HBA>  (50) 
7

>  <NRB>  (50) 
8

>  <NR>  (50) 
4

>  <NAR>  (50) 
3

>  <PSA>  (50) 
94.65

>  <Standard Type>  (50) 
nan

>  <Standard Relation>  (50) 
nan

>  <Standard Units>  (50) 
nan

>  <Standard Value>  (50) 
nan

>  <Assay ChEMBL ID>  (50) 
nan

>  <Assay Description>  (50) 
nan

>  <BAO Label>  (50) 
nan

$$$$

     RDKit          2D

 27 31  0  0  0  0  0  0  0  0999 V2000
    3.0000    0.0000    0.0000 O   0  0  0  0  0  0  0  0  0  0  0  0
    1.5000    0.0000    0.0000 C   0  0  0  0  0  0  0  0  0  0  0  0
    0.7500   -1.2990    0.0000 N   0  0  0  0  0  0  0  0  0  0  0  0
   -0.7500   -1.2990    0.0000 C   0  0  0  0  0  0  0  0  0  0  0  0
   -1.5000    0.0000    0.0000 C   0  0  0  0  0  0  0  0  0  0  0  0
   -0.7500    1.2990    0.0000 C   0  0  0  0  0  0  0  0  0  0  0  0
   -1.5000    2.5981    0.0000 C   0  0  0  0  0  0  0  0  0  0  0  0
   -2.9672    2.9099    0.0000 N   0  0  0  0  0  0  0  0  0  0  0  0
   -3.1240    4.4017    0.0000 C   0  0  0  0  0  0  0  0  0  0  0  0
   -4.4231    5.1517    0.0000 C   0  0  0  0  0  0  0  0  0  0  0  0
   -4.4231    6.6517    0.0000 C   0  0  0  0  0  0  0  0  0  0  0  0
   -3.1240    7.4017    0.0000 F   0  0  0  0  0  0  0  0  0  0  0  0
   -5.7221    7.4017    0.0000 C   0  0  0  0  0  0  0  0  0  0  0  0
   -7.0211    6.6517    0.0000 C   0  0  0  0  0  0  0  0  0  0  0  0
   -7.0211    5.1517    0.0000 C   0  0  0  0  0  0  0  0  0  0  0  0
   -5.7221    4.4017    0.0000 C   0  0  0  0  0  0  0  0  0  0  0  0
   -5.7221    2.9017    0.0000 Cl  0  0  0  0  0  0  0  0  0  0  0  0
   -1.7537    5.0118    0.0000 N   0  0  0  0  0  0  0  0  0  0  0  0
   -0.7500    3.8971    0.0000 C   0  0  0  0  0  0  0  0  0  0  0  0
    0.7500    3.8971    0.0000 C   0  0  0  0  0  0  0  0  0  0  0  0
    1.5000    5.1962    0.0000 C   0  0  0  0  0  0  0  0  0  0  0  0
    3.0000    5.1962    0.0000 C   0  0  0  0  0  0  0  0  0  0  0  0
    3.7500    3.8971    0.0000 C   0  0  0  0  0  0  0  0  0  0  0  0
    5.2500    3.8971    0.0000 F   0  0  0  0  0  0  0  0  0  0  0  0
    3.0000    2.5981    0.0000 C   0  0  0  0  0  0  0  0  0  0  0  0
    1.5000    2.5981    0.0000 C   0  0  0  0  0  0  0  0  0  0  0  0
    0.7500    1.2990    0.0000 C   0  0  0  0  0  0  0  0  0  0  0  0
  1  2  2  0
  2  3  1  0
  3  4  1  0
  4  5  2  0
  5  6  1  0
  6  7  2  0
  7  8  1  0
  8  9  1  0
  9 10  1  0
 10 11  2  0
 11 12  1  0
 11 13  1  0
 13 14  2  0
 14 15  1  0
 15 16  2  0
 16 17  1  0
  9 18  2  0
 18 19  1  0
 19 20  2  0
 20 21  1  0
 21 22  2  0
 22 23  1  0
 23 24  1  0
 23 25  2  0
 25 26  1  0
 26 27  2  0
 27  2  1  0
 27  6  1  0
 19  7  1  0
 26 20  1  0
 16 10  1  0
M  END
>  <Compound_ID>  (51) 
CHEMBL272424

>  <Active>  (51) 
1

>  <Smiles>  (51) 
O=c1[nH]ccc2c3[nH]c(-c4c(F)cccc4Cl)nc3c3ccc(F)cc3c12

>  <canonical_smi>  (51) 
O=c1[nH]ccc2c3[nH]c(-c4c(F)cccc4Cl)nc3c3ccc(F)cc3c12

>  <Set>  (51) 
G2 active

>  <Set_type>  (51) 
Train

>  <MW>  (51) 
381.77

>  <HBD>  (51) 
2

>  <HBA>  (51) 
2

>  <NRB>  (51) 
1

>  <NR>  (51) 
5

>  <NAR>  (51) 
5

>  <PSA>  (51) 
61.54

>  <Standard Type>  (51) 
nan

>  <Standard Relation>  (51) 
nan

>  <Standard Units>  (51) 
nan

>  <Standard Value>  (51) 
nan

>  <Assay ChEMBL ID>  (51) 
nan

>  <Assay Description>  (51) 
nan

>  <BAO Label>  (51) 
nan

$$$$

     RDKit          2D

 25 27  0  0  0  0  0  0  0  0999 V2000
    6.5218   -4.2298    0.0000 C   0  0  0  0  0  0  0  0  0  0  0  0
    5.3083   -3.3481    0.0000 C   0  0  0  0  0  0  0  0  0  0  0  0
    3.8817   -3.8116    0.0000 C   0  0  0  0  0  0  0  0  0  0  0  0
    3.0000   -2.5981    0.0000 C   0  0  0  0  0  0  0  0  0  0  0  0
    1.5000   -2.5981    0.0000 N   0  0  0  0  0  0  0  0  0  0  0  0
    0.7500   -1.2990    0.0000 C   0  0  0  0  0  0  0  0  0  0  0  0
    1.5000    0.0000    0.0000 C   0  0  0  0  0  0  0  0  0  0  0  0
    0.7500    1.2990    0.0000 N   0  0  0  0  0  0  0  0  0  0  0  0
   -0.7500    1.2990    0.0000 C   0  0  0  0  0  0  0  0  0  0  0  0
   -1.5000    2.5981    0.0000 C   0  0  0  0  0  0  0  0  0  0  0  0
   -2.2500    3.8971    0.0000 N   0  0  0  0  0  0  0  0  0  0  0  0
   -1.5000    0.0000    0.0000 C   0  0  0  0  0  0  0  0  0  0  0  0
   -3.0000    0.0000    0.0000 N   0  0  0  0  0  0  0  0  0  0  0  0
   -3.7500   -1.2990    0.0000 C   0  0  0  0  0  0  0  0  0  0  0  0
   -5.2500   -1.2990    0.0000 C   0  0  0  0  0  0  0  0  0  0  0  0
   -3.0000   -2.5981    0.0000 C   0  0  0  0  0  0  0  0  0  0  0  0
   -3.7500   -3.8971    0.0000 N   0  0  0  0  0  0  0  0  0  0  0  0
   -3.0000   -5.1962    0.0000 C   0  0  0  0  0  0  0  0  0  0  0  0
   -1.5000   -5.1962    0.0000 C   0  0  0  0  0  0  0  0  0  0  0  0
   -0.7500   -6.4952    0.0000 F   0  0  0  0  0  0  0  0  0  0  0  0
   -0.7500   -3.8971    0.0000 C   0  0  0  0  0  0  0  0  0  0  0  0
   -1.5000   -2.5981    0.0000 N   0  0  0  0  0  0  0  0  0  0  0  0
   -0.7500   -1.2990    0.0000 N   0  0  0  0  0  0  0  0  0  0  0  0
    3.8817   -1.3846    0.0000 N   0  0  0  0  0  0  0  0  0  0  0  0
    5.3083   -1.8481    0.0000 N   0  0  0  0  0  0  0  0  0  0  0  0
  1  2  1  0
  2  3  2  0
  3  4  1  0
  4  5  1  0
  5  6  1  0
  6  7  2  0
  7  8  1  0
  8  9  2  0
  9 10  1  0
 10 11  3  0
  9 12  1  0
 12 13  1  0
 13 14  1  0
 14 15  1  6
 14 16  1  0
 16 17  2  0
 17 18  1  0
 18 19  2  0
 19 20  1  0
 19 21  1  0
 21 22  2  0
 12 23  2  0
  4 24  2  0
 24 25  1  0
 25  2  1  0
 23  6  1  0
 22 16  1  0
M  END
>  <Compound_ID>  (52) 
CHEMBL570002

>  <Active>  (52) 
1

>  <Smiles>  (52) 
Cc1cc(Nc2cnc(C#N)c(N[C@@H](C)c3ncc(F)cn3)n2)n[nH]1

>  <canonical_smi>  (52) 
Cc1cc(Nc2cnc(C#N)c(N[C@@H](C)c3ncc(F)cn3)n2)n[nH]1

>  <Set>  (52) 
G2 active

>  <Set_type>  (52) 
Train

>  <MW>  (52) 
339.34

>  <HBD>  (52) 
3

>  <HBA>  (52) 
8

>  <NRB>  (52) 
5

>  <NR>  (52) 
3

>  <NAR>  (52) 
3

>  <PSA>  (52) 
128.09

>  <Standard Type>  (52) 
nan

>  <Standard Relation>  (52) 
nan

>  <Standard Units>  (52) 
nan

>  <Standard Value>  (52) 
nan

>  <Assay ChEMBL ID>  (52) 
nan

>  <Assay Description>  (52) 
nan

>  <BAO Label>  (52) 
nan

$$$$

     RDKit          2D

 27 30  0  0  0  0  0  0  0  0999 V2000
    3.7500   -1.2990    0.0000 C   0  0  0  0  0  0  0  0  0  0  0  0
    3.0000   -2.5981    0.0000 C   0  0  0  0  0  0  0  0  0  0  0  0
    1.5000   -2.5981    0.0000 N   0  0  0  0  0  0  0  0  0  0  0  0
    0.7500   -1.2990    0.0000 C   0  0  0  0  0  0  0  0  0  0  0  0
    1.5000    0.0000    0.0000 N   0  0  0  0  0  0  0  0  0  0  0  0
    0.7500    1.2990    0.0000 C   0  0  0  0  0  0  0  0  0  0  0  0
    1.5000    2.5981    0.0000 N   0  0  0  0  0  0  0  0  0  0  0  0
    3.0000    2.5981    0.0000 C   0  0  0  0  0  0  0  0  0  0  0  0
    3.8817    3.8116    0.0000 C   0  0  0  0  0  0  0  0  0  0  0  0
    5.3083    3.3481    0.0000 C   0  0  0  0  0  0  0  0  0  0  0  0
    6.5218    4.2298    0.0000 C   0  0  0  0  0  0  0  0  0  0  0  0
    7.1319    5.6001    0.0000 C   0  0  0  0  0  0  0  0  0  0  0  0
    8.0136    4.3865    0.0000 C   0  0  0  0  0  0  0  0  0  0  0  0
    5.3083    1.8481    0.0000 N   0  0  0  0  0  0  0  0  0  0  0  0
    3.8817    1.3846    0.0000 N   0  0  0  0  0  0  0  0  0  0  0  0
   -0.7500    1.2990    0.0000 C   0  0  0  0  0  0  0  0  0  0  0  0
   -1.5000    0.0000    0.0000 N   0  0  0  0  0  0  0  0  0  0  0  0
   -0.7500   -1.2990    0.0000 C   0  0  0  0  0  0  0  0  0  0  0  0
   -1.5000   -2.5981    0.0000 C   0  0  0  0  0  0  0  0  0  0  0  0
   -2.2500   -3.8971    0.0000 N   0  0  0  0  0  0  0  0  0  0  0  0
    3.7500   -3.8971    0.0000 C   0  0  0  0  0  0  0  0  0  0  0  0
    5.2500   -3.8971    0.0000 C   0  0  0  0  0  0  0  0  0  0  0  0
    6.0000   -5.1962    0.0000 C   0  0  0  0  0  0  0  0  0  0  0  0
    5.2500   -6.4952    0.0000 C   0  0  0  0  0  0  0  0  0  0  0  0
    6.0000   -7.7942    0.0000 F   0  0  0  0  0  0  0  0  0  0  0  0
    3.7500   -6.4952    0.0000 C   0  0  0  0  0  0  0  0  0  0  0  0
    3.0000   -5.1962    0.0000 N   0  0  0  0  0  0  0  0  0  0  0  0
  2  1  1  1
  2  3  1  0
  3  4  1  0
  4  5  2  0
  5  6  1  0
  6  7  1  0
  7  8  1  0
  8  9  1  0
  9 10  2  0
 10 11  1  0
 11 12  1  0
 12 13  1  0
 10 14  1  0
 14 15  1  0
  6 16  2  0
 16 17  1  0
 17 18  2  0
 18 19  1  0
 19 20  3  0
  2 21  1  0
 21 22  2  0
 22 23  1  0
 23 24  2  0
 24 25  1  0
 24 26  1  0
 26 27  2  0
 18  4  1  0
 27 21  1  0
 15  8  2  0
 13 11  1  0
M  END
>  <Compound_ID>  (53) 
CHEMBL578194

>  <Active>  (53) 
1

>  <Smiles>  (53) 
C[C@H](Nc1nc(Nc2cc(C3CC3)[nH]n2)cnc1C#N)c1ccc(F)cn1

>  <canonical_smi>  (53) 
C[C@H](Nc1nc(Nc2cc(C3CC3)[nH]n2)cnc1C#N)c1ccc(F)cn1

>  <Set>  (53) 
G2 active

>  <Set_type>  (53) 
Train

>  <MW>  (53) 
364.39

>  <HBD>  (53) 
3

>  <HBA>  (53) 
7

>  <NRB>  (53) 
6

>  <NR>  (53) 
4

>  <NAR>  (53) 
3

>  <PSA>  (53) 
115.2

>  <Standard Type>  (53) 
nan

>  <Standard Relation>  (53) 
nan

>  <Standard Units>  (53) 
nan

>  <Standard Value>  (53) 
nan

>  <Assay ChEMBL ID>  (53) 
nan

>  <Assay Description>  (53) 
nan

>  <BAO Label>  (53) 
nan

$$$$

     RDKit          2D

 37 41  0  0  0  0  0  0  0  0999 V2000
   -6.4952   -5.8573    0.0000 C   0  0  0  0  0  0  0  0  0  0  0  0
   -5.1962   -5.1073    0.0000 O   0  0  0  0  0  0  0  0  0  0  0  0
   -3.8971   -5.8573    0.0000 C   0  0  0  0  0  0  0  0  0  0  0  0
   -2.5981   -5.1073    0.0000 C   0  0  0  0  0  0  0  0  0  0  0  0
   -1.2990   -5.8573    0.0000 C   0  0  0  0  0  0  0  0  0  0  0  0
   -0.0000   -5.1073    0.0000 N   0  0  0  0  0  0  0  0  0  0  0  0
   -0.0000   -3.6073    0.0000 C   0  0  0  0  0  0  0  0  0  0  0  0
    1.2135   -2.7256    0.0000 N   0  0  0  0  0  0  0  0  0  0  0  0
    0.7500   -1.2990    0.0000 C   0  0  0  0  0  0  0  0  0  0  0  0
    1.5000    0.0000    0.0000 C   0  0  0  0  0  0  0  0  0  0  0  0
    0.7500    1.2990    0.0000 C   0  0  0  0  0  0  0  0  0  0  0  0
   -0.7500    1.2990    0.0000 C   0  0  0  0  0  0  0  0  0  0  0  0
   -1.5000    0.0000    0.0000 C   0  0  0  0  0  0  0  0  0  0  0  0
   -3.0000    0.0000    0.0000 C   0  0  0  0  0  0  0  0  0  0  0  0
   -3.7500    1.2990    0.0000 C   0  0  0  0  0  0  0  0  0  0  0  0
   -5.2500    1.2990    0.0000 C   0  0  0  0  0  0  0  0  0  0  0  0
   -6.0000    0.0000    0.0000 C   0  0  0  0  0  0  0  0  0  0  0  0
   -7.5000    0.0000    0.0000 C   0  0  0  0  0  0  0  0  0  0  0  0
   -8.2500   -1.2990    0.0000 O   0  0  0  0  0  0  0  0  0  0  0  0
   -8.2500    1.2990    0.0000 N   0  0  0  0  0  0  0  0  0  0  0  0
   -7.5000    2.5981    0.0000 C   0  0  0  0  0  0  0  0  0  0  0  0
   -8.2500    3.8971    0.0000 C   0  0  0  0  0  0  0  0  0  0  0  0
   -9.7500    3.8971    0.0000 O   0  0  0  0  0  0  0  0  0  0  0  0
  -10.5000    2.5981    0.0000 C   0  0  0  0  0  0  0  0  0  0  0  0
   -9.7500    1.2990    0.0000 C   0  0  0  0  0  0  0  0  0  0  0  0
   -5.2500   -1.2990    0.0000 C   0  0  0  0  0  0  0  0  0  0  0  0
   -6.0000   -2.5981    0.0000 F   0  0  0  0  0  0  0  0  0  0  0  0
   -3.7500   -1.2990    0.0000 C   0  0  0  0  0  0  0  0  0  0  0  0
   -0.7500   -1.2990    0.0000 C   0  0  0  0  0  0  0  0  0  0  0  0
   -1.2135   -2.7256    0.0000 O   0  0  0  0  0  0  0  0  0  0  0  0
   -1.2990   -7.3573    0.0000 C   0  0  0  0  0  0  0  0  0  0  0  0
   -2.5981   -8.1073    0.0000 C   0  0  0  0  0  0  0  0  0  0  0  0
   -2.5981   -9.6073    0.0000 O   0  0  0  0  0  0  0  0  0  0  0  0
   -3.8971  -10.3573    0.0000 C   0  0  0  0  0  0  0  0  0  0  0  0
   -3.8971   -7.3573    0.0000 C   0  0  0  0  0  0  0  0  0  0  0  0
   -5.1962   -8.1073    0.0000 O   0  0  0  0  0  0  0  0  0  0  0  0
   -6.4952   -7.3573    0.0000 C   0  0  0  0  0  0  0  0  0  0  0  0
  1  2  1  0
  2  3  1  0
  3  4  2  0
  4  5  1  0
  5  6  1  0
  6  7  1  0
  7  8  2  0
  8  9  1  0
  9 10  2  0
 10 11  1  0
 11 12  2  0
 12 13  1  0
 13 14  1  0
 14 15  2  0
 15 16  1  0
 16 17  2  0
 17 18  1  0
 18 19  2  0
 18 20  1  0
 20 21  1  0
 21 22  1  0
 22 23  1  0
 23 24  1  0
 24 25  1  0
 17 26  1  0
 26 27  1  0
 26 28  2  0
 13 29  2  0
 29 30  1  0
  5 31  2  0
 31 32  1  0
 32 33  1  0
 33 34  1  0
 32 35  2  0
 35 36  1  0
 36 37  1  0
 35  3  1  0
 30  7  1  0
 29  9  1  0
 28 14  1  0
 25 20  1  0
M  END
>  <Compound_ID>  (54) 
CHEMBL1081484

>  <Active>  (54) 
1

>  <Smiles>  (54) 
COc1cc(Nc2nc3cccc(-c4ccc(C(=O)N5CCOCC5)c(F)c4)c3o2)cc(OC)c1OC

>  <canonical_smi>  (54) 
COc1cc(Nc2nc3cccc(-c4ccc(C(=O)N5CCOCC5)c(F)c4)c3o2)cc(OC)c1OC

>  <Set>  (54) 
G2 active

>  <Set_type>  (54) 
Train

>  <MW>  (54) 
507.52

>  <HBD>  (54) 
1

>  <HBA>  (54) 
8

>  <NRB>  (54) 
7

>  <NR>  (54) 
5

>  <NAR>  (54) 
4

>  <PSA>  (54) 
95.29

>  <Standard Type>  (54) 
nan

>  <Standard Relation>  (54) 
nan

>  <Standard Units>  (54) 
nan

>  <Standard Value>  (54) 
nan

>  <Assay ChEMBL ID>  (54) 
nan

>  <Assay Description>  (54) 
nan

>  <BAO Label>  (54) 
nan

$$$$

     RDKit          2D

 25 27  0  0  0  0  0  0  0  0999 V2000
    3.7500   -1.2990    0.0000 C   0  0  0  0  0  0  0  0  0  0  0  0
    3.0000    0.0000    0.0000 O   0  0  0  0  0  0  0  0  0  0  0  0
    1.5000    0.0000    0.0000 C   0  0  0  0  0  0  0  0  0  0  0  0
    0.7500   -1.2990    0.0000 C   0  0  0  0  0  0  0  0  0  0  0  0
   -0.7500   -1.2990    0.0000 C   0  0  0  0  0  0  0  0  0  0  0  0
   -1.5000   -2.5981    0.0000 N   0  0  0  0  0  0  0  0  0  0  0  0
   -3.0000   -2.5981    0.0000 C   0  0  0  0  0  0  0  0  0  0  0  0
   -3.8817   -3.8116    0.0000 N   0  0  0  0  0  0  0  0  0  0  0  0
   -5.3083   -3.3481    0.0000 C   0  0  0  0  0  0  0  0  0  0  0  0
   -5.3083   -1.8481    0.0000 C   0  0  0  0  0  0  0  0  0  0  0  0
   -6.5218   -0.9664    0.0000 C   0  0  0  0  0  0  0  0  0  0  0  0
   -3.8817   -1.3846    0.0000 S   0  0  0  0  0  0  0  0  0  0  0  0
   -1.5000    0.0000    0.0000 N   0  0  0  0  0  0  0  0  0  0  0  0
   -0.7500    1.2990    0.0000 C   0  0  0  0  0  0  0  0  0  0  0  0
   -1.5000    2.5981    0.0000 N   0  0  0  0  0  0  0  0  0  0  0  0
   -0.7500    3.8971    0.0000 C   0  0  0  0  0  0  0  0  0  0  0  0
   -1.5000    5.1962    0.0000 C   0  0  0  0  0  0  0  0  0  0  0  0
    0.7500    3.8971    0.0000 C   0  0  0  0  0  0  0  0  0  0  0  0
    1.5000    2.5981    0.0000 N   0  0  0  0  0  0  0  0  0  0  0  0
    3.0000    2.5981    0.0000 C   0  0  0  0  0  0  0  0  0  0  0  0
    3.7500    3.8971    0.0000 C   0  0  0  0  0  0  0  0  0  0  0  0
    5.2500    3.8971    0.0000 F   0  0  0  0  0  0  0  0  0  0  0  0
    3.0000    5.1962    0.0000 C   0  0  0  0  0  0  0  0  0  0  0  0
    1.5000    5.1962    0.0000 N   0  0  0  0  0  0  0  0  0  0  0  0
    0.7500    1.2990    0.0000 N   0  0  0  0  0  0  0  0  0  0  0  0
  1  2  1  0
  2  3  1  0
  3  4  2  0
  4  5  1  0
  5  6  1  0
  6  7  1  0
  7  8  2  0
  8  9  1  0
  9 10  2  0
 10 11  1  0
 10 12  1  0
  5 13  2  0
 13 14  1  0
 14 15  1  0
 15 16  1  0
 16 17  1  1
 16 18  1  0
 18 19  2  0
 19 20  1  0
 20 21  2  0
 21 22  1  0
 21 23  1  0
 23 24  2  0
 14 25  2  0
 25  3  1  0
 12  7  1  0
 24 18  1  0
M  END
>  <Compound_ID>  (55) 
CHEMBL1088029

>  <Active>  (55) 
1

>  <Smiles>  (55) 
COc1cc(Nc2ncc(C)s2)nc(N[C@@H](C)c2ncc(F)cn2)n1

>  <canonical_smi>  (55) 
COc1cc(Nc2ncc(C)s2)nc(N[C@@H](C)c2ncc(F)cn2)n1

>  <Set>  (55) 
G2 active

>  <Set_type>  (55) 
Train

>  <MW>  (55) 
361.41

>  <HBD>  (55) 
2

>  <HBA>  (55) 
8

>  <NRB>  (55) 
6

>  <NR>  (55) 
3

>  <NAR>  (55) 
3

>  <PSA>  (55) 
97.74

>  <Standard Type>  (55) 
nan

>  <Standard Relation>  (55) 
nan

>  <Standard Units>  (55) 
nan

>  <Standard Value>  (55) 
nan

>  <Assay ChEMBL ID>  (55) 
nan

>  <Assay Description>  (55) 
nan

>  <BAO Label>  (55) 
nan

$$$$

     RDKit          2D

 30 33  0  0  0  0  0  0  0  0999 V2000
   -2.4240   -6.1312    0.0000 C   0  0  0  0  0  0  0  0  0  0  0  0
   -1.0537   -5.5211    0.0000 C   0  0  0  0  0  0  0  0  0  0  0  0
    0.2454   -6.2711    0.0000 C   0  0  0  0  0  0  0  0  0  0  0  0
    1.3601   -5.2674    0.0000 N   0  0  0  0  0  0  0  0  0  0  0  0
    0.7500   -3.8971    0.0000 C   0  0  0  0  0  0  0  0  0  0  0  0
    1.5000   -2.5981    0.0000 N   0  0  0  0  0  0  0  0  0  0  0  0
    0.7500   -1.2990    0.0000 C   0  0  0  0  0  0  0  0  0  0  0  0
    1.5000    0.0000    0.0000 C   0  0  0  0  0  0  0  0  0  0  0  0
    0.7500    1.2990    0.0000 C   0  0  0  0  0  0  0  0  0  0  0  0
    1.5000    2.5981    0.0000 N   0  0  0  0  0  0  0  0  0  0  0  0
    3.0000    2.5981    0.0000 C   0  0  0  0  0  0  0  0  0  0  0  0
    3.7500    3.8971    0.0000 C   0  0  0  0  0  0  0  0  0  0  0  0
    3.0000    5.1962    0.0000 N   0  0  0  0  0  0  0  0  0  0  0  0
    3.7500    6.4952    0.0000 C   0  0  0  0  0  0  0  0  0  0  0  0
    1.5000    5.1962    0.0000 C   0  0  0  0  0  0  0  0  0  0  0  0
    0.7500    3.8971    0.0000 C   0  0  0  0  0  0  0  0  0  0  0  0
   -0.7500    1.2990    0.0000 N   0  0  0  0  0  0  0  0  0  0  0  0
   -1.5000    0.0000    0.0000 C   0  0  0  0  0  0  0  0  0  0  0  0
   -3.0000    0.0000    0.0000 N   0  0  0  0  0  0  0  0  0  0  0  0
   -3.7500    1.2990    0.0000 C   0  0  0  0  0  0  0  0  0  0  0  0
   -5.2500    1.2990    0.0000 C   0  0  0  0  0  0  0  0  0  0  0  0
   -3.0000    2.5981    0.0000 C   0  0  0  0  0  0  0  0  0  0  0  0
   -1.5000    2.5981    0.0000 C   0  0  0  0  0  0  0  0  0  0  0  0
   -0.7500    3.8971    0.0000 C   0  0  0  0  0  0  0  0  0  0  0  0
   -1.5000    5.1962    0.0000 C   0  0  0  0  0  0  0  0  0  0  0  0
   -0.7500    6.4952    0.0000 F   0  0  0  0  0  0  0  0  0  0  0  0
   -3.0000    5.1962    0.0000 C   0  0  0  0  0  0  0  0  0  0  0  0
   -3.7500    3.8971    0.0000 N   0  0  0  0  0  0  0  0  0  0  0  0
   -0.7500   -1.2990    0.0000 N   0  0  0  0  0  0  0  0  0  0  0  0
   -0.7418   -4.0539    0.0000 S   0  0  0  0  0  0  0  0  0  0  0  0
  1  2  1  0
  2  3  2  0
  3  4  1  0
  4  5  2  0
  5  6  1  0
  6  7  1  0
  7  8  2  0
  8  9  1  0
  9 10  1  0
 10 11  1  0
 11 12  1  0
 12 13  1  0
 13 14  1  0
 13 15  1  0
 15 16  1  0
  9 17  2  0
 17 18  1  0
 18 19  1  0
 19 20  1  0
 20 21  1  1
 20 22  1  0
 22 23  2  0
 23 24  1  0
 24 25  2  0
 25 26  1  0
 25 27  1  0
 27 28  2  0
 18 29  2  0
  5 30  1  0
 30  2  1  0
 29  7  1  0
 16 10  1  0
 28 22  1  0
M  END
>  <Compound_ID>  (56) 
CHEMBL1087268

>  <Active>  (56) 
1

>  <Smiles>  (56) 
Cc1cnc(Nc2cc(N3CCN(C)CC3)nc(N[C@@H](C)c3ccc(F)cn3)n2)s1

>  <canonical_smi>  (56) 
Cc1cnc(Nc2cc(N3CCN(C)CC3)nc(N[C@@H](C)c3ccc(F)cn3)n2)s1

>  <Set>  (56) 
G2 active

>  <Set_type>  (56) 
Train

>  <MW>  (56) 
428.54

>  <HBD>  (56) 
2

>  <HBA>  (56) 
8

>  <NRB>  (56) 
6

>  <NR>  (56) 
4

>  <NAR>  (56) 
3

>  <PSA>  (56) 
82.1

>  <Standard Type>  (56) 
nan

>  <Standard Relation>  (56) 
nan

>  <Standard Units>  (56) 
nan

>  <Standard Value>  (56) 
nan

>  <Assay ChEMBL ID>  (56) 
nan

>  <Assay Description>  (56) 
nan

>  <BAO Label>  (56) 
nan

$$$$

     RDKit          2D

 30 33  0  0  0  0  0  0  0  0999 V2000
    1.5000   -5.1962    0.0000 C   0  0  0  0  0  0  0  0  0  0  0  0
    0.7500   -3.8971    0.0000 C   0  0  0  0  0  0  0  0  0  0  0  0
    1.5000   -2.5981    0.0000 N   0  0  0  0  0  0  0  0  0  0  0  0
    0.7500   -1.2990    0.0000 C   0  0  0  0  0  0  0  0  0  0  0  0
    1.5000    0.0000    0.0000 N   0  0  0  0  0  0  0  0  0  0  0  0
    0.7500    1.2990    0.0000 C   0  0  0  0  0  0  0  0  0  0  0  0
    1.5000    2.5981    0.0000 N   0  0  0  0  0  0  0  0  0  0  0  0
    3.0000    2.5981    0.0000 C   0  0  0  0  0  0  0  0  0  0  0  0
    3.8817    3.8116    0.0000 N   0  0  0  0  0  0  0  0  0  0  0  0
    5.3083    3.3481    0.0000 C   0  0  0  0  0  0  0  0  0  0  0  0
    5.3083    1.8481    0.0000 C   0  0  0  0  0  0  0  0  0  0  0  0
    6.5218    0.9664    0.0000 C   0  0  0  0  0  0  0  0  0  0  0  0
    7.7353    0.0847    0.0000 N   0  0  0  0  0  0  0  0  0  0  0  0
    3.8817    1.3846    0.0000 S   0  0  0  0  0  0  0  0  0  0  0  0
   -0.7500    1.2990    0.0000 C   0  0  0  0  0  0  0  0  0  0  0  0
   -1.5000    0.0000    0.0000 C   0  0  0  0  0  0  0  0  0  0  0  0
   -3.0000    0.0000    0.0000 N   0  0  0  0  0  0  0  0  0  0  0  0
   -3.7500    1.2990    0.0000 C   0  0  0  0  0  0  0  0  0  0  0  0
   -5.2500    1.2990    0.0000 C   0  0  0  0  0  0  0  0  0  0  0  0
   -6.0000    0.0000    0.0000 O   0  0  0  0  0  0  0  0  0  0  0  0
   -5.2500   -1.2990    0.0000 C   0  0  0  0  0  0  0  0  0  0  0  0
   -3.7500   -1.2990    0.0000 C   0  0  0  0  0  0  0  0  0  0  0  0
   -0.7500   -1.2990    0.0000 N   0  0  0  0  0  0  0  0  0  0  0  0
   -0.7500   -3.8971    0.0000 C   0  0  0  0  0  0  0  0  0  0  0  0
   -1.5000   -2.5981    0.0000 C   0  0  0  0  0  0  0  0  0  0  0  0
   -3.0000   -2.5981    0.0000 C   0  0  0  0  0  0  0  0  0  0  0  0
   -3.7500   -3.8971    0.0000 C   0  0  0  0  0  0  0  0  0  0  0  0
   -5.2500   -3.8971    0.0000 F   0  0  0  0  0  0  0  0  0  0  0  0
   -3.0000   -5.1962    0.0000 C   0  0  0  0  0  0  0  0  0  0  0  0
   -1.5000   -5.1962    0.0000 N   0  0  0  0  0  0  0  0  0  0  0  0
  2  1  1  1
  2  3  1  0
  3  4  1  0
  4  5  2  0
  5  6  1  0
  6  7  1  0
  7  8  1  0
  8  9  2  0
  9 10  1  0
 10 11  2  0
 11 12  1  0
 12 13  3  0
 11 14  1  0
  6 15  2  0
 15 16  1  0
 16 17  1  0
 17 18  1  0
 18 19  1  0
 19 20  1  0
 20 21  1  0
 21 22  1  0
 16 23  2  0
  2 24  1  0
 24 25  2  0
 25 26  1  0
 26 27  2  0
 27 28  1  0
 27 29  1  0
 29 30  2  0
 23  4  1  0
 30 24  1  0
 14  8  1  0
 22 17  1  0
M  END
>  <Compound_ID>  (57) 
CHEMBL1087398

>  <Active>  (57) 
1

>  <Smiles>  (57) 
C[C@H](Nc1nc(Nc2ncc(C#N)s2)cc(N2CCOCC2)n1)c1ccc(F)cn1

>  <canonical_smi>  (57) 
C[C@H](Nc1nc(Nc2ncc(C#N)s2)cc(N2CCOCC2)n1)c1ccc(F)cn1

>  <Set>  (57) 
G2 active

>  <Set_type>  (57) 
Train

>  <MW>  (57) 
426.48

>  <HBD>  (57) 
2

>  <HBA>  (57) 
9

>  <NRB>  (57) 
6

>  <NR>  (57) 
4

>  <NAR>  (57) 
3

>  <PSA>  (57) 
111.88

>  <Standard Type>  (57) 
nan

>  <Standard Relation>  (57) 
nan

>  <Standard Units>  (57) 
nan

>  <Standard Value>  (57) 
nan

>  <Assay ChEMBL ID>  (57) 
nan

>  <Assay Description>  (57) 
nan

>  <BAO Label>  (57) 
nan

$$$$

     RDKit          2D

 28 31  0  0  0  0  0  0  0  0999 V2000
    3.7500   -1.2990    0.0000 C   0  0  0  0  0  0  0  0  0  0  0  0
    3.0000    0.0000    0.0000 O   0  0  0  0  0  0  0  0  0  0  0  0
    1.5000    0.0000    0.0000 C   0  0  0  0  0  0  0  0  0  0  0  0
    0.7500   -1.2990    0.0000 C   0  0  0  0  0  0  0  0  0  0  0  0
   -0.7500   -1.2990    0.0000 C   0  0  0  0  0  0  0  0  0  0  0  0
   -1.5000   -2.5981    0.0000 C   0  0  0  0  0  0  0  0  0  0  0  0
   -3.0000   -2.5981    0.0000 C   0  0  0  0  0  0  0  0  0  0  0  0
   -3.7500   -3.8971    0.0000 C   0  0  0  0  0  0  0  0  0  0  0  0
   -3.0000   -5.1962    0.0000 N   0  0  0  0  0  0  0  0  0  0  0  0
   -1.5000   -5.1962    0.0000 C   0  0  0  0  0  0  0  0  0  0  0  0
   -0.7500   -6.4952    0.0000 N   0  0  0  0  0  0  0  0  0  0  0  0
   -1.5000   -7.7942    0.0000 C   0  0  0  0  0  0  0  0  0  0  0  0
   -3.0000   -7.7942    0.0000 C   0  0  0  0  0  0  0  0  0  0  0  0
   -3.7500   -9.0933    0.0000 C   0  0  0  0  0  0  0  0  0  0  0  0
   -3.0000  -10.3923    0.0000 C   0  0  0  0  0  0  0  0  0  0  0  0
   -3.7500  -11.6913    0.0000 N   0  0  0  0  0  0  0  0  0  0  0  0
   -5.2500  -11.6913    0.0000 C   0  0  0  0  0  0  0  0  0  0  0  0
   -6.0000  -12.9904    0.0000 C   0  0  0  0  0  0  0  0  0  0  0  0
   -5.2500  -14.2894    0.0000 O   0  0  0  0  0  0  0  0  0  0  0  0
   -3.7500  -14.2894    0.0000 C   0  0  0  0  0  0  0  0  0  0  0  0
   -3.0000  -12.9904    0.0000 C   0  0  0  0  0  0  0  0  0  0  0  0
   -1.5000  -10.3923    0.0000 C   0  0  0  0  0  0  0  0  0  0  0  0
   -0.7500   -9.0933    0.0000 C   0  0  0  0  0  0  0  0  0  0  0  0
   -0.7500   -3.8971    0.0000 N   0  0  0  0  0  0  0  0  0  0  0  0
   -1.5000    0.0000    0.0000 C   0  0  0  0  0  0  0  0  0  0  0  0
   -0.7500    1.2990    0.0000 C   0  0  0  0  0  0  0  0  0  0  0  0
    0.7500    1.2990    0.0000 C   0  0  0  0  0  0  0  0  0  0  0  0
    1.5000    2.5981    0.0000 O   0  0  0  0  0  0  0  0  0  0  0  0
  1  2  1  0
  2  3  1  0
  3  4  2  0
  4  5  1  0
  5  6  1  0
  6  7  2  0
  7  8  1  0
  8  9  2  0
  9 10  1  0
 10 11  1  0
 11 12  1  0
 12 13  2  0
 13 14  1  0
 14 15  2  0
 15 16  1  0
 16 17  1  0
 17 18  1  0
 18 19  1  0
 19 20  1  0
 20 21  1  0
 15 22  1  0
 22 23  2  0
 10 24  2  0
  5 25  2  0
 25 26  1  0
 26 27  2  0
 27 28  1  0
 27  3  1  0
 24  6  1  0
 23 12  1  0
 21 16  1  0
M  END
>  <Compound_ID>  (58) 
CHEMBL1078274

>  <Active>  (58) 
1

>  <Smiles>  (58) 
COc1cc(-c2ccnc(Nc3ccc(N4CCOCC4)cc3)n2)ccc1O

>  <canonical_smi>  (58) 
COc1cc(-c2ccnc(Nc3ccc(N4CCOCC4)cc3)n2)ccc1O

>  <Set>  (58) 
G2 active

>  <Set_type>  (58) 
Train

>  <MW>  (58) 
378.43

>  <HBD>  (58) 
2

>  <HBA>  (58) 
7

>  <NRB>  (58) 
5

>  <NR>  (58) 
4

>  <NAR>  (58) 
3

>  <PSA>  (58) 
79.74

>  <Standard Type>  (58) 
nan

>  <Standard Relation>  (58) 
nan

>  <Standard Units>  (58) 
nan

>  <Standard Value>  (58) 
nan

>  <Assay ChEMBL ID>  (58) 
nan

>  <Assay Description>  (58) 
nan

>  <BAO Label>  (58) 
nan

$$$$

     RDKit          2D

 33 36  0  0  0  0  0  0  0  0999 V2000
   -1.1672  -15.0036    0.0000 C   0  0  0  0  0  0  0  0  0  0  0  0
   -2.2819  -13.9999    0.0000 C   0  0  0  0  0  0  0  0  0  0  0  0
   -1.9700  -12.5326    0.0000 C   0  0  0  0  0  0  0  0  0  0  0  0
   -3.0847  -11.5290    0.0000 N   0  0  0  0  0  0  0  0  0  0  0  0
   -4.5113  -11.9925    0.0000 C   0  0  0  0  0  0  0  0  0  0  0  0
   -4.8232  -13.4597    0.0000 C   0  0  0  0  0  0  0  0  0  0  0  0
   -5.1351  -14.9269    0.0000 F   0  0  0  0  0  0  0  0  0  0  0  0
   -6.2904  -13.1478    0.0000 F   0  0  0  0  0  0  0  0  0  0  0  0
   -3.3560  -13.7716    0.0000 F   0  0  0  0  0  0  0  0  0  0  0  0
   -2.7729  -10.0617    0.0000 C   0  0  0  0  0  0  0  0  0  0  0  0
   -1.3463   -9.5982    0.0000 O   0  0  0  0  0  0  0  0  0  0  0  0
   -3.8876   -9.0580    0.0000 C   0  0  0  0  0  0  0  0  0  0  0  0
   -5.3142   -9.5216    0.0000 C   0  0  0  0  0  0  0  0  0  0  0  0
   -6.4289   -8.5179    0.0000 C   0  0  0  0  0  0  0  0  0  0  0  0
   -6.1170   -7.0506    0.0000 C   0  0  0  0  0  0  0  0  0  0  0  0
   -4.6904   -6.5871    0.0000 N   0  0  0  0  0  0  0  0  0  0  0  0
   -4.3786   -5.1199    0.0000 C   0  0  0  0  0  0  0  0  0  0  0  0
   -2.9520   -4.6564    0.0000 C   0  0  0  0  0  0  0  0  0  0  0  0
   -2.6401   -3.1891    0.0000 C   0  0  0  0  0  0  0  0  0  0  0  0
   -1.2135   -2.7256    0.0000 C   0  0  0  0  0  0  0  0  0  0  0  0
   -0.0000   -3.6073    0.0000 C   0  0  0  0  0  0  0  0  0  0  0  0
    0.0000   -5.1073    0.0000 N   0  0  0  0  0  0  0  0  0  0  0  0
    1.2135   -2.7256    0.0000 N   0  0  0  0  0  0  0  0  0  0  0  0
    0.7500   -1.2990    0.0000 N   0  0  0  0  0  0  0  0  0  0  0  0
    1.5000    0.0000    0.0000 C   0  0  0  0  0  0  0  0  0  0  0  0
    0.7500    1.2990    0.0000 C   0  0  0  0  0  0  0  0  0  0  0  0
   -0.7500    1.2990    0.0000 C   0  0  0  0  0  0  0  0  0  0  0  0
   -1.5000    0.0000    0.0000 N   0  0  0  0  0  0  0  0  0  0  0  0
   -0.7500   -1.2990    0.0000 C   0  0  0  0  0  0  0  0  0  0  0  0
   -3.7548   -2.1855    0.0000 N   0  0  0  0  0  0  0  0  0  0  0  0
   -5.1814   -2.6490    0.0000 C   0  0  0  0  0  0  0  0  0  0  0  0
   -5.4933   -4.1162    0.0000 N   0  0  0  0  0  0  0  0  0  0  0  0
   -3.5757   -7.5908    0.0000 C   0  0  0  0  0  0  0  0  0  0  0  0
  1  2  1  0
  2  3  1  0
  3  4  1  0
  4  5  1  0
  5  6  1  0
  6  7  1  0
  6  8  1  0
  6  9  1  0
  4 10  1  0
 10 11  2  0
 10 12  1  0
 12 13  1  0
 13 14  1  0
 14 15  1  0
 15 16  1  0
 16 17  1  0
 17 18  2  0
 18 19  1  0
 19 20  1  0
 20 21  1  0
 21 22  1  0
 21 23  2  0
 23 24  1  0
 24 25  1  0
 25 26  2  0
 26 27  1  0
 27 28  2  0
 28 29  1  0
 19 30  2  0
 30 31  1  0
 31 32  2  0
 16 33  1  0
 33 12  1  0
 32 17  1  0
 29 20  2  0
 29 24  1  0
M  END
>  <Compound_ID>  (59) 
CHEMBL569957

>  <Active>  (59) 
1

>  <Smiles>  (59) 
CCCN(CC(F)(F)F)C(=O)C1CCCN(c2cc(-c3c(N)nn4cccnc34)ncn2)C1

>  <canonical_smi>  (59) 
CCCN(CC(F)(F)F)C(=O)C1CCCN(c2cc(-c3c(N)nn4cccnc34)ncn2)C1

>  <Set>  (59) 
G2 active

>  <Set_type>  (59) 
Train

>  <MW>  (59) 
462.48

>  <HBD>  (59) 
1

>  <HBA>  (59) 
7

>  <NRB>  (59) 
6

>  <NR>  (59) 
4

>  <NAR>  (59) 
3

>  <PSA>  (59) 
105.54

>  <Standard Type>  (59) 
nan

>  <Standard Relation>  (59) 
nan

>  <Standard Units>  (59) 
nan

>  <Standard Value>  (59) 
nan

>  <Assay ChEMBL ID>  (59) 
nan

>  <Assay Description>  (59) 
nan

>  <BAO Label>  (59) 
nan

$$$$

     RDKit          2D

 28 32  0  0  0  0  0  0  0  0999 V2000
   -0.0000   -5.1073    0.0000 N   0  0  0  0  0  0  0  0  0  0  0  0
   -0.0000   -3.6073    0.0000 C   0  0  0  0  0  0  0  0  0  0  0  0
    1.2135   -2.7256    0.0000 N   0  0  0  0  0  0  0  0  0  0  0  0
    0.7500   -1.2990    0.0000 N   0  0  0  0  0  0  0  0  0  0  0  0
    1.5000    0.0000    0.0000 C   0  0  0  0  0  0  0  0  0  0  0  0
    0.7500    1.2990    0.0000 C   0  0  0  0  0  0  0  0  0  0  0  0
   -0.7500    1.2990    0.0000 C   0  0  0  0  0  0  0  0  0  0  0  0
   -1.5000    0.0000    0.0000 N   0  0  0  0  0  0  0  0  0  0  0  0
   -0.7500   -1.2990    0.0000 C   0  0  0  0  0  0  0  0  0  0  0  0
   -1.2135   -2.7256    0.0000 C   0  0  0  0  0  0  0  0  0  0  0  0
   -2.6401   -3.1891    0.0000 C   0  0  0  0  0  0  0  0  0  0  0  0
   -3.7548   -2.1855    0.0000 C   0  0  0  0  0  0  0  0  0  0  0  0
   -5.1814   -2.6490    0.0000 C   0  0  0  0  0  0  0  0  0  0  0  0
   -6.2961   -1.6453    0.0000 N   0  0  0  0  0  0  0  0  0  0  0  0
   -7.7634   -1.9571    0.0000 C   0  0  0  0  0  0  0  0  0  0  0  0
   -8.5134   -0.6581    0.0000 C   0  0  0  0  0  0  0  0  0  0  0  0
   -7.5097    0.4566    0.0000 C   0  0  0  0  0  0  0  0  0  0  0  0
   -6.1393   -0.1535    0.0000 C   0  0  0  0  0  0  0  0  0  0  0  0
   -4.8403    0.5965    0.0000 C   0  0  0  0  0  0  0  0  0  0  0  0
   -3.5413   -0.1535    0.0000 C   0  0  0  0  0  0  0  0  0  0  0  0
   -2.2422    0.5965    0.0000 C   0  0  0  0  0  0  0  0  0  0  0  0
   -2.2422    2.0965    0.0000 C   0  0  0  0  0  0  0  0  0  0  0  0
   -0.9432    2.8465    0.0000 F   0  0  0  0  0  0  0  0  0  0  0  0
   -3.5413    2.8465    0.0000 C   0  0  0  0  0  0  0  0  0  0  0  0
   -4.8403    2.0965    0.0000 C   0  0  0  0  0  0  0  0  0  0  0  0
   -5.4933   -4.1162    0.0000 N   0  0  0  0  0  0  0  0  0  0  0  0
   -4.3786   -5.1199    0.0000 C   0  0  0  0  0  0  0  0  0  0  0  0
   -2.9520   -4.6564    0.0000 N   0  0  0  0  0  0  0  0  0  0  0  0
  1  2  1  0
  2  3  2  0
  3  4  1  0
  4  5  1  0
  5  6  2  0
  6  7  1  0
  7  8  2  0
  8  9  1  0
  9 10  2  0
 10 11  1  0
 11 12  2  0
 12 13  1  0
 13 14  1  0
 14 15  1  0
 15 16  1  0
 16 17  1  0
 17 18  1  0
 18 19  1  0
 19 20  2  0
 20 21  1  0
 21 22  2  0
 22 23  1  0
 22 24  1  0
 24 25  2  0
 13 26  2  0
 26 27  1  0
 27 28  2  0
 10  2  1  0
 28 11  1  0
  9  4  1  0
 18 14  1  0
 25 19  1  0
M  END
>  <Compound_ID>  (60) 
CHEMBL582808

>  <Active>  (60) 
1

>  <Smiles>  (60) 
Nc1nn2cccnc2c1-c1cc(N2CCCC2c2ccc(F)cc2)ncn1

>  <canonical_smi>  (60) 
Nc1nn2cccnc2c1-c1cc(N2CCCC2c2ccc(F)cc2)ncn1

>  <Set>  (60) 
G2 active

>  <Set_type>  (60) 
Train

>  <MW>  (60) 
375.41

>  <HBD>  (60) 
1

>  <HBA>  (60) 
6

>  <NRB>  (60) 
3

>  <NR>  (60) 
5

>  <NAR>  (60) 
4

>  <PSA>  (60) 
85.23

>  <Standard Type>  (60) 
nan

>  <Standard Relation>  (60) 
nan

>  <Standard Units>  (60) 
nan

>  <Standard Value>  (60) 
nan

>  <Assay ChEMBL ID>  (60) 
nan

>  <Assay Description>  (60) 
nan

>  <BAO Label>  (60) 
nan

$$$$

     RDKit          2D

 26 28  0  0  0  0  0  0  0  0999 V2000
    6.5218   -0.9664    0.0000 C   0  0  0  0  0  0  0  0  0  0  0  0
    5.3083   -1.8481    0.0000 C   0  0  0  0  0  0  0  0  0  0  0  0
    3.8817   -1.3846    0.0000 C   0  0  0  0  0  0  0  0  0  0  0  0
    3.0000   -2.5981    0.0000 C   0  0  0  0  0  0  0  0  0  0  0  0
    1.5000   -2.5981    0.0000 N   0  0  0  0  0  0  0  0  0  0  0  0
    0.7500   -1.2990    0.0000 C   0  0  0  0  0  0  0  0  0  0  0  0
    1.5000    0.0000    0.0000 N   0  0  0  0  0  0  0  0  0  0  0  0
    0.7500    1.2990    0.0000 C   0  0  0  0  0  0  0  0  0  0  0  0
    1.5000    2.5981    0.0000 O   0  0  0  0  0  0  0  0  0  0  0  0
    3.0000    2.5981    0.0000 C   0  0  0  0  0  0  0  0  0  0  0  0
    3.7500    1.2990    0.0000 C   0  0  0  0  0  0  0  0  0  0  0  0
    3.7500    3.8971    0.0000 C   0  0  0  0  0  0  0  0  0  0  0  0
    3.0000    5.1962    0.0000 C   0  0  0  0  0  0  0  0  0  0  0  0
    3.7500    6.4952    0.0000 C   0  0  0  0  0  0  0  0  0  0  0  0
    5.2500    6.4952    0.0000 C   0  0  0  0  0  0  0  0  0  0  0  0
    6.0000    7.7942    0.0000 F   0  0  0  0  0  0  0  0  0  0  0  0
    6.0000    5.1962    0.0000 C   0  0  0  0  0  0  0  0  0  0  0  0
    5.2500    3.8971    0.0000 N   0  0  0  0  0  0  0  0  0  0  0  0
   -0.7500    1.2990    0.0000 C   0  0  0  0  0  0  0  0  0  0  0  0
   -1.5000    2.5981    0.0000 C   0  0  0  0  0  0  0  0  0  0  0  0
   -2.2500    3.8971    0.0000 N   0  0  0  0  0  0  0  0  0  0  0  0
   -1.5000    0.0000    0.0000 N   0  0  0  0  0  0  0  0  0  0  0  0
   -0.7500   -1.2990    0.0000 C   0  0  0  0  0  0  0  0  0  0  0  0
   -1.5000   -2.5981    0.0000 C   0  0  0  0  0  0  0  0  0  0  0  0
    3.8817   -3.8116    0.0000 N   0  0  0  0  0  0  0  0  0  0  0  0
    5.3083   -3.3481    0.0000 N   0  0  0  0  0  0  0  0  0  0  0  0
  1  2  1  0
  2  3  2  0
  3  4  1  0
  4  5  1  0
  5  6  1  0
  6  7  2  0
  7  8  1  0
  8  9  1  0
  9 10  1  0
 10 11  1  6
 10 12  1  0
 12 13  2  0
 13 14  1  0
 14 15  2  0
 15 16  1  0
 15 17  1  0
 17 18  2  0
  8 19  2  0
 19 20  1  0
 20 21  3  0
 19 22  1  0
 22 23  2  0
 23 24  1  0
  4 25  2  0
 25 26  1  0
 26  2  1  0
 23  6  1  0
 18 12  1  0
M  END
>  <Compound_ID>  (61) 
CHEMBL570192

>  <Active>  (61) 
1

>  <Smiles>  (61) 
Cc1cc(Nc2nc(O[C@@H](C)c3ccc(F)cn3)c(C#N)nc2C)n[nH]1

>  <canonical_smi>  (61) 
Cc1cc(Nc2nc(O[C@@H](C)c3ccc(F)cn3)c(C#N)nc2C)n[nH]1

>  <Set>  (61) 
G2 active

>  <Set_type>  (61) 
Train

>  <MW>  (61) 
353.36

>  <HBD>  (61) 
2

>  <HBA>  (61) 
7

>  <NRB>  (61) 
5

>  <NR>  (61) 
3

>  <NAR>  (61) 
3

>  <PSA>  (61) 
112.4

>  <Standard Type>  (61) 
nan

>  <Standard Relation>  (61) 
nan

>  <Standard Units>  (61) 
nan

>  <Standard Value>  (61) 
nan

>  <Assay ChEMBL ID>  (61) 
nan

>  <Assay Description>  (61) 
nan

>  <BAO Label>  (61) 
nan

$$$$

     RDKit          2D

 24 27  0  0  0  0  0  0  0  0999 V2000
   -4.5577    0.2855    0.0000 C   0  0  0  0  0  0  0  0  0  0  0  0
   -5.9843   -0.1781    0.0000 C   0  0  0  0  0  0  0  0  0  0  0  0
   -6.2961   -1.6453    0.0000 N   0  0  0  0  0  0  0  0  0  0  0  0
   -5.1814   -2.6490    0.0000 C   0  0  0  0  0  0  0  0  0  0  0  0
   -5.4933   -4.1162    0.0000 C   0  0  0  0  0  0  0  0  0  0  0  0
   -4.3786   -5.1199    0.0000 C   0  0  0  0  0  0  0  0  0  0  0  0
   -2.9520   -4.6564    0.0000 N   0  0  0  0  0  0  0  0  0  0  0  0
   -2.6401   -3.1891    0.0000 C   0  0  0  0  0  0  0  0  0  0  0  0
   -1.2135   -2.7256    0.0000 N   0  0  0  0  0  0  0  0  0  0  0  0
   -0.0000   -3.6073    0.0000 C   0  0  0  0  0  0  0  0  0  0  0  0
    1.2135   -2.7256    0.0000 N   0  0  0  0  0  0  0  0  0  0  0  0
    0.7500   -1.2990    0.0000 C   0  0  0  0  0  0  0  0  0  0  0  0
    1.5000    0.0000    0.0000 C   0  0  0  0  0  0  0  0  0  0  0  0
    0.7500    1.2990    0.0000 C   0  0  0  0  0  0  0  0  0  0  0  0
   -0.7500    1.2990    0.0000 N   0  0  0  0  0  0  0  0  0  0  0  0
   -1.5000    0.0000    0.0000 C   0  0  0  0  0  0  0  0  0  0  0  0
   -0.7500   -1.2990    0.0000 C   0  0  0  0  0  0  0  0  0  0  0  0
   -3.7548   -2.1855    0.0000 N   0  0  0  0  0  0  0  0  0  0  0  0
   -7.0990    0.8256    0.0000 C   0  0  0  0  0  0  0  0  0  0  0  0
   -8.5256    0.3621    0.0000 C   0  0  0  0  0  0  0  0  0  0  0  0
   -9.6403    1.3658    0.0000 C   0  0  0  0  0  0  0  0  0  0  0  0
   -9.3284    2.8330    0.0000 C   0  0  0  0  0  0  0  0  0  0  0  0
   -7.9018    3.2966    0.0000 C   0  0  0  0  0  0  0  0  0  0  0  0
   -6.7871    2.2929    0.0000 C   0  0  0  0  0  0  0  0  0  0  0  0
  2  1  1  6
  2  3  1  0
  3  4  1  0
  4  5  2  0
  5  6  1  0
  6  7  2  0
  7  8  1  0
  8  9  1  0
  9 10  1  0
 10 11  2  0
 11 12  1  0
 12 13  2  0
 13 14  1  0
 14 15  2  0
 15 16  1  0
 16 17  2  0
  8 18  2  0
  2 19  1  0
 19 20  2  0
 20 21  1  0
 21 22  2  0
 22 23  1  0
 23 24  2  0
 18  4  1  0
 24 19  1  0
 17  9  1  0
 17 12  1  0
M  END
>  <Compound_ID>  (62) 
CHEMBL221029

>  <Active>  (62) 
1

>  <Smiles>  (62) 
C[C@H](Nc1ccnc(-n2cnc3ccncc32)n1)c1ccccc1

>  <canonical_smi>  (62) 
C[C@H](Nc1ccnc(-n2cnc3ccncc32)n1)c1ccccc1

>  <Set>  (62) 
G2 active

>  <Set_type>  (62) 
Train

>  <MW>  (62) 
316.37

>  <HBD>  (62) 
1

>  <HBA>  (62) 
5

>  <NRB>  (62) 
4

>  <NR>  (62) 
4

>  <NAR>  (62) 
4

>  <PSA>  (62) 
68.52

>  <Standard Type>  (62) 
nan

>  <Standard Relation>  (62) 
nan

>  <Standard Units>  (62) 
nan

>  <Standard Value>  (62) 
nan

>  <Assay ChEMBL ID>  (62) 
nan

>  <Assay Description>  (62) 
nan

>  <BAO Label>  (62) 
nan

$$$$

     RDKit          2D

 38 43  0  0  0  0  0  0  0  0999 V2000
    6.0000  -10.3923    0.0000 C   0  0  0  0  0  0  0  0  0  0  0  0
    5.2500   -9.0933    0.0000 N   0  0  0  0  0  0  0  0  0  0  0  0
    3.7500   -9.0933    0.0000 C   0  0  0  0  0  0  0  0  0  0  0  0
    3.0000   -7.7942    0.0000 C   0  0  0  0  0  0  0  0  0  0  0  0
    3.7500   -6.4952    0.0000 N   0  0  0  0  0  0  0  0  0  0  0  0
    3.0000   -5.1962    0.0000 C   0  0  0  0  0  0  0  0  0  0  0  0
    3.7500   -3.8971    0.0000 C   0  0  0  0  0  0  0  0  0  0  0  0
    3.0000   -2.5981    0.0000 C   0  0  0  0  0  0  0  0  0  0  0  0
    1.5000   -2.5981    0.0000 C   0  0  0  0  0  0  0  0  0  0  0  0
    0.7500   -1.2990    0.0000 C   0  0  0  0  0  0  0  0  0  0  0  0
    1.5000    0.0000    0.0000 C   0  0  0  0  0  0  0  0  0  0  0  0
    0.7500    1.2990    0.0000 N   0  0  0  0  0  0  0  0  0  0  0  0
   -0.7500    1.2990    0.0000 C   0  0  0  0  0  0  0  0  0  0  0  0
   -1.5000    2.5981    0.0000 C   0  0  0  0  0  0  0  0  0  0  0  0
   -3.0000    2.5981    0.0000 C   0  0  0  0  0  0  0  0  0  0  0  0
   -3.7500    1.2990    0.0000 C   0  0  0  0  0  0  0  0  0  0  0  0
   -3.0000    0.0000    0.0000 C   0  0  0  0  0  0  0  0  0  0  0  0
   -3.7500   -1.2990    0.0000 C   0  0  0  0  0  0  0  0  0  0  0  0
   -5.2500   -1.2990    0.0000 C   0  0  0  0  0  0  0  0  0  0  0  0
   -6.0000   -2.5981    0.0000 C   0  0  0  0  0  0  0  0  0  0  0  0
   -7.5000   -2.5981    0.0000 F   0  0  0  0  0  0  0  0  0  0  0  0
   -5.2500   -3.8971    0.0000 C   0  0  0  0  0  0  0  0  0  0  0  0
   -6.0000   -5.1962    0.0000 C   0  0  0  0  0  0  0  0  0  0  0  0
   -5.2500   -6.4952    0.0000 N   0  0  0  0  0  0  0  0  0  0  0  0
   -6.0000   -7.7942    0.0000 C   0  0  0  0  0  0  0  0  0  0  0  0
   -5.2500   -9.0933    0.0000 C   0  0  0  0  0  0  0  0  0  0  0  0
   -3.7500   -9.0933    0.0000 O   0  0  0  0  0  0  0  0  0  0  0  0
   -3.0000   -7.7942    0.0000 C   0  0  0  0  0  0  0  0  0  0  0  0
   -3.7500   -6.4952    0.0000 C   0  0  0  0  0  0  0  0  0  0  0  0
   -3.7500   -3.8971    0.0000 C   0  0  0  0  0  0  0  0  0  0  0  0
   -3.0000   -5.1962    0.0000 F   0  0  0  0  0  0  0  0  0  0  0  0
   -3.0000   -2.5981    0.0000 C   0  0  0  0  0  0  0  0  0  0  0  0
   -1.5000    0.0000    0.0000 C   0  0  0  0  0  0  0  0  0  0  0  0
   -0.7500   -1.2990    0.0000 N   0  0  0  0  0  0  0  0  0  0  0  0
    0.7500   -3.8971    0.0000 C   0  0  0  0  0  0  0  0  0  0  0  0
    1.5000   -5.1962    0.0000 C   0  0  0  0  0  0  0  0  0  0  0  0
    5.2500   -6.4952    0.0000 C   0  0  0  0  0  0  0  0  0  0  0  0
    6.0000   -7.7942    0.0000 C   0  0  0  0  0  0  0  0  0  0  0  0
  1  2  1  0
  2  3  1  0
  3  4  1  0
  4  5  1  0
  5  6  1  0
  6  7  2  0
  7  8  1  0
  8  9  2  0
  9 10  1  0
 10 11  2  0
 11 12  1  0
 12 13  2  0
 13 14  1  0
 14 15  2  0
 15 16  1  0
 16 17  2  0
 17 18  1  0
 18 19  2  0
 19 20  1  0
 20 21  1  0
 20 22  2  0
 22 23  1  0
 23 24  1  0
 24 25  1  0
 25 26  1  0
 26 27  1  0
 27 28  1  0
 28 29  1  0
 22 30  1  0
 30 31  1  0
 30 32  2  0
 17 33  1  0
 33 34  2  0
  9 35  1  0
 35 36  2  0
  5 37  1  0
 37 38  1  0
 38  2  1  0
 36  6  1  0
 34 10  1  0
 33 13  1  0
 32 18  1  0
 29 24  1  0
M  END
>  <Compound_ID>  (63) 
CHEMBL1089773

>  <Active>  (63) 
1

>  <Smiles>  (63) 
CN1CCN(c2ccc(-c3cnc4cccc(-c5cc(F)c(CN6CCOCC6)c(F)c5)c4n3)cc2)CC1

>  <canonical_smi>  (63) 
CN1CCN(c2ccc(-c3cnc4cccc(-c5cc(F)c(CN6CCOCC6)c(F)c5)c4n3)cc2)CC1

>  <Set>  (63) 
G2 active

>  <Set_type>  (63) 
Train

>  <MW>  (63) 
515.61

>  <HBD>  (63) 
0

>  <HBA>  (63) 
6

>  <NRB>  (63) 
5

>  <NR>  (63) 
6

>  <NAR>  (63) 
4

>  <PSA>  (63) 
44.73

>  <Standard Type>  (63) 
nan

>  <Standard Relation>  (63) 
nan

>  <Standard Units>  (63) 
nan

>  <Standard Value>  (63) 
nan

>  <Assay ChEMBL ID>  (63) 
nan

>  <Assay Description>  (63) 
nan

>  <BAO Label>  (63) 
nan

$$$$

     RDKit          2D

 33 36  0  0  0  0  0  0  0  0999 V2000
   -5.1962   -3.6073    0.0000 C   0  0  0  0  0  0  0  0  0  0  0  0
   -5.1962   -5.1073    0.0000 O   0  0  0  0  0  0  0  0  0  0  0  0
   -3.8971   -5.8573    0.0000 C   0  0  0  0  0  0  0  0  0  0  0  0
   -2.5981   -5.1073    0.0000 C   0  0  0  0  0  0  0  0  0  0  0  0
   -1.2990   -5.8573    0.0000 C   0  0  0  0  0  0  0  0  0  0  0  0
   -0.0000   -5.1073    0.0000 N   0  0  0  0  0  0  0  0  0  0  0  0
   -0.0000   -3.6073    0.0000 C   0  0  0  0  0  0  0  0  0  0  0  0
    1.2135   -2.7256    0.0000 N   0  0  0  0  0  0  0  0  0  0  0  0
    0.7500   -1.2990    0.0000 C   0  0  0  0  0  0  0  0  0  0  0  0
    1.5000    0.0000    0.0000 C   0  0  0  0  0  0  0  0  0  0  0  0
    0.7500    1.2990    0.0000 C   0  0  0  0  0  0  0  0  0  0  0  0
   -0.7500    1.2990    0.0000 C   0  0  0  0  0  0  0  0  0  0  0  0
   -1.5000    0.0000    0.0000 C   0  0  0  0  0  0  0  0  0  0  0  0
   -3.0000    0.0000    0.0000 C   0  0  0  0  0  0  0  0  0  0  0  0
   -3.7500    1.2990    0.0000 C   0  0  0  0  0  0  0  0  0  0  0  0
   -5.2500    1.2990    0.0000 C   0  0  0  0  0  0  0  0  0  0  0  0
   -6.0000    0.0000    0.0000 C   0  0  0  0  0  0  0  0  0  0  0  0
   -7.5000    0.0000    0.0000 N   0  0  0  0  0  0  0  0  0  0  0  0
   -8.2500    1.2990    0.0000 S   0  0  0  0  0  0  0  0  0  0  0  0
   -9.0000    2.5981    0.0000 C   0  0  0  0  0  0  0  0  0  0  0  0
   -6.9510    2.0490    0.0000 O   0  0  0  0  0  0  0  0  0  0  0  0
   -9.5490    0.5490    0.0000 O   0  0  0  0  0  0  0  0  0  0  0  0
   -5.2500   -1.2990    0.0000 C   0  0  0  0  0  0  0  0  0  0  0  0
   -3.7500   -1.2990    0.0000 C   0  0  0  0  0  0  0  0  0  0  0  0
   -0.7500   -1.2990    0.0000 C   0  0  0  0  0  0  0  0  0  0  0  0
   -1.2135   -2.7256    0.0000 O   0  0  0  0  0  0  0  0  0  0  0  0
   -1.2990   -7.3573    0.0000 C   0  0  0  0  0  0  0  0  0  0  0  0
   -2.5981   -8.1073    0.0000 C   0  0  0  0  0  0  0  0  0  0  0  0
   -2.5981   -9.6073    0.0000 O   0  0  0  0  0  0  0  0  0  0  0  0
   -3.8971  -10.3573    0.0000 C   0  0  0  0  0  0  0  0  0  0  0  0
   -3.8971   -7.3573    0.0000 C   0  0  0  0  0  0  0  0  0  0  0  0
   -5.1962   -8.1073    0.0000 O   0  0  0  0  0  0  0  0  0  0  0  0
   -6.4952   -7.3573    0.0000 C   0  0  0  0  0  0  0  0  0  0  0  0
  1  2  1  0
  2  3  1  0
  3  4  2  0
  4  5  1  0
  5  6  1  0
  6  7  1  0
  7  8  2  0
  8  9  1  0
  9 10  2  0
 10 11  1  0
 11 12  2  0
 12 13  1  0
 13 14  1  0
 14 15  2  0
 15 16  1  0
 16 17  2  0
 17 18  1  0
 18 19  1  0
 19 20  1  0
 19 21  2  0
 19 22  2  0
 17 23  1  0
 23 24  2  0
 13 25  2  0
 25 26  1  0
  5 27  2  0
 27 28  1  0
 28 29  1  0
 29 30  1  0
 28 31  2  0
 31 32  1  0
 32 33  1  0
 31  3  1  0
 26  7  1  0
 25  9  1  0
 24 14  1  0
M  END
>  <Compound_ID>  (64) 
CHEMBL1081977

>  <Active>  (64) 
1

>  <Smiles>  (64) 
COc1cc(Nc2nc3cccc(-c4ccc(NS(C)(=O)=O)cc4)c3o2)cc(OC)c1OC

>  <canonical_smi>  (64) 
COc1cc(Nc2nc3cccc(-c4ccc(NS(C)(=O)=O)cc4)c3o2)cc(OC)c1OC

>  <Set>  (64) 
G2 active

>  <Set_type>  (64) 
Train

>  <MW>  (64) 
469.52

>  <HBD>  (64) 
2

>  <HBA>  (64) 
8

>  <NRB>  (64) 
8

>  <NR>  (64) 
4

>  <NAR>  (64) 
4

>  <PSA>  (64) 
111.92

>  <Standard Type>  (64) 
nan

>  <Standard Relation>  (64) 
nan

>  <Standard Units>  (64) 
nan

>  <Standard Value>  (64) 
nan

>  <Assay ChEMBL ID>  (64) 
nan

>  <Assay Description>  (64) 
nan

>  <BAO Label>  (64) 
nan

$$$$

     RDKit          2D

 32 37  0  0  0  0  0  0  0  0999 V2000
   11.8650   -5.4200    0.0000 N   0  0  0  0  0  0  0  0  0  0  0  0
   11.1150   -4.1209    0.0000 C   0  0  0  0  0  0  0  0  0  0  0  0
   10.3650   -2.8219    0.0000 C   0  0  0  0  0  0  0  0  0  0  0  0
   11.1150   -1.5229    0.0000 C   0  0  0  0  0  0  0  0  0  0  0  0
   10.3650   -0.2238    0.0000 C   0  0  0  0  0  0  0  0  0  0  0  0
    8.8650   -0.2238    0.0000 C   0  0  0  0  0  0  0  0  0  0  0  0
    7.8613    0.8909    0.0000 N   0  0  0  0  0  0  0  0  0  0  0  0
    6.4910    0.2808    0.0000 C   0  0  0  0  0  0  0  0  0  0  0  0
    6.6478   -1.2110    0.0000 N   0  0  0  0  0  0  0  0  0  0  0  0
    5.5331   -2.2147    0.0000 C   0  0  0  0  0  0  0  0  0  0  0  0
    5.8450   -3.6819    0.0000 N   0  0  0  0  0  0  0  0  0  0  0  0
    4.7302   -4.6856    0.0000 C   0  0  0  0  0  0  0  0  0  0  0  0
    3.3037   -4.2221    0.0000 C   0  0  0  0  0  0  0  0  0  0  0  0
    2.0046   -4.9721    0.0000 N   0  0  0  0  0  0  0  0  0  0  0  0
    0.8899   -3.9684    0.0000 C   0  0  0  0  0  0  0  0  0  0  0  0
   -0.5773   -4.2803    0.0000 O   0  0  0  0  0  0  0  0  0  0  0  0
    1.5000   -2.5981    0.0000 N   0  0  0  0  0  0  0  0  0  0  0  0
    0.7500   -1.2990    0.0000 C   0  0  0  0  0  0  0  0  0  0  0  0
    1.5000    0.0000    0.0000 C   0  0  0  0  0  0  0  0  0  0  0  0
    0.7500    1.2990    0.0000 C   0  0  0  0  0  0  0  0  0  0  0  0
   -0.7500    1.2990    0.0000 O   0  0  0  0  0  0  0  0  0  0  0  0
   -1.5000    0.0000    0.0000 C   0  0  0  0  0  0  0  0  0  0  0  0
   -3.0000    0.0000    0.0000 C   0  0  0  0  0  0  0  0  0  0  0  0
   -3.7500    1.2990    0.0000 F   0  0  0  0  0  0  0  0  0  0  0  0
   -3.7500   -1.2990    0.0000 C   0  0  0  0  0  0  0  0  0  0  0  0
   -3.0000   -2.5981    0.0000 C   0  0  0  0  0  0  0  0  0  0  0  0
   -1.5000   -2.5981    0.0000 C   0  0  0  0  0  0  0  0  0  0  0  0
   -0.7500   -1.2990    0.0000 C   0  0  0  0  0  0  0  0  0  0  0  0
    2.9918   -2.7549    0.0000 C   0  0  0  0  0  0  0  0  0  0  0  0
    4.1065   -1.7512    0.0000 N   0  0  0  0  0  0  0  0  0  0  0  0
    8.1150   -1.5229    0.0000 C   0  0  0  0  0  0  0  0  0  0  0  0
    8.8650   -2.8219    0.0000 C   0  0  0  0  0  0  0  0  0  0  0  0
  1  2  3  0
  2  3  1  0
  3  4  2  0
  4  5  1  0
  5  6  2  0
  6  7  1  0
  7  8  2  0
  8  9  1  0
  9 10  1  0
 10 11  2  0
 11 12  1  0
 12 13  2  0
 13 14  1  0
 14 15  1  0
 15 16  2  0
 15 17  1  0
 18 17  1  1
 18 19  1  0
 19 20  1  0
 20 21  1  0
 21 22  1  0
 22 23  2  0
 23 24  1  0
 23 25  1  0
 25 26  2  0
 26 27  1  0
 27 28  2  0
 17 29  1  0
 29 30  2  0
  9 31  1  0
 31 32  2  0
 32  3  1  0
 31  6  1  0
 30 10  1  0
 29 13  1  0
 28 18  1  0
 28 22  1  0
M  END
>  <Compound_ID>  (65) 
CHEMBL1079594

>  <Active>  (65) 
1

>  <Smiles>  (65) 
N#Cc1ccc2ncn(-c3ncc4[nH]c(=O)n([C@@H]5CCOc6c(F)cccc65)c4n3)c2c1

>  <canonical_smi>  (65) 
N#Cc1ccc2ncn(-c3ncc4[nH]c(=O)n([C@@H]5CCOc6c(F)cccc65)c4n3)c2c1

>  <Set>  (65) 
G2 active

>  <Set_type>  (65) 
Train

>  <MW>  (65) 
427.4

>  <HBD>  (65) 
1

>  <HBA>  (65) 
6

>  <NRB>  (65) 
2

>  <NR>  (65) 
6

>  <NAR>  (65) 
5

>  <PSA>  (65) 
114.41

>  <Standard Type>  (65) 
nan

>  <Standard Relation>  (65) 
nan

>  <Standard Units>  (65) 
nan

>  <Standard Value>  (65) 
nan

>  <Assay ChEMBL ID>  (65) 
nan

>  <Assay Description>  (65) 
nan

>  <BAO Label>  (65) 
nan

$$$$

     RDKit          2D

 41 46  0  0  0  0  0  0  0  0999 V2000
    0.7500   -6.4952    0.0000 C   0  0  0  0  0  0  0  0  0  0  0  0
    1.5000   -5.1962    0.0000 C   0  0  0  0  0  0  0  0  0  0  0  0
    0.7500   -3.8971    0.0000 C   0  0  0  0  0  0  0  0  0  0  0  0
    1.5000   -2.5981    0.0000 C   0  0  0  0  0  0  0  0  0  0  0  0
    0.7500   -1.2990    0.0000 C   0  0  0  0  0  0  0  0  0  0  0  0
    1.5000    0.0000    0.0000 C   0  0  0  0  0  0  0  0  0  0  0  0
    0.7500    1.2990    0.0000 N   0  0  0  0  0  0  0  0  0  0  0  0
   -0.7500    1.2990    0.0000 C   0  0  0  0  0  0  0  0  0  0  0  0
   -1.5000    2.5981    0.0000 C   0  0  0  0  0  0  0  0  0  0  0  0
   -3.0000    2.5981    0.0000 C   0  0  0  0  0  0  0  0  0  0  0  0
   -3.7500    1.2990    0.0000 C   0  0  0  0  0  0  0  0  0  0  0  0
   -3.0000    0.0000    0.0000 C   0  0  0  0  0  0  0  0  0  0  0  0
   -3.7500   -1.2990    0.0000 C   0  0  0  0  0  0  0  0  0  0  0  0
   -5.2500   -1.2990    0.0000 C   0  0  0  0  0  0  0  0  0  0  0  0
   -6.0000   -2.5981    0.0000 C   0  0  0  0  0  0  0  0  0  0  0  0
   -5.2500   -3.8971    0.0000 C   0  0  0  0  0  0  0  0  0  0  0  0
   -6.0000   -5.1962    0.0000 C   0  0  0  0  0  0  0  0  0  0  0  0
   -7.5000   -5.1962    0.0000 N   0  0  0  0  0  0  0  0  0  0  0  0
   -8.2500   -3.8971    0.0000 C   0  0  0  0  0  0  0  0  0  0  0  0
   -9.7500   -3.8971    0.0000 C   0  0  0  0  0  0  0  0  0  0  0  0
  -10.5000   -5.1962    0.0000 S   0  0  0  0  0  0  0  0  0  0  0  0
  -11.6491   -6.1603    0.0000 O   0  0  0  0  0  0  0  0  0  0  0  0
  -11.6491   -4.2320    0.0000 O   0  0  0  0  0  0  0  0  0  0  0  0
   -9.7500   -6.4952    0.0000 C   0  0  0  0  0  0  0  0  0  0  0  0
   -8.2500   -6.4952    0.0000 C   0  0  0  0  0  0  0  0  0  0  0  0
   -3.7500   -3.8971    0.0000 C   0  0  0  0  0  0  0  0  0  0  0  0
   -3.0000   -2.5981    0.0000 C   0  0  0  0  0  0  0  0  0  0  0  0
   -1.5000    0.0000    0.0000 C   0  0  0  0  0  0  0  0  0  0  0  0
   -0.7500   -1.2990    0.0000 N   0  0  0  0  0  0  0  0  0  0  0  0
    3.0000   -2.5981    0.0000 C   0  0  0  0  0  0  0  0  0  0  0  0
    3.7500   -3.8971    0.0000 C   0  0  0  0  0  0  0  0  0  0  0  0
    3.0000   -5.1962    0.0000 C   0  0  0  0  0  0  0  0  0  0  0  0
    3.7500   -6.4952    0.0000 C   0  0  0  0  0  0  0  0  0  0  0  0
    3.0000   -7.7942    0.0000 O   0  0  0  0  0  0  0  0  0  0  0  0
    5.2500   -6.4952    0.0000 N   0  0  0  0  0  0  0  0  0  0  0  0
    6.0000   -7.7942    0.0000 C   0  0  0  0  0  0  0  0  0  0  0  0
    7.5000   -7.7942    0.0000 C   0  0  0  0  0  0  0  0  0  0  0  0
    8.2500   -6.4952    0.0000 N   0  0  0  0  0  0  0  0  0  0  0  0
    9.7500   -6.4952    0.0000 C   0  0  0  0  0  0  0  0  0  0  0  0
    7.5000   -5.1962    0.0000 C   0  0  0  0  0  0  0  0  0  0  0  0
    6.0000   -5.1962    0.0000 C   0  0  0  0  0  0  0  0  0  0  0  0
  1  2  1  0
  2  3  2  0
  3  4  1  0
  4  5  1  0
  5  6  2  0
  6  7  1  0
  7  8  2  0
  8  9  1  0
  9 10  2  0
 10 11  1  0
 11 12  2  0
 12 13  1  0
 13 14  2  0
 14 15  1  0
 15 16  2  0
 16 17  1  0
 17 18  1  0
 18 19  1  0
 19 20  1  0
 20 21  1  0
 21 22  2  0
 21 23  2  0
 21 24  1  0
 24 25  1  0
 16 26  1  0
 26 27  2  0
 12 28  1  0
 28 29  2  0
  4 30  2  0
 30 31  1  0
 31 32  2  0
 32 33  1  0
 33 34  2  0
 33 35  1  0
 35 36  1  0
 36 37  1  0
 37 38  1  0
 38 39  1  0
 38 40  1  0
 40 41  1  0
 32  2  1  0
 41 35  1  0
 29  5  1  0
 28  8  1  0
 27 13  1  0
 25 18  1  0
M  END
>  <Compound_ID>  (66) 
CHEMBL1092063

>  <Active>  (66) 
1

>  <Smiles>  (66) 
Cc1cc(-c2cnc3cccc(-c4ccc(CN5CCS(=O)(=O)CC5)cc4)c3n2)ccc1C(=O)N1CCN(C)CC1

>  <canonical_smi>  (66) 
Cc1cc(-c2cnc3cccc(-c4ccc(CN5CCS(=O)(=O)CC5)cc4)c3n2)ccc1C(=O)N1CCN(C)CC1

>  <Set>  (66) 
G2 active

>  <Set_type>  (66) 
Train

>  <MW>  (66) 
569.73

>  <HBD>  (66) 
0

>  <HBA>  (66) 
7

>  <NRB>  (66) 
5

>  <NR>  (66) 
6

>  <NAR>  (66) 
4

>  <PSA>  (66) 
86.71

>  <Standard Type>  (66) 
nan

>  <Standard Relation>  (66) 
nan

>  <Standard Units>  (66) 
nan

>  <Standard Value>  (66) 
nan

>  <Assay ChEMBL ID>  (66) 
nan

>  <Assay Description>  (66) 
nan

>  <BAO Label>  (66) 
nan

$$$$

     RDKit          2D

 36 41  0  0  0  0  0  0  0  0999 V2000
    0.7500   -6.4952    0.0000 F   0  0  0  0  0  0  0  0  0  0  0  0
    1.5000   -5.1962    0.0000 C   0  0  0  0  0  0  0  0  0  0  0  0
    0.7500   -3.8971    0.0000 C   0  0  0  0  0  0  0  0  0  0  0  0
    1.5000   -2.5981    0.0000 C   0  0  0  0  0  0  0  0  0  0  0  0
    0.7500   -1.2990    0.0000 C   0  0  0  0  0  0  0  0  0  0  0  0
    1.5000    0.0000    0.0000 C   0  0  0  0  0  0  0  0  0  0  0  0
    0.7500    1.2990    0.0000 C   0  0  0  0  0  0  0  0  0  0  0  0
   -0.7500    1.2990    0.0000 C   0  0  0  0  0  0  0  0  0  0  0  0
   -1.5000    0.0000    0.0000 C   0  0  0  0  0  0  0  0  0  0  0  0
   -3.0000    0.0000    0.0000 N   0  0  0  0  0  0  0  0  0  0  0  0
   -3.7500   -1.2990    0.0000 C   0  0  0  0  0  0  0  0  0  0  0  0
   -3.0000   -2.5981    0.0000 C   0  0  0  0  0  0  0  0  0  0  0  0
   -3.7500   -3.8971    0.0000 C   0  0  0  0  0  0  0  0  0  0  0  0
   -3.1399   -5.2674    0.0000 C   0  0  0  0  0  0  0  0  0  0  0  0
   -4.2546   -6.2711    0.0000 N   0  0  0  0  0  0  0  0  0  0  0  0
   -5.5537   -5.5211    0.0000 N   0  0  0  0  0  0  0  0  0  0  0  0
   -6.9240   -6.1312    0.0000 C   0  0  0  0  0  0  0  0  0  0  0  0
   -8.1375   -5.2496    0.0000 C   0  0  0  0  0  0  0  0  0  0  0  0
   -9.5078   -5.8597    0.0000 C   0  0  0  0  0  0  0  0  0  0  0  0
   -9.6646   -7.3514    0.0000 N   0  0  0  0  0  0  0  0  0  0  0  0
   -8.4511   -8.2331    0.0000 C   0  0  0  0  0  0  0  0  0  0  0  0
   -7.0808   -7.6230    0.0000 C   0  0  0  0  0  0  0  0  0  0  0  0
   -5.2418   -4.0539    0.0000 C   0  0  0  0  0  0  0  0  0  0  0  0
   -1.5000   -2.5981    0.0000 N   0  0  0  0  0  0  0  0  0  0  0  0
   -0.7500   -1.2990    0.0000 C   0  0  0  0  0  0  0  0  0  0  0  0
    3.0000   -2.5981    0.0000 C   0  0  0  0  0  0  0  0  0  0  0  0
    3.7500   -3.8971    0.0000 C   0  0  0  0  0  0  0  0  0  0  0  0
    5.2500   -3.8971    0.0000 F   0  0  0  0  0  0  0  0  0  0  0  0
    3.0000   -5.1962    0.0000 C   0  0  0  0  0  0  0  0  0  0  0  0
    3.7500   -6.4952    0.0000 C   0  0  0  0  0  0  0  0  0  0  0  0
    3.0000   -7.7942    0.0000 N   0  0  0  0  0  0  0  0  0  0  0  0
    1.5000   -7.7942    0.0000 C   0  0  0  0  0  0  0  0  0  0  0  0
    0.7500   -9.0933    0.0000 C   0  0  0  0  0  0  0  0  0  0  0  0
    1.5000  -10.3923    0.0000 O   0  0  0  0  0  0  0  0  0  0  0  0
    3.0000  -10.3923    0.0000 C   0  0  0  0  0  0  0  0  0  0  0  0
    3.7500   -9.0933    0.0000 C   0  0  0  0  0  0  0  0  0  0  0  0
  1  2  1  0
  2  3  2  0
  3  4  1  0
  4  5  1  0
  5  6  2  0
  6  7  1  0
  7  8  2  0
  8  9  1  0
  9 10  2  0
 10 11  1  0
 11 12  2  0
 12 13  1  0
 13 14  1  0
 14 15  2  0
 15 16  1  0
 16 17  1  0
 17 18  1  0
 18 19  1  0
 19 20  1  0
 20 21  1  0
 21 22  1  0
 16 23  1  0
 12 24  1  0
 24 25  2  0
  4 26  2  0
 26 27  1  0
 27 28  1  0
 27 29  2  0
 29 30  1  0
 30 31  1  0
 31 32  1  0
 32 33  1  0
 33 34  1  0
 34 35  1  0
 35 36  1  0
 29  2  1  0
 36 31  1  0
 25  5  1  0
 25  9  1  0
 23 13  2  0
 22 17  1  0
M  END
>  <Compound_ID>  (67) 
CHEMBL1092926

>  <Active>  (67) 
1

>  <Smiles>  (67) 
Fc1cc(-c2cccc3ncc(-c4cnn(C5CCNCC5)c4)nc23)cc(F)c1CN1CCOCC1

>  <canonical_smi>  (67) 
Fc1cc(-c2cccc3ncc(-c4cnn(C5CCNCC5)c4)nc23)cc(F)c1CN1CCOCC1

>  <Set>  (67) 
G2 active

>  <Set_type>  (67) 
Train

>  <MW>  (67) 
490.56

>  <HBD>  (67) 
1

>  <HBA>  (67) 
6

>  <NRB>  (67) 
5

>  <NR>  (67) 
6

>  <NAR>  (67) 
4

>  <PSA>  (67) 
68.1

>  <Standard Type>  (67) 
nan

>  <Standard Relation>  (67) 
nan

>  <Standard Units>  (67) 
nan

>  <Standard Value>  (67) 
nan

>  <Assay ChEMBL ID>  (67) 
nan

>  <Assay Description>  (67) 
nan

>  <BAO Label>  (67) 
nan

$$$$

     RDKit          2D

 25 28  0  0  0  0  0  0  0  0999 V2000
   -0.0000   -5.1073    0.0000 N   0  0  0  0  0  0  0  0  0  0  0  0
   -0.0000   -3.6073    0.0000 C   0  0  0  0  0  0  0  0  0  0  0  0
    1.2135   -2.7256    0.0000 N   0  0  0  0  0  0  0  0  0  0  0  0
    0.7500   -1.2990    0.0000 N   0  0  0  0  0  0  0  0  0  0  0  0
    1.5000    0.0000    0.0000 C   0  0  0  0  0  0  0  0  0  0  0  0
    0.7500    1.2990    0.0000 C   0  0  0  0  0  0  0  0  0  0  0  0
   -0.7500    1.2990    0.0000 C   0  0  0  0  0  0  0  0  0  0  0  0
   -1.5000    0.0000    0.0000 N   0  0  0  0  0  0  0  0  0  0  0  0
   -0.7500   -1.2990    0.0000 C   0  0  0  0  0  0  0  0  0  0  0  0
   -1.2135   -2.7256    0.0000 C   0  0  0  0  0  0  0  0  0  0  0  0
   -2.6401   -3.1891    0.0000 C   0  0  0  0  0  0  0  0  0  0  0  0
   -3.7548   -2.1855    0.0000 C   0  0  0  0  0  0  0  0  0  0  0  0
   -5.1814   -2.6490    0.0000 C   0  0  0  0  0  0  0  0  0  0  0  0
   -6.2961   -1.6453    0.0000 O   0  0  0  0  0  0  0  0  0  0  0  0
   -5.9843   -0.1781    0.0000 C   0  0  0  0  0  0  0  0  0  0  0  0
   -7.0990    0.8256    0.0000 C   0  0  0  0  0  0  0  0  0  0  0  0
   -6.7871    2.2929    0.0000 C   0  0  0  0  0  0  0  0  0  0  0  0
   -7.9018    3.2966    0.0000 C   0  0  0  0  0  0  0  0  0  0  0  0
   -9.3284    2.8330    0.0000 C   0  0  0  0  0  0  0  0  0  0  0  0
  -10.4431    3.8367    0.0000 F   0  0  0  0  0  0  0  0  0  0  0  0
   -9.6403    1.3658    0.0000 C   0  0  0  0  0  0  0  0  0  0  0  0
   -8.5256    0.3621    0.0000 C   0  0  0  0  0  0  0  0  0  0  0  0
   -5.4933   -4.1162    0.0000 N   0  0  0  0  0  0  0  0  0  0  0  0
   -4.3786   -5.1199    0.0000 C   0  0  0  0  0  0  0  0  0  0  0  0
   -2.9520   -4.6564    0.0000 N   0  0  0  0  0  0  0  0  0  0  0  0
  1  2  1  0
  2  3  2  0
  3  4  1  0
  4  5  1  0
  5  6  2  0
  6  7  1  0
  7  8  2  0
  8  9  1  0
  9 10  2  0
 10 11  1  0
 11 12  2  0
 12 13  1  0
 13 14  1  0
 14 15  1  0
 15 16  1  0
 16 17  2  0
 17 18  1  0
 18 19  2  0
 19 20  1  0
 19 21  1  0
 21 22  2  0
 13 23  2  0
 23 24  1  0
 24 25  2  0
 10  2  1  0
 25 11  1  0
  9  4  1  0
 22 16  1  0
M  END
>  <Compound_ID>  (68) 
CHEMBL568815

>  <Active>  (68) 
1

>  <Smiles>  (68) 
Nc1nn2cccnc2c1-c1cc(OCc2ccc(F)cc2)ncn1

>  <canonical_smi>  (68) 
Nc1nn2cccnc2c1-c1cc(OCc2ccc(F)cc2)ncn1

>  <Set>  (68) 
G2 active

>  <Set_type>  (68) 
Train

>  <MW>  (68) 
336.33

>  <HBD>  (68) 
1

>  <HBA>  (68) 
6

>  <NRB>  (68) 
4

>  <NR>  (68) 
4

>  <NAR>  (68) 
4

>  <PSA>  (68) 
91.22

>  <Standard Type>  (68) 
nan

>  <Standard Relation>  (68) 
nan

>  <Standard Units>  (68) 
nan

>  <Standard Value>  (68) 
nan

>  <Assay ChEMBL ID>  (68) 
nan

>  <Assay Description>  (68) 
nan

>  <BAO Label>  (68) 
nan

$$$$

     RDKit          2D

 26 30  0  0  0  0  0  0  0  0999 V2000
   -0.0000   -5.1073    0.0000 N   0  0  0  0  0  0  0  0  0  0  0  0
   -0.0000   -3.6073    0.0000 C   0  0  0  0  0  0  0  0  0  0  0  0
    1.2135   -2.7256    0.0000 N   0  0  0  0  0  0  0  0  0  0  0  0
    0.7500   -1.2990    0.0000 N   0  0  0  0  0  0  0  0  0  0  0  0
    1.5000    0.0000    0.0000 C   0  0  0  0  0  0  0  0  0  0  0  0
    0.7500    1.2990    0.0000 C   0  0  0  0  0  0  0  0  0  0  0  0
   -0.7500    1.2990    0.0000 C   0  0  0  0  0  0  0  0  0  0  0  0
   -1.5000    0.0000    0.0000 N   0  0  0  0  0  0  0  0  0  0  0  0
   -0.7500   -1.2990    0.0000 C   0  0  0  0  0  0  0  0  0  0  0  0
   -1.2135   -2.7256    0.0000 C   0  0  0  0  0  0  0  0  0  0  0  0
   -2.6401   -3.1891    0.0000 C   0  0  0  0  0  0  0  0  0  0  0  0
   -3.7548   -2.1855    0.0000 C   0  0  0  0  0  0  0  0  0  0  0  0
   -5.1814   -2.6490    0.0000 C   0  0  0  0  0  0  0  0  0  0  0  0
   -6.2961   -1.6453    0.0000 N   0  0  0  0  0  0  0  0  0  0  0  0
   -5.9843   -0.1781    0.0000 C   0  0  0  0  0  0  0  0  0  0  0  0
   -4.6139    0.4320    0.0000 C   0  0  0  0  0  0  0  0  0  0  0  0
   -4.7707    1.9238    0.0000 C   0  0  0  0  0  0  0  0  0  0  0  0
   -6.2380    2.2357    0.0000 C   0  0  0  0  0  0  0  0  0  0  0  0
   -6.9880    3.5347    0.0000 C   0  0  0  0  0  0  0  0  0  0  0  0
   -8.4880    3.5347    0.0000 C   0  0  0  0  0  0  0  0  0  0  0  0
   -9.2380    2.2357    0.0000 C   0  0  0  0  0  0  0  0  0  0  0  0
   -8.4880    0.9367    0.0000 C   0  0  0  0  0  0  0  0  0  0  0  0
   -6.9880    0.9367    0.0000 C   0  0  0  0  0  0  0  0  0  0  0  0
   -5.4933   -4.1162    0.0000 N   0  0  0  0  0  0  0  0  0  0  0  0
   -4.3786   -5.1199    0.0000 C   0  0  0  0  0  0  0  0  0  0  0  0
   -2.9520   -4.6564    0.0000 N   0  0  0  0  0  0  0  0  0  0  0  0
  1  2  1  0
  2  3  2  0
  3  4  1  0
  4  5  1  0
  5  6  2  0
  6  7  1  0
  7  8  2  0
  8  9  1  0
  9 10  2  0
 10 11  1  0
 11 12  2  0
 12 13  1  0
 13 14  1  0
 15 14  1  1
 15 16  1  0
 16 17  1  0
 17 18  1  0
 18 19  2  0
 19 20  1  0
 20 21  2  0
 21 22  1  0
 22 23  2  0
 13 24  2  0
 24 25  1  0
 25 26  2  0
 10  2  1  0
 26 11  1  0
  9  4  1  0
 23 15  1  0
 23 18  1  0
M  END
>  <Compound_ID>  (69) 
CHEMBL570229

>  <Active>  (69) 
1

>  <Smiles>  (69) 
Nc1nn2cccnc2c1-c1cc(N[C@@H]2CCc3ccccc32)ncn1

>  <canonical_smi>  (69) 
Nc1nn2cccnc2c1-c1cc(N[C@@H]2CCc3ccccc32)ncn1

>  <Set>  (69) 
G2 active

>  <Set_type>  (69) 
Train

>  <MW>  (69) 
343.39

>  <HBD>  (69) 
2

>  <HBA>  (69) 
6

>  <NRB>  (69) 
3

>  <NR>  (69) 
5

>  <NAR>  (69) 
4

>  <PSA>  (69) 
94.02

>  <Standard Type>  (69) 
nan

>  <Standard Relation>  (69) 
nan

>  <Standard Units>  (69) 
nan

>  <Standard Value>  (69) 
nan

>  <Assay ChEMBL ID>  (69) 
nan

>  <Assay Description>  (69) 
nan

>  <BAO Label>  (69) 
nan

$$$$

     RDKit          2D

 34 38  0  0  0  0  0  0  0  0999 V2000
   -9.3284    2.8330    0.0000 C   0  0  0  0  0  0  0  0  0  0  0  0
   -9.6403    1.3658    0.0000 O   0  0  0  0  0  0  0  0  0  0  0  0
   -8.5256    0.3621    0.0000 C   0  0  0  0  0  0  0  0  0  0  0  0
   -7.0990    0.8256    0.0000 C   0  0  0  0  0  0  0  0  0  0  0  0
   -5.9843   -0.1781    0.0000 C   0  0  0  0  0  0  0  0  0  0  0  0
   -6.2961   -1.6453    0.0000 C   0  0  0  0  0  0  0  0  0  0  0  0
   -5.1814   -2.6490    0.0000 C   0  0  0  0  0  0  0  0  0  0  0  0
   -5.4933   -4.1162    0.0000 C   0  0  0  0  0  0  0  0  0  0  0  0
   -4.3786   -5.1199    0.0000 C   0  0  0  0  0  0  0  0  0  0  0  0
   -4.6904   -6.5871    0.0000 N   0  0  0  0  0  0  0  0  0  0  0  0
   -6.1170   -7.0506    0.0000 C   0  0  0  0  0  0  0  0  0  0  0  0
   -6.4289   -8.5179    0.0000 C   0  0  0  0  0  0  0  0  0  0  0  0
   -7.2317   -6.0469    0.0000 C   0  0  0  0  0  0  0  0  0  0  0  0
   -6.9199   -4.5797    0.0000 C   0  0  0  0  0  0  0  0  0  0  0  0
   -8.0346   -3.5760    0.0000 C   0  0  0  0  0  0  0  0  0  0  0  0
   -9.4612   -4.0396    0.0000 C   0  0  0  0  0  0  0  0  0  0  0  0
   -9.7730   -5.5068    0.0000 C   0  0  0  0  0  0  0  0  0  0  0  0
   -8.6583   -6.5105    0.0000 C   0  0  0  0  0  0  0  0  0  0  0  0
   -2.9520   -4.6564    0.0000 N   0  0  0  0  0  0  0  0  0  0  0  0
   -2.6401   -3.1891    0.0000 C   0  0  0  0  0  0  0  0  0  0  0  0
   -1.2135   -2.7256    0.0000 N   0  0  0  0  0  0  0  0  0  0  0  0
   -0.0000   -3.6073    0.0000 C   0  0  0  0  0  0  0  0  0  0  0  0
    1.2135   -2.7256    0.0000 N   0  0  0  0  0  0  0  0  0  0  0  0
    0.7500   -1.2990    0.0000 C   0  0  0  0  0  0  0  0  0  0  0  0
    1.5000    0.0000    0.0000 C   0  0  0  0  0  0  0  0  0  0  0  0
    0.7500    1.2990    0.0000 C   0  0  0  0  0  0  0  0  0  0  0  0
   -0.7500    1.2990    0.0000 N   0  0  0  0  0  0  0  0  0  0  0  0
   -1.5000    0.0000    0.0000 C   0  0  0  0  0  0  0  0  0  0  0  0
   -0.7500   -1.2990    0.0000 C   0  0  0  0  0  0  0  0  0  0  0  0
   -3.7548   -2.1855    0.0000 N   0  0  0  0  0  0  0  0  0  0  0  0
   -7.7227   -2.1088    0.0000 C   0  0  0  0  0  0  0  0  0  0  0  0
   -8.8374   -1.1051    0.0000 C   0  0  0  0  0  0  0  0  0  0  0  0
  -10.2640   -1.5686    0.0000 O   0  0  0  0  0  0  0  0  0  0  0  0
  -10.5759   -3.0359    0.0000 C   0  0  0  0  0  0  0  0  0  0  0  0
  1  2  1  0
  2  3  1  0
  3  4  2  0
  4  5  1  0
  5  6  2  0
  6  7  1  0
  7  8  2  0
  8  9  1  0
  9 10  1  0
 10 11  1  0
 11 12  1  1
 11 13  1  0
 13 14  2  0
 14 15  1  0
 15 16  2  0
 16 17  1  0
 17 18  2  0
  9 19  2  0
 19 20  1  0
 20 21  1  0
 21 22  1  0
 22 23  2  0
 23 24  1  0
 24 25  2  0
 25 26  1  0
 26 27  2  0
 27 28  1  0
 28 29  2  0
 20 30  2  0
  6 31  1  0
 31 32  2  0
 32 33  1  0
 33 34  1  0
 32  3  1  0
 30  7  1  0
 18 13  1  0
 29 21  1  0
 29 24  1  0
M  END
>  <Compound_ID>  (70) 
CHEMBL220483

>  <Active>  (70) 
1

>  <Smiles>  (70) 
COc1ccc(-c2cc(N[C@@H](C)c3ccccc3)nc(-n3cnc4ccncc43)n2)cc1OC

>  <canonical_smi>  (70) 
COc1ccc(-c2cc(N[C@@H](C)c3ccccc3)nc(-n3cnc4ccncc43)n2)cc1OC

>  <Set>  (70) 
G2 active

>  <Set_type>  (70) 
Train

>  <MW>  (70) 
452.52

>  <HBD>  (70) 
1

>  <HBA>  (70) 
7

>  <NRB>  (70) 
7

>  <NR>  (70) 
5

>  <NAR>  (70) 
5

>  <PSA>  (70) 
86.98

>  <Standard Type>  (70) 
nan

>  <Standard Relation>  (70) 
nan

>  <Standard Units>  (70) 
nan

>  <Standard Value>  (70) 
nan

>  <Assay ChEMBL ID>  (70) 
nan

>  <Assay Description>  (70) 
nan

>  <BAO Label>  (70) 
nan

$$$$

     RDKit          2D

 37 41  0  0  0  0  0  0  0  0999 V2000
   -0.7500   -6.4952    0.0000 C   0  0  0  0  0  0  0  0  0  0  0  0
    0.7500   -6.4952    0.0000 O   0  0  0  0  0  0  0  0  0  0  0  0
    1.5000   -5.1962    0.0000 C   0  0  0  0  0  0  0  0  0  0  0  0
    0.7500   -3.8971    0.0000 C   0  0  0  0  0  0  0  0  0  0  0  0
    1.5000   -2.5981    0.0000 C   0  0  0  0  0  0  0  0  0  0  0  0
    0.7500   -1.2990    0.0000 C   0  0  0  0  0  0  0  0  0  0  0  0
    1.5000    0.0000    0.0000 C   0  0  0  0  0  0  0  0  0  0  0  0
    0.7500    1.2990    0.0000 N   0  0  0  0  0  0  0  0  0  0  0  0
   -0.7500    1.2990    0.0000 C   0  0  0  0  0  0  0  0  0  0  0  0
   -1.5000    2.5981    0.0000 C   0  0  0  0  0  0  0  0  0  0  0  0
   -3.0000    2.5981    0.0000 C   0  0  0  0  0  0  0  0  0  0  0  0
   -3.7500    1.2990    0.0000 C   0  0  0  0  0  0  0  0  0  0  0  0
   -3.0000    0.0000    0.0000 C   0  0  0  0  0  0  0  0  0  0  0  0
   -3.7500   -1.2990    0.0000 C   0  0  0  0  0  0  0  0  0  0  0  0
   -5.2500   -1.2990    0.0000 C   0  0  0  0  0  0  0  0  0  0  0  0
   -6.0000   -2.5981    0.0000 C   0  0  0  0  0  0  0  0  0  0  0  0
   -5.2500   -3.8971    0.0000 C   0  0  0  0  0  0  0  0  0  0  0  0
   -6.0000   -5.1962    0.0000 C   0  0  0  0  0  0  0  0  0  0  0  0
   -7.5000   -5.1962    0.0000 C   0  0  0  0  0  0  0  0  0  0  0  0
   -8.2500   -3.8971    0.0000 O   0  0  0  0  0  0  0  0  0  0  0  0
   -8.2500   -6.4952    0.0000 N   0  0  0  0  0  0  0  0  0  0  0  0
   -9.7500   -6.4952    0.0000 C   0  0  0  0  0  0  0  0  0  0  0  0
  -10.5000   -7.7942    0.0000 C   0  0  0  0  0  0  0  0  0  0  0  0
   -9.7500   -9.0933    0.0000 O   0  0  0  0  0  0  0  0  0  0  0  0
   -8.2500   -9.0933    0.0000 C   0  0  0  0  0  0  0  0  0  0  0  0
   -7.5000   -7.7942    0.0000 C   0  0  0  0  0  0  0  0  0  0  0  0
   -3.7500   -3.8971    0.0000 C   0  0  0  0  0  0  0  0  0  0  0  0
   -3.0000   -2.5981    0.0000 C   0  0  0  0  0  0  0  0  0  0  0  0
   -1.5000    0.0000    0.0000 C   0  0  0  0  0  0  0  0  0  0  0  0
   -0.7500   -1.2990    0.0000 N   0  0  0  0  0  0  0  0  0  0  0  0
    3.0000   -2.5981    0.0000 C   0  0  0  0  0  0  0  0  0  0  0  0
    3.7500   -3.8971    0.0000 C   0  0  0  0  0  0  0  0  0  0  0  0
    5.2500   -3.8971    0.0000 O   0  0  0  0  0  0  0  0  0  0  0  0
    6.0000   -5.1962    0.0000 C   0  0  0  0  0  0  0  0  0  0  0  0
    3.0000   -5.1962    0.0000 C   0  0  0  0  0  0  0  0  0  0  0  0
    3.7500   -6.4952    0.0000 O   0  0  0  0  0  0  0  0  0  0  0  0
    3.0000   -7.7942    0.0000 C   0  0  0  0  0  0  0  0  0  0  0  0
  1  2  1  0
  2  3  1  0
  3  4  2  0
  4  5  1  0
  5  6  1  0
  6  7  2  0
  7  8  1  0
  8  9  2  0
  9 10  1  0
 10 11  2  0
 11 12  1  0
 12 13  2  0
 13 14  1  0
 14 15  2  0
 15 16  1  0
 16 17  2  0
 17 18  1  0
 18 19  1  0
 19 20  2  0
 19 21  1  0
 21 22  1  0
 22 23  1  0
 23 24  1  0
 24 25  1  0
 25 26  1  0
 17 27  1  0
 27 28  2  0
 13 29  1  0
 29 30  2  0
  5 31  2  0
 31 32  1  0
 32 33  1  0
 33 34  1  0
 32 35  2  0
 35 36  1  0
 36 37  1  0
 35  3  1  0
 30  6  1  0
 29  9  1  0
 28 14  1  0
 26 21  1  0
M  END
>  <Compound_ID>  (71) 
CHEMBL1093191

>  <Active>  (71) 
1

>  <Smiles>  (71) 
COc1cc(-c2cnc3cccc(-c4ccc(CC(=O)N5CCOCC5)cc4)c3n2)cc(OC)c1OC

>  <canonical_smi>  (71) 
COc1cc(-c2cnc3cccc(-c4ccc(CC(=O)N5CCOCC5)cc4)c3n2)cc(OC)c1OC

>  <Set>  (71) 
G2 active

>  <Set_type>  (71) 
Train

>  <MW>  (71) 
499.57

>  <HBD>  (71) 
0

>  <HBA>  (71) 
7

>  <NRB>  (71) 
7

>  <NR>  (71) 
5

>  <NAR>  (71) 
4

>  <PSA>  (71) 
83.01

>  <Standard Type>  (71) 
nan

>  <Standard Relation>  (71) 
nan

>  <Standard Units>  (71) 
nan

>  <Standard Value>  (71) 
nan

>  <Assay ChEMBL ID>  (71) 
nan

>  <Assay Description>  (71) 
nan

>  <BAO Label>  (71) 
nan

$$$$

     RDKit          2D

 32 35  0  0  0  0  0  0  0  0999 V2000
    3.0000    0.0000    0.0000 C   0  0  0  0  0  0  0  0  0  0  0  0
    1.5000    0.0000    0.0000 N   0  0  0  0  0  0  0  0  0  0  0  0
    0.7500   -1.2990    0.0000 C   0  0  0  0  0  0  0  0  0  0  0  0
   -0.7500   -1.2990    0.0000 C   0  0  0  0  0  0  0  0  0  0  0  0
   -1.5000    0.0000    0.0000 N   0  0  0  0  0  0  0  0  0  0  0  0
   -3.0000    0.0000    0.0000 C   0  0  0  0  0  0  0  0  0  0  0  0
   -3.7500    1.2990    0.0000 C   0  0  0  0  0  0  0  0  0  0  0  0
   -3.0000    2.5981    0.0000 C   0  0  0  0  0  0  0  0  0  0  0  0
   -3.7500    3.8971    0.0000 C   0  0  0  0  0  0  0  0  0  0  0  0
   -5.2500    3.8971    0.0000 C   0  0  0  0  0  0  0  0  0  0  0  0
   -6.0000    2.5981    0.0000 C   0  0  0  0  0  0  0  0  0  0  0  0
   -7.5000    2.5981    0.0000 N   0  0  0  0  0  0  0  0  0  0  0  0
   -8.2500    3.8971    0.0000 C   0  0  0  0  0  0  0  0  0  0  0  0
   -7.5000    5.1962    0.0000 N   0  0  0  0  0  0  0  0  0  0  0  0
   -8.2500    6.4952    0.0000 C   0  0  0  0  0  0  0  0  0  0  0  0
   -9.7500    6.4952    0.0000 C   0  0  0  0  0  0  0  0  0  0  0  0
  -10.5000    5.1962    0.0000 C   0  0  0  0  0  0  0  0  0  0  0  0
  -12.0000    5.1962    0.0000 C   0  0  0  0  0  0  0  0  0  0  0  0
  -12.7500    6.4952    0.0000 C   0  0  0  0  0  0  0  0  0  0  0  0
  -14.2500    6.4952    0.0000 C   0  0  0  0  0  0  0  0  0  0  0  0
  -15.0000    5.1962    0.0000 C   0  0  0  0  0  0  0  0  0  0  0  0
  -16.5000    5.1962    0.0000 N   0  0  0  0  0  0  0  0  0  0  0  0
  -17.2500    6.4952    0.0000 S   0  0  0  0  0  0  0  0  0  0  0  0
  -18.0000    7.7942    0.0000 C   0  0  0  0  0  0  0  0  0  0  0  0
  -15.9510    7.2452    0.0000 O   0  0  0  0  0  0  0  0  0  0  0  0
  -18.5490    5.7452    0.0000 O   0  0  0  0  0  0  0  0  0  0  0  0
  -14.2500    3.8971    0.0000 C   0  0  0  0  0  0  0  0  0  0  0  0
  -12.7500    3.8971    0.0000 C   0  0  0  0  0  0  0  0  0  0  0  0
   -9.7500    3.8971    0.0000 N   0  0  0  0  0  0  0  0  0  0  0  0
   -5.2500    1.2990    0.0000 C   0  0  0  0  0  0  0  0  0  0  0  0
   -0.7500    1.2990    0.0000 C   0  0  0  0  0  0  0  0  0  0  0  0
    0.7500    1.2990    0.0000 C   0  0  0  0  0  0  0  0  0  0  0  0
  1  2  1  0
  2  3  1  0
  3  4  1  0
  4  5  1  0
  5  6  1  0
  6  7  1  0
  7  8  2  0
  8  9  1  0
  9 10  2  0
 10 11  1  0
 11 12  1  0
 12 13  1  0
 13 14  2  0
 14 15  1  0
 15 16  2  0
 16 17  1  0
 17 18  1  0
 18 19  2  0
 19 20  1  0
 20 21  2  0
 21 22  1  0
 22 23  1  0
 23 24  1  0
 23 25  2  0
 23 26  2  0
 21 27  1  0
 27 28  2  0
 17 29  2  0
 11 30  2  0
  5 31  1  0
 31 32  1  0
 32  2  1  0
 30  7  1  0
 29 13  1  0
 28 18  1  0
M  END
>  <Compound_ID>  (72) 
CHEMBL1078866

>  <Active>  (72) 
1

>  <Smiles>  (72) 
CN1CCN(Cc2cccc(Nc3nccc(-c4ccc(NS(C)(=O)=O)cc4)n3)c2)CC1

>  <canonical_smi>  (72) 
CN1CCN(Cc2cccc(Nc3nccc(-c4ccc(NS(C)(=O)=O)cc4)n3)c2)CC1

>  <Set>  (72) 
G2 active

>  <Set_type>  (72) 
Train

>  <MW>  (72) 
452.58

>  <HBD>  (72) 
2

>  <HBA>  (72) 
7

>  <NRB>  (72) 
7

>  <NR>  (72) 
4

>  <NAR>  (72) 
3

>  <PSA>  (72) 
90.46

>  <Standard Type>  (72) 
nan

>  <Standard Relation>  (72) 
nan

>  <Standard Units>  (72) 
nan

>  <Standard Value>  (72) 
nan

>  <Assay ChEMBL ID>  (72) 
nan

>  <Assay Description>  (72) 
nan

>  <BAO Label>  (72) 
nan

$$$$

     RDKit          2D

 37 41  0  0  0  0  0  0  0  0999 V2000
   -0.7500   -6.4952    0.0000 C   0  0  0  0  0  0  0  0  0  0  0  0
    0.7500   -6.4952    0.0000 O   0  0  0  0  0  0  0  0  0  0  0  0
    1.5000   -5.1962    0.0000 C   0  0  0  0  0  0  0  0  0  0  0  0
    0.7500   -3.8971    0.0000 C   0  0  0  0  0  0  0  0  0  0  0  0
    1.5000   -2.5981    0.0000 C   0  0  0  0  0  0  0  0  0  0  0  0
    0.7500   -1.2990    0.0000 C   0  0  0  0  0  0  0  0  0  0  0  0
    1.5000    0.0000    0.0000 C   0  0  0  0  0  0  0  0  0  0  0  0
    0.7500    1.2990    0.0000 N   0  0  0  0  0  0  0  0  0  0  0  0
   -0.7500    1.2990    0.0000 C   0  0  0  0  0  0  0  0  0  0  0  0
   -1.5000    2.5981    0.0000 C   0  0  0  0  0  0  0  0  0  0  0  0
   -3.0000    2.5981    0.0000 C   0  0  0  0  0  0  0  0  0  0  0  0
   -3.7500    1.2990    0.0000 C   0  0  0  0  0  0  0  0  0  0  0  0
   -3.0000    0.0000    0.0000 C   0  0  0  0  0  0  0  0  0  0  0  0
   -3.7500   -1.2990    0.0000 C   0  0  0  0  0  0  0  0  0  0  0  0
   -5.2500   -1.2990    0.0000 C   0  0  0  0  0  0  0  0  0  0  0  0
   -6.0000   -2.5981    0.0000 C   0  0  0  0  0  0  0  0  0  0  0  0
   -5.2500   -3.8971    0.0000 C   0  0  0  0  0  0  0  0  0  0  0  0
   -6.0000   -5.1962    0.0000 C   0  0  0  0  0  0  0  0  0  0  0  0
   -7.5000   -5.1962    0.0000 N   0  0  0  0  0  0  0  0  0  0  0  0
   -8.2500   -3.8971    0.0000 C   0  0  0  0  0  0  0  0  0  0  0  0
   -9.7500   -3.8971    0.0000 C   0  0  0  0  0  0  0  0  0  0  0  0
  -10.5000   -5.1962    0.0000 S   0  0  0  0  0  0  0  0  0  0  0  0
  -11.6491   -6.1603    0.0000 O   0  0  0  0  0  0  0  0  0  0  0  0
  -11.6491   -4.2320    0.0000 O   0  0  0  0  0  0  0  0  0  0  0  0
   -9.7500   -6.4952    0.0000 C   0  0  0  0  0  0  0  0  0  0  0  0
   -8.2500   -6.4952    0.0000 C   0  0  0  0  0  0  0  0  0  0  0  0
   -3.7500   -3.8971    0.0000 C   0  0  0  0  0  0  0  0  0  0  0  0
   -3.0000   -2.5981    0.0000 C   0  0  0  0  0  0  0  0  0  0  0  0
   -1.5000    0.0000    0.0000 C   0  0  0  0  0  0  0  0  0  0  0  0
   -0.7500   -1.2990    0.0000 N   0  0  0  0  0  0  0  0  0  0  0  0
    3.0000   -2.5981    0.0000 C   0  0  0  0  0  0  0  0  0  0  0  0
    3.7500   -3.8971    0.0000 C   0  0  0  0  0  0  0  0  0  0  0  0
    5.2500   -3.8971    0.0000 O   0  0  0  0  0  0  0  0  0  0  0  0
    6.0000   -5.1962    0.0000 C   0  0  0  0  0  0  0  0  0  0  0  0
    3.0000   -5.1962    0.0000 C   0  0  0  0  0  0  0  0  0  0  0  0
    3.7500   -6.4952    0.0000 O   0  0  0  0  0  0  0  0  0  0  0  0
    3.0000   -7.7942    0.0000 C   0  0  0  0  0  0  0  0  0  0  0  0
  1  2  1  0
  2  3  1  0
  3  4  2  0
  4  5  1  0
  5  6  1  0
  6  7  2  0
  7  8  1  0
  8  9  2  0
  9 10  1  0
 10 11  2  0
 11 12  1  0
 12 13  2  0
 13 14  1  0
 14 15  2  0
 15 16  1  0
 16 17  2  0
 17 18  1  0
 18 19  1  0
 19 20  1  0
 20 21  1  0
 21 22  1  0
 22 23  2  0
 22 24  2  0
 22 25  1  0
 25 26  1  0
 17 27  1  0
 27 28  2  0
 13 29  1  0
 29 30  2  0
  5 31  2  0
 31 32  1  0
 32 33  1  0
 33 34  1  0
 32 35  2  0
 35 36  1  0
 36 37  1  0
 35  3  1  0
 30  6  1  0
 29  9  1  0
 28 14  1  0
 26 19  1  0
M  END
>  <Compound_ID>  (73) 
CHEMBL1089833

>  <Active>  (73) 
1

>  <Smiles>  (73) 
COc1cc(-c2cnc3cccc(-c4ccc(CN5CCS(=O)(=O)CC5)cc4)c3n2)cc(OC)c1OC

>  <canonical_smi>  (73) 
COc1cc(-c2cnc3cccc(-c4ccc(CN5CCS(=O)(=O)CC5)cc4)c3n2)cc(OC)c1OC

>  <Set>  (73) 
G2 active

>  <Set_type>  (73) 
Train

>  <MW>  (73) 
519.62

>  <HBD>  (73) 
0

>  <HBA>  (73) 
8

>  <NRB>  (73) 
7

>  <NR>  (73) 
5

>  <NAR>  (73) 
4

>  <PSA>  (73) 
90.85

>  <Standard Type>  (73) 
nan

>  <Standard Relation>  (73) 
nan

>  <Standard Units>  (73) 
nan

>  <Standard Value>  (73) 
nan

>  <Assay ChEMBL ID>  (73) 
nan

>  <Assay Description>  (73) 
nan

>  <BAO Label>  (73) 
nan

$$$$

     RDKit          2D

 29 33  0  0  0  0  0  0  0  0999 V2000
   -4.5577    0.2855    0.0000 C   0  0  0  0  0  0  0  0  0  0  0  0
   -5.9843   -0.1781    0.0000 C   0  0  0  0  0  0  0  0  0  0  0  0
   -6.2961   -1.6453    0.0000 N   0  0  0  0  0  0  0  0  0  0  0  0
   -5.1814   -2.6490    0.0000 C   0  0  0  0  0  0  0  0  0  0  0  0
   -5.4933   -4.1162    0.0000 C   0  0  0  0  0  0  0  0  0  0  0  0
   -4.3786   -5.1199    0.0000 C   0  0  0  0  0  0  0  0  0  0  0  0
   -4.6904   -6.5871    0.0000 C   0  0  0  0  0  0  0  0  0  0  0  0
   -3.6867   -7.7018    0.0000 C   0  0  0  0  0  0  0  0  0  0  0  0
   -4.4367   -9.0009    0.0000 C   0  0  0  0  0  0  0  0  0  0  0  0
   -5.9040   -8.6890    0.0000 O   0  0  0  0  0  0  0  0  0  0  0  0
   -6.0607   -7.1972    0.0000 C   0  0  0  0  0  0  0  0  0  0  0  0
   -2.9520   -4.6564    0.0000 N   0  0  0  0  0  0  0  0  0  0  0  0
   -2.6401   -3.1891    0.0000 C   0  0  0  0  0  0  0  0  0  0  0  0
   -1.2135   -2.7256    0.0000 N   0  0  0  0  0  0  0  0  0  0  0  0
   -0.0000   -3.6073    0.0000 C   0  0  0  0  0  0  0  0  0  0  0  0
    1.2135   -2.7256    0.0000 N   0  0  0  0  0  0  0  0  0  0  0  0
    0.7500   -1.2990    0.0000 C   0  0  0  0  0  0  0  0  0  0  0  0
    1.5000    0.0000    0.0000 C   0  0  0  0  0  0  0  0  0  0  0  0
    0.7500    1.2990    0.0000 C   0  0  0  0  0  0  0  0  0  0  0  0
   -0.7500    1.2990    0.0000 N   0  0  0  0  0  0  0  0  0  0  0  0
   -1.5000    0.0000    0.0000 C   0  0  0  0  0  0  0  0  0  0  0  0
   -0.7500   -1.2990    0.0000 C   0  0  0  0  0  0  0  0  0  0  0  0
   -3.7548   -2.1855    0.0000 N   0  0  0  0  0  0  0  0  0  0  0  0
   -7.0990    0.8256    0.0000 C   0  0  0  0  0  0  0  0  0  0  0  0
   -6.7871    2.2929    0.0000 C   0  0  0  0  0  0  0  0  0  0  0  0
   -7.9018    3.2966    0.0000 C   0  0  0  0  0  0  0  0  0  0  0  0
   -9.3284    2.8330    0.0000 C   0  0  0  0  0  0  0  0  0  0  0  0
   -9.6403    1.3658    0.0000 C   0  0  0  0  0  0  0  0  0  0  0  0
   -8.5256    0.3621    0.0000 C   0  0  0  0  0  0  0  0  0  0  0  0
  2  1  1  6
  2  3  1  0
  3  4  1  0
  4  5  2  0
  5  6  1  0
  6  7  1  0
  7  8  1  0
  8  9  2  0
  9 10  1  0
 10 11  1  0
  6 12  2  0
 12 13  1  0
 13 14  1  0
 14 15  1  0
 15 16  2  0
 16 17  1  0
 17 18  2  0
 18 19  1  0
 19 20  2  0
 20 21  1  0
 21 22  2  0
 13 23  2  0
  2 24  1  0
 24 25  2  0
 25 26  1  0
 26 27  2  0
 27 28  1  0
 28 29  2  0
 23  4  1  0
 29 24  1  0
 11  7  2  0
 22 14  1  0
 22 17  1  0
M  END
>  <Compound_ID>  (74) 
CHEMBL222027

>  <Active>  (74) 
1

>  <Smiles>  (74) 
C[C@H](Nc1cc(-c2ccoc2)nc(-n2cnc3ccncc32)n1)c1ccccc1

>  <canonical_smi>  (74) 
C[C@H](Nc1cc(-c2ccoc2)nc(-n2cnc3ccncc32)n1)c1ccccc1

>  <Set>  (74) 
G2 active

>  <Set_type>  (74) 
Train

>  <MW>  (74) 
382.43

>  <HBD>  (74) 
1

>  <HBA>  (74) 
6

>  <NRB>  (74) 
5

>  <NR>  (74) 
5

>  <NAR>  (74) 
5

>  <PSA>  (74) 
81.66

>  <Standard Type>  (74) 
nan

>  <Standard Relation>  (74) 
nan

>  <Standard Units>  (74) 
nan

>  <Standard Value>  (74) 
nan

>  <Assay ChEMBL ID>  (74) 
nan

>  <Assay Description>  (74) 
nan

>  <BAO Label>  (74) 
nan

$$$$

     RDKit          2D

 30 34  0  0  0  0  0  0  0  0999 V2000
   -9.6403    1.3658    0.0000 C   0  0  0  0  0  0  0  0  0  0  0  0
   -8.5256    0.3621    0.0000 N   0  0  0  0  0  0  0  0  0  0  0  0
   -7.0990    0.8256    0.0000 C   0  0  0  0  0  0  0  0  0  0  0  0
   -5.9843   -0.1781    0.0000 C   0  0  0  0  0  0  0  0  0  0  0  0
   -6.2961   -1.6453    0.0000 N   0  0  0  0  0  0  0  0  0  0  0  0
   -5.1814   -2.6490    0.0000 C   0  0  0  0  0  0  0  0  0  0  0  0
   -5.4933   -4.1162    0.0000 C   0  0  0  0  0  0  0  0  0  0  0  0
   -4.3786   -5.1199    0.0000 C   0  0  0  0  0  0  0  0  0  0  0  0
   -4.6904   -6.5871    0.0000 O   0  0  0  0  0  0  0  0  0  0  0  0
   -6.1170   -7.0506    0.0000 C   0  0  0  0  0  0  0  0  0  0  0  0
   -7.2317   -6.0469    0.0000 C   0  0  0  0  0  0  0  0  0  0  0  0
   -8.6583   -6.5105    0.0000 C   0  0  0  0  0  0  0  0  0  0  0  0
   -8.9702   -7.9777    0.0000 C   0  0  0  0  0  0  0  0  0  0  0  0
   -7.8555   -8.9814    0.0000 C   0  0  0  0  0  0  0  0  0  0  0  0
   -6.4289   -8.5179    0.0000 C   0  0  0  0  0  0  0  0  0  0  0  0
   -5.3142   -9.5216    0.0000 Cl  0  0  0  0  0  0  0  0  0  0  0  0
   -2.9520   -4.6564    0.0000 N   0  0  0  0  0  0  0  0  0  0  0  0
   -2.6401   -3.1891    0.0000 C   0  0  0  0  0  0  0  0  0  0  0  0
   -1.2135   -2.7256    0.0000 N   0  0  0  0  0  0  0  0  0  0  0  0
   -0.0000   -3.6073    0.0000 C   0  0  0  0  0  0  0  0  0  0  0  0
    1.2135   -2.7256    0.0000 N   0  0  0  0  0  0  0  0  0  0  0  0
    0.7500   -1.2990    0.0000 C   0  0  0  0  0  0  0  0  0  0  0  0
    1.5000    0.0000    0.0000 C   0  0  0  0  0  0  0  0  0  0  0  0
    0.7500    1.2990    0.0000 C   0  0  0  0  0  0  0  0  0  0  0  0
   -0.7500    1.2990    0.0000 N   0  0  0  0  0  0  0  0  0  0  0  0
   -1.5000    0.0000    0.0000 C   0  0  0  0  0  0  0  0  0  0  0  0
   -0.7500   -1.2990    0.0000 C   0  0  0  0  0  0  0  0  0  0  0  0
   -3.7548   -2.1855    0.0000 N   0  0  0  0  0  0  0  0  0  0  0  0
   -7.7227   -2.1088    0.0000 C   0  0  0  0  0  0  0  0  0  0  0  0
   -8.8374   -1.1051    0.0000 C   0  0  0  0  0  0  0  0  0  0  0  0
  1  2  1  0
  2  3  1  0
  3  4  1  0
  4  5  1  0
  5  6  1  0
  6  7  2  0
  7  8  1  0
  8  9  1  0
  9 10  1  0
 10 11  2  0
 11 12  1  0
 12 13  2  0
 13 14  1  0
 14 15  2  0
 15 16  1  0
  8 17  2  0
 17 18  1  0
 18 19  1  0
 19 20  1  0
 20 21  2  0
 21 22  1  0
 22 23  2  0
 23 24  1  0
 24 25  2  0
 25 26  1  0
 26 27  2  0
 18 28  2  0
  5 29  1  0
 29 30  1  0
 30  2  1  0
 28  6  1  0
 15 10  1  0
 27 19  1  0
 27 22  1  0
M  END
>  <Compound_ID>  (75) 
CHEMBL218439

>  <Active>  (75) 
1

>  <Smiles>  (75) 
CN1CCN(c2cc(Oc3ccccc3Cl)nc(-n3cnc4ccncc43)n2)CC1

>  <canonical_smi>  (75) 
CN1CCN(c2cc(Oc3ccccc3Cl)nc(-n3cnc4ccncc43)n2)CC1

>  <Set>  (75) 
G2 active

>  <Set_type>  (75) 
Train

>  <MW>  (75) 
421.89

>  <HBD>  (75) 
0

>  <HBA>  (75) 
7

>  <NRB>  (75) 
4

>  <NR>  (75) 
5

>  <NAR>  (75) 
4

>  <PSA>  (75) 
72.2

>  <Standard Type>  (75) 
nan

>  <Standard Relation>  (75) 
nan

>  <Standard Units>  (75) 
nan

>  <Standard Value>  (75) 
nan

>  <Assay ChEMBL ID>  (75) 
nan

>  <Assay Description>  (75) 
nan

>  <BAO Label>  (75) 
nan

$$$$

     RDKit          2D

 32 35  0  0  0  0  0  0  0  0999 V2000
    3.0000    0.0000    0.0000 C   0  0  0  0  0  0  0  0  0  0  0  0
    1.5000    0.0000    0.0000 N   0  0  0  0  0  0  0  0  0  0  0  0
    0.7500   -1.2990    0.0000 C   0  0  0  0  0  0  0  0  0  0  0  0
   -0.7500   -1.2990    0.0000 C   0  0  0  0  0  0  0  0  0  0  0  0
   -1.5000    0.0000    0.0000 N   0  0  0  0  0  0  0  0  0  0  0  0
   -3.0000    0.0000    0.0000 C   0  0  0  0  0  0  0  0  0  0  0  0
   -3.7500    1.2990    0.0000 C   0  0  0  0  0  0  0  0  0  0  0  0
   -3.0000    2.5981    0.0000 C   0  0  0  0  0  0  0  0  0  0  0  0
   -3.7500    3.8971    0.0000 C   0  0  0  0  0  0  0  0  0  0  0  0
   -5.2500    3.8971    0.0000 C   0  0  0  0  0  0  0  0  0  0  0  0
   -6.0000    5.1962    0.0000 N   0  0  0  0  0  0  0  0  0  0  0  0
   -5.2500    6.4952    0.0000 C   0  0  0  0  0  0  0  0  0  0  0  0
   -3.7500    6.4952    0.0000 N   0  0  0  0  0  0  0  0  0  0  0  0
   -3.0000    7.7942    0.0000 C   0  0  0  0  0  0  0  0  0  0  0  0
   -3.7500    9.0933    0.0000 C   0  0  0  0  0  0  0  0  0  0  0  0
   -5.2500    9.0933    0.0000 C   0  0  0  0  0  0  0  0  0  0  0  0
   -6.0000   10.3923    0.0000 C   0  0  0  0  0  0  0  0  0  0  0  0
   -5.2500   11.6913    0.0000 C   0  0  0  0  0  0  0  0  0  0  0  0
   -6.0000   12.9904    0.0000 C   0  0  0  0  0  0  0  0  0  0  0  0
   -7.5000   12.9904    0.0000 C   0  0  0  0  0  0  0  0  0  0  0  0
   -8.2500   14.2894    0.0000 N   0  0  0  0  0  0  0  0  0  0  0  0
   -7.5000   15.5885    0.0000 S   0  0  0  0  0  0  0  0  0  0  0  0
   -6.7500   16.8875    0.0000 C   0  0  0  0  0  0  0  0  0  0  0  0
   -6.2010   14.8385    0.0000 O   0  0  0  0  0  0  0  0  0  0  0  0
   -8.7990   16.3385    0.0000 O   0  0  0  0  0  0  0  0  0  0  0  0
   -8.2500   11.6913    0.0000 C   0  0  0  0  0  0  0  0  0  0  0  0
   -7.5000   10.3923    0.0000 C   0  0  0  0  0  0  0  0  0  0  0  0
   -6.0000    7.7942    0.0000 N   0  0  0  0  0  0  0  0  0  0  0  0
   -6.0000    2.5981    0.0000 C   0  0  0  0  0  0  0  0  0  0  0  0
   -5.2500    1.2990    0.0000 C   0  0  0  0  0  0  0  0  0  0  0  0
   -0.7500    1.2990    0.0000 C   0  0  0  0  0  0  0  0  0  0  0  0
    0.7500    1.2990    0.0000 C   0  0  0  0  0  0  0  0  0  0  0  0
  1  2  1  0
  2  3  1  0
  3  4  1  0
  4  5  1  0
  5  6  1  0
  6  7  1  0
  7  8  2  0
  8  9  1  0
  9 10  2  0
 10 11  1  0
 11 12  1  0
 12 13  2  0
 13 14  1  0
 14 15  2  0
 15 16  1  0
 16 17  1  0
 17 18  2  0
 18 19  1  0
 19 20  2  0
 20 21  1  0
 21 22  1  0
 22 23  1  0
 22 24  2  0
 22 25  2  0
 20 26  1  0
 26 27  2  0
 16 28  2  0
 10 29  1  0
 29 30  2  0
  5 31  1  0
 31 32  1  0
 32  2  1  0
 30  7  1  0
 28 12  1  0
 27 17  1  0
M  END
>  <Compound_ID>  (76) 
CHEMBL1078971

>  <Active>  (76) 
1

>  <Smiles>  (76) 
CN1CCN(Cc2ccc(Nc3nccc(-c4ccc(NS(C)(=O)=O)cc4)n3)cc2)CC1

>  <canonical_smi>  (76) 
CN1CCN(Cc2ccc(Nc3nccc(-c4ccc(NS(C)(=O)=O)cc4)n3)cc2)CC1

>  <Set>  (76) 
G2 active

>  <Set_type>  (76) 
Train

>  <MW>  (76) 
452.58

>  <HBD>  (76) 
2

>  <HBA>  (76) 
7

>  <NRB>  (76) 
7

>  <NR>  (76) 
4

>  <NAR>  (76) 
3

>  <PSA>  (76) 
90.46

>  <Standard Type>  (76) 
nan

>  <Standard Relation>  (76) 
nan

>  <Standard Units>  (76) 
nan

>  <Standard Value>  (76) 
nan

>  <Assay ChEMBL ID>  (76) 
nan

>  <Assay Description>  (76) 
nan

>  <BAO Label>  (76) 
nan

$$$$

     RDKit          2D

 31 35  0  0  0  0  0  0  0  0999 V2000
   -4.5577    0.2855    0.0000 C   0  0  0  0  0  0  0  0  0  0  0  0
   -5.9843   -0.1781    0.0000 C   0  0  0  0  0  0  0  0  0  0  0  0
   -6.2961   -1.6453    0.0000 N   0  0  0  0  0  0  0  0  0  0  0  0
   -5.1814   -2.6490    0.0000 C   0  0  0  0  0  0  0  0  0  0  0  0
   -5.4933   -4.1162    0.0000 C   0  0  0  0  0  0  0  0  0  0  0  0
   -4.3786   -5.1199    0.0000 C   0  0  0  0  0  0  0  0  0  0  0  0
   -4.6904   -6.5871    0.0000 N   0  0  0  0  0  0  0  0  0  0  0  0
   -6.1170   -7.0506    0.0000 C   0  0  0  0  0  0  0  0  0  0  0  0
   -6.4289   -8.5179    0.0000 C   0  0  0  0  0  0  0  0  0  0  0  0
   -5.3142   -9.5216    0.0000 N   0  0  0  0  0  0  0  0  0  0  0  0
   -5.6260  -10.9888    0.0000 C   0  0  0  0  0  0  0  0  0  0  0  0
   -3.8876   -9.0580    0.0000 C   0  0  0  0  0  0  0  0  0  0  0  0
   -3.5757   -7.5908    0.0000 C   0  0  0  0  0  0  0  0  0  0  0  0
   -2.9520   -4.6564    0.0000 N   0  0  0  0  0  0  0  0  0  0  0  0
   -2.6401   -3.1891    0.0000 C   0  0  0  0  0  0  0  0  0  0  0  0
   -1.2135   -2.7256    0.0000 N   0  0  0  0  0  0  0  0  0  0  0  0
   -0.0000   -3.6073    0.0000 C   0  0  0  0  0  0  0  0  0  0  0  0
    1.2135   -2.7256    0.0000 N   0  0  0  0  0  0  0  0  0  0  0  0
    0.7500   -1.2990    0.0000 C   0  0  0  0  0  0  0  0  0  0  0  0
    1.5000    0.0000    0.0000 C   0  0  0  0  0  0  0  0  0  0  0  0
    0.7500    1.2990    0.0000 C   0  0  0  0  0  0  0  0  0  0  0  0
   -0.7500    1.2990    0.0000 N   0  0  0  0  0  0  0  0  0  0  0  0
   -1.5000    0.0000    0.0000 C   0  0  0  0  0  0  0  0  0  0  0  0
   -0.7500   -1.2990    0.0000 C   0  0  0  0  0  0  0  0  0  0  0  0
   -3.7548   -2.1855    0.0000 N   0  0  0  0  0  0  0  0  0  0  0  0
   -7.0990    0.8256    0.0000 C   0  0  0  0  0  0  0  0  0  0  0  0
   -8.5256    0.3621    0.0000 C   0  0  0  0  0  0  0  0  0  0  0  0
   -9.6403    1.3658    0.0000 C   0  0  0  0  0  0  0  0  0  0  0  0
   -9.3284    2.8330    0.0000 C   0  0  0  0  0  0  0  0  0  0  0  0
   -7.9018    3.2966    0.0000 C   0  0  0  0  0  0  0  0  0  0  0  0
   -6.7871    2.2929    0.0000 C   0  0  0  0  0  0  0  0  0  0  0  0
  2  1  1  6
  2  3  1  0
  3  4  1  0
  4  5  2  0
  5  6  1  0
  6  7  1  0
  7  8  1  0
  8  9  1  0
  9 10  1  0
 10 11  1  0
 10 12  1  0
 12 13  1  0
  6 14  2  0
 14 15  1  0
 15 16  1  0
 16 17  1  0
 17 18  2  0
 18 19  1  0
 19 20  2  0
 20 21  1  0
 21 22  2  0
 22 23  1  0
 23 24  2  0
 15 25  2  0
  2 26  1  0
 26 27  2  0
 27 28  1  0
 28 29  2  0
 29 30  1  0
 30 31  2  0
 25  4  1  0
 31 26  1  0
 13  7  1  0
 24 16  1  0
 24 19  1  0
M  END
>  <Compound_ID>  (77) 
CHEMBL375296

>  <Active>  (77) 
1

>  <Smiles>  (77) 
C[C@H](Nc1cc(N2CCN(C)CC2)nc(-n2cnc3ccncc32)n1)c1ccccc1

>  <canonical_smi>  (77) 
C[C@H](Nc1cc(N2CCN(C)CC2)nc(-n2cnc3ccncc32)n1)c1ccccc1

>  <Set>  (77) 
G2 active

>  <Set_type>  (77) 
Train

>  <MW>  (77) 
414.52

>  <HBD>  (77) 
1

>  <HBA>  (77) 
7

>  <NRB>  (77) 
5

>  <NR>  (77) 
5

>  <NAR>  (77) 
4

>  <PSA>  (77) 
75.0

>  <Standard Type>  (77) 
nan

>  <Standard Relation>  (77) 
nan

>  <Standard Units>  (77) 
nan

>  <Standard Value>  (77) 
nan

>  <Assay ChEMBL ID>  (77) 
nan

>  <Assay Description>  (77) 
nan

>  <BAO Label>  (77) 
nan

$$$$

     RDKit          2D

 20 22  0  0  0  0  0  0  0  0999 V2000
   -7.0990    0.8256    0.0000 C   0  0  0  0  0  0  0  0  0  0  0  0
   -5.9843   -0.1781    0.0000 C   0  0  0  0  0  0  0  0  0  0  0  0
   -4.5577    0.2855    0.0000 C   0  0  0  0  0  0  0  0  0  0  0  0
   -6.2961   -1.6453    0.0000 N   0  0  0  0  0  0  0  0  0  0  0  0
   -5.1814   -2.6490    0.0000 C   0  0  0  0  0  0  0  0  0  0  0  0
   -3.7548   -2.1855    0.0000 C   0  0  0  0  0  0  0  0  0  0  0  0
   -2.6401   -3.1891    0.0000 C   0  0  0  0  0  0  0  0  0  0  0  0
   -1.2135   -2.7256    0.0000 C   0  0  0  0  0  0  0  0  0  0  0  0
   -0.0000   -3.6073    0.0000 C   0  0  0  0  0  0  0  0  0  0  0  0
    0.0000   -5.1073    0.0000 N   0  0  0  0  0  0  0  0  0  0  0  0
    1.2135   -2.7256    0.0000 N   0  0  0  0  0  0  0  0  0  0  0  0
    0.7500   -1.2990    0.0000 N   0  0  0  0  0  0  0  0  0  0  0  0
    1.5000    0.0000    0.0000 C   0  0  0  0  0  0  0  0  0  0  0  0
    0.7500    1.2990    0.0000 C   0  0  0  0  0  0  0  0  0  0  0  0
   -0.7500    1.2990    0.0000 C   0  0  0  0  0  0  0  0  0  0  0  0
   -1.5000    0.0000    0.0000 N   0  0  0  0  0  0  0  0  0  0  0  0
   -0.7500   -1.2990    0.0000 C   0  0  0  0  0  0  0  0  0  0  0  0
   -2.9520   -4.6564    0.0000 N   0  0  0  0  0  0  0  0  0  0  0  0
   -4.3786   -5.1199    0.0000 C   0  0  0  0  0  0  0  0  0  0  0  0
   -5.4933   -4.1162    0.0000 N   0  0  0  0  0  0  0  0  0  0  0  0
  1  2  1  0
  2  3  1  0
  2  4  1  0
  4  5  1  0
  5  6  2  0
  6  7  1  0
  7  8  1  0
  8  9  1  0
  9 10  1  0
  9 11  2  0
 11 12  1  0
 12 13  1  0
 13 14  2  0
 14 15  1  0
 15 16  2  0
 16 17  1  0
  7 18  2  0
 18 19  1  0
 19 20  2  0
 20  5  1  0
 17  8  2  0
 17 12  1  0
M  END
>  <Compound_ID>  (78) 
CHEMBL568790

>  <Active>  (78) 
1

>  <Smiles>  (78) 
CC(C)Nc1cc(-c2c(N)nn3cccnc23)ncn1

>  <canonical_smi>  (78) 
CC(C)Nc1cc(-c2c(N)nn3cccnc23)ncn1

>  <Set>  (78) 
G2 active

>  <Set_type>  (78) 
Train

>  <MW>  (78) 
269.31

>  <HBD>  (78) 
2

>  <HBA>  (78) 
6

>  <NRB>  (78) 
3

>  <NR>  (78) 
3

>  <NAR>  (78) 
3

>  <PSA>  (78) 
94.02

>  <Standard Type>  (78) 
nan

>  <Standard Relation>  (78) 
nan

>  <Standard Units>  (78) 
nan

>  <Standard Value>  (78) 
nan

>  <Assay ChEMBL ID>  (78) 
nan

>  <Assay Description>  (78) 
nan

>  <BAO Label>  (78) 
nan

$$$$

     RDKit          2D

 37 41  0  0  0  0  0  0  0  0999 V2000
   -0.7500   -6.4952    0.0000 C   0  0  0  0  0  0  0  0  0  0  0  0
    0.7500   -6.4952    0.0000 O   0  0  0  0  0  0  0  0  0  0  0  0
    1.5000   -5.1962    0.0000 C   0  0  0  0  0  0  0  0  0  0  0  0
    0.7500   -3.8971    0.0000 C   0  0  0  0  0  0  0  0  0  0  0  0
    1.5000   -2.5981    0.0000 C   0  0  0  0  0  0  0  0  0  0  0  0
    0.7500   -1.2990    0.0000 C   0  0  0  0  0  0  0  0  0  0  0  0
    1.5000    0.0000    0.0000 C   0  0  0  0  0  0  0  0  0  0  0  0
    0.7500    1.2990    0.0000 N   0  0  0  0  0  0  0  0  0  0  0  0
   -0.7500    1.2990    0.0000 C   0  0  0  0  0  0  0  0  0  0  0  0
   -1.5000    2.5981    0.0000 C   0  0  0  0  0  0  0  0  0  0  0  0
   -3.0000    2.5981    0.0000 C   0  0  0  0  0  0  0  0  0  0  0  0
   -3.7500    1.2990    0.0000 C   0  0  0  0  0  0  0  0  0  0  0  0
   -3.0000    0.0000    0.0000 C   0  0  0  0  0  0  0  0  0  0  0  0
   -3.7500   -1.2990    0.0000 C   0  0  0  0  0  0  0  0  0  0  0  0
   -5.2500   -1.2990    0.0000 C   0  0  0  0  0  0  0  0  0  0  0  0
   -6.0000   -2.5981    0.0000 C   0  0  0  0  0  0  0  0  0  0  0  0
   -5.2500   -3.8971    0.0000 C   0  0  0  0  0  0  0  0  0  0  0  0
   -6.0000   -5.1962    0.0000 C   0  0  0  0  0  0  0  0  0  0  0  0
   -5.2500   -6.4952    0.0000 O   0  0  0  0  0  0  0  0  0  0  0  0
   -7.5000   -5.1962    0.0000 N   0  0  0  0  0  0  0  0  0  0  0  0
   -8.2500   -3.8971    0.0000 C   0  0  0  0  0  0  0  0  0  0  0  0
   -9.7500   -3.8971    0.0000 C   0  0  0  0  0  0  0  0  0  0  0  0
  -10.5000   -5.1962    0.0000 O   0  0  0  0  0  0  0  0  0  0  0  0
   -9.7500   -6.4952    0.0000 C   0  0  0  0  0  0  0  0  0  0  0  0
   -8.2500   -6.4952    0.0000 C   0  0  0  0  0  0  0  0  0  0  0  0
   -3.7500   -3.8971    0.0000 C   0  0  0  0  0  0  0  0  0  0  0  0
   -3.0000   -5.1962    0.0000 C   0  0  0  0  0  0  0  0  0  0  0  0
   -3.0000   -2.5981    0.0000 C   0  0  0  0  0  0  0  0  0  0  0  0
   -1.5000    0.0000    0.0000 C   0  0  0  0  0  0  0  0  0  0  0  0
   -0.7500   -1.2990    0.0000 N   0  0  0  0  0  0  0  0  0  0  0  0
    3.0000   -2.5981    0.0000 C   0  0  0  0  0  0  0  0  0  0  0  0
    3.7500   -3.8971    0.0000 C   0  0  0  0  0  0  0  0  0  0  0  0
    5.2500   -3.8971    0.0000 O   0  0  0  0  0  0  0  0  0  0  0  0
    6.0000   -5.1962    0.0000 C   0  0  0  0  0  0  0  0  0  0  0  0
    3.0000   -5.1962    0.0000 C   0  0  0  0  0  0  0  0  0  0  0  0
    3.7500   -6.4952    0.0000 O   0  0  0  0  0  0  0  0  0  0  0  0
    3.0000   -7.7942    0.0000 C   0  0  0  0  0  0  0  0  0  0  0  0
  1  2  1  0
  2  3  1  0
  3  4  2  0
  4  5  1  0
  5  6  1  0
  6  7  2  0
  7  8  1  0
  8  9  2  0
  9 10  1  0
 10 11  2  0
 11 12  1  0
 12 13  2  0
 13 14  1  0
 14 15  2  0
 15 16  1  0
 16 17  2  0
 17 18  1  0
 18 19  2  0
 18 20  1  0
 20 21  1  0
 21 22  1  0
 22 23  1  0
 23 24  1  0
 24 25  1  0
 17 26  1  0
 26 27  1  0
 26 28  2  0
 13 29  1  0
 29 30  2  0
  5 31  2  0
 31 32  1  0
 32 33  1  0
 33 34  1  0
 32 35  2  0
 35 36  1  0
 36 37  1  0
 35  3  1  0
 30  6  1  0
 29  9  1  0
 28 14  1  0
 25 20  1  0
M  END
>  <Compound_ID>  (79) 
CHEMBL1088856

>  <Active>  (79) 
1

>  <Smiles>  (79) 
COc1cc(-c2cnc3cccc(-c4ccc(C(=O)N5CCOCC5)c(C)c4)c3n2)cc(OC)c1OC

>  <canonical_smi>  (79) 
COc1cc(-c2cnc3cccc(-c4ccc(C(=O)N5CCOCC5)c(C)c4)c3n2)cc(OC)c1OC

>  <Set>  (79) 
G2 active

>  <Set_type>  (79) 
Train

>  <MW>  (79) 
499.57

>  <HBD>  (79) 
0

>  <HBA>  (79) 
7

>  <NRB>  (79) 
6

>  <NR>  (79) 
5

>  <NAR>  (79) 
4

>  <PSA>  (79) 
83.01

>  <Standard Type>  (79) 
nan

>  <Standard Relation>  (79) 
nan

>  <Standard Units>  (79) 
nan

>  <Standard Value>  (79) 
nan

>  <Assay ChEMBL ID>  (79) 
nan

>  <Assay Description>  (79) 
nan

>  <BAO Label>  (79) 
nan

$$$$

     RDKit          2D

 24 27  0  0  0  0  0  0  0  0999 V2000
   -0.0000   -5.1073    0.0000 N   0  0  0  0  0  0  0  0  0  0  0  0
   -0.0000   -3.6073    0.0000 C   0  0  0  0  0  0  0  0  0  0  0  0
    1.2135   -2.7256    0.0000 N   0  0  0  0  0  0  0  0  0  0  0  0
    0.7500   -1.2990    0.0000 N   0  0  0  0  0  0  0  0  0  0  0  0
    1.5000    0.0000    0.0000 C   0  0  0  0  0  0  0  0  0  0  0  0
    0.7500    1.2990    0.0000 C   0  0  0  0  0  0  0  0  0  0  0  0
   -0.7500    1.2990    0.0000 C   0  0  0  0  0  0  0  0  0  0  0  0
   -1.5000    0.0000    0.0000 N   0  0  0  0  0  0  0  0  0  0  0  0
   -0.7500   -1.2990    0.0000 C   0  0  0  0  0  0  0  0  0  0  0  0
   -1.2135   -2.7256    0.0000 C   0  0  0  0  0  0  0  0  0  0  0  0
   -2.6401   -3.1891    0.0000 C   0  0  0  0  0  0  0  0  0  0  0  0
   -3.7548   -2.1855    0.0000 C   0  0  0  0  0  0  0  0  0  0  0  0
   -5.1814   -2.6490    0.0000 C   0  0  0  0  0  0  0  0  0  0  0  0
   -6.2961   -1.6453    0.0000 N   0  0  0  0  0  0  0  0  0  0  0  0
   -5.9843   -0.1781    0.0000 C   0  0  0  0  0  0  0  0  0  0  0  0
   -7.0990    0.8256    0.0000 C   0  0  0  0  0  0  0  0  0  0  0  0
   -6.7871    2.2929    0.0000 C   0  0  0  0  0  0  0  0  0  0  0  0
   -7.9018    3.2966    0.0000 C   0  0  0  0  0  0  0  0  0  0  0  0
   -9.3284    2.8330    0.0000 C   0  0  0  0  0  0  0  0  0  0  0  0
   -9.6403    1.3658    0.0000 C   0  0  0  0  0  0  0  0  0  0  0  0
   -8.5256    0.3621    0.0000 N   0  0  0  0  0  0  0  0  0  0  0  0
   -5.4933   -4.1162    0.0000 N   0  0  0  0  0  0  0  0  0  0  0  0
   -4.3786   -5.1199    0.0000 C   0  0  0  0  0  0  0  0  0  0  0  0
   -2.9520   -4.6564    0.0000 N   0  0  0  0  0  0  0  0  0  0  0  0
  1  2  1  0
  2  3  2  0
  3  4  1  0
  4  5  1  0
  5  6  2  0
  6  7  1  0
  7  8  2  0
  8  9  1  0
  9 10  2  0
 10 11  1  0
 11 12  2  0
 12 13  1  0
 13 14  1  0
 14 15  1  0
 15 16  1  0
 16 17  2  0
 17 18  1  0
 18 19  2  0
 19 20  1  0
 20 21  2  0
 13 22  2  0
 22 23  1  0
 23 24  2  0
 10  2  1  0
 24 11  1  0
  9  4  1  0
 21 16  1  0
M  END
>  <Compound_ID>  (80) 
CHEMBL576475

>  <Active>  (80) 
1

>  <Smiles>  (80) 
Nc1nn2cccnc2c1-c1cc(NCc2ccccn2)ncn1

>  <canonical_smi>  (80) 
Nc1nn2cccnc2c1-c1cc(NCc2ccccn2)ncn1

>  <Set>  (80) 
G2 active

>  <Set_type>  (80) 
Train

>  <MW>  (80) 
318.34

>  <HBD>  (80) 
2

>  <HBA>  (80) 
7

>  <NRB>  (80) 
4

>  <NR>  (80) 
4

>  <NAR>  (80) 
4

>  <PSA>  (80) 
106.91

>  <Standard Type>  (80) 
nan

>  <Standard Relation>  (80) 
nan

>  <Standard Units>  (80) 
nan

>  <Standard Value>  (80) 
nan

>  <Assay ChEMBL ID>  (80) 
nan

>  <Assay Description>  (80) 
nan

>  <BAO Label>  (80) 
nan

$$$$

     RDKit          2D

 31 35  0  0  0  0  0  0  0  0999 V2000
   -4.5577    0.2855    0.0000 C   0  0  0  0  0  0  0  0  0  0  0  0
   -5.9843   -0.1781    0.0000 C   0  0  0  0  0  0  0  0  0  0  0  0
   -6.2961   -1.6453    0.0000 N   0  0  0  0  0  0  0  0  0  0  0  0
   -5.1814   -2.6490    0.0000 C   0  0  0  0  0  0  0  0  0  0  0  0
   -5.4933   -4.1162    0.0000 C   0  0  0  0  0  0  0  0  0  0  0  0
   -4.3786   -5.1199    0.0000 C   0  0  0  0  0  0  0  0  0  0  0  0
   -4.6904   -6.5871    0.0000 C   0  0  0  0  0  0  0  0  0  0  0  0
   -3.6867   -7.7018    0.0000 C   0  0  0  0  0  0  0  0  0  0  0  0
   -4.4367   -9.0009    0.0000 C   0  0  0  0  0  0  0  0  0  0  0  0
   -5.9040   -8.6890    0.0000 O   0  0  0  0  0  0  0  0  0  0  0  0
   -6.0607   -7.1972    0.0000 C   0  0  0  0  0  0  0  0  0  0  0  0
   -2.9520   -4.6564    0.0000 N   0  0  0  0  0  0  0  0  0  0  0  0
   -2.6401   -3.1891    0.0000 C   0  0  0  0  0  0  0  0  0  0  0  0
   -1.2135   -2.7256    0.0000 N   0  0  0  0  0  0  0  0  0  0  0  0
   -0.0000   -3.6073    0.0000 C   0  0  0  0  0  0  0  0  0  0  0  0
    1.2135   -2.7256    0.0000 N   0  0  0  0  0  0  0  0  0  0  0  0
    0.7500   -1.2990    0.0000 C   0  0  0  0  0  0  0  0  0  0  0  0
    1.5000    0.0000    0.0000 C   0  0  0  0  0  0  0  0  0  0  0  0
    0.7500    1.2990    0.0000 C   0  0  0  0  0  0  0  0  0  0  0  0
   -0.7500    1.2990    0.0000 C   0  0  0  0  0  0  0  0  0  0  0  0
   -1.5000    2.5981    0.0000 C   0  0  0  0  0  0  0  0  0  0  0  0
   -2.2500    3.8971    0.0000 N   0  0  0  0  0  0  0  0  0  0  0  0
   -1.5000    0.0000    0.0000 C   0  0  0  0  0  0  0  0  0  0  0  0
   -0.7500   -1.2990    0.0000 C   0  0  0  0  0  0  0  0  0  0  0  0
   -3.7548   -2.1855    0.0000 N   0  0  0  0  0  0  0  0  0  0  0  0
   -7.0990    0.8256    0.0000 C   0  0  0  0  0  0  0  0  0  0  0  0
   -8.5256    0.3621    0.0000 C   0  0  0  0  0  0  0  0  0  0  0  0
   -9.6403    1.3658    0.0000 C   0  0  0  0  0  0  0  0  0  0  0  0
   -9.3284    2.8330    0.0000 C   0  0  0  0  0  0  0  0  0  0  0  0
   -7.9018    3.2966    0.0000 C   0  0  0  0  0  0  0  0  0  0  0  0
   -6.7871    2.2929    0.0000 C   0  0  0  0  0  0  0  0  0  0  0  0
  2  1  1  6
  2  3  1  0
  3  4  1  0
  4  5  2  0
  5  6  1  0
  6  7  1  0
  7  8  1  0
  8  9  2  0
  9 10  1  0
 10 11  1  0
  6 12  2  0
 12 13  1  0
 13 14  1  0
 14 15  1  0
 15 16  2  0
 16 17  1  0
 17 18  2  0
 18 19  1  0
 19 20  2  0
 20 21  1  0
 21 22  3  0
 20 23  1  0
 23 24  2  0
 13 25  2  0
  2 26  1  0
 26 27  2  0
 27 28  1  0
 28 29  2  0
 29 30  1  0
 30 31  2  0
 25  4  1  0
 31 26  1  0
 11  7  2  0
 24 14  1  0
 24 17  1  0
M  END
>  <Compound_ID>  (81) 
CHEMBL375205

>  <Active>  (81) 
1

>  <Smiles>  (81) 
C[C@H](Nc1cc(-c2ccoc2)nc(-n2cnc3ccc(C#N)cc32)n1)c1ccccc1

>  <canonical_smi>  (81) 
C[C@H](Nc1cc(-c2ccoc2)nc(-n2cnc3ccc(C#N)cc32)n1)c1ccccc1

>  <Set>  (81) 
G2 active

>  <Set_type>  (81) 
Train

>  <MW>  (81) 
406.45

>  <HBD>  (81) 
1

>  <HBA>  (81) 
6

>  <NRB>  (81) 
5

>  <NR>  (81) 
5

>  <NAR>  (81) 
5

>  <PSA>  (81) 
92.56

>  <Standard Type>  (81) 
nan

>  <Standard Relation>  (81) 
nan

>  <Standard Units>  (81) 
nan

>  <Standard Value>  (81) 
nan

>  <Assay ChEMBL ID>  (81) 
nan

>  <Assay Description>  (81) 
nan

>  <BAO Label>  (81) 
nan

$$$$

     RDKit          2D

 28 32  0  0  0  0  0  0  0  0999 V2000
   -3.7527    6.6955    0.0000 C   0  0  0  0  0  0  0  0  0  0  0  0
   -2.6380    5.6918    0.0000 C   0  0  0  0  0  0  0  0  0  0  0  0
   -2.9499    4.2246    0.0000 C   0  0  0  0  0  0  0  0  0  0  0  0
   -1.8351    3.2209    0.0000 C   0  0  0  0  0  0  0  0  0  0  0  0
   -0.4086    3.6844    0.0000 C   0  0  0  0  0  0  0  0  0  0  0  0
    0.7062    2.6807    0.0000 C   0  0  0  0  0  0  0  0  0  0  0  0
    0.3943    1.2135    0.0000 C   0  0  0  0  0  0  0  0  0  0  0  0
    1.2760    0.0000    0.0000 N   0  0  0  0  0  0  0  0  0  0  0  0
    0.3943   -1.2135    0.0000 C   0  0  0  0  0  0  0  0  0  0  0  0
   -1.0323   -0.7500    0.0000 C   0  0  0  0  0  0  0  0  0  0  0  0
   -1.0323    0.7500    0.0000 C   0  0  0  0  0  0  0  0  0  0  0  0
   -2.1470    1.7537    0.0000 C   0  0  0  0  0  0  0  0  0  0  0  0
   -4.3764    3.7611    0.0000 N   0  0  0  0  0  0  0  0  0  0  0  0
   -5.4912    4.7648    0.0000 C   0  0  0  0  0  0  0  0  0  0  0  0
   -6.9177    4.3013    0.0000 N   0  0  0  0  0  0  0  0  0  0  0  0
   -8.0325    5.3050    0.0000 C   0  0  0  0  0  0  0  0  0  0  0  0
   -7.7206    6.7722    0.0000 C   0  0  0  0  0  0  0  0  0  0  0  0
   -8.8353    7.7759    0.0000 C   0  0  0  0  0  0  0  0  0  0  0  0
  -10.2619    7.3123    0.0000 C   0  0  0  0  0  0  0  0  0  0  0  0
  -11.3766    8.3160    0.0000 N   0  0  0  0  0  0  0  0  0  0  0  0
  -11.0647    9.7833    0.0000 C   0  0  0  0  0  0  0  0  0  0  0  0
  -12.1795   10.7870    0.0000 C   0  0  0  0  0  0  0  0  0  0  0  0
  -13.6060   10.3234    0.0000 O   0  0  0  0  0  0  0  0  0  0  0  0
  -13.9179    8.8562    0.0000 C   0  0  0  0  0  0  0  0  0  0  0  0
  -12.8032    7.8525    0.0000 C   0  0  0  0  0  0  0  0  0  0  0  0
  -10.5738    5.8451    0.0000 C   0  0  0  0  0  0  0  0  0  0  0  0
   -9.4590    4.8414    0.0000 C   0  0  0  0  0  0  0  0  0  0  0  0
   -5.1793    6.2320    0.0000 N   0  0  0  0  0  0  0  0  0  0  0  0
  1  2  2  0
  2  3  1  0
  3  4  1  0
  4  5  2  0
  5  6  1  0
  6  7  2  0
  7  8  1  0
  8  9  1  0
  9 10  2  0
 10 11  1  0
 11 12  2  0
  3 13  2  0
 13 14  1  0
 14 15  1  0
 15 16  1  0
 16 17  2  0
 17 18  1  0
 18 19  2  0
 19 20  1  0
 20 21  1  0
 21 22  1  0
 22 23  1  0
 23 24  1  0
 24 25  1  0
 19 26  1  0
 26 27  2  0
 14 28  2  0
 28  1  1  0
 12  4  1  0
 27 16  1  0
 11  7  1  0
 25 20  1  0
M  END
>  <Compound_ID>  (82) 
CHEMBL1081138

>  <Active>  (82) 
1

>  <Smiles>  (82) 
c1cc(-c2ccc3[nH]ccc3c2)nc(Nc2ccc(N3CCOCC3)cc2)n1

>  <canonical_smi>  (82) 
c1cc(-c2ccc3[nH]ccc3c2)nc(Nc2ccc(N3CCOCC3)cc2)n1

>  <Set>  (82) 
G2 active

>  <Set_type>  (82) 
Train

>  <MW>  (82) 
371.44

>  <HBD>  (82) 
2

>  <HBA>  (82) 
5

>  <NRB>  (82) 
4

>  <NR>  (82) 
5

>  <NAR>  (82) 
4

>  <PSA>  (82) 
66.07

>  <Standard Type>  (82) 
nan

>  <Standard Relation>  (82) 
nan

>  <Standard Units>  (82) 
nan

>  <Standard Value>  (82) 
nan

>  <Assay ChEMBL ID>  (82) 
nan

>  <Assay Description>  (82) 
nan

>  <BAO Label>  (82) 
nan

$$$$

     RDKit          2D

 24 27  0  0  0  0  0  0  0  0999 V2000
   -0.0000   -5.1073    0.0000 N   0  0  0  0  0  0  0  0  0  0  0  0
   -0.0000   -3.6073    0.0000 C   0  0  0  0  0  0  0  0  0  0  0  0
    1.2135   -2.7256    0.0000 N   0  0  0  0  0  0  0  0  0  0  0  0
    0.7500   -1.2990    0.0000 N   0  0  0  0  0  0  0  0  0  0  0  0
    1.5000    0.0000    0.0000 C   0  0  0  0  0  0  0  0  0  0  0  0
    0.7500    1.2990    0.0000 C   0  0  0  0  0  0  0  0  0  0  0  0
   -0.7500    1.2990    0.0000 C   0  0  0  0  0  0  0  0  0  0  0  0
   -1.5000    0.0000    0.0000 N   0  0  0  0  0  0  0  0  0  0  0  0
   -0.7500   -1.2990    0.0000 C   0  0  0  0  0  0  0  0  0  0  0  0
   -1.2135   -2.7256    0.0000 C   0  0  0  0  0  0  0  0  0  0  0  0
   -2.6401   -3.1891    0.0000 C   0  0  0  0  0  0  0  0  0  0  0  0
   -3.7548   -2.1855    0.0000 C   0  0  0  0  0  0  0  0  0  0  0  0
   -5.1814   -2.6490    0.0000 C   0  0  0  0  0  0  0  0  0  0  0  0
   -6.2961   -1.6453    0.0000 N   0  0  0  0  0  0  0  0  0  0  0  0
   -5.9843   -0.1781    0.0000 C   0  0  0  0  0  0  0  0  0  0  0  0
   -7.0990    0.8256    0.0000 C   0  0  0  0  0  0  0  0  0  0  0  0
   -6.7871    2.2929    0.0000 C   0  0  0  0  0  0  0  0  0  0  0  0
   -7.9018    3.2966    0.0000 C   0  0  0  0  0  0  0  0  0  0  0  0
   -9.3284    2.8330    0.0000 C   0  0  0  0  0  0  0  0  0  0  0  0
   -9.6403    1.3658    0.0000 N   0  0  0  0  0  0  0  0  0  0  0  0
   -8.5256    0.3621    0.0000 C   0  0  0  0  0  0  0  0  0  0  0  0
   -5.4933   -4.1162    0.0000 N   0  0  0  0  0  0  0  0  0  0  0  0
   -4.3786   -5.1199    0.0000 C   0  0  0  0  0  0  0  0  0  0  0  0
   -2.9520   -4.6564    0.0000 N   0  0  0  0  0  0  0  0  0  0  0  0
  1  2  1  0
  2  3  2  0
  3  4  1  0
  4  5  1  0
  5  6  2  0
  6  7  1  0
  7  8  2  0
  8  9  1  0
  9 10  2  0
 10 11  1  0
 11 12  2  0
 12 13  1  0
 13 14  1  0
 14 15  1  0
 15 16  1  0
 16 17  2  0
 17 18  1  0
 18 19  2  0
 19 20  1  0
 20 21  2  0
 13 22  2  0
 22 23  1  0
 23 24  2  0
 10  2  1  0
 24 11  1  0
  9  4  1  0
 21 16  1  0
M  END
>  <Compound_ID>  (83) 
CHEMBL583030

>  <Active>  (83) 
1

>  <Smiles>  (83) 
Nc1nn2cccnc2c1-c1cc(NCc2cccnc2)ncn1

>  <canonical_smi>  (83) 
Nc1nn2cccnc2c1-c1cc(NCc2cccnc2)ncn1

>  <Set>  (83) 
G2 active

>  <Set_type>  (83) 
Train

>  <MW>  (83) 
318.34

>  <HBD>  (83) 
2

>  <HBA>  (83) 
7

>  <NRB>  (83) 
4

>  <NR>  (83) 
4

>  <NAR>  (83) 
4

>  <PSA>  (83) 
106.91

>  <Standard Type>  (83) 
nan

>  <Standard Relation>  (83) 
nan

>  <Standard Units>  (83) 
nan

>  <Standard Value>  (83) 
nan

>  <Assay ChEMBL ID>  (83) 
nan

>  <Assay Description>  (83) 
nan

>  <BAO Label>  (83) 
nan

$$$$

     RDKit          2D

 33 36  0  0  0  0  0  0  0  0999 V2000
    6.0000   -7.7942    0.0000 C   0  0  0  0  0  0  0  0  0  0  0  0
    4.5000   -7.7942    0.0000 N   0  0  0  0  0  0  0  0  0  0  0  0
    3.7500   -6.4952    0.0000 S   0  0  0  0  0  0  0  0  0  0  0  0
    2.4510   -7.2452    0.0000 O   0  0  0  0  0  0  0  0  0  0  0  0
    5.0490   -5.7452    0.0000 O   0  0  0  0  0  0  0  0  0  0  0  0
    3.0000   -5.1962    0.0000 C   0  0  0  0  0  0  0  0  0  0  0  0
    1.5000   -5.1962    0.0000 C   0  0  0  0  0  0  0  0  0  0  0  0
    0.7500   -3.8971    0.0000 C   0  0  0  0  0  0  0  0  0  0  0  0
    1.5000   -2.5981    0.0000 C   0  0  0  0  0  0  0  0  0  0  0  0
    0.7500   -1.2990    0.0000 C   0  0  0  0  0  0  0  0  0  0  0  0
    1.5000    0.0000    0.0000 C   0  0  0  0  0  0  0  0  0  0  0  0
    0.7500    1.2990    0.0000 C   0  0  0  0  0  0  0  0  0  0  0  0
   -0.7500    1.2990    0.0000 C   0  0  0  0  0  0  0  0  0  0  0  0
   -1.5000    0.0000    0.0000 C   0  0  0  0  0  0  0  0  0  0  0  0
   -3.0000    0.0000    0.0000 N   0  0  0  0  0  0  0  0  0  0  0  0
   -3.7500   -1.2990    0.0000 C   0  0  0  0  0  0  0  0  0  0  0  0
   -3.0000   -2.5981    0.0000 C   0  0  0  0  0  0  0  0  0  0  0  0
   -3.7500   -3.8971    0.0000 C   0  0  0  0  0  0  0  0  0  0  0  0
   -5.2500   -3.8971    0.0000 C   0  0  0  0  0  0  0  0  0  0  0  0
   -6.0000   -5.1962    0.0000 C   0  0  0  0  0  0  0  0  0  0  0  0
   -7.5000   -5.1962    0.0000 O   0  0  0  0  0  0  0  0  0  0  0  0
   -8.2500   -3.8971    0.0000 C   0  0  0  0  0  0  0  0  0  0  0  0
   -5.2500   -6.4952    0.0000 C   0  0  0  0  0  0  0  0  0  0  0  0
   -6.0000   -7.7942    0.0000 O   0  0  0  0  0  0  0  0  0  0  0  0
   -5.2500   -9.0933    0.0000 C   0  0  0  0  0  0  0  0  0  0  0  0
   -3.7500   -6.4952    0.0000 C   0  0  0  0  0  0  0  0  0  0  0  0
   -3.0000   -7.7942    0.0000 O   0  0  0  0  0  0  0  0  0  0  0  0
   -1.5000   -7.7942    0.0000 C   0  0  0  0  0  0  0  0  0  0  0  0
   -3.0000   -5.1962    0.0000 C   0  0  0  0  0  0  0  0  0  0  0  0
   -1.5000   -2.5981    0.0000 N   0  0  0  0  0  0  0  0  0  0  0  0
   -0.7500   -1.2990    0.0000 C   0  0  0  0  0  0  0  0  0  0  0  0
    3.0000   -2.5981    0.0000 C   0  0  0  0  0  0  0  0  0  0  0  0
    3.7500   -3.8971    0.0000 C   0  0  0  0  0  0  0  0  0  0  0  0
  1  2  1  0
  2  3  1  0
  3  4  2  0
  3  5  2  0
  3  6  1  0
  6  7  2  0
  7  8  1  0
  8  9  2  0
  9 10  1  0
 10 11  2  0
 11 12  1  0
 12 13  2  0
 13 14  1  0
 14 15  2  0
 15 16  1  0
 16 17  2  0
 17 18  1  0
 18 19  2  0
 19 20  1  0
 20 21  1  0
 21 22  1  0
 20 23  2  0
 23 24  1  0
 24 25  1  0
 23 26  1  0
 26 27  1  0
 27 28  1  0
 26 29  2  0
 17 30  1  0
 30 31  2  0
  9 32  1  0
 32 33  2  0
 33  6  1  0
 31 10  1  0
 31 14  1  0
 29 18  1  0
M  END
>  <Compound_ID>  (84) 
CHEMBL1093749

>  <Active>  (84) 
1

>  <Smiles>  (84) 
CNS(=O)(=O)c1ccc(-c2cccc3ncc(-c4cc(OC)c(OC)c(OC)c4)nc23)cc1

>  <canonical_smi>  (84) 
CNS(=O)(=O)c1ccc(-c2cccc3ncc(-c4cc(OC)c(OC)c(OC)c4)nc23)cc1

>  <Set>  (84) 
G2 active

>  <Set_type>  (84) 
Train

>  <MW>  (84) 
465.53

>  <HBD>  (84) 
1

>  <HBA>  (84) 
7

>  <NRB>  (84) 
7

>  <NR>  (84) 
4

>  <NAR>  (84) 
4

>  <PSA>  (84) 
99.64

>  <Standard Type>  (84) 
nan

>  <Standard Relation>  (84) 
nan

>  <Standard Units>  (84) 
nan

>  <Standard Value>  (84) 
nan

>  <Assay ChEMBL ID>  (84) 
nan

>  <Assay Description>  (84) 
nan

>  <BAO Label>  (84) 
nan

$$$$

     RDKit          2D

 39 44  0  0  0  0  0  0  0  0999 V2000
    3.7500   -1.2990    0.0000 C   0  0  0  0  0  0  0  0  0  0  0  0
    3.0000   -2.5981    0.0000 C   0  0  0  0  0  0  0  0  0  0  0  0
    1.5000   -2.5981    0.0000 N   0  0  0  0  0  0  0  0  0  0  0  0
    0.7500   -1.2990    0.0000 C   0  0  0  0  0  0  0  0  0  0  0  0
    1.5000    0.0000    0.0000 N   0  0  0  0  0  0  0  0  0  0  0  0
    0.7500    1.2990    0.0000 C   0  0  0  0  0  0  0  0  0  0  0  0
    1.5000    2.5981    0.0000 N   0  0  0  0  0  0  0  0  0  0  0  0
    0.8899    3.9684    0.0000 C   0  0  0  0  0  0  0  0  0  0  0  0
    2.0046    4.9721    0.0000 N   0  0  0  0  0  0  0  0  0  0  0  0
    3.3037    4.2221    0.0000 C   0  0  0  0  0  0  0  0  0  0  0  0
    4.7302    4.6856    0.0000 C   0  0  0  0  0  0  0  0  0  0  0  0
    5.8450    3.6819    0.0000 C   0  0  0  0  0  0  0  0  0  0  0  0
    5.5331    2.2147    0.0000 N   0  0  0  0  0  0  0  0  0  0  0  0
    4.1065    1.7512    0.0000 C   0  0  0  0  0  0  0  0  0  0  0  0
    2.9918    2.7549    0.0000 C   0  0  0  0  0  0  0  0  0  0  0  0
   -0.7500    1.2990    0.0000 N   0  0  0  0  0  0  0  0  0  0  0  0
   -1.5000    0.0000    0.0000 C   0  0  0  0  0  0  0  0  0  0  0  0
   -0.7500   -1.2990    0.0000 C   0  0  0  0  0  0  0  0  0  0  0  0
   -1.7537   -2.4138    0.0000 C   0  0  0  0  0  0  0  0  0  0  0  0
   -3.1240   -1.8037    0.0000 C   0  0  0  0  0  0  0  0  0  0  0  0
   -4.4231   -2.5537    0.0000 C   0  0  0  0  0  0  0  0  0  0  0  0
   -4.4231   -4.0537    0.0000 O   0  0  0  0  0  0  0  0  0  0  0  0
   -5.7221   -1.8037    0.0000 N   0  0  0  0  0  0  0  0  0  0  0  0
   -7.0211   -2.5537    0.0000 C   0  0  0  0  0  0  0  0  0  0  0  0
   -8.3202   -1.8037    0.0000 C   0  0  0  0  0  0  0  0  0  0  0  0
   -9.6192   -2.5537    0.0000 C   0  0  0  0  0  0  0  0  0  0  0  0
  -10.9182   -1.8037    0.0000 N   0  0  0  0  0  0  0  0  0  0  0  0
  -12.2886   -2.4138    0.0000 C   0  0  0  0  0  0  0  0  0  0  0  0
  -13.2923   -1.2990    0.0000 C   0  0  0  0  0  0  0  0  0  0  0  0
  -12.5423    0.0000    0.0000 N   0  0  0  0  0  0  0  0  0  0  0  0
  -11.0750   -0.3119    0.0000 C   0  0  0  0  0  0  0  0  0  0  0  0
   -2.9672   -0.3119    0.0000 N   0  0  0  0  0  0  0  0  0  0  0  0
   -4.0819    0.6918    0.0000 C   0  0  0  0  0  0  0  0  0  0  0  0
    3.7500   -3.8971    0.0000 C   0  0  0  0  0  0  0  0  0  0  0  0
    5.2500   -3.8971    0.0000 C   0  0  0  0  0  0  0  0  0  0  0  0
    6.0000   -5.1962    0.0000 C   0  0  0  0  0  0  0  0  0  0  0  0
    5.2500   -6.4952    0.0000 C   0  0  0  0  0  0  0  0  0  0  0  0
    3.7500   -6.4952    0.0000 C   0  0  0  0  0  0  0  0  0  0  0  0
    3.0000   -5.1962    0.0000 C   0  0  0  0  0  0  0  0  0  0  0  0
  2  1  1  1
  2  3  1  0
  3  4  1  0
  4  5  2  0
  5  6  1  0
  6  7  1  0
  7  8  1  0
  8  9  2  0
  9 10  1  0
 10 11  2  0
 11 12  1  0
 12 13  2  0
 13 14  1  0
 14 15  2  0
  6 16  2  0
 16 17  1  0
 17 18  2  0
 18 19  1  0
 19 20  2  0
 20 21  1  0
 21 22  2  0
 21 23  1  0
 23 24  1  0
 24 25  1  0
 25 26  1  0
 26 27  1  0
 27 28  1  0
 28 29  2  0
 29 30  1  0
 30 31  2  0
 20 32  1  0
 32 33  1  0
  2 34  1  0
 34 35  2  0
 35 36  1  0
 36 37  2  0
 37 38  1  0
 38 39  2  0
 18  4  1  0
 31 27  1  0
 39 34  1  0
 15  7  1  0
 32 17  1  0
 15 10  1  0
M  END
>  <Compound_ID>  (85) 
CHEMBL231733

>  <Active>  (85) 
1

>  <Smiles>  (85) 
C[C@H](Nc1nc(-n2cnc3ccncc32)nc2c1cc(C(=O)NCCCn1ccnc1)n2C)c1ccccc1

>  <canonical_smi>  (85) 
C[C@H](Nc1nc(-n2cnc3ccncc32)nc2c1cc(C(=O)NCCCn1ccnc1)n2C)c1ccccc1

>  <Set>  (85) 
G2 active

>  <Set_type>  (85) 
Train

>  <MW>  (85) 
520.6

>  <HBD>  (85) 
2

>  <HBA>  (85) 
7

>  <NRB>  (85) 
9

>  <NR>  (85) 
6

>  <NAR>  (85) 
6

>  <PSA>  (85) 
120.37

>  <Standard Type>  (85) 
nan

>  <Standard Relation>  (85) 
nan

>  <Standard Units>  (85) 
nan

>  <Standard Value>  (85) 
nan

>  <Assay ChEMBL ID>  (85) 
nan

>  <Assay Description>  (85) 
nan

>  <BAO Label>  (85) 
nan

$$$$

     RDKit          2D

 30 34  0  0  0  0  0  0  0  0999 V2000
   -4.5577    0.2855    0.0000 C   0  0  0  0  0  0  0  0  0  0  0  0
   -5.9843   -0.1781    0.0000 C   0  0  0  0  0  0  0  0  0  0  0  0
   -6.2961   -1.6453    0.0000 N   0  0  0  0  0  0  0  0  0  0  0  0
   -5.1814   -2.6490    0.0000 C   0  0  0  0  0  0  0  0  0  0  0  0
   -5.4933   -4.1162    0.0000 C   0  0  0  0  0  0  0  0  0  0  0  0
   -4.3786   -5.1199    0.0000 C   0  0  0  0  0  0  0  0  0  0  0  0
   -4.6904   -6.5871    0.0000 N   0  0  0  0  0  0  0  0  0  0  0  0
   -3.6867   -7.7018    0.0000 C   0  0  0  0  0  0  0  0  0  0  0  0
   -4.4367   -9.0009    0.0000 C   0  0  0  0  0  0  0  0  0  0  0  0
   -5.9040   -8.6890    0.0000 C   0  0  0  0  0  0  0  0  0  0  0  0
   -7.0187   -9.6927    0.0000 O   0  0  0  0  0  0  0  0  0  0  0  0
   -6.0607   -7.1972    0.0000 C   0  0  0  0  0  0  0  0  0  0  0  0
   -2.9520   -4.6564    0.0000 N   0  0  0  0  0  0  0  0  0  0  0  0
   -2.6401   -3.1891    0.0000 C   0  0  0  0  0  0  0  0  0  0  0  0
   -1.2135   -2.7256    0.0000 N   0  0  0  0  0  0  0  0  0  0  0  0
   -0.0000   -3.6073    0.0000 C   0  0  0  0  0  0  0  0  0  0  0  0
    1.2135   -2.7256    0.0000 N   0  0  0  0  0  0  0  0  0  0  0  0
    0.7500   -1.2990    0.0000 C   0  0  0  0  0  0  0  0  0  0  0  0
    1.5000    0.0000    0.0000 C   0  0  0  0  0  0  0  0  0  0  0  0
    0.7500    1.2990    0.0000 C   0  0  0  0  0  0  0  0  0  0  0  0
   -0.7500    1.2990    0.0000 N   0  0  0  0  0  0  0  0  0  0  0  0
   -1.5000    0.0000    0.0000 C   0  0  0  0  0  0  0  0  0  0  0  0
   -0.7500   -1.2990    0.0000 C   0  0  0  0  0  0  0  0  0  0  0  0
   -3.7548   -2.1855    0.0000 N   0  0  0  0  0  0  0  0  0  0  0  0
   -7.0990    0.8256    0.0000 C   0  0  0  0  0  0  0  0  0  0  0  0
   -8.5256    0.3621    0.0000 C   0  0  0  0  0  0  0  0  0  0  0  0
   -9.6403    1.3658    0.0000 C   0  0  0  0  0  0  0  0  0  0  0  0
   -9.3284    2.8330    0.0000 C   0  0  0  0  0  0  0  0  0  0  0  0
   -7.9018    3.2966    0.0000 C   0  0  0  0  0  0  0  0  0  0  0  0
   -6.7871    2.2929    0.0000 C   0  0  0  0  0  0  0  0  0  0  0  0
  2  1  1  6
  2  3  1  0
  3  4  1  0
  4  5  2  0
  5  6  1  0
  6  7  1  0
  7  8  1  0
  8  9  1  0
  9 10  1  0
 10 11  1  1
 10 12  1  0
  6 13  2  0
 13 14  1  0
 14 15  1  0
 15 16  1  0
 16 17  2  0
 17 18  1  0
 18 19  2  0
 19 20  1  0
 20 21  2  0
 21 22  1  0
 22 23  2  0
 14 24  2  0
  2 25  1  0
 25 26  2  0
 26 27  1  0
 27 28  2  0
 28 29  1  0
 29 30  2  0
 24  4  1  0
 30 25  1  0
 12  7  1  0
 23 15  1  0
 23 18  1  0
M  END
>  <Compound_ID>  (86) 
CHEMBL221037

>  <Active>  (86) 
1

>  <Smiles>  (86) 
C[C@H](Nc1cc(N2CC[C@@H](O)C2)nc(-n2cnc3ccncc32)n1)c1ccccc1

>  <canonical_smi>  (86) 
C[C@H](Nc1cc(N2CC[C@@H](O)C2)nc(-n2cnc3ccncc32)n1)c1ccccc1

>  <Set>  (86) 
G2 active

>  <Set_type>  (86) 
Train

>  <MW>  (86) 
401.47

>  <HBD>  (86) 
2

>  <HBA>  (86) 
7

>  <NRB>  (86) 
5

>  <NR>  (86) 
5

>  <NAR>  (86) 
4

>  <PSA>  (86) 
91.99

>  <Standard Type>  (86) 
nan

>  <Standard Relation>  (86) 
nan

>  <Standard Units>  (86) 
nan

>  <Standard Value>  (86) 
nan

>  <Assay ChEMBL ID>  (86) 
nan

>  <Assay Description>  (86) 
nan

>  <BAO Label>  (86) 
nan

$$$$

     RDKit          2D

 31 34  0  0  0  0  0  0  0  0999 V2000
    6.7500   -3.8971    0.0000 N   0  0  0  0  0  0  0  0  0  0  0  0
    6.0000   -2.5981    0.0000 C   0  0  0  0  0  0  0  0  0  0  0  0
    5.2500   -1.2990    0.0000 C   0  0  0  0  0  0  0  0  0  0  0  0
    3.7500   -1.2990    0.0000 N   0  0  0  0  0  0  0  0  0  0  0  0
    3.0000    0.0000    0.0000 C   0  0  0  0  0  0  0  0  0  0  0  0
    3.7500    1.2990    0.0000 O   0  0  0  0  0  0  0  0  0  0  0  0
    1.5000    0.0000    0.0000 C   0  0  0  0  0  0  0  0  0  0  0  0
    0.7500   -1.2990    0.0000 C   0  0  0  0  0  0  0  0  0  0  0  0
   -0.7500   -1.2990    0.0000 C   0  0  0  0  0  0  0  0  0  0  0  0
   -1.5000    0.0000    0.0000 C   0  0  0  0  0  0  0  0  0  0  0  0
   -3.0000    0.0000    0.0000 C   0  0  0  0  0  0  0  0  0  0  0  0
   -3.7500    1.2990    0.0000 C   0  0  0  0  0  0  0  0  0  0  0  0
   -5.2500    1.2990    0.0000 C   0  0  0  0  0  0  0  0  0  0  0  0
   -6.0000    0.0000    0.0000 N   0  0  0  0  0  0  0  0  0  0  0  0
   -5.2500   -1.2990    0.0000 C   0  0  0  0  0  0  0  0  0  0  0  0
   -6.0000   -2.5981    0.0000 N   0  0  0  0  0  0  0  0  0  0  0  0
   -7.5000   -2.5981    0.0000 C   0  0  0  0  0  0  0  0  0  0  0  0
   -8.2500   -1.2990    0.0000 C   0  0  0  0  0  0  0  0  0  0  0  0
   -9.7500   -1.2990    0.0000 C   0  0  0  0  0  0  0  0  0  0  0  0
  -10.5000   -2.5981    0.0000 C   0  0  0  0  0  0  0  0  0  0  0  0
  -12.0000   -2.5981    0.0000 N   0  0  0  0  0  0  0  0  0  0  0  0
  -12.7500   -1.2990    0.0000 C   0  0  0  0  0  0  0  0  0  0  0  0
  -14.2500   -1.2990    0.0000 C   0  0  0  0  0  0  0  0  0  0  0  0
  -15.0000   -2.5981    0.0000 S   0  0  0  0  0  0  0  0  0  0  0  0
  -14.2500   -3.8971    0.0000 C   0  0  0  0  0  0  0  0  0  0  0  0
  -12.7500   -3.8971    0.0000 C   0  0  0  0  0  0  0  0  0  0  0  0
   -9.7500   -3.8971    0.0000 C   0  0  0  0  0  0  0  0  0  0  0  0
   -8.2500   -3.8971    0.0000 C   0  0  0  0  0  0  0  0  0  0  0  0
   -3.7500   -1.2990    0.0000 N   0  0  0  0  0  0  0  0  0  0  0  0
   -0.7500    1.2990    0.0000 C   0  0  0  0  0  0  0  0  0  0  0  0
    0.7500    1.2990    0.0000 C   0  0  0  0  0  0  0  0  0  0  0  0
  1  2  3  0
  2  3  1  0
  3  4  1  0
  4  5  1  0
  5  6  2  0
  5  7  1  0
  7  8  2  0
  8  9  1  0
  9 10  2  0
 10 11  1  0
 11 12  2  0
 12 13  1  0
 13 14  2  0
 14 15  1  0
 15 16  1  0
 16 17  1  0
 17 18  2  0
 18 19  1  0
 19 20  2  0
 20 21  1  0
 21 22  1  0
 22 23  1  0
 23 24  1  0
 24 25  1  0
 25 26  1  0
 20 27  1  0
 27 28  2  0
 15 29  2  0
 10 30  1  0
 30 31  2  0
 31  7  1  0
 29 11  1  0
 28 17  1  0
 26 21  1  0
M  END
>  <Compound_ID>  (87) 
CHEMBL1077841

>  <Active>  (87) 
1

>  <Smiles>  (87) 
N#CCNC(=O)c1ccc(-c2ccnc(Nc3ccc(N4CCSCC4)cc3)n2)cc1

>  <canonical_smi>  (87) 
N#CCNC(=O)c1ccc(-c2ccnc(Nc3ccc(N4CCSCC4)cc3)n2)cc1

>  <Set>  (87) 
G2 active

>  <Set_type>  (87) 
Train

>  <MW>  (87) 
430.54

>  <HBD>  (87) 
2

>  <HBA>  (87) 
7

>  <NRB>  (87) 
6

>  <NR>  (87) 
4

>  <NAR>  (87) 
3

>  <PSA>  (87) 
93.94

>  <Standard Type>  (87) 
nan

>  <Standard Relation>  (87) 
nan

>  <Standard Units>  (87) 
nan

>  <Standard Value>  (87) 
nan

>  <Assay ChEMBL ID>  (87) 
nan

>  <Assay Description>  (87) 
nan

>  <BAO Label>  (87) 
nan

$$$$

     RDKit          2D

 32 36  0  0  0  0  0  0  0  0999 V2000
   -1.7455   -2.9392    0.0000 C   0  0  0  0  0  0  0  0  0  0  0  0
   -0.7418   -4.0539    0.0000 C   0  0  0  0  0  0  0  0  0  0  0  0
   -1.0537   -5.5211    0.0000 N   0  0  0  0  0  0  0  0  0  0  0  0
    0.2454   -6.2711    0.0000 C   0  0  0  0  0  0  0  0  0  0  0  0
    1.3601   -5.2674    0.0000 C   0  0  0  0  0  0  0  0  0  0  0  0
    0.7500   -3.8971    0.0000 N   0  0  0  0  0  0  0  0  0  0  0  0
    1.5000   -2.5981    0.0000 C   0  0  0  0  0  0  0  0  0  0  0  0
    0.7500   -1.2990    0.0000 C   0  0  0  0  0  0  0  0  0  0  0  0
    1.5000    0.0000    0.0000 C   0  0  0  0  0  0  0  0  0  0  0  0
    0.7500    1.2990    0.0000 C   0  0  0  0  0  0  0  0  0  0  0  0
   -0.7500    1.2990    0.0000 C   0  0  0  0  0  0  0  0  0  0  0  0
   -1.5000    2.5981    0.0000 C   0  0  0  0  0  0  0  0  0  0  0  0
   -0.7500    3.8971    0.0000 C   0  0  0  0  0  0  0  0  0  0  0  0
   -1.5000    5.1962    0.0000 C   0  0  0  0  0  0  0  0  0  0  0  0
   -3.0000    5.1962    0.0000 N   0  0  0  0  0  0  0  0  0  0  0  0
   -3.7500    3.8971    0.0000 C   0  0  0  0  0  0  0  0  0  0  0  0
   -5.2500    3.8971    0.0000 N   0  0  0  0  0  0  0  0  0  0  0  0
   -6.0000    5.1962    0.0000 C   0  0  0  0  0  0  0  0  0  0  0  0
   -5.2500    6.4952    0.0000 C   0  0  0  0  0  0  0  0  0  0  0  0
   -6.0000    7.7942    0.0000 C   0  0  0  0  0  0  0  0  0  0  0  0
   -7.5000    7.7942    0.0000 C   0  0  0  0  0  0  0  0  0  0  0  0
   -8.2500    9.0933    0.0000 N   0  0  0  0  0  0  0  0  0  0  0  0
   -7.5000   10.3923    0.0000 C   0  0  0  0  0  0  0  0  0  0  0  0
   -8.2500   11.6913    0.0000 C   0  0  0  0  0  0  0  0  0  0  0  0
   -9.7500   11.6913    0.0000 O   0  0  0  0  0  0  0  0  0  0  0  0
  -10.5000   10.3923    0.0000 C   0  0  0  0  0  0  0  0  0  0  0  0
   -9.7500    9.0933    0.0000 C   0  0  0  0  0  0  0  0  0  0  0  0
   -8.2500    6.4952    0.0000 C   0  0  0  0  0  0  0  0  0  0  0  0
   -7.5000    5.1962    0.0000 C   0  0  0  0  0  0  0  0  0  0  0  0
   -3.0000    2.5981    0.0000 N   0  0  0  0  0  0  0  0  0  0  0  0
   -1.5000    0.0000    0.0000 C   0  0  0  0  0  0  0  0  0  0  0  0
   -0.7500   -1.2990    0.0000 C   0  0  0  0  0  0  0  0  0  0  0  0
  1  2  1  0
  2  3  2  0
  3  4  1  0
  4  5  2  0
  5  6  1  0
  6  7  1  0
  7  8  1  0
  8  9  2  0
  9 10  1  0
 10 11  2  0
 11 12  1  0
 12 13  2  0
 13 14  1  0
 14 15  2  0
 15 16  1  0
 16 17  1  0
 17 18  1  0
 18 19  2  0
 19 20  1  0
 20 21  2  0
 21 22  1  0
 22 23  1  0
 23 24  1  0
 24 25  1  0
 25 26  1  0
 26 27  1  0
 21 28  1  0
 28 29  2  0
 16 30  2  0
 11 31  1  0
 31 32  2  0
  6  2  1  0
 32  8  1  0
 30 12  1  0
 29 18  1  0
 27 22  1  0
M  END
>  <Compound_ID>  (88) 
CHEMBL1080955

>  <Active>  (88) 
1

>  <Smiles>  (88) 
Cc1nccn1Cc1ccc(-c2ccnc(Nc3ccc(N4CCOCC4)cc3)n2)cc1

>  <canonical_smi>  (88) 
Cc1nccn1Cc1ccc(-c2ccnc(Nc3ccc(N4CCOCC4)cc3)n2)cc1

>  <Set>  (88) 
G2 active

>  <Set_type>  (88) 
Train

>  <MW>  (88) 
426.52

>  <HBD>  (88) 
1

>  <HBA>  (88) 
6

>  <NRB>  (88) 
6

>  <NR>  (88) 
5

>  <NAR>  (88) 
4

>  <PSA>  (88) 
68.1

>  <Standard Type>  (88) 
nan

>  <Standard Relation>  (88) 
nan

>  <Standard Units>  (88) 
nan

>  <Standard Value>  (88) 
nan

>  <Assay ChEMBL ID>  (88) 
nan

>  <Assay Description>  (88) 
nan

>  <BAO Label>  (88) 
nan

$$$$

     RDKit          2D

 25 28  0  0  0  0  0  0  0  0999 V2000
   -9.5600  -10.2329    0.0000 C   0  0  0  0  0  0  0  0  0  0  0  0
   -8.4453   -9.2292    0.0000 O   0  0  0  0  0  0  0  0  0  0  0  0
   -7.0187   -9.6927    0.0000 C   0  0  0  0  0  0  0  0  0  0  0  0
   -6.7068  -11.1599    0.0000 O   0  0  0  0  0  0  0  0  0  0  0  0
   -5.9040   -8.6890    0.0000 C   0  0  0  0  0  0  0  0  0  0  0  0
   -4.4367   -9.0009    0.0000 C   0  0  0  0  0  0  0  0  0  0  0  0
   -3.6867   -7.7018    0.0000 C   0  0  0  0  0  0  0  0  0  0  0  0
   -4.6904   -6.5871    0.0000 N   0  0  0  0  0  0  0  0  0  0  0  0
   -4.3786   -5.1199    0.0000 C   0  0  0  0  0  0  0  0  0  0  0  0
   -2.9520   -4.6564    0.0000 C   0  0  0  0  0  0  0  0  0  0  0  0
   -2.6401   -3.1891    0.0000 C   0  0  0  0  0  0  0  0  0  0  0  0
   -1.2135   -2.7256    0.0000 C   0  0  0  0  0  0  0  0  0  0  0  0
   -0.0000   -3.6073    0.0000 C   0  0  0  0  0  0  0  0  0  0  0  0
    0.0000   -5.1073    0.0000 N   0  0  0  0  0  0  0  0  0  0  0  0
    1.2135   -2.7256    0.0000 N   0  0  0  0  0  0  0  0  0  0  0  0
    0.7500   -1.2990    0.0000 N   0  0  0  0  0  0  0  0  0  0  0  0
    1.5000    0.0000    0.0000 C   0  0  0  0  0  0  0  0  0  0  0  0
    0.7500    1.2990    0.0000 C   0  0  0  0  0  0  0  0  0  0  0  0
   -0.7500    1.2990    0.0000 C   0  0  0  0  0  0  0  0  0  0  0  0
   -1.5000    0.0000    0.0000 N   0  0  0  0  0  0  0  0  0  0  0  0
   -0.7500   -1.2990    0.0000 C   0  0  0  0  0  0  0  0  0  0  0  0
   -3.7548   -2.1855    0.0000 N   0  0  0  0  0  0  0  0  0  0  0  0
   -5.1814   -2.6490    0.0000 C   0  0  0  0  0  0  0  0  0  0  0  0
   -5.4933   -4.1162    0.0000 N   0  0  0  0  0  0  0  0  0  0  0  0
   -6.0607   -7.1972    0.0000 C   0  0  0  0  0  0  0  0  0  0  0  0
  1  2  1  0
  2  3  1  0
  3  4  2  0
  3  5  1  0
  5  6  1  0
  6  7  1  0
  7  8  1  0
  8  9  1  0
  9 10  2  0
 10 11  1  0
 11 12  1  0
 12 13  1  0
 13 14  1  0
 13 15  2  0
 15 16  1  0
 16 17  1  0
 17 18  2  0
 18 19  1  0
 19 20  2  0
 20 21  1  0
 11 22  2  0
 22 23  1  0
 23 24  2  0
  8 25  1  0
 25  5  1  0
 24  9  1  0
 21 12  2  0
 21 16  1  0
M  END
>  <Compound_ID>  (89) 
CHEMBL571118

>  <Active>  (89) 
1

>  <Smiles>  (89) 
COC(=O)C1CCN(c2cc(-c3c(N)nn4cccnc34)ncn2)C1

>  <canonical_smi>  (89) 
COC(=O)C1CCN(c2cc(-c3c(N)nn4cccnc34)ncn2)C1

>  <Set>  (89) 
G2 active

>  <Set_type>  (89) 
Train

>  <MW>  (89) 
339.36

>  <HBD>  (89) 
1

>  <HBA>  (89) 
8

>  <NRB>  (89) 
3

>  <NR>  (89) 
4

>  <NAR>  (89) 
3

>  <PSA>  (89) 
111.53

>  <Standard Type>  (89) 
nan

>  <Standard Relation>  (89) 
nan

>  <Standard Units>  (89) 
nan

>  <Standard Value>  (89) 
nan

>  <Assay ChEMBL ID>  (89) 
nan

>  <Assay Description>  (89) 
nan

>  <BAO Label>  (89) 
nan

$$$$

     RDKit          2D

 28 31  0  0  0  0  0  0  0  0999 V2000
   -5.1962   -3.6073    0.0000 C   0  0  0  0  0  0  0  0  0  0  0  0
   -5.1962   -5.1073    0.0000 O   0  0  0  0  0  0  0  0  0  0  0  0
   -3.8971   -5.8573    0.0000 C   0  0  0  0  0  0  0  0  0  0  0  0
   -2.5981   -5.1073    0.0000 C   0  0  0  0  0  0  0  0  0  0  0  0
   -1.2990   -5.8573    0.0000 C   0  0  0  0  0  0  0  0  0  0  0  0
   -0.0000   -5.1073    0.0000 N   0  0  0  0  0  0  0  0  0  0  0  0
   -0.0000   -3.6073    0.0000 C   0  0  0  0  0  0  0  0  0  0  0  0
    1.2135   -2.7256    0.0000 N   0  0  0  0  0  0  0  0  0  0  0  0
    0.7500   -1.2990    0.0000 C   0  0  0  0  0  0  0  0  0  0  0  0
    1.5000    0.0000    0.0000 C   0  0  0  0  0  0  0  0  0  0  0  0
    0.7500    1.2990    0.0000 C   0  0  0  0  0  0  0  0  0  0  0  0
   -0.7500    1.2990    0.0000 C   0  0  0  0  0  0  0  0  0  0  0  0
   -1.5000    0.0000    0.0000 C   0  0  0  0  0  0  0  0  0  0  0  0
   -3.0000    0.0000    0.0000 C   0  0  0  0  0  0  0  0  0  0  0  0
   -3.7500    1.2990    0.0000 C   0  0  0  0  0  0  0  0  0  0  0  0
   -5.2500    1.2990    0.0000 C   0  0  0  0  0  0  0  0  0  0  0  0
   -6.0000    0.0000    0.0000 C   0  0  0  0  0  0  0  0  0  0  0  0
   -5.2500   -1.2990    0.0000 C   0  0  0  0  0  0  0  0  0  0  0  0
   -3.7500   -1.2990    0.0000 N   0  0  0  0  0  0  0  0  0  0  0  0
   -0.7500   -1.2990    0.0000 C   0  0  0  0  0  0  0  0  0  0  0  0
   -1.2135   -2.7256    0.0000 O   0  0  0  0  0  0  0  0  0  0  0  0
   -1.2990   -7.3573    0.0000 C   0  0  0  0  0  0  0  0  0  0  0  0
   -2.5981   -8.1073    0.0000 C   0  0  0  0  0  0  0  0  0  0  0  0
   -2.5981   -9.6073    0.0000 O   0  0  0  0  0  0  0  0  0  0  0  0
   -3.8971  -10.3573    0.0000 C   0  0  0  0  0  0  0  0  0  0  0  0
   -3.8971   -7.3573    0.0000 C   0  0  0  0  0  0  0  0  0  0  0  0
   -5.1962   -8.1073    0.0000 O   0  0  0  0  0  0  0  0  0  0  0  0
   -6.4952   -7.3573    0.0000 C   0  0  0  0  0  0  0  0  0  0  0  0
  1  2  1  0
  2  3  1  0
  3  4  2  0
  4  5  1  0
  5  6  1  0
  6  7  1  0
  7  8  2  0
  8  9  1  0
  9 10  2  0
 10 11  1  0
 11 12  2  0
 12 13  1  0
 13 14  1  0
 14 15  2  0
 15 16  1  0
 16 17  2  0
 17 18  1  0
 18 19  2  0
 13 20  2  0
 20 21  1  0
  5 22  2  0
 22 23  1  0
 23 24  1  0
 24 25  1  0
 23 26  2  0
 26 27  1  0
 27 28  1  0
 26  3  1  0
 21  7  1  0
 20  9  1  0
 19 14  1  0
M  END
>  <Compound_ID>  (90) 
CHEMBL1081443

>  <Active>  (90) 
1

>  <Smiles>  (90) 
COc1cc(Nc2nc3cccc(-c4ccccn4)c3o2)cc(OC)c1OC

>  <canonical_smi>  (90) 
COc1cc(Nc2nc3cccc(-c4ccccn4)c3o2)cc(OC)c1OC

>  <Set>  (90) 
G2 active

>  <Set_type>  (90) 
Train

>  <MW>  (90) 
377.4

>  <HBD>  (90) 
1

>  <HBA>  (90) 
7

>  <NRB>  (90) 
6

>  <NR>  (90) 
4

>  <NAR>  (90) 
4

>  <PSA>  (90) 
78.64

>  <Standard Type>  (90) 
nan

>  <Standard Relation>  (90) 
nan

>  <Standard Units>  (90) 
nan

>  <Standard Value>  (90) 
nan

>  <Assay ChEMBL ID>  (90) 
nan

>  <Assay Description>  (90) 
nan

>  <BAO Label>  (90) 
nan

$$$$

     RDKit          2D

 31 34  0  0  0  0  0  0  0  0999 V2000
    6.7500   -3.8971    0.0000 N   0  0  0  0  0  0  0  0  0  0  0  0
    6.0000   -2.5981    0.0000 C   0  0  0  0  0  0  0  0  0  0  0  0
    5.2500   -1.2990    0.0000 C   0  0  0  0  0  0  0  0  0  0  0  0
    3.7500   -1.2990    0.0000 N   0  0  0  0  0  0  0  0  0  0  0  0
    3.0000    0.0000    0.0000 C   0  0  0  0  0  0  0  0  0  0  0  0
    3.7500    1.2990    0.0000 O   0  0  0  0  0  0  0  0  0  0  0  0
    1.5000    0.0000    0.0000 C   0  0  0  0  0  0  0  0  0  0  0  0
    0.7500   -1.2990    0.0000 C   0  0  0  0  0  0  0  0  0  0  0  0
   -0.7500   -1.2990    0.0000 C   0  0  0  0  0  0  0  0  0  0  0  0
   -1.5000    0.0000    0.0000 C   0  0  0  0  0  0  0  0  0  0  0  0
   -3.0000    0.0000    0.0000 C   0  0  0  0  0  0  0  0  0  0  0  0
   -3.7500    1.2990    0.0000 C   0  0  0  0  0  0  0  0  0  0  0  0
   -5.2500    1.2990    0.0000 C   0  0  0  0  0  0  0  0  0  0  0  0
   -6.0000    0.0000    0.0000 N   0  0  0  0  0  0  0  0  0  0  0  0
   -5.2500   -1.2990    0.0000 C   0  0  0  0  0  0  0  0  0  0  0  0
   -6.0000   -2.5981    0.0000 N   0  0  0  0  0  0  0  0  0  0  0  0
   -7.5000   -2.5981    0.0000 C   0  0  0  0  0  0  0  0  0  0  0  0
   -8.2500   -1.2990    0.0000 C   0  0  0  0  0  0  0  0  0  0  0  0
   -9.7500   -1.2990    0.0000 C   0  0  0  0  0  0  0  0  0  0  0  0
  -10.5000   -2.5981    0.0000 C   0  0  0  0  0  0  0  0  0  0  0  0
   -9.7500   -3.8971    0.0000 C   0  0  0  0  0  0  0  0  0  0  0  0
  -10.5000   -5.1962    0.0000 N   0  0  0  0  0  0  0  0  0  0  0  0
  -12.0000   -5.1962    0.0000 C   0  0  0  0  0  0  0  0  0  0  0  0
  -12.7500   -6.4952    0.0000 C   0  0  0  0  0  0  0  0  0  0  0  0
  -12.0000   -7.7942    0.0000 O   0  0  0  0  0  0  0  0  0  0  0  0
  -10.5000   -7.7942    0.0000 C   0  0  0  0  0  0  0  0  0  0  0  0
   -9.7500   -6.4952    0.0000 C   0  0  0  0  0  0  0  0  0  0  0  0
   -8.2500   -3.8971    0.0000 C   0  0  0  0  0  0  0  0  0  0  0  0
   -3.7500   -1.2990    0.0000 N   0  0  0  0  0  0  0  0  0  0  0  0
   -0.7500    1.2990    0.0000 C   0  0  0  0  0  0  0  0  0  0  0  0
    0.7500    1.2990    0.0000 C   0  0  0  0  0  0  0  0  0  0  0  0
  1  2  3  0
  2  3  1  0
  3  4  1  0
  4  5  1  0
  5  6  2  0
  5  7  1  0
  7  8  2  0
  8  9  1  0
  9 10  2  0
 10 11  1  0
 11 12  2  0
 12 13  1  0
 13 14  2  0
 14 15  1  0
 15 16  1  0
 16 17  1  0
 17 18  2  0
 18 19  1  0
 19 20  2  0
 20 21  1  0
 21 22  1  0
 22 23  1  0
 23 24  1  0
 24 25  1  0
 25 26  1  0
 26 27  1  0
 21 28  2  0
 15 29  2  0
 10 30  1  0
 30 31  2  0
 31  7  1  0
 29 11  1  0
 28 17  1  0
 27 22  1  0
M  END
>  <Compound_ID>  (91) 
CHEMBL1078229

>  <Active>  (91) 
1

>  <Smiles>  (91) 
N#CCNC(=O)c1ccc(-c2ccnc(Nc3cccc(N4CCOCC4)c3)n2)cc1

>  <canonical_smi>  (91) 
N#CCNC(=O)c1ccc(-c2ccnc(Nc3cccc(N4CCOCC4)c3)n2)cc1

>  <Set>  (91) 
G2 active

>  <Set_type>  (91) 
Train

>  <MW>  (91) 
414.47

>  <HBD>  (91) 
2

>  <HBA>  (91) 
7

>  <NRB>  (91) 
6

>  <NR>  (91) 
4

>  <NAR>  (91) 
3

>  <PSA>  (91) 
103.17

>  <Standard Type>  (91) 
nan

>  <Standard Relation>  (91) 
nan

>  <Standard Units>  (91) 
nan

>  <Standard Value>  (91) 
nan

>  <Assay ChEMBL ID>  (91) 
nan

>  <Assay Description>  (91) 
nan

>  <BAO Label>  (91) 
nan

$$$$

     RDKit          2D

 38 43  0  0  0  0  0  0  0  0999 V2000
    7.5000   -0.0000    0.0000 C   0  0  0  0  0  0  0  0  0  0  0  0
    6.0000   -0.0000    0.0000 O   0  0  0  0  0  0  0  0  0  0  0  0
    5.2500   -1.2990    0.0000 C   0  0  0  0  0  0  0  0  0  0  0  0
    6.0000   -2.5981    0.0000 C   0  0  0  0  0  0  0  0  0  0  0  0
    5.2500   -3.8971    0.0000 C   0  0  0  0  0  0  0  0  0  0  0  0
    3.7500   -3.8971    0.0000 C   0  0  0  0  0  0  0  0  0  0  0  0
    3.0000   -5.1962    0.0000 Cl  0  0  0  0  0  0  0  0  0  0  0  0
    3.0000   -2.5981    0.0000 C   0  0  0  0  0  0  0  0  0  0  0  0
    1.5000   -2.5981    0.0000 N   0  0  0  0  0  0  0  0  0  0  0  0
    0.7500   -1.2990    0.0000 C   0  0  0  0  0  0  0  0  0  0  0  0
    1.5000    0.0000    0.0000 N   0  0  0  0  0  0  0  0  0  0  0  0
    0.7500    1.2990    0.0000 C   0  0  0  0  0  0  0  0  0  0  0  0
    1.5000    2.5981    0.0000 N   0  0  0  0  0  0  0  0  0  0  0  0
    0.8899    3.9684    0.0000 C   0  0  0  0  0  0  0  0  0  0  0  0
    2.0046    4.9721    0.0000 N   0  0  0  0  0  0  0  0  0  0  0  0
    3.3037    4.2221    0.0000 C   0  0  0  0  0  0  0  0  0  0  0  0
    4.7302    4.6856    0.0000 C   0  0  0  0  0  0  0  0  0  0  0  0
    5.8450    3.6819    0.0000 C   0  0  0  0  0  0  0  0  0  0  0  0
    5.5331    2.2147    0.0000 N   0  0  0  0  0  0  0  0  0  0  0  0
    4.1065    1.7512    0.0000 C   0  0  0  0  0  0  0  0  0  0  0  0
    2.9918    2.7549    0.0000 C   0  0  0  0  0  0  0  0  0  0  0  0
   -0.7500    1.2990    0.0000 N   0  0  0  0  0  0  0  0  0  0  0  0
   -1.5000    0.0000    0.0000 C   0  0  0  0  0  0  0  0  0  0  0  0
   -0.7500   -1.2990    0.0000 C   0  0  0  0  0  0  0  0  0  0  0  0
   -1.7537   -2.4138    0.0000 C   0  0  0  0  0  0  0  0  0  0  0  0
   -3.1240   -1.8037    0.0000 C   0  0  0  0  0  0  0  0  0  0  0  0
   -4.4231   -2.5537    0.0000 C   0  0  0  0  0  0  0  0  0  0  0  0
   -4.4231   -4.0537    0.0000 O   0  0  0  0  0  0  0  0  0  0  0  0
   -5.7221   -1.8037    0.0000 N   0  0  0  0  0  0  0  0  0  0  0  0
   -5.7221   -0.3037    0.0000 C   0  0  0  0  0  0  0  0  0  0  0  0
   -7.0211    0.4463    0.0000 C   0  0  0  0  0  0  0  0  0  0  0  0
   -8.3202   -0.3037    0.0000 N   0  0  0  0  0  0  0  0  0  0  0  0
   -9.6192    0.4463    0.0000 C   0  0  0  0  0  0  0  0  0  0  0  0
   -8.3202   -1.8037    0.0000 C   0  0  0  0  0  0  0  0  0  0  0  0
   -7.0211   -2.5537    0.0000 C   0  0  0  0  0  0  0  0  0  0  0  0
   -2.9672   -0.3119    0.0000 N   0  0  0  0  0  0  0  0  0  0  0  0
   -4.0819    0.6918    0.0000 C   0  0  0  0  0  0  0  0  0  0  0  0
    3.7500   -1.2990    0.0000 C   0  0  0  0  0  0  0  0  0  0  0  0
  1  2  1  0
  2  3  1  0
  3  4  2  0
  4  5  1  0
  5  6  2  0
  6  7  1  0
  6  8  1  0
  8  9  1  0
  9 10  1  0
 10 11  2  0
 11 12  1  0
 12 13  1  0
 13 14  1  0
 14 15  2  0
 15 16  1  0
 16 17  2  0
 17 18  1  0
 18 19  2  0
 19 20  1  0
 20 21  2  0
 12 22  2  0
 22 23  1  0
 23 24  2  0
 24 25  1  0
 25 26  2  0
 26 27  1  0
 27 28  2  0
 27 29  1  0
 29 30  1  0
 30 31  1  0
 31 32  1  0
 32 33  1  0
 32 34  1  0
 34 35  1  0
 26 36  1  0
 36 37  1  0
  8 38  2  0
 38  3  1  0
 24 10  1  0
 35 29  1  0
 21 13  1  0
 36 23  1  0
 21 16  1  0
M  END
>  <Compound_ID>  (92) 
CHEMBL393375

>  <Active>  (92) 
1

>  <Smiles>  (92) 
COc1ccc(Cl)c(Nc2nc(-n3cnc4ccncc43)nc3c2cc(C(=O)N2CCN(C)CC2)n3C)c1

>  <canonical_smi>  (92) 
COc1ccc(Cl)c(Nc2nc(-n3cnc4ccncc43)nc3c2cc(C(=O)N2CCN(C)CC2)n3C)c1

>  <Set>  (92) 
G2 active

>  <Set_type>  (92) 
Train

>  <MW>  (92) 
532.01

>  <HBD>  (92) 
1

>  <HBA>  (92) 
8

>  <NRB>  (92) 
5

>  <NR>  (92) 
6

>  <NAR>  (92) 
5

>  <PSA>  (92) 
106.23

>  <Standard Type>  (92) 
nan

>  <Standard Relation>  (92) 
nan

>  <Standard Units>  (92) 
nan

>  <Standard Value>  (92) 
nan

>  <Assay ChEMBL ID>  (92) 
nan

>  <Assay Description>  (92) 
nan

>  <BAO Label>  (92) 
nan

$$$$

     RDKit          2D

 26 29  0  0  0  0  0  0  0  0999 V2000
   -9.7730   -5.5068    0.0000 C   0  0  0  0  0  0  0  0  0  0  0  0
   -8.6583   -6.5105    0.0000 O   0  0  0  0  0  0  0  0  0  0  0  0
   -7.2317   -6.0469    0.0000 C   0  0  0  0  0  0  0  0  0  0  0  0
   -6.1170   -7.0506    0.0000 C   0  0  0  0  0  0  0  0  0  0  0  0
   -6.4289   -8.5179    0.0000 C   0  0  0  0  0  0  0  0  0  0  0  0
   -4.6904   -6.5871    0.0000 N   0  0  0  0  0  0  0  0  0  0  0  0
   -4.3786   -5.1199    0.0000 C   0  0  0  0  0  0  0  0  0  0  0  0
   -5.4933   -4.1162    0.0000 C   0  0  0  0  0  0  0  0  0  0  0  0
   -5.1814   -2.6490    0.0000 C   0  0  0  0  0  0  0  0  0  0  0  0
   -6.2961   -1.6453    0.0000 C   0  0  0  0  0  0  0  0  0  0  0  0
   -7.7634   -1.9571    0.0000 C   0  0  0  0  0  0  0  0  0  0  0  0
   -8.5134   -0.6581    0.0000 C   0  0  0  0  0  0  0  0  0  0  0  0
   -7.5097    0.4566    0.0000 O   0  0  0  0  0  0  0  0  0  0  0  0
   -6.1393   -0.1535    0.0000 C   0  0  0  0  0  0  0  0  0  0  0  0
   -3.7548   -2.1855    0.0000 N   0  0  0  0  0  0  0  0  0  0  0  0
   -2.6401   -3.1891    0.0000 C   0  0  0  0  0  0  0  0  0  0  0  0
   -1.2135   -2.7256    0.0000 N   0  0  0  0  0  0  0  0  0  0  0  0
   -0.0000   -3.6073    0.0000 C   0  0  0  0  0  0  0  0  0  0  0  0
    1.2135   -2.7256    0.0000 N   0  0  0  0  0  0  0  0  0  0  0  0
    0.7500   -1.2990    0.0000 C   0  0  0  0  0  0  0  0  0  0  0  0
    1.5000    0.0000    0.0000 C   0  0  0  0  0  0  0  0  0  0  0  0
    0.7500    1.2990    0.0000 C   0  0  0  0  0  0  0  0  0  0  0  0
   -0.7500    1.2990    0.0000 N   0  0  0  0  0  0  0  0  0  0  0  0
   -1.5000    0.0000    0.0000 C   0  0  0  0  0  0  0  0  0  0  0  0
   -0.7500   -1.2990    0.0000 C   0  0  0  0  0  0  0  0  0  0  0  0
   -2.9520   -4.6564    0.0000 N   0  0  0  0  0  0  0  0  0  0  0  0
  1  2  1  0
  2  3  1  0
  3  4  1  0
  4  5  1  1
  4  6  1  0
  6  7  1  0
  7  8  2  0
  8  9  1  0
  9 10  1  0
 10 11  1  0
 11 12  2  0
 12 13  1  0
 13 14  1  0
  9 15  2  0
 15 16  1  0
 16 17  1  0
 17 18  1  0
 18 19  2  0
 19 20  1  0
 20 21  2  0
 21 22  1  0
 22 23  2  0
 23 24  1  0
 24 25  2  0
 16 26  2  0
 26  7  1  0
 14 10  2  0
 25 17  1  0
 25 20  1  0
M  END
>  <Compound_ID>  (93) 
CHEMBL557844

>  <Active>  (93) 
1

>  <Smiles>  (93) 
COC[C@H](C)Nc1cc(-c2ccoc2)nc(-n2cnc3ccncc32)n1

>  <canonical_smi>  (93) 
COC[C@H](C)Nc1cc(-c2ccoc2)nc(-n2cnc3ccncc32)n1

>  <Set>  (93) 
G2 active

>  <Set_type>  (93) 
Train

>  <MW>  (93) 
350.38

>  <HBD>  (93) 
1

>  <HBA>  (93) 
7

>  <NRB>  (93) 
6

>  <NR>  (93) 
4

>  <NAR>  (93) 
4

>  <PSA>  (93) 
90.89

>  <Standard Type>  (93) 
nan

>  <Standard Relation>  (93) 
nan

>  <Standard Units>  (93) 
nan

>  <Standard Value>  (93) 
nan

>  <Assay ChEMBL ID>  (93) 
nan

>  <Assay Description>  (93) 
nan

>  <BAO Label>  (93) 
nan

$$$$

     RDKit          2D

 35 39  0  0  0  0  0  0  0  0999 V2000
    5.2500   -1.2990    0.0000 C   0  0  0  0  0  0  0  0  0  0  0  0
    3.7500   -1.2990    0.0000 C   0  0  0  0  0  0  0  0  0  0  0  0
    3.0000    0.0000    0.0000 N   0  0  0  0  0  0  0  0  0  0  0  0
    1.5000    0.0000    0.0000 C   0  0  0  0  0  0  0  0  0  0  0  0
    0.7500   -1.2990    0.0000 N   0  0  0  0  0  0  0  0  0  0  0  0
   -0.7500   -1.2990    0.0000 C   0  0  0  0  0  0  0  0  0  0  0  0
   -1.5000   -2.5981    0.0000 N   0  0  0  0  0  0  0  0  0  0  0  0
   -2.9918   -2.7549    0.0000 C   0  0  0  0  0  0  0  0  0  0  0  0
   -3.3037   -4.2221    0.0000 N   0  0  0  0  0  0  0  0  0  0  0  0
   -2.0046   -4.9721    0.0000 C   0  0  0  0  0  0  0  0  0  0  0  0
   -1.6927   -6.4393    0.0000 C   0  0  0  0  0  0  0  0  0  0  0  0
   -0.2662   -6.9028    0.0000 C   0  0  0  0  0  0  0  0  0  0  0  0
    0.8486   -5.8991    0.0000 N   0  0  0  0  0  0  0  0  0  0  0  0
    0.5367   -4.4319    0.0000 C   0  0  0  0  0  0  0  0  0  0  0  0
   -0.8899   -3.9684    0.0000 C   0  0  0  0  0  0  0  0  0  0  0  0
   -1.5000    0.0000    0.0000 N   0  0  0  0  0  0  0  0  0  0  0  0
   -0.7500    1.2990    0.0000 C   0  0  0  0  0  0  0  0  0  0  0  0
    0.7500    1.2990    0.0000 C   0  0  0  0  0  0  0  0  0  0  0  0
    1.2135    2.7256    0.0000 C   0  0  0  0  0  0  0  0  0  0  0  0
    0.0000    3.6073    0.0000 C   0  0  0  0  0  0  0  0  0  0  0  0
    0.0000    5.1073    0.0000 C   0  0  0  0  0  0  0  0  0  0  0  0
   -1.2990    5.8573    0.0000 O   0  0  0  0  0  0  0  0  0  0  0  0
    1.2990    5.8573    0.0000 N   0  0  0  0  0  0  0  0  0  0  0  0
    2.5981    5.1073    0.0000 C   0  0  0  0  0  0  0  0  0  0  0  0
    3.8971    5.8573    0.0000 C   0  0  0  0  0  0  0  0  0  0  0  0
    3.8971    7.3573    0.0000 N   0  0  0  0  0  0  0  0  0  0  0  0
    5.1962    8.1073    0.0000 C   0  0  0  0  0  0  0  0  0  0  0  0
    2.5981    8.1073    0.0000 C   0  0  0  0  0  0  0  0  0  0  0  0
    1.2990    7.3573    0.0000 C   0  0  0  0  0  0  0  0  0  0  0  0
   -1.2135    2.7256    0.0000 N   0  0  0  0  0  0  0  0  0  0  0  0
   -2.6401    3.1891    0.0000 C   0  0  0  0  0  0  0  0  0  0  0  0
    3.0000   -2.5981    0.0000 C   0  0  0  0  0  0  0  0  0  0  0  0
    1.7010   -1.8481    0.0000 C   0  0  0  0  0  0  0  0  0  0  0  0
    4.2990   -3.3481    0.0000 C   0  0  0  0  0  0  0  0  0  0  0  0
    2.2500   -3.8971    0.0000 O   0  0  0  0  0  0  0  0  0  0  0  0
  2  1  1  1
  2  3  1  0
  3  4  1  0
  4  5  2  0
  5  6  1  0
  6  7  1  0
  7  8  1  0
  8  9  2  0
  9 10  1  0
 10 11  2  0
 11 12  1  0
 12 13  2  0
 13 14  1  0
 14 15  2  0
  6 16  2  0
 16 17  1  0
 17 18  2  0
 18 19  1  0
 19 20  2  0
 20 21  1  0
 21 22  2  0
 21 23  1  0
 23 24  1  0
 24 25  1  0
 25 26  1  0
 26 27  1  0
 26 28  1  0
 28 29  1  0
 20 30  1  0
 30 31  1  0
  2 32  1  0
 32 33  1  0
 32 34  1  0
 32 35  1  0
 18  4  1  0
 29 23  1  0
 15  7  1  0
 30 17  1  0
 15 10  1  0
M  END
>  <Compound_ID>  (94) 
CHEMBL232147

>  <Active>  (94) 
1

>  <Smiles>  (94) 
C[C@H](Nc1nc(-n2cnc3ccncc32)nc2c1cc(C(=O)N1CCN(C)CC1)n2C)C(C)(C)O

>  <canonical_smi>  (94) 
C[C@H](Nc1nc(-n2cnc3ccncc32)nc2c1cc(C(=O)N1CCN(C)CC1)n2C)C(C)(C)O

>  <Set>  (94) 
G2 active

>  <Set_type>  (94) 
Train

>  <MW>  (94) 
477.57

>  <HBD>  (94) 
2

>  <HBA>  (94) 
8

>  <NRB>  (94) 
5

>  <NR>  (94) 
5

>  <NAR>  (94) 
4

>  <PSA>  (94) 
117.23

>  <Standard Type>  (94) 
nan

>  <Standard Relation>  (94) 
nan

>  <Standard Units>  (94) 
nan

>  <Standard Value>  (94) 
nan

>  <Assay ChEMBL ID>  (94) 
nan

>  <Assay Description>  (94) 
nan

>  <BAO Label>  (94) 
nan

$$$$

     RDKit          2D

 29 33  0  0  0  0  0  0  0  0999 V2000
   -9.0933   -5.8573    0.0000 O   0  0  0  0  0  0  0  0  0  0  0  0
   -7.7942   -5.1073    0.0000 C   0  0  0  0  0  0  0  0  0  0  0  0
   -6.4952   -5.8573    0.0000 C   0  0  0  0  0  0  0  0  0  0  0  0
   -6.4952   -7.3573    0.0000 C   0  0  0  0  0  0  0  0  0  0  0  0
   -5.1962   -8.1073    0.0000 C   0  0  0  0  0  0  0  0  0  0  0  0
   -3.8971   -7.3573    0.0000 C   0  0  0  0  0  0  0  0  0  0  0  0
   -2.5981   -8.1073    0.0000 N   0  0  0  0  0  0  0  0  0  0  0  0
   -1.2990   -7.3573    0.0000 C   0  0  0  0  0  0  0  0  0  0  0  0
    0.0000   -8.1073    0.0000 N   0  0  0  0  0  0  0  0  0  0  0  0
    1.2990   -7.3573    0.0000 C   0  0  0  0  0  0  0  0  0  0  0  0
    1.2990   -5.8573    0.0000 C   0  0  0  0  0  0  0  0  0  0  0  0
   -0.0000   -5.1073    0.0000 C   0  0  0  0  0  0  0  0  0  0  0  0
   -0.0000   -3.6073    0.0000 C   0  0  0  0  0  0  0  0  0  0  0  0
    1.2135   -2.7256    0.0000 C   0  0  0  0  0  0  0  0  0  0  0  0
    0.7500   -1.2990    0.0000 C   0  0  0  0  0  0  0  0  0  0  0  0
    1.5000    0.0000    0.0000 C   0  0  0  0  0  0  0  0  0  0  0  0
    0.7500    1.2990    0.0000 C   0  0  0  0  0  0  0  0  0  0  0  0
   -0.7500    1.2990    0.0000 C   0  0  0  0  0  0  0  0  0  0  0  0
   -1.5000    0.0000    0.0000 C   0  0  0  0  0  0  0  0  0  0  0  0
   -0.7500   -1.2990    0.0000 C   0  0  0  0  0  0  0  0  0  0  0  0
   -1.2135   -2.7256    0.0000 S   0  0  0  0  0  0  0  0  0  0  0  0
   -1.2990   -5.8573    0.0000 N   0  0  0  0  0  0  0  0  0  0  0  0
   -3.8971   -5.8573    0.0000 C   0  0  0  0  0  0  0  0  0  0  0  0
   -5.1962   -5.1073    0.0000 C   0  0  0  0  0  0  0  0  0  0  0  0
   -7.7942   -3.6073    0.0000 N   0  0  0  0  0  0  0  0  0  0  0  0
   -9.0078   -2.7256    0.0000 C   0  0  0  0  0  0  0  0  0  0  0  0
   -8.5442   -1.2990    0.0000 C   0  0  0  0  0  0  0  0  0  0  0  0
   -7.0442   -1.2990    0.0000 C   0  0  0  0  0  0  0  0  0  0  0  0
   -6.5807   -2.7256    0.0000 C   0  0  0  0  0  0  0  0  0  0  0  0
  1  2  2  0
  2  3  1  0
  3  4  2  0
  4  5  1  0
  5  6  2  0
  6  7  1  0
  7  8  1  0
  8  9  2  0
  9 10  1  0
 10 11  2  0
 11 12  1  0
 12 13  1  0
 13 14  2  0
 14 15  1  0
 15 16  2  0
 16 17  1  0
 17 18  2  0
 18 19  1  0
 19 20  2  0
 20 21  1  0
 12 22  2  0
  6 23  1  0
 23 24  2  0
  2 25  1  0
 25 26  1  0
 26 27  1  0
 27 28  1  0
 28 29  1  0
 24  3  1  0
 29 25  1  0
 22  8  1  0
 21 13  1  0
 20 15  1  0
M  END
>  <Compound_ID>  (95) 
CHEMBL382752

>  <Active>  (95) 
1

>  <Smiles>  (95) 
O=C(c1ccc(Nc2nccc(-c3cc4ccccc4s3)n2)cc1)N1CCCC1

>  <canonical_smi>  (95) 
O=C(c1ccc(Nc2nccc(-c3cc4ccccc4s3)n2)cc1)N1CCCC1

>  <Set>  (95) 
G2 active

>  <Set_type>  (95) 
Train

>  <MW>  (95) 
400.51

>  <HBD>  (95) 
1

>  <HBA>  (95) 
4

>  <NRB>  (95) 
4

>  <NR>  (95) 
5

>  <NAR>  (95) 
4

>  <PSA>  (95) 
58.12

>  <Standard Type>  (95) 
nan

>  <Standard Relation>  (95) 
nan

>  <Standard Units>  (95) 
nan

>  <Standard Value>  (95) 
nan

>  <Assay ChEMBL ID>  (95) 
nan

>  <Assay Description>  (95) 
nan

>  <BAO Label>  (95) 
nan

$$$$

     RDKit          2D

 40 45  0  0  0  0  0  0  0  0999 V2000
    3.7500   -1.2990    0.0000 C   0  0  0  0  0  0  0  0  0  0  0  0
    3.0000   -2.5981    0.0000 C   0  0  0  0  0  0  0  0  0  0  0  0
    1.5000   -2.5981    0.0000 N   0  0  0  0  0  0  0  0  0  0  0  0
    0.7500   -1.2990    0.0000 C   0  0  0  0  0  0  0  0  0  0  0  0
    1.5000    0.0000    0.0000 N   0  0  0  0  0  0  0  0  0  0  0  0
    0.7500    1.2990    0.0000 C   0  0  0  0  0  0  0  0  0  0  0  0
    1.5000    2.5981    0.0000 N   0  0  0  0  0  0  0  0  0  0  0  0
    0.8899    3.9684    0.0000 C   0  0  0  0  0  0  0  0  0  0  0  0
    2.0046    4.9721    0.0000 N   0  0  0  0  0  0  0  0  0  0  0  0
    3.3037    4.2221    0.0000 C   0  0  0  0  0  0  0  0  0  0  0  0
    4.7302    4.6856    0.0000 C   0  0  0  0  0  0  0  0  0  0  0  0
    5.8450    3.6819    0.0000 C   0  0  0  0  0  0  0  0  0  0  0  0
    5.5331    2.2147    0.0000 N   0  0  0  0  0  0  0  0  0  0  0  0
    4.1065    1.7512    0.0000 C   0  0  0  0  0  0  0  0  0  0  0  0
    2.9918    2.7549    0.0000 C   0  0  0  0  0  0  0  0  0  0  0  0
   -0.7500    1.2990    0.0000 N   0  0  0  0  0  0  0  0  0  0  0  0
   -1.5000    0.0000    0.0000 C   0  0  0  0  0  0  0  0  0  0  0  0
   -0.7500   -1.2990    0.0000 C   0  0  0  0  0  0  0  0  0  0  0  0
   -1.7537   -2.4138    0.0000 C   0  0  0  0  0  0  0  0  0  0  0  0
   -3.1240   -1.8037    0.0000 C   0  0  0  0  0  0  0  0  0  0  0  0
   -4.4231   -2.5537    0.0000 C   0  0  0  0  0  0  0  0  0  0  0  0
   -4.4231   -4.0537    0.0000 O   0  0  0  0  0  0  0  0  0  0  0  0
   -5.7221   -1.8037    0.0000 N   0  0  0  0  0  0  0  0  0  0  0  0
   -7.0211   -2.5537    0.0000 S   0  0  0  0  0  0  0  0  0  0  0  0
   -6.2711   -3.8527    0.0000 O   0  0  0  0  0  0  0  0  0  0  0  0
   -7.7711   -1.2546    0.0000 O   0  0  0  0  0  0  0  0  0  0  0  0
   -8.3202   -3.3037    0.0000 C   0  0  0  0  0  0  0  0  0  0  0  0
   -9.6192   -2.5537    0.0000 C   0  0  0  0  0  0  0  0  0  0  0  0
  -10.9182   -3.3037    0.0000 C   0  0  0  0  0  0  0  0  0  0  0  0
  -10.9182   -4.8037    0.0000 C   0  0  0  0  0  0  0  0  0  0  0  0
   -9.6192   -5.5537    0.0000 C   0  0  0  0  0  0  0  0  0  0  0  0
   -8.3202   -4.8037    0.0000 C   0  0  0  0  0  0  0  0  0  0  0  0
   -2.9672   -0.3119    0.0000 N   0  0  0  0  0  0  0  0  0  0  0  0
   -4.0819    0.6918    0.0000 C   0  0  0  0  0  0  0  0  0  0  0  0
    3.7500   -3.8971    0.0000 C   0  0  0  0  0  0  0  0  0  0  0  0
    5.2500   -3.8971    0.0000 C   0  0  0  0  0  0  0  0  0  0  0  0
    6.0000   -5.1962    0.0000 C   0  0  0  0  0  0  0  0  0  0  0  0
    5.2500   -6.4952    0.0000 C   0  0  0  0  0  0  0  0  0  0  0  0
    3.7500   -6.4952    0.0000 C   0  0  0  0  0  0  0  0  0  0  0  0
    3.0000   -5.1962    0.0000 C   0  0  0  0  0  0  0  0  0  0  0  0
  2  1  1  1
  2  3  1  0
  3  4  1  0
  4  5  2  0
  5  6  1  0
  6  7  1  0
  7  8  1  0
  8  9  2  0
  9 10  1  0
 10 11  2  0
 11 12  1  0
 12 13  2  0
 13 14  1  0
 14 15  2  0
  6 16  2  0
 16 17  1  0
 17 18  2  0
 18 19  1  0
 19 20  2  0
 20 21  1  0
 21 22  2  0
 21 23  1  0
 23 24  1  0
 24 25  2  0
 24 26  2  0
 24 27  1  0
 27 28  2  0
 28 29  1  0
 29 30  2  0
 30 31  1  0
 31 32  2  0
 20 33  1  0
 33 34  1  0
  2 35  1  0
 35 36  2  0
 36 37  1  0
 37 38  2  0
 38 39  1  0
 39 40  2  0
 18  4  1  0
 32 27  1  0
 40 35  1  0
 15  7  1  0
 33 17  1  0
 15 10  1  0
M  END
>  <Compound_ID>  (96) 
CHEMBL392998

>  <Active>  (96) 
1

>  <Smiles>  (96) 
C[C@H](Nc1nc(-n2cnc3ccncc32)nc2c1cc(C(=O)NS(=O)(=O)c1ccccc1)n2C)c1ccccc1

>  <canonical_smi>  (96) 
C[C@H](Nc1nc(-n2cnc3ccncc32)nc2c1cc(C(=O)NS(=O)(=O)c1ccccc1)n2C)c1ccccc1

>  <Set>  (96) 
G2 active

>  <Set_type>  (96) 
Train

>  <MW>  (96) 
552.62

>  <HBD>  (96) 
2

>  <HBA>  (96) 
8

>  <NRB>  (96) 
7

>  <NR>  (96) 
6

>  <NAR>  (96) 
6

>  <PSA>  (96) 
136.69

>  <Standard Type>  (96) 
nan

>  <Standard Relation>  (96) 
nan

>  <Standard Units>  (96) 
nan

>  <Standard Value>  (96) 
nan

>  <Assay ChEMBL ID>  (96) 
nan

>  <Assay Description>  (96) 
nan

>  <BAO Label>  (96) 
nan

$$$$

     RDKit          2D

 33 36  0  0  0  0  0  0  0  0999 V2000
    4.5000   -2.5981    0.0000 C   0  0  0  0  0  0  0  0  0  0  0  0
    3.7500   -1.2990    0.0000 S   0  0  0  0  0  0  0  0  0  0  0  0
    2.4510   -2.0490    0.0000 O   0  0  0  0  0  0  0  0  0  0  0  0
    5.0490   -0.5490    0.0000 O   0  0  0  0  0  0  0  0  0  0  0  0
    3.0000    0.0000    0.0000 N   0  0  0  0  0  0  0  0  0  0  0  0
    1.5000    0.0000    0.0000 C   0  0  0  0  0  0  0  0  0  0  0  0
    0.7500   -1.2990    0.0000 C   0  0  0  0  0  0  0  0  0  0  0  0
   -0.7500   -1.2990    0.0000 C   0  0  0  0  0  0  0  0  0  0  0  0
   -1.5000    0.0000    0.0000 C   0  0  0  0  0  0  0  0  0  0  0  0
   -3.0000    0.0000    0.0000 C   0  0  0  0  0  0  0  0  0  0  0  0
   -3.7500    1.2990    0.0000 C   0  0  0  0  0  0  0  0  0  0  0  0
   -5.2500    1.2990    0.0000 C   0  0  0  0  0  0  0  0  0  0  0  0
   -6.0000    0.0000    0.0000 N   0  0  0  0  0  0  0  0  0  0  0  0
   -5.2500   -1.2990    0.0000 C   0  0  0  0  0  0  0  0  0  0  0  0
   -6.0000   -2.5981    0.0000 N   0  0  0  0  0  0  0  0  0  0  0  0
   -7.5000   -2.5981    0.0000 C   0  0  0  0  0  0  0  0  0  0  0  0
   -8.2500   -1.2990    0.0000 C   0  0  0  0  0  0  0  0  0  0  0  0
   -9.7500   -1.2990    0.0000 C   0  0  0  0  0  0  0  0  0  0  0  0
  -10.5000   -2.5981    0.0000 C   0  0  0  0  0  0  0  0  0  0  0  0
  -12.0000   -2.5981    0.0000 C   0  0  0  0  0  0  0  0  0  0  0  0
  -12.7500   -1.2990    0.0000 N   0  0  0  0  0  0  0  0  0  0  0  0
  -12.0000    0.0000    0.0000 C   0  0  0  0  0  0  0  0  0  0  0  0
  -12.7500    1.2990    0.0000 C   0  0  0  0  0  0  0  0  0  0  0  0
  -14.2500    1.2990    0.0000 S   0  0  0  0  0  0  0  0  0  0  0  0
  -15.6595    1.8121    0.0000 O   0  0  0  0  0  0  0  0  0  0  0  0
  -13.9895    2.7762    0.0000 O   0  0  0  0  0  0  0  0  0  0  0  0
  -15.0000    0.0000    0.0000 C   0  0  0  0  0  0  0  0  0  0  0  0
  -14.2500   -1.2990    0.0000 C   0  0  0  0  0  0  0  0  0  0  0  0
   -9.7500   -3.8971    0.0000 C   0  0  0  0  0  0  0  0  0  0  0  0
   -8.2500   -3.8971    0.0000 C   0  0  0  0  0  0  0  0  0  0  0  0
   -3.7500   -1.2990    0.0000 N   0  0  0  0  0  0  0  0  0  0  0  0
   -0.7500    1.2990    0.0000 C   0  0  0  0  0  0  0  0  0  0  0  0
    0.7500    1.2990    0.0000 C   0  0  0  0  0  0  0  0  0  0  0  0
  1  2  1  0
  2  3  2  0
  2  4  2  0
  2  5  1  0
  5  6  1  0
  6  7  2  0
  7  8  1  0
  8  9  2  0
  9 10  1  0
 10 11  2  0
 11 12  1  0
 12 13  2  0
 13 14  1  0
 14 15  1  0
 15 16  1  0
 16 17  2  0
 17 18  1  0
 18 19  2  0
 19 20  1  0
 20 21  1  0
 21 22  1  0
 22 23  1  0
 23 24  1  0
 24 25  2  0
 24 26  2  0
 24 27  1  0
 27 28  1  0
 19 29  1  0
 29 30  2  0
 14 31  2  0
  9 32  1  0
 32 33  2  0
 33  6  1  0
 31 10  1  0
 30 16  1  0
 28 21  1  0
M  END
>  <Compound_ID>  (97) 
CHEMBL1078889

>  <Active>  (97) 
1

>  <Smiles>  (97) 
CS(=O)(=O)Nc1ccc(-c2ccnc(Nc3ccc(CN4CCS(=O)(=O)CC4)cc3)n2)cc1

>  <canonical_smi>  (97) 
CS(=O)(=O)Nc1ccc(-c2ccnc(Nc3ccc(CN4CCS(=O)(=O)CC4)cc3)n2)cc1

>  <Set>  (97) 
G2 active

>  <Set_type>  (97) 
Test

>  <MW>  (97) 
487.61

>  <HBD>  (97) 
2

>  <HBA>  (97) 
8

>  <NRB>  (97) 
7

>  <NR>  (97) 
4

>  <NAR>  (97) 
3

>  <PSA>  (97) 
121.36

>  <Standard Type>  (97) 
nan

>  <Standard Relation>  (97) 
nan

>  <Standard Units>  (97) 
nan

>  <Standard Value>  (97) 
nan

>  <Assay ChEMBL ID>  (97) 
nan

>  <Assay Description>  (97) 
nan

>  <BAO Label>  (97) 
nan

$$$$

     RDKit          2D

 39 43  0  0  0  0  0  0  0  0999 V2000
   -0.7500   -6.4952    0.0000 C   0  0  0  0  0  0  0  0  0  0  0  0
    0.7500   -6.4952    0.0000 O   0  0  0  0  0  0  0  0  0  0  0  0
    1.5000   -5.1962    0.0000 C   0  0  0  0  0  0  0  0  0  0  0  0
    0.7500   -3.8971    0.0000 C   0  0  0  0  0  0  0  0  0  0  0  0
    1.5000   -2.5981    0.0000 C   0  0  0  0  0  0  0  0  0  0  0  0
    0.7500   -1.2990    0.0000 C   0  0  0  0  0  0  0  0  0  0  0  0
    1.5000    0.0000    0.0000 C   0  0  0  0  0  0  0  0  0  0  0  0
    0.7500    1.2990    0.0000 N   0  0  0  0  0  0  0  0  0  0  0  0
   -0.7500    1.2990    0.0000 C   0  0  0  0  0  0  0  0  0  0  0  0
   -1.5000    2.5981    0.0000 C   0  0  0  0  0  0  0  0  0  0  0  0
   -3.0000    2.5981    0.0000 C   0  0  0  0  0  0  0  0  0  0  0  0
   -3.7500    1.2990    0.0000 C   0  0  0  0  0  0  0  0  0  0  0  0
   -3.0000    0.0000    0.0000 C   0  0  0  0  0  0  0  0  0  0  0  0
   -3.7500   -1.2990    0.0000 C   0  0  0  0  0  0  0  0  0  0  0  0
   -5.2500   -1.2990    0.0000 C   0  0  0  0  0  0  0  0  0  0  0  0
   -6.0000   -2.5981    0.0000 C   0  0  0  0  0  0  0  0  0  0  0  0
   -5.2500   -3.8971    0.0000 C   0  0  0  0  0  0  0  0  0  0  0  0
   -6.0000   -5.1962    0.0000 C   0  0  0  0  0  0  0  0  0  0  0  0
   -7.5000   -5.1962    0.0000 C   0  0  0  0  0  0  0  0  0  0  0  0
   -8.2500   -3.8971    0.0000 O   0  0  0  0  0  0  0  0  0  0  0  0
   -8.2500   -6.4952    0.0000 N   0  0  0  0  0  0  0  0  0  0  0  0
   -9.7500   -6.4952    0.0000 C   0  0  0  0  0  0  0  0  0  0  0  0
  -10.5000   -7.7942    0.0000 C   0  0  0  0  0  0  0  0  0  0  0  0
   -9.7500   -9.0933    0.0000 S   0  0  0  0  0  0  0  0  0  0  0  0
   -9.4895  -10.5705    0.0000 O   0  0  0  0  0  0  0  0  0  0  0  0
  -11.1595   -9.6063    0.0000 O   0  0  0  0  0  0  0  0  0  0  0  0
   -8.2500   -9.0933    0.0000 C   0  0  0  0  0  0  0  0  0  0  0  0
   -7.5000   -7.7942    0.0000 C   0  0  0  0  0  0  0  0  0  0  0  0
   -3.7500   -3.8971    0.0000 C   0  0  0  0  0  0  0  0  0  0  0  0
   -3.0000   -2.5981    0.0000 C   0  0  0  0  0  0  0  0  0  0  0  0
   -1.5000    0.0000    0.0000 C   0  0  0  0  0  0  0  0  0  0  0  0
   -0.7500   -1.2990    0.0000 N   0  0  0  0  0  0  0  0  0  0  0  0
    3.0000   -2.5981    0.0000 C   0  0  0  0  0  0  0  0  0  0  0  0
    3.7500   -3.8971    0.0000 C   0  0  0  0  0  0  0  0  0  0  0  0
    5.2500   -3.8971    0.0000 O   0  0  0  0  0  0  0  0  0  0  0  0
    6.0000   -5.1962    0.0000 C   0  0  0  0  0  0  0  0  0  0  0  0
    3.0000   -5.1962    0.0000 C   0  0  0  0  0  0  0  0  0  0  0  0
    3.7500   -6.4952    0.0000 O   0  0  0  0  0  0  0  0  0  0  0  0
    3.0000   -7.7942    0.0000 C   0  0  0  0  0  0  0  0  0  0  0  0
  1  2  1  0
  2  3  1  0
  3  4  2  0
  4  5  1  0
  5  6  1  0
  6  7  2  0
  7  8  1  0
  8  9  2  0
  9 10  1  0
 10 11  2  0
 11 12  1  0
 12 13  2  0
 13 14  1  0
 14 15  2  0
 15 16  1  0
 16 17  2  0
 17 18  1  0
 18 19  1  0
 19 20  2  0
 19 21  1  0
 21 22  1  0
 22 23  1  0
 23 24  1  0
 24 25  2  0
 24 26  2  0
 24 27  1  0
 27 28  1  0
 17 29  1  0
 29 30  2  0
 13 31  1  0
 31 32  2  0
  5 33  2  0
 33 34  1  0
 34 35  1  0
 35 36  1  0
 34 37  2  0
 37 38  1  0
 38 39  1  0
 37  3  1  0
 32  6  1  0
 31  9  1  0
 30 14  1  0
 28 21  1  0
M  END
>  <Compound_ID>  (98) 
CHEMBL1093468

>  <Active>  (98) 
1

>  <Smiles>  (98) 
COc1cc(-c2cnc3cccc(-c4ccc(CC(=O)N5CCS(=O)(=O)CC5)cc4)c3n2)cc(OC)c1OC

>  <canonical_smi>  (98) 
COc1cc(-c2cnc3cccc(-c4ccc(CC(=O)N5CCS(=O)(=O)CC5)cc4)c3n2)cc(OC)c1OC

>  <Set>  (98) 
G2 active

>  <Set_type>  (98) 
Test

>  <MW>  (98) 
547.63

>  <HBD>  (98) 
0

>  <HBA>  (98) 
8

>  <NRB>  (98) 
7

>  <NR>  (98) 
5

>  <NAR>  (98) 
4

>  <PSA>  (98) 
107.92

>  <Standard Type>  (98) 
nan

>  <Standard Relation>  (98) 
nan

>  <Standard Units>  (98) 
nan

>  <Standard Value>  (98) 
nan

>  <Assay ChEMBL ID>  (98) 
nan

>  <Assay Description>  (98) 
nan

>  <BAO Label>  (98) 
nan

$$$$

     RDKit          2D

 33 37  0  0  0  0  0  0  0  0999 V2000
   -8.3202   -1.8037    0.0000 C   0  0  0  0  0  0  0  0  0  0  0  0
   -7.0211   -2.5537    0.0000 O   0  0  0  0  0  0  0  0  0  0  0  0
   -5.7221   -1.8037    0.0000 N   0  0  0  0  0  0  0  0  0  0  0  0
   -4.4231   -2.5537    0.0000 C   0  0  0  0  0  0  0  0  0  0  0  0
   -4.4231   -4.0537    0.0000 O   0  0  0  0  0  0  0  0  0  0  0  0
   -3.1240   -1.8037    0.0000 C   0  0  0  0  0  0  0  0  0  0  0  0
   -1.7537   -2.4138    0.0000 C   0  0  0  0  0  0  0  0  0  0  0  0
   -0.7500   -1.2990    0.0000 C   0  0  0  0  0  0  0  0  0  0  0  0
    0.7500   -1.2990    0.0000 C   0  0  0  0  0  0  0  0  0  0  0  0
    1.5000   -2.5981    0.0000 N   0  0  0  0  0  0  0  0  0  0  0  0
    3.0000   -2.5981    0.0000 C   0  0  0  0  0  0  0  0  0  0  0  0
    3.7500   -3.8971    0.0000 C   0  0  0  0  0  0  0  0  0  0  0  0
    3.7500   -1.2990    0.0000 C   0  0  0  0  0  0  0  0  0  0  0  0
    5.2500   -1.2990    0.0000 C   0  0  0  0  0  0  0  0  0  0  0  0
    6.0000   -0.0000    0.0000 C   0  0  0  0  0  0  0  0  0  0  0  0
    5.2500    1.2990    0.0000 C   0  0  0  0  0  0  0  0  0  0  0  0
    3.7500    1.2990    0.0000 C   0  0  0  0  0  0  0  0  0  0  0  0
    3.0000   -0.0000    0.0000 C   0  0  0  0  0  0  0  0  0  0  0  0
    1.5000    0.0000    0.0000 N   0  0  0  0  0  0  0  0  0  0  0  0
    0.7500    1.2990    0.0000 C   0  0  0  0  0  0  0  0  0  0  0  0
    1.5000    2.5981    0.0000 N   0  0  0  0  0  0  0  0  0  0  0  0
    2.9918    2.7549    0.0000 C   0  0  0  0  0  0  0  0  0  0  0  0
    3.3037    4.2221    0.0000 N   0  0  0  0  0  0  0  0  0  0  0  0
    2.0046    4.9721    0.0000 C   0  0  0  0  0  0  0  0  0  0  0  0
    1.6927    6.4393    0.0000 C   0  0  0  0  0  0  0  0  0  0  0  0
    0.2662    6.9028    0.0000 C   0  0  0  0  0  0  0  0  0  0  0  0
   -0.8486    5.8991    0.0000 N   0  0  0  0  0  0  0  0  0  0  0  0
   -0.5367    4.4319    0.0000 C   0  0  0  0  0  0  0  0  0  0  0  0
    0.8899    3.9684    0.0000 C   0  0  0  0  0  0  0  0  0  0  0  0
   -0.7500    1.2990    0.0000 N   0  0  0  0  0  0  0  0  0  0  0  0
   -1.5000    0.0000    0.0000 C   0  0  0  0  0  0  0  0  0  0  0  0
   -2.9672   -0.3119    0.0000 N   0  0  0  0  0  0  0  0  0  0  0  0
   -4.0819    0.6918    0.0000 C   0  0  0  0  0  0  0  0  0  0  0  0
  1  2  1  0
  2  3  1  0
  3  4  1  0
  4  5  2  0
  4  6  1  0
  6  7  2  0
  7  8  1  0
  8  9  2  0
  9 10  1  0
 10 11  1  0
 11 12  1  6
 11 13  1  0
 13 14  2  0
 14 15  1  0
 15 16  2  0
 16 17  1  0
 17 18  2  0
  9 19  1  0
 19 20  2  0
 20 21  1  0
 21 22  1  0
 22 23  2  0
 23 24  1  0
 24 25  2  0
 25 26  1  0
 26 27  2  0
 27 28  1  0
 28 29  2  0
 20 30  1  0
 30 31  2  0
 31 32  1  0
 32 33  1  0
 32  6  1  0
 31  8  1  0
 18 13  1  0
 29 21  1  0
 29 24  1  0
M  END
>  <Compound_ID>  (99) 
CHEMBL391492

>  <Active>  (99) 
1

>  <Smiles>  (99) 
CONC(=O)c1cc2c(N[C@@H](C)c3ccccc3)nc(-n3cnc4ccncc43)nc2n1C

>  <canonical_smi>  (99) 
CONC(=O)c1cc2c(N[C@@H](C)c3ccccc3)nc(-n3cnc4ccncc43)nc2n1C

>  <Set>  (99) 
G2 active

>  <Set_type>  (99) 
Test

>  <MW>  (99) 
442.48

>  <HBD>  (99) 
2

>  <HBA>  (99) 
7

>  <NRB>  (99) 
6

>  <NR>  (99) 
5

>  <NAR>  (99) 
5

>  <PSA>  (99) 
111.78

>  <Standard Type>  (99) 
nan

>  <Standard Relation>  (99) 
nan

>  <Standard Units>  (99) 
nan

>  <Standard Value>  (99) 
nan

>  <Assay ChEMBL ID>  (99) 
nan

>  <Assay Description>  (99) 
nan

>  <BAO Label>  (99) 
nan

$$$$

     RDKit          2D

 30 33  0  0  0  0  0  0  0  0999 V2000
    4.5000   -2.5981    0.0000 C   0  0  0  0  0  0  0  0  0  0  0  0
    3.7500   -1.2990    0.0000 S   0  0  0  0  0  0  0  0  0  0  0  0
    2.4510   -2.0490    0.0000 O   0  0  0  0  0  0  0  0  0  0  0  0
    5.0490   -0.5490    0.0000 O   0  0  0  0  0  0  0  0  0  0  0  0
    3.0000    0.0000    0.0000 N   0  0  0  0  0  0  0  0  0  0  0  0
    1.5000    0.0000    0.0000 C   0  0  0  0  0  0  0  0  0  0  0  0
    0.7500   -1.2990    0.0000 C   0  0  0  0  0  0  0  0  0  0  0  0
   -0.7500   -1.2990    0.0000 C   0  0  0  0  0  0  0  0  0  0  0  0
   -1.5000    0.0000    0.0000 C   0  0  0  0  0  0  0  0  0  0  0  0
   -3.0000    0.0000    0.0000 C   0  0  0  0  0  0  0  0  0  0  0  0
   -3.7500    1.2990    0.0000 C   0  0  0  0  0  0  0  0  0  0  0  0
   -5.2500    1.2990    0.0000 C   0  0  0  0  0  0  0  0  0  0  0  0
   -6.0000    0.0000    0.0000 N   0  0  0  0  0  0  0  0  0  0  0  0
   -5.2500   -1.2990    0.0000 C   0  0  0  0  0  0  0  0  0  0  0  0
   -6.0000   -2.5981    0.0000 N   0  0  0  0  0  0  0  0  0  0  0  0
   -7.5000   -2.5981    0.0000 C   0  0  0  0  0  0  0  0  0  0  0  0
   -8.2500   -1.2990    0.0000 C   0  0  0  0  0  0  0  0  0  0  0  0
   -9.7500   -1.2990    0.0000 C   0  0  0  0  0  0  0  0  0  0  0  0
  -10.5000   -2.5981    0.0000 C   0  0  0  0  0  0  0  0  0  0  0  0
   -9.7500   -3.8971    0.0000 C   0  0  0  0  0  0  0  0  0  0  0  0
  -10.5000   -5.1962    0.0000 C   0  0  0  0  0  0  0  0  0  0  0  0
  -12.0000   -5.1962    0.0000 N   0  0  0  0  0  0  0  0  0  0  0  0
  -12.8817   -6.4097    0.0000 C   0  0  0  0  0  0  0  0  0  0  0  0
  -14.3083   -5.9462    0.0000 C   0  0  0  0  0  0  0  0  0  0  0  0
  -14.3083   -4.4462    0.0000 C   0  0  0  0  0  0  0  0  0  0  0  0
  -12.8817   -3.9826    0.0000 C   0  0  0  0  0  0  0  0  0  0  0  0
   -8.2500   -3.8971    0.0000 C   0  0  0  0  0  0  0  0  0  0  0  0
   -3.7500   -1.2990    0.0000 N   0  0  0  0  0  0  0  0  0  0  0  0
   -0.7500    1.2990    0.0000 C   0  0  0  0  0  0  0  0  0  0  0  0
    0.7500    1.2990    0.0000 C   0  0  0  0  0  0  0  0  0  0  0  0
  1  2  1  0
  2  3  2  0
  2  4  2  0
  2  5  1  0
  5  6  1  0
  6  7  2  0
  7  8  1  0
  8  9  2  0
  9 10  1  0
 10 11  2  0
 11 12  1  0
 12 13  2  0
 13 14  1  0
 14 15  1  0
 15 16  1  0
 16 17  2  0
 17 18  1  0
 18 19  2  0
 19 20  1  0
 20 21  1  0
 21 22  1  0
 22 23  1  0
 23 24  1  0
 24 25  1  0
 25 26  1  0
 20 27  2  0
 14 28  2  0
  9 29  1  0
 29 30  2  0
 30  6  1  0
 28 10  1  0
 27 16  1  0
 26 22  1  0
M  END
>  <Compound_ID>  (100) 
CHEMBL1078275

>  <Active>  (100) 
1

>  <Smiles>  (100) 
CS(=O)(=O)Nc1ccc(-c2ccnc(Nc3cccc(CN4CCCC4)c3)n2)cc1

>  <canonical_smi>  (100) 
CS(=O)(=O)Nc1ccc(-c2ccnc(Nc3cccc(CN4CCCC4)c3)n2)cc1

>  <Set>  (100) 
G2 active

>  <Set_type>  (100) 
Test

>  <MW>  (100) 
423.54

>  <HBD>  (100) 
2

>  <HBA>  (100) 
6

>  <NRB>  (100) 
7

>  <NR>  (100) 
4

>  <NAR>  (100) 
3

>  <PSA>  (100) 
87.22

>  <Standard Type>  (100) 
nan

>  <Standard Relation>  (100) 
nan

>  <Standard Units>  (100) 
nan

>  <Standard Value>  (100) 
nan

>  <Assay ChEMBL ID>  (100) 
nan

>  <Assay Description>  (100) 
nan

>  <BAO Label>  (100) 
nan

$$$$

     RDKit          2D

 31 34  0  0  0  0  0  0  0  0999 V2000
    4.5000   -2.5981    0.0000 C   0  0  0  0  0  0  0  0  0  0  0  0
    3.7500   -1.2990    0.0000 S   0  0  0  0  0  0  0  0  0  0  0  0
    2.4510   -2.0490    0.0000 O   0  0  0  0  0  0  0  0  0  0  0  0
    5.0490   -0.5490    0.0000 O   0  0  0  0  0  0  0  0  0  0  0  0
    3.0000    0.0000    0.0000 N   0  0  0  0  0  0  0  0  0  0  0  0
    1.5000    0.0000    0.0000 C   0  0  0  0  0  0  0  0  0  0  0  0
    0.7500   -1.2990    0.0000 C   0  0  0  0  0  0  0  0  0  0  0  0
   -0.7500   -1.2990    0.0000 C   0  0  0  0  0  0  0  0  0  0  0  0
   -1.5000    0.0000    0.0000 C   0  0  0  0  0  0  0  0  0  0  0  0
   -3.0000    0.0000    0.0000 C   0  0  0  0  0  0  0  0  0  0  0  0
   -3.7500    1.2990    0.0000 C   0  0  0  0  0  0  0  0  0  0  0  0
   -5.2500    1.2990    0.0000 C   0  0  0  0  0  0  0  0  0  0  0  0
   -6.0000    0.0000    0.0000 N   0  0  0  0  0  0  0  0  0  0  0  0
   -5.2500   -1.2990    0.0000 C   0  0  0  0  0  0  0  0  0  0  0  0
   -6.0000   -2.5981    0.0000 N   0  0  0  0  0  0  0  0  0  0  0  0
   -7.5000   -2.5981    0.0000 C   0  0  0  0  0  0  0  0  0  0  0  0
   -8.2500   -1.2990    0.0000 C   0  0  0  0  0  0  0  0  0  0  0  0
   -9.7500   -1.2990    0.0000 C   0  0  0  0  0  0  0  0  0  0  0  0
  -10.5000   -2.5981    0.0000 C   0  0  0  0  0  0  0  0  0  0  0  0
   -9.7500   -3.8971    0.0000 C   0  0  0  0  0  0  0  0  0  0  0  0
  -10.5000   -5.1962    0.0000 C   0  0  0  0  0  0  0  0  0  0  0  0
  -12.0000   -5.1962    0.0000 N   0  0  0  0  0  0  0  0  0  0  0  0
  -12.7500   -3.8971    0.0000 C   0  0  0  0  0  0  0  0  0  0  0  0
  -14.2500   -3.8971    0.0000 C   0  0  0  0  0  0  0  0  0  0  0  0
  -15.0000   -5.1962    0.0000 O   0  0  0  0  0  0  0  0  0  0  0  0
  -14.2500   -6.4952    0.0000 C   0  0  0  0  0  0  0  0  0  0  0  0
  -12.7500   -6.4952    0.0000 C   0  0  0  0  0  0  0  0  0  0  0  0
   -8.2500   -3.8971    0.0000 C   0  0  0  0  0  0  0  0  0  0  0  0
   -3.7500   -1.2990    0.0000 N   0  0  0  0  0  0  0  0  0  0  0  0
   -0.7500    1.2990    0.0000 C   0  0  0  0  0  0  0  0  0  0  0  0
    0.7500    1.2990    0.0000 C   0  0  0  0  0  0  0  0  0  0  0  0
  1  2  1  0
  2  3  2  0
  2  4  2  0
  2  5  1  0
  5  6  1  0
  6  7  2  0
  7  8  1  0
  8  9  2  0
  9 10  1  0
 10 11  2  0
 11 12  1  0
 12 13  2  0
 13 14  1  0
 14 15  1  0
 15 16  1  0
 16 17  2  0
 17 18  1  0
 18 19  2  0
 19 20  1  0
 20 21  1  0
 21 22  1  0
 22 23  1  0
 23 24  1  0
 24 25  1  0
 25 26  1  0
 26 27  1  0
 20 28  2  0
 14 29  2  0
  9 30  1  0
 30 31  2  0
 31  6  1  0
 29 10  1  0
 28 16  1  0
 27 22  1  0
M  END
>  <Compound_ID>  (101) 
CHEMBL1078277

>  <Active>  (101) 
1

>  <Smiles>  (101) 
CS(=O)(=O)Nc1ccc(-c2ccnc(Nc3cccc(CN4CCOCC4)c3)n2)cc1

>  <canonical_smi>  (101) 
CS(=O)(=O)Nc1ccc(-c2ccnc(Nc3cccc(CN4CCOCC4)c3)n2)cc1

>  <Set>  (101) 
G2 active

>  <Set_type>  (101) 
Test

>  <MW>  (101) 
439.54

>  <HBD>  (101) 
2

>  <HBA>  (101) 
7

>  <NRB>  (101) 
7

>  <NR>  (101) 
4

>  <NAR>  (101) 
3

>  <PSA>  (101) 
96.45

>  <Standard Type>  (101) 
nan

>  <Standard Relation>  (101) 
nan

>  <Standard Units>  (101) 
nan

>  <Standard Value>  (101) 
nan

>  <Assay ChEMBL ID>  (101) 
nan

>  <Assay Description>  (101) 
nan

>  <BAO Label>  (101) 
nan

$$$$

     RDKit          2D

 31 34  0  0  0  0  0  0  0  0999 V2000
    4.5000   -2.5981    0.0000 C   0  0  0  0  0  0  0  0  0  0  0  0
    3.7500   -1.2990    0.0000 S   0  0  0  0  0  0  0  0  0  0  0  0
    2.4510   -2.0490    0.0000 O   0  0  0  0  0  0  0  0  0  0  0  0
    5.0490   -0.5490    0.0000 O   0  0  0  0  0  0  0  0  0  0  0  0
    3.0000    0.0000    0.0000 N   0  0  0  0  0  0  0  0  0  0  0  0
    1.5000    0.0000    0.0000 C   0  0  0  0  0  0  0  0  0  0  0  0
    0.7500   -1.2990    0.0000 C   0  0  0  0  0  0  0  0  0  0  0  0
   -0.7500   -1.2990    0.0000 C   0  0  0  0  0  0  0  0  0  0  0  0
   -1.5000    0.0000    0.0000 C   0  0  0  0  0  0  0  0  0  0  0  0
   -3.0000    0.0000    0.0000 C   0  0  0  0  0  0  0  0  0  0  0  0
   -3.7500    1.2990    0.0000 C   0  0  0  0  0  0  0  0  0  0  0  0
   -5.2500    1.2990    0.0000 C   0  0  0  0  0  0  0  0  0  0  0  0
   -6.0000    0.0000    0.0000 N   0  0  0  0  0  0  0  0  0  0  0  0
   -5.2500   -1.2990    0.0000 C   0  0  0  0  0  0  0  0  0  0  0  0
   -6.0000   -2.5981    0.0000 N   0  0  0  0  0  0  0  0  0  0  0  0
   -7.5000   -2.5981    0.0000 C   0  0  0  0  0  0  0  0  0  0  0  0
   -8.2500   -1.2990    0.0000 C   0  0  0  0  0  0  0  0  0  0  0  0
   -9.7500   -1.2990    0.0000 C   0  0  0  0  0  0  0  0  0  0  0  0
  -10.5000   -2.5981    0.0000 C   0  0  0  0  0  0  0  0  0  0  0  0
  -12.0000   -2.5981    0.0000 C   0  0  0  0  0  0  0  0  0  0  0  0
  -12.7500   -1.2990    0.0000 N   0  0  0  0  0  0  0  0  0  0  0  0
  -12.0000    0.0000    0.0000 C   0  0  0  0  0  0  0  0  0  0  0  0
  -12.7500    1.2990    0.0000 C   0  0  0  0  0  0  0  0  0  0  0  0
  -14.2500    1.2990    0.0000 O   0  0  0  0  0  0  0  0  0  0  0  0
  -15.0000    0.0000    0.0000 C   0  0  0  0  0  0  0  0  0  0  0  0
  -14.2500   -1.2990    0.0000 C   0  0  0  0  0  0  0  0  0  0  0  0
   -9.7500   -3.8971    0.0000 C   0  0  0  0  0  0  0  0  0  0  0  0
   -8.2500   -3.8971    0.0000 C   0  0  0  0  0  0  0  0  0  0  0  0
   -3.7500   -1.2990    0.0000 N   0  0  0  0  0  0  0  0  0  0  0  0
   -0.7500    1.2990    0.0000 C   0  0  0  0  0  0  0  0  0  0  0  0
    0.7500    1.2990    0.0000 C   0  0  0  0  0  0  0  0  0  0  0  0
  1  2  1  0
  2  3  2  0
  2  4  2  0
  2  5  1  0
  5  6  1  0
  6  7  2  0
  7  8  1  0
  8  9  2  0
  9 10  1  0
 10 11  2  0
 11 12  1  0
 12 13  2  0
 13 14  1  0
 14 15  1  0
 15 16  1  0
 16 17  2  0
 17 18  1  0
 18 19  2  0
 19 20  1  0
 20 21  1  0
 21 22  1  0
 22 23  1  0
 23 24  1  0
 24 25  1  0
 25 26  1  0
 19 27  1  0
 27 28  2  0
 14 29  2  0
  9 30  1  0
 30 31  2  0
 31  6  1  0
 29 10  1  0
 28 16  1  0
 26 21  1  0
M  END
>  <Compound_ID>  (102) 
CHEMBL1078689

>  <Active>  (102) 
1

>  <Smiles>  (102) 
CS(=O)(=O)Nc1ccc(-c2ccnc(Nc3ccc(CN4CCOCC4)cc3)n2)cc1

>  <canonical_smi>  (102) 
CS(=O)(=O)Nc1ccc(-c2ccnc(Nc3ccc(CN4CCOCC4)cc3)n2)cc1

>  <Set>  (102) 
G2 active

>  <Set_type>  (102) 
Test

>  <MW>  (102) 
439.54

>  <HBD>  (102) 
2

>  <HBA>  (102) 
7

>  <NRB>  (102) 
7

>  <NR>  (102) 
4

>  <NAR>  (102) 
3

>  <PSA>  (102) 
96.45

>  <Standard Type>  (102) 
nan

>  <Standard Relation>  (102) 
nan

>  <Standard Units>  (102) 
nan

>  <Standard Value>  (102) 
nan

>  <Assay ChEMBL ID>  (102) 
nan

>  <Assay Description>  (102) 
nan

>  <BAO Label>  (102) 
nan

$$$$

     RDKit          2D

 37 42  0  0  0  0  0  0  0  0999 V2000
    3.7500   -1.2990    0.0000 C   0  0  0  0  0  0  0  0  0  0  0  0
    3.0000   -2.5981    0.0000 C   0  0  0  0  0  0  0  0  0  0  0  0
    1.5000   -2.5981    0.0000 N   0  0  0  0  0  0  0  0  0  0  0  0
    0.7500   -1.2990    0.0000 C   0  0  0  0  0  0  0  0  0  0  0  0
    1.5000    0.0000    0.0000 N   0  0  0  0  0  0  0  0  0  0  0  0
    0.7500    1.2990    0.0000 C   0  0  0  0  0  0  0  0  0  0  0  0
    1.5000    2.5981    0.0000 N   0  0  0  0  0  0  0  0  0  0  0  0
    0.8899    3.9684    0.0000 C   0  0  0  0  0  0  0  0  0  0  0  0
    2.0046    4.9721    0.0000 N   0  0  0  0  0  0  0  0  0  0  0  0
    3.3037    4.2221    0.0000 C   0  0  0  0  0  0  0  0  0  0  0  0
    4.7302    4.6856    0.0000 C   0  0  0  0  0  0  0  0  0  0  0  0
    5.8450    3.6819    0.0000 C   0  0  0  0  0  0  0  0  0  0  0  0
    5.5331    2.2147    0.0000 N   0  0  0  0  0  0  0  0  0  0  0  0
    4.1065    1.7512    0.0000 C   0  0  0  0  0  0  0  0  0  0  0  0
    2.9918    2.7549    0.0000 C   0  0  0  0  0  0  0  0  0  0  0  0
   -0.7500    1.2990    0.0000 N   0  0  0  0  0  0  0  0  0  0  0  0
   -1.5000    0.0000    0.0000 C   0  0  0  0  0  0  0  0  0  0  0  0
   -0.7500   -1.2990    0.0000 C   0  0  0  0  0  0  0  0  0  0  0  0
   -1.7537   -2.4138    0.0000 C   0  0  0  0  0  0  0  0  0  0  0  0
   -3.1240   -1.8037    0.0000 C   0  0  0  0  0  0  0  0  0  0  0  0
   -4.4231   -2.5537    0.0000 C   0  0  0  0  0  0  0  0  0  0  0  0
   -4.4231   -4.0537    0.0000 O   0  0  0  0  0  0  0  0  0  0  0  0
   -5.7221   -1.8037    0.0000 N   0  0  0  0  0  0  0  0  0  0  0  0
   -5.7221   -0.3037    0.0000 C   0  0  0  0  0  0  0  0  0  0  0  0
   -7.0211    0.4463    0.0000 C   0  0  0  0  0  0  0  0  0  0  0  0
   -8.3202   -0.3037    0.0000 N   0  0  0  0  0  0  0  0  0  0  0  0
   -9.6192    0.4463    0.0000 C   0  0  0  0  0  0  0  0  0  0  0  0
   -8.3202   -1.8037    0.0000 C   0  0  0  0  0  0  0  0  0  0  0  0
   -7.0211   -2.5537    0.0000 C   0  0  0  0  0  0  0  0  0  0  0  0
   -2.9672   -0.3119    0.0000 N   0  0  0  0  0  0  0  0  0  0  0  0
   -4.0819    0.6918    0.0000 C   0  0  0  0  0  0  0  0  0  0  0  0
    3.7500   -3.8971    0.0000 C   0  0  0  0  0  0  0  0  0  0  0  0
    5.2500   -3.8971    0.0000 C   0  0  0  0  0  0  0  0  0  0  0  0
    6.0000   -5.1962    0.0000 C   0  0  0  0  0  0  0  0  0  0  0  0
    5.2500   -6.4952    0.0000 C   0  0  0  0  0  0  0  0  0  0  0  0
    3.7500   -6.4952    0.0000 C   0  0  0  0  0  0  0  0  0  0  0  0
    3.0000   -5.1962    0.0000 C   0  0  0  0  0  0  0  0  0  0  0  0
  2  1  1  1
  2  3  1  0
  3  4  1  0
  4  5  2  0
  5  6  1  0
  6  7  1  0
  7  8  1  0
  8  9  2  0
  9 10  1  0
 10 11  2  0
 11 12  1  0
 12 13  2  0
 13 14  1  0
 14 15  2  0
  6 16  2  0
 16 17  1  0
 17 18  2  0
 18 19  1  0
 19 20  2  0
 20 21  1  0
 21 22  2  0
 21 23  1  0
 23 24  1  0
 24 25  1  0
 25 26  1  0
 26 27  1  0
 26 28  1  0
 28 29  1  0
 20 30  1  0
 30 31  1  0
  2 32  1  0
 32 33  2  0
 33 34  1  0
 34 35  2  0
 35 36  1  0
 36 37  2  0
 18  4  1  0
 29 23  1  0
 37 32  1  0
 15  7  1  0
 30 17  1  0
 15 10  1  0
M  END
>  <Compound_ID>  (103) 
CHEMBL233151

>  <Active>  (103) 
1

>  <Smiles>  (103) 
C[C@H](Nc1nc(-n2cnc3ccncc32)nc2c1cc(C(=O)N1CCN(C)CC1)n2C)c1ccccc1

>  <canonical_smi>  (103) 
C[C@H](Nc1nc(-n2cnc3ccncc32)nc2c1cc(C(=O)N1CCN(C)CC1)n2C)c1ccccc1

>  <Set>  (103) 
G2 active

>  <Set_type>  (103) 
Test

>  <MW>  (103) 
495.59

>  <HBD>  (103) 
1

>  <HBA>  (103) 
7

>  <NRB>  (103) 
5

>  <NR>  (103) 
6

>  <NAR>  (103) 
5

>  <PSA>  (103) 
97.0

>  <Standard Type>  (103) 
nan

>  <Standard Relation>  (103) 
nan

>  <Standard Units>  (103) 
nan

>  <Standard Value>  (103) 
nan

>  <Assay ChEMBL ID>  (103) 
nan

>  <Assay Description>  (103) 
nan

>  <BAO Label>  (103) 
nan

$$$$

     RDKit          2D

 31 34  0  0  0  0  0  0  0  0999 V2000
    4.5000   -2.5981    0.0000 C   0  0  0  0  0  0  0  0  0  0  0  0
    3.7500   -1.2990    0.0000 S   0  0  0  0  0  0  0  0  0  0  0  0
    2.4510   -2.0490    0.0000 O   0  0  0  0  0  0  0  0  0  0  0  0
    5.0490   -0.5490    0.0000 O   0  0  0  0  0  0  0  0  0  0  0  0
    3.0000    0.0000    0.0000 N   0  0  0  0  0  0  0  0  0  0  0  0
    1.5000    0.0000    0.0000 C   0  0  0  0  0  0  0  0  0  0  0  0
    0.7500   -1.2990    0.0000 C   0  0  0  0  0  0  0  0  0  0  0  0
   -0.7500   -1.2990    0.0000 C   0  0  0  0  0  0  0  0  0  0  0  0
   -1.5000    0.0000    0.0000 C   0  0  0  0  0  0  0  0  0  0  0  0
   -3.0000    0.0000    0.0000 C   0  0  0  0  0  0  0  0  0  0  0  0
   -3.7500    1.2990    0.0000 C   0  0  0  0  0  0  0  0  0  0  0  0
   -5.2500    1.2990    0.0000 C   0  0  0  0  0  0  0  0  0  0  0  0
   -6.0000    0.0000    0.0000 N   0  0  0  0  0  0  0  0  0  0  0  0
   -5.2500   -1.2990    0.0000 C   0  0  0  0  0  0  0  0  0  0  0  0
   -6.0000   -2.5981    0.0000 N   0  0  0  0  0  0  0  0  0  0  0  0
   -7.5000   -2.5981    0.0000 C   0  0  0  0  0  0  0  0  0  0  0  0
   -8.2500   -1.2990    0.0000 C   0  0  0  0  0  0  0  0  0  0  0  0
   -9.7500   -1.2990    0.0000 C   0  0  0  0  0  0  0  0  0  0  0  0
  -10.5000   -2.5981    0.0000 C   0  0  0  0  0  0  0  0  0  0  0  0
  -12.0000   -2.5981    0.0000 C   0  0  0  0  0  0  0  0  0  0  0  0
  -12.7500   -1.2990    0.0000 N   0  0  0  0  0  0  0  0  0  0  0  0
  -12.0000    0.0000    0.0000 C   0  0  0  0  0  0  0  0  0  0  0  0
  -12.7500    1.2990    0.0000 C   0  0  0  0  0  0  0  0  0  0  0  0
  -14.2500    1.2990    0.0000 C   0  0  0  0  0  0  0  0  0  0  0  0
  -15.0000    0.0000    0.0000 C   0  0  0  0  0  0  0  0  0  0  0  0
  -14.2500   -1.2990    0.0000 C   0  0  0  0  0  0  0  0  0  0  0  0
   -9.7500   -3.8971    0.0000 C   0  0  0  0  0  0  0  0  0  0  0  0
   -8.2500   -3.8971    0.0000 C   0  0  0  0  0  0  0  0  0  0  0  0
   -3.7500   -1.2990    0.0000 N   0  0  0  0  0  0  0  0  0  0  0  0
   -0.7500    1.2990    0.0000 C   0  0  0  0  0  0  0  0  0  0  0  0
    0.7500    1.2990    0.0000 C   0  0  0  0  0  0  0  0  0  0  0  0
  1  2  1  0
  2  3  2  0
  2  4  2  0
  2  5  1  0
  5  6  1  0
  6  7  2  0
  7  8  1  0
  8  9  2  0
  9 10  1  0
 10 11  2  0
 11 12  1  0
 12 13  2  0
 13 14  1  0
 14 15  1  0
 15 16  1  0
 16 17  2  0
 17 18  1  0
 18 19  2  0
 19 20  1  0
 20 21  1  0
 21 22  1  0
 22 23  1  0
 23 24  1  0
 24 25  1  0
 25 26  1  0
 19 27  1  0
 27 28  2  0
 14 29  2  0
  9 30  1  0
 30 31  2  0
 31  6  1  0
 29 10  1  0
 28 16  1  0
 26 21  1  0
M  END
>  <Compound_ID>  (104) 
CHEMBL1078276

>  <Active>  (104) 
1

>  <Smiles>  (104) 
CS(=O)(=O)Nc1ccc(-c2ccnc(Nc3ccc(CN4CCCCC4)cc3)n2)cc1

>  <canonical_smi>  (104) 
CS(=O)(=O)Nc1ccc(-c2ccnc(Nc3ccc(CN4CCCCC4)cc3)n2)cc1

>  <Set>  (104) 
G2 active

>  <Set_type>  (104) 
Test

>  <MW>  (104) 
437.57

>  <HBD>  (104) 
2

>  <HBA>  (104) 
6

>  <NRB>  (104) 
7

>  <NR>  (104) 
4

>  <NAR>  (104) 
3

>  <PSA>  (104) 
87.22

>  <Standard Type>  (104) 
nan

>  <Standard Relation>  (104) 
nan

>  <Standard Units>  (104) 
nan

>  <Standard Value>  (104) 
nan

>  <Assay ChEMBL ID>  (104) 
nan

>  <Assay Description>  (104) 
nan

>  <BAO Label>  (104) 
nan

$$$$

     RDKit          2D

 32 35  0  0  0  0  0  0  0  0999 V2000
    4.5000   -2.5981    0.0000 C   0  0  0  0  0  0  0  0  0  0  0  0
    3.7500   -1.2990    0.0000 S   0  0  0  0  0  0  0  0  0  0  0  0
    2.4510   -2.0490    0.0000 O   0  0  0  0  0  0  0  0  0  0  0  0
    5.0490   -0.5490    0.0000 O   0  0  0  0  0  0  0  0  0  0  0  0
    3.0000    0.0000    0.0000 N   0  0  0  0  0  0  0  0  0  0  0  0
    1.5000    0.0000    0.0000 C   0  0  0  0  0  0  0  0  0  0  0  0
    0.7500   -1.2990    0.0000 C   0  0  0  0  0  0  0  0  0  0  0  0
   -0.7500   -1.2990    0.0000 C   0  0  0  0  0  0  0  0  0  0  0  0
   -1.5000    0.0000    0.0000 C   0  0  0  0  0  0  0  0  0  0  0  0
   -3.0000    0.0000    0.0000 C   0  0  0  0  0  0  0  0  0  0  0  0
   -3.7500    1.2990    0.0000 C   0  0  0  0  0  0  0  0  0  0  0  0
   -5.2500    1.2990    0.0000 C   0  0  0  0  0  0  0  0  0  0  0  0
   -6.0000    0.0000    0.0000 N   0  0  0  0  0  0  0  0  0  0  0  0
   -5.2500   -1.2990    0.0000 C   0  0  0  0  0  0  0  0  0  0  0  0
   -6.0000   -2.5981    0.0000 N   0  0  0  0  0  0  0  0  0  0  0  0
   -7.5000   -2.5981    0.0000 C   0  0  0  0  0  0  0  0  0  0  0  0
   -8.2500   -1.2990    0.0000 C   0  0  0  0  0  0  0  0  0  0  0  0
   -9.7500   -1.2990    0.0000 C   0  0  0  0  0  0  0  0  0  0  0  0
  -10.5000   -2.5981    0.0000 C   0  0  0  0  0  0  0  0  0  0  0  0
   -9.7500   -3.8971    0.0000 C   0  0  0  0  0  0  0  0  0  0  0  0
  -10.5000   -5.1962    0.0000 C   0  0  0  0  0  0  0  0  0  0  0  0
  -12.0000   -5.1962    0.0000 N   0  0  0  0  0  0  0  0  0  0  0  0
  -12.7500   -3.8971    0.0000 C   0  0  0  0  0  0  0  0  0  0  0  0
  -14.2500   -3.8971    0.0000 C   0  0  0  0  0  0  0  0  0  0  0  0
  -15.0000   -5.1962    0.0000 C   0  0  0  0  0  0  0  0  0  0  0  0
  -16.5000   -5.1962    0.0000 O   0  0  0  0  0  0  0  0  0  0  0  0
  -14.2500   -6.4952    0.0000 C   0  0  0  0  0  0  0  0  0  0  0  0
  -12.7500   -6.4952    0.0000 C   0  0  0  0  0  0  0  0  0  0  0  0
   -8.2500   -3.8971    0.0000 C   0  0  0  0  0  0  0  0  0  0  0  0
   -3.7500   -1.2990    0.0000 N   0  0  0  0  0  0  0  0  0  0  0  0
   -0.7500    1.2990    0.0000 C   0  0  0  0  0  0  0  0  0  0  0  0
    0.7500    1.2990    0.0000 C   0  0  0  0  0  0  0  0  0  0  0  0
  1  2  1  0
  2  3  2  0
  2  4  2  0
  2  5  1  0
  5  6  1  0
  6  7  2  0
  7  8  1  0
  8  9  2  0
  9 10  1  0
 10 11  2  0
 11 12  1  0
 12 13  2  0
 13 14  1  0
 14 15  1  0
 15 16  1  0
 16 17  2  0
 17 18  1  0
 18 19  2  0
 19 20  1  0
 20 21  1  0
 21 22  1  0
 22 23  1  0
 23 24  1  0
 24 25  1  0
 25 26  1  0
 25 27  1  0
 27 28  1  0
 20 29  2  0
 14 30  2  0
  9 31  1  0
 31 32  2  0
 32  6  1  0
 30 10  1  0
 29 16  1  0
 28 22  1  0
M  END
>  <Compound_ID>  (105) 
CHEMBL1078688

>  <Active>  (105) 
1

>  <Smiles>  (105) 
CS(=O)(=O)Nc1ccc(-c2ccnc(Nc3cccc(CN4CCC(O)CC4)c3)n2)cc1

>  <canonical_smi>  (105) 
CS(=O)(=O)Nc1ccc(-c2ccnc(Nc3cccc(CN4CCC(O)CC4)c3)n2)cc1

>  <Set>  (105) 
G2 active

>  <Set_type>  (105) 
Test

>  <MW>  (105) 
453.57

>  <HBD>  (105) 
3

>  <HBA>  (105) 
7

>  <NRB>  (105) 
7

>  <NR>  (105) 
4

>  <NAR>  (105) 
3

>  <PSA>  (105) 
107.45

>  <Standard Type>  (105) 
nan

>  <Standard Relation>  (105) 
nan

>  <Standard Units>  (105) 
nan

>  <Standard Value>  (105) 
nan

>  <Assay ChEMBL ID>  (105) 
nan

>  <Assay Description>  (105) 
nan

>  <BAO Label>  (105) 
nan

$$$$

     RDKit          2D

 32 35  0  0  0  0  0  0  0  0999 V2000
    3.0000    0.0000    0.0000 C   0  0  0  0  0  0  0  0  0  0  0  0
    1.5000    0.0000    0.0000 N   0  0  0  0  0  0  0  0  0  0  0  0
    0.7500   -1.2990    0.0000 C   0  0  0  0  0  0  0  0  0  0  0  0
   -0.7500   -1.2990    0.0000 C   0  0  0  0  0  0  0  0  0  0  0  0
   -1.5000    0.0000    0.0000 N   0  0  0  0  0  0  0  0  0  0  0  0
   -3.0000    0.0000    0.0000 C   0  0  0  0  0  0  0  0  0  0  0  0
   -3.7500    1.2990    0.0000 C   0  0  0  0  0  0  0  0  0  0  0  0
   -5.2500    1.2990    0.0000 C   0  0  0  0  0  0  0  0  0  0  0  0
   -6.0000    0.0000    0.0000 C   0  0  0  0  0  0  0  0  0  0  0  0
   -7.5000    0.0000    0.0000 N   0  0  0  0  0  0  0  0  0  0  0  0
   -8.2500    1.2990    0.0000 C   0  0  0  0  0  0  0  0  0  0  0  0
   -7.5000    2.5981    0.0000 N   0  0  0  0  0  0  0  0  0  0  0  0
   -8.2500    3.8971    0.0000 C   0  0  0  0  0  0  0  0  0  0  0  0
   -9.7500    3.8971    0.0000 C   0  0  0  0  0  0  0  0  0  0  0  0
  -10.5000    2.5981    0.0000 C   0  0  0  0  0  0  0  0  0  0  0  0
  -12.0000    2.5981    0.0000 C   0  0  0  0  0  0  0  0  0  0  0  0
  -12.7500    3.8971    0.0000 C   0  0  0  0  0  0  0  0  0  0  0  0
  -14.2500    3.8971    0.0000 C   0  0  0  0  0  0  0  0  0  0  0  0
  -15.0000    2.5981    0.0000 C   0  0  0  0  0  0  0  0  0  0  0  0
  -16.5000    2.5981    0.0000 C   0  0  0  0  0  0  0  0  0  0  0  0
  -17.2500    1.2990    0.0000 O   0  0  0  0  0  0  0  0  0  0  0  0
  -17.2500    3.8971    0.0000 N   0  0  0  0  0  0  0  0  0  0  0  0
  -18.7500    3.8971    0.0000 C   0  0  0  0  0  0  0  0  0  0  0  0
  -19.5000    5.1962    0.0000 C   0  0  0  0  0  0  0  0  0  0  0  0
  -20.2500    6.4952    0.0000 N   0  0  0  0  0  0  0  0  0  0  0  0
  -14.2500    1.2990    0.0000 C   0  0  0  0  0  0  0  0  0  0  0  0
  -12.7500    1.2990    0.0000 C   0  0  0  0  0  0  0  0  0  0  0  0
   -9.7500    1.2990    0.0000 N   0  0  0  0  0  0  0  0  0  0  0  0
   -5.2500   -1.2990    0.0000 C   0  0  0  0  0  0  0  0  0  0  0  0
   -3.7500   -1.2990    0.0000 C   0  0  0  0  0  0  0  0  0  0  0  0
   -0.7500    1.2990    0.0000 C   0  0  0  0  0  0  0  0  0  0  0  0
    0.7500    1.2990    0.0000 C   0  0  0  0  0  0  0  0  0  0  0  0
  1  2  1  0
  2  3  1  0
  3  4  1  0
  4  5  1  0
  5  6  1  0
  6  7  2  0
  7  8  1  0
  8  9  2  0
  9 10  1  0
 10 11  1  0
 11 12  2  0
 12 13  1  0
 13 14  2  0
 14 15  1  0
 15 16  1  0
 16 17  2  0
 17 18  1  0
 18 19  2  0
 19 20  1  0
 20 21  2  0
 20 22  1  0
 22 23  1  0
 23 24  1  0
 24 25  3  0
 19 26  1  0
 26 27  2  0
 15 28  2  0
  9 29  1  0
 29 30  2  0
  5 31  1  0
 31 32  1  0
 32  2  1  0
 30  6  1  0
 28 11  1  0
 27 16  1  0
M  END
>  <Compound_ID>  (106) 
CHEMBL1078934

>  <Active>  (106) 
1

>  <Smiles>  (106) 
CN1CCN(c2ccc(Nc3nccc(-c4ccc(C(=O)NCC#N)cc4)n3)cc2)CC1

>  <canonical_smi>  (106) 
CN1CCN(c2ccc(Nc3nccc(-c4ccc(C(=O)NCC#N)cc4)n3)cc2)CC1

>  <Set>  (106) 
G2 active

>  <Set_type>  (106) 
Test

>  <MW>  (106) 
427.51

>  <HBD>  (106) 
2

>  <HBA>  (106) 
7

>  <NRB>  (106) 
6

>  <NR>  (106) 
4

>  <NAR>  (106) 
3

>  <PSA>  (106) 
97.18

>  <Standard Type>  (106) 
nan

>  <Standard Relation>  (106) 
nan

>  <Standard Units>  (106) 
nan

>  <Standard Value>  (106) 
nan

>  <Assay ChEMBL ID>  (106) 
nan

>  <Assay Description>  (106) 
nan

>  <BAO Label>  (106) 
nan

$$$$

     RDKit          2D

 40 45  0  0  0  0  0  0  0  0999 V2000
    3.7500   -1.2990    0.0000 C   0  0  0  0  0  0  0  0  0  0  0  0
    3.0000   -2.5981    0.0000 C   0  0  0  0  0  0  0  0  0  0  0  0
    1.5000   -2.5981    0.0000 N   0  0  0  0  0  0  0  0  0  0  0  0
    0.7500   -1.2990    0.0000 C   0  0  0  0  0  0  0  0  0  0  0  0
    1.5000    0.0000    0.0000 N   0  0  0  0  0  0  0  0  0  0  0  0
    0.7500    1.2990    0.0000 C   0  0  0  0  0  0  0  0  0  0  0  0
    1.5000    2.5981    0.0000 N   0  0  0  0  0  0  0  0  0  0  0  0
    0.8899    3.9684    0.0000 C   0  0  0  0  0  0  0  0  0  0  0  0
    2.0046    4.9721    0.0000 N   0  0  0  0  0  0  0  0  0  0  0  0
    3.3037    4.2221    0.0000 C   0  0  0  0  0  0  0  0  0  0  0  0
    4.7302    4.6856    0.0000 C   0  0  0  0  0  0  0  0  0  0  0  0
    5.8450    3.6819    0.0000 C   0  0  0  0  0  0  0  0  0  0  0  0
    5.5331    2.2147    0.0000 N   0  0  0  0  0  0  0  0  0  0  0  0
    4.1065    1.7512    0.0000 C   0  0  0  0  0  0  0  0  0  0  0  0
    2.9918    2.7549    0.0000 C   0  0  0  0  0  0  0  0  0  0  0  0
   -0.7500    1.2990    0.0000 N   0  0  0  0  0  0  0  0  0  0  0  0
   -1.5000    0.0000    0.0000 C   0  0  0  0  0  0  0  0  0  0  0  0
   -0.7500   -1.2990    0.0000 C   0  0  0  0  0  0  0  0  0  0  0  0
   -1.7537   -2.4138    0.0000 C   0  0  0  0  0  0  0  0  0  0  0  0
   -3.1240   -1.8037    0.0000 C   0  0  0  0  0  0  0  0  0  0  0  0
   -4.4231   -2.5537    0.0000 C   0  0  0  0  0  0  0  0  0  0  0  0
   -4.4231   -4.0537    0.0000 O   0  0  0  0  0  0  0  0  0  0  0  0
   -5.7221   -1.8037    0.0000 N   0  0  0  0  0  0  0  0  0  0  0  0
   -7.0211   -2.5537    0.0000 C   0  0  0  0  0  0  0  0  0  0  0  0
   -8.3202   -1.8037    0.0000 C   0  0  0  0  0  0  0  0  0  0  0  0
   -9.6192   -2.5537    0.0000 C   0  0  0  0  0  0  0  0  0  0  0  0
  -10.9182   -1.8037    0.0000 N   0  0  0  0  0  0  0  0  0  0  0  0
  -10.9182   -0.3037    0.0000 C   0  0  0  0  0  0  0  0  0  0  0  0
  -12.2173    0.4463    0.0000 C   0  0  0  0  0  0  0  0  0  0  0  0
  -13.5163   -0.3037    0.0000 O   0  0  0  0  0  0  0  0  0  0  0  0
  -13.5163   -1.8037    0.0000 C   0  0  0  0  0  0  0  0  0  0  0  0
  -12.2173   -2.5537    0.0000 C   0  0  0  0  0  0  0  0  0  0  0  0
   -2.9672   -0.3119    0.0000 N   0  0  0  0  0  0  0  0  0  0  0  0
   -4.0819    0.6918    0.0000 C   0  0  0  0  0  0  0  0  0  0  0  0
    3.7500   -3.8971    0.0000 C   0  0  0  0  0  0  0  0  0  0  0  0
    5.2500   -3.8971    0.0000 C   0  0  0  0  0  0  0  0  0  0  0  0
    6.0000   -5.1962    0.0000 C   0  0  0  0  0  0  0  0  0  0  0  0
    5.2500   -6.4952    0.0000 C   0  0  0  0  0  0  0  0  0  0  0  0
    3.7500   -6.4952    0.0000 C   0  0  0  0  0  0  0  0  0  0  0  0
    3.0000   -5.1962    0.0000 C   0  0  0  0  0  0  0  0  0  0  0  0
  2  1  1  1
  2  3  1  0
  3  4  1  0
  4  5  2  0
  5  6  1  0
  6  7  1  0
  7  8  1  0
  8  9  2  0
  9 10  1  0
 10 11  2  0
 11 12  1  0
 12 13  2  0
 13 14  1  0
 14 15  2  0
  6 16  2  0
 16 17  1  0
 17 18  2  0
 18 19  1  0
 19 20  2  0
 20 21  1  0
 21 22  2  0
 21 23  1  0
 23 24  1  0
 24 25  1  0
 25 26  1  0
 26 27  1  0
 27 28  1  0
 28 29  1  0
 29 30  1  0
 30 31  1  0
 31 32  1  0
 20 33  1  0
 33 34  1  0
  2 35  1  0
 35 36  2  0
 36 37  1  0
 37 38  2  0
 38 39  1  0
 39 40  2  0
 18  4  1  0
 32 27  1  0
 40 35  1  0
 15  7  1  0
 33 17  1  0
 15 10  1  0
M  END
>  <Compound_ID>  (107) 
CHEMBL233969

>  <Active>  (107) 
1

>  <Smiles>  (107) 
C[C@H](Nc1nc(-n2cnc3ccncc32)nc2c1cc(C(=O)NCCCN1CCOCC1)n2C)c1ccccc1

>  <canonical_smi>  (107) 
C[C@H](Nc1nc(-n2cnc3ccncc32)nc2c1cc(C(=O)NCCCN1CCOCC1)n2C)c1ccccc1

>  <Set>  (107) 
G2 active

>  <Set_type>  (107) 
Test

>  <MW>  (107) 
539.64

>  <HBD>  (107) 
2

>  <HBA>  (107) 
8

>  <NRB>  (107) 
9

>  <NR>  (107) 
6

>  <NAR>  (107) 
5

>  <PSA>  (107) 
115.02

>  <Standard Type>  (107) 
nan

>  <Standard Relation>  (107) 
nan

>  <Standard Units>  (107) 
nan

>  <Standard Value>  (107) 
nan

>  <Assay ChEMBL ID>  (107) 
nan

>  <Assay Description>  (107) 
nan

>  <BAO Label>  (107) 
nan

$$$$
