
     RDKit          2D

 31 34  0  0  0  0  0  0  0  0999 V2000
    3.0000   -7.7942    0.0000 C   0  0  0  0  0  0  0  0  0  0  0  0
    3.7500   -6.4952    0.0000 C   0  0  0  0  0  0  0  0  0  0  0  0
    3.0000   -5.1962    0.0000 N   0  0  0  0  0  0  0  0  0  0  0  0
    1.5000   -5.1962    0.0000 C   0  0  0  0  0  0  0  0  0  0  0  0
    0.7500   -3.8971    0.0000 C   0  0  0  0  0  0  0  0  0  0  0  0
    1.5000   -2.5981    0.0000 N   0  0  0  0  0  0  0  0  0  0  0  0
    0.7500   -1.2990    0.0000 C   0  0  0  0  0  0  0  0  0  0  0  0
    1.5000    0.0000    0.0000 C   0  0  0  0  0  0  0  0  0  0  0  0
    0.7500    1.2990    0.0000 N   0  0  0  0  0  0  0  0  0  0  0  0
   -0.7500    1.2990    0.0000 C   0  0  0  0  0  0  0  0  0  0  0  0
   -1.5000    2.5981    0.0000 C   0  0  0  0  0  0  0  0  0  0  0  0
   -3.0000    2.5981    0.0000 C   0  0  0  0  0  0  0  0  0  0  0  0
   -3.7500    3.8971    0.0000 C   0  0  0  0  0  0  0  0  0  0  0  0
   -4.5000    5.1962    0.0000 F   0  0  0  0  0  0  0  0  0  0  0  0
   -2.4510    4.6471    0.0000 F   0  0  0  0  0  0  0  0  0  0  0  0
   -5.0490    3.1471    0.0000 F   0  0  0  0  0  0  0  0  0  0  0  0
   -3.7500    1.2990    0.0000 C   0  0  0  0  0  0  0  0  0  0  0  0
   -3.0000    0.0000    0.0000 C   0  0  0  0  0  0  0  0  0  0  0  0
   -3.7500   -1.2990    0.0000 N   0  0  0  0  0  0  0  0  0  0  0  0
   -5.2500   -1.2990    0.0000 C   0  0  0  0  0  0  0  0  0  0  0  0
   -6.0000   -2.5981    0.0000 C   0  0  0  0  0  0  0  0  0  0  0  0
   -7.5000   -2.5981    0.0000 C   0  0  0  0  0  0  0  0  0  0  0  0
   -8.2500   -3.8971    0.0000 C   0  0  0  0  0  0  0  0  0  0  0  0
   -7.5000   -5.1962    0.0000 C   0  0  0  0  0  0  0  0  0  0  0  0
   -8.2500   -6.4952    0.0000 F   0  0  0  0  0  0  0  0  0  0  0  0
   -6.0000   -5.1962    0.0000 C   0  0  0  0  0  0  0  0  0  0  0  0
   -5.2500   -3.8971    0.0000 C   0  0  0  0  0  0  0  0  0  0  0  0
   -1.5000    0.0000    0.0000 C   0  0  0  0  0  0  0  0  0  0  0  0
   -0.7500   -1.2990    0.0000 C   0  0  0  0  0  0  0  0  0  0  0  0
    3.0000   -2.5981    0.0000 C   0  0  0  0  0  0  0  0  0  0  0  0
    3.7500   -3.8971    0.0000 C   0  0  0  0  0  0  0  0  0  0  0  0
  1  2  1  0
  2  3  1  0
  3  4  1  0
  4  5  1  0
  5  6  1  0
  6  7  1  0
  7  8  2  0
  8  9  1  0
  9 10  2  0
 10 11  1  0
 11 12  2  0
 12 13  1  0
 13 14  1  0
 13 15  1  0
 13 16  1  0
 12 17  1  0
 17 18  2  0
 18 19  1  0
 19 20  1  0
 20 21  1  0
 21 22  2  0
 22 23  1  0
 23 24  2  0
 24 25  1  0
 24 26  1  0
 26 27  2  0
 18 28  1  0
 28 29  2  0
  6 30  1  0
 30 31  1  0
 31  3  1  0
 29  7  1  0
 28 10  1  0
 27 21  1  0
M  END
>  <Compound_ID>  (1) 
CHEMBL1766535

>  <Molecule Name>  (1) 
nan

>  <Molecular Weight>  (1) 
432.46

>  <AlogP>  (1) 
5.15

>  <Smiles>  (1) 
CCN1CCN(c2cnc3cc(C(F)(F)F)cc(NCc4ccc(F)cc4)c3c2)CC1

>  <Standard Type>  (1) 
IC50

>  <Standard Relation>  (1) 
'='

>  <Standard Units>  (1) 
nM

>  <Standard Value>  (1) 
10000.0

>  <Assay ChEMBL ID>  (1) 
CHEMBL1768668

>  <Assay Description>  (1) 
Inhibition of purified recombinant c-Met after 60 mins by ELISA

>  <BAO Format ID>  (1) 
BAO_0000357

>  <BAO Label>  (1) 
single protein format

>  <Assay Organism>  (1) 
None

>  <Target ChEMBL ID>  (1) 
CHEMBL3717

>  <Target Name>  (1) 
Hepatocyte growth factor receptor

>  <Target Organism>  (1) 
Homo sapiens

>  <Target Type>  (1) 
SINGLE PROTEIN

>  <Document ChEMBL ID>  (1) 
CHEMBL1765011

>  <Source Description>  (1) 
Scientific Literature

>  <Document Journal>  (1) 
J Med Chem

>  <Document Year>  (1) 
2011.0

>  <Active>  (1) 
0.0

$$$$

     RDKit          2D

 26 28  0  0  0  0  0  0  0  0999 V2000
   -0.7500   -3.8971    0.0000 O   0  0  0  0  0  0  0  0  0  0  0  0
    0.7500   -3.8971    0.0000 C   0  0  0  0  0  0  0  0  0  0  0  0
    1.5000   -2.5981    0.0000 N   0  0  0  0  0  0  0  0  0  0  0  0
    0.7500   -1.2990    0.0000 C   0  0  0  0  0  0  0  0  0  0  0  0
    1.5000    0.0000    0.0000 C   0  0  0  0  0  0  0  0  0  0  0  0
    0.7500    1.2990    0.0000 C   0  0  0  0  0  0  0  0  0  0  0  0
   -0.7500    1.2990    0.0000 C   0  0  0  0  0  0  0  0  0  0  0  0
   -1.5000    0.0000    0.0000 C   0  0  0  0  0  0  0  0  0  0  0  0
   -3.0000    0.0000    0.0000 O   0  0  0  0  0  0  0  0  0  0  0  0
   -0.7500   -1.2990    0.0000 C   0  0  0  0  0  0  0  0  0  0  0  0
    1.5000   -5.1962    0.0000 C   0  0  0  0  0  0  0  0  0  0  0  0
    0.7500   -6.4952    0.0000 C   0  0  0  0  0  0  0  0  0  0  0  0
    1.5000   -7.7942    0.0000 C   0  0  0  0  0  0  0  0  0  0  0  0
    3.0000   -7.7942    0.0000 C   0  0  0  0  0  0  0  0  0  0  0  0
    3.7500   -9.0933    0.0000 O   0  0  0  0  0  0  0  0  0  0  0  0
    3.0000  -10.3923    0.0000 C   0  0  0  0  0  0  0  0  0  0  0  0
    3.7500  -11.6913    0.0000 C   0  0  0  0  0  0  0  0  0  0  0  0
    3.0000  -12.9904    0.0000 C   0  0  0  0  0  0  0  0  0  0  0  0
    3.7500  -14.2894    0.0000 N   0  0  0  0  0  0  0  0  0  0  0  0
    5.2418  -14.4462    0.0000 C   0  0  0  0  0  0  0  0  0  0  0  0
    5.5537  -15.9134    0.0000 C   0  0  0  0  0  0  0  0  0  0  0  0
    4.2546  -16.6634    0.0000 C   0  0  0  0  0  0  0  0  0  0  0  0
    3.1399  -15.6597    0.0000 C   0  0  0  0  0  0  0  0  0  0  0  0
    3.7500   -6.4952    0.0000 C   0  0  0  0  0  0  0  0  0  0  0  0
    3.0000   -5.1962    0.0000 C   0  0  0  0  0  0  0  0  0  0  0  0
    3.7500   -3.8971    0.0000 O   0  0  0  0  0  0  0  0  0  0  0  0
  1  2  2  0
  2  3  1  0
  3  4  1  0
  4  5  2  0
  5  6  1  0
  6  7  2  0
  7  8  1  0
  8  9  1  0
  8 10  2  0
  2 11  1  0
 11 12  2  0
 12 13  1  0
 13 14  2  0
 14 15  1  0
 15 16  1  0
 16 17  1  0
 17 18  1  0
 18 19  1  0
 19 20  1  0
 20 21  1  0
 21 22  1  0
 22 23  1  0
 14 24  1  0
 24 25  2  0
 25 26  1  0
 10  4  1  0
 25 11  1  0
 23 19  1  0
M  END
>  <Compound_ID>  (2) 
CHEMBL1824604

>  <Molecule Name>  (2) 
nan

>  <Molecular Weight>  (2) 
356.42

>  <AlogP>  (2) 
3.21

>  <Smiles>  (2) 
O=C(Nc1cccc(O)c1)c1ccc(OCCCN2CCCC2)cc1O

>  <Standard Type>  (2) 
IC50

>  <Standard Relation>  (2) 
'='

>  <Standard Units>  (2) 
nM

>  <Standard Value>  (2) 
13803.84

>  <Assay ChEMBL ID>  (2) 
CHEMBL1825612

>  <Assay Description>  (2) 
Inhibition of recombinant GST-tagged wild type c-met kinase domain (residues 1056-1371) using biotin-poly EAY as substrate in the presence of ATP after 60 mins by microplate reader analysis

>  <BAO Format ID>  (2) 
BAO_0000357

>  <BAO Label>  (2) 
single protein format

>  <Assay Organism>  (2) 
None

>  <Target ChEMBL ID>  (2) 
CHEMBL3717

>  <Target Name>  (2) 
Hepatocyte growth factor receptor

>  <Target Organism>  (2) 
Homo sapiens

>  <Target Type>  (2) 
SINGLE PROTEIN

>  <Document ChEMBL ID>  (2) 
CHEMBL1821726

>  <Source Description>  (2) 
Scientific Literature

>  <Document Journal>  (2) 
Bioorg Med Chem Lett

>  <Document Year>  (2) 
2011.0

>  <Active>  (2) 
0.0

$$$$

     RDKit          2D

 40 44  0  0  0  0  0  0  0  0999 V2000
  -10.5000    5.1962    0.0000 C   0  0  0  0  0  0  0  0  0  0  0  0
   -9.7500    3.8971    0.0000 N   0  0  0  0  0  0  0  0  0  0  0  0
   -8.2500    3.8971    0.0000 C   0  0  0  0  0  0  0  0  0  0  0  0
   -7.5000    2.5981    0.0000 C   0  0  0  0  0  0  0  0  0  0  0  0
   -8.2500    1.2990    0.0000 N   0  0  0  0  0  0  0  0  0  0  0  0
   -7.5000    0.0000    0.0000 C   0  0  0  0  0  0  0  0  0  0  0  0
   -6.0000    0.0000    0.0000 C   0  0  0  0  0  0  0  0  0  0  0  0
   -5.2500   -1.2990    0.0000 C   0  0  0  0  0  0  0  0  0  0  0  0
   -3.7500   -1.2990    0.0000 C   0  0  0  0  0  0  0  0  0  0  0  0
   -3.0000   -2.5981    0.0000 O   0  0  0  0  0  0  0  0  0  0  0  0
   -1.5000   -2.5981    0.0000 C   0  0  0  0  0  0  0  0  0  0  0  0
   -0.7500   -3.8971    0.0000 C   0  0  0  0  0  0  0  0  0  0  0  0
   -1.5000   -5.1962    0.0000 O   0  0  0  0  0  0  0  0  0  0  0  0
   -3.0000   -5.1962    0.0000 C   0  0  0  0  0  0  0  0  0  0  0  0
   -3.7500   -6.4952    0.0000 C   0  0  0  0  0  0  0  0  0  0  0  0
   -5.2500   -6.4952    0.0000 C   0  0  0  0  0  0  0  0  0  0  0  0
   -6.0000   -7.7942    0.0000 C   0  0  0  0  0  0  0  0  0  0  0  0
   -5.2500   -9.0933    0.0000 C   0  0  0  0  0  0  0  0  0  0  0  0
   -6.0000  -10.3923    0.0000 C   0  0  0  0  0  0  0  0  0  0  0  0
   -6.7500  -11.6913    0.0000 N   0  0  0  0  0  0  0  0  0  0  0  0
   -3.7500   -9.0933    0.0000 C   0  0  0  0  0  0  0  0  0  0  0  0
   -3.0000   -7.7942    0.0000 C   0  0  0  0  0  0  0  0  0  0  0  0
    0.7500   -3.8971    0.0000 C   0  0  0  0  0  0  0  0  0  0  0  0
    1.5000   -2.5981    0.0000 C   0  0  0  0  0  0  0  0  0  0  0  0
    3.0000   -2.5981    0.0000 O   0  0  0  0  0  0  0  0  0  0  0  0
    0.7500   -1.2990    0.0000 C   0  0  0  0  0  0  0  0  0  0  0  0
    1.5000    0.0000    0.0000 C   0  0  0  0  0  0  0  0  0  0  0  0
    3.0000    0.0000    0.0000 O   0  0  0  0  0  0  0  0  0  0  0  0
    0.7500    1.2990    0.0000 C   0  0  0  0  0  0  0  0  0  0  0  0
   -0.7500    1.2990    0.0000 C   0  0  0  0  0  0  0  0  0  0  0  0
   -1.5000    2.5981    0.0000 C   0  0  0  0  0  0  0  0  0  0  0  0
   -0.7500    3.8971    0.0000 C   0  0  0  0  0  0  0  0  0  0  0  0
   -1.5000    5.1962    0.0000 C   0  0  0  0  0  0  0  0  0  0  0  0
   -3.0000    5.1962    0.0000 C   0  0  0  0  0  0  0  0  0  0  0  0
   -3.7500    3.8971    0.0000 C   0  0  0  0  0  0  0  0  0  0  0  0
   -3.0000    2.5981    0.0000 C   0  0  0  0  0  0  0  0  0  0  0  0
   -1.5000    0.0000    0.0000 O   0  0  0  0  0  0  0  0  0  0  0  0
   -0.7500   -1.2990    0.0000 C   0  0  0  0  0  0  0  0  0  0  0  0
   -9.7500    1.2990    0.0000 C   0  0  0  0  0  0  0  0  0  0  0  0
  -10.5000    2.5981    0.0000 C   0  0  0  0  0  0  0  0  0  0  0  0
  1  2  1  0
  2  3  1  0
  3  4  1  0
  4  5  1  0
  5  6  1  0
  6  7  1  0
  7  8  1  0
  8  9  1  0
  9 10  1  0
 10 11  1  0
 11 12  1  0
 12 13  1  0
 13 14  1  0
 14 15  1  0
 15 16  2  0
 16 17  1  0
 17 18  2  0
 18 19  1  0
 19 20  3  0
 18 21  1  0
 21 22  2  0
 12 23  2  0
 23 24  1  0
 24 25  1  0
 24 26  2  0
 26 27  1  0
 27 28  2  0
 27 29  1  0
 29 30  2  0
 30 31  1  0
 31 32  2  0
 32 33  1  0
 33 34  2  0
 34 35  1  0
 35 36  2  0
 30 37  1  0
 37 38  1  0
  5 39  1  0
 39 40  1  0
 40  2  1  0
 38 11  2  0
 22 15  1  0
 38 26  1  0
 36 31  1  0
M  END
>  <Compound_ID>  (3) 
CHEMBL4206957

>  <Molecule Name>  (3) 
nan

>  <Molecular Weight>  (3) 
539.63

>  <AlogP>  (3) 
5.02

>  <Smiles>  (3) 
CN1CCN(CCCCOc2c(OCc3ccc(C#N)cc3)cc(O)c3c(=O)cc(-c4ccccc4)oc23)CC1

>  <Standard Type>  (3) 
IC50

>  <Standard Relation>  (3) 
'='

>  <Standard Units>  (3) 
nM

>  <Standard Value>  (3) 
35000.0

>  <Assay ChEMBL ID>  (3) 
CHEMBL4194445

>  <Assay Description>  (3) 
Inhibition of c-Met (unknown origin)

>  <BAO Format ID>  (3) 
BAO_0000357

>  <BAO Label>  (3) 
single protein format

>  <Assay Organism>  (3) 
Homo sapiens

>  <Target ChEMBL ID>  (3) 
CHEMBL3717

>  <Target Name>  (3) 
Hepatocyte growth factor receptor

>  <Target Organism>  (3) 
Homo sapiens

>  <Target Type>  (3) 
SINGLE PROTEIN

>  <Document ChEMBL ID>  (3) 
CHEMBL4190366

>  <Source Description>  (3) 
Scientific Literature

>  <Document Journal>  (3) 
Eur J Med Chem

>  <Document Year>  (3) 
2017.0

>  <Active>  (3) 
0.0

$$$$

     RDKit          2D

 35 38  0  0  0  0  0  0  0  0999 V2000
   -3.5294  -19.8688    0.0000 C   0  0  0  0  0  0  0  0  0  0  0  0
   -4.6441  -18.8651    0.0000 S   0  0  0  0  0  0  0  0  0  0  0  0
   -3.6404  -17.7503    0.0000 O   0  0  0  0  0  0  0  0  0  0  0  0
   -5.6478  -19.9798    0.0000 O   0  0  0  0  0  0  0  0  0  0  0  0
   -5.7588  -17.8614    0.0000 N   0  0  0  0  0  0  0  0  0  0  0  0
   -5.4469  -16.3941    0.0000 C   0  0  0  0  0  0  0  0  0  0  0  0
   -6.5616  -15.3904    0.0000 C   0  0  0  0  0  0  0  0  0  0  0  0
   -7.9882  -15.8540    0.0000 C   0  0  0  0  0  0  0  0  0  0  0  0
   -9.1029  -14.8503    0.0000 C   0  0  0  0  0  0  0  0  0  0  0  0
   -8.7911  -13.3831    0.0000 C   0  0  0  0  0  0  0  0  0  0  0  0
   -7.3645  -12.9195    0.0000 C   0  0  0  0  0  0  0  0  0  0  0  0
   -7.0526  -11.4523    0.0000 C   0  0  0  0  0  0  0  0  0  0  0  0
   -5.6260  -10.9888    0.0000 C   0  0  0  0  0  0  0  0  0  0  0  0
   -5.3142   -9.5216    0.0000 C   0  0  0  0  0  0  0  0  0  0  0  0
   -6.4289   -8.5179    0.0000 C   0  0  0  0  0  0  0  0  0  0  0  0
   -6.1170   -7.0506    0.0000 C   0  0  0  0  0  0  0  0  0  0  0  0
   -7.2317   -6.0469    0.0000 O   0  0  0  0  0  0  0  0  0  0  0  0
   -4.6904   -6.5871    0.0000 N   0  0  0  0  0  0  0  0  0  0  0  0
   -4.3786   -5.1199    0.0000 N   0  0  0  0  0  0  0  0  0  0  0  0
   -2.9520   -4.6564    0.0000 C   0  0  0  0  0  0  0  0  0  0  0  0
   -1.8373   -5.6601    0.0000 O   0  0  0  0  0  0  0  0  0  0  0  0
   -2.6401   -3.1891    0.0000 C   0  0  0  0  0  0  0  0  0  0  0  0
   -3.7548   -2.1855    0.0000 O   0  0  0  0  0  0  0  0  0  0  0  0
   -1.2135   -2.7256    0.0000 C   0  0  0  0  0  0  0  0  0  0  0  0
   -0.0000   -3.6073    0.0000 C   0  0  0  0  0  0  0  0  0  0  0  0
    1.2135   -2.7256    0.0000 N   0  0  0  0  0  0  0  0  0  0  0  0
    0.7500   -1.2990    0.0000 C   0  0  0  0  0  0  0  0  0  0  0  0
    1.5000    0.0000    0.0000 C   0  0  0  0  0  0  0  0  0  0  0  0
    0.7500    1.2990    0.0000 C   0  0  0  0  0  0  0  0  0  0  0  0
   -0.7500    1.2990    0.0000 C   0  0  0  0  0  0  0  0  0  0  0  0
   -1.5000    0.0000    0.0000 C   0  0  0  0  0  0  0  0  0  0  0  0
   -0.7500   -1.2990    0.0000 C   0  0  0  0  0  0  0  0  0  0  0  0
   -7.8555   -8.9814    0.0000 C   0  0  0  0  0  0  0  0  0  0  0  0
   -8.1673  -10.4486    0.0000 C   0  0  0  0  0  0  0  0  0  0  0  0
   -6.2498  -13.9232    0.0000 C   0  0  0  0  0  0  0  0  0  0  0  0
  1  2  1  0
  2  3  2  0
  2  4  2  0
  2  5  1  0
  5  6  1  0
  6  7  1  0
  7  8  2  0
  8  9  1  0
  9 10  2  0
 10 11  1  0
 11 12  1  0
 12 13  2  0
 13 14  1  0
 14 15  2  0
 15 16  1  0
 16 17  2  0
 16 18  1  0
 18 19  1  0
 19 20  1  0
 20 21  2  0
 20 22  1  0
 22 23  2  0
 22 24  1  0
 24 25  2  0
 25 26  1  0
 26 27  1  0
 27 28  2  0
 28 29  1  0
 29 30  2  0
 30 31  1  0
 31 32  2  0
 15 33  1  0
 33 34  2  0
 11 35  2  0
 35  7  1  0
 34 12  1  0
 32 24  1  0
 32 27  1  0
M  END
>  <Compound_ID>  (4) 
CHEMBL1796193

>  <Molecule Name>  (4) 
nan

>  <Molecular Weight>  (4) 
490.54

>  <AlogP>  (4) 
2.53

>  <Smiles>  (4) 
CS(=O)(=O)NCc1cccc(-c2ccc(C(=O)NNC(=O)C(=O)c3c[nH]c4ccccc34)cc2)c1

>  <Standard Type>  (4) 
IC50

>  <Standard Relation>  (4) 
'='

>  <Standard Units>  (4) 
nM

>  <Standard Value>  (4) 
27000.0

>  <Assay ChEMBL ID>  (4) 
CHEMBL1798372

>  <Assay Description>  (4) 
Inhibition of c-MET assessed as incorporation of p33 using [gammaP33]-ATP by microplate scintillation counting

>  <BAO Format ID>  (4) 
BAO_0000357

>  <BAO Label>  (4) 
single protein format

>  <Assay Organism>  (4) 
None

>  <Target ChEMBL ID>  (4) 
CHEMBL3717

>  <Target Name>  (4) 
Hepatocyte growth factor receptor

>  <Target Organism>  (4) 
Homo sapiens

>  <Target Type>  (4) 
SINGLE PROTEIN

>  <Document ChEMBL ID>  (4) 
CHEMBL1795330

>  <Source Description>  (4) 
Scientific Literature

>  <Document Journal>  (4) 
Eur J Med Chem

>  <Document Year>  (4) 
2011.0

>  <Active>  (4) 
0.0

$$$$

     RDKit          2D

 21 23  0  0  0  0  0  0  0  0999 V2000
    3.0000    0.0000    0.0000 N   0  0  0  0  0  0  0  0  0  0  0  0
    1.5000    0.0000    0.0000 C   0  0  0  0  0  0  0  0  0  0  0  0
    0.7500   -1.2990    0.0000 C   0  0  0  0  0  0  0  0  0  0  0  0
   -0.7500   -1.2990    0.0000 N   0  0  0  0  0  0  0  0  0  0  0  0
   -1.5000    0.0000    0.0000 C   0  0  0  0  0  0  0  0  0  0  0  0
   -3.0000    0.0000    0.0000 C   0  0  0  0  0  0  0  0  0  0  0  0
   -3.7500    1.2990    0.0000 C   0  0  0  0  0  0  0  0  0  0  0  0
   -5.2500    1.2990    0.0000 C   0  0  0  0  0  0  0  0  0  0  0  0
   -6.7500    1.2990    0.0000 F   0  0  0  0  0  0  0  0  0  0  0  0
   -5.2500    2.7990    0.0000 F   0  0  0  0  0  0  0  0  0  0  0  0
   -5.2500   -0.2010    0.0000 F   0  0  0  0  0  0  0  0  0  0  0  0
   -3.0000    2.5981    0.0000 C   0  0  0  0  0  0  0  0  0  0  0  0
   -1.5000    2.5981    0.0000 C   0  0  0  0  0  0  0  0  0  0  0  0
   -0.7500    3.8971    0.0000 C   0  0  0  0  0  0  0  0  0  0  0  0
    0.7500    3.8971    0.0000 C   0  0  0  0  0  0  0  0  0  0  0  0
    1.5000    5.1962    0.0000 C   0  0  0  0  0  0  0  0  0  0  0  0
    0.7500    6.4952    0.0000 C   0  0  0  0  0  0  0  0  0  0  0  0
   -0.7500    6.4952    0.0000 C   0  0  0  0  0  0  0  0  0  0  0  0
   -1.5000    5.1962    0.0000 C   0  0  0  0  0  0  0  0  0  0  0  0
   -0.7500    1.2990    0.0000 C   0  0  0  0  0  0  0  0  0  0  0  0
    0.7500    1.2990    0.0000 N   0  0  0  0  0  0  0  0  0  0  0  0
  1  2  1  0
  2  3  2  0
  3  4  1  0
  4  5  2  0
  5  6  1  0
  6  7  2  0
  7  8  1  0
  8  9  1  0
  8 10  1  0
  8 11  1  0
  7 12  1  0
 12 13  2  0
 13 14  1  0
 14 15  2  0
 15 16  1  0
 16 17  2  0
 17 18  1  0
 18 19  2  0
 13 20  1  0
 20 21  2  0
 21  2  1  0
 20  5  1  0
 19 14  1  0
M  END
>  <Compound_ID>  (5) 
CHEMBL513602

>  <Molecule Name>  (5) 
nan

>  <Molecular Weight>  (5) 
289.26

>  <AlogP>  (5) 
3.90

>  <Smiles>  (5) 
Nc1cnc2cc(C(F)(F)F)cc(-c3ccccc3)c2n1

>  <Standard Type>  (5) 
IC50

>  <Standard Relation>  (5) 
'='

>  <Standard Units>  (5) 
nM

>  <Standard Value>  (5) 
20100.0

>  <Assay ChEMBL ID>  (5) 
CHEMBL1029826

>  <Assay Description>  (5) 
Inhibition of human recombinant his-tagged c-Met by TR-FRET assay

>  <BAO Format ID>  (5) 
BAO_0000357

>  <BAO Label>  (5) 
single protein format

>  <Assay Organism>  (5) 
Homo sapiens

>  <Target ChEMBL ID>  (5) 
CHEMBL3717

>  <Target Name>  (5) 
Hepatocyte growth factor receptor

>  <Target Organism>  (5) 
Homo sapiens

>  <Target Type>  (5) 
SINGLE PROTEIN

>  <Document ChEMBL ID>  (5) 
CHEMBL1154528

>  <Source Description>  (5) 
Scientific Literature

>  <Document Journal>  (5) 
Bioorg Med Chem Lett

>  <Document Year>  (5) 
2009.0

>  <Active>  (5) 
0.0

$$$$

     RDKit          2D

 30 33  0  0  0  0  0  0  0  0999 V2000
    8.2500   -3.8971    0.0000 C   0  0  0  0  0  0  0  0  0  0  0  0
    7.5000   -2.5981    0.0000 O   0  0  0  0  0  0  0  0  0  0  0  0
    6.0000   -2.5981    0.0000 C   0  0  0  0  0  0  0  0  0  0  0  0
    5.2500   -1.2990    0.0000 C   0  0  0  0  0  0  0  0  0  0  0  0
    3.7500   -1.2990    0.0000 N   0  0  0  0  0  0  0  0  0  0  0  0
    3.0000    0.0000    0.0000 C   0  0  0  0  0  0  0  0  0  0  0  0
    3.7500    1.2990    0.0000 O   0  0  0  0  0  0  0  0  0  0  0  0
    1.5000    0.0000    0.0000 C   0  0  0  0  0  0  0  0  0  0  0  0
    0.7500   -1.2990    0.0000 C   0  0  0  0  0  0  0  0  0  0  0  0
   -0.7500   -1.2990    0.0000 C   0  0  0  0  0  0  0  0  0  0  0  0
   -1.5000    0.0000    0.0000 C   0  0  0  0  0  0  0  0  0  0  0  0
   -0.7500    1.2990    0.0000 C   0  0  0  0  0  0  0  0  0  0  0  0
   -1.5000    2.5981    0.0000 C   0  0  0  0  0  0  0  0  0  0  0  0
   -0.7500    3.8971    0.0000 C   0  0  0  0  0  0  0  0  0  0  0  0
   -1.5000    5.1962    0.0000 O   0  0  0  0  0  0  0  0  0  0  0  0
   -0.7500    6.4952    0.0000 C   0  0  0  0  0  0  0  0  0  0  0  0
    0.7500    6.4952    0.0000 C   0  0  0  0  0  0  0  0  0  0  0  0
    1.5000    7.7942    0.0000 C   0  0  0  0  0  0  0  0  0  0  0  0
    0.7500    9.0933    0.0000 N   0  0  0  0  0  0  0  0  0  0  0  0
   -0.7500    9.0933    0.0000 C   0  0  0  0  0  0  0  0  0  0  0  0
   -1.5000   10.3923    0.0000 C   0  0  0  0  0  0  0  0  0  0  0  0
   -3.0000   10.3923    0.0000 C   0  0  0  0  0  0  0  0  0  0  0  0
   -3.7500   11.6913    0.0000 O   0  0  0  0  0  0  0  0  0  0  0  0
   -3.0000   12.9904    0.0000 C   0  0  0  0  0  0  0  0  0  0  0  0
   -3.7500    9.0933    0.0000 C   0  0  0  0  0  0  0  0  0  0  0  0
   -3.0000    7.7942    0.0000 C   0  0  0  0  0  0  0  0  0  0  0  0
   -1.5000    7.7942    0.0000 C   0  0  0  0  0  0  0  0  0  0  0  0
    0.7500    3.8971    0.0000 C   0  0  0  0  0  0  0  0  0  0  0  0
    1.5000    2.5981    0.0000 C   0  0  0  0  0  0  0  0  0  0  0  0
    0.7500    1.2990    0.0000 C   0  0  0  0  0  0  0  0  0  0  0  0
  1  2  1  0
  2  3  1  0
  3  4  1  0
  4  5  1  0
  5  6  1  0
  6  7  2  0
  6  8  1  0
  8  9  2  0
  9 10  1  0
 10 11  2  0
 11 12  1  0
 12 13  2  0
 13 14  1  0
 14 15  1  0
 15 16  1  0
 16 17  2  0
 17 18  1  0
 18 19  2  0
 19 20  1  0
 20 21  2  0
 21 22  1  0
 22 23  1  0
 23 24  1  0
 22 25  2  0
 25 26  1  0
 26 27  2  0
 14 28  2  0
 28 29  1  0
 29 30  2  0
 30  8  1  0
 30 12  1  0
 27 16  1  0
 27 20  1  0
M  END
>  <Compound_ID>  (6) 
CHEMBL272251

>  <Molecule Name>  (6) 
nan

>  <Molecular Weight>  (6) 
402.45

>  <AlogP>  (6) 
4.57

>  <Smiles>  (6) 
COCCNC(=O)c1cccc2cc(Oc3ccnc4cc(OC)ccc34)ccc12

>  <Standard Type>  (6) 
IC50

>  <Standard Relation>  (6) 
'='

>  <Standard Units>  (6) 
nM

>  <Standard Value>  (6) 
20000.0

>  <Assay ChEMBL ID>  (6) 
CHEMBL951282

>  <Assay Description>  (6) 
Inhibition of c-Met

>  <BAO Format ID>  (6) 
BAO_0000357

>  <BAO Label>  (6) 
single protein format

>  <Assay Organism>  (6) 
None

>  <Target ChEMBL ID>  (6) 
CHEMBL3717

>  <Target Name>  (6) 
Hepatocyte growth factor receptor

>  <Target Organism>  (6) 
Homo sapiens

>  <Target Type>  (6) 
SINGLE PROTEIN

>  <Document ChEMBL ID>  (6) 
CHEMBL1144684

>  <Source Description>  (6) 
Scientific Literature

>  <Document Journal>  (6) 
J Med Chem

>  <Document Year>  (6) 
2008.0

>  <Active>  (6) 
0.0

$$$$

     RDKit          2D

 20 22  0  0  0  0  0  0  0  0999 V2000
   -7.0969    9.7066    0.0000 C   0  0  0  0  0  0  0  0  0  0  0  0
   -5.9821    8.7029    0.0000 C   0  0  0  0  0  0  0  0  0  0  0  0
   -4.5556    9.1664    0.0000 C   0  0  0  0  0  0  0  0  0  0  0  0
   -6.2940    7.2357    0.0000 C   0  0  0  0  0  0  0  0  0  0  0  0
   -7.7206    6.7722    0.0000 O   0  0  0  0  0  0  0  0  0  0  0  0
   -5.1793    6.2320    0.0000 N   0  0  0  0  0  0  0  0  0  0  0  0
   -3.7527    6.6955    0.0000 C   0  0  0  0  0  0  0  0  0  0  0  0
   -2.6380    5.6918    0.0000 C   0  0  0  0  0  0  0  0  0  0  0  0
   -2.9499    4.2246    0.0000 N   0  0  0  0  0  0  0  0  0  0  0  0
   -1.8351    3.2209    0.0000 C   0  0  0  0  0  0  0  0  0  0  0  0
   -0.4086    3.6844    0.0000 N   0  0  0  0  0  0  0  0  0  0  0  0
    0.7062    2.6807    0.0000 N   0  0  0  0  0  0  0  0  0  0  0  0
    0.3943    1.2135    0.0000 C   0  0  0  0  0  0  0  0  0  0  0  0
    1.2760    0.0000    0.0000 N   0  0  0  0  0  0  0  0  0  0  0  0
    0.3943   -1.2135    0.0000 N   0  0  0  0  0  0  0  0  0  0  0  0
   -1.0323   -0.7500    0.0000 C   0  0  0  0  0  0  0  0  0  0  0  0
   -1.0323    0.7500    0.0000 N   0  0  0  0  0  0  0  0  0  0  0  0
   -2.1470    1.7537    0.0000 N   0  0  0  0  0  0  0  0  0  0  0  0
   -4.3764    3.7611    0.0000 C   0  0  0  0  0  0  0  0  0  0  0  0
   -5.4912    4.7648    0.0000 C   0  0  0  0  0  0  0  0  0  0  0  0
  1  2  1  0
  2  3  1  0
  2  4  1  0
  4  5  2  0
  4  6  1  0
  6  7  1  0
  7  8  1  0
  8  9  1  0
  9 10  1  0
 10 11  1  0
 11 12  2  0
 12 13  1  0
 13 14  2  0
 14 15  1  0
 15 16  2  0
 16 17  1  0
 17 18  1  0
  9 19  1  0
 19 20  1  0
 20  6  1  0
 18 10  2  0
 17 13  1  0
M  END
>  <Compound_ID>  (7) 
CHEMBL3810244

>  <Molecule Name>  (7) 
nan

>  <Molecular Weight>  (7) 
276.30

>  <AlogP>  (7) 
-0.78

>  <Smiles>  (7) 
CC(C)C(=O)N1CCN(c2nnc3nncn3n2)CC1

>  <Standard Type>  (7) 
IC50

>  <Standard Relation>  (7) 
'='

>  <Standard Units>  (7) 
nM

>  <Standard Value>  (7) 
23700.0

>  <Assay ChEMBL ID>  (7) 
CHEMBL3812838

>  <Assay Description>  (7) 
Inhibition of cMET (unknown origin) using TK substrate-biotin as substrate preincubated with compound followed by substrate addition for 40 mins measured after 1 hr by HTRF assay

>  <BAO Format ID>  (7) 
BAO_0000357

>  <BAO Label>  (7) 
single protein format

>  <Assay Organism>  (7) 
Homo sapiens

>  <Target ChEMBL ID>  (7) 
CHEMBL3717

>  <Target Name>  (7) 
Hepatocyte growth factor receptor

>  <Target Organism>  (7) 
Homo sapiens

>  <Target Type>  (7) 
SINGLE PROTEIN

>  <Document ChEMBL ID>  (7) 
CHEMBL3808385

>  <Source Description>  (7) 
Scientific Literature

>  <Document Journal>  (7) 
Bioorg Med Chem Lett

>  <Document Year>  (7) 
2016.0

>  <Active>  (7) 
0.0

$$$$

     RDKit          2D

 33 36  0  0  0  0  0  0  0  0999 V2000
    3.0000   -5.1962    0.0000 C   0  0  0  0  0  0  0  0  0  0  0  0
    1.5000   -5.1962    0.0000 O   0  0  0  0  0  0  0  0  0  0  0  0
    0.7500   -3.8971    0.0000 C   0  0  0  0  0  0  0  0  0  0  0  0
    1.5000   -2.5981    0.0000 C   0  0  0  0  0  0  0  0  0  0  0  0
    0.7500   -1.2990    0.0000 C   0  0  0  0  0  0  0  0  0  0  0  0
    1.5000    0.0000    0.0000 N   0  0  0  0  0  0  0  0  0  0  0  0
    0.7500    1.2990    0.0000 C   0  0  0  0  0  0  0  0  0  0  0  0
   -0.7500    1.2990    0.0000 C   0  0  0  0  0  0  0  0  0  0  0  0
   -1.5000    0.0000    0.0000 C   0  0  0  0  0  0  0  0  0  0  0  0
   -3.0000    0.0000    0.0000 O   0  0  0  0  0  0  0  0  0  0  0  0
   -3.7500    1.2990    0.0000 C   0  0  0  0  0  0  0  0  0  0  0  0
   -3.0000    2.5981    0.0000 C   0  0  0  0  0  0  0  0  0  0  0  0
   -3.7500    3.8971    0.0000 C   0  0  0  0  0  0  0  0  0  0  0  0
   -5.2500    3.8971    0.0000 C   0  0  0  0  0  0  0  0  0  0  0  0
   -6.0000    5.1962    0.0000 N   0  0  0  0  0  0  0  0  0  0  0  0
   -5.2500    6.4952    0.0000 C   0  0  0  0  0  0  0  0  0  0  0  0
   -3.7500    6.4952    0.0000 S   0  0  0  0  0  0  0  0  0  0  0  0
   -6.0000    7.7942    0.0000 N   0  0  0  0  0  0  0  0  0  0  0  0
   -5.2500    9.0933    0.0000 C   0  0  0  0  0  0  0  0  0  0  0  0
   -3.7500    9.0933    0.0000 O   0  0  0  0  0  0  0  0  0  0  0  0
   -6.0000   10.3923    0.0000 C   0  0  0  0  0  0  0  0  0  0  0  0
   -5.2500   11.6913    0.0000 C   0  0  0  0  0  0  0  0  0  0  0  0
   -6.0000   12.9904    0.0000 C   0  0  0  0  0  0  0  0  0  0  0  0
   -7.5000   12.9904    0.0000 C   0  0  0  0  0  0  0  0  0  0  0  0
   -8.2500   11.6913    0.0000 C   0  0  0  0  0  0  0  0  0  0  0  0
   -7.5000   10.3923    0.0000 C   0  0  0  0  0  0  0  0  0  0  0  0
   -6.0000    2.5981    0.0000 N   0  0  0  0  0  0  0  0  0  0  0  0
   -5.2500    1.2990    0.0000 C   0  0  0  0  0  0  0  0  0  0  0  0
   -0.7500   -1.2990    0.0000 C   0  0  0  0  0  0  0  0  0  0  0  0
   -1.5000   -2.5981    0.0000 C   0  0  0  0  0  0  0  0  0  0  0  0
   -0.7500   -3.8971    0.0000 C   0  0  0  0  0  0  0  0  0  0  0  0
   -1.5000   -5.1962    0.0000 O   0  0  0  0  0  0  0  0  0  0  0  0
   -3.0000   -5.1962    0.0000 C   0  0  0  0  0  0  0  0  0  0  0  0
  1  2  1  0
  2  3  1  0
  3  4  2  0
  4  5  1  0
  5  6  2  0
  6  7  1  0
  7  8  2  0
  8  9  1  0
  9 10  1  0
 10 11  1  0
 11 12  2  0
 12 13  1  0
 13 14  2  0
 14 15  1  0
 15 16  1  0
 16 17  2  0
 16 18  1  0
 18 19  1  0
 19 20  2  0
 19 21  1  0
 21 22  2  0
 22 23  1  0
 23 24  2  0
 24 25  1  0
 25 26  2  0
 14 27  1  0
 27 28  2  0
  9 29  2  0
 29 30  1  0
 30 31  2  0
 31 32  1  0
 32 33  1  0
 31  3  1  0
 29  5  1  0
 28 11  1  0
 26 21  1  0
M  END
>  <Compound_ID>  (8) 
CHEMBL1822794

>  <Molecule Name>  (8) 
nan

>  <Molecular Weight>  (8) 
460.52

>  <AlogP>  (8) 
4.57

>  <Smiles>  (8) 
COc1cc2nccc(Oc3ccc(NC(=S)NC(=O)c4ccccc4)nc3)c2cc1OC

>  <Standard Type>  (8) 
IC50

>  <Standard Relation>  (8) 
'='

>  <Standard Units>  (8) 
nM

>  <Standard Value>  (8) 
10000.0

>  <Assay ChEMBL ID>  (8) 
CHEMBL1826790

>  <Assay Description>  (8) 
Inhibition of human c-MET

>  <BAO Format ID>  (8) 
BAO_0000357

>  <BAO Label>  (8) 
single protein format

>  <Assay Organism>  (8) 
Homo sapiens

>  <Target ChEMBL ID>  (8) 
CHEMBL3717

>  <Target Name>  (8) 
Hepatocyte growth factor receptor

>  <Target Organism>  (8) 
Homo sapiens

>  <Target Type>  (8) 
SINGLE PROTEIN

>  <Document ChEMBL ID>  (8) 
CHEMBL1821609

>  <Source Description>  (8) 
Scientific Literature

>  <Document Journal>  (8) 
Eur J Med Chem

>  <Document Year>  (8) 
2011.0

>  <Active>  (8) 
0.0

$$$$

     RDKit          2D

 23 26  0  0  0  0  0  0  0  0999 V2000
    3.7500   -6.4952    0.0000 C   0  0  0  0  0  0  0  0  0  0  0  0
    3.0000   -5.1962    0.0000 N   0  0  0  0  0  0  0  0  0  0  0  0
    1.5000   -5.1962    0.0000 C   0  0  0  0  0  0  0  0  0  0  0  0
    0.7500   -3.8971    0.0000 C   0  0  0  0  0  0  0  0  0  0  0  0
    1.5000   -2.5981    0.0000 N   0  0  0  0  0  0  0  0  0  0  0  0
    0.7500   -1.2990    0.0000 C   0  0  0  0  0  0  0  0  0  0  0  0
    1.5000    0.0000    0.0000 C   0  0  0  0  0  0  0  0  0  0  0  0
    0.7500    1.2990    0.0000 N   0  0  0  0  0  0  0  0  0  0  0  0
   -0.7500    1.2990    0.0000 C   0  0  0  0  0  0  0  0  0  0  0  0
   -1.5000    2.5981    0.0000 C   0  0  0  0  0  0  0  0  0  0  0  0
   -3.0000    2.5981    0.0000 C   0  0  0  0  0  0  0  0  0  0  0  0
   -3.7500    1.2990    0.0000 C   0  0  0  0  0  0  0  0  0  0  0  0
   -3.0000    0.0000    0.0000 C   0  0  0  0  0  0  0  0  0  0  0  0
   -3.7500   -1.2990    0.0000 C   0  0  0  0  0  0  0  0  0  0  0  0
   -5.2500   -1.2990    0.0000 C   0  0  0  0  0  0  0  0  0  0  0  0
   -6.0000   -2.5981    0.0000 C   0  0  0  0  0  0  0  0  0  0  0  0
   -5.2500   -3.8971    0.0000 C   0  0  0  0  0  0  0  0  0  0  0  0
   -3.7500   -3.8971    0.0000 C   0  0  0  0  0  0  0  0  0  0  0  0
   -3.0000   -2.5981    0.0000 C   0  0  0  0  0  0  0  0  0  0  0  0
   -1.5000    0.0000    0.0000 C   0  0  0  0  0  0  0  0  0  0  0  0
   -0.7500   -1.2990    0.0000 N   0  0  0  0  0  0  0  0  0  0  0  0
    3.0000   -2.5981    0.0000 C   0  0  0  0  0  0  0  0  0  0  0  0
    3.7500   -3.8971    0.0000 C   0  0  0  0  0  0  0  0  0  0  0  0
  1  2  1  0
  2  3  1  0
  3  4  1  0
  4  5  1  0
  5  6  1  0
  6  7  2  0
  7  8  1  0
  8  9  2  0
  9 10  1  0
 10 11  2  0
 11 12  1  0
 12 13  2  0
 13 14  1  0
 14 15  2  0
 15 16  1  0
 16 17  2  0
 17 18  1  0
 18 19  2  0
 13 20  1  0
 20 21  2  0
  5 22  1  0
 22 23  1  0
 23  2  1  0
 21  6  1  0
 20  9  1  0
 19 14  1  0
M  END
>  <Compound_ID>  (9) 
CHEMBL511172

>  <Molecule Name>  (9) 
nan

>  <Molecular Weight>  (9) 
304.40

>  <AlogP>  (9) 
3.05

>  <Smiles>  (9) 
CN1CCN(c2cnc3cccc(-c4ccccc4)c3n2)CC1

>  <Standard Type>  (9) 
IC50

>  <Standard Relation>  (9) 
'='

>  <Standard Units>  (9) 
nM

>  <Standard Value>  (9) 
28300.0

>  <Assay ChEMBL ID>  (9) 
CHEMBL1029826

>  <Assay Description>  (9) 
Inhibition of human recombinant his-tagged c-Met by TR-FRET assay

>  <BAO Format ID>  (9) 
BAO_0000357

>  <BAO Label>  (9) 
single protein format

>  <Assay Organism>  (9) 
Homo sapiens

>  <Target ChEMBL ID>  (9) 
CHEMBL3717

>  <Target Name>  (9) 
Hepatocyte growth factor receptor

>  <Target Organism>  (9) 
Homo sapiens

>  <Target Type>  (9) 
SINGLE PROTEIN

>  <Document ChEMBL ID>  (9) 
CHEMBL1154528

>  <Source Description>  (9) 
Scientific Literature

>  <Document Journal>  (9) 
Bioorg Med Chem Lett

>  <Document Year>  (9) 
2009.0

>  <Active>  (9) 
0.0

$$$$

     RDKit          2D

 29 32  0  0  0  0  0  0  0  0999 V2000
   -6.5007  -16.7036    0.0000 C   0  0  0  0  0  0  0  0  0  0  0  0
   -7.1108  -15.3333    0.0000 C   0  0  0  0  0  0  0  0  0  0  0  0
   -6.3608  -14.0342    0.0000 N   0  0  0  0  0  0  0  0  0  0  0  0
   -7.3645  -12.9195    0.0000 C   0  0  0  0  0  0  0  0  0  0  0  0
   -7.0526  -11.4523    0.0000 C   0  0  0  0  0  0  0  0  0  0  0  0
   -5.6260  -10.9888    0.0000 C   0  0  0  0  0  0  0  0  0  0  0  0
   -5.3142   -9.5216    0.0000 C   0  0  0  0  0  0  0  0  0  0  0  0
   -6.4289   -8.5179    0.0000 C   0  0  0  0  0  0  0  0  0  0  0  0
   -6.1170   -7.0506    0.0000 C   0  0  0  0  0  0  0  0  0  0  0  0
   -7.2317   -6.0469    0.0000 O   0  0  0  0  0  0  0  0  0  0  0  0
   -4.6904   -6.5871    0.0000 N   0  0  0  0  0  0  0  0  0  0  0  0
   -4.3786   -5.1199    0.0000 N   0  0  0  0  0  0  0  0  0  0  0  0
   -2.9520   -4.6564    0.0000 C   0  0  0  0  0  0  0  0  0  0  0  0
   -1.8373   -5.6601    0.0000 O   0  0  0  0  0  0  0  0  0  0  0  0
   -2.6401   -3.1891    0.0000 C   0  0  0  0  0  0  0  0  0  0  0  0
   -3.7548   -2.1855    0.0000 O   0  0  0  0  0  0  0  0  0  0  0  0
   -1.2135   -2.7256    0.0000 C   0  0  0  0  0  0  0  0  0  0  0  0
   -0.0000   -3.6073    0.0000 C   0  0  0  0  0  0  0  0  0  0  0  0
    1.2135   -2.7256    0.0000 N   0  0  0  0  0  0  0  0  0  0  0  0
    0.7500   -1.2990    0.0000 C   0  0  0  0  0  0  0  0  0  0  0  0
    1.5000    0.0000    0.0000 C   0  0  0  0  0  0  0  0  0  0  0  0
    0.7500    1.2990    0.0000 C   0  0  0  0  0  0  0  0  0  0  0  0
   -0.7500    1.2990    0.0000 C   0  0  0  0  0  0  0  0  0  0  0  0
   -1.5000    0.0000    0.0000 C   0  0  0  0  0  0  0  0  0  0  0  0
   -0.7500   -1.2990    0.0000 C   0  0  0  0  0  0  0  0  0  0  0  0
   -7.8555   -8.9814    0.0000 C   0  0  0  0  0  0  0  0  0  0  0  0
   -8.1673  -10.4486    0.0000 C   0  0  0  0  0  0  0  0  0  0  0  0
   -8.7348  -13.5296    0.0000 N   0  0  0  0  0  0  0  0  0  0  0  0
   -8.5780  -15.0214    0.0000 O   0  0  0  0  0  0  0  0  0  0  0  0
  1  2  1  0
  2  3  2  0
  3  4  1  0
  4  5  1  0
  5  6  2  0
  6  7  1  0
  7  8  2  0
  8  9  1  0
  9 10  2  0
  9 11  1  0
 11 12  1  0
 12 13  1  0
 13 14  2  0
 13 15  1  0
 15 16  2  0
 15 17  1  0
 17 18  2  0
 18 19  1  0
 19 20  1  0
 20 21  2  0
 21 22  1  0
 22 23  2  0
 23 24  1  0
 24 25  2  0
  8 26  1  0
 26 27  2  0
  4 28  2  0
 28 29  1  0
 29  2  1  0
 27  5  1  0
 25 17  1  0
 25 20  1  0
M  END
>  <Compound_ID>  (10) 
CHEMBL1796186

>  <Molecule Name>  (10) 
nan

>  <Molecular Weight>  (10) 
389.37

>  <AlogP>  (10) 
2.17

>  <Smiles>  (10) 
Cc1nc(-c2ccc(C(=O)NNC(=O)C(=O)c3c[nH]c4ccccc34)cc2)no1

>  <Standard Type>  (10) 
IC50

>  <Standard Relation>  (10) 
'='

>  <Standard Units>  (10) 
nM

>  <Standard Value>  (10) 
95000.0

>  <Assay ChEMBL ID>  (10) 
CHEMBL1798372

>  <Assay Description>  (10) 
Inhibition of c-MET assessed as incorporation of p33 using [gammaP33]-ATP by microplate scintillation counting

>  <BAO Format ID>  (10) 
BAO_0000357

>  <BAO Label>  (10) 
single protein format

>  <Assay Organism>  (10) 
None

>  <Target ChEMBL ID>  (10) 
CHEMBL3717

>  <Target Name>  (10) 
Hepatocyte growth factor receptor

>  <Target Organism>  (10) 
Homo sapiens

>  <Target Type>  (10) 
SINGLE PROTEIN

>  <Document ChEMBL ID>  (10) 
CHEMBL1795330

>  <Source Description>  (10) 
Scientific Literature

>  <Document Journal>  (10) 
Eur J Med Chem

>  <Document Year>  (10) 
2011.0

>  <Active>  (10) 
0.0

$$$$

     RDKit          2D

 29 31  0  0  0  0  0  0  0  0999 V2000
   -5.3120   -0.6406    0.0000 C   0  0  0  0  0  0  0  0  0  0  0  0
   -6.4268    0.3631    0.0000 C   0  0  0  0  0  0  0  0  0  0  0  0
   -7.8533   -0.1004    0.0000 C   0  0  0  0  0  0  0  0  0  0  0  0
   -8.9681    0.9033    0.0000 C   0  0  0  0  0  0  0  0  0  0  0  0
   -8.6562    2.3705    0.0000 C   0  0  0  0  0  0  0  0  0  0  0  0
   -9.7709    3.3742    0.0000 O   0  0  0  0  0  0  0  0  0  0  0  0
   -7.2296    2.8340    0.0000 C   0  0  0  0  0  0  0  0  0  0  0  0
   -6.1149    1.8303    0.0000 C   0  0  0  0  0  0  0  0  0  0  0  0
   -4.6883    2.2939    0.0000 C   0  0  0  0  0  0  0  0  0  0  0  0
   -3.5736    1.2902    0.0000 C   0  0  0  0  0  0  0  0  0  0  0  0
   -2.1470    1.7537    0.0000 C   0  0  0  0  0  0  0  0  0  0  0  0
   -1.8351    3.2209    0.0000 C   0  0  0  0  0  0  0  0  0  0  0  0
   -2.9499    4.2246    0.0000 O   0  0  0  0  0  0  0  0  0  0  0  0
   -0.4086    3.6844    0.0000 C   0  0  0  0  0  0  0  0  0  0  0  0
    0.7062    2.6807    0.0000 C   0  0  0  0  0  0  0  0  0  0  0  0
    0.3943    1.2135    0.0000 C   0  0  0  0  0  0  0  0  0  0  0  0
    1.8615    1.5254    0.0000 C   0  0  0  0  0  0  0  0  0  0  0  0
    1.2760    0.0000    0.0000 C   0  0  0  0  0  0  0  0  0  0  0  0
    2.7760    0.0000    0.0000 C   0  0  0  0  0  0  0  0  0  0  0  0
    3.5260   -1.2990    0.0000 C   0  0  0  0  0  0  0  0  0  0  0  0
    3.5260    1.2990    0.0000 C   0  0  0  0  0  0  0  0  0  0  0  0
    5.0260    1.2990    0.0000 C   0  0  0  0  0  0  0  0  0  0  0  0
    5.7760    2.5981    0.0000 C   0  0  0  0  0  0  0  0  0  0  0  0
    7.2760    2.5981    0.0000 C   0  0  0  0  0  0  0  0  0  0  0  0
    8.0260    3.8971    0.0000 C   0  0  0  0  0  0  0  0  0  0  0  0
    8.0260    1.2990    0.0000 C   0  0  0  0  0  0  0  0  0  0  0  0
    0.3943   -1.2135    0.0000 C   0  0  0  0  0  0  0  0  0  0  0  0
   -1.0323   -0.7500    0.0000 C   0  0  0  0  0  0  0  0  0  0  0  0
   -1.0323    0.7500    0.0000 C   0  0  0  0  0  0  0  0  0  0  0  0
  1  2  1  0
  2  3  2  0
  3  4  1  0
  4  5  2  0
  5  6  1  0
  5  7  1  0
  7  8  2  0
  8  9  1  0
  9 10  1  0
 11 10  1  6
 11 12  1  0
 12 13  1  6
 12 14  1  0
 14 15  1  0
 15 16  1  0
 16 17  1  1
 16 18  1  0
 18 19  1  0
 19 20  1  1
 19 21  1  0
 21 22  1  0
 22 23  1  0
 23 24  1  0
 24 25  1  0
 24 26  1  0
 18 27  1  1
 27 28  1  0
 29 28  1  1
  8  2  1  0
 29 11  1  0
 29 16  1  0
M  END
>  <Compound_ID>  (11) 
CHEMBL517956

>  <Molecule Name>  (11) 
ASTROGORGIADIOL

>  <Molecular Weight>  (11) 
400.65

>  <AlogP>  (11) 
6.90

>  <Smiles>  (11) 
Cc1ccc(O)cc1CC[C@@H]1[C@H](O)CC[C@]2(C)[C@@H]([C@H](C)CCCC(C)C)CC[C@@H]12

>  <Standard Type>  (11) 
IC50

>  <Standard Relation>  (11) 
'='

>  <Standard Units>  (11) 
nM

>  <Standard Value>  (11) 
78000.0

>  <Assay ChEMBL ID>  (11) 
CHEMBL1926227

>  <Assay Description>  (11) 
Inhibition of wild type human MET using poly(Ala,Glu,Lys,Tyr) as substrate

>  <BAO Format ID>  (11) 
BAO_0000357

>  <BAO Label>  (11) 
single protein format

>  <Assay Organism>  (11) 
Homo sapiens

>  <Target ChEMBL ID>  (11) 
CHEMBL3717

>  <Target Name>  (11) 
Hepatocyte growth factor receptor

>  <Target Organism>  (11) 
Homo sapiens

>  <Target Type>  (11) 
SINGLE PROTEIN

>  <Document ChEMBL ID>  (11) 
CHEMBL1921742

>  <Source Description>  (11) 
Scientific Literature

>  <Document Journal>  (11) 
Bioorg Med Chem

>  <Document Year>  (11) 
2011.0

>  <Active>  (11) 
0.0

$$$$

     RDKit          2D

 30 32  0  0  0  0  0  0  0  0999 V2000
    7.2760   -2.5981    0.0000 C   0  0  0  0  0  0  0  0  0  0  0  0
    5.7760   -2.5981    0.0000 C   0  0  0  0  0  0  0  0  0  0  0  0
    5.0260   -1.2990    0.0000 C   0  0  0  0  0  0  0  0  0  0  0  0
    3.5260   -1.2990    0.0000 C   0  0  0  0  0  0  0  0  0  0  0  0
    2.7760    0.0000    0.0000 C   0  0  0  0  0  0  0  0  0  0  0  0
    3.5260    1.2990    0.0000 C   0  0  0  0  0  0  0  0  0  0  0  0
    1.2760    0.0000    0.0000 C   0  0  0  0  0  0  0  0  0  0  0  0
    0.3943    1.2135    0.0000 C   0  0  0  0  0  0  0  0  0  0  0  0
   -1.0323    0.7500    0.0000 C   0  0  0  0  0  0  0  0  0  0  0  0
   -1.0323   -0.7500    0.0000 C   0  0  0  0  0  0  0  0  0  0  0  0
   -2.1470   -1.7537    0.0000 C   0  0  0  0  0  0  0  0  0  0  0  0
   -3.5736   -1.2902    0.0000 C   0  0  0  0  0  0  0  0  0  0  0  0
   -4.6883   -2.2939    0.0000 C   0  0  0  0  0  0  0  0  0  0  0  0
   -6.1149   -1.8303    0.0000 C   0  0  0  0  0  0  0  0  0  0  0  0
   -6.4268   -0.3631    0.0000 C   0  0  0  0  0  0  0  0  0  0  0  0
   -7.8533    0.1004    0.0000 C   0  0  0  0  0  0  0  0  0  0  0  0
   -8.1652    1.5676    0.0000 O   0  0  0  0  0  0  0  0  0  0  0  0
   -8.9681   -0.9033    0.0000 C   0  0  0  0  0  0  0  0  0  0  0  0
   -8.6562   -2.3705    0.0000 C   0  0  0  0  0  0  0  0  0  0  0  0
   -7.2296   -2.8340    0.0000 C   0  0  0  0  0  0  0  0  0  0  0  0
   -6.9177   -4.3013    0.0000 C   0  0  0  0  0  0  0  0  0  0  0  0
   -1.8351   -3.2209    0.0000 C   0  0  0  0  0  0  0  0  0  0  0  0
   -2.9499   -4.2246    0.0000 O   0  0  0  0  0  0  0  0  0  0  0  0
   -0.4086   -3.6844    0.0000 C   0  0  0  0  0  0  0  0  0  0  0  0
    0.7062   -2.6807    0.0000 C   0  0  0  0  0  0  0  0  0  0  0  0
    0.3943   -1.2135    0.0000 C   0  0  0  0  0  0  0  0  0  0  0  0
    1.8615   -1.5254    0.0000 C   0  0  0  0  0  0  0  0  0  0  0  0
    5.0260   -3.8971    0.0000 C   0  0  0  0  0  0  0  0  0  0  0  0
    5.7760   -5.1962    0.0000 C   0  0  0  0  0  0  0  0  0  0  0  0
    3.5260   -3.8971    0.0000 C   0  0  0  0  0  0  0  0  0  0  0  0
  1  2  2  0
  2  3  1  0
  3  4  1  0
  4  5  1  0
  5  6  1  6
  5  7  1  0
  7  8  1  6
  8  9  1  0
 10  9  1  6
 10 11  1  0
 11 12  1  1
 12 13  1  0
 13 14  1  0
 14 15  2  0
 15 16  1  0
 16 17  1  0
 16 18  2  0
 18 19  1  0
 19 20  2  0
 20 21  1  0
 11 22  1  0
 22 23  2  0
 22 24  1  0
 24 25  1  0
 25 26  1  0
 26 27  1  6
  2 28  1  0
 28 29  1  0
 28 30  1  0
 26  7  1  0
 26 10  1  0
 20 14  1  0
M  END
>  <Compound_ID>  (12) 
CHEMBL1922225

>  <Molecule Name>  (12) 
nan

>  <Molecular Weight>  (12) 
410.64

>  <AlogP>  (12) 
7.27

>  <Smiles>  (12) 
C=C(CC[C@@H](C)[C@H]1CC[C@H]2[C@H](CCc3cc(O)ccc3C)C(=O)CC[C@]12C)C(C)C

>  <Standard Type>  (12) 
IC50

>  <Standard Relation>  (12) 
'='

>  <Standard Units>  (12) 
nM

>  <Standard Value>  (12) 
27500.0

>  <Assay ChEMBL ID>  (12) 
CHEMBL1926227

>  <Assay Description>  (12) 
Inhibition of wild type human MET using poly(Ala,Glu,Lys,Tyr) as substrate

>  <BAO Format ID>  (12) 
BAO_0000357

>  <BAO Label>  (12) 
single protein format

>  <Assay Organism>  (12) 
Homo sapiens

>  <Target ChEMBL ID>  (12) 
CHEMBL3717

>  <Target Name>  (12) 
Hepatocyte growth factor receptor

>  <Target Organism>  (12) 
Homo sapiens

>  <Target Type>  (12) 
SINGLE PROTEIN

>  <Document ChEMBL ID>  (12) 
CHEMBL1921742

>  <Source Description>  (12) 
Scientific Literature

>  <Document Journal>  (12) 
Bioorg Med Chem

>  <Document Year>  (12) 
2011.0

>  <Active>  (12) 
0.0

$$$$

     RDKit          2D

 33 37  0  0  0  0  0  0  0  0999 V2000
    7.0526  -11.4523    0.0000 C   0  0  0  0  0  0  0  0  0  0  0  0
    8.1673  -10.4486    0.0000 C   0  0  0  0  0  0  0  0  0  0  0  0
    9.5939  -10.9121    0.0000 O   0  0  0  0  0  0  0  0  0  0  0  0
    7.8555   -8.9814    0.0000 N   0  0  0  0  0  0  0  0  0  0  0  0
    6.4289   -8.5179    0.0000 C   0  0  0  0  0  0  0  0  0  0  0  0
    6.1170   -7.0506    0.0000 C   0  0  0  0  0  0  0  0  0  0  0  0
    7.2317   -6.0469    0.0000 C   0  0  0  0  0  0  0  0  0  0  0  0
    6.9199   -4.5797    0.0000 N   0  0  0  0  0  0  0  0  0  0  0  0
    5.4933   -4.1162    0.0000 C   0  0  0  0  0  0  0  0  0  0  0  0
    5.1814   -2.6490    0.0000 C   0  0  0  0  0  0  0  0  0  0  0  0
    3.7548   -2.1855    0.0000 C   0  0  0  0  0  0  0  0  0  0  0  0
    2.6401   -3.1891    0.0000 C   0  0  0  0  0  0  0  0  0  0  0  0
    1.2135   -2.7256    0.0000 C   0  0  0  0  0  0  0  0  0  0  0  0
   -0.0000   -3.6073    0.0000 N   0  0  0  0  0  0  0  0  0  0  0  0
   -1.2135   -2.7256    0.0000 N   0  0  0  0  0  0  0  0  0  0  0  0
   -0.7500   -1.2990    0.0000 C   0  0  0  0  0  0  0  0  0  0  0  0
    0.7500   -1.2990    0.0000 C   0  0  0  0  0  0  0  0  0  0  0  0
    1.5000    0.0000    0.0000 C   0  0  0  0  0  0  0  0  0  0  0  0
    0.7500    1.2990    0.0000 N   0  0  0  0  0  0  0  0  0  0  0  0
    1.5000    2.5981    0.0000 S   0  0  0  0  0  0  0  0  0  0  0  0
    0.2010    3.3481    0.0000 O   0  0  0  0  0  0  0  0  0  0  0  0
    2.7990    1.8481    0.0000 O   0  0  0  0  0  0  0  0  0  0  0  0
    2.2500    3.8971    0.0000 C   0  0  0  0  0  0  0  0  0  0  0  0
    1.6399    5.2674    0.0000 C   0  0  0  0  0  0  0  0  0  0  0  0
    2.7546    6.2711    0.0000 C   0  0  0  0  0  0  0  0  0  0  0  0
    4.0537    5.5211    0.0000 C   0  0  0  0  0  0  0  0  0  0  0  0
    3.7418    4.0539    0.0000 S   0  0  0  0  0  0  0  0  0  0  0  0
   -0.7500    1.2990    0.0000 C   0  0  0  0  0  0  0  0  0  0  0  0
   -1.5000    0.0000    0.0000 C   0  0  0  0  0  0  0  0  0  0  0  0
    2.9520   -4.6564    0.0000 C   0  0  0  0  0  0  0  0  0  0  0  0
    4.3786   -5.1199    0.0000 C   0  0  0  0  0  0  0  0  0  0  0  0
    8.6583   -6.5105    0.0000 C   0  0  0  0  0  0  0  0  0  0  0  0
    8.9702   -7.9777    0.0000 C   0  0  0  0  0  0  0  0  0  0  0  0
  1  2  1  0
  2  3  2  0
  2  4  1  0
  4  5  1  0
  5  6  1  0
  6  7  1  0
  7  8  1  0
  8  9  1  0
  9 10  2  0
 10 11  1  0
 11 12  2  0
 12 13  1  0
 13 14  2  0
 14 15  1  0
 15 16  1  0
 16 17  2  0
 17 18  1  0
 18 19  1  0
 19 20  1  0
 20 21  2  0
 20 22  2  0
 20 23  1  0
 23 24  2  0
 24 25  1  0
 25 26  2  0
 26 27  1  0
 19 28  1  0
 28 29  1  0
 12 30  1  0
 30 31  2  0
  7 32  1  0
 32 33  1  0
 33  4  1  0
 31  9  1  0
 17 13  1  0
 27 23  1  0
 29 16  1  0
M  END
>  <Compound_ID>  (13) 
CHEMBL4165198

>  <Molecule Name>  (13) 
nan

>  <Molecular Weight>  (13) 
485.64

>  <AlogP>  (13) 
3.31

>  <Smiles>  (13) 
CC(=O)N1CCC(Nc2ccc(-c3n[nH]c4c3CN(S(=O)(=O)c3cccs3)CC4)cc2)CC1

>  <Standard Type>  (13) 
IC50

>  <Standard Relation>  (13) 
'='

>  <Standard Units>  (13) 
nM

>  <Standard Value>  (13) 
24000.0

>  <Assay ChEMBL ID>  (13) 
CHEMBL4131862

>  <Assay Description>  (13) 
Inhibition of human GST-tagged c-MET preincubated for 20 mins followed by [33P]-ATP addition measured after 2 hrs by Hot-SpotSM kinase assay

>  <BAO Format ID>  (13) 
BAO_0000357

>  <BAO Label>  (13) 
single protein format

>  <Assay Organism>  (13) 
Homo sapiens

>  <Target ChEMBL ID>  (13) 
CHEMBL3717

>  <Target Name>  (13) 
Hepatocyte growth factor receptor

>  <Target Organism>  (13) 
Homo sapiens

>  <Target Type>  (13) 
SINGLE PROTEIN

>  <Document ChEMBL ID>  (13) 
CHEMBL4130362

>  <Source Description>  (13) 
Scientific Literature

>  <Document Journal>  (13) 
Eur J Med Chem

>  <Document Year>  (13) 
2017.0

>  <Active>  (13) 
0.0

$$$$

     RDKit          2D

 28 32  0  0  0  0  0  0  0  0999 V2000
    0.9369   -9.5210    0.0000 C   0  0  0  0  0  0  0  0  0  0  0  0
    0.6471   -8.0492    0.0000 C   0  0  0  0  0  0  0  0  0  0  0  0
   -0.7724   -7.5644    0.0000 C   0  0  0  0  0  0  0  0  0  0  0  0
   -1.0623   -6.0927    0.0000 C   0  0  0  0  0  0  0  0  0  0  0  0
    0.0673   -5.1058    0.0000 C   0  0  0  0  0  0  0  0  0  0  0  0
    1.4868   -5.5906    0.0000 C   0  0  0  0  0  0  0  0  0  0  0  0
    2.6164   -4.6037    0.0000 O   0  0  0  0  0  0  0  0  0  0  0  0
    1.7767   -7.0623    0.0000 N   0  0  0  0  0  0  0  0  0  0  0  0
   -0.0000   -3.6073    0.0000 C   0  0  0  0  0  0  0  0  0  0  0  0
    1.2135   -2.7256    0.0000 N   0  0  0  0  0  0  0  0  0  0  0  0
    0.7500   -1.2990    0.0000 C   0  0  0  0  0  0  0  0  0  0  0  0
    1.5000    0.0000    0.0000 C   0  0  0  0  0  0  0  0  0  0  0  0
    0.7500    1.2990    0.0000 C   0  0  0  0  0  0  0  0  0  0  0  0
   -0.7500    1.2990    0.0000 C   0  0  0  0  0  0  0  0  0  0  0  0
   -1.5000    0.0000    0.0000 C   0  0  0  0  0  0  0  0  0  0  0  0
   -0.7500   -1.2990    0.0000 C   0  0  0  0  0  0  0  0  0  0  0  0
   -1.2135   -2.7256    0.0000 C   0  0  0  0  0  0  0  0  0  0  0  0
   -2.6595   -3.1247    0.0000 C   0  0  0  0  0  0  0  0  0  0  0  0
   -3.2490   -4.5040    0.0000 C   0  0  0  0  0  0  0  0  0  0  0  0
   -2.5382   -5.8249    0.0000 N   0  0  0  0  0  0  0  0  0  0  0  0
   -3.4199   -7.0384    0.0000 C   0  0  0  0  0  0  0  0  0  0  0  0
   -4.9117   -6.8816    0.0000 C   0  0  0  0  0  0  0  0  0  0  0  0
   -5.7933   -8.0951    0.0000 C   0  0  0  0  0  0  0  0  0  0  0  0
   -7.2851   -7.9383    0.0000 C   0  0  0  0  0  0  0  0  0  0  0  0
   -8.1668   -9.1519    0.0000 C   0  0  0  0  0  0  0  0  0  0  0  0
   -7.5567  -10.5222    0.0000 C   0  0  0  0  0  0  0  0  0  0  0  0
   -6.0649  -10.6790    0.0000 C   0  0  0  0  0  0  0  0  0  0  0  0
   -5.1832   -9.4654    0.0000 C   0  0  0  0  0  0  0  0  0  0  0  0
  1  2  1  0
  2  3  2  0
  3  4  1  0
  4  5  2  0
  5  6  1  0
  6  7  2  0
  6  8  1  0
  5  9  1  0
  9 10  1  0
 10 11  1  0
 11 12  2  0
 12 13  1  0
 13 14  2  0
 14 15  1  0
 15 16  2  0
 16 17  1  0
 17 18  1  0
 18 19  1  0
 19 20  1  0
 20 21  1  0
 21 22  1  0
 22 23  1  0
 23 24  2  0
 24 25  1  0
 25 26  2  0
 26 27  1  0
 27 28  2  0
  8  2  1  0
 17  9  2  0
 28 23  1  0
 20  4  1  0
 16 11  1  0
M  END
>  <Compound_ID>  (14) 
CHEMBL564365

>  <Molecule Name>  (14) 
nan

>  <Molecular Weight>  (14) 
369.47

>  <AlogP>  (14) 
4.44

>  <Smiles>  (14) 
Cc1cc2c(c(=O)[nH]1)-c1[nH]c3ccccc3c1CCN2CCc1ccccc1

>  <Standard Type>  (14) 
IC50

>  <Standard Relation>  (14) 
'='

>  <Standard Units>  (14) 
nM

>  <Standard Value>  (14) 
19700.0

>  <Assay ChEMBL ID>  (14) 
CHEMBL1036443

>  <Assay Description>  (14) 
Inhibition of recombinant MET

>  <BAO Format ID>  (14) 
BAO_0000357

>  <BAO Label>  (14) 
single protein format

>  <Assay Organism>  (14) 
None

>  <Target ChEMBL ID>  (14) 
CHEMBL3717

>  <Target Name>  (14) 
Hepatocyte growth factor receptor

>  <Target Organism>  (14) 
Homo sapiens

>  <Target Type>  (14) 
SINGLE PROTEIN

>  <Document ChEMBL ID>  (14) 
CHEMBL1151875

>  <Source Description>  (14) 
Scientific Literature

>  <Document Journal>  (14) 
Bioorg Med Chem

>  <Document Year>  (14) 
2009.0

>  <Active>  (14) 
0.0

$$$$

     RDKit          2D

 20 22  0  0  0  0  0  0  0  0999 V2000
   -3.7548   -2.1855    0.0000 O   0  0  0  0  0  0  0  0  0  0  0  0
   -2.6401   -3.1891    0.0000 C   0  0  0  0  0  0  0  0  0  0  0  0
   -2.9520   -4.6564    0.0000 C   0  0  0  0  0  0  0  0  0  0  0  0
   -1.8373   -5.6601    0.0000 C   0  0  0  0  0  0  0  0  0  0  0  0
   -2.1491   -7.1273    0.0000 C   0  0  0  0  0  0  0  0  0  0  0  0
   -3.5757   -7.5908    0.0000 C   0  0  0  0  0  0  0  0  0  0  0  0
   -4.6904   -6.5871    0.0000 C   0  0  0  0  0  0  0  0  0  0  0  0
   -4.3786   -5.1199    0.0000 C   0  0  0  0  0  0  0  0  0  0  0  0
   -5.4933   -4.1162    0.0000 N   0  0  0  0  0  4  0  0  0  0  0  0
   -5.1814   -2.6490    0.0000 O   0  0  0  0  0  0  0  0  0  0  0  0
   -6.9199   -4.5797    0.0000 O   0  0  0  0  0  1  0  0  0  0  0  0
   -1.2135   -2.7256    0.0000 N   0  0  0  0  0  0  0  0  0  0  0  0
   -0.0000   -3.6073    0.0000 C   0  0  0  0  0  0  0  0  0  0  0  0
    1.2135   -2.7256    0.0000 C   0  0  0  0  0  0  0  0  0  0  0  0
    0.7500   -1.2990    0.0000 C   0  0  0  0  0  0  0  0  0  0  0  0
    1.5000    0.0000    0.0000 N   0  0  0  0  0  0  0  0  0  0  0  0
    0.7500    1.2990    0.0000 C   0  0  0  0  0  0  0  0  0  0  0  0
   -0.7500    1.2990    0.0000 C   0  0  0  0  0  0  0  0  0  0  0  0
   -1.5000    0.0000    0.0000 C   0  0  0  0  0  0  0  0  0  0  0  0
   -0.7500   -1.2990    0.0000 C   0  0  0  0  0  0  0  0  0  0  0  0
  1  2  2  0
  2  3  1  0
  3  4  2  0
  4  5  1  0
  5  6  2  0
  6  7  1  0
  7  8  2  0
  8  9  1  0
  9 10  2  0
  9 11  1  0
  2 12  1  0
 12 13  1  0
 13 14  2  0
 14 15  1  0
 15 16  2  0
 16 17  1  0
 17 18  2  0
 18 19  1  0
 19 20  2  0
  8  3  1  0
 20 12  1  0
 20 15  1  0
M  CHG  2   9   1  11  -1
M  END
>  <Compound_ID>  (15) 
CHEMBL551993

>  <Molecule Name>  (15) 
nan

>  <Molecular Weight>  (15) 
267.24

>  <AlogP>  (15) 
2.63

>  <Smiles>  (15) 
O=C(c1ccccc1[N+](=O)[O-])n1ccc2ncccc21

>  <Standard Type>  (15) 
IC50

>  <Standard Relation>  (15) 
'='

>  <Standard Units>  (15) 
nM

>  <Standard Value>  (15) 
12100.0

>  <Assay ChEMBL ID>  (15) 
CHEMBL1062250

>  <Assay Description>  (15) 
Inhibition of human recombinant His-tagged c-Met by TR-FRET assay

>  <BAO Format ID>  (15) 
BAO_0000357

>  <BAO Label>  (15) 
single protein format

>  <Assay Organism>  (15) 
Homo sapiens

>  <Target ChEMBL ID>  (15) 
CHEMBL3717

>  <Target Name>  (15) 
Hepatocyte growth factor receptor

>  <Target Organism>  (15) 
Homo sapiens

>  <Target Type>  (15) 
SINGLE PROTEIN

>  <Document ChEMBL ID>  (15) 
CHEMBL1152913

>  <Source Description>  (15) 
Scientific Literature

>  <Document Journal>  (15) 
Bioorg Med Chem Lett

>  <Document Year>  (15) 
2009.0

>  <Active>  (15) 
0.0

$$$$

     RDKit          2D

 32 35  0  0  0  0  0  0  0  0999 V2000
    3.0000   -7.7942    0.0000 C   0  0  0  0  0  0  0  0  0  0  0  0
    3.7500   -6.4952    0.0000 C   0  0  0  0  0  0  0  0  0  0  0  0
    5.2500   -6.4952    0.0000 O   0  0  0  0  0  0  0  0  0  0  0  0
    3.0000   -5.1962    0.0000 N   0  0  0  0  0  0  0  0  0  0  0  0
    1.5000   -5.1962    0.0000 C   0  0  0  0  0  0  0  0  0  0  0  0
    0.7500   -3.8971    0.0000 C   0  0  0  0  0  0  0  0  0  0  0  0
    1.5000   -2.5981    0.0000 N   0  0  0  0  0  0  0  0  0  0  0  0
    0.7500   -1.2990    0.0000 C   0  0  0  0  0  0  0  0  0  0  0  0
    1.5000    0.0000    0.0000 C   0  0  0  0  0  0  0  0  0  0  0  0
    0.7500    1.2990    0.0000 N   0  0  0  0  0  0  0  0  0  0  0  0
   -0.7500    1.2990    0.0000 C   0  0  0  0  0  0  0  0  0  0  0  0
   -1.5000    2.5981    0.0000 C   0  0  0  0  0  0  0  0  0  0  0  0
   -3.0000    2.5981    0.0000 C   0  0  0  0  0  0  0  0  0  0  0  0
   -3.7500    1.2990    0.0000 C   0  0  0  0  0  0  0  0  0  0  0  0
   -3.0000    0.0000    0.0000 C   0  0  0  0  0  0  0  0  0  0  0  0
   -3.7500   -1.2990    0.0000 N   0  0  0  0  0  0  0  0  0  0  0  0
   -5.2500   -1.2990    0.0000 C   0  0  0  0  0  0  0  0  0  0  0  0
   -6.0000    0.0000    0.0000 O   0  0  0  0  0  0  0  0  0  0  0  0
   -6.0000   -2.5981    0.0000 N   0  0  0  0  0  0  0  0  0  0  0  0
   -7.5000   -2.5981    0.0000 C   0  0  0  0  0  0  0  0  0  0  0  0
   -8.2500   -1.2990    0.0000 C   0  0  0  0  0  0  0  0  0  0  0  0
   -9.7500   -1.2990    0.0000 C   0  0  0  0  0  0  0  0  0  0  0  0
  -10.5000   -2.5981    0.0000 C   0  0  0  0  0  0  0  0  0  0  0  0
   -9.7500   -3.8971    0.0000 C   0  0  0  0  0  0  0  0  0  0  0  0
  -10.5000   -5.1962    0.0000 N   0  0  0  0  0  4  0  0  0  0  0  0
   -9.7500   -6.4952    0.0000 O   0  0  0  0  0  0  0  0  0  0  0  0
  -12.0000   -5.1962    0.0000 O   0  0  0  0  0  1  0  0  0  0  0  0
   -8.2500   -3.8971    0.0000 C   0  0  0  0  0  0  0  0  0  0  0  0
   -1.5000    0.0000    0.0000 C   0  0  0  0  0  0  0  0  0  0  0  0
   -0.7500   -1.2990    0.0000 C   0  0  0  0  0  0  0  0  0  0  0  0
    3.0000   -2.5981    0.0000 C   0  0  0  0  0  0  0  0  0  0  0  0
    3.7500   -3.8971    0.0000 C   0  0  0  0  0  0  0  0  0  0  0  0
  1  2  1  0
  2  3  2  0
  2  4  1  0
  4  5  1  0
  5  6  1  0
  6  7  1  0
  7  8  1  0
  8  9  2  0
  9 10  1  0
 10 11  2  0
 11 12  1  0
 12 13  2  0
 13 14  1  0
 14 15  2  0
 15 16  1  0
 16 17  1  0
 17 18  2  0
 17 19  1  0
 19 20  1  0
 20 21  2  0
 21 22  1  0
 22 23  2  0
 23 24  1  0
 24 25  1  0
 25 26  2  0
 25 27  1  0
 24 28  2  0
 15 29  1  0
 29 30  2  0
  7 31  1  0
 31 32  1  0
 32  4  1  0
 30  8  1  0
 29 11  1  0
 28 20  1  0
M  CHG  2  25   1  27  -1
M  END
>  <Compound_ID>  (16) 
CHEMBL1766520

>  <Molecule Name>  (16) 
nan

>  <Molecular Weight>  (16) 
434.46

>  <AlogP>  (16) 
3.46

>  <Smiles>  (16) 
CC(=O)N1CCN(c2cnc3cccc(NC(=O)Nc4cccc([N+](=O)[O-])c4)c3c2)CC1

>  <Standard Type>  (16) 
IC50

>  <Standard Relation>  (16) 
'='

>  <Standard Units>  (16) 
nM

>  <Standard Value>  (16) 
22400.0

>  <Assay ChEMBL ID>  (16) 
CHEMBL1768668

>  <Assay Description>  (16) 
Inhibition of purified recombinant c-Met after 60 mins by ELISA

>  <BAO Format ID>  (16) 
BAO_0000357

>  <BAO Label>  (16) 
single protein format

>  <Assay Organism>  (16) 
None

>  <Target ChEMBL ID>  (16) 
CHEMBL3717

>  <Target Name>  (16) 
Hepatocyte growth factor receptor

>  <Target Organism>  (16) 
Homo sapiens

>  <Target Type>  (16) 
SINGLE PROTEIN

>  <Document ChEMBL ID>  (16) 
CHEMBL1765011

>  <Source Description>  (16) 
Scientific Literature

>  <Document Journal>  (16) 
J Med Chem

>  <Document Year>  (16) 
2011.0

>  <Active>  (16) 
0.0

$$$$

     RDKit          2D

 28 31  0  0  0  0  0  0  0  0999 V2000
    3.0000   -5.1962    0.0000 C   0  0  0  0  0  0  0  0  0  0  0  0
    1.5000   -5.1962    0.0000 O   0  0  0  0  0  0  0  0  0  0  0  0
    0.7500   -3.8971    0.0000 C   0  0  0  0  0  0  0  0  0  0  0  0
    1.5000   -2.5981    0.0000 C   0  0  0  0  0  0  0  0  0  0  0  0
    0.7500   -1.2990    0.0000 C   0  0  0  0  0  0  0  0  0  0  0  0
    1.5000    0.0000    0.0000 N   0  0  0  0  0  0  0  0  0  0  0  0
    0.7500    1.2990    0.0000 C   0  0  0  0  0  0  0  0  0  0  0  0
   -0.7500    1.2990    0.0000 N   0  0  0  0  0  0  0  0  0  0  0  0
   -1.5000    0.0000    0.0000 C   0  0  0  0  0  0  0  0  0  0  0  0
   -3.0000    0.0000    0.0000 O   0  0  0  0  0  0  0  0  0  0  0  0
   -3.7500    1.2990    0.0000 C   0  0  0  0  0  0  0  0  0  0  0  0
   -3.0000    2.5981    0.0000 C   0  0  0  0  0  0  0  0  0  0  0  0
   -3.7500    3.8971    0.0000 C   0  0  0  0  0  0  0  0  0  0  0  0
   -5.2500    3.8971    0.0000 C   0  0  0  0  0  0  0  0  0  0  0  0
   -6.0000    5.1962    0.0000 C   0  0  0  0  0  0  0  0  0  0  0  0
   -5.2500    6.4952    0.0000 C   0  0  0  0  0  0  0  0  0  0  0  0
   -6.0000    7.7942    0.0000 N   0  0  0  0  0  0  0  0  0  0  0  0
   -3.7500    6.4952    0.0000 O   0  0  0  0  0  0  0  0  0  0  0  0
   -7.5000    5.1962    0.0000 C   0  0  0  0  0  0  0  0  0  0  0  0
   -8.2500    3.8971    0.0000 C   0  0  0  0  0  0  0  0  0  0  0  0
   -7.5000    2.5981    0.0000 C   0  0  0  0  0  0  0  0  0  0  0  0
   -6.0000    2.5981    0.0000 C   0  0  0  0  0  0  0  0  0  0  0  0
   -5.2500    1.2990    0.0000 C   0  0  0  0  0  0  0  0  0  0  0  0
   -0.7500   -1.2990    0.0000 C   0  0  0  0  0  0  0  0  0  0  0  0
   -1.5000   -2.5981    0.0000 C   0  0  0  0  0  0  0  0  0  0  0  0
   -0.7500   -3.8971    0.0000 C   0  0  0  0  0  0  0  0  0  0  0  0
   -1.5000   -5.1962    0.0000 O   0  0  0  0  0  0  0  0  0  0  0  0
   -3.0000   -5.1962    0.0000 C   0  0  0  0  0  0  0  0  0  0  0  0
  1  2  1  0
  2  3  1  0
  3  4  2  0
  4  5  1  0
  5  6  2  0
  6  7  1  0
  7  8  2  0
  8  9  1  0
  9 10  1  0
 10 11  1  0
 11 12  2  0
 12 13  1  0
 13 14  2  0
 14 15  1  0
 15 16  1  0
 16 17  1  0
 16 18  2  0
 15 19  2  0
 19 20  1  0
 20 21  2  0
 21 22  1  0
 22 23  2  0
  9 24  2  0
 24 25  1  0
 25 26  2  0
 26 27  1  0
 27 28  1  0
 26  3  1  0
 24  5  1  0
 23 11  1  0
 22 14  1  0
M  END
>  <Compound_ID>  (17) 
CHEMBL270556

>  <Molecule Name>  (17) 
nan

>  <Molecular Weight>  (17) 
375.38

>  <AlogP>  (17) 
3.69

>  <Smiles>  (17) 
COc1cc2ncnc(Oc3ccc4c(C(N)=O)cccc4c3)c2cc1OC

>  <Standard Type>  (17) 
IC50

>  <Standard Relation>  (17) 
'='

>  <Standard Units>  (17) 
nM

>  <Standard Value>  (17) 
20000.0

>  <Assay ChEMBL ID>  (17) 
CHEMBL951282

>  <Assay Description>  (17) 
Inhibition of c-Met

>  <BAO Format ID>  (17) 
BAO_0000357

>  <BAO Label>  (17) 
single protein format

>  <Assay Organism>  (17) 
None

>  <Target ChEMBL ID>  (17) 
CHEMBL3717

>  <Target Name>  (17) 
Hepatocyte growth factor receptor

>  <Target Organism>  (17) 
Homo sapiens

>  <Target Type>  (17) 
SINGLE PROTEIN

>  <Document ChEMBL ID>  (17) 
CHEMBL1144684

>  <Source Description>  (17) 
Scientific Literature

>  <Document Journal>  (17) 
J Med Chem

>  <Document Year>  (17) 
2008.0

>  <Active>  (17) 
0.0

$$$$

     RDKit          2D

 32 36  0  0  0  0  0  0  0  0999 V2000
    3.0000   -5.1962    0.0000 C   0  0  0  0  0  0  0  0  0  0  0  0
    1.5000   -5.1962    0.0000 O   0  0  0  0  0  0  0  0  0  0  0  0
    0.7500   -3.8971    0.0000 C   0  0  0  0  0  0  0  0  0  0  0  0
    1.5000   -2.5981    0.0000 C   0  0  0  0  0  0  0  0  0  0  0  0
    0.7500   -1.2990    0.0000 C   0  0  0  0  0  0  0  0  0  0  0  0
    1.5000    0.0000    0.0000 N   0  0  0  0  0  0  0  0  0  0  0  0
    0.7500    1.2990    0.0000 C   0  0  0  0  0  0  0  0  0  0  0  0
   -0.7500    1.2990    0.0000 C   0  0  0  0  0  0  0  0  0  0  0  0
   -1.5000    0.0000    0.0000 C   0  0  0  0  0  0  0  0  0  0  0  0
   -3.0000    0.0000    0.0000 O   0  0  0  0  0  0  0  0  0  0  0  0
   -3.7500    1.2990    0.0000 C   0  0  0  0  0  0  0  0  0  0  0  0
   -3.0000    2.5981    0.0000 C   0  0  0  0  0  0  0  0  0  0  0  0
   -3.7500    3.8971    0.0000 C   0  0  0  0  0  0  0  0  0  0  0  0
   -5.2500    3.8971    0.0000 C   0  0  0  0  0  0  0  0  0  0  0  0
   -6.0000    5.1962    0.0000 C   0  0  0  0  0  0  0  0  0  0  0  0
   -5.2500    6.4952    0.0000 C   0  0  0  0  0  0  0  0  0  0  0  0
   -3.7500    6.4952    0.0000 O   0  0  0  0  0  0  0  0  0  0  0  0
   -6.0000    7.7942    0.0000 N   0  0  0  0  0  0  0  0  0  0  0  0
   -5.2500    9.0933    0.0000 C   0  0  0  0  0  0  0  0  0  0  0  0
   -5.2500   10.5933    0.0000 C   0  0  0  0  0  0  0  0  0  0  0  0
   -3.9510    9.8433    0.0000 C   0  0  0  0  0  0  0  0  0  0  0  0
   -7.5000    5.1962    0.0000 C   0  0  0  0  0  0  0  0  0  0  0  0
   -8.2500    3.8971    0.0000 C   0  0  0  0  0  0  0  0  0  0  0  0
   -7.5000    2.5981    0.0000 C   0  0  0  0  0  0  0  0  0  0  0  0
   -6.0000    2.5981    0.0000 C   0  0  0  0  0  0  0  0  0  0  0  0
   -5.2500    1.2990    0.0000 C   0  0  0  0  0  0  0  0  0  0  0  0
   -0.7500   -1.2990    0.0000 C   0  0  0  0  0  0  0  0  0  0  0  0
   -1.5000   -2.5981    0.0000 C   0  0  0  0  0  0  0  0  0  0  0  0
   -0.7500   -3.8971    0.0000 C   0  0  0  0  0  0  0  0  0  0  0  0
   -1.5000   -5.1962    0.0000 C   0  0  0  0  0  0  0  0  0  0  0  0
   -3.0000   -5.1962    0.0000 N   0  0  0  0  0  0  0  0  0  0  0  0
   -0.7500   -6.4952    0.0000 O   0  0  0  0  0  0  0  0  0  0  0  0
  1  2  1  0
  2  3  1  0
  3  4  2  0
  4  5  1  0
  5  6  2  0
  6  7  1  0
  7  8  2  0
  8  9  1  0
  9 10  1  0
 10 11  1  0
 11 12  2  0
 12 13  1  0
 13 14  2  0
 14 15  1  0
 15 16  1  0
 16 17  2  0
 16 18  1  0
 18 19  1  0
 19 20  1  0
 20 21  1  0
 15 22  2  0
 22 23  1  0
 23 24  2  0
 24 25  1  0
 25 26  2  0
  9 27  2  0
 27 28  1  0
 28 29  2  0
 29 30  1  0
 30 31  1  0
 30 32  2  0
 29  3  1  0
 27  5  1  0
 26 11  1  0
 25 14  1  0
 21 19  1  0
M  END
>  <Compound_ID>  (18) 
CHEMBL272250

>  <Molecule Name>  (18) 
nan

>  <Molecular Weight>  (18) 
427.46

>  <AlogP>  (18) 
4.18

>  <Smiles>  (18) 
COc1cc2nccc(Oc3ccc4c(C(=O)NC5CC5)cccc4c3)c2cc1C(N)=O

>  <Standard Type>  (18) 
IC50

>  <Standard Relation>  (18) 
'='

>  <Standard Units>  (18) 
nM

>  <Standard Value>  (18) 
20000.0

>  <Assay ChEMBL ID>  (18) 
CHEMBL951282

>  <Assay Description>  (18) 
Inhibition of c-Met

>  <BAO Format ID>  (18) 
BAO_0000357

>  <BAO Label>  (18) 
single protein format

>  <Assay Organism>  (18) 
None

>  <Target ChEMBL ID>  (18) 
CHEMBL3717

>  <Target Name>  (18) 
Hepatocyte growth factor receptor

>  <Target Organism>  (18) 
Homo sapiens

>  <Target Type>  (18) 
SINGLE PROTEIN

>  <Document ChEMBL ID>  (18) 
CHEMBL1144684

>  <Source Description>  (18) 
Scientific Literature

>  <Document Journal>  (18) 
J Med Chem

>  <Document Year>  (18) 
2008.0

>  <Active>  (18) 
0.0

$$$$

     RDKit          2D

 36 42  0  0  0  0  0  0  0  0999 V2000
    3.0000    0.0000    0.0000 C   0  0  0  0  0  0  0  0  0  0  0  0
    1.5000    0.0000    0.0000 N   0  0  0  0  0  0  0  0  0  0  0  0
    0.7500   -1.2990    0.0000 C   0  0  0  0  0  0  0  0  0  0  0  0
   -0.7500   -1.2990    0.0000 C   0  0  0  0  0  0  0  0  0  0  0  0
   -1.5000    0.0000    0.0000 C   0  0  0  0  0  0  0  0  0  0  0  0
   -0.7500    1.2990    0.0000 C   0  0  0  0  0  0  0  0  0  0  0  0
    0.7500    1.2990    0.0000 C   0  0  0  0  0  0  0  0  0  0  0  0
   -2.3817   -1.2135    0.0000 C   0  0  0  0  0  0  0  0  0  0  0  0
   -1.9182   -2.6401    0.0000 O   0  0  0  0  0  0  0  0  0  0  0  0
   -3.8083   -0.7500    0.0000 N   0  0  0  0  0  0  0  0  0  0  0  0
   -3.8083    0.7500    0.0000 C   0  0  0  0  0  0  0  0  0  0  0  0
   -4.9230    1.7537    0.0000 C   0  0  0  0  0  0  0  0  0  0  0  0
   -4.6111    3.2209    0.0000 C   0  0  0  0  0  0  0  0  0  0  0  0
   -3.1845    3.6844    0.0000 C   0  0  0  0  0  0  0  0  0  0  0  0
   -2.8727    5.1517    0.0000 C   0  0  0  0  0  0  0  0  0  0  0  0
   -1.4461    5.6152    0.0000 N   0  0  0  0  0  0  0  0  0  0  0  0
   -1.1342    7.0824    0.0000 C   0  0  0  0  0  0  0  0  0  0  0  0
   -2.2489    8.0861    0.0000 C   0  0  0  0  0  0  0  0  0  0  0  0
   -2.2489    9.5861    0.0000 N   0  0  0  0  0  0  0  0  0  0  0  0
   -3.6755   10.0496    0.0000 C   0  0  0  0  0  0  0  0  0  0  0  0
   -4.5572    8.8361    0.0000 N   0  0  0  0  0  0  0  0  0  0  0  0
   -6.0572    8.8361    0.0000 C   0  0  0  0  0  0  0  0  0  0  0  0
   -6.8072   10.1351    0.0000 C   0  0  0  0  0  0  0  0  0  0  0  0
   -6.0572   11.4342    0.0000 C   0  0  0  0  0  0  0  0  0  0  0  0
   -6.8072   12.7332    0.0000 C   0  0  0  0  0  0  0  0  0  0  0  0
   -8.3072   12.7332    0.0000 C   0  0  0  0  0  0  0  0  0  0  0  0
   -9.0572   14.0323    0.0000 N   0  0  0  0  0  0  0  0  0  0  0  0
  -10.5572   14.0323    0.0000 C   0  0  0  0  0  0  0  0  0  0  0  0
  -11.3072   12.7332    0.0000 C   0  0  0  0  0  0  0  0  0  0  0  0
  -10.5572   11.4342    0.0000 C   0  0  0  0  0  0  0  0  0  0  0  0
   -9.0572   11.4342    0.0000 C   0  0  0  0  0  0  0  0  0  0  0  0
   -8.3072   10.1351    0.0000 C   0  0  0  0  0  0  0  0  0  0  0  0
   -3.6755    7.6226    0.0000 C   0  0  0  0  0  0  0  0  0  0  0  0
   -3.9874    6.1554    0.0000 N   0  0  0  0  0  0  0  0  0  0  0  0
   -2.0698    2.6807    0.0000 C   0  0  0  0  0  0  0  0  0  0  0  0
   -2.3817    1.2135    0.0000 C   0  0  0  0  0  0  0  0  0  0  0  0
  1  2  1  0
  2  3  1  0
  3  4  1  0
  4  5  1  0
  5  6  1  0
  6  7  1  0
  5  8  1  0
  8  9  2  0
  8 10  1  0
 10 11  1  0
 11 12  2  0
 12 13  1  0
 13 14  2  0
 14 15  1  0
 15 16  2  0
 16 17  1  0
 17 18  2  0
 18 19  1  0
 19 20  2  0
 20 21  1  0
 21 22  1  0
 22 23  1  0
 23 24  2  0
 24 25  1  0
 25 26  2  0
 26 27  1  0
 27 28  2  0
 28 29  1  0
 29 30  2  0
 30 31  1  0
 31 32  2  0
 21 33  1  0
 33 34  2  0
 14 35  1  0
 35 36  2  0
  7  2  1  0
 36 11  1  0
 36  5  1  0
 34 15  1  0
 33 18  1  0
 32 23  1  0
 31 26  1  0
M  END
>  <Compound_ID>  (19) 
CHEMBL1950196

>  <Molecule Name>  (19) 
nan

>  <Molecular Weight>  (19) 
475.56

>  <AlogP>  (19) 
4.01

>  <Smiles>  (19) 
CN1CCC2(CC1)C(=O)Nc1ccc(-c3ncc4ncn(Cc5ccc6ncccc6c5)c4n3)cc12

>  <Standard Type>  (19) 
IC50

>  <Standard Relation>  (19) 
'='

>  <Standard Units>  (19) 
nM

>  <Standard Value>  (19) 
17000.0

>  <Assay ChEMBL ID>  (19) 
CHEMBL1955487

>  <Assay Description>  (19) 
Inhibition of 6-His-tagged human recombinant c-met using 5FAM-KKKSPGEYVNIGFG-NH2 as substrate after overnight incubation by TR-FRET assay

>  <BAO Format ID>  (19) 
BAO_0000357

>  <BAO Label>  (19) 
single protein format

>  <Assay Organism>  (19) 
Homo sapiens

>  <Target ChEMBL ID>  (19) 
CHEMBL3717

>  <Target Name>  (19) 
Hepatocyte growth factor receptor

>  <Target Organism>  (19) 
Homo sapiens

>  <Target Type>  (19) 
SINGLE PROTEIN

>  <Document ChEMBL ID>  (19) 
CHEMBL1949502

>  <Source Description>  (19) 
Scientific Literature

>  <Document Journal>  (19) 
Eur J Med Chem

>  <Document Year>  (19) 
2012.0

>  <Active>  (19) 
0.0

$$$$

     RDKit          2D

 30 33  0  0  0  0  0  0  0  0999 V2000
  -10.0338  -12.7796    0.0000 C   0  0  0  0  0  0  0  0  0  0  0  0
   -8.7348  -13.5296    0.0000 C   0  0  0  0  0  0  0  0  0  0  0  0
   -8.5780  -15.0214    0.0000 C   0  0  0  0  0  0  0  0  0  0  0  0
   -7.1108  -15.3333    0.0000 C   0  0  0  0  0  0  0  0  0  0  0  0
   -6.3608  -14.0342    0.0000 C   0  0  0  0  0  0  0  0  0  0  0  0
   -4.8690  -13.8775    0.0000 C   0  0  0  0  0  0  0  0  0  0  0  0
   -7.3645  -12.9195    0.0000 N   0  0  0  0  0  0  0  0  0  0  0  0
   -7.0526  -11.4523    0.0000 C   0  0  0  0  0  0  0  0  0  0  0  0
   -5.6260  -10.9888    0.0000 C   0  0  0  0  0  0  0  0  0  0  0  0
   -5.3142   -9.5216    0.0000 C   0  0  0  0  0  0  0  0  0  0  0  0
   -6.4289   -8.5179    0.0000 C   0  0  0  0  0  0  0  0  0  0  0  0
   -6.1170   -7.0506    0.0000 C   0  0  0  0  0  0  0  0  0  0  0  0
   -7.2317   -6.0469    0.0000 O   0  0  0  0  0  0  0  0  0  0  0  0
   -4.6904   -6.5871    0.0000 N   0  0  0  0  0  0  0  0  0  0  0  0
   -4.3786   -5.1199    0.0000 N   0  0  0  0  0  0  0  0  0  0  0  0
   -2.9520   -4.6564    0.0000 C   0  0  0  0  0  0  0  0  0  0  0  0
   -1.8373   -5.6601    0.0000 O   0  0  0  0  0  0  0  0  0  0  0  0
   -2.6401   -3.1891    0.0000 C   0  0  0  0  0  0  0  0  0  0  0  0
   -3.7548   -2.1855    0.0000 O   0  0  0  0  0  0  0  0  0  0  0  0
   -1.2135   -2.7256    0.0000 C   0  0  0  0  0  0  0  0  0  0  0  0
   -0.0000   -3.6073    0.0000 C   0  0  0  0  0  0  0  0  0  0  0  0
    1.2135   -2.7256    0.0000 N   0  0  0  0  0  0  0  0  0  0  0  0
    0.7500   -1.2990    0.0000 C   0  0  0  0  0  0  0  0  0  0  0  0
    1.5000    0.0000    0.0000 C   0  0  0  0  0  0  0  0  0  0  0  0
    0.7500    1.2990    0.0000 C   0  0  0  0  0  0  0  0  0  0  0  0
   -0.7500    1.2990    0.0000 C   0  0  0  0  0  0  0  0  0  0  0  0
   -1.5000    0.0000    0.0000 C   0  0  0  0  0  0  0  0  0  0  0  0
   -0.7500   -1.2990    0.0000 C   0  0  0  0  0  0  0  0  0  0  0  0
   -7.8555   -8.9814    0.0000 C   0  0  0  0  0  0  0  0  0  0  0  0
   -8.1673  -10.4486    0.0000 C   0  0  0  0  0  0  0  0  0  0  0  0
  1  2  1  0
  2  3  2  0
  3  4  1  0
  4  5  2  0
  5  6  1  0
  5  7  1  0
  7  8  1  0
  8  9  2  0
  9 10  1  0
 10 11  2  0
 11 12  1  0
 12 13  2  0
 12 14  1  0
 14 15  1  0
 15 16  1  0
 16 17  2  0
 16 18  1  0
 18 19  2  0
 18 20  1  0
 20 21  2  0
 21 22  1  0
 22 23  1  0
 23 24  2  0
 24 25  1  0
 25 26  2  0
 26 27  1  0
 27 28  2  0
 11 29  1  0
 29 30  2  0
  7  2  1  0
 30  8  1  0
 28 20  1  0
 28 23  1  0
M  END
>  <Compound_ID>  (20) 
CHEMBL1796185

>  <Molecule Name>  (20) 
nan

>  <Molecular Weight>  (20) 
400.44

>  <AlogP>  (20) 
3.22

>  <Smiles>  (20) 
Cc1ccc(C)n1-c1ccc(C(=O)NNC(=O)C(=O)c2c[nH]c3ccccc23)cc1

>  <Standard Type>  (20) 
IC50

>  <Standard Relation>  (20) 
'='

>  <Standard Units>  (20) 
nM

>  <Standard Value>  (20) 
16000.0

>  <Assay ChEMBL ID>  (20) 
CHEMBL1798372

>  <Assay Description>  (20) 
Inhibition of c-MET assessed as incorporation of p33 using [gammaP33]-ATP by microplate scintillation counting

>  <BAO Format ID>  (20) 
BAO_0000357

>  <BAO Label>  (20) 
single protein format

>  <Assay Organism>  (20) 
None

>  <Target ChEMBL ID>  (20) 
CHEMBL3717

>  <Target Name>  (20) 
Hepatocyte growth factor receptor

>  <Target Organism>  (20) 
Homo sapiens

>  <Target Type>  (20) 
SINGLE PROTEIN

>  <Document ChEMBL ID>  (20) 
CHEMBL1795330

>  <Source Description>  (20) 
Scientific Literature

>  <Document Journal>  (20) 
Eur J Med Chem

>  <Document Year>  (20) 
2011.0

>  <Active>  (20) 
0.0

$$$$

     RDKit          2D

 36 40  0  0  0  0  0  0  0  0999 V2000
   -5.2500   -3.8971    0.0000 C   0  0  0  0  0  0  0  0  0  0  0  0
   -3.7500   -3.8971    0.0000 N   0  0  0  0  0  0  0  0  0  0  0  0
   -3.0000   -5.1962    0.0000 C   0  0  0  0  0  0  0  0  0  0  0  0
   -3.7500   -6.4952    0.0000 O   0  0  0  0  0  0  0  0  0  0  0  0
   -1.5000   -5.1962    0.0000 C   0  0  0  0  0  0  0  0  0  0  0  0
   -0.7500   -3.8971    0.0000 C   0  0  0  0  0  0  0  0  0  0  0  0
    0.7500   -3.8971    0.0000 C   0  0  0  0  0  0  0  0  0  0  0  0
    1.5000   -2.5981    0.0000 O   0  0  0  0  0  0  0  0  0  0  0  0
    0.7500   -1.2990    0.0000 C   0  0  0  0  0  0  0  0  0  0  0  0
    1.5000    0.0000    0.0000 C   0  0  0  0  0  0  0  0  0  0  0  0
    0.7500    1.2990    0.0000 C   0  0  0  0  0  0  0  0  0  0  0  0
   -0.7500    1.2990    0.0000 C   0  0  0  0  0  0  0  0  0  0  0  0
   -1.7537    2.4138    0.0000 O   0  0  0  0  0  0  0  0  0  0  0  0
   -3.1240    1.8037    0.0000 C   0  0  0  0  0  0  0  0  0  0  0  0
   -4.4231    2.5537    0.0000 N   0  0  0  0  0  0  0  0  0  0  0  0
   -4.4231    4.0537    0.0000 C   0  0  0  0  0  0  0  0  0  0  0  0
   -3.1240    4.8037    0.0000 C   0  0  0  0  0  0  0  0  0  0  0  0
   -3.1240    6.3037    0.0000 C   0  0  0  0  0  0  0  0  0  0  0  0
   -4.4231    7.0537    0.0000 C   0  0  0  0  0  0  0  0  0  0  0  0
   -4.4231    8.5537    0.0000 Cl  0  0  0  0  0  0  0  0  0  0  0  0
   -5.7221    6.3037    0.0000 C   0  0  0  0  0  0  0  0  0  0  0  0
   -7.0211    7.0537    0.0000 O   0  0  0  0  0  0  0  0  0  0  0  0
   -8.3202    6.3037    0.0000 C   0  0  0  0  0  0  0  0  0  0  0  0
   -9.6192    7.0537    0.0000 C   0  0  0  0  0  0  0  0  0  0  0  0
  -10.9895    6.4435    0.0000 C   0  0  0  0  0  0  0  0  0  0  0  0
  -11.9932    7.5583    0.0000 C   0  0  0  0  0  0  0  0  0  0  0  0
  -11.2432    8.8573    0.0000 C   0  0  0  0  0  0  0  0  0  0  0  0
   -9.7760    8.5454    0.0000 N   0  0  0  0  0  0  0  0  0  0  0  0
   -8.6613    9.5491    0.0000 C   0  0  0  0  0  0  0  0  0  0  0  0
   -5.7221    4.8037    0.0000 C   0  0  0  0  0  0  0  0  0  0  0  0
   -2.9672    0.3119    0.0000 N   0  0  0  0  0  0  0  0  0  0  0  0
   -1.5000    0.0000    0.0000 C   0  0  0  0  0  0  0  0  0  0  0  0
   -0.7500   -1.2990    0.0000 C   0  0  0  0  0  0  0  0  0  0  0  0
    1.5000   -5.1962    0.0000 C   0  0  0  0  0  0  0  0  0  0  0  0
    0.7500   -6.4952    0.0000 C   0  0  0  0  0  0  0  0  0  0  0  0
   -0.7500   -6.4952    0.0000 N   0  0  0  0  0  0  0  0  0  0  0  0
  1  2  1  0
  2  3  1  0
  3  4  2  0
  3  5  1  0
  5  6  2  0
  6  7  1  0
  7  8  1  0
  8  9  1  0
  9 10  2  0
 10 11  1  0
 11 12  2  0
 12 13  1  0
 13 14  1  0
 14 15  1  0
 15 16  1  0
 16 17  2  0
 17 18  1  0
 18 19  2  0
 19 20  1  0
 19 21  1  0
 21 22  1  0
 22 23  1  0
 24 23  1  6
 24 25  1  0
 25 26  1  0
 26 27  1  0
 27 28  1  0
 28 29  1  0
 21 30  2  0
 14 31  2  0
 31 32  1  0
 32 33  2  0
  7 34  2  0
 34 35  1  0
 35 36  2  0
 36  5  1  0
 33  9  1  0
 32 12  1  0
 30 16  1  0
 28 24  1  0
M  END
>  <Compound_ID>  (21) 
CHEMBL231568

>  <Molecule Name>  (21) 
nan

>  <Molecular Weight>  (21) 
507.98

>  <AlogP>  (21) 
5.24

>  <Smiles>  (21) 
CNC(=O)c1cc(Oc2ccc3oc(Nc4ccc(Cl)c(OC[C@@H]5CCCN5C)c4)nc3c2)ccn1

>  <Standard Type>  (21) 
IC50

>  <Standard Relation>  (21) 
'='

>  <Standard Units>  (21) 
nM

>  <Standard Value>  (21) 
13700.0

>  <Assay ChEMBL ID>  (21) 
CHEMBL895916

>  <Assay Description>  (21) 
Inhibition of cMet kinase

>  <BAO Format ID>  (21) 
BAO_0000357

>  <BAO Label>  (21) 
single protein format

>  <Assay Organism>  (21) 
Homo sapiens

>  <Target ChEMBL ID>  (21) 
CHEMBL3717

>  <Target Name>  (21) 
Hepatocyte growth factor receptor

>  <Target Organism>  (21) 
Homo sapiens

>  <Target Type>  (21) 
SINGLE PROTEIN

>  <Document ChEMBL ID>  (21) 
CHEMBL1148766

>  <Source Description>  (21) 
Scientific Literature

>  <Document Journal>  (21) 
J Med Chem

>  <Document Year>  (21) 
2007.0

>  <Active>  (21) 
0.0

$$$$

     RDKit          2D

 29 33  0  0  0  0  0  0  0  0999 V2000
   -8.4384  -11.7357    0.0000 O   0  0  0  0  0  0  0  0  0  0  0  0
   -7.5567  -10.5222    0.0000 C   0  0  0  0  0  0  0  0  0  0  0  0
   -8.1668   -9.1519    0.0000 C   0  0  0  0  0  0  0  0  0  0  0  0
   -7.2851   -7.9383    0.0000 C   0  0  0  0  0  0  0  0  0  0  0  0
   -5.7933   -8.0951    0.0000 C   0  0  0  0  0  0  0  0  0  0  0  0
   -4.9117   -6.8816    0.0000 C   0  0  0  0  0  0  0  0  0  0  0  0
   -3.4199   -7.0384    0.0000 C   0  0  0  0  0  0  0  0  0  0  0  0
   -2.5382   -5.8249    0.0000 N   0  0  0  0  0  0  0  0  0  0  0  0
   -3.2490   -4.5040    0.0000 C   0  0  0  0  0  0  0  0  0  0  0  0
   -2.6595   -3.1247    0.0000 C   0  0  0  0  0  0  0  0  0  0  0  0
   -1.2135   -2.7256    0.0000 C   0  0  0  0  0  0  0  0  0  0  0  0
   -0.0000   -3.6073    0.0000 C   0  0  0  0  0  0  0  0  0  0  0  0
    1.2135   -2.7256    0.0000 N   0  0  0  0  0  0  0  0  0  0  0  0
    0.7500   -1.2990    0.0000 C   0  0  0  0  0  0  0  0  0  0  0  0
    1.5000    0.0000    0.0000 C   0  0  0  0  0  0  0  0  0  0  0  0
    0.7500    1.2990    0.0000 C   0  0  0  0  0  0  0  0  0  0  0  0
   -0.7500    1.2990    0.0000 C   0  0  0  0  0  0  0  0  0  0  0  0
   -1.5000    2.5981    0.0000 Br  0  0  0  0  0  0  0  0  0  0  0  0
   -1.5000    0.0000    0.0000 C   0  0  0  0  0  0  0  0  0  0  0  0
   -0.7500   -1.2990    0.0000 C   0  0  0  0  0  0  0  0  0  0  0  0
    0.0673   -5.1058    0.0000 C   0  0  0  0  0  0  0  0  0  0  0  0
   -1.0623   -6.0927    0.0000 C   0  0  0  0  0  0  0  0  0  0  0  0
   -0.7724   -7.5644    0.0000 C   0  0  0  0  0  0  0  0  0  0  0  0
    0.6471   -8.0492    0.0000 C   0  0  0  0  0  0  0  0  0  0  0  0
    1.7767   -7.0623    0.0000 N   0  0  0  0  0  0  0  0  0  0  0  0
    1.4868   -5.5906    0.0000 C   0  0  0  0  0  0  0  0  0  0  0  0
    2.6164   -4.6037    0.0000 Cl  0  0  0  0  0  0  0  0  0  0  0  0
   -5.1832   -9.4654    0.0000 C   0  0  0  0  0  0  0  0  0  0  0  0
   -6.0649  -10.6790    0.0000 C   0  0  0  0  0  0  0  0  0  0  0  0
  1  2  1  0
  2  3  2  0
  3  4  1  0
  4  5  2  0
  5  6  1  0
  6  7  1  0
  7  8  1  0
  8  9  1  0
  9 10  1  0
 10 11  1  0
 11 12  2  0
 12 13  1  0
 13 14  1  0
 14 15  2  0
 15 16  1  0
 16 17  2  0
 17 18  1  0
 17 19  1  0
 19 20  2  0
 12 21  1  0
 21 22  2  0
 22 23  1  0
 23 24  2  0
 24 25  1  0
 25 26  2  0
 26 27  1  0
  5 28  1  0
 28 29  2  0
 29  2  1  0
 22  8  1  0
 20 11  1  0
 26 21  1  0
 20 14  1  0
M  END
>  <Compound_ID>  (22) 
CHEMBL564679

>  <Molecule Name>  (22) 
nan

>  <Molecular Weight>  (22) 
468.78

>  <AlogP>  (22) 
5.96

>  <Smiles>  (22) 
Oc1ccc(CCN2CCc3c([nH]c4ccc(Br)cc34)-c3c2ccnc3Cl)cc1

>  <Standard Type>  (22) 
IC50

>  <Standard Relation>  (22) 
'='

>  <Standard Units>  (22) 
nM

>  <Standard Value>  (22) 
12500.0

>  <Assay ChEMBL ID>  (22) 
CHEMBL1036443

>  <Assay Description>  (22) 
Inhibition of recombinant MET

>  <BAO Format ID>  (22) 
BAO_0000357

>  <BAO Label>  (22) 
single protein format

>  <Assay Organism>  (22) 
None

>  <Target ChEMBL ID>  (22) 
CHEMBL3717

>  <Target Name>  (22) 
Hepatocyte growth factor receptor

>  <Target Organism>  (22) 
Homo sapiens

>  <Target Type>  (22) 
SINGLE PROTEIN

>  <Document ChEMBL ID>  (22) 
CHEMBL1151875

>  <Source Description>  (22) 
Scientific Literature

>  <Document Journal>  (22) 
Bioorg Med Chem

>  <Document Year>  (22) 
2009.0

>  <Active>  (22) 
0.0

$$$$

     RDKit          2D

 15 17  0  0  0  0  0  0  0  0999 V2000
    1.2760    0.0000    0.0000 C   0  0  0  0  0  0  0  0  0  0  0  0
    0.3943    1.2135    0.0000 N   0  0  0  0  0  0  0  0  0  0  0  0
   -1.0323    0.7500    0.0000 N   0  0  0  0  0  0  0  0  0  0  0  0
   -1.0323   -0.7500    0.0000 C   0  0  0  0  0  0  0  0  0  0  0  0
   -2.1470   -1.7537    0.0000 N   0  0  0  0  0  0  0  0  0  0  0  0
   -1.8351   -3.2209    0.0000 N   0  0  0  0  0  0  0  0  0  0  0  0
   -0.4086   -3.6844    0.0000 C   0  0  0  0  0  0  0  0  0  0  0  0
   -0.0967   -5.1517    0.0000 N   0  0  0  0  0  0  0  0  0  0  0  0
   -1.2114   -6.1554    0.0000 C   0  0  0  0  0  0  0  0  0  0  0  0
   -0.8995   -7.6226    0.0000 C   0  0  0  0  0  0  0  0  0  0  0  0
    0.5271   -8.0861    0.0000 O   0  0  0  0  0  0  0  0  0  0  0  0
    1.6418   -7.0824    0.0000 C   0  0  0  0  0  0  0  0  0  0  0  0
    1.3299   -5.6152    0.0000 C   0  0  0  0  0  0  0  0  0  0  0  0
    0.7062   -2.6807    0.0000 N   0  0  0  0  0  0  0  0  0  0  0  0
    0.3943   -1.2135    0.0000 N   0  0  0  0  0  0  0  0  0  0  0  0
  1  2  2  0
  2  3  1  0
  3  4  2  0
  4  5  1  0
  5  6  2  0
  6  7  1  0
  7  8  1  0
  8  9  1  0
  9 10  1  0
 10 11  1  0
 11 12  1  0
 12 13  1  0
  7 14  2  0
 14 15  1  0
 15  1  1  0
 15  4  1  0
 13  8  1  0
M  END
>  <Compound_ID>  (23) 
CHEMBL3809108

>  <Molecule Name>  (23) 
nan

>  <Molecular Weight>  (23) 
207.20

>  <AlogP>  (23) 
-1.25

>  <Smiles>  (23) 
c1nnc2nnc(N3CCOCC3)nn12

>  <Standard Type>  (23) 
IC50

>  <Standard Relation>  (23) 
'='

>  <Standard Units>  (23) 
nM

>  <Standard Value>  (23) 
11770.0

>  <Assay ChEMBL ID>  (23) 
CHEMBL3812838

>  <Assay Description>  (23) 
Inhibition of cMET (unknown origin) using TK substrate-biotin as substrate preincubated with compound followed by substrate addition for 40 mins measured after 1 hr by HTRF assay

>  <BAO Format ID>  (23) 
BAO_0000357

>  <BAO Label>  (23) 
single protein format

>  <Assay Organism>  (23) 
Homo sapiens

>  <Target ChEMBL ID>  (23) 
CHEMBL3717

>  <Target Name>  (23) 
Hepatocyte growth factor receptor

>  <Target Organism>  (23) 
Homo sapiens

>  <Target Type>  (23) 
SINGLE PROTEIN

>  <Document ChEMBL ID>  (23) 
CHEMBL3808385

>  <Source Description>  (23) 
Scientific Literature

>  <Document Journal>  (23) 
Bioorg Med Chem Lett

>  <Document Year>  (23) 
2016.0

>  <Active>  (23) 
0.0

$$$$

     RDKit          2D

 38 41  0  0  0  0  0  0  0  0999 V2000
    3.7500   -1.2990    0.0000 C   0  0  0  0  0  0  0  0  0  0  0  0
    3.0000    0.0000    0.0000 N   0  0  0  0  0  0  0  0  0  0  0  0
    1.5000    0.0000    0.0000 C   0  0  0  0  0  0  0  0  0  0  0  0
    0.7500   -1.2990    0.0000 N   0  0  0  0  0  0  0  0  0  0  0  0
   -0.7500   -1.2990    0.0000 C   0  0  0  0  0  0  0  0  0  0  0  0
   -1.5000    0.0000    0.0000 N   0  0  0  0  0  0  0  0  0  0  0  0
   -0.7500    1.2990    0.0000 C   0  0  0  0  0  0  0  0  0  0  0  0
   -1.5000    2.5981    0.0000 C   0  0  0  0  0  0  0  0  0  0  0  0
   -0.7500    3.8971    0.0000 C   0  0  0  0  0  0  0  0  0  0  0  0
   -1.5000    5.1962    0.0000 C   0  0  0  0  0  0  0  0  0  0  0  0
   -3.0000    5.1962    0.0000 C   0  0  0  0  0  0  0  0  0  0  0  0
   -3.7500    3.8971    0.0000 N   0  0  0  0  0  0  0  0  0  0  0  0
   -3.0000    2.5981    0.0000 C   0  0  0  0  0  0  0  0  0  0  0  0
   -3.7500    1.2990    0.0000 O   0  0  0  0  0  0  0  0  0  0  0  0
   -5.2500    1.2990    0.0000 C   0  0  0  0  0  0  0  0  0  0  0  0
   -6.0000    2.5981    0.0000 C   0  0  0  0  0  0  0  0  0  0  0  0
   -7.5000    2.5981    0.0000 C   0  0  0  0  0  0  0  0  0  0  0  0
   -8.2500    3.8971    0.0000 N   0  0  0  0  0  0  0  0  0  0  0  0
   -7.5000    5.1962    0.0000 C   0  0  0  0  0  0  0  0  0  0  0  0
   -6.0000    5.1962    0.0000 O   0  0  0  0  0  0  0  0  0  0  0  0
   -8.2500    6.4952    0.0000 C   0  0  0  0  0  0  0  0  0  0  0  0
   -7.5000    7.7942    0.0000 C   0  0  0  0  0  0  0  0  0  0  0  0
   -8.2500    9.0933    0.0000 C   0  0  0  0  0  0  0  0  0  0  0  0
   -9.7500    9.0933    0.0000 C   0  0  0  0  0  0  0  0  0  0  0  0
  -10.5000    7.7942    0.0000 C   0  0  0  0  0  0  0  0  0  0  0  0
  -12.0000    7.7942    0.0000 O   0  0  0  0  0  0  0  0  0  0  0  0
  -12.7500    9.0933    0.0000 C   0  0  0  0  0  0  0  0  0  0  0  0
  -11.4510    9.8433    0.0000 F   0  0  0  0  0  0  0  0  0  0  0  0
  -14.0490    8.3433    0.0000 F   0  0  0  0  0  0  0  0  0  0  0  0
  -13.5000   10.3923    0.0000 C   0  0  0  0  0  0  0  0  0  0  0  0
  -12.7500   11.6913    0.0000 F   0  0  0  0  0  0  0  0  0  0  0  0
  -15.0000   10.3923    0.0000 F   0  0  0  0  0  0  0  0  0  0  0  0
   -9.7500    6.4952    0.0000 C   0  0  0  0  0  0  0  0  0  0  0  0
   -8.2500    1.2990    0.0000 C   0  0  0  0  0  0  0  0  0  0  0  0
   -7.5000    0.0000    0.0000 C   0  0  0  0  0  0  0  0  0  0  0  0
   -6.0000    0.0000    0.0000 C   0  0  0  0  0  0  0  0  0  0  0  0
   -5.2500   -1.2990    0.0000 C   0  0  0  0  0  0  0  0  0  0  0  0
    0.7500    1.2990    0.0000 N   0  0  0  0  0  0  0  0  0  0  0  0
  1  2  1  0
  2  3  1  0
  3  4  2  0
  4  5  1  0
  5  6  2  0
  6  7  1  0
  7  8  1  0
  8  9  2  0
  9 10  1  0
 10 11  2  0
 11 12  1  0
 12 13  2  0
 13 14  1  0
 14 15  1  0
 15 16  2  0
 16 17  1  0
 17 18  1  0
 18 19  1  0
 19 20  2  0
 19 21  1  0
 21 22  2  0
 22 23  1  0
 23 24  2  0
 24 25  1  0
 25 26  1  0
 26 27  1  0
 27 28  1  0
 27 29  1  0
 27 30  1  0
 30 31  1  0
 30 32  1  0
 25 33  2  0
 17 34  2  0
 34 35  1  0
 35 36  2  0
 36 37  1  0
  7 38  2  0
 38  3  1  0
 13  8  1  0
 36 15  1  0
 33 21  1  0
M  END
>  <Compound_ID>  (24) 
CHEMBL246356

>  <Molecule Name>  (24) 
nan

>  <Molecular Weight>  (24) 
528.47

>  <AlogP>  (24) 
5.57

>  <Smiles>  (24) 
CNc1ncnc(-c2cccnc2Oc2cc(NC(=O)c3cccc(OC(F)(F)C(F)F)c3)ccc2C)n1

>  <Standard Type>  (24) 
IC50

>  <Standard Relation>  (24) 
'='

>  <Standard Units>  (24) 
nM

>  <Standard Value>  (24) 
25000.0

>  <Assay ChEMBL ID>  (24) 
CHEMBL887089

>  <Assay Description>  (24) 
Inhibition of cMet by radioactive filtration assay

>  <BAO Format ID>  (24) 
BAO_0000357

>  <BAO Label>  (24) 
single protein format

>  <Assay Organism>  (24) 
None

>  <Target ChEMBL ID>  (24) 
CHEMBL3717

>  <Target Name>  (24) 
Hepatocyte growth factor receptor

>  <Target Organism>  (24) 
Homo sapiens

>  <Target Type>  (24) 
SINGLE PROTEIN

>  <Document ChEMBL ID>  (24) 
CHEMBL1139197

>  <Source Description>  (24) 
Scientific Literature

>  <Document Journal>  (24) 
Bioorg Med Chem Lett

>  <Document Year>  (24) 
2007.0

>  <Active>  (24) 
0.0

$$$$

     RDKit          2D

 28 30  0  0  0  0  0  0  0  0999 V2000
    3.0000    0.0000    0.0000 C   0  0  0  0  0  0  0  0  0  0  0  0
    1.5000    0.0000    0.0000 C   0  0  0  0  0  0  0  0  0  0  0  0
    0.7500   -1.2990    0.0000 C   0  0  0  0  0  0  0  0  0  0  0  0
    1.5000   -2.5981    0.0000 C   0  0  0  0  0  0  0  0  0  0  0  0
    2.2500   -3.8971    0.0000 N   0  0  0  0  0  0  0  0  0  0  0  0
   -0.7500   -1.2990    0.0000 C   0  0  0  0  0  0  0  0  0  0  0  0
   -1.5000   -2.5981    0.0000 O   0  0  0  0  0  0  0  0  0  0  0  0
   -1.5000    0.0000    0.0000 N   0  0  0  0  0  0  0  0  0  0  0  0
   -3.0000    0.0000    0.0000 C   0  0  0  0  0  0  0  0  0  0  0  0
   -3.7500    1.2990    0.0000 C   0  0  0  0  0  0  0  0  0  0  0  0
   -3.0000    2.5981    0.0000 C   0  0  0  0  0  0  0  0  0  0  0  0
   -3.7500    3.8971    0.0000 C   0  0  0  0  0  0  0  0  0  0  0  0
   -5.2500    3.8971    0.0000 C   0  0  0  0  0  0  0  0  0  0  0  0
   -6.0000    2.5981    0.0000 C   0  0  0  0  0  0  0  0  0  0  0  0
   -5.2500    1.2990    0.0000 C   0  0  0  0  0  0  0  0  0  0  0  0
   -0.7500    1.2990    0.0000 C   0  0  0  0  0  0  0  0  0  0  0  0
   -1.5000    2.5981    0.0000 O   0  0  0  0  0  0  0  0  0  0  0  0
    0.7500    1.2990    0.0000 C   0  0  0  0  0  0  0  0  0  0  0  0
    1.5000    2.5981    0.0000 C   0  0  0  0  0  0  0  0  0  0  0  0
    0.7500    3.8971    0.0000 N   0  0  0  0  0  0  0  0  0  0  0  0
    1.5000    5.1962    0.0000 C   0  0  0  0  0  0  0  0  0  0  0  0
    3.0000    5.1962    0.0000 C   0  0  0  0  0  0  0  0  0  0  0  0
    3.7500    6.4952    0.0000 C   0  0  0  0  0  0  0  0  0  0  0  0
    5.2500    6.4952    0.0000 Cl  0  0  0  0  0  0  0  0  0  0  0  0
    3.0000    7.7942    0.0000 C   0  0  0  0  0  0  0  0  0  0  0  0
    1.5000    7.7942    0.0000 C   0  0  0  0  0  0  0  0  0  0  0  0
    0.7500    6.4952    0.0000 C   0  0  0  0  0  0  0  0  0  0  0  0
   -0.7500    6.4952    0.0000 O   0  0  0  0  0  0  0  0  0  0  0  0
  1  2  1  0
  2  3  2  0
  3  4  1  0
  4  5  3  0
  3  6  1  0
  6  7  2  0
  6  8  1  0
  8  9  1  0
  9 10  1  0
 10 11  2  0
 11 12  1  0
 12 13  2  0
 13 14  1  0
 14 15  2  0
  8 16  1  0
 16 17  2  0
 16 18  1  0
 18 19  2  0
 19 20  1  0
 20 21  1  0
 21 22  2  0
 22 23  1  0
 23 24  1  0
 23 25  2  0
 25 26  1  0
 26 27  2  0
 27 28  1  0
 18  2  1  0
 27 21  1  0
 15 10  1  0
M  END
>  <Compound_ID>  (25) 
CHEMBL473533

>  <Molecule Name>  (25) 
nan

>  <Molecular Weight>  (25) 
393.83

>  <AlogP>  (25) 
3.75

>  <Smiles>  (25) 
CC1=C(C#N)C(=O)N(Cc2ccccc2)C(=O)/C1=C\Nc1cc(Cl)ccc1O

>  <Standard Type>  (25) 
IC50

>  <Standard Relation>  (25) 
'='

>  <Standard Units>  (25) 
nM

>  <Standard Value>  (25) 
43000.0

>  <Assay ChEMBL ID>  (25) 
CHEMBL944255

>  <Assay Description>  (25) 
Inhibition of human Met by electrochemiluminescent two-site immunoassay

>  <BAO Format ID>  (25) 
BAO_0000357

>  <BAO Label>  (25) 
single protein format

>  <Assay Organism>  (25) 
Homo sapiens

>  <Target ChEMBL ID>  (25) 
CHEMBL3717

>  <Target Name>  (25) 
Hepatocyte growth factor receptor

>  <Target Organism>  (25) 
Homo sapiens

>  <Target Type>  (25) 
SINGLE PROTEIN

>  <Document ChEMBL ID>  (25) 
CHEMBL1140897

>  <Source Description>  (25) 
Scientific Literature

>  <Document Journal>  (25) 
J Med Chem

>  <Document Year>  (25) 
2009.0

>  <Active>  (25) 
0.0

$$$$

     RDKit          2D

 29 31  0  0  0  0  0  0  0  0999 V2000
   -5.3120   -0.6406    0.0000 C   0  0  0  0  0  0  0  0  0  0  0  0
   -6.4268    0.3631    0.0000 C   0  0  0  0  0  0  0  0  0  0  0  0
   -7.8533   -0.1004    0.0000 C   0  0  0  0  0  0  0  0  0  0  0  0
   -8.9681    0.9033    0.0000 C   0  0  0  0  0  0  0  0  0  0  0  0
   -8.6562    2.3705    0.0000 C   0  0  0  0  0  0  0  0  0  0  0  0
   -9.7709    3.3742    0.0000 O   0  0  0  0  0  0  0  0  0  0  0  0
   -7.2296    2.8340    0.0000 C   0  0  0  0  0  0  0  0  0  0  0  0
   -6.1149    1.8303    0.0000 C   0  0  0  0  0  0  0  0  0  0  0  0
   -4.6883    2.2939    0.0000 C   0  0  0  0  0  0  0  0  0  0  0  0
   -3.5736    1.2902    0.0000 C   0  0  0  0  0  0  0  0  0  0  0  0
   -2.1470    1.7537    0.0000 C   0  0  0  0  0  0  0  0  0  0  0  0
   -1.8351    3.2209    0.0000 C   0  0  0  0  0  0  0  0  0  0  0  0
   -2.9499    4.2246    0.0000 O   0  0  0  0  0  0  0  0  0  0  0  0
   -0.4086    3.6844    0.0000 C   0  0  0  0  0  0  0  0  0  0  0  0
    0.7062    2.6807    0.0000 C   0  0  0  0  0  0  0  0  0  0  0  0
    0.3943    1.2135    0.0000 C   0  0  0  0  0  0  0  0  0  0  0  0
    1.8615    1.5254    0.0000 C   0  0  0  0  0  0  0  0  0  0  0  0
    1.2760    0.0000    0.0000 C   0  0  0  0  0  0  0  0  0  0  0  0
    2.7760    0.0000    0.0000 C   0  0  0  0  0  0  0  0  0  0  0  0
    3.5260   -1.2990    0.0000 C   0  0  0  0  0  0  0  0  0  0  0  0
    3.5260    1.2990    0.0000 C   0  0  0  0  0  0  0  0  0  0  0  0
    5.0260    1.2990    0.0000 C   0  0  0  0  0  0  0  0  0  0  0  0
    5.7760    2.5981    0.0000 C   0  0  0  0  0  0  0  0  0  0  0  0
    7.2760    2.5981    0.0000 C   0  0  0  0  0  0  0  0  0  0  0  0
    8.0260    3.8971    0.0000 C   0  0  0  0  0  0  0  0  0  0  0  0
    8.0260    1.2990    0.0000 C   0  0  0  0  0  0  0  0  0  0  0  0
    0.3943   -1.2135    0.0000 C   0  0  0  0  0  0  0  0  0  0  0  0
   -1.0323   -0.7500    0.0000 C   0  0  0  0  0  0  0  0  0  0  0  0
   -1.0323    0.7500    0.0000 C   0  0  0  0  0  0  0  0  0  0  0  0
  1  2  1  0
  2  3  2  0
  3  4  1  0
  4  5  2  0
  5  6  1  0
  5  7  1  0
  7  8  2  0
  8  9  1  0
  9 10  1  0
 11 10  1  6
 11 12  1  0
 12 13  2  0
 12 14  1  0
 14 15  1  0
 15 16  1  0
 16 17  1  1
 16 18  1  0
 18 19  1  0
 19 20  1  1
 19 21  1  0
 21 22  2  0
 22 23  1  0
 23 24  1  0
 24 25  1  0
 24 26  1  0
 18 27  1  1
 27 28  1  0
 29 28  1  1
  8  2  1  0
 29 11  1  0
 29 16  1  0
M  END
>  <Compound_ID>  (26) 
CHEMBL518060

>  <Molecule Name>  (26) 
CALICOFEROL A

>  <Molecular Weight>  (26) 
396.62

>  <AlogP>  (26) 
6.88

>  <Smiles>  (26) 
Cc1ccc(O)cc1CC[C@@H]1C(=O)CC[C@]2(C)[C@@H]([C@H](C)/C=C/CC(C)C)CC[C@@H]12

>  <Standard Type>  (26) 
IC50

>  <Standard Relation>  (26) 
'='

>  <Standard Units>  (26) 
nM

>  <Standard Value>  (26) 
47600.0

>  <Assay ChEMBL ID>  (26) 
CHEMBL1926227

>  <Assay Description>  (26) 
Inhibition of wild type human MET using poly(Ala,Glu,Lys,Tyr) as substrate

>  <BAO Format ID>  (26) 
BAO_0000357

>  <BAO Label>  (26) 
single protein format

>  <Assay Organism>  (26) 
Homo sapiens

>  <Target ChEMBL ID>  (26) 
CHEMBL3717

>  <Target Name>  (26) 
Hepatocyte growth factor receptor

>  <Target Organism>  (26) 
Homo sapiens

>  <Target Type>  (26) 
SINGLE PROTEIN

>  <Document ChEMBL ID>  (26) 
CHEMBL1921742

>  <Source Description>  (26) 
Scientific Literature

>  <Document Journal>  (26) 
Bioorg Med Chem

>  <Document Year>  (26) 
2011.0

>  <Active>  (26) 
0.0

$$$$

     RDKit          2D

 37 42  0  0  0  0  0  0  0  0999 V2000
    0.8488  -13.1824    0.0000 O   0  0  0  0  0  0  0  0  0  0  0  0
    0.0101  -14.4260    0.0000 C   0  0  0  0  0  0  0  0  0  0  0  0
    0.6676  -15.7742    0.0000 N   0  0  0  0  0  0  0  0  0  0  0  0
    2.1640  -15.8788    0.0000 C   0  0  0  0  0  0  0  0  0  0  0  0
    2.8215  -17.2270    0.0000 C   0  0  0  0  0  0  0  0  0  0  0  0
    4.3179  -17.3316    0.0000 C   0  0  0  0  0  0  0  0  0  0  0  0
    5.1566  -16.0881    0.0000 C   0  0  0  0  0  0  0  0  0  0  0  0
    6.6530  -16.1927    0.0000 F   0  0  0  0  0  0  0  0  0  0  0  0
    4.4991  -14.7399    0.0000 C   0  0  0  0  0  0  0  0  0  0  0  0
    3.0027  -14.6353    0.0000 C   0  0  0  0  0  0  0  0  0  0  0  0
   -1.4863  -14.3214    0.0000 C   0  0  0  0  0  0  0  0  0  0  0  0
   -1.6431  -12.8296    0.0000 C   0  0  0  0  0  0  0  0  0  0  0  0
   -3.0134  -12.2195    0.0000 O   0  0  0  0  0  0  0  0  0  0  0  0
   -0.4296  -11.9479    0.0000 N   0  0  0  0  0  0  0  0  0  0  0  0
   -0.5864  -10.4561    0.0000 C   0  0  0  0  0  0  0  0  0  0  0  0
    0.6272   -9.5744    0.0000 C   0  0  0  0  0  0  0  0  0  0  0  0
    0.4704   -8.0826    0.0000 C   0  0  0  0  0  0  0  0  0  0  0  0
   -0.8999   -7.4725    0.0000 C   0  0  0  0  0  0  0  0  0  0  0  0
   -1.0567   -5.9808    0.0000 O   0  0  0  0  0  0  0  0  0  0  0  0
    0.1568   -5.0991    0.0000 C   0  0  0  0  0  0  0  0  0  0  0  0
    1.5271   -5.7092    0.0000 C   0  0  0  0  0  0  0  0  0  0  0  0
    2.7406   -4.8275    0.0000 C   0  0  0  0  0  0  0  0  0  0  0  0
    2.5838   -3.3357    0.0000 N   0  0  0  0  0  0  0  0  0  0  0  0
    1.2135   -2.7256    0.0000 C   0  0  0  0  0  0  0  0  0  0  0  0
   -0.0000   -3.6073    0.0000 C   0  0  0  0  0  0  0  0  0  0  0  0
   -1.2135   -2.7256    0.0000 N   0  0  0  0  0  0  0  0  0  0  0  0
   -0.7500   -1.2990    0.0000 C   0  0  0  0  0  0  0  0  0  0  0  0
    0.7500   -1.2990    0.0000 N   0  0  0  0  0  0  0  0  0  0  0  0
    1.5000    0.0000    0.0000 C   0  0  0  0  0  0  0  0  0  0  0  0
    0.7500    1.2990    0.0000 C   0  0  0  0  0  0  0  0  0  0  0  0
   -0.7500    1.2990    0.0000 C   0  0  0  0  0  0  0  0  0  0  0  0
   -1.5000    0.0000    0.0000 C   0  0  0  0  0  0  0  0  0  0  0  0
   -2.1135   -8.3542    0.0000 C   0  0  0  0  0  0  0  0  0  0  0  0
   -3.4838   -7.7441    0.0000 F   0  0  0  0  0  0  0  0  0  0  0  0
   -1.9567   -9.8460    0.0000 C   0  0  0  0  0  0  0  0  0  0  0  0
   -1.8492  -15.7768    0.0000 C   0  0  0  0  0  0  0  0  0  0  0  0
   -2.9282  -14.7348    0.0000 C   0  0  0  0  0  0  0  0  0  0  0  0
  1  2  2  0
  2  3  1  0
  3  4  1  0
  4  5  2  0
  5  6  1  0
  6  7  2  0
  7  8  1  0
  7  9  1  0
  9 10  2  0
  2 11  1  0
 11 12  1  0
 12 13  2  0
 12 14  1  0
 14 15  1  0
 15 16  2  0
 16 17  1  0
 17 18  2  0
 18 19  1  0
 19 20  1  0
 20 21  2  0
 21 22  1  0
 22 23  2  0
 23 24  1  0
 24 25  2  0
 25 26  1  0
 26 27  2  0
 27 28  1  0
 28 29  1  0
 29 30  1  0
 30 31  1  0
 31 32  1  0
 18 33  1  0
 33 34  1  0
 33 35  2  0
 11 36  1  0
 36 37  1  0
 10  4  1  0
 37 11  1  0
 35 15  1  0
 25 20  1  0
 32 27  1  0
 28 24  1  0
M  END
>  <Compound_ID>  (27) 
CHEMBL3360680

>  <Molecule Name>  (27) 
nan

>  <Molecular Weight>  (27) 
503.51

>  <AlogP>  (27) 
5.20

>  <Smiles>  (27) 
O=C(Nc1ccc(F)cc1)C1(C(=O)Nc2ccc(Oc3ccnc4c3nc3n4CCCC3)c(F)c2)CC1

>  <Standard Type>  (27) 
IC50

>  <Standard Relation>  (27) 
'='

>  <Standard Units>  (27) 
nM

>  <Standard Value>  (27) 
260000.0

>  <Assay ChEMBL ID>  (27) 
CHEMBL3374143

>  <Assay Description>  (27) 
Inhibition of recombinant c-Met (unknown origin) using poly (Glu,Tyr)4:1 substrate incubated for 60 mins by ELISA method

>  <BAO Format ID>  (27) 
BAO_0000357

>  <BAO Label>  (27) 
single protein format

>  <Assay Organism>  (27) 
Homo sapiens

>  <Target ChEMBL ID>  (27) 
CHEMBL3717

>  <Target Name>  (27) 
Hepatocyte growth factor receptor

>  <Target Organism>  (27) 
Homo sapiens

>  <Target Type>  (27) 
SINGLE PROTEIN

>  <Document ChEMBL ID>  (27) 
CHEMBL3352075

>  <Source Description>  (27) 
Scientific Literature

>  <Document Journal>  (27) 
Bioorg Med Chem Lett

>  <Document Year>  (27) 
2015.0

>  <Active>  (27) 
0.0

$$$$

     RDKit          2D

 38 42  0  0  0  0  0  0  0  0999 V2000
   -1.8373   -5.6601    0.0000 O   0  0  0  0  0  0  0  0  0  0  0  0
   -2.9520   -4.6564    0.0000 C   0  0  0  0  0  0  0  0  0  0  0  0
   -4.3786   -5.1199    0.0000 N   0  0  0  0  0  0  0  0  0  0  0  0
   -4.6904   -6.5871    0.0000 N   0  0  0  0  0  0  0  0  0  0  0  0
   -6.1170   -7.0506    0.0000 C   0  0  0  0  0  0  0  0  0  0  0  0
   -7.2317   -6.0469    0.0000 O   0  0  0  0  0  0  0  0  0  0  0  0
   -6.4289   -8.5179    0.0000 C   0  0  0  0  0  0  0  0  0  0  0  0
   -7.8555   -8.9814    0.0000 C   0  0  0  0  0  0  0  0  0  0  0  0
   -8.1673  -10.4486    0.0000 C   0  0  0  0  0  0  0  0  0  0  0  0
   -7.0526  -11.4523    0.0000 C   0  0  0  0  0  0  0  0  0  0  0  0
   -7.3645  -12.9195    0.0000 C   0  0  0  0  0  0  0  0  0  0  0  0
   -8.7911  -13.3831    0.0000 C   0  0  0  0  0  0  0  0  0  0  0  0
   -9.1029  -14.8503    0.0000 C   0  0  0  0  0  0  0  0  0  0  0  0
   -7.9882  -15.8540    0.0000 C   0  0  0  0  0  0  0  0  0  0  0  0
   -6.5616  -15.3904    0.0000 C   0  0  0  0  0  0  0  0  0  0  0  0
   -6.2498  -13.9232    0.0000 C   0  0  0  0  0  0  0  0  0  0  0  0
   -4.8232  -13.4597    0.0000 O   0  0  0  0  0  0  0  0  0  0  0  0
   -3.7085  -14.4634    0.0000 C   0  0  0  0  0  0  0  0  0  0  0  0
   -2.2819  -13.9999    0.0000 C   0  0  0  0  0  0  0  0  0  0  0  0
   -1.1672  -15.0036    0.0000 C   0  0  0  0  0  0  0  0  0  0  0  0
    0.2594  -14.5400    0.0000 C   0  0  0  0  0  0  0  0  0  0  0  0
    0.5713  -13.0728    0.0000 C   0  0  0  0  0  0  0  0  0  0  0  0
    1.9979  -12.6093    0.0000 F   0  0  0  0  0  0  0  0  0  0  0  0
   -0.5434  -12.0691    0.0000 C   0  0  0  0  0  0  0  0  0  0  0  0
   -1.9700  -12.5326    0.0000 C   0  0  0  0  0  0  0  0  0  0  0  0
   -5.6260  -10.9888    0.0000 C   0  0  0  0  0  0  0  0  0  0  0  0
   -5.3142   -9.5216    0.0000 C   0  0  0  0  0  0  0  0  0  0  0  0
   -2.6401   -3.1891    0.0000 C   0  0  0  0  0  0  0  0  0  0  0  0
   -3.7548   -2.1855    0.0000 O   0  0  0  0  0  0  0  0  0  0  0  0
   -1.2135   -2.7256    0.0000 C   0  0  0  0  0  0  0  0  0  0  0  0
   -0.0000   -3.6073    0.0000 C   0  0  0  0  0  0  0  0  0  0  0  0
    1.2135   -2.7256    0.0000 N   0  0  0  0  0  0  0  0  0  0  0  0
    0.7500   -1.2990    0.0000 C   0  0  0  0  0  0  0  0  0  0  0  0
    1.5000    0.0000    0.0000 C   0  0  0  0  0  0  0  0  0  0  0  0
    0.7500    1.2990    0.0000 C   0  0  0  0  0  0  0  0  0  0  0  0
   -0.7500    1.2990    0.0000 C   0  0  0  0  0  0  0  0  0  0  0  0
   -1.5000    0.0000    0.0000 C   0  0  0  0  0  0  0  0  0  0  0  0
   -0.7500   -1.2990    0.0000 C   0  0  0  0  0  0  0  0  0  0  0  0
  1  2  2  0
  2  3  1  0
  3  4  1  0
  4  5  1  0
  5  6  2  0
  5  7  1  0
  7  8  2  0
  8  9  1  0
  9 10  2  0
 10 11  1  0
 11 12  2  0
 12 13  1  0
 13 14  2  0
 14 15  1  0
 15 16  2  0
 16 17  1  0
 17 18  1  0
 18 19  1  0
 19 20  2  0
 20 21  1  0
 21 22  2  0
 22 23  1  0
 22 24  1  0
 24 25  2  0
 10 26  1  0
 26 27  2  0
  2 28  1  0
 28 29  2  0
 28 30  1  0
 30 31  2  0
 31 32  1  0
 32 33  1  0
 33 34  2  0
 34 35  1  0
 35 36  2  0
 36 37  1  0
 37 38  2  0
 27  7  1  0
 38 30  1  0
 16 11  1  0
 25 19  1  0
 38 33  1  0
M  END
>  <Compound_ID>  (28) 
CHEMBL1796188

>  <Molecule Name>  (28) 
nan

>  <Molecular Weight>  (28) 
507.52

>  <AlogP>  (28) 
5.20

>  <Smiles>  (28) 
O=C(NNC(=O)c1ccc(-c2ccccc2OCc2ccc(F)cc2)cc1)C(=O)c1c[nH]c2ccccc12

>  <Standard Type>  (28) 
IC50

>  <Standard Relation>  (28) 
'='

>  <Standard Units>  (28) 
nM

>  <Standard Value>  (28) 
13000.0

>  <Assay ChEMBL ID>  (28) 
CHEMBL1798372

>  <Assay Description>  (28) 
Inhibition of c-MET assessed as incorporation of p33 using [gammaP33]-ATP by microplate scintillation counting

>  <BAO Format ID>  (28) 
BAO_0000357

>  <BAO Label>  (28) 
single protein format

>  <Assay Organism>  (28) 
None

>  <Target ChEMBL ID>  (28) 
CHEMBL3717

>  <Target Name>  (28) 
Hepatocyte growth factor receptor

>  <Target Organism>  (28) 
Homo sapiens

>  <Target Type>  (28) 
SINGLE PROTEIN

>  <Document ChEMBL ID>  (28) 
CHEMBL1795330

>  <Source Description>  (28) 
Scientific Literature

>  <Document Journal>  (28) 
Eur J Med Chem

>  <Document Year>  (28) 
2011.0

>  <Active>  (28) 
0.0

$$$$

     RDKit          2D

 24 26  0  0  0  0  0  0  0  0999 V2000
   -7.3645  -12.9195    0.0000 C   0  0  0  0  0  0  0  0  0  0  0  0
   -7.0526  -11.4523    0.0000 C   0  0  0  0  0  0  0  0  0  0  0  0
   -8.1673  -10.4486    0.0000 C   0  0  0  0  0  0  0  0  0  0  0  0
   -7.8555   -8.9814    0.0000 C   0  0  0  0  0  0  0  0  0  0  0  0
   -6.4289   -8.5179    0.0000 C   0  0  0  0  0  0  0  0  0  0  0  0
   -6.1170   -7.0506    0.0000 C   0  0  0  0  0  0  0  0  0  0  0  0
   -7.2317   -6.0469    0.0000 O   0  0  0  0  0  0  0  0  0  0  0  0
   -4.6904   -6.5871    0.0000 N   0  0  0  0  0  0  0  0  0  0  0  0
   -4.3786   -5.1199    0.0000 N   0  0  0  0  0  0  0  0  0  0  0  0
   -2.9520   -4.6564    0.0000 C   0  0  0  0  0  0  0  0  0  0  0  0
   -1.8373   -5.6601    0.0000 O   0  0  0  0  0  0  0  0  0  0  0  0
   -2.6401   -3.1891    0.0000 C   0  0  0  0  0  0  0  0  0  0  0  0
   -3.7548   -2.1855    0.0000 O   0  0  0  0  0  0  0  0  0  0  0  0
   -1.2135   -2.7256    0.0000 C   0  0  0  0  0  0  0  0  0  0  0  0
   -0.0000   -3.6073    0.0000 C   0  0  0  0  0  0  0  0  0  0  0  0
    1.2135   -2.7256    0.0000 N   0  0  0  0  0  0  0  0  0  0  0  0
    0.7500   -1.2990    0.0000 C   0  0  0  0  0  0  0  0  0  0  0  0
    1.5000    0.0000    0.0000 C   0  0  0  0  0  0  0  0  0  0  0  0
    0.7500    1.2990    0.0000 C   0  0  0  0  0  0  0  0  0  0  0  0
   -0.7500    1.2990    0.0000 C   0  0  0  0  0  0  0  0  0  0  0  0
   -1.5000    0.0000    0.0000 C   0  0  0  0  0  0  0  0  0  0  0  0
   -0.7500   -1.2990    0.0000 C   0  0  0  0  0  0  0  0  0  0  0  0
   -5.3142   -9.5216    0.0000 C   0  0  0  0  0  0  0  0  0  0  0  0
   -5.6260  -10.9888    0.0000 C   0  0  0  0  0  0  0  0  0  0  0  0
  1  2  1  0
  2  3  2  0
  3  4  1  0
  4  5  2  0
  5  6  1  0
  6  7  2  0
  6  8  1  0
  8  9  1  0
  9 10  1  0
 10 11  2  0
 10 12  1  0
 12 13  2  0
 12 14  1  0
 14 15  2  0
 15 16  1  0
 16 17  1  0
 17 18  2  0
 18 19  1  0
 19 20  2  0
 20 21  1  0
 21 22  2  0
  5 23  1  0
 23 24  2  0
 24  2  1  0
 22 14  1  0
 22 17  1  0
M  END
>  <Compound_ID>  (29) 
CHEMBL1796178

>  <Molecule Name>  (29) 
nan

>  <Molecular Weight>  (29) 
321.34

>  <AlogP>  (29) 
2.12

>  <Smiles>  (29) 
Cc1ccc(C(=O)NNC(=O)C(=O)c2c[nH]c3ccccc23)cc1

>  <Standard Type>  (29) 
IC50

>  <Standard Relation>  (29) 
'='

>  <Standard Units>  (29) 
nM

>  <Standard Value>  (29) 
95000.0

>  <Assay ChEMBL ID>  (29) 
CHEMBL1798372

>  <Assay Description>  (29) 
Inhibition of c-MET assessed as incorporation of p33 using [gammaP33]-ATP by microplate scintillation counting

>  <BAO Format ID>  (29) 
BAO_0000357

>  <BAO Label>  (29) 
single protein format

>  <Assay Organism>  (29) 
None

>  <Target ChEMBL ID>  (29) 
CHEMBL3717

>  <Target Name>  (29) 
Hepatocyte growth factor receptor

>  <Target Organism>  (29) 
Homo sapiens

>  <Target Type>  (29) 
SINGLE PROTEIN

>  <Document ChEMBL ID>  (29) 
CHEMBL1795330

>  <Source Description>  (29) 
Scientific Literature

>  <Document Journal>  (29) 
Eur J Med Chem

>  <Document Year>  (29) 
2011.0

>  <Active>  (29) 
0.0

$$$$

     RDKit          2D

 26 30  0  0  0  0  0  0  0  0999 V2000
  -13.0712   -3.3483    0.0000 C   0  0  0  0  0  0  0  0  0  0  0  0
  -11.5794   -3.1915    0.0000 N   0  0  0  0  0  0  0  0  0  0  0  0
  -10.5757   -4.3063    0.0000 C   0  0  0  0  0  0  0  0  0  0  0  0
   -9.2054   -3.6962    0.0000 C   0  0  0  0  0  0  0  0  0  0  0  0
   -7.9063   -4.4462    0.0000 C   0  0  0  0  0  0  0  0  0  0  0  0
   -7.9063   -5.9462    0.0000 C   0  0  0  0  0  0  0  0  0  0  0  0
   -6.6073   -6.6962    0.0000 C   0  0  0  0  0  0  0  0  0  0  0  0
   -5.3083   -5.9462    0.0000 C   0  0  0  0  0  0  0  0  0  0  0  0
   -3.8817   -6.4097    0.0000 C   0  0  0  0  0  0  0  0  0  0  0  0
   -3.0000   -5.1962    0.0000 N   0  0  0  0  0  0  0  0  0  0  0  0
   -1.5000   -5.1962    0.0000 C   0  0  0  0  0  0  0  0  0  0  0  0
   -0.7500   -3.8971    0.0000 C   0  0  0  0  0  0  0  0  0  0  0  0
    0.7500   -3.8971    0.0000 C   0  0  0  0  0  0  0  0  0  0  0  0
    1.5000   -2.5981    0.0000 C   0  0  0  0  0  0  0  0  0  0  0  0
    0.7500   -1.2990    0.0000 C   0  0  0  0  0  0  0  0  0  0  0  0
    1.5000    0.0000    0.0000 N   0  0  0  0  0  0  0  0  0  0  0  0
    0.7500    1.2990    0.0000 C   0  0  0  0  0  0  0  0  0  0  0  0
   -0.7500    1.2990    0.0000 C   0  0  0  0  0  0  0  0  0  0  0  0
   -1.5000    0.0000    0.0000 C   0  0  0  0  0  0  0  0  0  0  0  0
   -0.7500   -1.2990    0.0000 C   0  0  0  0  0  0  0  0  0  0  0  0
   -1.5000   -2.5981    0.0000 C   0  0  0  0  0  0  0  0  0  0  0  0
   -3.8817   -3.9826    0.0000 N   0  0  0  0  0  0  0  0  0  0  0  0
   -5.3083   -4.4462    0.0000 C   0  0  0  0  0  0  0  0  0  0  0  0
   -6.6073   -3.6962    0.0000 C   0  0  0  0  0  0  0  0  0  0  0  0
   -9.3622   -2.2044    0.0000 C   0  0  0  0  0  0  0  0  0  0  0  0
  -10.8294   -1.8925    0.0000 N   0  0  0  0  0  0  0  0  0  0  0  0
  1  2  1  0
  2  3  1  0
  3  4  2  0
  4  5  1  0
  5  6  1  0
  6  7  2  0
  7  8  1  0
  8  9  2  0
  9 10  1  0
 10 11  1  0
 11 12  1  0
 12 13  2  0
 13 14  1  0
 14 15  2  0
 15 16  1  0
 16 17  2  0
 17 18  1  0
 18 19  2  0
 19 20  1  0
 20 21  2  0
 10 22  1  0
 22 23  2  0
 23 24  1  0
  4 25  1  0
 25 26  2  0
 26  2  1  0
 24  5  2  0
 23  8  1  0
 21 12  1  0
 20 15  1  0
M  END
>  <Compound_ID>  (30) 
CHEMBL2402845

>  <Molecule Name>  (30) 
nan

>  <Molecular Weight>  (30) 
339.40

>  <AlogP>  (30) 
4.03

>  <Smiles>  (30) 
Cn1cc(-c2ccc3cn(Cc4ccc5ncccc5c4)nc3c2)cn1

>  <Standard Type>  (30) 
IC50

>  <Standard Relation>  (30) 
'='

>  <Standard Units>  (30) 
nM

>  <Standard Value>  (30) 
37000.0

>  <Assay ChEMBL ID>  (30) 
CHEMBL2405763

>  <Assay Description>  (30) 
Inhibition of human recombinant His-tagged c-MET kinase using 5FAM-KKKSPGEYVNIGFG-NH2 as substrate after 60 mins by TR-FRET assay

>  <BAO Format ID>  (30) 
BAO_0000357

>  <BAO Label>  (30) 
single protein format

>  <Assay Organism>  (30) 
Homo sapiens

>  <Target ChEMBL ID>  (30) 
CHEMBL3717

>  <Target Name>  (30) 
Hepatocyte growth factor receptor

>  <Target Organism>  (30) 
Homo sapiens

>  <Target Type>  (30) 
SINGLE PROTEIN

>  <Document ChEMBL ID>  (30) 
CHEMBL2401697

>  <Source Description>  (30) 
Scientific Literature

>  <Document Journal>  (30) 
Eur J Med Chem

>  <Document Year>  (30) 
2013.0

>  <Active>  (30) 
0.0

$$$$

     RDKit          2D

 31 34  0  0  0  0  0  0  0  0999 V2000
    3.0000   -5.1962    0.0000 C   0  0  0  0  0  0  0  0  0  0  0  0
    1.5000   -5.1962    0.0000 O   0  0  0  0  0  0  0  0  0  0  0  0
    0.7500   -3.8971    0.0000 C   0  0  0  0  0  0  0  0  0  0  0  0
    1.5000   -2.5981    0.0000 C   0  0  0  0  0  0  0  0  0  0  0  0
    0.7500   -1.2990    0.0000 C   0  0  0  0  0  0  0  0  0  0  0  0
    1.5000    0.0000    0.0000 N   0  0  0  0  0  0  0  0  0  0  0  0
    0.7500    1.2990    0.0000 C   0  0  0  0  0  0  0  0  0  0  0  0
   -0.7500    1.2990    0.0000 C   0  0  0  0  0  0  0  0  0  0  0  0
   -1.5000    0.0000    0.0000 C   0  0  0  0  0  0  0  0  0  0  0  0
   -3.0000    0.0000    0.0000 O   0  0  0  0  0  0  0  0  0  0  0  0
   -3.7500    1.2990    0.0000 C   0  0  0  0  0  0  0  0  0  0  0  0
   -3.0000    2.5981    0.0000 C   0  0  0  0  0  0  0  0  0  0  0  0
   -3.7500    3.8971    0.0000 C   0  0  0  0  0  0  0  0  0  0  0  0
   -5.2500    3.8971    0.0000 C   0  0  0  0  0  0  0  0  0  0  0  0
   -6.0000    5.1962    0.0000 C   0  0  0  0  0  0  0  0  0  0  0  0
   -5.2500    6.4952    0.0000 C   0  0  0  0  0  0  0  0  0  0  0  0
   -3.7500    6.4952    0.0000 O   0  0  0  0  0  0  0  0  0  0  0  0
   -6.0000    7.7942    0.0000 N   0  0  0  0  0  0  0  0  0  0  0  0
   -5.2500    9.0933    0.0000 C   0  0  0  0  0  0  0  0  0  0  0  0
   -6.0000   10.3923    0.0000 C   0  0  0  0  0  0  0  0  0  0  0  0
   -3.7500    9.0933    0.0000 C   0  0  0  0  0  0  0  0  0  0  0  0
   -7.5000    5.1962    0.0000 C   0  0  0  0  0  0  0  0  0  0  0  0
   -8.2500    3.8971    0.0000 C   0  0  0  0  0  0  0  0  0  0  0  0
   -7.5000    2.5981    0.0000 C   0  0  0  0  0  0  0  0  0  0  0  0
   -6.0000    2.5981    0.0000 C   0  0  0  0  0  0  0  0  0  0  0  0
   -5.2500    1.2990    0.0000 C   0  0  0  0  0  0  0  0  0  0  0  0
   -0.7500   -1.2990    0.0000 C   0  0  0  0  0  0  0  0  0  0  0  0
   -1.5000   -2.5981    0.0000 C   0  0  0  0  0  0  0  0  0  0  0  0
   -0.7500   -3.8971    0.0000 C   0  0  0  0  0  0  0  0  0  0  0  0
   -1.5000   -5.1962    0.0000 O   0  0  0  0  0  0  0  0  0  0  0  0
   -3.0000   -5.1962    0.0000 C   0  0  0  0  0  0  0  0  0  0  0  0
  1  2  1  0
  2  3  1  0
  3  4  2  0
  4  5  1  0
  5  6  2  0
  6  7  1  0
  7  8  2  0
  8  9  1  0
  9 10  1  0
 10 11  1  0
 11 12  2  0
 12 13  1  0
 13 14  2  0
 14 15  1  0
 15 16  1  0
 16 17  2  0
 16 18  1  0
 18 19  1  0
 19 20  1  0
 19 21  1  0
 15 22  2  0
 22 23  1  0
 23 24  2  0
 24 25  1  0
 25 26  2  0
  9 27  2  0
 27 28  1  0
 28 29  2  0
 29 30  1  0
 30 31  1  0
 29  3  1  0
 27  5  1  0
 26 11  1  0
 25 14  1  0
M  END
>  <Compound_ID>  (31) 
CHEMBL408211

>  <Molecule Name>  (31) 
nan

>  <Molecular Weight>  (31) 
416.48

>  <AlogP>  (31) 
5.34

>  <Smiles>  (31) 
COc1cc2nccc(Oc3ccc4c(C(=O)NC(C)C)cccc4c3)c2cc1OC

>  <Standard Type>  (31) 
IC50

>  <Standard Relation>  (31) 
'='

>  <Standard Units>  (31) 
nM

>  <Standard Value>  (31) 
20000.0

>  <Assay ChEMBL ID>  (31) 
CHEMBL951282

>  <Assay Description>  (31) 
Inhibition of c-Met

>  <BAO Format ID>  (31) 
BAO_0000357

>  <BAO Label>  (31) 
single protein format

>  <Assay Organism>  (31) 
None

>  <Target ChEMBL ID>  (31) 
CHEMBL3717

>  <Target Name>  (31) 
Hepatocyte growth factor receptor

>  <Target Organism>  (31) 
Homo sapiens

>  <Target Type>  (31) 
SINGLE PROTEIN

>  <Document ChEMBL ID>  (31) 
CHEMBL1144684

>  <Source Description>  (31) 
Scientific Literature

>  <Document Journal>  (31) 
J Med Chem

>  <Document Year>  (31) 
2008.0

>  <Active>  (31) 
0.0

$$$$

     RDKit          2D

 30 33  0  0  0  0  0  0  0  0999 V2000
    6.0000   -2.5981    0.0000 C   0  0  0  0  0  0  0  0  0  0  0  0
    5.2500   -1.2990    0.0000 C   0  0  0  0  0  0  0  0  0  0  0  0
    3.7500   -1.2990    0.0000 N   0  0  0  0  0  0  0  0  0  0  0  0
    3.0000    0.0000    0.0000 C   0  0  0  0  0  0  0  0  0  0  0  0
    3.7500    1.2990    0.0000 O   0  0  0  0  0  0  0  0  0  0  0  0
    1.5000    0.0000    0.0000 C   0  0  0  0  0  0  0  0  0  0  0  0
    0.7500   -1.2990    0.0000 C   0  0  0  0  0  0  0  0  0  0  0  0
   -0.7500   -1.2990    0.0000 C   0  0  0  0  0  0  0  0  0  0  0  0
   -1.5000    0.0000    0.0000 C   0  0  0  0  0  0  0  0  0  0  0  0
   -0.7500    1.2990    0.0000 C   0  0  0  0  0  0  0  0  0  0  0  0
   -1.5000    2.5981    0.0000 C   0  0  0  0  0  0  0  0  0  0  0  0
   -0.7500    3.8971    0.0000 C   0  0  0  0  0  0  0  0  0  0  0  0
   -1.5000    5.1962    0.0000 O   0  0  0  0  0  0  0  0  0  0  0  0
   -0.7500    6.4952    0.0000 C   0  0  0  0  0  0  0  0  0  0  0  0
    0.7500    6.4952    0.0000 C   0  0  0  0  0  0  0  0  0  0  0  0
    1.5000    7.7942    0.0000 C   0  0  0  0  0  0  0  0  0  0  0  0
    0.7500    9.0933    0.0000 N   0  0  0  0  0  0  0  0  0  0  0  0
   -0.7500    9.0933    0.0000 C   0  0  0  0  0  0  0  0  0  0  0  0
   -1.5000   10.3923    0.0000 C   0  0  0  0  0  0  0  0  0  0  0  0
   -3.0000   10.3923    0.0000 C   0  0  0  0  0  0  0  0  0  0  0  0
   -3.7500   11.6913    0.0000 O   0  0  0  0  0  0  0  0  0  0  0  0
   -3.0000   12.9904    0.0000 C   0  0  0  0  0  0  0  0  0  0  0  0
   -3.7500    9.0933    0.0000 C   0  0  0  0  0  0  0  0  0  0  0  0
   -5.2500    9.0933    0.0000 O   0  0  0  0  0  0  0  0  0  0  0  0
   -6.0000    7.7942    0.0000 C   0  0  0  0  0  0  0  0  0  0  0  0
   -3.0000    7.7942    0.0000 C   0  0  0  0  0  0  0  0  0  0  0  0
   -1.5000    7.7942    0.0000 C   0  0  0  0  0  0  0  0  0  0  0  0
    0.7500    3.8971    0.0000 C   0  0  0  0  0  0  0  0  0  0  0  0
    1.5000    2.5981    0.0000 C   0  0  0  0  0  0  0  0  0  0  0  0
    0.7500    1.2990    0.0000 C   0  0  0  0  0  0  0  0  0  0  0  0
  1  2  1  0
  2  3  1  0
  3  4  1  0
  4  5  2  0
  4  6  1  0
  6  7  2  0
  7  8  1  0
  8  9  2  0
  9 10  1  0
 10 11  2  0
 11 12  1  0
 12 13  1  0
 13 14  1  0
 14 15  2  0
 15 16  1  0
 16 17  2  0
 17 18  1  0
 18 19  2  0
 19 20  1  0
 20 21  1  0
 21 22  1  0
 20 23  2  0
 23 24  1  0
 24 25  1  0
 23 26  1  0
 26 27  2  0
 12 28  2  0
 28 29  1  0
 29 30  2  0
 30  6  1  0
 30 10  1  0
 27 14  1  0
 27 18  1  0
M  END
>  <Compound_ID>  (32) 
CHEMBL269871

>  <Molecule Name>  (32) 
nan

>  <Molecular Weight>  (32) 
402.45

>  <AlogP>  (32) 
4.95

>  <Smiles>  (32) 
CCNC(=O)c1cccc2cc(Oc3ccnc4cc(OC)c(OC)cc34)ccc12

>  <Standard Type>  (32) 
IC50

>  <Standard Relation>  (32) 
'='

>  <Standard Units>  (32) 
nM

>  <Standard Value>  (32) 
20000.0

>  <Assay ChEMBL ID>  (32) 
CHEMBL951282

>  <Assay Description>  (32) 
Inhibition of c-Met

>  <BAO Format ID>  (32) 
BAO_0000357

>  <BAO Label>  (32) 
single protein format

>  <Assay Organism>  (32) 
None

>  <Target ChEMBL ID>  (32) 
CHEMBL3717

>  <Target Name>  (32) 
Hepatocyte growth factor receptor

>  <Target Organism>  (32) 
Homo sapiens

>  <Target Type>  (32) 
SINGLE PROTEIN

>  <Document ChEMBL ID>  (32) 
CHEMBL1144684

>  <Source Description>  (32) 
Scientific Literature

>  <Document Journal>  (32) 
J Med Chem

>  <Document Year>  (32) 
2008.0

>  <Active>  (32) 
0.0

$$$$

     RDKit          2D

 29 32  0  0  0  0  0  0  0  0999 V2000
    5.2500   -1.2990    0.0000 C   0  0  0  0  0  0  0  0  0  0  0  0
    3.7500   -1.2990    0.0000 N   0  0  0  0  0  0  0  0  0  0  0  0
    3.0000    0.0000    0.0000 C   0  0  0  0  0  0  0  0  0  0  0  0
    3.7500    1.2990    0.0000 O   0  0  0  0  0  0  0  0  0  0  0  0
    1.5000    0.0000    0.0000 C   0  0  0  0  0  0  0  0  0  0  0  0
    0.7500   -1.2990    0.0000 C   0  0  0  0  0  0  0  0  0  0  0  0
   -0.7500   -1.2990    0.0000 C   0  0  0  0  0  0  0  0  0  0  0  0
   -1.5000    0.0000    0.0000 C   0  0  0  0  0  0  0  0  0  0  0  0
   -0.7500    1.2990    0.0000 C   0  0  0  0  0  0  0  0  0  0  0  0
   -1.5000    2.5981    0.0000 C   0  0  0  0  0  0  0  0  0  0  0  0
   -0.7500    3.8971    0.0000 C   0  0  0  0  0  0  0  0  0  0  0  0
   -1.5000    5.1962    0.0000 O   0  0  0  0  0  0  0  0  0  0  0  0
   -0.7500    6.4952    0.0000 C   0  0  0  0  0  0  0  0  0  0  0  0
    0.7500    6.4952    0.0000 C   0  0  0  0  0  0  0  0  0  0  0  0
    1.5000    7.7942    0.0000 C   0  0  0  0  0  0  0  0  0  0  0  0
    0.7500    9.0933    0.0000 N   0  0  0  0  0  0  0  0  0  0  0  0
   -0.7500    9.0933    0.0000 C   0  0  0  0  0  0  0  0  0  0  0  0
   -1.5000   10.3923    0.0000 C   0  0  0  0  0  0  0  0  0  0  0  0
   -3.0000   10.3923    0.0000 C   0  0  0  0  0  0  0  0  0  0  0  0
   -3.7500   11.6913    0.0000 O   0  0  0  0  0  0  0  0  0  0  0  0
   -3.0000   12.9904    0.0000 C   0  0  0  0  0  0  0  0  0  0  0  0
   -3.7500    9.0933    0.0000 C   0  0  0  0  0  0  0  0  0  0  0  0
   -5.2500    9.0933    0.0000 O   0  0  0  0  0  0  0  0  0  0  0  0
   -6.0000    7.7942    0.0000 C   0  0  0  0  0  0  0  0  0  0  0  0
   -3.0000    7.7942    0.0000 C   0  0  0  0  0  0  0  0  0  0  0  0
   -1.5000    7.7942    0.0000 C   0  0  0  0  0  0  0  0  0  0  0  0
    0.7500    3.8971    0.0000 C   0  0  0  0  0  0  0  0  0  0  0  0
    1.5000    2.5981    0.0000 C   0  0  0  0  0  0  0  0  0  0  0  0
    0.7500    1.2990    0.0000 C   0  0  0  0  0  0  0  0  0  0  0  0
  1  2  1  0
  2  3  1  0
  3  4  2  0
  3  5  1  0
  5  6  2  0
  6  7  1  0
  7  8  2  0
  8  9  1  0
  9 10  2  0
 10 11  1  0
 11 12  1  0
 12 13  1  0
 13 14  2  0
 14 15  1  0
 15 16  2  0
 16 17  1  0
 17 18  2  0
 18 19  1  0
 19 20  1  0
 20 21  1  0
 19 22  2  0
 22 23  1  0
 23 24  1  0
 22 25  1  0
 25 26  2  0
 11 27  2  0
 27 28  1  0
 28 29  2  0
 29  5  1  0
 29  9  1  0
 26 13  1  0
 26 17  1  0
M  END
>  <Compound_ID>  (33) 
CHEMBL270754

>  <Molecule Name>  (33) 
nan

>  <Molecular Weight>  (33) 
388.42

>  <AlogP>  (33) 
4.56

>  <Smiles>  (33) 
CNC(=O)c1cccc2cc(Oc3ccnc4cc(OC)c(OC)cc34)ccc12

>  <Standard Type>  (33) 
IC50

>  <Standard Relation>  (33) 
'='

>  <Standard Units>  (33) 
nM

>  <Standard Value>  (33) 
20000.0

>  <Assay ChEMBL ID>  (33) 
CHEMBL951282

>  <Assay Description>  (33) 
Inhibition of c-Met

>  <BAO Format ID>  (33) 
BAO_0000357

>  <BAO Label>  (33) 
single protein format

>  <Assay Organism>  (33) 
None

>  <Target ChEMBL ID>  (33) 
CHEMBL3717

>  <Target Name>  (33) 
Hepatocyte growth factor receptor

>  <Target Organism>  (33) 
Homo sapiens

>  <Target Type>  (33) 
SINGLE PROTEIN

>  <Document ChEMBL ID>  (33) 
CHEMBL1144684

>  <Source Description>  (33) 
Scientific Literature

>  <Document Journal>  (33) 
J Med Chem

>  <Document Year>  (33) 
2008.0

>  <Active>  (33) 
0.0

$$$$

     RDKit          2D

 29 33  0  0  0  0  0  0  0  0999 V2000
    3.7500   -1.2990    0.0000 C   0  0  0  0  0  0  0  0  0  0  0  0
    3.0000    0.0000    0.0000 O   0  0  0  0  0  0  0  0  0  0  0  0
    1.5000    0.0000    0.0000 C   0  0  0  0  0  0  0  0  0  0  0  0
    0.7500   -1.2990    0.0000 C   0  0  0  0  0  0  0  0  0  0  0  0
   -0.7500   -1.2990    0.0000 C   0  0  0  0  0  0  0  0  0  0  0  0
   -1.5000    0.0000    0.0000 C   0  0  0  0  0  0  0  0  0  0  0  0
   -3.0000    0.0000    0.0000 C   0  0  0  0  0  0  0  0  0  0  0  0
   -3.7500   -1.2990    0.0000 O   0  0  0  0  0  0  0  0  0  0  0  0
   -5.2500   -1.2990    0.0000 C   0  0  0  0  0  0  0  0  0  0  0  0
   -6.0000    0.0000    0.0000 C   0  0  0  0  0  0  0  0  0  0  0  0
   -7.5000    0.0000    0.0000 C   0  0  0  0  0  0  0  0  0  0  0  0
   -8.2500   -1.2990    0.0000 C   0  0  0  0  0  0  0  0  0  0  0  0
   -9.7500   -1.2990    0.0000 C   0  0  0  0  0  0  0  0  0  0  0  0
  -10.5000    0.0000    0.0000 C   0  0  0  0  0  0  0  0  0  0  0  0
   -9.7500    1.2990    0.0000 O   0  0  0  0  0  0  0  0  0  0  0  0
  -12.0000    0.0000    0.0000 N   0  0  0  0  0  0  0  0  0  0  0  0
  -12.7500    1.2990    0.0000 C   0  0  0  0  0  0  0  0  0  0  0  0
  -14.0490    2.0490    0.0000 C   0  0  0  0  0  0  0  0  0  0  0  0
  -12.7500    2.7990    0.0000 C   0  0  0  0  0  0  0  0  0  0  0  0
  -10.5000   -2.5981    0.0000 C   0  0  0  0  0  0  0  0  0  0  0  0
   -9.7500   -3.8971    0.0000 C   0  0  0  0  0  0  0  0  0  0  0  0
   -8.2500   -3.8971    0.0000 C   0  0  0  0  0  0  0  0  0  0  0  0
   -7.5000   -2.5981    0.0000 C   0  0  0  0  0  0  0  0  0  0  0  0
   -6.0000   -2.5981    0.0000 C   0  0  0  0  0  0  0  0  0  0  0  0
   -3.7500    1.2990    0.0000 C   0  0  0  0  0  0  0  0  0  0  0  0
   -3.0000    2.5981    0.0000 C   0  0  0  0  0  0  0  0  0  0  0  0
   -1.5000    2.5981    0.0000 N   0  0  0  0  0  0  0  0  0  0  0  0
   -0.7500    1.2990    0.0000 C   0  0  0  0  0  0  0  0  0  0  0  0
    0.7500    1.2990    0.0000 C   0  0  0  0  0  0  0  0  0  0  0  0
  1  2  1  0
  2  3  1  0
  3  4  2  0
  4  5  1  0
  5  6  2  0
  6  7  1  0
  7  8  1  0
  8  9  1  0
  9 10  2  0
 10 11  1  0
 11 12  2  0
 12 13  1  0
 13 14  1  0
 14 15  2  0
 14 16  1  0
 16 17  1  0
 17 18  1  0
 18 19  1  0
 13 20  2  0
 20 21  1  0
 21 22  2  0
 22 23  1  0
 23 24  2  0
  7 25  2  0
 25 26  1  0
 26 27  2  0
 27 28  1  0
 28 29  2  0
 29  3  1  0
 28  6  1  0
 24  9  1  0
 23 12  1  0
 19 17  1  0
M  END
>  <Compound_ID>  (34) 
CHEMBL270342

>  <Molecule Name>  (34) 
nan

>  <Molecular Weight>  (34) 
384.44

>  <AlogP>  (34) 
5.08

>  <Smiles>  (34) 
COc1ccc2c(Oc3ccc4c(C(=O)NC5CC5)cccc4c3)ccnc2c1

>  <Standard Type>  (34) 
IC50

>  <Standard Relation>  (34) 
'='

>  <Standard Units>  (34) 
nM

>  <Standard Value>  (34) 
20000.0

>  <Assay ChEMBL ID>  (34) 
CHEMBL951282

>  <Assay Description>  (34) 
Inhibition of c-Met

>  <BAO Format ID>  (34) 
BAO_0000357

>  <BAO Label>  (34) 
single protein format

>  <Assay Organism>  (34) 
None

>  <Target ChEMBL ID>  (34) 
CHEMBL3717

>  <Target Name>  (34) 
Hepatocyte growth factor receptor

>  <Target Organism>  (34) 
Homo sapiens

>  <Target Type>  (34) 
SINGLE PROTEIN

>  <Document ChEMBL ID>  (34) 
CHEMBL1144684

>  <Source Description>  (34) 
Scientific Literature

>  <Document Journal>  (34) 
J Med Chem

>  <Document Year>  (34) 
2008.0

>  <Active>  (34) 
0.0

$$$$

     RDKit          2D

 31 35  0  0  0  0  0  0  0  0999 V2000
    3.0000   -5.1962    0.0000 C   0  0  0  0  0  0  0  0  0  0  0  0
    1.5000   -5.1962    0.0000 O   0  0  0  0  0  0  0  0  0  0  0  0
    0.7500   -3.8971    0.0000 C   0  0  0  0  0  0  0  0  0  0  0  0
    1.5000   -2.5981    0.0000 C   0  0  0  0  0  0  0  0  0  0  0  0
    0.7500   -1.2990    0.0000 C   0  0  0  0  0  0  0  0  0  0  0  0
    1.5000    0.0000    0.0000 N   0  0  0  0  0  0  0  0  0  0  0  0
    0.7500    1.2990    0.0000 C   0  0  0  0  0  0  0  0  0  0  0  0
   -0.7500    1.2990    0.0000 C   0  0  0  0  0  0  0  0  0  0  0  0
   -1.5000    0.0000    0.0000 C   0  0  0  0  0  0  0  0  0  0  0  0
   -3.0000    0.0000    0.0000 O   0  0  0  0  0  0  0  0  0  0  0  0
   -3.7500    1.2990    0.0000 C   0  0  0  0  0  0  0  0  0  0  0  0
   -3.0000    2.5981    0.0000 C   0  0  0  0  0  0  0  0  0  0  0  0
   -3.7500    3.8971    0.0000 C   0  0  0  0  0  0  0  0  0  0  0  0
   -5.2500    3.8971    0.0000 C   0  0  0  0  0  0  0  0  0  0  0  0
   -6.0000    5.1962    0.0000 C   0  0  0  0  0  0  0  0  0  0  0  0
   -5.2500    6.4952    0.0000 C   0  0  0  0  0  0  0  0  0  0  0  0
   -3.7500    6.4952    0.0000 O   0  0  0  0  0  0  0  0  0  0  0  0
   -6.0000    7.7942    0.0000 N   0  0  0  0  0  0  0  0  0  0  0  0
   -5.2500    9.0933    0.0000 C   0  0  0  0  0  0  0  0  0  0  0  0
   -5.2500   10.5933    0.0000 C   0  0  0  0  0  0  0  0  0  0  0  0
   -3.9510    9.8433    0.0000 C   0  0  0  0  0  0  0  0  0  0  0  0
   -7.5000    5.1962    0.0000 C   0  0  0  0  0  0  0  0  0  0  0  0
   -8.2500    3.8971    0.0000 C   0  0  0  0  0  0  0  0  0  0  0  0
   -7.5000    2.5981    0.0000 C   0  0  0  0  0  0  0  0  0  0  0  0
   -6.0000    2.5981    0.0000 C   0  0  0  0  0  0  0  0  0  0  0  0
   -5.2500    1.2990    0.0000 C   0  0  0  0  0  0  0  0  0  0  0  0
   -0.7500   -1.2990    0.0000 C   0  0  0  0  0  0  0  0  0  0  0  0
   -1.5000   -2.5981    0.0000 C   0  0  0  0  0  0  0  0  0  0  0  0
   -0.7500   -3.8971    0.0000 C   0  0  0  0  0  0  0  0  0  0  0  0
   -1.5000   -5.1962    0.0000 O   0  0  0  0  0  0  0  0  0  0  0  0
   -3.0000   -5.1962    0.0000 C   0  0  0  0  0  0  0  0  0  0  0  0
  1  2  1  0
  2  3  1  0
  3  4  2  0
  4  5  1  0
  5  6  2  0
  6  7  1  0
  7  8  2  0
  8  9  1  0
  9 10  1  0
 10 11  1  0
 11 12  2  0
 12 13  1  0
 13 14  2  0
 14 15  1  0
 15 16  1  0
 16 17  2  0
 16 18  1  0
 18 19  1  0
 19 20  1  0
 20 21  1  0
 15 22  2  0
 22 23  1  0
 23 24  2  0
 24 25  1  0
 25 26  2  0
  9 27  2  0
 27 28  1  0
 28 29  2  0
 29 30  1  0
 30 31  1  0
 29  3  1  0
 27  5  1  0
 26 11  1  0
 25 14  1  0
 21 19  1  0
M  END
>  <Compound_ID>  (35) 
CHEMBL272198

>  <Molecule Name>  (35) 
nan

>  <Molecular Weight>  (35) 
414.46

>  <AlogP>  (35) 
5.09

>  <Smiles>  (35) 
COc1cc2nccc(Oc3ccc4c(C(=O)NC5CC5)cccc4c3)c2cc1OC

>  <Standard Type>  (35) 
IC50

>  <Standard Relation>  (35) 
'='

>  <Standard Units>  (35) 
nM

>  <Standard Value>  (35) 
20000.0

>  <Assay ChEMBL ID>  (35) 
CHEMBL951282

>  <Assay Description>  (35) 
Inhibition of c-Met

>  <BAO Format ID>  (35) 
BAO_0000357

>  <BAO Label>  (35) 
single protein format

>  <Assay Organism>  (35) 
None

>  <Target ChEMBL ID>  (35) 
CHEMBL3717

>  <Target Name>  (35) 
Hepatocyte growth factor receptor

>  <Target Organism>  (35) 
Homo sapiens

>  <Target Type>  (35) 
SINGLE PROTEIN

>  <Document ChEMBL ID>  (35) 
CHEMBL1144684

>  <Source Description>  (35) 
Scientific Literature

>  <Document Journal>  (35) 
J Med Chem

>  <Document Year>  (35) 
2008.0

>  <Active>  (35) 
0.0

$$$$

     RDKit          2D

 33 38  0  0  0  0  0  0  0  0999 V2000
   -4.4231   -5.1517    0.0000 O   0  0  0  0  0  0  0  0  0  0  0  0
   -3.1240   -4.4017    0.0000 C   0  0  0  0  0  0  0  0  0  0  0  0
   -1.7537   -5.0118    0.0000 N   0  0  0  0  0  0  0  0  0  0  0  0
   -0.7500   -3.8971    0.0000 C   0  0  0  0  0  0  0  0  0  0  0  0
    0.7500   -3.8971    0.0000 N   0  0  0  0  0  0  0  0  0  0  0  0
    1.5000   -2.5981    0.0000 C   0  0  0  0  0  0  0  0  0  0  0  0
    0.7500   -1.2990    0.0000 C   0  0  0  0  0  0  0  0  0  0  0  0
    1.5000    0.0000    0.0000 C   0  0  0  0  0  0  0  0  0  0  0  0
    0.7500    1.2990    0.0000 C   0  0  0  0  0  0  0  0  0  0  0  0
   -0.7500    1.2990    0.0000 C   0  0  0  0  0  0  0  0  0  0  0  0
   -1.5000    2.5981    0.0000 C   0  0  0  0  0  0  0  0  0  0  0  0
   -0.7500    3.8971    0.0000 N   0  0  0  0  0  0  0  0  0  0  0  0
   -1.5000    5.1962    0.0000 C   0  0  0  0  0  0  0  0  0  0  0  0
   -3.0000    5.1962    0.0000 C   0  0  0  0  0  0  0  0  0  0  0  0
   -3.7500    6.4952    0.0000 C   0  0  0  0  0  0  0  0  0  0  0  0
   -3.0000    7.7942    0.0000 C   0  0  0  0  0  0  0  0  0  0  0  0
   -3.7500    9.0933    0.0000 N   0  0  0  0  0  0  0  0  0  0  0  0
   -3.0000   10.3923    0.0000 C   0  0  0  0  0  0  0  0  0  0  0  0
   -1.5000   10.3923    0.0000 C   0  0  0  0  0  0  0  0  0  0  0  0
   -0.7500    9.0933    0.0000 C   0  0  0  0  0  0  0  0  0  0  0  0
   -1.5000    7.7942    0.0000 C   0  0  0  0  0  0  0  0  0  0  0  0
   -0.7500    6.4952    0.0000 C   0  0  0  0  0  0  0  0  0  0  0  0
   -1.5000    0.0000    0.0000 N   0  0  0  0  0  0  0  0  0  0  0  0
   -0.7500   -1.2990    0.0000 C   0  0  0  0  0  0  0  0  0  0  0  0
   -1.5000   -2.5981    0.0000 C   0  0  0  0  0  0  0  0  0  0  0  0
   -2.9672   -2.9099    0.0000 N   0  0  0  0  0  0  0  0  0  0  0  0
   -4.0819   -1.9062    0.0000 C   0  0  0  0  0  0  0  0  0  0  0  0
   -5.5085   -2.3698    0.0000 C   0  0  0  0  0  0  0  0  0  0  0  0
   -6.6232   -1.3661    0.0000 C   0  0  0  0  0  0  0  0  0  0  0  0
   -8.0498   -1.8296    0.0000 C   0  0  0  0  0  0  0  0  0  0  0  0
   -8.3617   -3.2968    0.0000 C   0  0  0  0  0  0  0  0  0  0  0  0
   -7.2470   -4.3005    0.0000 C   0  0  0  0  0  0  0  0  0  0  0  0
   -5.8204   -3.8370    0.0000 C   0  0  0  0  0  0  0  0  0  0  0  0
  1  2  2  0
  2  3  1  0
  3  4  1  0
  4  5  2  0
  5  6  1  0
  6  7  2  0
  7  8  1  0
  8  9  2  0
  9 10  1  0
 10 11  1  0
 11 12  1  0
 12 13  1  0
 13 14  2  0
 14 15  1  0
 15 16  2  0
 16 17  1  0
 17 18  2  0
 18 19  1  0
 19 20  2  0
 20 21  1  0
 21 22  2  0
 10 23  2  0
 23 24  1  0
 24 25  2  0
 25 26  1  0
 26 27  1  0
 27 28  1  0
 28 29  2  0
 29 30  1  0
 30 31  2  0
 31 32  1  0
 32 33  2  0
 26  2  1  0
 33 28  1  0
 25  4  1  0
 24  7  1  0
 22 13  1  0
 21 16  1  0
M  END
>  <Compound_ID>  (36) 
CHEMBL3360183

>  <Molecule Name>  (36) 
nan

>  <Molecular Weight>  (36) 
432.49

>  <AlogP>  (36) 
4.48

>  <Smiles>  (36) 
O=c1[nH]c2ncc3ccc(CNc4ccc5ncccc5c4)nc3c2n1Cc1ccccc1

>  <Standard Type>  (36) 
IC50

>  <Standard Relation>  (36) 
'='

>  <Standard Units>  (36) 
nM

>  <Standard Value>  (36) 
12700.0

>  <Assay ChEMBL ID>  (36) 
CHEMBL3374143

>  <Assay Description>  (36) 
Inhibition of recombinant c-Met (unknown origin) using poly (Glu,Tyr)4:1 substrate incubated for 60 mins by ELISA method

>  <BAO Format ID>  (36) 
BAO_0000357

>  <BAO Label>  (36) 
single protein format

>  <Assay Organism>  (36) 
Homo sapiens

>  <Target ChEMBL ID>  (36) 
CHEMBL3717

>  <Target Name>  (36) 
Hepatocyte growth factor receptor

>  <Target Organism>  (36) 
Homo sapiens

>  <Target Type>  (36) 
SINGLE PROTEIN

>  <Document ChEMBL ID>  (36) 
CHEMBL3352075

>  <Source Description>  (36) 
Scientific Literature

>  <Document Journal>  (36) 
Bioorg Med Chem Lett

>  <Document Year>  (36) 
2015.0

>  <Active>  (36) 
0.0

$$$$

     RDKit          2D

 36 39  0  0  0  0  0  0  0  0999 V2000
    3.0000    0.0000    0.0000 N   0  0  0  0  0  0  0  0  0  0  0  0
    1.5000    0.0000    0.0000 C   0  0  0  0  0  0  0  0  0  0  0  0
    0.7500   -1.2990    0.0000 C   0  0  0  0  0  0  0  0  0  0  0  0
    1.5000   -2.5981    0.0000 O   0  0  0  0  0  0  0  0  0  0  0  0
    0.7500   -3.8971    0.0000 C   0  0  0  0  0  0  0  0  0  0  0  0
   -0.7500   -3.8971    0.0000 C   0  0  0  0  0  0  0  0  0  0  0  0
   -1.5000   -5.1962    0.0000 C   0  0  0  0  0  0  0  0  0  0  0  0
   -0.7500   -6.4952    0.0000 C   0  0  0  0  0  0  0  0  0  0  0  0
   -1.5000   -7.7942    0.0000 N   0  0  0  0  0  0  0  0  0  0  0  0
   -3.0000   -7.7942    0.0000 C   0  0  0  0  0  0  0  0  0  0  0  0
   -3.7500   -6.4952    0.0000 O   0  0  0  0  0  0  0  0  0  0  0  0
   -3.7500   -9.0933    0.0000 C   0  0  0  0  0  0  0  0  0  0  0  0
   -2.6009  -10.0574    0.0000 C   0  0  0  0  0  0  0  0  0  0  0  0
   -1.1914   -9.5444    0.0000 O   0  0  0  0  0  0  0  0  0  0  0  0
   -2.8614  -11.5347    0.0000 N   0  0  0  0  0  0  0  0  0  0  0  0
   -1.7123  -12.4988    0.0000 C   0  0  0  0  0  0  0  0  0  0  0  0
   -1.9728  -13.9761    0.0000 C   0  0  0  0  0  0  0  0  0  0  0  0
   -0.8237  -14.9402    0.0000 C   0  0  0  0  0  0  0  0  0  0  0  0
    0.5858  -14.4272    0.0000 C   0  0  0  0  0  0  0  0  0  0  0  0
    1.7349  -15.3914    0.0000 F   0  0  0  0  0  0  0  0  0  0  0  0
    0.8463  -12.9500    0.0000 C   0  0  0  0  0  0  0  0  0  0  0  0
   -0.3028  -11.9858    0.0000 C   0  0  0  0  0  0  0  0  0  0  0  0
   -4.8991  -10.0574    0.0000 C   0  0  0  0  0  0  0  0  0  0  0  0
   -5.1595   -8.5802    0.0000 C   0  0  0  0  0  0  0  0  0  0  0  0
    0.7500   -6.4952    0.0000 C   0  0  0  0  0  0  0  0  0  0  0  0
    1.5000   -5.1962    0.0000 C   0  0  0  0  0  0  0  0  0  0  0  0
    3.0000   -5.1962    0.0000 F   0  0  0  0  0  0  0  0  0  0  0  0
   -0.7500   -1.2990    0.0000 C   0  0  0  0  0  0  0  0  0  0  0  0
   -1.5000    0.0000    0.0000 C   0  0  0  0  0  0  0  0  0  0  0  0
   -0.7500    1.2990    0.0000 N   0  0  0  0  0  0  0  0  0  0  0  0
    0.7500    1.2990    0.0000 C   0  0  0  0  0  0  0  0  0  0  0  0
    1.5000    2.5981    0.0000 N   0  0  0  0  0  0  0  0  0  0  0  0
    0.7500    3.8971    0.0000 C   0  0  0  0  0  0  0  0  0  0  0  0
   -0.7500    3.8971    0.0000 O   0  0  0  0  0  0  0  0  0  0  0  0
    1.5000    5.1962    0.0000 C   0  0  0  0  0  0  0  0  0  0  0  0
    0.7500    6.4952    0.0000 Cl  0  0  0  0  0  0  0  0  0  0  0  0
  1  2  1  0
  2  3  2  0
  3  4  1  0
  4  5  1  0
  5  6  2  0
  6  7  1  0
  7  8  2  0
  8  9  1  0
  9 10  1  0
 10 11  2  0
 10 12  1  0
 12 13  1  0
 13 14  2  0
 13 15  1  0
 15 16  1  0
 16 17  2  0
 17 18  1  0
 18 19  2  0
 19 20  1  0
 19 21  1  0
 21 22  2  0
 12 23  1  0
 23 24  1  0
  8 25  1  0
 25 26  2  0
 26 27  1  0
  3 28  1  0
 28 29  2  0
 29 30  1  0
 30 31  2  0
 31 32  1  0
 32 33  1  0
 33 34  2  0
 33 35  1  0
 35 36  1  0
 31  2  1  0
 26  5  1  0
 24 12  1  0
 22 16  1  0
M  END
>  <Compound_ID>  (37) 
CHEMBL3360679

>  <Molecule Name>  (37) 
nan

>  <Molecular Weight>  (37) 
515.90

>  <AlogP>  (37) 
4.27

>  <Smiles>  (37) 
Nc1c(Oc2ccc(NC(=O)C3(C(=O)Nc4ccc(F)cc4)CC3)cc2F)ccnc1NC(=O)CCl

>  <Standard Type>  (37) 
IC50

>  <Standard Relation>  (37) 
'='

>  <Standard Units>  (37) 
nM

>  <Standard Value>  (37) 
19500.0

>  <Assay ChEMBL ID>  (37) 
CHEMBL3374143

>  <Assay Description>  (37) 
Inhibition of recombinant c-Met (unknown origin) using poly (Glu,Tyr)4:1 substrate incubated for 60 mins by ELISA method

>  <BAO Format ID>  (37) 
BAO_0000357

>  <BAO Label>  (37) 
single protein format

>  <Assay Organism>  (37) 
Homo sapiens

>  <Target ChEMBL ID>  (37) 
CHEMBL3717

>  <Target Name>  (37) 
Hepatocyte growth factor receptor

>  <Target Organism>  (37) 
Homo sapiens

>  <Target Type>  (37) 
SINGLE PROTEIN

>  <Document ChEMBL ID>  (37) 
CHEMBL3352075

>  <Source Description>  (37) 
Scientific Literature

>  <Document Journal>  (37) 
Bioorg Med Chem Lett

>  <Document Year>  (37) 
2015.0

>  <Active>  (37) 
0.0

$$$$

     RDKit          2D

 39 44  0  0  0  0  0  0  0  0999 V2000
  -10.2929    5.1341    0.0000 C   0  0  0  0  0  0  0  0  0  0  0  0
  -11.5065    6.0158    0.0000 C   0  0  0  0  0  0  0  0  0  0  0  0
  -12.7200    6.8975    0.0000 C   0  0  0  0  0  0  0  0  0  0  0  0
  -10.6248    7.2293    0.0000 C   0  0  0  0  0  0  0  0  0  0  0  0
  -12.3881    4.8023    0.0000 Si  0  0  0  0  0  4  0  0  0  0  0  0
  -13.6017    5.6840    0.0000 C   0  0  0  0  0  0  0  0  0  0  0  0
  -11.1746    3.9206    0.0000 C   0  0  0  0  0  0  0  0  0  0  0  0
  -13.2698    3.5888    0.0000 O   0  0  0  0  0  0  0  0  0  0  0  0
  -12.6597    2.2185    0.0000 C   0  0  0  0  0  0  0  0  0  0  0  0
  -11.1679    2.0617    0.0000 C   0  0  0  0  0  0  0  0  0  0  0  0
  -10.5578    0.6913    0.0000 C   0  0  0  0  0  0  0  0  0  0  0  0
  -11.4395   -0.5222    0.0000 C   0  0  0  0  0  0  0  0  0  0  0  0
  -10.8294   -1.8925    0.0000 N   0  0  0  0  0  0  0  0  0  0  0  0
   -9.3622   -2.2044    0.0000 C   0  0  0  0  0  0  0  0  0  0  0  0
   -9.2054   -3.6962    0.0000 C   0  0  0  0  0  0  0  0  0  0  0  0
   -7.9063   -4.4462    0.0000 C   0  0  0  0  0  0  0  0  0  0  0  0
   -7.9063   -5.9462    0.0000 C   0  0  0  0  0  0  0  0  0  0  0  0
   -6.6073   -6.6962    0.0000 C   0  0  0  0  0  0  0  0  0  0  0  0
   -5.3083   -5.9462    0.0000 C   0  0  0  0  0  0  0  0  0  0  0  0
   -3.8817   -6.4097    0.0000 C   0  0  0  0  0  0  0  0  0  0  0  0
   -3.0000   -5.1962    0.0000 N   0  0  0  0  0  0  0  0  0  0  0  0
   -1.5000   -5.1962    0.0000 C   0  0  0  0  0  0  0  0  0  0  0  0
   -0.7500   -3.8971    0.0000 C   0  0  0  0  0  0  0  0  0  0  0  0
    0.7500   -3.8971    0.0000 C   0  0  0  0  0  0  0  0  0  0  0  0
    1.5000   -2.5981    0.0000 C   0  0  0  0  0  0  0  0  0  0  0  0
    0.7500   -1.2990    0.0000 C   0  0  0  0  0  0  0  0  0  0  0  0
    1.5000    0.0000    0.0000 N   0  0  0  0  0  0  0  0  0  0  0  0
    0.7500    1.2990    0.0000 C   0  0  0  0  0  0  0  0  0  0  0  0
   -0.7500    1.2990    0.0000 C   0  0  0  0  0  0  0  0  0  0  0  0
   -1.5000    0.0000    0.0000 C   0  0  0  0  0  0  0  0  0  0  0  0
   -0.7500   -1.2990    0.0000 C   0  0  0  0  0  0  0  0  0  0  0  0
   -1.5000   -2.5981    0.0000 C   0  0  0  0  0  0  0  0  0  0  0  0
   -3.8817   -3.9826    0.0000 N   0  0  0  0  0  0  0  0  0  0  0  0
   -5.3083   -4.4462    0.0000 C   0  0  0  0  0  0  0  0  0  0  0  0
   -6.6073   -3.6962    0.0000 C   0  0  0  0  0  0  0  0  0  0  0  0
  -10.5757   -4.3063    0.0000 C   0  0  0  0  0  0  0  0  0  0  0  0
  -11.5794   -3.1915    0.0000 N   0  0  0  0  0  0  0  0  0  0  0  0
  -12.9313   -0.3654    0.0000 C   0  0  0  0  0  0  0  0  0  0  0  0
  -13.5414    1.0049    0.0000 C   0  0  0  0  0  0  0  0  0  0  0  0
  1  2  1  0
  2  3  1  0
  2  4  1  0
  2  5  1  0
  5  6  1  0
  5  7  1  0
  5  8  1  0
  9  8  1  1
  9 10  1  0
 10 11  1  0
 11 12  1  0
 12 13  1  6
 13 14  1  0
 14 15  2  0
 15 16  1  0
 16 17  1  0
 17 18  2  0
 18 19  1  0
 19 20  2  0
 20 21  1  0
 21 22  1  0
 22 23  1  0
 23 24  2  0
 24 25  1  0
 25 26  2  0
 26 27  1  0
 27 28  2  0
 28 29  1  0
 29 30  2  0
 30 31  1  0
 31 32  2  0
 21 33  1  0
 33 34  2  0
 34 35  1  0
 15 36  1  0
 36 37  2  0
 12 38  1  0
 38 39  1  0
 39  9  1  0
 37 13  1  0
 35 16  2  0
 34 19  1  0
 32 23  1  0
 31 26  1  0
M  END
>  <Compound_ID>  (38) 
CHEMBL2402848

>  <Molecule Name>  (38) 
nan

>  <Molecular Weight>  (38) 
537.78

>  <AlogP>  (38) 
None

>  <Smiles>  (38) 
CC(C)(C)[Si](C)(C)O[C@H]1CC[C@H](n2cc(-c3ccc4cn(Cc5ccc6ncccc6c5)nc4c3)cn2)CC1

>  <Standard Type>  (38) 
IC50

>  <Standard Relation>  (38) 
'='

>  <Standard Units>  (38) 
nM

>  <Standard Value>  (38) 
19000.0

>  <Assay ChEMBL ID>  (38) 
CHEMBL2405763

>  <Assay Description>  (38) 
Inhibition of human recombinant His-tagged c-MET kinase using 5FAM-KKKSPGEYVNIGFG-NH2 as substrate after 60 mins by TR-FRET assay

>  <BAO Format ID>  (38) 
BAO_0000357

>  <BAO Label>  (38) 
single protein format

>  <Assay Organism>  (38) 
Homo sapiens

>  <Target ChEMBL ID>  (38) 
CHEMBL3717

>  <Target Name>  (38) 
Hepatocyte growth factor receptor

>  <Target Organism>  (38) 
Homo sapiens

>  <Target Type>  (38) 
SINGLE PROTEIN

>  <Document ChEMBL ID>  (38) 
CHEMBL2401697

>  <Source Description>  (38) 
Scientific Literature

>  <Document Journal>  (38) 
Eur J Med Chem

>  <Document Year>  (38) 
2013.0

>  <Active>  (38) 
0.0

$$$$

     RDKit          2D

 22 24  0  0  0  0  0  0  0  0999 V2000
   -6.4289   -8.5179    0.0000 C   0  0  0  0  0  0  0  0  0  0  0  0
   -6.1170   -7.0506    0.0000 S   0  0  0  0  0  0  0  0  0  0  0  0
   -4.6498   -7.3625    0.0000 O   0  0  0  0  0  0  0  0  0  0  0  0
   -7.5842   -6.7388    0.0000 O   0  0  0  0  0  0  0  0  0  0  0  0
   -5.8051   -5.5834    0.0000 C   0  0  0  0  0  0  0  0  0  0  0  0
   -6.9199   -4.5797    0.0000 C   0  0  0  0  0  0  0  0  0  0  0  0
   -6.6080   -3.1125    0.0000 C   0  0  0  0  0  0  0  0  0  0  0  0
   -5.1814   -2.6490    0.0000 C   0  0  0  0  0  0  0  0  0  0  0  0
   -4.0667   -3.6527    0.0000 C   0  0  0  0  0  0  0  0  0  0  0  0
   -2.6401   -3.1891    0.0000 S   0  0  0  0  0  0  0  0  0  0  0  0
   -3.1036   -1.7626    0.0000 O   0  0  0  0  0  0  0  0  0  0  0  0
   -2.1766   -4.6157    0.0000 O   0  0  0  0  0  0  0  0  0  0  0  0
   -1.2135   -2.7256    0.0000 N   0  0  0  0  0  0  0  0  0  0  0  0
   -0.0000   -3.6073    0.0000 C   0  0  0  0  0  0  0  0  0  0  0  0
    1.2135   -2.7256    0.0000 C   0  0  0  0  0  0  0  0  0  0  0  0
    0.7500   -1.2990    0.0000 C   0  0  0  0  0  0  0  0  0  0  0  0
    1.5000    0.0000    0.0000 N   0  0  0  0  0  0  0  0  0  0  0  0
    0.7500    1.2990    0.0000 C   0  0  0  0  0  0  0  0  0  0  0  0
   -0.7500    1.2990    0.0000 C   0  0  0  0  0  0  0  0  0  0  0  0
   -1.5000    0.0000    0.0000 C   0  0  0  0  0  0  0  0  0  0  0  0
   -0.7500   -1.2990    0.0000 C   0  0  0  0  0  0  0  0  0  0  0  0
   -4.3786   -5.1199    0.0000 C   0  0  0  0  0  0  0  0  0  0  0  0
  1  2  1  0
  2  3  2  0
  2  4  2  0
  2  5  1  0
  5  6  2  0
  6  7  1  0
  7  8  2  0
  8  9  1  0
  9 10  1  0
 10 11  2  0
 10 12  2  0
 10 13  1  0
 13 14  1  0
 14 15  2  0
 15 16  1  0
 16 17  2  0
 17 18  1  0
 18 19  2  0
 19 20  1  0
 20 21  2  0
  9 22  2  0
 22  5  1  0
 21 13  1  0
 21 16  1  0
M  END
>  <Compound_ID>  (39) 
CHEMBL561181

>  <Molecule Name>  (39) 
nan

>  <Molecular Weight>  (39) 
336.39

>  <AlogP>  (39) 
1.68

>  <Smiles>  (39) 
CS(=O)(=O)c1cccc(S(=O)(=O)n2ccc3ncccc32)c1

>  <Standard Type>  (39) 
IC50

>  <Standard Relation>  (39) 
'='

>  <Standard Units>  (39) 
nM

>  <Standard Value>  (39) 
25200.0

>  <Assay ChEMBL ID>  (39) 
CHEMBL1062250

>  <Assay Description>  (39) 
Inhibition of human recombinant His-tagged c-Met by TR-FRET assay

>  <BAO Format ID>  (39) 
BAO_0000357

>  <BAO Label>  (39) 
single protein format

>  <Assay Organism>  (39) 
Homo sapiens

>  <Target ChEMBL ID>  (39) 
CHEMBL3717

>  <Target Name>  (39) 
Hepatocyte growth factor receptor

>  <Target Organism>  (39) 
Homo sapiens

>  <Target Type>  (39) 
SINGLE PROTEIN

>  <Document ChEMBL ID>  (39) 
CHEMBL1152913

>  <Source Description>  (39) 
Scientific Literature

>  <Document Journal>  (39) 
Bioorg Med Chem Lett

>  <Document Year>  (39) 
2009.0

>  <Active>  (39) 
0.0

$$$$

     RDKit          2D

 25 28  0  0  0  0  0  0  0  0999 V2000
    3.7500   -6.4952    0.0000 C   0  0  0  0  0  0  0  0  0  0  0  0
    3.0000   -5.1962    0.0000 N   0  0  0  0  0  0  0  0  0  0  0  0
    1.5000   -5.1962    0.0000 C   0  0  0  0  0  0  0  0  0  0  0  0
    0.7500   -3.8971    0.0000 C   0  0  0  0  0  0  0  0  0  0  0  0
    1.5000   -2.5981    0.0000 N   0  0  0  0  0  0  0  0  0  0  0  0
    0.7500   -1.2990    0.0000 C   0  0  0  0  0  0  0  0  0  0  0  0
    1.5000    0.0000    0.0000 C   0  0  0  0  0  0  0  0  0  0  0  0
    0.7500    1.2990    0.0000 N   0  0  0  0  0  0  0  0  0  0  0  0
   -0.7500    1.2990    0.0000 C   0  0  0  0  0  0  0  0  0  0  0  0
   -1.5000    2.5981    0.0000 C   0  0  0  0  0  0  0  0  0  0  0  0
   -3.0000    2.5981    0.0000 C   0  0  0  0  0  0  0  0  0  0  0  0
   -3.7500    3.8971    0.0000 C   0  0  0  0  0  0  0  0  0  0  0  0
   -4.5000    5.1962    0.0000 N   0  0  0  0  0  0  0  0  0  0  0  0
   -3.7500    1.2990    0.0000 C   0  0  0  0  0  0  0  0  0  0  0  0
   -3.0000    0.0000    0.0000 C   0  0  0  0  0  0  0  0  0  0  0  0
   -3.7500   -1.2990    0.0000 C   0  0  0  0  0  0  0  0  0  0  0  0
   -5.2500   -1.2990    0.0000 C   0  0  0  0  0  0  0  0  0  0  0  0
   -6.0000   -2.5981    0.0000 C   0  0  0  0  0  0  0  0  0  0  0  0
   -5.2500   -3.8971    0.0000 C   0  0  0  0  0  0  0  0  0  0  0  0
   -3.7500   -3.8971    0.0000 C   0  0  0  0  0  0  0  0  0  0  0  0
   -3.0000   -2.5981    0.0000 C   0  0  0  0  0  0  0  0  0  0  0  0
   -1.5000    0.0000    0.0000 C   0  0  0  0  0  0  0  0  0  0  0  0
   -0.7500   -1.2990    0.0000 N   0  0  0  0  0  0  0  0  0  0  0  0
    3.0000   -2.5981    0.0000 C   0  0  0  0  0  0  0  0  0  0  0  0
    3.7500   -3.8971    0.0000 C   0  0  0  0  0  0  0  0  0  0  0  0
  1  2  1  0
  2  3  1  0
  3  4  1  0
  4  5  1  0
  5  6  1  0
  6  7  2  0
  7  8  1  0
  8  9  2  0
  9 10  1  0
 10 11  2  0
 11 12  1  0
 12 13  3  0
 11 14  1  0
 14 15  2  0
 15 16  1  0
 16 17  2  0
 17 18  1  0
 18 19  2  0
 19 20  1  0
 20 21  2  0
 15 22  1  0
 22 23  2  0
  5 24  1  0
 24 25  1  0
 25  2  1  0
 23  6  1  0
 22  9  1  0
 21 16  1  0
M  END
>  <Compound_ID>  (40) 
CHEMBL459078

>  <Molecule Name>  (40) 
nan

>  <Molecular Weight>  (40) 
329.41

>  <AlogP>  (40) 
2.92

>  <Smiles>  (40) 
CN1CCN(c2cnc3cc(C#N)cc(-c4ccccc4)c3n2)CC1

>  <Standard Type>  (40) 
IC50

>  <Standard Relation>  (40) 
'='

>  <Standard Units>  (40) 
nM

>  <Standard Value>  (40) 
60200.0

>  <Assay ChEMBL ID>  (40) 
CHEMBL1029826

>  <Assay Description>  (40) 
Inhibition of human recombinant his-tagged c-Met by TR-FRET assay

>  <BAO Format ID>  (40) 
BAO_0000357

>  <BAO Label>  (40) 
single protein format

>  <Assay Organism>  (40) 
Homo sapiens

>  <Target ChEMBL ID>  (40) 
CHEMBL3717

>  <Target Name>  (40) 
Hepatocyte growth factor receptor

>  <Target Organism>  (40) 
Homo sapiens

>  <Target Type>  (40) 
SINGLE PROTEIN

>  <Document ChEMBL ID>  (40) 
CHEMBL1154528

>  <Source Description>  (40) 
Scientific Literature

>  <Document Journal>  (40) 
Bioorg Med Chem Lett

>  <Document Year>  (40) 
2009.0

>  <Active>  (40) 
0.0

$$$$

     RDKit          2D

 28 32  0  0  0  0  0  0  0  0999 V2000
    0.9369   -9.5210    0.0000 C   0  0  0  0  0  0  0  0  0  0  0  0
    0.6471   -8.0492    0.0000 C   0  0  0  0  0  0  0  0  0  0  0  0
    1.7767   -7.0623    0.0000 C   0  0  0  0  0  0  0  0  0  0  0  0
    1.4868   -5.5906    0.0000 C   0  0  0  0  0  0  0  0  0  0  0  0
    2.6164   -4.6037    0.0000 Cl  0  0  0  0  0  0  0  0  0  0  0  0
    0.0673   -5.1058    0.0000 C   0  0  0  0  0  0  0  0  0  0  0  0
   -1.0623   -6.0927    0.0000 C   0  0  0  0  0  0  0  0  0  0  0  0
   -0.7724   -7.5644    0.0000 N   0  0  0  0  0  0  0  0  0  0  0  0
   -2.5382   -5.8249    0.0000 N   0  0  0  0  0  0  0  0  0  0  0  0
   -3.4199   -7.0384    0.0000 C   0  0  0  0  0  0  0  0  0  0  0  0
   -4.9117   -6.8816    0.0000 C   0  0  0  0  0  0  0  0  0  0  0  0
   -5.7933   -8.0951    0.0000 C   0  0  0  0  0  0  0  0  0  0  0  0
   -7.2851   -7.9383    0.0000 C   0  0  0  0  0  0  0  0  0  0  0  0
   -8.1668   -9.1519    0.0000 C   0  0  0  0  0  0  0  0  0  0  0  0
   -7.5567  -10.5222    0.0000 C   0  0  0  0  0  0  0  0  0  0  0  0
   -6.0649  -10.6790    0.0000 C   0  0  0  0  0  0  0  0  0  0  0  0
   -5.1832   -9.4654    0.0000 C   0  0  0  0  0  0  0  0  0  0  0  0
   -3.2490   -4.5040    0.0000 C   0  0  0  0  0  0  0  0  0  0  0  0
   -2.6595   -3.1247    0.0000 C   0  0  0  0  0  0  0  0  0  0  0  0
   -1.2135   -2.7256    0.0000 C   0  0  0  0  0  0  0  0  0  0  0  0
   -0.0000   -3.6073    0.0000 C   0  0  0  0  0  0  0  0  0  0  0  0
    1.2135   -2.7256    0.0000 N   0  0  0  0  0  0  0  0  0  0  0  0
    0.7500   -1.2990    0.0000 C   0  0  0  0  0  0  0  0  0  0  0  0
    1.5000    0.0000    0.0000 C   0  0  0  0  0  0  0  0  0  0  0  0
    0.7500    1.2990    0.0000 C   0  0  0  0  0  0  0  0  0  0  0  0
   -0.7500    1.2990    0.0000 C   0  0  0  0  0  0  0  0  0  0  0  0
   -1.5000    0.0000    0.0000 C   0  0  0  0  0  0  0  0  0  0  0  0
   -0.7500   -1.2990    0.0000 C   0  0  0  0  0  0  0  0  0  0  0  0
  1  2  1  0
  2  3  2  0
  3  4  1  0
  4  5  1  0
  4  6  2  0
  6  7  1  0
  7  8  2  0
  7  9  1  0
  9 10  1  0
 10 11  1  0
 11 12  1  0
 12 13  2  0
 13 14  1  0
 14 15  2  0
 15 16  1  0
 16 17  2  0
  9 18  1  0
 18 19  1  0
 19 20  1  0
 20 21  2  0
 21 22  1  0
 22 23  1  0
 23 24  2  0
 24 25  1  0
 25 26  2  0
 26 27  1  0
 27 28  2  0
  8  2  1  0
 17 12  1  0
 28 20  1  0
 21  6  1  0
 28 23  1  0
M  END
>  <Compound_ID>  (41) 
CHEMBL563080

>  <Molecule Name>  (41) 
nan

>  <Molecular Weight>  (41) 
387.91

>  <AlogP>  (41) 
5.80

>  <Smiles>  (41) 
Cc1cc(Cl)c2c(n1)N(CCc1ccccc1)CCc1c-2[nH]c2ccccc12

>  <Standard Type>  (41) 
IC50

>  <Standard Relation>  (41) 
'='

>  <Standard Units>  (41) 
nM

>  <Standard Value>  (41) 
12400.0

>  <Assay ChEMBL ID>  (41) 
CHEMBL1036443

>  <Assay Description>  (41) 
Inhibition of recombinant MET

>  <BAO Format ID>  (41) 
BAO_0000357

>  <BAO Label>  (41) 
single protein format

>  <Assay Organism>  (41) 
None

>  <Target ChEMBL ID>  (41) 
CHEMBL3717

>  <Target Name>  (41) 
Hepatocyte growth factor receptor

>  <Target Organism>  (41) 
Homo sapiens

>  <Target Type>  (41) 
SINGLE PROTEIN

>  <Document ChEMBL ID>  (41) 
CHEMBL1151875

>  <Source Description>  (41) 
Scientific Literature

>  <Document Journal>  (41) 
Bioorg Med Chem

>  <Document Year>  (41) 
2009.0

>  <Active>  (41) 
0.0

$$$$

     RDKit          2D

 22 24  0  0  0  0  0  0  0  0999 V2000
    3.0000    0.0000    0.0000 N   0  0  0  0  0  0  0  0  0  0  0  0
    1.5000    0.0000    0.0000 C   0  0  0  0  0  0  0  0  0  0  0  0
    0.7500   -1.2990    0.0000 C   0  0  0  0  0  0  0  0  0  0  0  0
   -0.7500   -1.2990    0.0000 C   0  0  0  0  0  0  0  0  0  0  0  0
   -1.5000    0.0000    0.0000 C   0  0  0  0  0  0  0  0  0  0  0  0
   -3.0000    0.0000    0.0000 C   0  0  0  0  0  0  0  0  0  0  0  0
   -3.7500    1.2990    0.0000 N   0  0  0  0  0  0  0  0  0  0  0  0
   -3.0000    2.5981    0.0000 N   0  0  0  0  0  0  0  0  0  0  0  0
   -3.7500    3.8971    0.0000 C   0  0  0  0  0  0  0  0  0  0  0  0
   -3.0000    5.1962    0.0000 N   0  0  0  0  0  0  0  0  0  0  0  0
   -1.5000    5.1962    0.0000 C   0  0  0  0  0  0  0  0  0  0  0  0
   -0.7500    3.8971    0.0000 C   0  0  0  0  0  0  0  0  0  0  0  0
    0.7500    3.8971    0.0000 C   0  0  0  0  0  0  0  0  0  0  0  0
    1.5000    5.1962    0.0000 C   0  0  0  0  0  0  0  0  0  0  0  0
    0.7500    6.4952    0.0000 C   0  0  0  0  0  0  0  0  0  0  0  0
   -0.7500    6.4952    0.0000 C   0  0  0  0  0  0  0  0  0  0  0  0
   -5.2500    3.8971    0.0000 C   0  0  0  0  0  0  0  0  0  0  0  0
   -6.0000    2.5981    0.0000 C   0  0  0  0  0  0  0  0  0  0  0  0
   -5.2500    1.2990    0.0000 C   0  0  0  0  0  0  0  0  0  0  0  0
   -6.0000    0.0000    0.0000 O   0  0  0  0  0  0  0  0  0  0  0  0
   -0.7500    1.2990    0.0000 C   0  0  0  0  0  0  0  0  0  0  0  0
    0.7500    1.2990    0.0000 C   0  0  0  0  0  0  0  0  0  0  0  0
  1  2  1  0
  2  3  2  0
  3  4  1  0
  4  5  2  0
  5  6  1  0
  6  7  1  0
  7  8  1  0
  8  9  2  0
  9 10  1  0
 10 11  1  0
 11 12  2  0
 12 13  1  0
 13 14  2  0
 14 15  1  0
 15 16  2  0
  9 17  1  0
 17 18  2  0
 18 19  1  0
 19 20  2  0
  5 21  1  0
 21 22  2  0
 22  2  1  0
 19  7  1  0
 16 11  1  0
M  END
>  <Compound_ID>  (42) 
CHEMBL3417490

>  <Molecule Name>  (42) 
nan

>  <Molecular Weight>  (42) 
292.34

>  <AlogP>  (42) 
2.62

>  <Smiles>  (42) 
Nc1ccc(Cn2nc(Nc3ccccc3)ccc2=O)cc1

>  <Standard Type>  (42) 
IC50

>  <Standard Relation>  (42) 
'='

>  <Standard Units>  (42) 
nM

>  <Standard Value>  (42) 
10000.0

>  <Assay ChEMBL ID>  (42) 
CHEMBL3420278

>  <Assay Description>  (42) 
Inhibition of c-Met (unknown origin)

>  <BAO Format ID>  (42) 
BAO_0000357

>  <BAO Label>  (42) 
single protein format

>  <Assay Organism>  (42) 
Homo sapiens

>  <Target ChEMBL ID>  (42) 
CHEMBL3717

>  <Target Name>  (42) 
Hepatocyte growth factor receptor

>  <Target Organism>  (42) 
Homo sapiens

>  <Target Type>  (42) 
SINGLE PROTEIN

>  <Document ChEMBL ID>  (42) 
CHEMBL3414492

>  <Source Description>  (42) 
Scientific Literature

>  <Document Journal>  (42) 
Eur J Med Chem

>  <Document Year>  (42) 
2015.0

>  <Active>  (42) 
0.0

$$$$

     RDKit          2D

 30 33  0  0  0  0  0  0  0  0999 V2000
    3.7500   -6.4952    0.0000 C   0  0  0  0  0  0  0  0  0  0  0  0
    3.0000   -5.1962    0.0000 N   0  0  0  0  0  0  0  0  0  0  0  0
    1.5000   -5.1962    0.0000 C   0  0  0  0  0  0  0  0  0  0  0  0
    0.7500   -3.8971    0.0000 C   0  0  0  0  0  0  0  0  0  0  0  0
    1.5000   -2.5981    0.0000 N   0  0  0  0  0  0  0  0  0  0  0  0
    0.7500   -1.2990    0.0000 C   0  0  0  0  0  0  0  0  0  0  0  0
    1.5000    0.0000    0.0000 C   0  0  0  0  0  0  0  0  0  0  0  0
    0.7500    1.2990    0.0000 N   0  0  0  0  0  0  0  0  0  0  0  0
   -0.7500    1.2990    0.0000 C   0  0  0  0  0  0  0  0  0  0  0  0
   -1.5000    2.5981    0.0000 C   0  0  0  0  0  0  0  0  0  0  0  0
   -3.0000    2.5981    0.0000 C   0  0  0  0  0  0  0  0  0  0  0  0
   -3.7500    3.8971    0.0000 C   0  0  0  0  0  0  0  0  0  0  0  0
   -4.5000    5.1962    0.0000 F   0  0  0  0  0  0  0  0  0  0  0  0
   -2.4510    4.6471    0.0000 F   0  0  0  0  0  0  0  0  0  0  0  0
   -5.0490    3.1471    0.0000 F   0  0  0  0  0  0  0  0  0  0  0  0
   -3.7500    1.2990    0.0000 C   0  0  0  0  0  0  0  0  0  0  0  0
   -3.0000    0.0000    0.0000 C   0  0  0  0  0  0  0  0  0  0  0  0
   -3.7500   -1.2990    0.0000 C   0  0  0  0  0  0  0  0  0  0  0  0
   -5.2500   -1.2990    0.0000 C   0  0  0  0  0  0  0  0  0  0  0  0
   -6.0000   -2.5981    0.0000 C   0  0  0  0  0  0  0  0  0  0  0  0
   -5.2500   -3.8971    0.0000 C   0  0  0  0  0  0  0  0  0  0  0  0
   -3.7500   -3.8971    0.0000 C   0  0  0  0  0  0  0  0  0  0  0  0
   -3.0000   -5.1962    0.0000 N   0  0  0  0  0  4  0  0  0  0  0  0
   -1.5000   -5.1962    0.0000 O   0  0  0  0  0  0  0  0  0  0  0  0
   -3.7500   -6.4952    0.0000 O   0  0  0  0  0  1  0  0  0  0  0  0
   -3.0000   -2.5981    0.0000 C   0  0  0  0  0  0  0  0  0  0  0  0
   -1.5000    0.0000    0.0000 C   0  0  0  0  0  0  0  0  0  0  0  0
   -0.7500   -1.2990    0.0000 N   0  0  0  0  0  0  0  0  0  0  0  0
    3.0000   -2.5981    0.0000 C   0  0  0  0  0  0  0  0  0  0  0  0
    3.7500   -3.8971    0.0000 C   0  0  0  0  0  0  0  0  0  0  0  0
  1  2  1  0
  2  3  1  0
  3  4  1  0
  4  5  1  0
  5  6  1  0
  6  7  2  0
  7  8  1  0
  8  9  2  0
  9 10  1  0
 10 11  2  0
 11 12  1  0
 12 13  1  0
 12 14  1  0
 12 15  1  0
 11 16  1  0
 16 17  2  0
 17 18  1  0
 18 19  2  0
 19 20  1  0
 20 21  2  0
 21 22  1  0
 22 23  1  0
 23 24  2  0
 23 25  1  0
 22 26  2  0
 17 27  1  0
 27 28  2  0
  5 29  1  0
 29 30  1  0
 30  2  1  0
 28  6  1  0
 27  9  1  0
 26 18  1  0
M  CHG  2  23   1  25  -1
M  END
>  <Compound_ID>  (43) 
CHEMBL517912

>  <Molecule Name>  (43) 
nan

>  <Molecular Weight>  (43) 
417.39

>  <AlogP>  (43) 
3.98

>  <Smiles>  (43) 
CN1CCN(c2cnc3cc(C(F)(F)F)cc(-c4cccc([N+](=O)[O-])c4)c3n2)CC1

>  <Standard Type>  (43) 
IC50

>  <Standard Relation>  (43) 
'='

>  <Standard Units>  (43) 
nM

>  <Standard Value>  (43) 
12900.0

>  <Assay ChEMBL ID>  (43) 
CHEMBL1029826

>  <Assay Description>  (43) 
Inhibition of human recombinant his-tagged c-Met by TR-FRET assay

>  <BAO Format ID>  (43) 
BAO_0000357

>  <BAO Label>  (43) 
single protein format

>  <Assay Organism>  (43) 
Homo sapiens

>  <Target ChEMBL ID>  (43) 
CHEMBL3717

>  <Target Name>  (43) 
Hepatocyte growth factor receptor

>  <Target Organism>  (43) 
Homo sapiens

>  <Target Type>  (43) 
SINGLE PROTEIN

>  <Document ChEMBL ID>  (43) 
CHEMBL1154528

>  <Source Description>  (43) 
Scientific Literature

>  <Document Journal>  (43) 
Bioorg Med Chem Lett

>  <Document Year>  (43) 
2009.0

>  <Active>  (43) 
0.0

$$$$

     RDKit          2D

 30 33  0  0  0  0  0  0  0  0999 V2000
   -3.5736    1.2902    0.0000 C   0  0  0  0  0  0  0  0  0  0  0  0
   -2.1470    1.7537    0.0000 C   0  0  0  0  0  0  0  0  0  0  0  0
   -1.8351    3.2209    0.0000 C   0  0  0  0  0  0  0  0  0  0  0  0
   -2.9499    4.2246    0.0000 N   0  0  0  0  0  0  0  0  0  0  0  0
   -2.6380    5.6918    0.0000 C   0  0  0  0  0  0  0  0  0  0  0  0
   -1.2114    6.1554    0.0000 C   0  0  0  0  0  0  0  0  0  0  0  0
   -0.0967    5.1517    0.0000 C   0  0  0  0  0  0  0  0  0  0  0  0
    1.0180    4.1480    0.0000 N   0  0  0  0  0  0  0  0  0  0  0  0
   -0.8995    7.6226    0.0000 C   0  0  0  0  0  0  0  0  0  0  0  0
   -2.0143    8.6263    0.0000 N   0  0  0  0  0  0  0  0  0  0  0  0
   -3.4408    8.1628    0.0000 C   0  0  0  0  0  0  0  0  0  0  0  0
   -3.7527    6.6955    0.0000 C   0  0  0  0  0  0  0  0  0  0  0  0
   -5.1793    6.2320    0.0000 C   0  0  0  0  0  0  0  0  0  0  0  0
   -6.2940    7.2357    0.0000 C   0  0  0  0  0  0  0  0  0  0  0  0
   -7.7206    6.7722    0.0000 C   0  0  0  0  0  0  0  0  0  0  0  0
   -8.8353    7.7759    0.0000 C   0  0  0  0  0  0  0  0  0  0  0  0
  -10.2619    7.3123    0.0000 N   0  0  0  0  0  0  0  0  0  0  0  0
  -11.3766    8.3160    0.0000 C   0  0  0  0  0  0  0  0  0  0  0  0
  -12.8032    7.8525    0.0000 C   0  0  0  0  0  0  0  0  0  0  0  0
  -13.1151    6.3853    0.0000 C   0  0  0  0  0  0  0  0  0  0  0  0
  -12.0003    5.3816    0.0000 C   0  0  0  0  0  0  0  0  0  0  0  0
  -12.3122    3.9144    0.0000 N   0  0  0  0  0  0  0  0  0  0  0  0
  -10.5738    5.8451    0.0000 C   0  0  0  0  0  0  0  0  0  0  0  0
   -0.4086    3.6844    0.0000 C   0  0  0  0  0  0  0  0  0  0  0  0
    0.7062    2.6807    0.0000 C   0  0  0  0  0  0  0  0  0  0  0  0
    0.3943    1.2135    0.0000 C   0  0  0  0  0  0  0  0  0  0  0  0
    1.2760    0.0000    0.0000 N   0  0  0  0  0  0  0  0  0  0  0  0
    0.3943   -1.2135    0.0000 C   0  0  0  0  0  0  0  0  0  0  0  0
   -1.0323   -0.7500    0.0000 C   0  0  0  0  0  0  0  0  0  0  0  0
   -1.0323    0.7500    0.0000 C   0  0  0  0  0  0  0  0  0  0  0  0
  1  2  1  0
  2  3  2  0
  3  4  1  0
  4  5  1  0
  5  6  2  0
  6  7  1  0
  7  8  3  0
  6  9  1  0
  9 10  2  0
 10 11  1  0
 11 12  2  0
 12 13  1  0
 13 14  2  0
 14 15  1  0
 15 16  1  0
 16 17  1  0
 17 18  1  0
 18 19  1  0
 19 20  1  0
 20 21  1  0
 21 22  1  6
 21 23  1  0
  3 24  1  0
 24 25  2  0
 25 26  1  0
 26 27  1  0
 27 28  1  0
 28 29  2  0
 29 30  1  0
 30  2  1  0
 12  5  1  0
 23 17  1  0
 30 26  2  0
M  END
>  <Compound_ID>  (44) 
CHEMBL606245

>  <Molecule Name>  (44) 
nan

>  <Molecular Weight>  (44) 
400.53

>  <AlogP>  (44) 
4.31

>  <Smiles>  (44) 
Cc1c(Nc2c(C#N)cncc2/C=C/CCN2CCC[C@@H](N)C2)ccc2[nH]ccc12

>  <Standard Type>  (44) 
IC50

>  <Standard Relation>  (44) 
'='

>  <Standard Units>  (44) 
nM

>  <Standard Value>  (44) 
34000.0

>  <Assay ChEMBL ID>  (44) 
CHEMBL1067360

>  <Assay Description>  (44) 
Inhibition of Met

>  <BAO Format ID>  (44) 
BAO_0000357

>  <BAO Label>  (44) 
single protein format

>  <Assay Organism>  (44) 
None

>  <Target ChEMBL ID>  (44) 
CHEMBL3717

>  <Target Name>  (44) 
Hepatocyte growth factor receptor

>  <Target Organism>  (44) 
Homo sapiens

>  <Target Type>  (44) 
SINGLE PROTEIN

>  <Document ChEMBL ID>  (44) 
CHEMBL1153090

>  <Source Description>  (44) 
Scientific Literature

>  <Document Journal>  (44) 
Bioorg Med Chem

>  <Document Year>  (44) 
2009.0

>  <Active>  (44) 
0.0

$$$$

     RDKit          2D

 35 38  0  0  0  0  0  0  0  0999 V2000
    3.0000   -7.7942    0.0000 O   0  0  0  0  0  0  0  0  0  0  0  0
    1.5000   -7.7942    0.0000 C   0  0  0  0  0  0  0  0  0  0  0  0
    0.7500   -6.4952    0.0000 C   0  0  0  0  0  0  0  0  0  0  0  0
    1.5000   -5.1962    0.0000 C   0  0  0  0  0  0  0  0  0  0  0  0
    0.7500   -3.8971    0.0000 S   0  0  0  0  0  0  0  0  0  0  0  0
    1.5000   -2.5981    0.0000 C   0  0  0  0  0  0  0  0  0  0  0  0
    3.0000   -2.5981    0.0000 S   0  0  0  0  0  0  0  0  0  0  0  0
    0.7500   -1.2990    0.0000 N   0  0  0  0  0  0  0  0  0  0  0  0
    1.5000    0.0000    0.0000 C   0  0  0  0  0  0  0  0  0  0  0  0
    0.7500    1.2990    0.0000 C   0  0  0  0  0  0  0  0  0  0  0  0
   -0.7500    1.2990    0.0000 N   0  0  0  0  0  0  0  0  0  0  0  0
   -1.5000    2.5981    0.0000 C   0  0  0  0  0  0  0  0  0  0  0  0
   -0.7500    3.8971    0.0000 C   0  0  0  0  0  0  0  0  0  0  0  0
   -1.5000    5.1962    0.0000 C   0  0  0  0  0  0  0  0  0  0  0  0
   -3.0000    5.1962    0.0000 C   0  0  0  0  0  0  0  0  0  0  0  0
   -3.7500    3.8971    0.0000 C   0  0  0  0  0  0  0  0  0  0  0  0
   -3.0000    2.5981    0.0000 C   0  0  0  0  0  0  0  0  0  0  0  0
   -1.5000    0.0000    0.0000 C   0  0  0  0  0  0  0  0  0  0  0  0
   -0.7500   -1.2990    0.0000 C   0  0  0  0  0  0  0  0  0  0  0  0
    0.7500   -9.0933    0.0000 N   0  0  0  0  0  0  0  0  0  0  0  0
    1.5000  -10.3923    0.0000 C   0  0  0  0  0  0  0  0  0  0  0  0
    0.7500  -11.6913    0.0000 C   0  0  0  0  0  0  0  0  0  0  0  0
    1.5000  -12.9904    0.0000 C   0  0  0  0  0  0  0  0  0  0  0  0
    3.0000  -12.9904    0.0000 C   0  0  0  0  0  0  0  0  0  0  0  0
    3.7500  -11.6913    0.0000 C   0  0  0  0  0  0  0  0  0  0  0  0
    5.2500  -11.6913    0.0000 N   0  0  0  0  0  0  0  0  0  0  0  0
    6.0000  -12.9904    0.0000 C   0  0  0  0  0  0  0  0  0  0  0  0
    5.2500  -14.2894    0.0000 O   0  0  0  0  0  0  0  0  0  0  0  0
    7.5000  -12.9904    0.0000 C   0  0  0  0  0  0  0  0  0  0  0  0
    8.2500  -14.2894    0.0000 C   0  0  0  0  0  0  0  0  0  0  0  0
    9.7500  -14.2894    0.0000 C   0  0  0  0  0  0  0  0  0  0  0  0
   10.5000  -12.9904    0.0000 C   0  0  0  0  0  0  0  0  0  0  0  0
    9.7500  -11.6913    0.0000 C   0  0  0  0  0  0  0  0  0  0  0  0
    8.2500  -11.6913    0.0000 N   0  0  0  0  0  0  0  0  0  0  0  0
    3.0000  -10.3923    0.0000 C   0  0  0  0  0  0  0  0  0  0  0  0
  1  2  2  0
  2  3  1  0
  3  4  1  0
  4  5  1  0
  5  6  1  0
  6  7  2  0
  6  8  1  0
  8  9  1  0
  9 10  1  0
 10 11  1  0
 11 12  1  0
 12 13  2  0
 13 14  1  0
 14 15  2  0
 15 16  1  0
 16 17  2  0
 11 18  1  0
 18 19  1  0
  2 20  1  0
 20 21  1  0
 21 22  2  0
 22 23  1  0
 23 24  2  0
 24 25  1  0
 25 26  1  0
 26 27  1  0
 27 28  2  0
 27 29  1  0
 29 30  2  0
 30 31  1  0
 31 32  2  0
 32 33  1  0
 33 34  2  0
 25 35  2  0
 19  8  1  0
 35 21  1  0
 17 12  1  0
 34 29  1  0
M  END
>  <Compound_ID>  (45) 
CHEMBL4437943

>  <Molecule Name>  (45) 
nan

>  <Molecular Weight>  (45) 
505.67

>  <AlogP>  (45) 
4.50

>  <Smiles>  (45) 
O=C(CCSC(=S)N1CCN(c2ccccc2)CC1)Nc1cccc(NC(=O)c2ccccn2)c1

>  <Standard Type>  (45) 
IC50

>  <Standard Relation>  (45) 
'='

>  <Standard Units>  (45) 
nM

>  <Standard Value>  (45) 
17910.0

>  <Assay ChEMBL ID>  (45) 
CHEMBL4433479

>  <Assay Description>  (45) 
Inhibition of human c-MET incubated for 2 hrs by ELISA method

>  <BAO Format ID>  (45) 
BAO_0000357

>  <BAO Label>  (45) 
single protein format

>  <Assay Organism>  (45) 
Homo sapiens

>  <Target ChEMBL ID>  (45) 
CHEMBL3717

>  <Target Name>  (45) 
Hepatocyte growth factor receptor

>  <Target Organism>  (45) 
Homo sapiens

>  <Target Type>  (45) 
SINGLE PROTEIN

>  <Document ChEMBL ID>  (45) 
CHEMBL4433204

>  <Source Description>  (45) 
Scientific Literature

>  <Document Journal>  (45) 
Eur J Med Chem

>  <Document Year>  (45) 
2019.0

>  <Active>  (45) 
0.0

$$$$

     RDKit          2D

 31 35  0  0  0  0  0  0  0  0999 V2000
    3.0000   -5.1962    0.0000 C   0  0  0  0  0  0  0  0  0  0  0  0
    1.5000   -5.1962    0.0000 O   0  0  0  0  0  0  0  0  0  0  0  0
    0.7500   -3.8971    0.0000 C   0  0  0  0  0  0  0  0  0  0  0  0
    1.5000   -2.5981    0.0000 C   0  0  0  0  0  0  0  0  0  0  0  0
    0.7500   -1.2990    0.0000 C   0  0  0  0  0  0  0  0  0  0  0  0
    1.5000    0.0000    0.0000 N   0  0  0  0  0  0  0  0  0  0  0  0
    0.7500    1.2990    0.0000 C   0  0  0  0  0  0  0  0  0  0  0  0
   -0.7500    1.2990    0.0000 N   0  0  0  0  0  0  0  0  0  0  0  0
   -1.5000    0.0000    0.0000 C   0  0  0  0  0  0  0  0  0  0  0  0
   -3.0000    0.0000    0.0000 O   0  0  0  0  0  0  0  0  0  0  0  0
   -3.7500    1.2990    0.0000 C   0  0  0  0  0  0  0  0  0  0  0  0
   -3.0000    2.5981    0.0000 C   0  0  0  0  0  0  0  0  0  0  0  0
   -3.7500    3.8971    0.0000 C   0  0  0  0  0  0  0  0  0  0  0  0
   -5.2500    3.8971    0.0000 C   0  0  0  0  0  0  0  0  0  0  0  0
   -6.0000    5.1962    0.0000 C   0  0  0  0  0  0  0  0  0  0  0  0
   -5.2500    6.4952    0.0000 C   0  0  0  0  0  0  0  0  0  0  0  0
   -3.7500    6.4952    0.0000 O   0  0  0  0  0  0  0  0  0  0  0  0
   -6.0000    7.7942    0.0000 N   0  0  0  0  0  0  0  0  0  0  0  0
   -5.2500    9.0933    0.0000 C   0  0  0  0  0  0  0  0  0  0  0  0
   -5.2500   10.5933    0.0000 C   0  0  0  0  0  0  0  0  0  0  0  0
   -3.9510    9.8433    0.0000 C   0  0  0  0  0  0  0  0  0  0  0  0
   -7.5000    5.1962    0.0000 C   0  0  0  0  0  0  0  0  0  0  0  0
   -8.2500    3.8971    0.0000 C   0  0  0  0  0  0  0  0  0  0  0  0
   -7.5000    2.5981    0.0000 C   0  0  0  0  0  0  0  0  0  0  0  0
   -6.0000    2.5981    0.0000 C   0  0  0  0  0  0  0  0  0  0  0  0
   -5.2500    1.2990    0.0000 C   0  0  0  0  0  0  0  0  0  0  0  0
   -0.7500   -1.2990    0.0000 C   0  0  0  0  0  0  0  0  0  0  0  0
   -1.5000   -2.5981    0.0000 C   0  0  0  0  0  0  0  0  0  0  0  0
   -0.7500   -3.8971    0.0000 C   0  0  0  0  0  0  0  0  0  0  0  0
   -1.5000   -5.1962    0.0000 O   0  0  0  0  0  0  0  0  0  0  0  0
   -3.0000   -5.1962    0.0000 C   0  0  0  0  0  0  0  0  0  0  0  0
  1  2  1  0
  2  3  1  0
  3  4  2  0
  4  5  1  0
  5  6  2  0
  6  7  1  0
  7  8  2  0
  8  9  1  0
  9 10  1  0
 10 11  1  0
 11 12  2  0
 12 13  1  0
 13 14  2  0
 14 15  1  0
 15 16  1  0
 16 17  2  0
 16 18  1  0
 18 19  1  0
 19 20  1  0
 20 21  1  0
 15 22  2  0
 22 23  1  0
 23 24  2  0
 24 25  1  0
 25 26  2  0
  9 27  2  0
 27 28  1  0
 28 29  2  0
 29 30  1  0
 30 31  1  0
 29  3  1  0
 27  5  1  0
 26 11  1  0
 25 14  1  0
 21 19  1  0
M  END
>  <Compound_ID>  (46) 
CHEMBL411284

>  <Molecule Name>  (46) 
nan

>  <Molecular Weight>  (46) 
415.45

>  <AlogP>  (46) 
4.48

>  <Smiles>  (46) 
COc1cc2ncnc(Oc3ccc4c(C(=O)NC5CC5)cccc4c3)c2cc1OC

>  <Standard Type>  (46) 
IC50

>  <Standard Relation>  (46) 
'='

>  <Standard Units>  (46) 
nM

>  <Standard Value>  (46) 
20000.0

>  <Assay ChEMBL ID>  (46) 
CHEMBL951282

>  <Assay Description>  (46) 
Inhibition of c-Met

>  <BAO Format ID>  (46) 
BAO_0000357

>  <BAO Label>  (46) 
single protein format

>  <Assay Organism>  (46) 
None

>  <Target ChEMBL ID>  (46) 
CHEMBL3717

>  <Target Name>  (46) 
Hepatocyte growth factor receptor

>  <Target Organism>  (46) 
Homo sapiens

>  <Target Type>  (46) 
SINGLE PROTEIN

>  <Document ChEMBL ID>  (46) 
CHEMBL1144684

>  <Source Description>  (46) 
Scientific Literature

>  <Document Journal>  (46) 
J Med Chem

>  <Document Year>  (46) 
2008.0

>  <Active>  (46) 
0.0

$$$$

     RDKit          2D

 33 36  0  0  0  0  0  0  0  0999 V2000
    3.0000   -5.1962    0.0000 C   0  0  0  0  0  0  0  0  0  0  0  0
    1.5000   -5.1962    0.0000 O   0  0  0  0  0  0  0  0  0  0  0  0
    0.7500   -3.8971    0.0000 C   0  0  0  0  0  0  0  0  0  0  0  0
    1.5000   -2.5981    0.0000 C   0  0  0  0  0  0  0  0  0  0  0  0
    0.7500   -1.2990    0.0000 C   0  0  0  0  0  0  0  0  0  0  0  0
    1.5000    0.0000    0.0000 N   0  0  0  0  0  0  0  0  0  0  0  0
    0.7500    1.2990    0.0000 C   0  0  0  0  0  0  0  0  0  0  0  0
   -0.7500    1.2990    0.0000 C   0  0  0  0  0  0  0  0  0  0  0  0
   -1.5000    0.0000    0.0000 C   0  0  0  0  0  0  0  0  0  0  0  0
   -3.0000    0.0000    0.0000 O   0  0  0  0  0  0  0  0  0  0  0  0
   -3.7500    1.2990    0.0000 C   0  0  0  0  0  0  0  0  0  0  0  0
   -3.0000    2.5981    0.0000 C   0  0  0  0  0  0  0  0  0  0  0  0
   -3.7500    3.8971    0.0000 C   0  0  0  0  0  0  0  0  0  0  0  0
   -5.2500    3.8971    0.0000 C   0  0  0  0  0  0  0  0  0  0  0  0
   -6.0000    5.1962    0.0000 C   0  0  0  0  0  0  0  0  0  0  0  0
   -5.2500    6.4952    0.0000 C   0  0  0  0  0  0  0  0  0  0  0  0
   -3.7500    6.4952    0.0000 O   0  0  0  0  0  0  0  0  0  0  0  0
   -6.0000    7.7942    0.0000 N   0  0  0  0  0  0  0  0  0  0  0  0
   -5.2500    9.0933    0.0000 C   0  0  0  0  0  0  0  0  0  0  0  0
   -6.0000   10.3923    0.0000 C   0  0  0  0  0  0  0  0  0  0  0  0
   -6.7500   11.6913    0.0000 F   0  0  0  0  0  0  0  0  0  0  0  0
   -4.7010   11.1423    0.0000 F   0  0  0  0  0  0  0  0  0  0  0  0
   -7.2990    9.6423    0.0000 F   0  0  0  0  0  0  0  0  0  0  0  0
   -7.5000    5.1962    0.0000 C   0  0  0  0  0  0  0  0  0  0  0  0
   -8.2500    3.8971    0.0000 C   0  0  0  0  0  0  0  0  0  0  0  0
   -7.5000    2.5981    0.0000 C   0  0  0  0  0  0  0  0  0  0  0  0
   -6.0000    2.5981    0.0000 C   0  0  0  0  0  0  0  0  0  0  0  0
   -5.2500    1.2990    0.0000 C   0  0  0  0  0  0  0  0  0  0  0  0
   -0.7500   -1.2990    0.0000 C   0  0  0  0  0  0  0  0  0  0  0  0
   -1.5000   -2.5981    0.0000 C   0  0  0  0  0  0  0  0  0  0  0  0
   -0.7500   -3.8971    0.0000 C   0  0  0  0  0  0  0  0  0  0  0  0
   -1.5000   -5.1962    0.0000 O   0  0  0  0  0  0  0  0  0  0  0  0
   -3.0000   -5.1962    0.0000 C   0  0  0  0  0  0  0  0  0  0  0  0
  1  2  1  0
  2  3  1  0
  3  4  2  0
  4  5  1  0
  5  6  2  0
  6  7  1  0
  7  8  2  0
  8  9  1  0
  9 10  1  0
 10 11  1  0
 11 12  2  0
 12 13  1  0
 13 14  2  0
 14 15  1  0
 15 16  1  0
 16 17  2  0
 16 18  1  0
 18 19  1  0
 19 20  1  0
 20 21  1  0
 20 22  1  0
 20 23  1  0
 15 24  2  0
 24 25  1  0
 25 26  2  0
 26 27  1  0
 27 28  2  0
  9 29  2  0
 29 30  1  0
 30 31  2  0
 31 32  1  0
 32 33  1  0
 31  3  1  0
 29  5  1  0
 28 11  1  0
 27 14  1  0
M  END
>  <Compound_ID>  (47) 
CHEMBL410840

>  <Molecule Name>  (47) 
nan

>  <Molecular Weight>  (47) 
456.42

>  <AlogP>  (47) 
5.49

>  <Smiles>  (47) 
COc1cc2nccc(Oc3ccc4c(C(=O)NCC(F)(F)F)cccc4c3)c2cc1OC

>  <Standard Type>  (47) 
IC50

>  <Standard Relation>  (47) 
'='

>  <Standard Units>  (47) 
nM

>  <Standard Value>  (47) 
20000.0

>  <Assay ChEMBL ID>  (47) 
CHEMBL951282

>  <Assay Description>  (47) 
Inhibition of c-Met

>  <BAO Format ID>  (47) 
BAO_0000357

>  <BAO Label>  (47) 
single protein format

>  <Assay Organism>  (47) 
None

>  <Target ChEMBL ID>  (47) 
CHEMBL3717

>  <Target Name>  (47) 
Hepatocyte growth factor receptor

>  <Target Organism>  (47) 
Homo sapiens

>  <Target Type>  (47) 
SINGLE PROTEIN

>  <Document ChEMBL ID>  (47) 
CHEMBL1144684

>  <Source Description>  (47) 
Scientific Literature

>  <Document Journal>  (47) 
J Med Chem

>  <Document Year>  (47) 
2008.0

>  <Active>  (47) 
0.0

$$$$

     RDKit          2D

 30 32  0  0  0  0  0  0  0  0999 V2000
    3.0000    0.0000    0.0000 C   0  0  0  0  0  0  0  0  0  0  0  0
    1.5000    0.0000    0.0000 C   0  0  0  0  0  0  0  0  0  0  0  0
    0.7500   -1.2990    0.0000 C   0  0  0  0  0  0  0  0  0  0  0  0
   -0.7500   -1.2990    0.0000 C   0  0  0  0  0  0  0  0  0  0  0  0
   -1.5000    0.0000    0.0000 C   0  0  0  0  0  0  0  0  0  0  0  0
   -0.7500    1.2990    0.0000 C   0  0  0  0  0  0  0  0  0  0  0  0
   -1.5000    2.5981    0.0000 C   0  0  0  0  0  0  0  0  0  0  0  0
   -2.6491    3.5623    0.0000 C   0  0  0  0  0  0  0  0  0  0  0  0
   -2.6491    1.6339    0.0000 C   0  0  0  0  0  0  0  0  0  0  0  0
   -4.0586    2.1469    0.0000 C   0  0  0  0  0  0  0  0  0  0  0  0
   -4.3191    3.6241    0.0000 C   0  0  0  0  0  0  0  0  0  0  0  0
   -3.1700    4.5883    0.0000 O   0  0  0  0  0  0  0  0  0  0  0  0
   -5.7286    4.1372    0.0000 C   0  0  0  0  0  0  0  0  0  0  0  0
   -5.9891    5.6144    0.0000 O   0  0  0  0  0  0  0  0  0  0  0  0
   -6.8777    3.1730    0.0000 C   0  0  0  0  0  0  0  0  0  0  0  0
   -6.6172    1.6958    0.0000 C   0  0  0  0  0  0  0  0  0  0  0  0
   -7.7663    0.7316    0.0000 N   0  0  0  0  0  0  0  0  0  0  0  0
   -9.1758    1.2446    0.0000 C   0  0  0  0  0  0  0  0  0  0  0  0
  -10.3249    0.2804    0.0000 C   0  0  0  0  0  0  0  0  0  0  0  0
  -11.7344    0.7935    0.0000 C   0  0  0  0  0  0  0  0  0  0  0  0
  -12.8835   -0.1707    0.0000 C   0  0  0  0  0  0  0  0  0  0  0  0
  -11.9949    2.2707    0.0000 C   0  0  0  0  0  0  0  0  0  0  0  0
   -5.2077    1.1827    0.0000 C   0  0  0  0  0  0  0  0  0  0  0  0
   -4.9472   -0.2945    0.0000 O   0  0  0  0  0  0  0  0  0  0  0  0
   -0.7500    3.8971    0.0000 C   0  0  0  0  0  0  0  0  0  0  0  0
   -1.5000    5.1962    0.0000 C   0  0  0  0  0  0  0  0  0  0  0  0
    0.7500    3.8971    0.0000 C   0  0  0  0  0  0  0  0  0  0  0  0
    1.5000    2.5981    0.0000 C   0  0  0  0  0  0  0  0  0  0  0  0
    0.7500    1.2990    0.0000 C   0  0  0  0  0  0  0  0  0  0  0  0
    2.2500    1.2990    0.0000 C   0  0  0  0  0  0  0  0  0  0  0  0
  1  2  1  0
  2  3  2  0
  3  4  1  0
  4  5  1  0
  6  5  1  1
  6  7  1  0
  7  8  1  1
  7  9  1  0
  9 10  1  0
 10 11  2  0
 11 12  1  0
 11 13  1  0
 13 14  2  0
 13 15  1  0
 15 16  2  0
 16 17  1  0
 17 18  1  0
 18 19  1  0
 19 20  1  0
 20 21  1  0
 20 22  1  0
 16 23  1  0
 23 24  2  0
  7 25  1  0
 25 26  1  1
 25 27  1  0
 27 28  1  0
 28 29  1  0
 29 30  1  6
 29  2  1  0
 29  6  1  0
 23 10  1  0
M  END
>  <Compound_ID>  (48) 
CHEMBL3109401

>  <Molecule Name>  (48) 
nan

>  <Molecular Weight>  (48) 
413.60

>  <AlogP>  (48) 
5.66

>  <Smiles>  (48) 
CC1=CCC[C@H]2[C@](C)(CC3=C(O)C(=O)C=C(NCCC(C)C)C3=O)[C@@H](C)CC[C@@]12C

>  <Standard Type>  (48) 
IC50

>  <Standard Relation>  (48) 
'='

>  <Standard Units>  (48) 
nM

>  <Standard Value>  (48) 
40300.0

>  <Assay ChEMBL ID>  (48) 
CHEMBL3111641

>  <Assay Description>  (48) 
Inhibition of wild type MET (unknown origin) assessed as incorporation of [gamma-33P]-ATP into substrate by radiometric assay

>  <BAO Format ID>  (48) 
BAO_0000357

>  <BAO Label>  (48) 
single protein format

>  <Assay Organism>  (48) 
Homo sapiens

>  <Target ChEMBL ID>  (48) 
CHEMBL3717

>  <Target Name>  (48) 
Hepatocyte growth factor receptor

>  <Target Organism>  (48) 
Homo sapiens

>  <Target Type>  (48) 
SINGLE PROTEIN

>  <Document ChEMBL ID>  (48) 
CHEMBL3108666

>  <Source Description>  (48) 
Scientific Literature

>  <Document Journal>  (48) 
J Nat Prod

>  <Document Year>  (48) 
2014.0

>  <Active>  (48) 
0.0

$$$$

     RDKit          2D

 34 38  0  0  0  0  0  0  0  0999 V2000
    8.0346   -3.5760    0.0000 O   0  0  0  0  0  0  0  0  0  0  0  0
    6.9199   -4.5797    0.0000 C   0  0  0  0  0  0  0  0  0  0  0  0
    5.4933   -4.1162    0.0000 C   0  0  0  0  0  0  0  0  0  0  0  0
    5.1814   -2.6490    0.0000 C   0  0  0  0  0  0  0  0  0  0  0  0
    3.7548   -2.1855    0.0000 C   0  0  0  0  0  0  0  0  0  0  0  0
    2.6401   -3.1891    0.0000 C   0  0  0  0  0  0  0  0  0  0  0  0
    1.2135   -2.7256    0.0000 C   0  0  0  0  0  0  0  0  0  0  0  0
   -0.0000   -3.6073    0.0000 N   0  0  0  0  0  0  0  0  0  0  0  0
   -1.2135   -2.7256    0.0000 N   0  0  0  0  0  0  0  0  0  0  0  0
   -0.7500   -1.2990    0.0000 C   0  0  0  0  0  0  0  0  0  0  0  0
    0.7500   -1.2990    0.0000 C   0  0  0  0  0  0  0  0  0  0  0  0
    1.5000    0.0000    0.0000 C   0  0  0  0  0  0  0  0  0  0  0  0
    0.7500    1.2990    0.0000 N   0  0  0  0  0  0  0  0  0  0  0  0
    1.5000    2.5981    0.0000 S   0  0  0  0  0  0  0  0  0  0  0  0
    0.2010    3.3481    0.0000 O   0  0  0  0  0  0  0  0  0  0  0  0
    2.7990    1.8481    0.0000 O   0  0  0  0  0  0  0  0  0  0  0  0
    2.2500    3.8971    0.0000 C   0  0  0  0  0  0  0  0  0  0  0  0
    3.7500    3.8971    0.0000 C   0  0  0  0  0  0  0  0  0  0  0  0
    4.5000    2.5981    0.0000 Cl  0  0  0  0  0  0  0  0  0  0  0  0
    4.5000    5.1962    0.0000 C   0  0  0  0  0  0  0  0  0  0  0  0
    3.7500    6.4952    0.0000 C   0  0  0  0  0  0  0  0  0  0  0  0
    2.2500    6.4952    0.0000 C   0  0  0  0  0  0  0  0  0  0  0  0
    1.5000    5.1962    0.0000 C   0  0  0  0  0  0  0  0  0  0  0  0
    0.0000    5.1962    0.0000 Cl  0  0  0  0  0  0  0  0  0  0  0  0
   -0.7500    1.2990    0.0000 C   0  0  0  0  0  0  0  0  0  0  0  0
   -1.5000    0.0000    0.0000 C   0  0  0  0  0  0  0  0  0  0  0  0
    2.9520   -4.6564    0.0000 C   0  0  0  0  0  0  0  0  0  0  0  0
    4.3786   -5.1199    0.0000 C   0  0  0  0  0  0  0  0  0  0  0  0
    7.2317   -6.0469    0.0000 N   0  0  0  0  0  0  0  0  0  0  0  0
    6.1170   -7.0506    0.0000 C   0  0  0  0  0  0  0  0  0  0  0  0
    6.4289   -8.5179    0.0000 C   0  0  0  0  0  0  0  0  0  0  0  0
    7.8555   -8.9814    0.0000 C   0  0  0  0  0  0  0  0  0  0  0  0
    8.9702   -7.9777    0.0000 C   0  0  0  0  0  0  0  0  0  0  0  0
    8.6583   -6.5105    0.0000 C   0  0  0  0  0  0  0  0  0  0  0  0
  1  2  2  0
  2  3  1  0
  3  4  2  0
  4  5  1  0
  5  6  2  0
  6  7  1  0
  7  8  2  0
  8  9  1  0
  9 10  1  0
 10 11  2  0
 11 12  1  0
 12 13  1  0
 13 14  1  0
 14 15  2  0
 14 16  2  0
 14 17  1  0
 17 18  2  0
 18 19  1  0
 18 20  1  0
 20 21  2  0
 21 22  1  0
 22 23  2  0
 23 24  1  0
 13 25  1  0
 25 26  1  0
  6 27  1  0
 27 28  2  0
  2 29  1  0
 29 30  1  0
 30 31  1  0
 31 32  1  0
 32 33  1  0
 33 34  1  0
 28  3  1  0
 34 29  1  0
 11  7  1  0
 23 17  1  0
 26 10  1  0
M  END
>  <Compound_ID>  (49) 
CHEMBL4161379

>  <Molecule Name>  (49) 
nan

>  <Molecular Weight>  (49) 
519.45

>  <AlogP>  (49) 
4.76

>  <Smiles>  (49) 
O=C(c1ccc(-c2n[nH]c3c2CN(S(=O)(=O)c2c(Cl)cccc2Cl)CC3)cc1)N1CCCCC1

>  <Standard Type>  (49) 
IC50

>  <Standard Relation>  (49) 
'='

>  <Standard Units>  (49) 
nM

>  <Standard Value>  (49) 
10500.0

>  <Assay ChEMBL ID>  (49) 
CHEMBL4131862

>  <Assay Description>  (49) 
Inhibition of human GST-tagged c-MET preincubated for 20 mins followed by [33P]-ATP addition measured after 2 hrs by Hot-SpotSM kinase assay

>  <BAO Format ID>  (49) 
BAO_0000357

>  <BAO Label>  (49) 
single protein format

>  <Assay Organism>  (49) 
Homo sapiens

>  <Target ChEMBL ID>  (49) 
CHEMBL3717

>  <Target Name>  (49) 
Hepatocyte growth factor receptor

>  <Target Organism>  (49) 
Homo sapiens

>  <Target Type>  (49) 
SINGLE PROTEIN

>  <Document ChEMBL ID>  (49) 
CHEMBL4130362

>  <Source Description>  (49) 
Scientific Literature

>  <Document Journal>  (49) 
Eur J Med Chem

>  <Document Year>  (49) 
2017.0

>  <Active>  (49) 
0.0

$$$$

     RDKit          2D

 29 31  0  0  0  0  0  0  0  0999 V2000
   -5.3120   -0.6406    0.0000 C   0  0  0  0  0  0  0  0  0  0  0  0
   -6.4268    0.3631    0.0000 C   0  0  0  0  0  0  0  0  0  0  0  0
   -7.8533   -0.1004    0.0000 C   0  0  0  0  0  0  0  0  0  0  0  0
   -8.9681    0.9033    0.0000 C   0  0  0  0  0  0  0  0  0  0  0  0
   -8.6562    2.3705    0.0000 C   0  0  0  0  0  0  0  0  0  0  0  0
   -9.7709    3.3742    0.0000 O   0  0  0  0  0  0  0  0  0  0  0  0
   -7.2296    2.8340    0.0000 C   0  0  0  0  0  0  0  0  0  0  0  0
   -6.1149    1.8303    0.0000 C   0  0  0  0  0  0  0  0  0  0  0  0
   -4.6883    2.2939    0.0000 C   0  0  0  0  0  0  0  0  0  0  0  0
   -3.5736    1.2902    0.0000 C   0  0  0  0  0  0  0  0  0  0  0  0
   -2.1470    1.7537    0.0000 C   0  0  0  0  0  0  0  0  0  0  0  0
   -1.8351    3.2209    0.0000 C   0  0  0  0  0  0  0  0  0  0  0  0
   -2.9499    4.2246    0.0000 O   0  0  0  0  0  0  0  0  0  0  0  0
   -0.4086    3.6844    0.0000 C   0  0  0  0  0  0  0  0  0  0  0  0
    0.7062    2.6807    0.0000 C   0  0  0  0  0  0  0  0  0  0  0  0
    0.3943    1.2135    0.0000 C   0  0  0  0  0  0  0  0  0  0  0  0
    1.8615    1.5254    0.0000 C   0  0  0  0  0  0  0  0  0  0  0  0
    1.2760    0.0000    0.0000 C   0  0  0  0  0  0  0  0  0  0  0  0
    2.7760    0.0000    0.0000 C   0  0  0  0  0  0  0  0  0  0  0  0
    3.5260   -1.2990    0.0000 C   0  0  0  0  0  0  0  0  0  0  0  0
    3.5260    1.2990    0.0000 C   0  0  0  0  0  0  0  0  0  0  0  0
    5.0260    1.2990    0.0000 C   0  0  0  0  0  0  0  0  0  0  0  0
    5.7760    2.5981    0.0000 C   0  0  0  0  0  0  0  0  0  0  0  0
    7.2760    2.5981    0.0000 C   0  0  0  0  0  0  0  0  0  0  0  0
    8.0260    3.8971    0.0000 C   0  0  0  0  0  0  0  0  0  0  0  0
    8.0260    1.2990    0.0000 C   0  0  0  0  0  0  0  0  0  0  0  0
    0.3943   -1.2135    0.0000 C   0  0  0  0  0  0  0  0  0  0  0  0
   -1.0323   -0.7500    0.0000 C   0  0  0  0  0  0  0  0  0  0  0  0
   -1.0323    0.7500    0.0000 C   0  0  0  0  0  0  0  0  0  0  0  0
  1  2  1  0
  2  3  2  0
  3  4  1  0
  4  5  2  0
  5  6  1  0
  5  7  1  0
  7  8  2  0
  8  9  1  0
  9 10  1  0
 11 10  1  6
 11 12  1  0
 12 13  2  0
 12 14  1  0
 14 15  1  0
 15 16  1  0
 16 17  1  1
 16 18  1  0
 18 19  1  0
 19 20  1  1
 19 21  1  0
 21 22  1  0
 22 23  1  0
 23 24  1  0
 24 25  1  0
 24 26  1  0
 18 27  1  1
 27 28  1  0
 29 28  1  1
  8  2  1  0
 29 11  1  0
 29 16  1  0
M  END
>  <Compound_ID>  (50) 
CHEMBL456936

>  <Molecule Name>  (50) 
CALICOFEROL E

>  <Molecular Weight>  (50) 
398.63

>  <AlogP>  (50) 
7.11

>  <Smiles>  (50) 
Cc1ccc(O)cc1CC[C@@H]1C(=O)CC[C@]2(C)[C@@H]([C@H](C)CCCC(C)C)CC[C@@H]12

>  <Standard Type>  (50) 
IC50

>  <Standard Relation>  (50) 
'='

>  <Standard Units>  (50) 
nM

>  <Standard Value>  (50) 
71500.0

>  <Assay ChEMBL ID>  (50) 
CHEMBL1926227

>  <Assay Description>  (50) 
Inhibition of wild type human MET using poly(Ala,Glu,Lys,Tyr) as substrate

>  <BAO Format ID>  (50) 
BAO_0000357

>  <BAO Label>  (50) 
single protein format

>  <Assay Organism>  (50) 
Homo sapiens

>  <Target ChEMBL ID>  (50) 
CHEMBL3717

>  <Target Name>  (50) 
Hepatocyte growth factor receptor

>  <Target Organism>  (50) 
Homo sapiens

>  <Target Type>  (50) 
SINGLE PROTEIN

>  <Document ChEMBL ID>  (50) 
CHEMBL1921742

>  <Source Description>  (50) 
Scientific Literature

>  <Document Journal>  (50) 
Bioorg Med Chem

>  <Document Year>  (50) 
2011.0

>  <Active>  (50) 
0.0

$$$$

     RDKit          2D

 34 38  0  0  0  0  0  0  0  0999 V2000
  -17.0829    6.4619    0.0000 C   0  0  0  0  0  0  0  0  0  0  0  0
  -15.6564    6.9255    0.0000 C   0  0  0  0  0  0  0  0  0  0  0  0
  -15.3445    8.3927    0.0000 C   0  0  0  0  0  0  0  0  0  0  0  0
  -13.9179    8.8562    0.0000 C   0  0  0  0  0  0  0  0  0  0  0  0
  -12.8032    7.8525    0.0000 C   0  0  0  0  0  0  0  0  0  0  0  0
  -11.3766    8.3160    0.0000 N   0  0  0  0  0  0  0  0  0  0  0  0
  -10.2619    7.3123    0.0000 N   0  0  0  0  0  0  0  0  0  0  0  0
   -8.8353    7.7759    0.0000 C   0  0  0  0  0  0  0  0  0  0  0  0
   -7.7206    6.7722    0.0000 C   0  0  0  0  0  0  0  0  0  0  0  0
   -6.2940    7.2357    0.0000 O   0  0  0  0  0  0  0  0  0  0  0  0
   -8.0325    5.3050    0.0000 N   0  0  0  0  0  0  0  0  0  0  0  0
   -6.9177    4.3013    0.0000 C   0  0  0  0  0  0  0  0  0  0  0  0
   -7.2296    2.8340    0.0000 C   0  0  0  0  0  0  0  0  0  0  0  0
   -6.1149    1.8303    0.0000 C   0  0  0  0  0  0  0  0  0  0  0  0
   -4.6883    2.2939    0.0000 C   0  0  0  0  0  0  0  0  0  0  0  0
   -3.5736    1.2902    0.0000 O   0  0  0  0  0  0  0  0  0  0  0  0
   -2.1470    1.7537    0.0000 C   0  0  0  0  0  0  0  0  0  0  0  0
   -1.8351    3.2209    0.0000 N   0  0  0  0  0  0  0  0  0  0  0  0
   -0.4086    3.6844    0.0000 C   0  0  0  0  0  0  0  0  0  0  0  0
    0.7062    2.6807    0.0000 N   0  0  0  0  0  0  0  0  0  0  0  0
    0.3943    1.2135    0.0000 C   0  0  0  0  0  0  0  0  0  0  0  0
    1.2760    0.0000    0.0000 N   0  0  0  0  0  0  0  0  0  0  0  0
    0.3943   -1.2135    0.0000 C   0  0  0  0  0  0  0  0  0  0  0  0
   -1.0323   -0.7500    0.0000 C   0  0  0  0  0  0  0  0  0  0  0  0
   -1.0323    0.7500    0.0000 C   0  0  0  0  0  0  0  0  0  0  0  0
   -4.3764    3.7611    0.0000 C   0  0  0  0  0  0  0  0  0  0  0  0
   -5.4912    4.7648    0.0000 C   0  0  0  0  0  0  0  0  0  0  0  0
   -8.5234    9.2431    0.0000 C   0  0  0  0  0  0  0  0  0  0  0  0
   -7.0969    9.7066    0.0000 C   0  0  0  0  0  0  0  0  0  0  0  0
   -9.6382   10.2468    0.0000 C   0  0  0  0  0  0  0  0  0  0  0  0
  -11.0647    9.7833    0.0000 C   0  0  0  0  0  0  0  0  0  0  0  0
  -12.1795   10.7870    0.0000 O   0  0  0  0  0  0  0  0  0  0  0  0
  -13.1151    6.3853    0.0000 C   0  0  0  0  0  0  0  0  0  0  0  0
  -14.5416    5.9218    0.0000 C   0  0  0  0  0  0  0  0  0  0  0  0
  1  2  1  0
  2  3  2  0
  3  4  1  0
  4  5  2  0
  5  6  1  0
  6  7  1  0
  7  8  2  0
  8  9  1  0
  9 10  2  0
  9 11  1  0
 11 12  1  0
 12 13  2  0
 13 14  1  0
 14 15  2  0
 15 16  1  0
 16 17  1  0
 17 18  2  0
 18 19  1  0
 19 20  2  0
 20 21  1  0
 21 22  1  0
 22 23  1  0
 23 24  2  0
 24 25  1  0
 15 26  1  0
 26 27  2  0
  8 28  1  0
 28 29  1  0
 28 30  2  0
 30 31  1  0
 31 32  2  0
  5 33  1  0
 33 34  2  0
 34  2  1  0
 31  6  1  0
 27 12  1  0
 25 17  1  0
 25 21  2  0
M  END
>  <Compound_ID>  (51) 
CHEMBL4171929

>  <Molecule Name>  (51) 
nan

>  <Molecular Weight>  (51) 
452.47

>  <AlogP>  (51) 
4.17

>  <Smiles>  (51) 
Cc1ccc(-n2nc(C(=O)Nc3ccc(Oc4ncnc5[nH]ccc45)cc3)c(C)cc2=O)cc1

>  <Standard Type>  (51) 
IC50

>  <Standard Relation>  (51) 
'='

>  <Standard Units>  (51) 
nM

>  <Standard Value>  (51) 
27030.0

>  <Assay ChEMBL ID>  (51) 
CHEMBL4141525

>  <Assay Description>  (51) 
Inhibition of c-MET (unknown origin) using FAM-labeled peptide as substrate preincubated for 10 mins followed by substrate addition by mobility shift assay

>  <BAO Format ID>  (51) 
BAO_0000357

>  <BAO Label>  (51) 
single protein format

>  <Assay Organism>  (51) 
Homo sapiens

>  <Target ChEMBL ID>  (51) 
CHEMBL3717

>  <Target Name>  (51) 
Hepatocyte growth factor receptor

>  <Target Organism>  (51) 
Homo sapiens

>  <Target Type>  (51) 
SINGLE PROTEIN

>  <Document ChEMBL ID>  (51) 
CHEMBL4138148

>  <Source Description>  (51) 
Scientific Literature

>  <Document Journal>  (51) 
Eur J Med Chem

>  <Document Year>  (51) 
2017.0

>  <Active>  (51) 
0.0

$$$$

     RDKit          2D

 24 26  0  0  0  0  0  0  0  0999 V2000
   -1.8373   -5.6601    0.0000 O   0  0  0  0  0  0  0  0  0  0  0  0
   -2.9520   -4.6564    0.0000 C   0  0  0  0  0  0  0  0  0  0  0  0
   -4.3786   -5.1199    0.0000 N   0  0  0  0  0  0  0  0  0  0  0  0
   -4.6904   -6.5871    0.0000 N   0  0  0  0  0  0  0  0  0  0  0  0
   -6.1170   -7.0506    0.0000 C   0  0  0  0  0  0  0  0  0  0  0  0
   -7.2317   -6.0469    0.0000 O   0  0  0  0  0  0  0  0  0  0  0  0
   -6.4289   -8.5179    0.0000 C   0  0  0  0  0  0  0  0  0  0  0  0
   -7.8555   -8.9814    0.0000 C   0  0  0  0  0  0  0  0  0  0  0  0
   -8.1673  -10.4486    0.0000 C   0  0  0  0  0  0  0  0  0  0  0  0
   -7.0526  -11.4523    0.0000 C   0  0  0  0  0  0  0  0  0  0  0  0
   -7.3645  -12.9195    0.0000 Cl  0  0  0  0  0  0  0  0  0  0  0  0
   -5.6260  -10.9888    0.0000 C   0  0  0  0  0  0  0  0  0  0  0  0
   -5.3142   -9.5216    0.0000 C   0  0  0  0  0  0  0  0  0  0  0  0
   -2.6401   -3.1891    0.0000 C   0  0  0  0  0  0  0  0  0  0  0  0
   -3.7548   -2.1855    0.0000 O   0  0  0  0  0  0  0  0  0  0  0  0
   -1.2135   -2.7256    0.0000 C   0  0  0  0  0  0  0  0  0  0  0  0
   -0.0000   -3.6073    0.0000 C   0  0  0  0  0  0  0  0  0  0  0  0
    1.2135   -2.7256    0.0000 N   0  0  0  0  0  0  0  0  0  0  0  0
    0.7500   -1.2990    0.0000 C   0  0  0  0  0  0  0  0  0  0  0  0
    1.5000    0.0000    0.0000 C   0  0  0  0  0  0  0  0  0  0  0  0
    0.7500    1.2990    0.0000 C   0  0  0  0  0  0  0  0  0  0  0  0
   -0.7500    1.2990    0.0000 C   0  0  0  0  0  0  0  0  0  0  0  0
   -1.5000    0.0000    0.0000 C   0  0  0  0  0  0  0  0  0  0  0  0
   -0.7500   -1.2990    0.0000 C   0  0  0  0  0  0  0  0  0  0  0  0
  1  2  2  0
  2  3  1  0
  3  4  1  0
  4  5  1  0
  5  6  2  0
  5  7  1  0
  7  8  2  0
  8  9  1  0
  9 10  2  0
 10 11  1  0
 10 12  1  0
 12 13  2  0
  2 14  1  0
 14 15  2  0
 14 16  1  0
 16 17  2  0
 17 18  1  0
 18 19  1  0
 19 20  2  0
 20 21  1  0
 21 22  2  0
 22 23  1  0
 23 24  2  0
 13  7  1  0
 24 16  1  0
 24 19  1  0
M  END
>  <Compound_ID>  (52) 
CHEMBL1796182

>  <Molecule Name>  (52) 
nan

>  <Molecular Weight>  (52) 
341.75

>  <AlogP>  (52) 
2.47

>  <Smiles>  (52) 
O=C(NNC(=O)c1ccc(Cl)cc1)C(=O)c1c[nH]c2ccccc12

>  <Standard Type>  (52) 
IC50

>  <Standard Relation>  (52) 
'='

>  <Standard Units>  (52) 
nM

>  <Standard Value>  (52) 
48000.0

>  <Assay ChEMBL ID>  (52) 
CHEMBL1798372

>  <Assay Description>  (52) 
Inhibition of c-MET assessed as incorporation of p33 using [gammaP33]-ATP by microplate scintillation counting

>  <BAO Format ID>  (52) 
BAO_0000357

>  <BAO Label>  (52) 
single protein format

>  <Assay Organism>  (52) 
None

>  <Target ChEMBL ID>  (52) 
CHEMBL3717

>  <Target Name>  (52) 
Hepatocyte growth factor receptor

>  <Target Organism>  (52) 
Homo sapiens

>  <Target Type>  (52) 
SINGLE PROTEIN

>  <Document ChEMBL ID>  (52) 
CHEMBL1795330

>  <Source Description>  (52) 
Scientific Literature

>  <Document Journal>  (52) 
Eur J Med Chem

>  <Document Year>  (52) 
2011.0

>  <Active>  (52) 
0.0

$$$$

     RDKit          2D

 32 35  0  0  0  0  0  0  0  0999 V2000
    8.2500   -3.8971    0.0000 C   0  0  0  0  0  0  0  0  0  0  0  0
    7.5000   -2.5981    0.0000 O   0  0  0  0  0  0  0  0  0  0  0  0
    6.0000   -2.5981    0.0000 C   0  0  0  0  0  0  0  0  0  0  0  0
    5.2500   -1.2990    0.0000 C   0  0  0  0  0  0  0  0  0  0  0  0
    3.7500   -1.2990    0.0000 N   0  0  0  0  0  0  0  0  0  0  0  0
    3.0000    0.0000    0.0000 C   0  0  0  0  0  0  0  0  0  0  0  0
    3.7500    1.2990    0.0000 O   0  0  0  0  0  0  0  0  0  0  0  0
    1.5000    0.0000    0.0000 C   0  0  0  0  0  0  0  0  0  0  0  0
    0.7500   -1.2990    0.0000 C   0  0  0  0  0  0  0  0  0  0  0  0
   -0.7500   -1.2990    0.0000 C   0  0  0  0  0  0  0  0  0  0  0  0
   -1.5000    0.0000    0.0000 C   0  0  0  0  0  0  0  0  0  0  0  0
   -0.7500    1.2990    0.0000 C   0  0  0  0  0  0  0  0  0  0  0  0
   -1.5000    2.5981    0.0000 C   0  0  0  0  0  0  0  0  0  0  0  0
   -0.7500    3.8971    0.0000 C   0  0  0  0  0  0  0  0  0  0  0  0
   -1.5000    5.1962    0.0000 O   0  0  0  0  0  0  0  0  0  0  0  0
   -0.7500    6.4952    0.0000 C   0  0  0  0  0  0  0  0  0  0  0  0
    0.7500    6.4952    0.0000 C   0  0  0  0  0  0  0  0  0  0  0  0
    1.5000    7.7942    0.0000 C   0  0  0  0  0  0  0  0  0  0  0  0
    0.7500    9.0933    0.0000 N   0  0  0  0  0  0  0  0  0  0  0  0
   -0.7500    9.0933    0.0000 C   0  0  0  0  0  0  0  0  0  0  0  0
   -1.5000   10.3923    0.0000 C   0  0  0  0  0  0  0  0  0  0  0  0
   -3.0000   10.3923    0.0000 C   0  0  0  0  0  0  0  0  0  0  0  0
   -3.7500   11.6913    0.0000 O   0  0  0  0  0  0  0  0  0  0  0  0
   -3.0000   12.9904    0.0000 C   0  0  0  0  0  0  0  0  0  0  0  0
   -3.7500    9.0933    0.0000 C   0  0  0  0  0  0  0  0  0  0  0  0
   -5.2500    9.0933    0.0000 O   0  0  0  0  0  0  0  0  0  0  0  0
   -6.0000    7.7942    0.0000 C   0  0  0  0  0  0  0  0  0  0  0  0
   -3.0000    7.7942    0.0000 C   0  0  0  0  0  0  0  0  0  0  0  0
   -1.5000    7.7942    0.0000 C   0  0  0  0  0  0  0  0  0  0  0  0
    0.7500    3.8971    0.0000 C   0  0  0  0  0  0  0  0  0  0  0  0
    1.5000    2.5981    0.0000 C   0  0  0  0  0  0  0  0  0  0  0  0
    0.7500    1.2990    0.0000 C   0  0  0  0  0  0  0  0  0  0  0  0
  1  2  1  0
  2  3  1  0
  3  4  1  0
  4  5  1  0
  5  6  1  0
  6  7  2  0
  6  8  1  0
  8  9  2  0
  9 10  1  0
 10 11  2  0
 11 12  1  0
 12 13  2  0
 13 14  1  0
 14 15  1  0
 15 16  1  0
 16 17  2  0
 17 18  1  0
 18 19  2  0
 19 20  1  0
 20 21  2  0
 21 22  1  0
 22 23  1  0
 23 24  1  0
 22 25  2  0
 25 26  1  0
 26 27  1  0
 25 28  1  0
 28 29  2  0
 14 30  2  0
 30 31  1  0
 31 32  2  0
 32  8  1  0
 32 12  1  0
 29 16  1  0
 29 20  1  0
M  END
>  <Compound_ID>  (53) 
CHEMBL271188

>  <Molecule Name>  (53) 
nan

>  <Molecular Weight>  (53) 
432.48

>  <AlogP>  (53) 
4.57

>  <Smiles>  (53) 
COCCNC(=O)c1cccc2cc(Oc3ccnc4cc(OC)c(OC)cc34)ccc12

>  <Standard Type>  (53) 
IC50

>  <Standard Relation>  (53) 
'='

>  <Standard Units>  (53) 
nM

>  <Standard Value>  (53) 
20000.0

>  <Assay ChEMBL ID>  (53) 
CHEMBL951282

>  <Assay Description>  (53) 
Inhibition of c-Met

>  <BAO Format ID>  (53) 
BAO_0000357

>  <BAO Label>  (53) 
single protein format

>  <Assay Organism>  (53) 
None

>  <Target ChEMBL ID>  (53) 
CHEMBL3717

>  <Target Name>  (53) 
Hepatocyte growth factor receptor

>  <Target Organism>  (53) 
Homo sapiens

>  <Target Type>  (53) 
SINGLE PROTEIN

>  <Document ChEMBL ID>  (53) 
CHEMBL1144684

>  <Source Description>  (53) 
Scientific Literature

>  <Document Journal>  (53) 
J Med Chem

>  <Document Year>  (53) 
2008.0

>  <Active>  (53) 
0.0

$$$$

     RDKit          2D

 26 29  0  0  0  0  0  0  0  0999 V2000
    3.7500   -1.2990    0.0000 C   0  0  0  0  0  0  0  0  0  0  0  0
    3.0000    0.0000    0.0000 O   0  0  0  0  0  0  0  0  0  0  0  0
    1.5000    0.0000    0.0000 C   0  0  0  0  0  0  0  0  0  0  0  0
    0.7500   -1.2990    0.0000 C   0  0  0  0  0  0  0  0  0  0  0  0
   -0.7500   -1.2990    0.0000 C   0  0  0  0  0  0  0  0  0  0  0  0
   -1.5000    0.0000    0.0000 C   0  0  0  0  0  0  0  0  0  0  0  0
   -3.0000    0.0000    0.0000 C   0  0  0  0  0  0  0  0  0  0  0  0
   -3.7500   -1.2990    0.0000 O   0  0  0  0  0  0  0  0  0  0  0  0
   -5.2500   -1.2990    0.0000 C   0  0  0  0  0  0  0  0  0  0  0  0
   -6.0000    0.0000    0.0000 C   0  0  0  0  0  0  0  0  0  0  0  0
   -7.5000    0.0000    0.0000 C   0  0  0  0  0  0  0  0  0  0  0  0
   -8.2500   -1.2990    0.0000 C   0  0  0  0  0  0  0  0  0  0  0  0
   -9.7500   -1.2990    0.0000 C   0  0  0  0  0  0  0  0  0  0  0  0
  -10.5000    0.0000    0.0000 C   0  0  0  0  0  0  0  0  0  0  0  0
  -12.0000    0.0000    0.0000 N   0  0  0  0  0  0  0  0  0  0  0  0
   -9.7500    1.2990    0.0000 O   0  0  0  0  0  0  0  0  0  0  0  0
  -10.5000   -2.5981    0.0000 C   0  0  0  0  0  0  0  0  0  0  0  0
   -9.7500   -3.8971    0.0000 C   0  0  0  0  0  0  0  0  0  0  0  0
   -8.2500   -3.8971    0.0000 C   0  0  0  0  0  0  0  0  0  0  0  0
   -7.5000   -2.5981    0.0000 C   0  0  0  0  0  0  0  0  0  0  0  0
   -6.0000   -2.5981    0.0000 C   0  0  0  0  0  0  0  0  0  0  0  0
   -3.7500    1.2990    0.0000 C   0  0  0  0  0  0  0  0  0  0  0  0
   -3.0000    2.5981    0.0000 C   0  0  0  0  0  0  0  0  0  0  0  0
   -1.5000    2.5981    0.0000 N   0  0  0  0  0  0  0  0  0  0  0  0
   -0.7500    1.2990    0.0000 C   0  0  0  0  0  0  0  0  0  0  0  0
    0.7500    1.2990    0.0000 C   0  0  0  0  0  0  0  0  0  0  0  0
  1  2  1  0
  2  3  1  0
  3  4  2  0
  4  5  1  0
  5  6  2  0
  6  7  1  0
  7  8  1  0
  8  9  1  0
  9 10  2  0
 10 11  1  0
 11 12  2  0
 12 13  1  0
 13 14  1  0
 14 15  1  0
 14 16  2  0
 13 17  2  0
 17 18  1  0
 18 19  2  0
 19 20  1  0
 20 21  2  0
  7 22  2  0
 22 23  1  0
 23 24  2  0
 24 25  1  0
 25 26  2  0
 26  3  1  0
 25  6  1  0
 21  9  1  0
 20 12  1  0
M  END
>  <Compound_ID>  (54) 
CHEMBL272252

>  <Molecule Name>  (54) 
nan

>  <Molecular Weight>  (54) 
344.37

>  <AlogP>  (54) 
4.29

>  <Smiles>  (54) 
COc1ccc2c(Oc3ccc4c(C(N)=O)cccc4c3)ccnc2c1

>  <Standard Type>  (54) 
IC50

>  <Standard Relation>  (54) 
'='

>  <Standard Units>  (54) 
nM

>  <Standard Value>  (54) 
20000.0

>  <Assay ChEMBL ID>  (54) 
CHEMBL951282

>  <Assay Description>  (54) 
Inhibition of c-Met

>  <BAO Format ID>  (54) 
BAO_0000357

>  <BAO Label>  (54) 
single protein format

>  <Assay Organism>  (54) 
None

>  <Target ChEMBL ID>  (54) 
CHEMBL3717

>  <Target Name>  (54) 
Hepatocyte growth factor receptor

>  <Target Organism>  (54) 
Homo sapiens

>  <Target Type>  (54) 
SINGLE PROTEIN

>  <Document ChEMBL ID>  (54) 
CHEMBL1144684

>  <Source Description>  (54) 
Scientific Literature

>  <Document Journal>  (54) 
J Med Chem

>  <Document Year>  (54) 
2008.0

>  <Active>  (54) 
0.0

$$$$

     RDKit          2D

 32 35  0  0  0  0  0  0  0  0999 V2000
    8.2500   -3.8971    0.0000 C   0  0  0  0  0  0  0  0  0  0  0  0
    7.5000   -2.5981    0.0000 O   0  0  0  0  0  0  0  0  0  0  0  0
    6.0000   -2.5981    0.0000 C   0  0  0  0  0  0  0  0  0  0  0  0
    5.2500   -1.2990    0.0000 C   0  0  0  0  0  0  0  0  0  0  0  0
    3.7500   -1.2990    0.0000 N   0  0  0  0  0  0  0  0  0  0  0  0
    3.0000    0.0000    0.0000 C   0  0  0  0  0  0  0  0  0  0  0  0
    3.7500    1.2990    0.0000 O   0  0  0  0  0  0  0  0  0  0  0  0
    1.5000    0.0000    0.0000 C   0  0  0  0  0  0  0  0  0  0  0  0
    0.7500   -1.2990    0.0000 C   0  0  0  0  0  0  0  0  0  0  0  0
   -0.7500   -1.2990    0.0000 C   0  0  0  0  0  0  0  0  0  0  0  0
   -1.5000    0.0000    0.0000 C   0  0  0  0  0  0  0  0  0  0  0  0
   -0.7500    1.2990    0.0000 C   0  0  0  0  0  0  0  0  0  0  0  0
   -1.5000    2.5981    0.0000 C   0  0  0  0  0  0  0  0  0  0  0  0
   -0.7500    3.8971    0.0000 C   0  0  0  0  0  0  0  0  0  0  0  0
   -1.5000    5.1962    0.0000 O   0  0  0  0  0  0  0  0  0  0  0  0
   -0.7500    6.4952    0.0000 C   0  0  0  0  0  0  0  0  0  0  0  0
    0.7500    6.4952    0.0000 N   0  0  0  0  0  0  0  0  0  0  0  0
    1.5000    7.7942    0.0000 C   0  0  0  0  0  0  0  0  0  0  0  0
    0.7500    9.0933    0.0000 N   0  0  0  0  0  0  0  0  0  0  0  0
   -0.7500    9.0933    0.0000 C   0  0  0  0  0  0  0  0  0  0  0  0
   -1.5000   10.3923    0.0000 C   0  0  0  0  0  0  0  0  0  0  0  0
   -3.0000   10.3923    0.0000 C   0  0  0  0  0  0  0  0  0  0  0  0
   -3.7500   11.6913    0.0000 O   0  0  0  0  0  0  0  0  0  0  0  0
   -3.0000   12.9904    0.0000 C   0  0  0  0  0  0  0  0  0  0  0  0
   -3.7500    9.0933    0.0000 C   0  0  0  0  0  0  0  0  0  0  0  0
   -5.2500    9.0933    0.0000 O   0  0  0  0  0  0  0  0  0  0  0  0
   -6.0000    7.7942    0.0000 C   0  0  0  0  0  0  0  0  0  0  0  0
   -3.0000    7.7942    0.0000 C   0  0  0  0  0  0  0  0  0  0  0  0
   -1.5000    7.7942    0.0000 C   0  0  0  0  0  0  0  0  0  0  0  0
    0.7500    3.8971    0.0000 C   0  0  0  0  0  0  0  0  0  0  0  0
    1.5000    2.5981    0.0000 C   0  0  0  0  0  0  0  0  0  0  0  0
    0.7500    1.2990    0.0000 C   0  0  0  0  0  0  0  0  0  0  0  0
  1  2  1  0
  2  3  1  0
  3  4  1  0
  4  5  1  0
  5  6  1  0
  6  7  2  0
  6  8  1  0
  8  9  2  0
  9 10  1  0
 10 11  2  0
 11 12  1  0
 12 13  2  0
 13 14  1  0
 14 15  1  0
 15 16  1  0
 16 17  2  0
 17 18  1  0
 18 19  2  0
 19 20  1  0
 20 21  2  0
 21 22  1  0
 22 23  1  0
 23 24  1  0
 22 25  2  0
 25 26  1  0
 26 27  1  0
 25 28  1  0
 28 29  2  0
 14 30  2  0
 30 31  1  0
 31 32  2  0
 32  8  1  0
 32 12  1  0
 29 16  1  0
 29 20  1  0
M  END
>  <Compound_ID>  (55) 
CHEMBL412278

>  <Molecule Name>  (55) 
nan

>  <Molecular Weight>  (55) 
433.46

>  <AlogP>  (55) 
3.97

>  <Smiles>  (55) 
COCCNC(=O)c1cccc2cc(Oc3ncnc4cc(OC)c(OC)cc34)ccc12

>  <Standard Type>  (55) 
IC50

>  <Standard Relation>  (55) 
'='

>  <Standard Units>  (55) 
nM

>  <Standard Value>  (55) 
20000.0

>  <Assay ChEMBL ID>  (55) 
CHEMBL951282

>  <Assay Description>  (55) 
Inhibition of c-Met

>  <BAO Format ID>  (55) 
BAO_0000357

>  <BAO Label>  (55) 
single protein format

>  <Assay Organism>  (55) 
None

>  <Target ChEMBL ID>  (55) 
CHEMBL3717

>  <Target Name>  (55) 
Hepatocyte growth factor receptor

>  <Target Organism>  (55) 
Homo sapiens

>  <Target Type>  (55) 
SINGLE PROTEIN

>  <Document ChEMBL ID>  (55) 
CHEMBL1144684

>  <Source Description>  (55) 
Scientific Literature

>  <Document Journal>  (55) 
J Med Chem

>  <Document Year>  (55) 
2008.0

>  <Active>  (55) 
0.0

$$$$

     RDKit          2D

 32 35  0  0  0  0  0  0  0  0999 V2000
   -2.6401   -3.1891    0.0000 N   0  0  0  0  0  0  0  0  0  0  0  0
   -1.2135   -2.7256    0.0000 C   0  0  0  0  0  0  0  0  0  0  0  0
   -0.0000   -3.6073    0.0000 N   0  0  0  0  0  0  0  0  0  0  0  0
    1.2135   -2.7256    0.0000 N   0  0  0  0  0  0  0  0  0  0  0  0
    0.7500   -1.2990    0.0000 C   0  0  0  0  0  0  0  0  0  0  0  0
    1.5000    0.0000    0.0000 C   0  0  0  0  0  0  0  0  0  0  0  0
    0.7500    1.2990    0.0000 C   0  0  0  0  0  0  0  0  0  0  0  0
   -0.7500    1.2990    0.0000 C   0  0  0  0  0  0  0  0  0  0  0  0
   -1.5000    0.0000    0.0000 C   0  0  0  0  0  0  0  0  0  0  0  0
   -3.0000    0.0000    0.0000 C   0  0  0  0  0  0  0  0  0  0  0  0
   -3.7500    1.2990    0.0000 C   0  0  0  0  0  0  0  0  0  0  0  0
   -5.2500    1.2990    0.0000 C   0  0  0  0  0  0  0  0  0  0  0  0
   -6.0000    0.0000    0.0000 C   0  0  0  0  0  0  0  0  0  0  0  0
   -7.5000    0.0000    0.0000 N   0  0  0  0  0  0  0  0  0  0  0  0
   -8.2500    1.2990    0.0000 C   0  0  0  0  0  0  0  0  0  0  0  0
   -7.5000    2.5981    0.0000 S   0  0  0  0  0  0  0  0  0  0  0  0
   -9.7500    1.2990    0.0000 N   0  0  0  0  0  0  0  0  0  0  0  0
  -10.5000    2.5981    0.0000 C   0  0  0  0  0  0  0  0  0  0  0  0
   -9.7500    3.8971    0.0000 C   0  0  0  0  0  0  0  0  0  0  0  0
  -10.5000    5.1962    0.0000 C   0  0  0  0  0  0  0  0  0  0  0  0
   -9.7500    6.4952    0.0000 Br  0  0  0  0  0  0  0  0  0  0  0  0
  -12.0000    5.1962    0.0000 C   0  0  0  0  0  0  0  0  0  0  0  0
  -12.7500    3.8971    0.0000 C   0  0  0  0  0  0  0  0  0  0  0  0
  -12.0000    2.5981    0.0000 C   0  0  0  0  0  0  0  0  0  0  0  0
  -12.7500    1.2990    0.0000 O   0  0  0  0  0  0  0  0  0  0  0  0
  -14.2500    1.2990    0.0000 C   0  0  0  0  0  0  0  0  0  0  0  0
  -15.7500    1.2990    0.0000 F   0  0  0  0  0  0  0  0  0  0  0  0
  -14.2500   -0.2010    0.0000 F   0  0  0  0  0  0  0  0  0  0  0  0
  -14.2500    2.7990    0.0000 F   0  0  0  0  0  0  0  0  0  0  0  0
   -5.2500   -1.2990    0.0000 C   0  0  0  0  0  0  0  0  0  0  0  0
   -3.7500   -1.2990    0.0000 C   0  0  0  0  0  0  0  0  0  0  0  0
   -0.7500   -1.2990    0.0000 C   0  0  0  0  0  0  0  0  0  0  0  0
  1  2  1  0
  2  3  2  0
  3  4  1  0
  4  5  1  0
  5  6  2  0
  6  7  1  0
  7  8  2  0
  8  9  1  0
  9 10  1  0
 10 11  2  0
 11 12  1  0
 12 13  2  0
 13 14  1  0
 14 15  1  0
 15 16  2  0
 15 17  1  0
 17 18  1  0
 18 19  2  0
 19 20  1  0
 20 21  1  0
 20 22  2  0
 22 23  1  0
 23 24  2  0
 24 25  1  0
 25 26  1  0
 26 27  1  0
 26 28  1  0
 26 29  1  0
 13 30  1  0
 30 31  2  0
  9 32  2  0
 32  2  1  0
 32  5  1  0
 31 10  1  0
 24 18  1  0
M  END
>  <Compound_ID>  (56) 
CHEMBL4160854

>  <Molecule Name>  (56) 
nan

>  <Molecular Weight>  (56) 
522.35

>  <AlogP>  (56) 
6.28

>  <Smiles>  (56) 
Nc1n[nH]c2cccc(-c3ccc(NC(=S)Nc4cc(Br)ccc4OC(F)(F)F)cc3)c12

>  <Standard Type>  (56) 
IC50

>  <Standard Relation>  (56) 
'='

>  <Standard Units>  (56) 
nM

>  <Standard Value>  (56) 
10000.0

>  <Assay ChEMBL ID>  (56) 
CHEMBL4140592

>  <Assay Description>  (56) 
Inhibition of c-MET (unknown origin)

>  <BAO Format ID>  (56) 
BAO_0000357

>  <BAO Label>  (56) 
single protein format

>  <Assay Organism>  (56) 
Homo sapiens

>  <Target ChEMBL ID>  (56) 
CHEMBL3717

>  <Target Name>  (56) 
Hepatocyte growth factor receptor

>  <Target Organism>  (56) 
Homo sapiens

>  <Target Type>  (56) 
SINGLE PROTEIN

>  <Document ChEMBL ID>  (56) 
CHEMBL4138129

>  <Source Description>  (56) 
Scientific Literature

>  <Document Journal>  (56) 
Eur J Med Chem

>  <Document Year>  (56) 
2017.0

>  <Active>  (56) 
0.0

$$$$

     RDKit          2D

 26 29  0  0  0  0  0  0  0  0999 V2000
   -9.1472    6.3086    0.0000 N   0  0  0  0  0  0  0  0  0  0  0  0
   -8.0325    5.3050    0.0000 S   0  0  0  0  0  0  0  0  0  0  0  0
   -7.0288    6.4197    0.0000 O   0  0  0  0  0  0  0  0  0  0  0  0
   -9.0362    4.1902    0.0000 O   0  0  0  0  0  0  0  0  0  0  0  0
   -6.9177    4.3013    0.0000 C   0  0  0  0  0  0  0  0  0  0  0  0
   -5.4912    4.7648    0.0000 C   0  0  0  0  0  0  0  0  0  0  0  0
   -4.3764    3.7611    0.0000 C   0  0  0  0  0  0  0  0  0  0  0  0
   -4.6883    2.2939    0.0000 C   0  0  0  0  0  0  0  0  0  0  0  0
   -3.5736    1.2902    0.0000 N   0  0  0  0  0  0  0  0  0  0  0  0
   -2.1470    1.7537    0.0000 C   0  0  0  0  0  0  0  0  0  0  0  0
   -1.8351    3.2209    0.0000 N   0  0  0  0  0  0  0  0  0  0  0  0
   -0.4086    3.6844    0.0000 C   0  0  0  0  0  0  0  0  0  0  0  0
   -0.0967    5.1517    0.0000 N   0  0  0  0  0  0  0  0  0  0  0  0
    1.3299    5.6152    0.0000 C   0  0  0  0  0  0  0  0  0  0  0  0
    1.6418    7.0824    0.0000 C   0  0  0  0  0  0  0  0  0  0  0  0
    0.5271    8.0861    0.0000 O   0  0  0  0  0  0  0  0  0  0  0  0
   -0.8995    7.6226    0.0000 C   0  0  0  0  0  0  0  0  0  0  0  0
   -1.2114    6.1554    0.0000 C   0  0  0  0  0  0  0  0  0  0  0  0
    0.7062    2.6807    0.0000 N   0  0  0  0  0  0  0  0  0  0  0  0
    0.3943    1.2135    0.0000 C   0  0  0  0  0  0  0  0  0  0  0  0
    1.2760    0.0000    0.0000 N   0  0  0  0  0  0  0  0  0  0  0  0
    0.3943   -1.2135    0.0000 C   0  0  0  0  0  0  0  0  0  0  0  0
   -1.0323   -0.7500    0.0000 N   0  0  0  0  0  0  0  0  0  0  0  0
   -1.0323    0.7500    0.0000 C   0  0  0  0  0  0  0  0  0  0  0  0
   -6.1149    1.8303    0.0000 C   0  0  0  0  0  0  0  0  0  0  0  0
   -7.2296    2.8340    0.0000 C   0  0  0  0  0  0  0  0  0  0  0  0
  1  2  1  0
  2  3  2  0
  2  4  2  0
  2  5  1  0
  5  6  2  0
  6  7  1  0
  7  8  2  0
  8  9  1  0
  9 10  1  0
 10 11  2  0
 11 12  1  0
 12 13  1  0
 13 14  1  0
 14 15  1  0
 15 16  1  0
 16 17  1  0
 17 18  1  0
 12 19  2  0
 19 20  1  0
 20 21  1  0
 21 22  1  0
 22 23  2  0
 23 24  1  0
  8 25  1  0
 25 26  2  0
 26  5  1  0
 24 10  1  0
 18 13  1  0
 24 20  2  0
M  END
>  <Compound_ID>  (57) 
CHEMBL1172957

>  <Molecule Name>  (57) 
nan

>  <Molecular Weight>  (57) 
375.41

>  <AlogP>  (57) 
0.58

>  <Smiles>  (57) 
NS(=O)(=O)c1ccc(Nc2nc(N3CCOCC3)nc3[nH]cnc23)cc1

>  <Standard Type>  (57) 
IC50

>  <Standard Relation>  (57) 
'='

>  <Standard Units>  (57) 
nM

>  <Standard Value>  (57) 
10000.0

>  <Assay ChEMBL ID>  (57) 
CHEMBL1177629

>  <Assay Description>  (57) 
Inhibition cMet

>  <BAO Format ID>  (57) 
BAO_0000357

>  <BAO Label>  (57) 
single protein format

>  <Assay Organism>  (57) 
None

>  <Target ChEMBL ID>  (57) 
CHEMBL3717

>  <Target Name>  (57) 
Hepatocyte growth factor receptor

>  <Target Organism>  (57) 
Homo sapiens

>  <Target Type>  (57) 
SINGLE PROTEIN

>  <Document ChEMBL ID>  (57) 
CHEMBL1177660

>  <Source Description>  (57) 
Scientific Literature

>  <Document Journal>  (57) 
Bioorg Med Chem

>  <Document Year>  (57) 
2010.0

>  <Active>  (57) 
0.0

$$$$

     RDKit          2D

 29 31  0  0  0  0  0  0  0  0999 V2000
   -5.3120   -0.6406    0.0000 C   0  0  0  0  0  0  0  0  0  0  0  0
   -6.4268    0.3631    0.0000 C   0  0  0  0  0  0  0  0  0  0  0  0
   -7.8533   -0.1004    0.0000 C   0  0  0  0  0  0  0  0  0  0  0  0
   -8.9681    0.9033    0.0000 C   0  0  0  0  0  0  0  0  0  0  0  0
   -8.6562    2.3705    0.0000 C   0  0  0  0  0  0  0  0  0  0  0  0
   -9.7709    3.3742    0.0000 O   0  0  0  0  0  0  0  0  0  0  0  0
   -7.2296    2.8340    0.0000 C   0  0  0  0  0  0  0  0  0  0  0  0
   -6.1149    1.8303    0.0000 C   0  0  0  0  0  0  0  0  0  0  0  0
   -4.6883    2.2939    0.0000 C   0  0  0  0  0  0  0  0  0  0  0  0
   -3.5736    1.2902    0.0000 C   0  0  0  0  0  0  0  0  0  0  0  0
   -2.1470    1.7537    0.0000 C   0  0  0  0  0  0  0  0  0  0  0  0
   -1.8351    3.2209    0.0000 C   0  0  0  0  0  0  0  0  0  0  0  0
   -2.9499    4.2246    0.0000 O   0  0  0  0  0  0  0  0  0  0  0  0
   -0.4086    3.6844    0.0000 C   0  0  0  0  0  0  0  0  0  0  0  0
    0.7062    2.6807    0.0000 C   0  0  0  0  0  0  0  0  0  0  0  0
    0.3943    1.2135    0.0000 C   0  0  0  0  0  0  0  0  0  0  0  0
    1.8615    1.5254    0.0000 C   0  0  0  0  0  0  0  0  0  0  0  0
    1.2760    0.0000    0.0000 C   0  0  0  0  0  0  0  0  0  0  0  0
    2.7760    0.0000    0.0000 C   0  0  0  0  0  0  0  0  0  0  0  0
    3.5260   -1.2990    0.0000 C   0  0  0  0  0  0  0  0  0  0  0  0
    3.5260    1.2990    0.0000 C   0  0  0  0  0  0  0  0  0  0  0  0
    5.0260    1.2990    0.0000 C   0  0  0  0  0  0  0  0  0  0  0  0
    5.7760    2.5981    0.0000 C   0  0  0  0  0  0  0  0  0  0  0  0
    7.2760    2.5981    0.0000 C   0  0  0  0  0  0  0  0  0  0  0  0
    8.0260    3.8971    0.0000 C   0  0  0  0  0  0  0  0  0  0  0  0
    8.0260    1.2990    0.0000 C   0  0  0  0  0  0  0  0  0  0  0  0
    0.3943   -1.2135    0.0000 C   0  0  0  0  0  0  0  0  0  0  0  0
   -1.0323   -0.7500    0.0000 C   0  0  0  0  0  0  0  0  0  0  0  0
   -1.0323    0.7500    0.0000 C   0  0  0  0  0  0  0  0  0  0  0  0
  1  2  1  0
  2  3  2  0
  3  4  1  0
  4  5  2  0
  5  6  1  0
  5  7  1  0
  7  8  2  0
  8  9  1  0
  9 10  1  0
 11 10  1  6
 11 12  1  0
 12 13  1  1
 12 14  1  0
 14 15  1  0
 15 16  1  0
 16 17  1  1
 16 18  1  0
 18 19  1  0
 19 20  1  1
 19 21  1  0
 21 22  2  0
 22 23  1  0
 23 24  1  0
 24 25  1  0
 24 26  1  0
 18 27  1  1
 27 28  1  0
 29 28  1  1
  8  2  1  0
 29 11  1  0
 29 16  1  0
M  END
>  <Compound_ID>  (58) 
CHEMBL1922224

>  <Molecule Name>  (58) 
nan

>  <Molecular Weight>  (58) 
398.63

>  <AlogP>  (58) 
6.68

>  <Smiles>  (58) 
Cc1ccc(O)cc1CC[C@@H]1[C@@H](O)CC[C@]2(C)[C@@H]([C@H](C)/C=C/CC(C)C)CC[C@@H]12

>  <Standard Type>  (58) 
IC50

>  <Standard Relation>  (58) 
'='

>  <Standard Units>  (58) 
nM

>  <Standard Value>  (58) 
34000.0

>  <Assay ChEMBL ID>  (58) 
CHEMBL1926227

>  <Assay Description>  (58) 
Inhibition of wild type human MET using poly(Ala,Glu,Lys,Tyr) as substrate

>  <BAO Format ID>  (58) 
BAO_0000357

>  <BAO Label>  (58) 
single protein format

>  <Assay Organism>  (58) 
Homo sapiens

>  <Target ChEMBL ID>  (58) 
CHEMBL3717

>  <Target Name>  (58) 
Hepatocyte growth factor receptor

>  <Target Organism>  (58) 
Homo sapiens

>  <Target Type>  (58) 
SINGLE PROTEIN

>  <Document ChEMBL ID>  (58) 
CHEMBL1921742

>  <Source Description>  (58) 
Scientific Literature

>  <Document Journal>  (58) 
Bioorg Med Chem

>  <Document Year>  (58) 
2011.0

>  <Active>  (58) 
0.0

$$$$

     RDKit          2D

 22 25  0  0  0  0  0  0  0  0999 V2000
    3.7500   -6.4952    0.0000 C   0  0  0  0  0  0  0  0  0  0  0  0
    3.0000   -5.1962    0.0000 N   0  0  0  0  0  0  0  0  0  0  0  0
    1.5000   -5.1962    0.0000 C   0  0  0  0  0  0  0  0  0  0  0  0
    0.7500   -3.8971    0.0000 C   0  0  0  0  0  0  0  0  0  0  0  0
    1.5000   -2.5981    0.0000 N   0  0  0  0  0  0  0  0  0  0  0  0
    0.7500   -1.2990    0.0000 C   0  0  0  0  0  0  0  0  0  0  0  0
    1.5000    0.0000    0.0000 C   0  0  0  0  0  0  0  0  0  0  0  0
    0.7500    1.2990    0.0000 N   0  0  0  0  0  0  0  0  0  0  0  0
   -0.7500    1.2990    0.0000 C   0  0  0  0  0  0  0  0  0  0  0  0
   -1.5000    2.5981    0.0000 C   0  0  0  0  0  0  0  0  0  0  0  0
   -3.0000    2.5981    0.0000 C   0  0  0  0  0  0  0  0  0  0  0  0
   -3.7500    1.2990    0.0000 C   0  0  0  0  0  0  0  0  0  0  0  0
   -3.0000    0.0000    0.0000 C   0  0  0  0  0  0  0  0  0  0  0  0
   -3.7500   -1.2990    0.0000 C   0  0  0  0  0  0  0  0  0  0  0  0
   -3.1399   -2.6694    0.0000 C   0  0  0  0  0  0  0  0  0  0  0  0
   -4.2546   -3.6731    0.0000 C   0  0  0  0  0  0  0  0  0  0  0  0
   -5.5537   -2.9231    0.0000 C   0  0  0  0  0  0  0  0  0  0  0  0
   -5.2418   -1.4558    0.0000 S   0  0  0  0  0  0  0  0  0  0  0  0
   -1.5000    0.0000    0.0000 C   0  0  0  0  0  0  0  0  0  0  0  0
   -0.7500   -1.2990    0.0000 C   0  0  0  0  0  0  0  0  0  0  0  0
    3.0000   -2.5981    0.0000 C   0  0  0  0  0  0  0  0  0  0  0  0
    3.7500   -3.8971    0.0000 C   0  0  0  0  0  0  0  0  0  0  0  0
  1  2  1  0
  2  3  1  0
  3  4  1  0
  4  5  1  0
  5  6  1  0
  6  7  2  0
  7  8  1  0
  8  9  2  0
  9 10  1  0
 10 11  2  0
 11 12  1  0
 12 13  2  0
 13 14  1  0
 14 15  2  0
 15 16  1  0
 16 17  2  0
 17 18  1  0
 13 19  1  0
 19 20  2  0
  5 21  1  0
 21 22  1  0
 22  2  1  0
 20  6  1  0
 19  9  1  0
 18 14  1  0
M  END
>  <Compound_ID>  (59) 
CHEMBL1766525

>  <Molecule Name>  (59) 
nan

>  <Molecular Weight>  (59) 
309.44

>  <AlogP>  (59) 
3.72

>  <Smiles>  (59) 
CN1CCN(c2cnc3cccc(-c4cccs4)c3c2)CC1

>  <Standard Type>  (59) 
IC50

>  <Standard Relation>  (59) 
'='

>  <Standard Units>  (59) 
nM

>  <Standard Value>  (59) 
14300.0

>  <Assay ChEMBL ID>  (59) 
CHEMBL1768668

>  <Assay Description>  (59) 
Inhibition of purified recombinant c-Met after 60 mins by ELISA

>  <BAO Format ID>  (59) 
BAO_0000357

>  <BAO Label>  (59) 
single protein format

>  <Assay Organism>  (59) 
None

>  <Target ChEMBL ID>  (59) 
CHEMBL3717

>  <Target Name>  (59) 
Hepatocyte growth factor receptor

>  <Target Organism>  (59) 
Homo sapiens

>  <Target Type>  (59) 
SINGLE PROTEIN

>  <Document ChEMBL ID>  (59) 
CHEMBL1765011

>  <Source Description>  (59) 
Scientific Literature

>  <Document Journal>  (59) 
J Med Chem

>  <Document Year>  (59) 
2011.0

>  <Active>  (59) 
0.0

$$$$

     RDKit          2D

 36 40  0  0  0  0  0  0  0  0999 V2000
   -2.6401   -3.1891    0.0000 C   0  0  0  0  0  0  0  0  0  0  0  0
   -1.2135   -2.7256    0.0000 N   0  0  0  0  0  0  0  0  0  0  0  0
   -0.0000   -3.6073    0.0000 C   0  0  0  0  0  0  0  0  0  0  0  0
   -0.0000   -5.1073    0.0000 O   0  0  0  0  0  0  0  0  0  0  0  0
    1.2135   -2.7256    0.0000 C   0  0  0  0  0  0  0  0  0  0  0  0
    2.6401   -3.1891    0.0000 N   0  0  0  0  0  0  0  0  0  0  0  0
    2.9520   -4.6564    0.0000 N   0  0  0  0  0  0  0  0  0  0  0  0
    4.3786   -5.1199    0.0000 C   0  0  0  0  0  0  0  0  0  0  0  0
    5.4933   -4.1162    0.0000 O   0  0  0  0  0  0  0  0  0  0  0  0
    4.6904   -6.5871    0.0000 C   0  0  0  0  0  0  0  0  0  0  0  0
    3.5757   -7.5908    0.0000 C   0  0  0  0  0  0  0  0  0  0  0  0
    3.8876   -9.0580    0.0000 C   0  0  0  0  0  0  0  0  0  0  0  0
    5.3142   -9.5216    0.0000 C   0  0  0  0  0  0  0  0  0  0  0  0
    6.4289   -8.5179    0.0000 C   0  0  0  0  0  0  0  0  0  0  0  0
    7.8555   -8.9814    0.0000 C   0  0  0  0  0  0  0  0  0  0  0  0
    8.9702   -7.9777    0.0000 O   0  0  0  0  0  0  0  0  0  0  0  0
    8.1673  -10.4486    0.0000 N   0  0  0  0  0  0  0  0  0  0  0  0
    9.5939  -10.9121    0.0000 N   0  0  0  0  0  0  0  0  0  0  0  0
    9.9058  -12.3794    0.0000 C   0  0  0  0  0  0  0  0  0  0  0  0
   11.2761  -12.9895    0.0000 C   0  0  0  0  0  0  0  0  0  0  0  0
   12.5751  -12.2395    0.0000 O   0  0  0  0  0  0  0  0  0  0  0  0
   11.1193  -14.4812    0.0000 N   0  0  0  0  0  0  0  0  0  0  0  0
   12.2340  -15.4849    0.0000 C   0  0  0  0  0  0  0  0  0  0  0  0
    9.6521  -14.7931    0.0000 C   0  0  0  0  0  0  0  0  0  0  0  0
    8.9021  -16.0922    0.0000 C   0  0  0  0  0  0  0  0  0  0  0  0
    7.4021  -16.0922    0.0000 C   0  0  0  0  0  0  0  0  0  0  0  0
    6.6521  -14.7931    0.0000 C   0  0  0  0  0  0  0  0  0  0  0  0
    7.4021  -13.4941    0.0000 C   0  0  0  0  0  0  0  0  0  0  0  0
    8.9021  -13.4941    0.0000 C   0  0  0  0  0  0  0  0  0  0  0  0
    6.1170   -7.0506    0.0000 C   0  0  0  0  0  0  0  0  0  0  0  0
    0.7500   -1.2990    0.0000 C   0  0  0  0  0  0  0  0  0  0  0  0
    1.5000    0.0000    0.0000 C   0  0  0  0  0  0  0  0  0  0  0  0
    0.7500    1.2990    0.0000 C   0  0  0  0  0  0  0  0  0  0  0  0
   -0.7500    1.2990    0.0000 C   0  0  0  0  0  0  0  0  0  0  0  0
   -1.5000    0.0000    0.0000 C   0  0  0  0  0  0  0  0  0  0  0  0
   -0.7500   -1.2990    0.0000 C   0  0  0  0  0  0  0  0  0  0  0  0
  1  2  1  0
  2  3  1  0
  3  4  2  0
  3  5  1  0
  5  6  2  0
  6  7  1  0
  7  8  1  0
  8  9  2  0
  8 10  1  0
 10 11  2  0
 11 12  1  0
 12 13  2  0
 13 14  1  0
 14 15  1  0
 15 16  2  0
 15 17  1  0
 17 18  1  0
 18 19  2  0
 19 20  1  0
 20 21  2  0
 20 22  1  0
 22 23  1  0
 22 24  1  0
 24 25  2  0
 25 26  1  0
 26 27  2  0
 27 28  1  0
 28 29  2  0
 14 30  2  0
  5 31  1  0
 31 32  2  0
 32 33  1  0
 33 34  2  0
 34 35  1  0
 35 36  2  0
 36  2  1  0
 30 10  1  0
 36 31  1  0
 29 19  1  0
 29 24  1  0
M  END
>  <Compound_ID>  (60) 
CHEMBL1779061

>  <Molecule Name>  (60) 
nan

>  <Molecular Weight>  (60) 
480.48

>  <AlogP>  (60) 
1.91

>  <Smiles>  (60) 
CN1C(=O)/C(=N\NC(=O)c2cccc(C(=O)N/N=C3/C(=O)N(C)c4ccccc43)c2)c2ccccc21

>  <Standard Type>  (60) 
IC50

>  <Standard Relation>  (60) 
'='

>  <Standard Units>  (60) 
nM

>  <Standard Value>  (60) 
10300.0

>  <Assay ChEMBL ID>  (60) 
CHEMBL1781431

>  <Assay Description>  (60) 
Inhibition of purified c-Met using poly(glu,tyr) as substrate after 60 mins by ELISA

>  <BAO Format ID>  (60) 
BAO_0000357

>  <BAO Label>  (60) 
single protein format

>  <Assay Organism>  (60) 
None

>  <Target ChEMBL ID>  (60) 
CHEMBL3717

>  <Target Name>  (60) 
Hepatocyte growth factor receptor

>  <Target Organism>  (60) 
Homo sapiens

>  <Target Type>  (60) 
SINGLE PROTEIN

>  <Document ChEMBL ID>  (60) 
CHEMBL1777704

>  <Source Description>  (60) 
Scientific Literature

>  <Document Journal>  (60) 
Bioorg Med Chem Lett

>  <Document Year>  (60) 
2011.0

>  <Active>  (60) 
0.0

$$$$

     RDKit          2D

 27 29  0  0  0  0  0  0  0  0999 V2000
   -8.8317  -12.6077    0.0000 C   0  0  0  0  0  0  0  0  0  0  0  0
   -7.3645  -12.9195    0.0000 C   0  0  0  0  0  0  0  0  0  0  0  0
   -5.8973  -13.2314    0.0000 C   0  0  0  0  0  0  0  0  0  0  0  0
   -7.6764  -14.3867    0.0000 C   0  0  0  0  0  0  0  0  0  0  0  0
   -7.0526  -11.4523    0.0000 C   0  0  0  0  0  0  0  0  0  0  0  0
   -8.1673  -10.4486    0.0000 C   0  0  0  0  0  0  0  0  0  0  0  0
   -7.8555   -8.9814    0.0000 C   0  0  0  0  0  0  0  0  0  0  0  0
   -6.4289   -8.5179    0.0000 C   0  0  0  0  0  0  0  0  0  0  0  0
   -6.1170   -7.0506    0.0000 C   0  0  0  0  0  0  0  0  0  0  0  0
   -7.2317   -6.0469    0.0000 O   0  0  0  0  0  0  0  0  0  0  0  0
   -4.6904   -6.5871    0.0000 N   0  0  0  0  0  0  0  0  0  0  0  0
   -4.3786   -5.1199    0.0000 N   0  0  0  0  0  0  0  0  0  0  0  0
   -2.9520   -4.6564    0.0000 C   0  0  0  0  0  0  0  0  0  0  0  0
   -1.8373   -5.6601    0.0000 O   0  0  0  0  0  0  0  0  0  0  0  0
   -2.6401   -3.1891    0.0000 C   0  0  0  0  0  0  0  0  0  0  0  0
   -3.7548   -2.1855    0.0000 O   0  0  0  0  0  0  0  0  0  0  0  0
   -1.2135   -2.7256    0.0000 C   0  0  0  0  0  0  0  0  0  0  0  0
   -0.0000   -3.6073    0.0000 C   0  0  0  0  0  0  0  0  0  0  0  0
    1.2135   -2.7256    0.0000 N   0  0  0  0  0  0  0  0  0  0  0  0
    0.7500   -1.2990    0.0000 C   0  0  0  0  0  0  0  0  0  0  0  0
    1.5000    0.0000    0.0000 C   0  0  0  0  0  0  0  0  0  0  0  0
    0.7500    1.2990    0.0000 C   0  0  0  0  0  0  0  0  0  0  0  0
   -0.7500    1.2990    0.0000 C   0  0  0  0  0  0  0  0  0  0  0  0
   -1.5000    0.0000    0.0000 C   0  0  0  0  0  0  0  0  0  0  0  0
   -0.7500   -1.2990    0.0000 C   0  0  0  0  0  0  0  0  0  0  0  0
   -5.3142   -9.5216    0.0000 C   0  0  0  0  0  0  0  0  0  0  0  0
   -5.6260  -10.9888    0.0000 C   0  0  0  0  0  0  0  0  0  0  0  0
  1  2  1  0
  2  3  1  0
  2  4  1  0
  2  5  1  0
  5  6  2  0
  6  7  1  0
  7  8  2  0
  8  9  1  0
  9 10  2  0
  9 11  1  0
 11 12  1  0
 12 13  1  0
 13 14  2  0
 13 15  1  0
 15 16  2  0
 15 17  1  0
 17 18  2  0
 18 19  1  0
 19 20  1  0
 20 21  2  0
 21 22  1  0
 22 23  2  0
 23 24  1  0
 24 25  2  0
  8 26  1  0
 26 27  2  0
 27  5  1  0
 25 17  1  0
 25 20  1  0
M  END
>  <Compound_ID>  (61) 
CHEMBL1796180

>  <Molecule Name>  (61) 
nan

>  <Molecular Weight>  (61) 
363.42

>  <AlogP>  (61) 
3.11

>  <Smiles>  (61) 
CC(C)(C)c1ccc(C(=O)NNC(=O)C(=O)c2c[nH]c3ccccc23)cc1

>  <Standard Type>  (61) 
IC50

>  <Standard Relation>  (61) 
'='

>  <Standard Units>  (61) 
nM

>  <Standard Value>  (61) 
36000.0

>  <Assay ChEMBL ID>  (61) 
CHEMBL1798372

>  <Assay Description>  (61) 
Inhibition of c-MET assessed as incorporation of p33 using [gammaP33]-ATP by microplate scintillation counting

>  <BAO Format ID>  (61) 
BAO_0000357

>  <BAO Label>  (61) 
single protein format

>  <Assay Organism>  (61) 
None

>  <Target ChEMBL ID>  (61) 
CHEMBL3717

>  <Target Name>  (61) 
Hepatocyte growth factor receptor

>  <Target Organism>  (61) 
Homo sapiens

>  <Target Type>  (61) 
SINGLE PROTEIN

>  <Document ChEMBL ID>  (61) 
CHEMBL1795330

>  <Source Description>  (61) 
Scientific Literature

>  <Document Journal>  (61) 
Eur J Med Chem

>  <Document Year>  (61) 
2011.0

>  <Active>  (61) 
0.0

$$$$

     RDKit          2D

 26 28  0  0  0  0  0  0  0  0999 V2000
   -1.8373   -5.6601    0.0000 O   0  0  0  0  0  0  0  0  0  0  0  0
   -2.9520   -4.6564    0.0000 C   0  0  0  0  0  0  0  0  0  0  0  0
   -4.3786   -5.1199    0.0000 N   0  0  0  0  0  0  0  0  0  0  0  0
   -4.6904   -6.5871    0.0000 N   0  0  0  0  0  0  0  0  0  0  0  0
   -6.1170   -7.0506    0.0000 C   0  0  0  0  0  0  0  0  0  0  0  0
   -7.2317   -6.0469    0.0000 O   0  0  0  0  0  0  0  0  0  0  0  0
   -6.4289   -8.5179    0.0000 C   0  0  0  0  0  0  0  0  0  0  0  0
   -7.8555   -8.9814    0.0000 C   0  0  0  0  0  0  0  0  0  0  0  0
   -8.1673  -10.4486    0.0000 C   0  0  0  0  0  0  0  0  0  0  0  0
   -7.0526  -11.4523    0.0000 C   0  0  0  0  0  0  0  0  0  0  0  0
   -7.3645  -12.9195    0.0000 N   0  0  0  0  0  4  0  0  0  0  0  0
   -6.2498  -13.9232    0.0000 O   0  0  0  0  0  0  0  0  0  0  0  0
   -8.7911  -13.3831    0.0000 O   0  0  0  0  0  1  0  0  0  0  0  0
   -5.6260  -10.9888    0.0000 C   0  0  0  0  0  0  0  0  0  0  0  0
   -5.3142   -9.5216    0.0000 C   0  0  0  0  0  0  0  0  0  0  0  0
   -2.6401   -3.1891    0.0000 C   0  0  0  0  0  0  0  0  0  0  0  0
   -3.7548   -2.1855    0.0000 O   0  0  0  0  0  0  0  0  0  0  0  0
   -1.2135   -2.7256    0.0000 C   0  0  0  0  0  0  0  0  0  0  0  0
   -0.0000   -3.6073    0.0000 C   0  0  0  0  0  0  0  0  0  0  0  0
    1.2135   -2.7256    0.0000 N   0  0  0  0  0  0  0  0  0  0  0  0
    0.7500   -1.2990    0.0000 C   0  0  0  0  0  0  0  0  0  0  0  0
    1.5000    0.0000    0.0000 C   0  0  0  0  0  0  0  0  0  0  0  0
    0.7500    1.2990    0.0000 C   0  0  0  0  0  0  0  0  0  0  0  0
   -0.7500    1.2990    0.0000 C   0  0  0  0  0  0  0  0  0  0  0  0
   -1.5000    0.0000    0.0000 C   0  0  0  0  0  0  0  0  0  0  0  0
   -0.7500   -1.2990    0.0000 C   0  0  0  0  0  0  0  0  0  0  0  0
  1  2  2  0
  2  3  1  0
  3  4  1  0
  4  5  1  0
  5  6  2  0
  5  7  1  0
  7  8  2  0
  8  9  1  0
  9 10  2  0
 10 11  1  0
 11 12  2  0
 11 13  1  0
 10 14  1  0
 14 15  2  0
  2 16  1  0
 16 17  2  0
 16 18  1  0
 18 19  2  0
 19 20  1  0
 20 21  1  0
 21 22  2  0
 22 23  1  0
 23 24  2  0
 24 25  1  0
 25 26  2  0
 15  7  1  0
 26 18  1  0
 26 21  1  0
M  CHG  2  11   1  13  -1
M  END
>  <Compound_ID>  (62) 
CHEMBL1796172

>  <Molecule Name>  (62) 
nan

>  <Molecular Weight>  (62) 
352.31

>  <AlogP>  (62) 
1.72

>  <Smiles>  (62) 
O=C(NNC(=O)c1ccc([N+](=O)[O-])cc1)C(=O)c1c[nH]c2ccccc12

>  <Standard Type>  (62) 
IC50

>  <Standard Relation>  (62) 
'='

>  <Standard Units>  (62) 
nM

>  <Standard Value>  (62) 
69000.0

>  <Assay ChEMBL ID>  (62) 
CHEMBL1798372

>  <Assay Description>  (62) 
Inhibition of c-MET assessed as incorporation of p33 using [gammaP33]-ATP by microplate scintillation counting

>  <BAO Format ID>  (62) 
BAO_0000357

>  <BAO Label>  (62) 
single protein format

>  <Assay Organism>  (62) 
None

>  <Target ChEMBL ID>  (62) 
CHEMBL3717

>  <Target Name>  (62) 
Hepatocyte growth factor receptor

>  <Target Organism>  (62) 
Homo sapiens

>  <Target Type>  (62) 
SINGLE PROTEIN

>  <Document ChEMBL ID>  (62) 
CHEMBL1795330

>  <Source Description>  (62) 
Scientific Literature

>  <Document Journal>  (62) 
Eur J Med Chem

>  <Document Year>  (62) 
2011.0

>  <Active>  (62) 
0.0

$$$$

     RDKit          2D

 35 39  0  0  0  0  0  0  0  0999 V2000
  -10.5738    5.8451    0.0000 C   0  0  0  0  0  0  0  0  0  0  0  0
  -10.2619    7.3123    0.0000 C   0  0  0  0  0  0  0  0  0  0  0  0
  -11.3766    8.3160    0.0000 C   0  0  0  0  0  0  0  0  0  0  0  0
  -11.0647    9.7833    0.0000 C   0  0  0  0  0  0  0  0  0  0  0  0
  -12.1795   10.7870    0.0000 O   0  0  0  0  0  0  0  0  0  0  0  0
   -9.6382   10.2468    0.0000 N   0  0  0  0  0  0  0  0  0  0  0  0
   -9.3263   11.7140    0.0000 C   0  0  0  0  0  0  0  0  0  0  0  0
   -7.8997   12.1775    0.0000 C   0  0  0  0  0  0  0  0  0  0  0  0
   -7.5878   13.6448    0.0000 C   0  0  0  0  0  0  0  0  0  0  0  0
   -8.7026   14.6485    0.0000 C   0  0  0  0  0  0  0  0  0  0  0  0
   -8.3907   16.1157    0.0000 Br  0  0  0  0  0  0  0  0  0  0  0  0
  -10.1291   14.1849    0.0000 C   0  0  0  0  0  0  0  0  0  0  0  0
  -10.4410   12.7177    0.0000 C   0  0  0  0  0  0  0  0  0  0  0  0
  -11.8676   12.2542    0.0000 F   0  0  0  0  0  0  0  0  0  0  0  0
   -8.5234    9.2431    0.0000 N   0  0  0  0  0  0  0  0  0  0  0  0
   -8.8353    7.7759    0.0000 C   0  0  0  0  0  0  0  0  0  0  0  0
   -7.7206    6.7722    0.0000 C   0  0  0  0  0  0  0  0  0  0  0  0
   -6.2940    7.2357    0.0000 O   0  0  0  0  0  0  0  0  0  0  0  0
   -8.0325    5.3050    0.0000 N   0  0  0  0  0  0  0  0  0  0  0  0
   -6.9177    4.3013    0.0000 C   0  0  0  0  0  0  0  0  0  0  0  0
   -7.2296    2.8340    0.0000 C   0  0  0  0  0  0  0  0  0  0  0  0
   -6.1149    1.8303    0.0000 C   0  0  0  0  0  0  0  0  0  0  0  0
   -4.6883    2.2939    0.0000 C   0  0  0  0  0  0  0  0  0  0  0  0
   -3.5736    1.2902    0.0000 O   0  0  0  0  0  0  0  0  0  0  0  0
   -2.1470    1.7537    0.0000 C   0  0  0  0  0  0  0  0  0  0  0  0
   -1.8351    3.2209    0.0000 N   0  0  0  0  0  0  0  0  0  0  0  0
   -0.4086    3.6844    0.0000 C   0  0  0  0  0  0  0  0  0  0  0  0
    0.7062    2.6807    0.0000 N   0  0  0  0  0  0  0  0  0  0  0  0
    0.3943    1.2135    0.0000 C   0  0  0  0  0  0  0  0  0  0  0  0
    1.2760    0.0000    0.0000 N   0  0  0  0  0  0  0  0  0  0  0  0
    0.3943   -1.2135    0.0000 C   0  0  0  0  0  0  0  0  0  0  0  0
   -1.0323   -0.7500    0.0000 C   0  0  0  0  0  0  0  0  0  0  0  0
   -1.0323    0.7500    0.0000 C   0  0  0  0  0  0  0  0  0  0  0  0
   -4.3764    3.7611    0.0000 C   0  0  0  0  0  0  0  0  0  0  0  0
   -5.4912    4.7648    0.0000 C   0  0  0  0  0  0  0  0  0  0  0  0
  1  2  1  0
  2  3  2  0
  3  4  1  0
  4  5  2  0
  4  6  1  0
  6  7  1  0
  7  8  2  0
  8  9  1  0
  9 10  2  0
 10 11  1  0
 10 12  1  0
 12 13  2  0
 13 14  1  0
  6 15  1  0
 15 16  2  0
 16 17  1  0
 17 18  2  0
 17 19  1  0
 19 20  1  0
 20 21  2  0
 21 22  1  0
 22 23  2  0
 23 24  1  0
 24 25  1  0
 25 26  2  0
 26 27  1  0
 27 28  2  0
 28 29  1  0
 29 30  1  0
 30 31  1  0
 31 32  2  0
 32 33  1  0
 23 34  1  0
 34 35  2  0
 16  2  1  0
 35 20  1  0
 13  7  1  0
 33 25  1  0
 33 29  2  0
M  END
>  <Compound_ID>  (63) 
CHEMBL4175376

>  <Molecule Name>  (63) 
nan

>  <Molecular Weight>  (63) 
535.33

>  <AlogP>  (63) 
4.76

>  <Smiles>  (63) 
Cc1cc(=O)n(-c2ccc(Br)cc2F)nc1C(=O)Nc1ccc(Oc2ncnc3[nH]ccc23)cc1

>  <Standard Type>  (63) 
IC50

>  <Standard Relation>  (63) 
'='

>  <Standard Units>  (63) 
nM

>  <Standard Value>  (63) 
20690.0

>  <Assay ChEMBL ID>  (63) 
CHEMBL4141525

>  <Assay Description>  (63) 
Inhibition of c-MET (unknown origin) using FAM-labeled peptide as substrate preincubated for 10 mins followed by substrate addition by mobility shift assay

>  <BAO Format ID>  (63) 
BAO_0000357

>  <BAO Label>  (63) 
single protein format

>  <Assay Organism>  (63) 
Homo sapiens

>  <Target ChEMBL ID>  (63) 
CHEMBL3717

>  <Target Name>  (63) 
Hepatocyte growth factor receptor

>  <Target Organism>  (63) 
Homo sapiens

>  <Target Type>  (63) 
SINGLE PROTEIN

>  <Document ChEMBL ID>  (63) 
CHEMBL4138148

>  <Source Description>  (63) 
Scientific Literature

>  <Document Journal>  (63) 
Eur J Med Chem

>  <Document Year>  (63) 
2017.0

>  <Active>  (63) 
0.0

$$$$

     RDKit          2D

 29 33  0  0  0  0  0  0  0  0999 V2000
   -6.2940    7.2357    0.0000 O   0  0  0  0  0  0  0  0  0  0  0  0
   -7.7206    6.7722    0.0000 C   0  0  0  0  0  0  0  0  0  0  0  0
   -8.0325    5.3050    0.0000 N   0  0  0  0  0  0  0  0  0  0  0  0
   -6.9177    4.3013    0.0000 C   0  0  0  0  0  0  0  0  0  0  0  0
   -7.2296    2.8340    0.0000 C   0  0  0  0  0  0  0  0  0  0  0  0
   -6.1149    1.8303    0.0000 C   0  0  0  0  0  0  0  0  0  0  0  0
   -4.6883    2.2939    0.0000 C   0  0  0  0  0  0  0  0  0  0  0  0
   -3.5736    1.2902    0.0000 O   0  0  0  0  0  0  0  0  0  0  0  0
   -2.1470    1.7537    0.0000 C   0  0  0  0  0  0  0  0  0  0  0  0
   -1.8351    3.2209    0.0000 C   0  0  0  0  0  0  0  0  0  0  0  0
   -0.4086    3.6844    0.0000 C   0  0  0  0  0  0  0  0  0  0  0  0
    0.7062    2.6807    0.0000 N   0  0  0  0  0  0  0  0  0  0  0  0
    0.3943    1.2135    0.0000 C   0  0  0  0  0  0  0  0  0  0  0  0
    1.2760    0.0000    0.0000 C   0  0  0  0  0  0  0  0  0  0  0  0
    0.3943   -1.2135    0.0000 C   0  0  0  0  0  0  0  0  0  0  0  0
   -1.0323   -0.7500    0.0000 S   0  0  0  0  0  0  0  0  0  0  0  0
   -1.0323    0.7500    0.0000 C   0  0  0  0  0  0  0  0  0  0  0  0
   -4.3764    3.7611    0.0000 C   0  0  0  0  0  0  0  0  0  0  0  0
   -5.4912    4.7648    0.0000 C   0  0  0  0  0  0  0  0  0  0  0  0
   -8.8353    7.7759    0.0000 N   0  0  0  0  0  0  0  0  0  0  0  0
   -8.5234    9.2431    0.0000 C   0  0  0  0  0  0  0  0  0  0  0  0
   -8.9870   10.6697    0.0000 C   0  0  0  0  0  0  0  0  0  0  0  0
   -7.5197   10.3578    0.0000 C   0  0  0  0  0  0  0  0  0  0  0  0
   -6.0932   10.8213    0.0000 C   0  0  0  0  0  0  0  0  0  0  0  0
   -4.9784    9.8176    0.0000 C   0  0  0  0  0  0  0  0  0  0  0  0
   -3.5519   10.2812    0.0000 C   0  0  0  0  0  0  0  0  0  0  0  0
   -3.2400   11.7484    0.0000 C   0  0  0  0  0  0  0  0  0  0  0  0
   -4.3547   12.7521    0.0000 C   0  0  0  0  0  0  0  0  0  0  0  0
   -5.7813   12.2886    0.0000 C   0  0  0  0  0  0  0  0  0  0  0  0
  1  2  2  0
  2  3  1  0
  3  4  1  0
  4  5  2  0
  5  6  1  0
  6  7  2  0
  7  8  1  0
  8  9  1  0
  9 10  2  0
 10 11  1  0
 11 12  2  0
 12 13  1  0
 13 14  1  0
 14 15  2  0
 15 16  1  0
 16 17  1  0
  7 18  1  0
 18 19  2  0
  2 20  1  0
 20 21  1  0
 21 22  1  0
 22 23  1  0
 23 24  1  0
 24 25  2  0
 25 26  1  0
 26 27  2  0
 27 28  1  0
 28 29  2  0
 19  4  1  0
 23 21  1  0
 29 24  1  0
 17  9  1  0
 17 13  2  0
M  END
>  <Compound_ID>  (64) 
CHEMBL1822798

>  <Molecule Name>  (64) 
nan

>  <Molecular Weight>  (64) 
401.49

>  <AlogP>  (64) 
5.77

>  <Smiles>  (64) 
O=C(Nc1ccc(Oc2ccnc3ccsc23)cc1)NC1CC1c1ccccc1

>  <Standard Type>  (64) 
IC50

>  <Standard Relation>  (64) 
'='

>  <Standard Units>  (64) 
nM

>  <Standard Value>  (64) 
10000.0

>  <Assay ChEMBL ID>  (64) 
CHEMBL1826790

>  <Assay Description>  (64) 
Inhibition of human c-MET

>  <BAO Format ID>  (64) 
BAO_0000357

>  <BAO Label>  (64) 
single protein format

>  <Assay Organism>  (64) 
Homo sapiens

>  <Target ChEMBL ID>  (64) 
CHEMBL3717

>  <Target Name>  (64) 
Hepatocyte growth factor receptor

>  <Target Organism>  (64) 
Homo sapiens

>  <Target Type>  (64) 
SINGLE PROTEIN

>  <Document ChEMBL ID>  (64) 
CHEMBL1821609

>  <Source Description>  (64) 
Scientific Literature

>  <Document Journal>  (64) 
Eur J Med Chem

>  <Document Year>  (64) 
2011.0

>  <Active>  (64) 
0.0

$$$$

     RDKit          2D

 33 36  0  0  0  0  0  0  0  0999 V2000
   -1.2556    3.6925    0.0000 C   0  0  0  0  0  0  0  0  0  0  0  0
   -1.2556    2.1925    0.0000 O   0  0  0  0  0  0  0  0  0  0  0  0
   -2.5546    1.4425    0.0000 C   0  0  0  0  0  0  0  0  0  0  0  0
   -2.5546   -0.0575    0.0000 C   0  0  0  0  0  0  0  0  0  0  0  0
   -3.8536   -0.8075    0.0000 C   0  0  0  0  0  0  0  0  0  0  0  0
   -3.8536   -2.3075    0.0000 C   0  0  0  0  0  0  0  0  0  0  0  0
   -2.6401   -3.1891    0.0000 C   0  0  0  0  0  0  0  0  0  0  0  0
   -1.2135   -2.7256    0.0000 C   0  0  0  0  0  0  0  0  0  0  0  0
   -0.0000   -3.6073    0.0000 C   0  0  0  0  0  0  0  0  0  0  0  0
    1.2135   -2.7256    0.0000 N   0  0  0  0  0  0  0  0  0  0  0  0
    2.6401   -3.1891    0.0000 C   0  0  0  0  0  0  0  0  0  0  0  0
    2.9520   -4.6564    0.0000 O   0  0  0  0  0  0  0  0  0  0  0  0
    4.3786   -5.1199    0.0000 C   0  0  0  0  0  0  0  0  0  0  0  0
    3.9150   -6.5465    0.0000 C   0  0  0  0  0  0  0  0  0  0  0  0
    4.8421   -3.6933    0.0000 C   0  0  0  0  0  0  0  0  0  0  0  0
    5.8051   -5.5834    0.0000 C   0  0  0  0  0  0  0  0  0  0  0  0
    0.7500   -1.2990    0.0000 C   0  0  0  0  0  0  0  0  0  0  0  0
    1.5000    0.0000    0.0000 C   0  0  0  0  0  0  0  0  0  0  0  0
    0.7500    1.2990    0.0000 C   0  0  0  0  0  0  0  0  0  0  0  0
   -0.7500    1.2990    0.0000 C   0  0  0  0  0  0  0  0  0  0  0  0
   -1.5000    0.0000    0.0000 C   0  0  0  0  0  0  0  0  0  0  0  0
   -0.7500   -1.2990    0.0000 C   0  0  0  0  0  0  0  0  0  0  0  0
   -3.1036   -4.6157    0.0000 C   0  0  0  0  0  0  0  0  0  0  0  0
   -4.6036   -4.6157    0.0000 N   0  0  0  0  0  0  0  0  0  0  0  0
   -5.0672   -3.1891    0.0000 C   0  0  0  0  0  0  0  0  0  0  0  0
   -6.4937   -2.7256    0.0000 O   0  0  0  0  0  0  0  0  0  0  0  0
   -5.1527   -0.0575    0.0000 C   0  0  0  0  0  0  0  0  0  0  0  0
   -5.1527    1.4425    0.0000 C   0  0  0  0  0  0  0  0  0  0  0  0
   -6.4517    2.1925    0.0000 O   0  0  0  0  0  0  0  0  0  0  0  0
   -6.4517    3.6925    0.0000 C   0  0  0  0  0  0  0  0  0  0  0  0
   -3.8536    2.1925    0.0000 C   0  0  0  0  0  0  0  0  0  0  0  0
   -3.8536    3.6925    0.0000 O   0  0  0  0  0  0  0  0  0  0  0  0
   -2.5546    4.4425    0.0000 C   0  0  0  0  0  0  0  0  0  0  0  0
  1  2  1  0
  2  3  1  0
  3  4  2  0
  4  5  1  0
  5  6  1  0
  6  7  2  0
  7  8  1  0
  8  9  2  0
  9 10  1  0
 10 11  1  0
 11 12  1  0
 12 13  1  0
 13 14  1  0
 13 15  1  0
 13 16  1  0
 10 17  1  0
 17 18  2  0
 18 19  1  0
 19 20  2  0
 20 21  1  0
 21 22  2  0
  7 23  1  0
 23 24  1  0
 24 25  1  0
 25 26  2  0
  5 27  2  0
 27 28  1  0
 28 29  1  0
 29 30  1  0
 28 31  2  0
 31 32  1  0
 32 33  1  0
 31  3  1  0
 25  6  1  0
 22  8  1  0
 22 17  1  0
M  END
>  <Compound_ID>  (65) 
CHEMBL488646

>  <Molecule Name>  (65) 
nan

>  <Molecular Weight>  (65) 
450.54

>  <AlogP>  (65) 
4.48

>  <Smiles>  (65) 
COc1cc(C2=C(c3cn(COC(C)(C)C)c4ccccc34)CNC2=O)cc(OC)c1OC

>  <Standard Type>  (65) 
IC50

>  <Standard Relation>  (65) 
'='

>  <Standard Units>  (65) 
nM

>  <Standard Value>  (65) 
29000.0

>  <Assay ChEMBL ID>  (65) 
CHEMBL957981

>  <Assay Description>  (65) 
Inhibition of human recombinant MET

>  <BAO Format ID>  (65) 
BAO_0000357

>  <BAO Label>  (65) 
single protein format

>  <Assay Organism>  (65) 
Homo sapiens

>  <Target ChEMBL ID>  (65) 
CHEMBL3717

>  <Target Name>  (65) 
Hepatocyte growth factor receptor

>  <Target Organism>  (65) 
Homo sapiens

>  <Target Type>  (65) 
SINGLE PROTEIN

>  <Document ChEMBL ID>  (65) 
CHEMBL1157465

>  <Source Description>  (65) 
Scientific Literature

>  <Document Journal>  (65) 
J Med Chem

>  <Document Year>  (65) 
2008.0

>  <Active>  (65) 
0.0

$$$$

     RDKit          2D

 33 36  0  0  0  0  0  0  0  0999 V2000
    3.7500   -1.2990    0.0000 O   0  0  0  0  0  0  0  0  0  0  0  0
    3.0000   -2.5981    0.0000 C   0  0  0  0  0  0  0  0  0  0  0  0
    1.5000   -2.5981    0.0000 O   0  0  0  0  0  0  0  0  0  0  0  0
    0.7500   -1.2990    0.0000 C   0  0  0  0  0  0  0  0  0  0  0  0
    1.5000    0.0000    0.0000 C   0  0  0  0  0  0  0  0  0  0  0  0
    0.7500    1.2990    0.0000 C   0  0  0  0  0  0  0  0  0  0  0  0
    1.5000    2.5981    0.0000 C   0  0  0  0  0  0  0  0  0  0  0  0
    3.0000    2.5981    0.0000 O   0  0  0  0  0  0  0  0  0  0  0  0
    0.7500    3.8971    0.0000 C   0  0  0  0  0  0  0  0  0  0  0  0
   -0.7500    3.8971    0.0000 C   0  0  0  0  0  0  0  0  0  0  0  0
   -1.5000    5.1962    0.0000 O   0  0  0  0  0  0  0  0  0  0  0  0
   -1.5000    2.5981    0.0000 C   0  0  0  0  0  0  0  0  0  0  0  0
   -0.7500    1.2990    0.0000 C   0  0  0  0  0  0  0  0  0  0  0  0
   -1.5000    0.0000    0.0000 O   0  0  0  0  0  0  0  0  0  0  0  0
   -0.7500   -1.2990    0.0000 C   0  0  0  0  0  0  0  0  0  0  0  0
   -1.5000   -2.5981    0.0000 C   0  0  0  0  0  0  0  0  0  0  0  0
   -3.0000   -2.5981    0.0000 C   0  0  0  0  0  0  0  0  0  0  0  0
   -3.7500   -3.8971    0.0000 C   0  0  0  0  0  0  0  0  0  0  0  0
   -5.2500   -3.8971    0.0000 O   0  0  0  0  0  0  0  0  0  0  0  0
   -3.0000   -5.1962    0.0000 C   0  0  0  0  0  0  0  0  0  0  0  0
   -3.7500   -6.4952    0.0000 O   0  0  0  0  0  0  0  0  0  0  0  0
   -1.5000   -5.1962    0.0000 C   0  0  0  0  0  0  0  0  0  0  0  0
   -0.7500   -6.4952    0.0000 O   0  0  0  0  0  0  0  0  0  0  0  0
   -0.7500   -3.8971    0.0000 C   0  0  0  0  0  0  0  0  0  0  0  0
    3.7500   -3.8971    0.0000 C   0  0  0  0  0  0  0  0  0  0  0  0
    5.2500   -3.8971    0.0000 C   0  0  0  0  0  0  0  0  0  0  0  0
    6.0000   -5.1962    0.0000 C   0  0  0  0  0  0  0  0  0  0  0  0
    7.5000   -5.1962    0.0000 O   0  0  0  0  0  0  0  0  0  0  0  0
    5.2500   -6.4952    0.0000 C   0  0  0  0  0  0  0  0  0  0  0  0
    6.0000   -7.7942    0.0000 O   0  0  0  0  0  0  0  0  0  0  0  0
    3.7500   -6.4952    0.0000 C   0  0  0  0  0  0  0  0  0  0  0  0
    3.0000   -7.7942    0.0000 O   0  0  0  0  0  0  0  0  0  0  0  0
    3.0000   -5.1962    0.0000 C   0  0  0  0  0  0  0  0  0  0  0  0
  1  2  2  0
  2  3  1  0
  4  3  1  1
  4  5  1  0
  5  6  1  0
  6  7  2  0
  7  8  1  0
  7  9  1  0
  9 10  2  0
 10 11  1  0
 10 12  1  0
 12 13  2  0
 13 14  1  0
 14 15  1  0
 15 16  1  6
 16 17  2  0
 17 18  1  0
 18 19  1  0
 18 20  2  0
 20 21  1  0
 20 22  1  0
 22 23  1  0
 22 24  2  0
  2 25  1  0
 25 26  2  0
 26 27  1  0
 27 28  1  0
 27 29  2  0
 29 30  1  0
 29 31  1  0
 31 32  1  0
 31 33  2  0
 15  4  1  0
 24 16  1  0
 33 25  1  0
 13  6  1  0
M  END
>  <Compound_ID>  (66) 
CHEMBL264938

>  <Molecule Name>  (66) 
GALLOCATECHIN GALLATE

>  <Molecular Weight>  (66) 
458.38

>  <AlogP>  (66) 
2.23

>  <Smiles>  (66) 
O=C(O[C@@H]1Cc2c(O)cc(O)cc2O[C@H]1c1cc(O)c(O)c(O)c1)c1cc(O)c(O)c(O)c1

>  <Standard Type>  (66) 
IC50

>  <Standard Relation>  (66) 
'='

>  <Standard Units>  (66) 
nM

>  <Standard Value>  (66) 
10000.0

>  <Assay ChEMBL ID>  (66) 
CHEMBL1056839

>  <Assay Description>  (66) 
Inhibition of MET kinase

>  <BAO Format ID>  (66) 
BAO_0000357

>  <BAO Label>  (66) 
single protein format

>  <Assay Organism>  (66) 
None

>  <Target ChEMBL ID>  (66) 
CHEMBL3717

>  <Target Name>  (66) 
Hepatocyte growth factor receptor

>  <Target Organism>  (66) 
Homo sapiens

>  <Target Type>  (66) 
SINGLE PROTEIN

>  <Document ChEMBL ID>  (66) 
CHEMBL1154634

>  <Source Description>  (66) 
Scientific Literature

>  <Document Journal>  (66) 
J Med Chem

>  <Document Year>  (66) 
2009.0

>  <Active>  (66) 
0.0

$$$$

     RDKit          2D

 28 31  0  0  0  0  0  0  0  0999 V2000
   -1.2556    3.6925    0.0000 C   0  0  0  0  0  0  0  0  0  0  0  0
   -1.2556    2.1925    0.0000 O   0  0  0  0  0  0  0  0  0  0  0  0
   -2.5546    1.4425    0.0000 C   0  0  0  0  0  0  0  0  0  0  0  0
   -2.5546   -0.0575    0.0000 C   0  0  0  0  0  0  0  0  0  0  0  0
   -3.8536   -0.8075    0.0000 C   0  0  0  0  0  0  0  0  0  0  0  0
   -3.8536   -2.3075    0.0000 C   0  0  0  0  0  0  0  0  0  0  0  0
   -2.6401   -3.1891    0.0000 C   0  0  0  0  0  0  0  0  0  0  0  0
   -1.2135   -2.7256    0.0000 C   0  0  0  0  0  0  0  0  0  0  0  0
   -0.0000   -3.6073    0.0000 C   0  0  0  0  0  0  0  0  0  0  0  0
    1.2135   -2.7256    0.0000 N   0  0  0  0  0  0  0  0  0  0  0  0
    0.7500   -1.2990    0.0000 C   0  0  0  0  0  0  0  0  0  0  0  0
    1.5000    0.0000    0.0000 C   0  0  0  0  0  0  0  0  0  0  0  0
    0.7500    1.2990    0.0000 C   0  0  0  0  0  0  0  0  0  0  0  0
   -0.7500    1.2990    0.0000 C   0  0  0  0  0  0  0  0  0  0  0  0
   -1.5000    0.0000    0.0000 C   0  0  0  0  0  0  0  0  0  0  0  0
   -0.7500   -1.2990    0.0000 C   0  0  0  0  0  0  0  0  0  0  0  0
   -3.1036   -4.6157    0.0000 C   0  0  0  0  0  0  0  0  0  0  0  0
   -2.2220   -5.8293    0.0000 O   0  0  0  0  0  0  0  0  0  0  0  0
   -4.6036   -4.6157    0.0000 N   0  0  0  0  0  0  0  0  0  0  0  0
   -5.0672   -3.1891    0.0000 C   0  0  0  0  0  0  0  0  0  0  0  0
   -6.4937   -2.7256    0.0000 O   0  0  0  0  0  0  0  0  0  0  0  0
   -5.1527   -0.0575    0.0000 C   0  0  0  0  0  0  0  0  0  0  0  0
   -5.1527    1.4425    0.0000 C   0  0  0  0  0  0  0  0  0  0  0  0
   -6.4517    2.1925    0.0000 O   0  0  0  0  0  0  0  0  0  0  0  0
   -6.4517    3.6925    0.0000 C   0  0  0  0  0  0  0  0  0  0  0  0
   -3.8536    2.1925    0.0000 C   0  0  0  0  0  0  0  0  0  0  0  0
   -3.8536    3.6925    0.0000 O   0  0  0  0  0  0  0  0  0  0  0  0
   -2.5546    4.4425    0.0000 C   0  0  0  0  0  0  0  0  0  0  0  0
  1  2  1  0
  2  3  1  0
  3  4  2  0
  4  5  1  0
  5  6  1  0
  6  7  2  0
  7  8  1  0
  8  9  2  0
  9 10  1  0
 10 11  1  0
 11 12  2  0
 12 13  1  0
 13 14  2  0
 14 15  1  0
 15 16  2  0
  7 17  1  0
 17 18  2  0
 17 19  1  0
 19 20  1  0
 20 21  2  0
  5 22  2  0
 22 23  1  0
 23 24  1  0
 24 25  1  0
 23 26  2  0
 26 27  1  0
 27 28  1  0
 26  3  1  0
 20  6  1  0
 16  8  1  0
 16 11  1  0
M  END
>  <Compound_ID>  (67) 
CHEMBL201511

>  <Molecule Name>  (67) 
MALEIMIDE

>  <Molecular Weight>  (67) 
378.38

>  <AlogP>  (67) 
2.76

>  <Smiles>  (67) 
COc1cc(C2=C(c3c[nH]c4ccccc34)C(=O)NC2=O)cc(OC)c1OC

>  <Standard Type>  (67) 
IC50

>  <Standard Relation>  (67) 
'='

>  <Standard Units>  (67) 
nM

>  <Standard Value>  (67) 
35000.0

>  <Assay ChEMBL ID>  (67) 
CHEMBL957981

>  <Assay Description>  (67) 
Inhibition of human recombinant MET

>  <BAO Format ID>  (67) 
BAO_0000357

>  <BAO Label>  (67) 
single protein format

>  <Assay Organism>  (67) 
Homo sapiens

>  <Target ChEMBL ID>  (67) 
CHEMBL3717

>  <Target Name>  (67) 
Hepatocyte growth factor receptor

>  <Target Organism>  (67) 
Homo sapiens

>  <Target Type>  (67) 
SINGLE PROTEIN

>  <Document ChEMBL ID>  (67) 
CHEMBL1157465

>  <Source Description>  (67) 
Scientific Literature

>  <Document Journal>  (67) 
J Med Chem

>  <Document Year>  (67) 
2008.0

>  <Active>  (67) 
0.0

$$$$

     RDKit          2D

 43 46  0  0  0  0  0  0  0  0999 V2000
    3.7500   -1.2990    0.0000 C   0  0  0  0  0  0  0  0  0  0  0  0
    3.0000    0.0000    0.0000 N   0  0  0  0  0  0  0  0  0  0  0  0
    1.5000    0.0000    0.0000 C   0  0  0  0  0  0  0  0  0  0  0  0
    0.7500   -1.2990    0.0000 N   0  0  0  0  0  0  0  0  0  0  0  0
   -0.7500   -1.2990    0.0000 C   0  0  0  0  0  0  0  0  0  0  0  0
   -1.5000    0.0000    0.0000 N   0  0  0  0  0  0  0  0  0  0  0  0
   -0.7500    1.2990    0.0000 C   0  0  0  0  0  0  0  0  0  0  0  0
   -1.5000    2.5981    0.0000 C   0  0  0  0  0  0  0  0  0  0  0  0
   -0.7500    3.8971    0.0000 C   0  0  0  0  0  0  0  0  0  0  0  0
   -1.5000    5.1962    0.0000 C   0  0  0  0  0  0  0  0  0  0  0  0
   -3.0000    5.1962    0.0000 C   0  0  0  0  0  0  0  0  0  0  0  0
   -3.7500    3.8971    0.0000 N   0  0  0  0  0  0  0  0  0  0  0  0
   -3.0000    2.5981    0.0000 C   0  0  0  0  0  0  0  0  0  0  0  0
   -3.7500    1.2990    0.0000 O   0  0  0  0  0  0  0  0  0  0  0  0
   -5.2500    1.2990    0.0000 C   0  0  0  0  0  0  0  0  0  0  0  0
   -6.0000    2.5981    0.0000 C   0  0  0  0  0  0  0  0  0  0  0  0
   -7.5000    2.5981    0.0000 C   0  0  0  0  0  0  0  0  0  0  0  0
   -8.2500    1.2990    0.0000 C   0  0  0  0  0  0  0  0  0  0  0  0
   -9.7500    1.2990    0.0000 F   0  0  0  0  0  0  0  0  0  0  0  0
   -7.5000    0.0000    0.0000 C   0  0  0  0  0  0  0  0  0  0  0  0
   -8.2500   -1.2990    0.0000 C   0  0  0  0  0  0  0  0  0  0  0  0
   -9.7500   -1.2990    0.0000 O   0  0  0  0  0  0  0  0  0  0  0  0
   -7.5000   -2.5981    0.0000 N   0  0  0  0  0  0  0  0  0  0  0  0
   -8.2500   -3.8971    0.0000 C   0  0  0  0  0  0  0  0  0  0  0  0
   -9.7500   -3.8971    0.0000 C   0  0  0  0  0  0  0  0  0  0  0  0
  -10.5000   -5.1962    0.0000 C   0  0  0  0  0  0  0  0  0  0  0  0
  -12.0000   -5.1962    0.0000 C   0  0  0  0  0  0  0  0  0  0  0  0
  -13.5000   -5.1962    0.0000 F   0  0  0  0  0  0  0  0  0  0  0  0
  -12.0000   -3.6962    0.0000 F   0  0  0  0  0  0  0  0  0  0  0  0
  -12.0000   -6.6962    0.0000 F   0  0  0  0  0  0  0  0  0  0  0  0
   -9.7500   -6.4952    0.0000 C   0  0  0  0  0  0  0  0  0  0  0  0
   -8.2500   -6.4952    0.0000 C   0  0  0  0  0  0  0  0  0  0  0  0
   -7.5000   -5.1962    0.0000 C   0  0  0  0  0  0  0  0  0  0  0  0
   -6.0000   -5.1962    0.0000 N   0  0  0  0  0  0  0  0  0  0  0  0
   -5.2500   -6.4952    0.0000 C   0  0  0  0  0  0  0  0  0  0  0  0
   -5.2500   -3.8971    0.0000 C   0  0  0  0  0  0  0  0  0  0  0  0
   -3.7500   -3.8971    0.0000 C   0  0  0  0  0  0  0  0  0  0  0  0
   -3.0000   -2.5981    0.0000 C   0  0  0  0  0  0  0  0  0  0  0  0
   -3.7500   -1.2990    0.0000 N   0  0  0  0  0  0  0  0  0  0  0  0
   -3.0000   -0.0000    0.0000 C   0  0  0  0  0  0  0  0  0  0  0  0
   -5.2500   -1.2990    0.0000 C   0  0  0  0  0  0  0  0  0  0  0  0
   -6.0000    0.0000    0.0000 C   0  0  0  0  0  0  0  0  0  0  0  0
    0.7500    1.2990    0.0000 N   0  0  0  0  0  0  0  0  0  0  0  0
  1  2  1  0
  2  3  1  0
  3  4  2  0
  4  5  1  0
  5  6  2  0
  6  7  1  0
  7  8  1  0
  8  9  2  0
  9 10  1  0
 10 11  2  0
 11 12  1  0
 12 13  2  0
 13 14  1  0
 14 15  1  0
 15 16  2  0
 16 17  1  0
 17 18  2  0
 18 19  1  0
 18 20  1  0
 20 21  1  0
 21 22  2  0
 21 23  1  0
 23 24  1  0
 24 25  2  0
 25 26  1  0
 26 27  1  0
 27 28  1  0
 27 29  1  0
 27 30  1  0
 26 31  2  0
 31 32  1  0
 32 33  2  0
 33 34  1  0
 34 35  1  0
 34 36  1  0
 36 37  1  0
 37 38  1  0
 38 39  1  0
 39 40  1  0
 39 41  1  0
 20 42  2  0
  7 43  2  0
 43  3  1  0
 13  8  1  0
 42 15  1  0
 33 24  1  0
M  END
>  <Compound_ID>  (68) 
CHEMBL373882

>  <Molecule Name>  (68) 
nan

>  <Molecular Weight>  (68) 
598.61

>  <AlogP>  (68) 
5.57

>  <Smiles>  (68) 
CNc1ncnc(-c2cccnc2Oc2ccc(F)c(C(=O)Nc3cc(C(F)(F)F)ccc3N(C)CCCN(C)C)c2)n1

>  <Standard Type>  (68) 
IC50

>  <Standard Relation>  (68) 
'='

>  <Standard Units>  (68) 
nM

>  <Standard Value>  (68) 
25000.0

>  <Assay ChEMBL ID>  (68) 
CHEMBL908502

>  <Assay Description>  (68) 
Inhibition of c-Met

>  <BAO Format ID>  (68) 
BAO_0000357

>  <BAO Label>  (68) 
single protein format

>  <Assay Organism>  (68) 
Homo sapiens

>  <Target ChEMBL ID>  (68) 
CHEMBL3717

>  <Target Name>  (68) 
Hepatocyte growth factor receptor

>  <Target Organism>  (68) 
Homo sapiens

>  <Target Type>  (68) 
SINGLE PROTEIN

>  <Document ChEMBL ID>  (68) 
CHEMBL1141380

>  <Source Description>  (68) 
Scientific Literature

>  <Document Journal>  (68) 
J Med Chem

>  <Document Year>  (68) 
2007.0

>  <Active>  (68) 
0.0

$$$$

     RDKit          2D

 35 39  0  0  0  0  0  0  0  0999 V2000
   -1.2556    3.6925    0.0000 C   0  0  0  0  0  0  0  0  0  0  0  0
   -1.2556    2.1925    0.0000 O   0  0  0  0  0  0  0  0  0  0  0  0
   -2.5546    1.4425    0.0000 C   0  0  0  0  0  0  0  0  0  0  0  0
   -2.5546   -0.0575    0.0000 C   0  0  0  0  0  0  0  0  0  0  0  0
   -3.8536   -0.8075    0.0000 C   0  0  0  0  0  0  0  0  0  0  0  0
   -3.8536   -2.3075    0.0000 C   0  0  0  0  0  0  0  0  0  0  0  0
   -2.6401   -3.1891    0.0000 C   0  0  0  0  0  0  0  0  0  0  0  0
   -1.2135   -2.7256    0.0000 C   0  0  0  0  0  0  0  0  0  0  0  0
   -0.0000   -3.6073    0.0000 C   0  0  0  0  0  0  0  0  0  0  0  0
    1.2135   -2.7256    0.0000 N   0  0  0  0  0  0  0  0  0  0  0  0
    2.6401   -3.1891    0.0000 C   0  0  0  0  0  0  0  0  0  0  0  0
    2.9520   -4.6564    0.0000 O   0  0  0  0  0  0  0  0  0  0  0  0
    4.3786   -5.1199    0.0000 C   0  0  0  0  0  0  0  0  0  0  0  0
    4.6904   -6.5871    0.0000 C   0  0  0  0  0  0  0  0  0  0  0  0
    6.1170   -7.0506    0.0000 C   0  0  0  0  0  0  0  0  0  0  0  0
    7.2317   -6.0469    0.0000 C   0  0  0  0  0  0  0  0  0  0  0  0
    6.9199   -4.5797    0.0000 C   0  0  0  0  0  0  0  0  0  0  0  0
    5.4933   -4.1162    0.0000 C   0  0  0  0  0  0  0  0  0  0  0  0
    0.7500   -1.2990    0.0000 C   0  0  0  0  0  0  0  0  0  0  0  0
    1.5000    0.0000    0.0000 C   0  0  0  0  0  0  0  0  0  0  0  0
    0.7500    1.2990    0.0000 C   0  0  0  0  0  0  0  0  0  0  0  0
   -0.7500    1.2990    0.0000 C   0  0  0  0  0  0  0  0  0  0  0  0
   -1.5000    0.0000    0.0000 C   0  0  0  0  0  0  0  0  0  0  0  0
   -0.7500   -1.2990    0.0000 C   0  0  0  0  0  0  0  0  0  0  0  0
   -3.1036   -4.6157    0.0000 C   0  0  0  0  0  0  0  0  0  0  0  0
   -4.6036   -4.6157    0.0000 N   0  0  0  0  0  0  0  0  0  0  0  0
   -5.0672   -3.1891    0.0000 C   0  0  0  0  0  0  0  0  0  0  0  0
   -6.4937   -2.7256    0.0000 O   0  0  0  0  0  0  0  0  0  0  0  0
   -5.1527   -0.0575    0.0000 C   0  0  0  0  0  0  0  0  0  0  0  0
   -5.1527    1.4425    0.0000 C   0  0  0  0  0  0  0  0  0  0  0  0
   -6.4517    2.1925    0.0000 O   0  0  0  0  0  0  0  0  0  0  0  0
   -6.4517    3.6925    0.0000 C   0  0  0  0  0  0  0  0  0  0  0  0
   -3.8536    2.1925    0.0000 C   0  0  0  0  0  0  0  0  0  0  0  0
   -3.8536    3.6925    0.0000 O   0  0  0  0  0  0  0  0  0  0  0  0
   -2.5546    4.4425    0.0000 C   0  0  0  0  0  0  0  0  0  0  0  0
  1  2  1  0
  2  3  1  0
  3  4  2  0
  4  5  1  0
  5  6  1  0
  6  7  2  0
  7  8  1  0
  8  9  2  0
  9 10  1  0
 10 11  1  0
 11 12  1  0
 12 13  1  0
 13 14  2  0
 14 15  1  0
 15 16  2  0
 16 17  1  0
 17 18  2  0
 10 19  1  0
 19 20  2  0
 20 21  1  0
 21 22  2  0
 22 23  1  0
 23 24  2  0
  7 25  1  0
 25 26  1  0
 26 27  1  0
 27 28  2  0
  5 29  2  0
 29 30  1  0
 30 31  1  0
 31 32  1  0
 30 33  2  0
 33 34  1  0
 34 35  1  0
 33  3  1  0
 27  6  1  0
 24  8  1  0
 18 13  1  0
 24 19  1  0
M  END
>  <Compound_ID>  (69) 
CHEMBL488811

>  <Molecule Name>  (69) 
nan

>  <Molecular Weight>  (69) 
470.53

>  <AlogP>  (69) 
4.74

>  <Smiles>  (69) 
COc1cc(C2=C(c3cn(COc4ccccc4)c4ccccc34)CNC2=O)cc(OC)c1OC

>  <Standard Type>  (69) 
IC50

>  <Standard Relation>  (69) 
'='

>  <Standard Units>  (69) 
nM

>  <Standard Value>  (69) 
45000.0

>  <Assay ChEMBL ID>  (69) 
CHEMBL957981

>  <Assay Description>  (69) 
Inhibition of human recombinant MET

>  <BAO Format ID>  (69) 
BAO_0000357

>  <BAO Label>  (69) 
single protein format

>  <Assay Organism>  (69) 
Homo sapiens

>  <Target ChEMBL ID>  (69) 
CHEMBL3717

>  <Target Name>  (69) 
Hepatocyte growth factor receptor

>  <Target Organism>  (69) 
Homo sapiens

>  <Target Type>  (69) 
SINGLE PROTEIN

>  <Document ChEMBL ID>  (69) 
CHEMBL1157465

>  <Source Description>  (69) 
Scientific Literature

>  <Document Journal>  (69) 
J Med Chem

>  <Document Year>  (69) 
2008.0

>  <Active>  (69) 
0.0

$$$$

     RDKit          2D

 28 31  0  0  0  0  0  0  0  0999 V2000
   -1.5000   -7.7942    0.0000 C   0  0  0  0  0  0  0  0  0  0  0  0
   -0.7500   -6.4952    0.0000 N   0  0  0  0  0  0  0  0  0  0  0  0
   -1.5000   -5.1962    0.0000 C   0  0  0  0  0  0  0  0  0  0  0  0
   -0.7500   -3.8971    0.0000 C   0  0  0  0  0  0  0  0  0  0  0  0
    0.7500   -3.8971    0.0000 C   0  0  0  0  0  0  0  0  0  0  0  0
    1.5000   -2.5981    0.0000 O   0  0  0  0  0  0  0  0  0  0  0  0
    0.7500   -1.2990    0.0000 C   0  0  0  0  0  0  0  0  0  0  0  0
    1.5000    0.0000    0.0000 C   0  0  0  0  0  0  0  0  0  0  0  0
    0.7500    1.2990    0.0000 N   0  0  0  0  0  0  0  0  0  0  0  0
   -0.7500    1.2990    0.0000 C   0  0  0  0  0  0  0  0  0  0  0  0
   -1.5000    2.5981    0.0000 C   0  0  0  0  0  0  0  0  0  0  0  0
   -3.0000    2.5981    0.0000 C   0  0  0  0  0  0  0  0  0  0  0  0
   -3.7500    3.8971    0.0000 C   0  0  0  0  0  0  0  0  0  0  0  0
   -4.5000    5.1962    0.0000 F   0  0  0  0  0  0  0  0  0  0  0  0
   -2.4510    4.6471    0.0000 F   0  0  0  0  0  0  0  0  0  0  0  0
   -5.0490    3.1471    0.0000 F   0  0  0  0  0  0  0  0  0  0  0  0
   -3.7500    1.2990    0.0000 C   0  0  0  0  0  0  0  0  0  0  0  0
   -3.0000    0.0000    0.0000 C   0  0  0  0  0  0  0  0  0  0  0  0
   -3.7500   -1.2990    0.0000 C   0  0  0  0  0  0  0  0  0  0  0  0
   -5.2500   -1.2990    0.0000 C   0  0  0  0  0  0  0  0  0  0  0  0
   -6.0000   -2.5981    0.0000 C   0  0  0  0  0  0  0  0  0  0  0  0
   -5.2500   -3.8971    0.0000 C   0  0  0  0  0  0  0  0  0  0  0  0
   -3.7500   -3.8971    0.0000 C   0  0  0  0  0  0  0  0  0  0  0  0
   -3.0000   -2.5981    0.0000 C   0  0  0  0  0  0  0  0  0  0  0  0
   -1.5000    0.0000    0.0000 C   0  0  0  0  0  0  0  0  0  0  0  0
   -0.7500   -1.2990    0.0000 N   0  0  0  0  0  0  0  0  0  0  0  0
    1.5000   -5.1962    0.0000 C   0  0  0  0  0  0  0  0  0  0  0  0
    0.7500   -6.4952    0.0000 C   0  0  0  0  0  0  0  0  0  0  0  0
  1  2  1  0
  2  3  1  0
  3  4  1  0
  4  5  1  0
  5  6  1  0
  6  7  1  0
  7  8  2  0
  8  9  1  0
  9 10  2  0
 10 11  1  0
 11 12  2  0
 12 13  1  0
 13 14  1  0
 13 15  1  0
 13 16  1  0
 12 17  1  0
 17 18  2  0
 18 19  1  0
 19 20  2  0
 20 21  1  0
 21 22  2  0
 22 23  1  0
 23 24  2  0
 18 25  1  0
 25 26  2  0
  5 27  1  0
 27 28  1  0
 28  2  1  0
 26  7  1  0
 25 10  1  0
 24 19  1  0
M  END
>  <Compound_ID>  (70) 
CHEMBL457999

>  <Molecule Name>  (70) 
nan

>  <Molecular Weight>  (70) 
387.41

>  <AlogP>  (70) 
4.79

>  <Smiles>  (70) 
CN1CCC(Oc2cnc3cc(C(F)(F)F)cc(-c4ccccc4)c3n2)CC1

>  <Standard Type>  (70) 
IC50

>  <Standard Relation>  (70) 
'='

>  <Standard Units>  (70) 
nM

>  <Standard Value>  (70) 
19600.0

>  <Assay ChEMBL ID>  (70) 
CHEMBL1029826

>  <Assay Description>  (70) 
Inhibition of human recombinant his-tagged c-Met by TR-FRET assay

>  <BAO Format ID>  (70) 
BAO_0000357

>  <BAO Label>  (70) 
single protein format

>  <Assay Organism>  (70) 
Homo sapiens

>  <Target ChEMBL ID>  (70) 
CHEMBL3717

>  <Target Name>  (70) 
Hepatocyte growth factor receptor

>  <Target Organism>  (70) 
Homo sapiens

>  <Target Type>  (70) 
SINGLE PROTEIN

>  <Document ChEMBL ID>  (70) 
CHEMBL1154528

>  <Source Description>  (70) 
Scientific Literature

>  <Document Journal>  (70) 
Bioorg Med Chem Lett

>  <Document Year>  (70) 
2009.0

>  <Active>  (70) 
0.0

$$$$

     RDKit          2D

 23 25  0  0  0  0  0  0  0  0999 V2000
   -0.0000   -5.1073    0.0000 O   0  0  0  0  0  0  0  0  0  0  0  0
   -0.0000   -3.6073    0.0000 C   0  0  0  0  0  0  0  0  0  0  0  0
    1.2135   -2.7256    0.0000 N   0  0  0  0  0  0  0  0  0  0  0  0
    0.7500   -1.2990    0.0000 C   0  0  0  0  0  0  0  0  0  0  0  0
    1.5000    0.0000    0.0000 C   0  0  0  0  0  0  0  0  0  0  0  0
    0.7500    1.2990    0.0000 C   0  0  0  0  0  0  0  0  0  0  0  0
   -0.7500    1.2990    0.0000 C   0  0  0  0  0  0  0  0  0  0  0  0
   -1.5000    0.0000    0.0000 C   0  0  0  0  0  0  0  0  0  0  0  0
   -0.7500   -1.2990    0.0000 C   0  0  0  0  0  0  0  0  0  0  0  0
   -1.2135   -2.7256    0.0000 C   0  0  0  0  0  0  0  0  0  0  0  0
   -2.6401   -3.1891    0.0000 N   0  0  0  0  0  0  0  0  0  0  0  0
   -2.9520   -4.6564    0.0000 N   0  0  0  0  0  0  0  0  0  0  0  0
   -4.3786   -5.1199    0.0000 C   0  0  0  0  0  0  0  0  0  0  0  0
   -5.4933   -4.1162    0.0000 O   0  0  0  0  0  0  0  0  0  0  0  0
   -4.6904   -6.5871    0.0000 C   0  0  0  0  0  0  0  0  0  0  0  0
   -6.1170   -7.0506    0.0000 C   0  0  0  0  0  0  0  0  0  0  0  0
   -6.4289   -8.5179    0.0000 C   0  0  0  0  0  0  0  0  0  0  0  0
   -5.3142   -9.5216    0.0000 C   0  0  0  0  0  0  0  0  0  0  0  0
   -5.6260  -10.9888    0.0000 N   0  0  0  0  0  4  0  0  0  0  0  0
   -4.5113  -11.9925    0.0000 O   0  0  0  0  0  0  0  0  0  0  0  0
   -7.0526  -11.4523    0.0000 O   0  0  0  0  0  1  0  0  0  0  0  0
   -3.8876   -9.0580    0.0000 C   0  0  0  0  0  0  0  0  0  0  0  0
   -3.5757   -7.5908    0.0000 C   0  0  0  0  0  0  0  0  0  0  0  0
  1  2  2  0
  2  3  1  0
  3  4  1  0
  4  5  2  0
  5  6  1  0
  6  7  2  0
  7  8  1  0
  8  9  2  0
  9 10  1  0
 10 11  2  0
 11 12  1  0
 12 13  1  0
 13 14  2  0
 13 15  1  0
 15 16  2  0
 16 17  1  0
 17 18  2  0
 18 19  1  0
 19 20  2  0
 19 21  1  0
 18 22  1  0
 22 23  2  0
 10  2  1  0
 23 15  1  0
  9  4  1  0
M  CHG  2  19   1  21  -1
M  END
>  <Compound_ID>  (71) 
CHEMBL1779067

>  <Molecule Name>  (71) 
nan

>  <Molecular Weight>  (71) 
310.27

>  <AlogP>  (71) 
1.68

>  <Smiles>  (71) 
O=C1Nc2ccccc2/C1=N/NC(=O)c1ccc([N+](=O)[O-])cc1

>  <Standard Type>  (71) 
IC50

>  <Standard Relation>  (71) 
'='

>  <Standard Units>  (71) 
nM

>  <Standard Value>  (71) 
28300.0

>  <Assay ChEMBL ID>  (71) 
CHEMBL1781431

>  <Assay Description>  (71) 
Inhibition of purified c-Met using poly(glu,tyr) as substrate after 60 mins by ELISA

>  <BAO Format ID>  (71) 
BAO_0000357

>  <BAO Label>  (71) 
single protein format

>  <Assay Organism>  (71) 
None

>  <Target ChEMBL ID>  (71) 
CHEMBL3717

>  <Target Name>  (71) 
Hepatocyte growth factor receptor

>  <Target Organism>  (71) 
Homo sapiens

>  <Target Type>  (71) 
SINGLE PROTEIN

>  <Document ChEMBL ID>  (71) 
CHEMBL1777704

>  <Source Description>  (71) 
Scientific Literature

>  <Document Journal>  (71) 
Bioorg Med Chem Lett

>  <Document Year>  (71) 
2011.0

>  <Active>  (71) 
0.0

$$$$

     RDKit          2D

 22 25  0  0  0  0  0  0  0  0999 V2000
    3.7500   -6.4952    0.0000 C   0  0  0  0  0  0  0  0  0  0  0  0
    3.0000   -5.1962    0.0000 N   0  0  0  0  0  0  0  0  0  0  0  0
    1.5000   -5.1962    0.0000 C   0  0  0  0  0  0  0  0  0  0  0  0
    0.7500   -3.8971    0.0000 C   0  0  0  0  0  0  0  0  0  0  0  0
    1.5000   -2.5981    0.0000 N   0  0  0  0  0  0  0  0  0  0  0  0
    0.7500   -1.2990    0.0000 C   0  0  0  0  0  0  0  0  0  0  0  0
    1.5000    0.0000    0.0000 C   0  0  0  0  0  0  0  0  0  0  0  0
    0.7500    1.2990    0.0000 N   0  0  0  0  0  0  0  0  0  0  0  0
   -0.7500    1.2990    0.0000 C   0  0  0  0  0  0  0  0  0  0  0  0
   -1.5000    2.5981    0.0000 C   0  0  0  0  0  0  0  0  0  0  0  0
   -3.0000    2.5981    0.0000 C   0  0  0  0  0  0  0  0  0  0  0  0
   -3.7500    1.2990    0.0000 C   0  0  0  0  0  0  0  0  0  0  0  0
   -3.0000    0.0000    0.0000 C   0  0  0  0  0  0  0  0  0  0  0  0
   -3.7500   -1.2990    0.0000 C   0  0  0  0  0  0  0  0  0  0  0  0
   -3.1399   -2.6694    0.0000 C   0  0  0  0  0  0  0  0  0  0  0  0
   -4.2546   -3.6731    0.0000 C   0  0  0  0  0  0  0  0  0  0  0  0
   -5.5537   -2.9231    0.0000 C   0  0  0  0  0  0  0  0  0  0  0  0
   -5.2418   -1.4558    0.0000 O   0  0  0  0  0  0  0  0  0  0  0  0
   -1.5000    0.0000    0.0000 C   0  0  0  0  0  0  0  0  0  0  0  0
   -0.7500   -1.2990    0.0000 C   0  0  0  0  0  0  0  0  0  0  0  0
    3.0000   -2.5981    0.0000 C   0  0  0  0  0  0  0  0  0  0  0  0
    3.7500   -3.8971    0.0000 C   0  0  0  0  0  0  0  0  0  0  0  0
  1  2  1  0
  2  3  1  0
  3  4  1  0
  4  5  1  0
  5  6  1  0
  6  7  2  0
  7  8  1  0
  8  9  2  0
  9 10  1  0
 10 11  2  0
 11 12  1  0
 12 13  2  0
 13 14  1  0
 14 15  2  0
 15 16  1  0
 16 17  2  0
 17 18  1  0
 13 19  1  0
 19 20  2  0
  5 21  1  0
 21 22  1  0
 22  2  1  0
 20  6  1  0
 19  9  1  0
 18 14  1  0
M  END
>  <Compound_ID>  (72) 
CHEMBL1766524

>  <Molecule Name>  (72) 
nan

>  <Molecular Weight>  (72) 
293.37

>  <AlogP>  (72) 
3.25

>  <Smiles>  (72) 
CN1CCN(c2cnc3cccc(-c4ccco4)c3c2)CC1

>  <Standard Type>  (72) 
IC50

>  <Standard Relation>  (72) 
'='

>  <Standard Units>  (72) 
nM

>  <Standard Value>  (72) 
12700.0

>  <Assay ChEMBL ID>  (72) 
CHEMBL1768668

>  <Assay Description>  (72) 
Inhibition of purified recombinant c-Met after 60 mins by ELISA

>  <BAO Format ID>  (72) 
BAO_0000357

>  <BAO Label>  (72) 
single protein format

>  <Assay Organism>  (72) 
None

>  <Target ChEMBL ID>  (72) 
CHEMBL3717

>  <Target Name>  (72) 
Hepatocyte growth factor receptor

>  <Target Organism>  (72) 
Homo sapiens

>  <Target Type>  (72) 
SINGLE PROTEIN

>  <Document ChEMBL ID>  (72) 
CHEMBL1765011

>  <Source Description>  (72) 
Scientific Literature

>  <Document Journal>  (72) 
J Med Chem

>  <Document Year>  (72) 
2011.0

>  <Active>  (72) 
0.0

$$$$

     RDKit          2D

 24 27  0  0  0  0  0  0  0  0999 V2000
    4.5000    0.0000    0.0000 N   0  0  0  0  0  0  0  0  0  0  0  0
    3.0000    0.0000    0.0000 C   0  0  0  0  0  0  0  0  0  0  0  0
    1.5000    0.0000    0.0000 C   0  0  0  0  0  0  0  0  0  0  0  0
    0.7500   -1.2990    0.0000 C   0  0  0  0  0  0  0  0  0  0  0  0
   -0.7500   -1.2990    0.0000 C   0  0  0  0  0  0  0  0  0  0  0  0
   -1.5000    0.0000    0.0000 C   0  0  0  0  0  0  0  0  0  0  0  0
   -2.9672    0.3119    0.0000 N   0  0  0  0  0  0  0  0  0  0  0  0
   -3.1240    1.8037    0.0000 C   0  0  0  0  0  0  0  0  0  0  0  0
   -4.4231    2.5537    0.0000 C   0  0  0  0  0  0  0  0  0  0  0  0
   -4.4231    4.0537    0.0000 C   0  0  0  0  0  0  0  0  0  0  0  0
   -5.7221    4.8037    0.0000 C   0  0  0  0  0  0  0  0  0  0  0  0
   -7.0211    4.0537    0.0000 N   0  0  0  0  0  0  0  0  0  0  0  0
   -7.0211    2.5537    0.0000 C   0  0  0  0  0  0  0  0  0  0  0  0
   -5.7221    1.8037    0.0000 C   0  0  0  0  0  0  0  0  0  0  0  0
   -1.7537    2.4138    0.0000 C   0  0  0  0  0  0  0  0  0  0  0  0
   -1.4418    3.8810    0.0000 C   0  0  0  0  0  0  0  0  0  0  0  0
   -0.0152    4.3445    0.0000 C   0  0  0  0  0  0  0  0  0  0  0  0
    0.2966    5.8117    0.0000 C   0  0  0  0  0  0  0  0  0  0  0  0
   -0.8181    6.8154    0.0000 C   0  0  0  0  0  0  0  0  0  0  0  0
   -0.5062    8.2826    0.0000 Cl  0  0  0  0  0  0  0  0  0  0  0  0
   -2.2447    6.3519    0.0000 C   0  0  0  0  0  0  0  0  0  0  0  0
   -2.5565    4.8847    0.0000 C   0  0  0  0  0  0  0  0  0  0  0  0
   -0.7500    1.2990    0.0000 C   0  0  0  0  0  0  0  0  0  0  0  0
    0.7500    1.2990    0.0000 N   0  0  0  0  0  0  0  0  0  0  0  0
  1  2  3  0
  2  3  1  0
  3  4  2  0
  4  5  1  0
  5  6  2  0
  6  7  1  0
  7  8  1  0
  8  9  1  0
  9 10  2  0
 10 11  1  0
 11 12  2  0
 12 13  1  0
 13 14  2  0
  8 15  2  0
 15 16  1  0
 16 17  2  0
 17 18  1  0
 18 19  2  0
 19 20  1  0
 19 21  1  0
 21 22  2  0
 15 23  1  0
 23 24  2  0
 24  3  1  0
 23  6  1  0
 14  9  1  0
 22 16  1  0
M  END
>  <Compound_ID>  (73) 
CHEMBL492912

>  <Molecule Name>  (73) 
nan

>  <Molecular Weight>  (73) 
330.78

>  <AlogP>  (73) 
4.82

>  <Smiles>  (73) 
N#Cc1ccc2[nH]c(-c3ccncc3)c(-c3ccc(Cl)cc3)c2n1

>  <Standard Type>  (73) 
IC50

>  <Standard Relation>  (73) 
'='

>  <Standard Units>  (73) 
nM

>  <Standard Value>  (73) 
10000.0

>  <Assay ChEMBL ID>  (73) 
CHEMBL1826790

>  <Assay Description>  (73) 
Inhibition of human c-MET

>  <BAO Format ID>  (73) 
BAO_0000357

>  <BAO Label>  (73) 
single protein format

>  <Assay Organism>  (73) 
Homo sapiens

>  <Target ChEMBL ID>  (73) 
CHEMBL3717

>  <Target Name>  (73) 
Hepatocyte growth factor receptor

>  <Target Organism>  (73) 
Homo sapiens

>  <Target Type>  (73) 
SINGLE PROTEIN

>  <Document ChEMBL ID>  (73) 
CHEMBL1821609

>  <Source Description>  (73) 
Scientific Literature

>  <Document Journal>  (73) 
Eur J Med Chem

>  <Document Year>  (73) 
2011.0

>  <Active>  (73) 
0.0

$$$$

     RDKit          2D

 28 32  0  0  0  0  0  0  0  0999 V2000
    0.9369   -9.5210    0.0000 C   0  0  0  0  0  0  0  0  0  0  0  0
    0.6471   -8.0492    0.0000 C   0  0  0  0  0  0  0  0  0  0  0  0
   -0.7724   -7.5644    0.0000 C   0  0  0  0  0  0  0  0  0  0  0  0
   -1.0623   -6.0927    0.0000 C   0  0  0  0  0  0  0  0  0  0  0  0
    0.0673   -5.1058    0.0000 C   0  0  0  0  0  0  0  0  0  0  0  0
    1.4868   -5.5906    0.0000 C   0  0  0  0  0  0  0  0  0  0  0  0
    2.6164   -4.6037    0.0000 Cl  0  0  0  0  0  0  0  0  0  0  0  0
    1.7767   -7.0623    0.0000 N   0  0  0  0  0  0  0  0  0  0  0  0
   -0.0000   -3.6073    0.0000 C   0  0  0  0  0  0  0  0  0  0  0  0
    1.2135   -2.7256    0.0000 N   0  0  0  0  0  0  0  0  0  0  0  0
    0.7500   -1.2990    0.0000 C   0  0  0  0  0  0  0  0  0  0  0  0
    1.5000    0.0000    0.0000 C   0  0  0  0  0  0  0  0  0  0  0  0
    0.7500    1.2990    0.0000 C   0  0  0  0  0  0  0  0  0  0  0  0
   -0.7500    1.2990    0.0000 C   0  0  0  0  0  0  0  0  0  0  0  0
   -1.5000    0.0000    0.0000 C   0  0  0  0  0  0  0  0  0  0  0  0
   -0.7500   -1.2990    0.0000 C   0  0  0  0  0  0  0  0  0  0  0  0
   -1.2135   -2.7256    0.0000 C   0  0  0  0  0  0  0  0  0  0  0  0
   -2.6595   -3.1247    0.0000 C   0  0  0  0  0  0  0  0  0  0  0  0
   -3.2490   -4.5040    0.0000 C   0  0  0  0  0  0  0  0  0  0  0  0
   -2.5382   -5.8249    0.0000 N   0  0  0  0  0  0  0  0  0  0  0  0
   -3.4199   -7.0384    0.0000 C   0  0  0  0  0  0  0  0  0  0  0  0
   -4.9117   -6.8816    0.0000 C   0  0  0  0  0  0  0  0  0  0  0  0
   -5.7933   -8.0951    0.0000 C   0  0  0  0  0  0  0  0  0  0  0  0
   -7.2851   -7.9383    0.0000 C   0  0  0  0  0  0  0  0  0  0  0  0
   -8.1668   -9.1519    0.0000 C   0  0  0  0  0  0  0  0  0  0  0  0
   -7.5567  -10.5222    0.0000 C   0  0  0  0  0  0  0  0  0  0  0  0
   -6.0649  -10.6790    0.0000 C   0  0  0  0  0  0  0  0  0  0  0  0
   -5.1832   -9.4654    0.0000 C   0  0  0  0  0  0  0  0  0  0  0  0
  1  2  1  0
  2  3  2  0
  3  4  1  0
  4  5  2  0
  5  6  1  0
  6  7  1  0
  6  8  2  0
  5  9  1  0
  9 10  1  0
 10 11  1  0
 11 12  2  0
 12 13  1  0
 13 14  2  0
 14 15  1  0
 15 16  2  0
 16 17  1  0
 17 18  1  0
 18 19  1  0
 19 20  1  0
 20 21  1  0
 21 22  1  0
 22 23  1  0
 23 24  2  0
 24 25  1  0
 25 26  2  0
 26 27  1  0
 27 28  2  0
  8  2  1  0
 17  9  2  0
 28 23  1  0
 20  4  1  0
 16 11  1  0
M  END
>  <Compound_ID>  (74) 
CHEMBL560245

>  <Molecule Name>  (74) 
nan

>  <Molecular Weight>  (74) 
387.91

>  <AlogP>  (74) 
5.80

>  <Smiles>  (74) 
Cc1cc2c(c(Cl)n1)-c1[nH]c3ccccc3c1CCN2CCc1ccccc1

>  <Standard Type>  (74) 
IC50

>  <Standard Relation>  (74) 
'='

>  <Standard Units>  (74) 
nM

>  <Standard Value>  (74) 
26100.0

>  <Assay ChEMBL ID>  (74) 
CHEMBL1036443

>  <Assay Description>  (74) 
Inhibition of recombinant MET

>  <BAO Format ID>  (74) 
BAO_0000357

>  <BAO Label>  (74) 
single protein format

>  <Assay Organism>  (74) 
None

>  <Target ChEMBL ID>  (74) 
CHEMBL3717

>  <Target Name>  (74) 
Hepatocyte growth factor receptor

>  <Target Organism>  (74) 
Homo sapiens

>  <Target Type>  (74) 
SINGLE PROTEIN

>  <Document ChEMBL ID>  (74) 
CHEMBL1151875

>  <Source Description>  (74) 
Scientific Literature

>  <Document Journal>  (74) 
Bioorg Med Chem

>  <Document Year>  (74) 
2009.0

>  <Active>  (74) 
0.0

$$$$

     RDKit          2D

 32 35  0  0  0  0  0  0  0  0999 V2000
    3.7500   -1.2990    0.0000 O   0  0  0  0  0  0  0  0  0  0  0  0
    3.0000   -2.5981    0.0000 C   0  0  0  0  0  0  0  0  0  0  0  0
    1.5000   -2.5981    0.0000 O   0  0  0  0  0  0  0  0  0  0  0  0
    0.7500   -1.2990    0.0000 C   0  0  0  0  0  0  0  0  0  0  0  0
    1.5000    0.0000    0.0000 C   0  0  0  0  0  0  0  0  0  0  0  0
    0.7500    1.2990    0.0000 C   0  0  0  0  0  0  0  0  0  0  0  0
    1.5000    2.5981    0.0000 C   0  0  0  0  0  0  0  0  0  0  0  0
    3.0000    2.5981    0.0000 O   0  0  0  0  0  0  0  0  0  0  0  0
    0.7500    3.8971    0.0000 C   0  0  0  0  0  0  0  0  0  0  0  0
   -0.7500    3.8971    0.0000 C   0  0  0  0  0  0  0  0  0  0  0  0
   -1.5000    5.1962    0.0000 O   0  0  0  0  0  0  0  0  0  0  0  0
   -1.5000    2.5981    0.0000 C   0  0  0  0  0  0  0  0  0  0  0  0
   -0.7500    1.2990    0.0000 C   0  0  0  0  0  0  0  0  0  0  0  0
   -1.5000    0.0000    0.0000 O   0  0  0  0  0  0  0  0  0  0  0  0
   -0.7500   -1.2990    0.0000 C   0  0  0  0  0  0  0  0  0  0  0  0
   -1.5000   -2.5981    0.0000 C   0  0  0  0  0  0  0  0  0  0  0  0
   -0.7500   -3.8971    0.0000 C   0  0  0  0  0  0  0  0  0  0  0  0
   -1.5000   -5.1962    0.0000 C   0  0  0  0  0  0  0  0  0  0  0  0
   -3.0000   -5.1962    0.0000 C   0  0  0  0  0  0  0  0  0  0  0  0
   -3.7500   -6.4952    0.0000 O   0  0  0  0  0  0  0  0  0  0  0  0
   -3.7500   -3.8971    0.0000 C   0  0  0  0  0  0  0  0  0  0  0  0
   -5.2500   -3.8971    0.0000 O   0  0  0  0  0  0  0  0  0  0  0  0
   -3.0000   -2.5981    0.0000 C   0  0  0  0  0  0  0  0  0  0  0  0
    3.7500   -3.8971    0.0000 C   0  0  0  0  0  0  0  0  0  0  0  0
    5.2500   -3.8971    0.0000 C   0  0  0  0  0  0  0  0  0  0  0  0
    6.0000   -5.1962    0.0000 C   0  0  0  0  0  0  0  0  0  0  0  0
    7.5000   -5.1962    0.0000 O   0  0  0  0  0  0  0  0  0  0  0  0
    5.2500   -6.4952    0.0000 C   0  0  0  0  0  0  0  0  0  0  0  0
    6.0000   -7.7942    0.0000 O   0  0  0  0  0  0  0  0  0  0  0  0
    3.7500   -6.4952    0.0000 C   0  0  0  0  0  0  0  0  0  0  0  0
    3.0000   -7.7942    0.0000 O   0  0  0  0  0  0  0  0  0  0  0  0
    3.0000   -5.1962    0.0000 C   0  0  0  0  0  0  0  0  0  0  0  0
  1  2  2  0
  2  3  1  0
  4  3  1  1
  4  5  1  0
  5  6  1  0
  6  7  2  0
  7  8  1  0
  7  9  1  0
  9 10  2  0
 10 11  1  0
 10 12  1  0
 12 13  2  0
 13 14  1  0
 14 15  1  0
 15 16  1  1
 16 17  2  0
 17 18  1  0
 18 19  2  0
 19 20  1  0
 19 21  1  0
 21 22  1  0
 21 23  2  0
  2 24  1  0
 24 25  2  0
 25 26  1  0
 26 27  1  0
 26 28  2  0
 28 29  1  0
 28 30  1  0
 30 31  1  0
 30 32  2  0
 15  4  1  0
 23 16  1  0
 32 24  1  0
 13  6  1  0
M  END
>  <Compound_ID>  (75) 
CHEMBL36327

>  <Molecule Name>  (75) 
EPICATECHIN GALLATE

>  <Molecular Weight>  (75) 
442.38

>  <AlogP>  (75) 
2.53

>  <Smiles>  (75) 
O=C(O[C@@H]1Cc2c(O)cc(O)cc2O[C@@H]1c1ccc(O)c(O)c1)c1cc(O)c(O)c(O)c1

>  <Standard Type>  (75) 
IC50

>  <Standard Relation>  (75) 
'='

>  <Standard Units>  (75) 
nM

>  <Standard Value>  (75) 
10000.0

>  <Assay ChEMBL ID>  (75) 
CHEMBL1056839

>  <Assay Description>  (75) 
Inhibition of MET kinase

>  <BAO Format ID>  (75) 
BAO_0000357

>  <BAO Label>  (75) 
single protein format

>  <Assay Organism>  (75) 
None

>  <Target ChEMBL ID>  (75) 
CHEMBL3717

>  <Target Name>  (75) 
Hepatocyte growth factor receptor

>  <Target Organism>  (75) 
Homo sapiens

>  <Target Type>  (75) 
SINGLE PROTEIN

>  <Document ChEMBL ID>  (75) 
CHEMBL1154634

>  <Source Description>  (75) 
Scientific Literature

>  <Document Journal>  (75) 
J Med Chem

>  <Document Year>  (75) 
2009.0

>  <Active>  (75) 
0.0

$$$$

     RDKit          2D

 25 27  0  0  0  0  0  0  0  0999 V2000
   -8.7911  -13.3831    0.0000 C   0  0  0  0  0  0  0  0  0  0  0  0
   -7.3645  -12.9195    0.0000 O   0  0  0  0  0  0  0  0  0  0  0  0
   -7.0526  -11.4523    0.0000 C   0  0  0  0  0  0  0  0  0  0  0  0
   -8.1673  -10.4486    0.0000 C   0  0  0  0  0  0  0  0  0  0  0  0
   -7.8555   -8.9814    0.0000 C   0  0  0  0  0  0  0  0  0  0  0  0
   -6.4289   -8.5179    0.0000 C   0  0  0  0  0  0  0  0  0  0  0  0
   -6.1170   -7.0506    0.0000 C   0  0  0  0  0  0  0  0  0  0  0  0
   -7.2317   -6.0469    0.0000 O   0  0  0  0  0  0  0  0  0  0  0  0
   -4.6904   -6.5871    0.0000 N   0  0  0  0  0  0  0  0  0  0  0  0
   -4.3786   -5.1199    0.0000 N   0  0  0  0  0  0  0  0  0  0  0  0
   -2.9520   -4.6564    0.0000 C   0  0  0  0  0  0  0  0  0  0  0  0
   -1.8373   -5.6601    0.0000 O   0  0  0  0  0  0  0  0  0  0  0  0
   -2.6401   -3.1891    0.0000 C   0  0  0  0  0  0  0  0  0  0  0  0
   -3.7548   -2.1855    0.0000 O   0  0  0  0  0  0  0  0  0  0  0  0
   -1.2135   -2.7256    0.0000 C   0  0  0  0  0  0  0  0  0  0  0  0
   -0.0000   -3.6073    0.0000 C   0  0  0  0  0  0  0  0  0  0  0  0
    1.2135   -2.7256    0.0000 N   0  0  0  0  0  0  0  0  0  0  0  0
    0.7500   -1.2990    0.0000 C   0  0  0  0  0  0  0  0  0  0  0  0
    1.5000    0.0000    0.0000 C   0  0  0  0  0  0  0  0  0  0  0  0
    0.7500    1.2990    0.0000 C   0  0  0  0  0  0  0  0  0  0  0  0
   -0.7500    1.2990    0.0000 C   0  0  0  0  0  0  0  0  0  0  0  0
   -1.5000    0.0000    0.0000 C   0  0  0  0  0  0  0  0  0  0  0  0
   -0.7500   -1.2990    0.0000 C   0  0  0  0  0  0  0  0  0  0  0  0
   -5.3142   -9.5216    0.0000 C   0  0  0  0  0  0  0  0  0  0  0  0
   -5.6260  -10.9888    0.0000 C   0  0  0  0  0  0  0  0  0  0  0  0
  1  2  1  0
  2  3  1  0
  3  4  2  0
  4  5  1  0
  5  6  2  0
  6  7  1  0
  7  8  2  0
  7  9  1  0
  9 10  1  0
 10 11  1  0
 11 12  2  0
 11 13  1  0
 13 14  2  0
 13 15  1  0
 15 16  2  0
 16 17  1  0
 17 18  1  0
 18 19  2  0
 19 20  1  0
 20 21  2  0
 21 22  1  0
 22 23  2  0
  6 24  1  0
 24 25  2  0
 25  3  1  0
 23 15  1  0
 23 18  1  0
M  END
>  <Compound_ID>  (76) 
CHEMBL1796179

>  <Molecule Name>  (76) 
nan

>  <Molecular Weight>  (76) 
337.34

>  <AlogP>  (76) 
1.82

>  <Smiles>  (76) 
COc1ccc(C(=O)NNC(=O)C(=O)c2c[nH]c3ccccc23)cc1

>  <Standard Type>  (76) 
IC50

>  <Standard Relation>  (76) 
'='

>  <Standard Units>  (76) 
nM

>  <Standard Value>  (76) 
96000.0

>  <Assay ChEMBL ID>  (76) 
CHEMBL1798372

>  <Assay Description>  (76) 
Inhibition of c-MET assessed as incorporation of p33 using [gammaP33]-ATP by microplate scintillation counting

>  <BAO Format ID>  (76) 
BAO_0000357

>  <BAO Label>  (76) 
single protein format

>  <Assay Organism>  (76) 
None

>  <Target ChEMBL ID>  (76) 
CHEMBL3717

>  <Target Name>  (76) 
Hepatocyte growth factor receptor

>  <Target Organism>  (76) 
Homo sapiens

>  <Target Type>  (76) 
SINGLE PROTEIN

>  <Document ChEMBL ID>  (76) 
CHEMBL1795330

>  <Source Description>  (76) 
Scientific Literature

>  <Document Journal>  (76) 
Eur J Med Chem

>  <Document Year>  (76) 
2011.0

>  <Active>  (76) 
0.0

$$$$

     RDKit          2D

 27 29  0  0  0  0  0  0  0  0999 V2000
   -1.8373   -5.6601    0.0000 O   0  0  0  0  0  0  0  0  0  0  0  0
   -2.9520   -4.6564    0.0000 C   0  0  0  0  0  0  0  0  0  0  0  0
   -4.3786   -5.1199    0.0000 N   0  0  0  0  0  0  0  0  0  0  0  0
   -4.6904   -6.5871    0.0000 N   0  0  0  0  0  0  0  0  0  0  0  0
   -6.1170   -7.0506    0.0000 C   0  0  0  0  0  0  0  0  0  0  0  0
   -7.2317   -6.0469    0.0000 O   0  0  0  0  0  0  0  0  0  0  0  0
   -6.4289   -8.5179    0.0000 C   0  0  0  0  0  0  0  0  0  0  0  0
   -7.8555   -8.9814    0.0000 C   0  0  0  0  0  0  0  0  0  0  0  0
   -8.1673  -10.4486    0.0000 C   0  0  0  0  0  0  0  0  0  0  0  0
   -7.0526  -11.4523    0.0000 C   0  0  0  0  0  0  0  0  0  0  0  0
   -7.3645  -12.9195    0.0000 C   0  0  0  0  0  0  0  0  0  0  0  0
   -7.6764  -14.3867    0.0000 F   0  0  0  0  0  0  0  0  0  0  0  0
   -8.8317  -12.6077    0.0000 F   0  0  0  0  0  0  0  0  0  0  0  0
   -5.8973  -13.2314    0.0000 F   0  0  0  0  0  0  0  0  0  0  0  0
   -5.6260  -10.9888    0.0000 C   0  0  0  0  0  0  0  0  0  0  0  0
   -5.3142   -9.5216    0.0000 C   0  0  0  0  0  0  0  0  0  0  0  0
   -2.6401   -3.1891    0.0000 C   0  0  0  0  0  0  0  0  0  0  0  0
   -3.7548   -2.1855    0.0000 O   0  0  0  0  0  0  0  0  0  0  0  0
   -1.2135   -2.7256    0.0000 C   0  0  0  0  0  0  0  0  0  0  0  0
   -0.0000   -3.6073    0.0000 C   0  0  0  0  0  0  0  0  0  0  0  0
    1.2135   -2.7256    0.0000 N   0  0  0  0  0  0  0  0  0  0  0  0
    0.7500   -1.2990    0.0000 C   0  0  0  0  0  0  0  0  0  0  0  0
    1.5000    0.0000    0.0000 C   0  0  0  0  0  0  0  0  0  0  0  0
    0.7500    1.2990    0.0000 C   0  0  0  0  0  0  0  0  0  0  0  0
   -0.7500    1.2990    0.0000 C   0  0  0  0  0  0  0  0  0  0  0  0
   -1.5000    0.0000    0.0000 C   0  0  0  0  0  0  0  0  0  0  0  0
   -0.7500   -1.2990    0.0000 C   0  0  0  0  0  0  0  0  0  0  0  0
  1  2  2  0
  2  3  1  0
  3  4  1  0
  4  5  1  0
  5  6  2  0
  5  7  1  0
  7  8  2  0
  8  9  1  0
  9 10  2  0
 10 11  1  0
 11 12  1  0
 11 13  1  0
 11 14  1  0
 10 15  1  0
 15 16  2  0
  2 17  1  0
 17 18  2  0
 17 19  1  0
 19 20  2  0
 20 21  1  0
 21 22  1  0
 22 23  2  0
 23 24  1  0
 24 25  2  0
 25 26  1  0
 26 27  2  0
 16  7  1  0
 27 19  1  0
 27 22  1  0
M  END
>  <Compound_ID>  (77) 
CHEMBL1796181

>  <Molecule Name>  (77) 
nan

>  <Molecular Weight>  (77) 
375.31

>  <AlogP>  (77) 
2.83

>  <Smiles>  (77) 
O=C(NNC(=O)c1ccc(C(F)(F)F)cc1)C(=O)c1c[nH]c2ccccc12

>  <Standard Type>  (77) 
IC50

>  <Standard Relation>  (77) 
'='

>  <Standard Units>  (77) 
nM

>  <Standard Value>  (77) 
49000.0

>  <Assay ChEMBL ID>  (77) 
CHEMBL1798372

>  <Assay Description>  (77) 
Inhibition of c-MET assessed as incorporation of p33 using [gammaP33]-ATP by microplate scintillation counting

>  <BAO Format ID>  (77) 
BAO_0000357

>  <BAO Label>  (77) 
single protein format

>  <Assay Organism>  (77) 
None

>  <Target ChEMBL ID>  (77) 
CHEMBL3717

>  <Target Name>  (77) 
Hepatocyte growth factor receptor

>  <Target Organism>  (77) 
Homo sapiens

>  <Target Type>  (77) 
SINGLE PROTEIN

>  <Document ChEMBL ID>  (77) 
CHEMBL1795330

>  <Source Description>  (77) 
Scientific Literature

>  <Document Journal>  (77) 
Eur J Med Chem

>  <Document Year>  (77) 
2011.0

>  <Active>  (77) 
0.0

$$$$

     RDKit          2D

 37 40  0  0  0  0  0  0  0  0999 V2000
    3.7500   -1.2990    0.0000 C   0  0  0  0  0  0  0  0  0  0  0  0
    3.0000    0.0000    0.0000 O   0  0  0  0  0  0  0  0  0  0  0  0
    1.5000    0.0000    0.0000 C   0  0  0  0  0  0  0  0  0  0  0  0
    0.7500   -1.2990    0.0000 C   0  0  0  0  0  0  0  0  0  0  0  0
   -0.7500   -1.2990    0.0000 C   0  0  0  0  0  0  0  0  0  0  0  0
   -1.5000    0.0000    0.0000 C   0  0  0  0  0  0  0  0  0  0  0  0
   -3.0000    0.0000    0.0000 C   0  0  0  0  0  0  0  0  0  0  0  0
   -3.7500    1.2990    0.0000 C   0  0  0  0  0  0  0  0  0  0  0  0
   -5.2500    1.2990    0.0000 N   0  0  0  0  0  0  0  0  0  0  0  0
   -6.0000    2.5981    0.0000 C   0  0  0  0  0  0  0  0  0  0  0  0
   -5.2500    3.8971    0.0000 N   0  0  0  0  0  0  0  0  0  0  0  0
   -6.0000    5.1962    0.0000 C   0  0  0  0  0  0  0  0  0  0  0  0
   -7.5000    5.1962    0.0000 C   0  0  0  0  0  0  0  0  0  0  0  0
   -8.2500    6.4952    0.0000 C   0  0  0  0  0  0  0  0  0  0  0  0
   -9.7500    6.4952    0.0000 O   0  0  0  0  0  0  0  0  0  0  0  0
   -7.5000    7.7942    0.0000 N   0  0  0  0  0  0  0  0  0  0  0  0
   -8.2500    9.0933    0.0000 C   0  0  0  0  0  0  0  0  0  0  0  0
   -7.5000   10.3923    0.0000 C   0  0  0  0  0  0  0  0  0  0  0  0
   -8.2500   11.6913    0.0000 C   0  0  0  0  0  0  0  0  0  0  0  0
   -7.5000   12.9904    0.0000 N   0  0  0  0  0  0  0  0  0  0  0  0
   -8.1101   14.3607    0.0000 C   0  0  0  0  0  0  0  0  0  0  0  0
   -6.9954   15.3644    0.0000 C   0  0  0  0  0  0  0  0  0  0  0  0
   -5.6963   14.6144    0.0000 C   0  0  0  0  0  0  0  0  0  0  0  0
   -6.0082   13.1472    0.0000 C   0  0  0  0  0  0  0  0  0  0  0  0
   -5.0045   12.0325    0.0000 O   0  0  0  0  0  0  0  0  0  0  0  0
   -8.2500    3.8971    0.0000 C   0  0  0  0  0  0  0  0  0  0  0  0
   -9.7500    3.8971    0.0000 N   0  0  0  0  0  0  0  0  0  0  0  0
  -10.5000    2.5981    0.0000 C   0  0  0  0  0  0  0  0  0  0  0  0
   -9.8899    1.2278    0.0000 C   0  0  0  0  0  0  0  0  0  0  0  0
  -11.0046    0.2241    0.0000 C   0  0  0  0  0  0  0  0  0  0  0  0
  -12.3037    0.9741    0.0000 C   0  0  0  0  0  0  0  0  0  0  0  0
  -11.9918    2.4413    0.0000 C   0  0  0  0  0  0  0  0  0  0  0  0
   -7.5000    2.5981    0.0000 N   0  0  0  0  0  0  0  0  0  0  0  0
   -0.7500    1.2990    0.0000 C   0  0  0  0  0  0  0  0  0  0  0  0
    0.7500    1.2990    0.0000 C   0  0  0  0  0  0  0  0  0  0  0  0
    1.5000    2.5981    0.0000 O   0  0  0  0  0  0  0  0  0  0  0  0
    0.7500    3.8971    0.0000 C   0  0  0  0  0  0  0  0  0  0  0  0
  1  2  1  0
  2  3  1  0
  3  4  2  0
  4  5  1  0
  5  6  2  0
  6  7  1  0
  7  8  1  0
  8  9  1  0
  9 10  1  0
 10 11  2  0
 11 12  1  0
 12 13  2  0
 13 14  1  0
 14 15  2  0
 14 16  1  0
 16 17  1  0
 17 18  1  0
 18 19  1  0
 19 20  1  0
 20 21  1  0
 21 22  1  0
 22 23  1  0
 23 24  1  0
 24 25  2  0
 13 26  1  0
 26 27  1  0
 27 28  1  0
 28 29  1  0
 29 30  1  0
 30 31  1  0
 31 32  1  0
 26 33  2  0
  6 34  1  0
 34 35  2  0
 35 36  1  0
 36 37  1  0
 35  3  1  0
 33 10  1  0
 24 20  1  0
 32 28  1  0
M  END
>  <Compound_ID>  (78) 
CHEMBL2312290

>  <Molecule Name>  (78) 
nan

>  <Molecular Weight>  (78) 
510.64

>  <AlogP>  (78) 
3.25

>  <Smiles>  (78) 
COc1ccc(CCNc2ncc(C(=O)NCCCN3CCCC3=O)c(NC3CCCC3)n2)cc1OC

>  <Standard Type>  (78) 
IC50

>  <Standard Relation>  (78) 
'='

>  <Standard Units>  (78) 
nM

>  <Standard Value>  (78) 
10320.0

>  <Assay ChEMBL ID>  (78) 
CHEMBL2317038

>  <Assay Description>  (78) 
Inhibition of HGFR (unknown origin)

>  <BAO Format ID>  (78) 
BAO_0000357

>  <BAO Label>  (78) 
single protein format

>  <Assay Organism>  (78) 
Homo sapiens

>  <Target ChEMBL ID>  (78) 
CHEMBL3717

>  <Target Name>  (78) 
Hepatocyte growth factor receptor

>  <Target Organism>  (78) 
Homo sapiens

>  <Target Type>  (78) 
SINGLE PROTEIN

>  <Document ChEMBL ID>  (78) 
CHEMBL2311468

>  <Source Description>  (78) 
Scientific Literature

>  <Document Journal>  (78) 
Bioorg Med Chem Lett

>  <Document Year>  (78) 
2013.0

>  <Active>  (78) 
0.0

$$$$

     RDKit          2D

 34 38  0  0  0  0  0  0  0  0999 V2000
   -3.0000   -5.1962    0.0000 O   0  0  0  0  0  0  0  0  0  0  0  0
   -3.7500   -3.8971    0.0000 C   0  0  0  0  0  0  0  0  0  0  0  0
   -3.0000   -2.5981    0.0000 N   0  0  0  0  0  0  0  0  0  0  0  0
   -1.5000   -2.5981    0.0000 C   0  0  0  0  0  0  0  0  0  0  0  0
   -0.7500   -3.8971    0.0000 C   0  0  0  0  0  0  0  0  0  0  0  0
    0.7500   -3.8971    0.0000 C   0  0  0  0  0  0  0  0  0  0  0  0
    1.5000   -2.5981    0.0000 C   0  0  0  0  0  0  0  0  0  0  0  0
    3.0000   -2.5981    0.0000 O   0  0  0  0  0  0  0  0  0  0  0  0
    3.7500   -3.8971    0.0000 C   0  0  0  0  0  0  0  0  0  0  0  0
    3.0000   -5.1962    0.0000 C   0  0  0  0  0  0  0  0  0  0  0  0
    3.7500   -6.4952    0.0000 C   0  0  0  0  0  0  0  0  0  0  0  0
    5.2500   -6.4952    0.0000 N   0  0  0  0  0  0  0  0  0  0  0  0
    6.0000   -5.1962    0.0000 C   0  0  0  0  0  0  0  0  0  0  0  0
    5.2500   -3.8971    0.0000 C   0  0  0  0  0  0  0  0  0  0  0  0
    0.7500   -1.2990    0.0000 C   0  0  0  0  0  0  0  0  0  0  0  0
    1.5000    0.0000    0.0000 C   0  0  0  0  0  0  0  0  0  0  0  0
    0.7500    1.2990    0.0000 C   0  0  0  0  0  0  0  0  0  0  0  0
   -0.7500    1.2990    0.0000 C   0  0  0  0  0  0  0  0  0  0  0  0
   -1.5000    0.0000    0.0000 C   0  0  0  0  0  0  0  0  0  0  0  0
   -0.7500   -1.2990    0.0000 C   0  0  0  0  0  0  0  0  0  0  0  0
   -5.2500   -3.8971    0.0000 C   0  0  0  0  0  0  0  0  0  0  0  0
   -6.0000   -2.5981    0.0000 C   0  0  0  0  0  0  0  0  0  0  0  0
   -7.5000   -2.5981    0.0000 C   0  0  0  0  0  0  0  0  0  0  0  0
   -8.2500   -3.8971    0.0000 C   0  0  0  0  0  0  0  0  0  0  0  0
   -7.5000   -5.1962    0.0000 N   0  0  0  0  0  0  0  0  0  0  0  0
   -8.2500   -6.4952    0.0000 C   0  0  0  0  0  0  0  0  0  0  0  0
   -9.7500   -6.4952    0.0000 C   0  0  0  0  0  0  0  0  0  0  0  0
  -10.5000   -7.7942    0.0000 C   0  0  0  0  0  0  0  0  0  0  0  0
   -9.7500   -9.0933    0.0000 C   0  0  0  0  0  0  0  0  0  0  0  0
  -10.5000  -10.3923    0.0000 F   0  0  0  0  0  0  0  0  0  0  0  0
   -8.2500   -9.0933    0.0000 C   0  0  0  0  0  0  0  0  0  0  0  0
   -7.5000   -7.7942    0.0000 C   0  0  0  0  0  0  0  0  0  0  0  0
   -6.0000   -5.1962    0.0000 C   0  0  0  0  0  0  0  0  0  0  0  0
   -5.2500   -6.4952    0.0000 O   0  0  0  0  0  0  0  0  0  0  0  0
  1  2  2  0
  2  3  1  0
  3  4  1  0
  4  5  2  0
  5  6  1  0
  6  7  2  0
  7  8  1  0
  8  9  1  0
  9 10  2  0
 10 11  1  0
 11 12  2  0
 12 13  1  0
 13 14  2  0
  7 15  1  0
 15 16  2  0
 16 17  1  0
 17 18  2  0
 18 19  1  0
 19 20  2  0
  2 21  1  0
 21 22  2  0
 22 23  1  0
 23 24  2  0
 24 25  1  0
 25 26  1  0
 26 27  2  0
 27 28  1  0
 28 29  2  0
 29 30  1  0
 29 31  1  0
 31 32  2  0
 25 33  1  0
 33 34  2  0
 20  4  1  0
 33 21  1  0
 14  9  1  0
 20 15  1  0
 32 26  1  0
M  END
>  <Compound_ID>  (79) 
CHEMBL4438939

>  <Molecule Name>  (79) 
nan

>  <Molecular Weight>  (79) 
451.46

>  <AlogP>  (79) 
5.57

>  <Smiles>  (79) 
O=C(Nc1ccc(Oc2ccncc2)c2ccccc12)c1cccn(-c2ccc(F)cc2)c1=O

>  <Standard Type>  (79) 
IC50

>  <Standard Relation>  (79) 
'='

>  <Standard Units>  (79) 
nM

>  <Standard Value>  (79) 
12000.0

>  <Assay ChEMBL ID>  (79) 
CHEMBL4344879

>  <Assay Description>  (79) 
Displacement of fluorescein labeled ATP probe from His/GST-tagged c-Met (unknown origin) incubated for 60 mins by HTRF assay

>  <BAO Format ID>  (79) 
BAO_0000357

>  <BAO Label>  (79) 
single protein format

>  <Assay Organism>  (79) 
Homo sapiens

>  <Target ChEMBL ID>  (79) 
CHEMBL3717

>  <Target Name>  (79) 
Hepatocyte growth factor receptor

>  <Target Organism>  (79) 
Homo sapiens

>  <Target Type>  (79) 
SINGLE PROTEIN

>  <Document ChEMBL ID>  (79) 
CHEMBL4342476

>  <Source Description>  (79) 
Scientific Literature

>  <Document Journal>  (79) 
ACS Med Chem Lett

>  <Document Year>  (79) 
2020.0

>  <Active>  (79) 
0.0

$$$$

     RDKit          2D

 24 26  0  0  0  0  0  0  0  0999 V2000
   -1.8373   -5.6601    0.0000 O   0  0  0  0  0  0  0  0  0  0  0  0
   -2.9520   -4.6564    0.0000 C   0  0  0  0  0  0  0  0  0  0  0  0
   -4.3786   -5.1199    0.0000 N   0  0  0  0  0  0  0  0  0  0  0  0
   -4.6904   -6.5871    0.0000 N   0  0  0  0  0  0  0  0  0  0  0  0
   -6.1170   -7.0506    0.0000 C   0  0  0  0  0  0  0  0  0  0  0  0
   -7.2317   -6.0469    0.0000 O   0  0  0  0  0  0  0  0  0  0  0  0
   -6.4289   -8.5179    0.0000 C   0  0  0  0  0  0  0  0  0  0  0  0
   -7.8555   -8.9814    0.0000 C   0  0  0  0  0  0  0  0  0  0  0  0
   -8.1673  -10.4486    0.0000 C   0  0  0  0  0  0  0  0  0  0  0  0
   -7.0526  -11.4523    0.0000 C   0  0  0  0  0  0  0  0  0  0  0  0
   -7.3645  -12.9195    0.0000 I   0  0  0  0  0  0  0  0  0  0  0  0
   -5.6260  -10.9888    0.0000 C   0  0  0  0  0  0  0  0  0  0  0  0
   -5.3142   -9.5216    0.0000 C   0  0  0  0  0  0  0  0  0  0  0  0
   -2.6401   -3.1891    0.0000 C   0  0  0  0  0  0  0  0  0  0  0  0
   -3.7548   -2.1855    0.0000 O   0  0  0  0  0  0  0  0  0  0  0  0
   -1.2135   -2.7256    0.0000 C   0  0  0  0  0  0  0  0  0  0  0  0
   -0.0000   -3.6073    0.0000 C   0  0  0  0  0  0  0  0  0  0  0  0
    1.2135   -2.7256    0.0000 N   0  0  0  0  0  0  0  0  0  0  0  0
    0.7500   -1.2990    0.0000 C   0  0  0  0  0  0  0  0  0  0  0  0
    1.5000    0.0000    0.0000 C   0  0  0  0  0  0  0  0  0  0  0  0
    0.7500    1.2990    0.0000 C   0  0  0  0  0  0  0  0  0  0  0  0
   -0.7500    1.2990    0.0000 C   0  0  0  0  0  0  0  0  0  0  0  0
   -1.5000    0.0000    0.0000 C   0  0  0  0  0  0  0  0  0  0  0  0
   -0.7500   -1.2990    0.0000 C   0  0  0  0  0  0  0  0  0  0  0  0
  1  2  2  0
  2  3  1  0
  3  4  1  0
  4  5  1  0
  5  6  2  0
  5  7  1  0
  7  8  2  0
  8  9  1  0
  9 10  2  0
 10 11  1  0
 10 12  1  0
 12 13  2  0
  2 14  1  0
 14 15  2  0
 14 16  1  0
 16 17  2  0
 17 18  1  0
 18 19  1  0
 19 20  2  0
 20 21  1  0
 21 22  2  0
 22 23  1  0
 23 24  2  0
 13  7  1  0
 24 16  1  0
 24 19  1  0
M  END
>  <Compound_ID>  (80) 
CHEMBL1796183

>  <Molecule Name>  (80) 
nan

>  <Molecular Weight>  (80) 
433.20

>  <AlogP>  (80) 
2.42

>  <Smiles>  (80) 
O=C(NNC(=O)c1ccc(I)cc1)C(=O)c1c[nH]c2ccccc12

>  <Standard Type>  (80) 
IC50

>  <Standard Relation>  (80) 
'='

>  <Standard Units>  (80) 
nM

>  <Standard Value>  (80) 
14000.0

>  <Assay ChEMBL ID>  (80) 
CHEMBL1798372

>  <Assay Description>  (80) 
Inhibition of c-MET assessed as incorporation of p33 using [gammaP33]-ATP by microplate scintillation counting

>  <BAO Format ID>  (80) 
BAO_0000357

>  <BAO Label>  (80) 
single protein format

>  <Assay Organism>  (80) 
None

>  <Target ChEMBL ID>  (80) 
CHEMBL3717

>  <Target Name>  (80) 
Hepatocyte growth factor receptor

>  <Target Organism>  (80) 
Homo sapiens

>  <Target Type>  (80) 
SINGLE PROTEIN

>  <Document ChEMBL ID>  (80) 
CHEMBL1795330

>  <Source Description>  (80) 
Scientific Literature

>  <Document Journal>  (80) 
Eur J Med Chem

>  <Document Year>  (80) 
2011.0

>  <Active>  (80) 
0.0

$$$$

     RDKit          2D

 34 38  0  0  0  0  0  0  0  0999 V2000
   -4.0819    0.6918    0.0000 C   0  0  0  0  0  0  0  0  0  0  0  0
   -2.9672   -0.3119    0.0000 N   0  0  0  0  0  0  0  0  0  0  0  0
   -3.1240   -1.8037    0.0000 C   0  0  0  0  0  0  0  0  0  0  0  0
   -1.7537   -2.4138    0.0000 C   0  0  0  0  0  0  0  0  0  0  0  0
   -1.4418   -3.8810    0.0000 C   0  0  0  0  0  0  0  0  0  0  0  0
   -2.5565   -4.8847    0.0000 C   0  0  0  0  0  0  0  0  0  0  0  0
   -4.0238   -4.5728    0.0000 O   0  0  0  0  0  0  0  0  0  0  0  0
   -4.7738   -5.8718    0.0000 C   0  0  0  0  0  0  0  0  0  0  0  0
   -6.2410   -6.1837    0.0000 C   0  0  0  0  0  0  0  0  0  0  0  0
   -6.7045   -7.6103    0.0000 C   0  0  0  0  0  0  0  0  0  0  0  0
   -5.7008   -8.7250    0.0000 C   0  0  0  0  0  0  0  0  0  0  0  0
   -4.2336   -8.4131    0.0000 C   0  0  0  0  0  0  0  0  0  0  0  0
   -3.2299   -9.5279    0.0000 O   0  0  0  0  0  0  0  0  0  0  0  0
   -3.7701   -6.9866    0.0000 C   0  0  0  0  0  0  0  0  0  0  0  0
   -2.3998   -6.3765    0.0000 C   0  0  0  0  0  0  0  0  0  0  0  0
   -1.1007   -7.1265    0.0000 O   0  0  0  0  0  0  0  0  0  0  0  0
   -0.7500   -1.2990    0.0000 C   0  0  0  0  0  0  0  0  0  0  0  0
    0.7500   -1.2990    0.0000 C   0  0  0  0  0  0  0  0  0  0  0  0
    1.5000   -2.5981    0.0000 C   0  0  0  0  0  0  0  0  0  0  0  0
    0.7500   -3.8971    0.0000 C   0  0  0  0  0  0  0  0  0  0  0  0
    1.5000   -5.1962    0.0000 C   0  0  0  0  0  0  0  0  0  0  0  0
    3.0000   -5.1962    0.0000 C   0  0  0  0  0  0  0  0  0  0  0  0
    3.7500   -6.4952    0.0000 C   0  0  0  0  0  0  0  0  0  0  0  0
    5.2500   -6.4952    0.0000 O   0  0  0  0  0  0  0  0  0  0  0  0
    3.0000   -7.7942    0.0000 N   0  0  0  0  0  0  0  0  0  0  0  0
    3.7500   -9.0933    0.0000 C   0  0  0  0  0  0  0  0  0  0  0  0
    3.0000  -10.3923    0.0000 C   0  0  0  0  0  0  0  0  0  0  0  0
    3.7500  -11.6913    0.0000 O   0  0  0  0  0  0  0  0  0  0  0  0
    3.7500   -3.8971    0.0000 C   0  0  0  0  0  0  0  0  0  0  0  0
    3.0000   -2.5981    0.0000 C   0  0  0  0  0  0  0  0  0  0  0  0
    1.5000    0.0000    0.0000 C   0  0  0  0  0  0  0  0  0  0  0  0
    0.7500    1.2990    0.0000 C   0  0  0  0  0  0  0  0  0  0  0  0
   -0.7500    1.2990    0.0000 N   0  0  0  0  0  0  0  0  0  0  0  0
   -1.5000    0.0000    0.0000 C   0  0  0  0  0  0  0  0  0  0  0  0
  1  2  1  0
  2  3  1  0
  3  4  2  0
  4  5  1  0
  5  6  2  0
  6  7  1  0
  7  8  1  0
  8  9  2  0
  9 10  1  0
 10 11  2  0
 11 12  1  0
 12 13  1  0
 12 14  2  0
 14 15  1  0
 15 16  2  0
  4 17  1  0
 17 18  2  0
 18 19  1  0
 19 20  2  0
 20 21  1  0
 21 22  2  0
 22 23  1  0
 23 24  2  0
 23 25  1  0
 25 26  1  0
 26 27  1  0
 27 28  1  0
 22 29  1  0
 29 30  2  0
 18 31  1  0
 31 32  2  0
 32 33  1  0
 33 34  2  0
 34  2  1  0
 15  6  1  0
 34 17  1  0
 14  8  1  0
 30 19  1  0
M  END
>  <Compound_ID>  (81) 
CHEMBL1092754

>  <Molecule Name>  (81) 
nan

>  <Molecular Weight>  (81) 
455.47

>  <AlogP>  (81) 
3.28

>  <Smiles>  (81) 
Cn1cc(/C=C2\Oc3cccc(O)c3C2=O)c2c(-c3ccc(C(=O)NCCO)cc3)ccnc21

>  <Standard Type>  (81) 
IC50

>  <Standard Relation>  (81) 
'='

>  <Standard Units>  (81) 
nM

>  <Standard Value>  (81) 
50000.0

>  <Assay ChEMBL ID>  (81) 
CHEMBL1110589

>  <Assay Description>  (81) 
Inhibition of cMet

>  <BAO Format ID>  (81) 
BAO_0000357

>  <BAO Label>  (81) 
single protein format

>  <Assay Organism>  (81) 
None

>  <Target ChEMBL ID>  (81) 
CHEMBL3717

>  <Target Name>  (81) 
Hepatocyte growth factor receptor

>  <Target Organism>  (81) 
Homo sapiens

>  <Target Type>  (81) 
SINGLE PROTEIN

>  <Document ChEMBL ID>  (81) 
CHEMBL1156283

>  <Source Description>  (81) 
Scientific Literature

>  <Document Journal>  (81) 
Bioorg Med Chem Lett

>  <Document Year>  (81) 
2010.0

>  <Active>  (81) 
0.0

$$$$

     RDKit          2D

 17 17  0  0  0  0  0  0  0  0999 V2000
    7.5000   -2.5981    0.0000 C   0  0  0  0  0  0  0  0  0  0  0  0
    6.0000   -2.5981    0.0000 C   0  0  0  0  0  0  0  0  0  0  0  0
    5.2500   -3.8971    0.0000 O   0  0  0  0  0  0  0  0  0  0  0  0
    5.2500   -1.2990    0.0000 C   0  0  0  0  0  0  0  0  0  0  0  0
    6.0000    0.0000    0.0000 C   0  0  0  0  0  0  0  0  0  0  0  0
    6.7500    1.2990    0.0000 N   0  0  0  0  0  0  0  0  0  0  0  0
    3.7500   -1.2990    0.0000 C   0  0  0  0  0  0  0  0  0  0  0  0
    3.0000   -2.5981    0.0000 O   0  0  0  0  0  0  0  0  0  0  0  0
    3.0000    0.0000    0.0000 N   0  0  0  0  0  0  0  0  0  0  0  0
    1.5000    0.0000    0.0000 C   0  0  0  0  0  0  0  0  0  0  0  0
    0.7500   -1.2990    0.0000 C   0  0  0  0  0  0  0  0  0  0  0  0
   -0.7500   -1.2990    0.0000 C   0  0  0  0  0  0  0  0  0  0  0  0
   -1.5000   -2.5981    0.0000 Br  0  0  0  0  0  0  0  0  0  0  0  0
   -1.5000    0.0000    0.0000 C   0  0  0  0  0  0  0  0  0  0  0  0
   -0.7500    1.2990    0.0000 C   0  0  0  0  0  0  0  0  0  0  0  0
    0.7500    1.2990    0.0000 C   0  0  0  0  0  0  0  0  0  0  0  0
    1.5000    2.5981    0.0000 Br  0  0  0  0  0  0  0  0  0  0  0  0
  1  2  1  0
  2  3  1  0
  2  4  2  0
  4  5  1  0
  5  6  3  0
  4  7  1  0
  7  8  2  0
  7  9  1  0
  9 10  1  0
 10 11  2  0
 11 12  1  0
 12 13  1  0
 12 14  2  0
 14 15  1  0
 15 16  2  0
 16 17  1  0
 16 10  1  0
M  END
>  <Compound_ID>  (82) 
CHEMBL228043

>  <Molecule Name>  (82) 
nan

>  <Molecular Weight>  (82) 
360.01

>  <AlogP>  (82) 
3.51

>  <Smiles>  (82) 
C/C(O)=C(\C#N)C(=O)Nc1cc(Br)ccc1Br

>  <Standard Type>  (82) 
IC50

>  <Standard Relation>  (82) 
'='

>  <Standard Units>  (82) 
nM

>  <Standard Value>  (82) 
215000.0

>  <Assay ChEMBL ID>  (82) 
CHEMBL920667

>  <Assay Description>  (82) 
Inhibition of Met kinase

>  <BAO Format ID>  (82) 
BAO_0000357

>  <BAO Label>  (82) 
single protein format

>  <Assay Organism>  (82) 
Homo sapiens

>  <Target ChEMBL ID>  (82) 
CHEMBL3717

>  <Target Name>  (82) 
Hepatocyte growth factor receptor

>  <Target Organism>  (82) 
Homo sapiens

>  <Target Type>  (82) 
SINGLE PROTEIN

>  <Document ChEMBL ID>  (82) 
CHEMBL1144565

>  <Source Description>  (82) 
Scientific Literature

>  <Document Journal>  (82) 
Bioorg Med Chem

>  <Document Year>  (82) 
2007.0

>  <Active>  (82) 
0.0

$$$$

     RDKit          2D

 25 28  0  0  0  0  0  0  0  0999 V2000
    7.7304    2.7729    0.0000 C   0  0  0  0  0  0  0  0  0  0  0  0
    6.7267    3.8876    0.0000 O   0  0  0  0  0  0  0  0  0  0  0  0
    5.2595    3.5757    0.0000 C   0  0  0  0  0  0  0  0  0  0  0  0
    4.7960    2.1491    0.0000 C   0  0  0  0  0  0  0  0  0  0  0  0
    3.3287    1.8373    0.0000 C   0  0  0  0  0  0  0  0  0  0  0  0
    2.3250    2.9520    0.0000 C   0  0  0  0  0  0  0  0  0  0  0  0
    0.8578    2.6401    0.0000 C   0  0  0  0  0  0  0  0  0  0  0  0
    0.3943    1.2135    0.0000 C   0  0  0  0  0  0  0  0  0  0  0  0
    1.2760    0.0000    0.0000 N   0  0  0  0  0  0  0  0  0  0  0  0
    0.3943   -1.2135    0.0000 N   0  0  0  0  0  0  0  0  0  0  0  0
   -1.0323   -0.7500    0.0000 C   0  0  0  0  0  0  0  0  0  0  0  0
   -2.4589   -1.2135    0.0000 S   0  0  0  0  0  0  0  0  0  0  0  0
   -3.3405    0.0000    0.0000 C   0  0  0  0  0  0  0  0  0  0  0  0
   -4.8405    0.0000    0.0000 C   0  0  0  0  0  0  0  0  0  0  0  0
   -5.5905    1.2990    0.0000 C   0  0  0  0  0  0  0  0  0  0  0  0
   -7.0905    1.2990    0.0000 C   0  0  0  0  0  0  0  0  0  0  0  0
   -7.8405    0.0000    0.0000 C   0  0  0  0  0  0  0  0  0  0  0  0
   -7.0905   -1.2990    0.0000 C   0  0  0  0  0  0  0  0  0  0  0  0
   -5.5905   -1.2990    0.0000 C   0  0  0  0  0  0  0  0  0  0  0  0
   -4.8405   -2.5981    0.0000 O   0  0  0  0  0  0  0  0  0  0  0  0
   -5.5905   -3.8971    0.0000 C   0  0  0  0  0  0  0  0  0  0  0  0
   -2.4589    1.2135    0.0000 N   0  0  0  0  0  0  0  0  0  0  0  0
   -1.0323    0.7500    0.0000 N   0  0  0  0  0  0  0  0  0  0  0  0
    2.7886    4.3786    0.0000 C   0  0  0  0  0  0  0  0  0  0  0  0
    4.2558    4.6904    0.0000 C   0  0  0  0  0  0  0  0  0  0  0  0
  1  2  1  0
  2  3  1  0
  3  4  2  0
  4  5  1  0
  5  6  2  0
  6  7  1  0
  7  8  1  0
  8  9  2  0
  9 10  1  0
 10 11  2  0
 11 12  1  0
 12 13  1  0
 13 14  1  0
 14 15  2  0
 15 16  1  0
 16 17  2  0
 17 18  1  0
 18 19  2  0
 19 20  1  0
 20 21  1  0
 13 22  2  0
 22 23  1  0
  6 24  1  0
 24 25  2  0
 25  3  1  0
 23  8  1  0
 23 11  1  0
 19 14  1  0
M  END
>  <Compound_ID>  (83) 
CHEMBL4161920

>  <Molecule Name>  (83) 
nan

>  <Molecular Weight>  (83) 
352.42

>  <AlogP>  (83) 
3.46

>  <Smiles>  (83) 
COc1ccc(Cc2nnc3sc(-c4ccccc4OC)nn23)cc1

>  <Standard Type>  (83) 
IC50

>  <Standard Relation>  (83) 
'='

>  <Standard Units>  (83) 
nM

>  <Standard Value>  (83) 
11190.0

>  <Assay ChEMBL ID>  (83) 
CHEMBL4143267

>  <Assay Description>  (83) 
Inhibition of human GST-tagged c-MET using KKKSPGEYVNIEFG as substrate preincubated for 20 mins followed by [gamma-33P]ATP addition and measured after 2 hrs by filter-binding assay

>  <BAO Format ID>  (83) 
BAO_0000357

>  <BAO Label>  (83) 
single protein format

>  <Assay Organism>  (83) 
Homo sapiens

>  <Target ChEMBL ID>  (83) 
CHEMBL3717

>  <Target Name>  (83) 
Hepatocyte growth factor receptor

>  <Target Organism>  (83) 
Homo sapiens

>  <Target Type>  (83) 
SINGLE PROTEIN

>  <Document ChEMBL ID>  (83) 
CHEMBL4138221

>  <Source Description>  (83) 
Scientific Literature

>  <Document Journal>  (83) 
Eur J Med Chem

>  <Document Year>  (83) 
2018.0

>  <Active>  (83) 
0.0

$$$$

     RDKit          2D

 28 32  0  0  0  0  0  0  0  0999 V2000
   -4.9117   -6.8816    0.0000 C   0  0  0  0  0  0  0  0  0  0  0  0
   -3.4199   -7.0384    0.0000 C   0  0  0  0  0  0  0  0  0  0  0  0
   -2.8098   -8.4087    0.0000 C   0  0  0  0  0  0  0  0  0  0  0  0
   -3.6915   -9.6222    0.0000 C   0  0  0  0  0  0  0  0  0  0  0  0
   -3.0814  -10.9926    0.0000 C   0  0  0  0  0  0  0  0  0  0  0  0
   -1.5896  -11.1493    0.0000 C   0  0  0  0  0  0  0  0  0  0  0  0
   -0.7079   -9.9358    0.0000 C   0  0  0  0  0  0  0  0  0  0  0  0
   -1.3180   -8.5655    0.0000 C   0  0  0  0  0  0  0  0  0  0  0  0
   -2.5382   -5.8249    0.0000 N   0  0  0  0  0  0  0  0  0  0  0  0
   -3.2490   -4.5040    0.0000 C   0  0  0  0  0  0  0  0  0  0  0  0
   -2.6595   -3.1247    0.0000 C   0  0  0  0  0  0  0  0  0  0  0  0
   -1.2135   -2.7256    0.0000 C   0  0  0  0  0  0  0  0  0  0  0  0
   -0.0000   -3.6073    0.0000 C   0  0  0  0  0  0  0  0  0  0  0  0
    1.2135   -2.7256    0.0000 N   0  0  0  0  0  0  0  0  0  0  0  0
    0.7500   -1.2990    0.0000 C   0  0  0  0  0  0  0  0  0  0  0  0
    1.5000    0.0000    0.0000 C   0  0  0  0  0  0  0  0  0  0  0  0
    0.7500    1.2990    0.0000 C   0  0  0  0  0  0  0  0  0  0  0  0
   -0.7500    1.2990    0.0000 C   0  0  0  0  0  0  0  0  0  0  0  0
   -1.5000    2.5981    0.0000 Br  0  0  0  0  0  0  0  0  0  0  0  0
   -1.5000    0.0000    0.0000 C   0  0  0  0  0  0  0  0  0  0  0  0
   -0.7500   -1.2990    0.0000 C   0  0  0  0  0  0  0  0  0  0  0  0
    0.0673   -5.1058    0.0000 C   0  0  0  0  0  0  0  0  0  0  0  0
   -1.0623   -6.0927    0.0000 C   0  0  0  0  0  0  0  0  0  0  0  0
   -0.7724   -7.5644    0.0000 C   0  0  0  0  0  0  0  0  0  0  0  0
    0.6471   -8.0492    0.0000 C   0  0  0  0  0  0  0  0  0  0  0  0
    1.7767   -7.0623    0.0000 N   0  0  0  0  0  0  0  0  0  0  0  0
    1.4868   -5.5906    0.0000 C   0  0  0  0  0  0  0  0  0  0  0  0
    2.6164   -4.6037    0.0000 Cl  0  0  0  0  0  0  0  0  0  0  0  0
  2  1  1  6
  2  3  1  0
  3  4  2  0
  4  5  1  0
  5  6  2  0
  6  7  1  0
  7  8  2  0
  2  9  1  0
  9 10  1  0
 10 11  1  0
 11 12  1  0
 12 13  2  0
 13 14  1  0
 14 15  1  0
 15 16  2  0
 16 17  1  0
 17 18  2  0
 18 19  1  0
 18 20  1  0
 20 21  2  0
 13 22  1  0
 22 23  2  0
 23 24  1  0
 24 25  2  0
 25 26  1  0
 26 27  2  0
 27 28  1  0
  8  3  1  0
 23  9  1  0
 21 12  1  0
 27 22  1  0
 21 15  1  0
M  END
>  <Compound_ID>  (84) 
CHEMBL556596

>  <Molecule Name>  (84) 
nan

>  <Molecular Weight>  (84) 
452.78

>  <AlogP>  (84) 
6.77

>  <Smiles>  (84) 
C[C@@H](c1ccccc1)N1CCc2c([nH]c3ccc(Br)cc23)-c2c1ccnc2Cl

>  <Standard Type>  (84) 
IC50

>  <Standard Relation>  (84) 
'='

>  <Standard Units>  (84) 
nM

>  <Standard Value>  (84) 
12900.0

>  <Assay ChEMBL ID>  (84) 
CHEMBL1036443

>  <Assay Description>  (84) 
Inhibition of recombinant MET

>  <BAO Format ID>  (84) 
BAO_0000357

>  <BAO Label>  (84) 
single protein format

>  <Assay Organism>  (84) 
None

>  <Target ChEMBL ID>  (84) 
CHEMBL3717

>  <Target Name>  (84) 
Hepatocyte growth factor receptor

>  <Target Organism>  (84) 
Homo sapiens

>  <Target Type>  (84) 
SINGLE PROTEIN

>  <Document ChEMBL ID>  (84) 
CHEMBL1151875

>  <Source Description>  (84) 
Scientific Literature

>  <Document Journal>  (84) 
Bioorg Med Chem

>  <Document Year>  (84) 
2009.0

>  <Active>  (84) 
0.0

$$$$

     RDKit          2D

 18 20  0  0  0  0  0  0  0  0999 V2000
   -5.0002    0.8266    0.0000 C   0  0  0  0  0  0  0  0  0  0  0  0
   -3.5736    1.2902    0.0000 C   0  0  0  0  0  0  0  0  0  0  0  0
   -2.1470    1.7537    0.0000 C   0  0  0  0  0  0  0  0  0  0  0  0
   -1.8351    3.2209    0.0000 N   0  0  0  0  0  0  0  0  0  0  0  0
   -0.4086    3.6844    0.0000 C   0  0  0  0  0  0  0  0  0  0  0  0
   -0.0967    5.1517    0.0000 N   0  0  0  0  0  0  0  0  0  0  0  0
    1.3299    5.6152    0.0000 C   0  0  0  0  0  0  0  0  0  0  0  0
    2.4446    4.6115    0.0000 C   0  0  0  0  0  0  0  0  0  0  0  0
    3.8712    5.0750    0.0000 C   0  0  0  0  0  0  0  0  0  0  0  0
    4.1831    6.5422    0.0000 C   0  0  0  0  0  0  0  0  0  0  0  0
    3.0684    7.5459    0.0000 C   0  0  0  0  0  0  0  0  0  0  0  0
    1.6418    7.0824    0.0000 C   0  0  0  0  0  0  0  0  0  0  0  0
    0.7062    2.6807    0.0000 N   0  0  0  0  0  0  0  0  0  0  0  0
    0.3943    1.2135    0.0000 C   0  0  0  0  0  0  0  0  0  0  0  0
    1.2760    0.0000    0.0000 N   0  0  0  0  0  0  0  0  0  0  0  0
    0.3943   -1.2135    0.0000 C   0  0  0  0  0  0  0  0  0  0  0  0
   -1.0323   -0.7500    0.0000 N   0  0  0  0  0  0  0  0  0  0  0  0
   -1.0323    0.7500    0.0000 C   0  0  0  0  0  0  0  0  0  0  0  0
  1  2  3  0
  2  3  1  0
  3  4  2  0
  4  5  1  0
  5  6  1  0
  6  7  1  0
  7  8  2  0
  8  9  1  0
  9 10  2  0
 10 11  1  0
 11 12  2  0
  5 13  2  0
 13 14  1  0
 14 15  1  0
 15 16  1  0
 16 17  2  0
 17 18  1  0
 18  3  1  0
 12  7  1  0
 18 14  2  0
M  END
>  <Compound_ID>  (85) 
CHEMBL4094562

>  <Molecule Name>  (85) 
nan

>  <Molecular Weight>  (85) 
235.25

>  <AlogP>  (85) 
2.08

>  <Smiles>  (85) 
C#Cc1nc(Nc2ccccc2)nc2[nH]cnc12

>  <Standard Type>  (85) 
IC50

>  <Standard Relation>  (85) 
'='

>  <Standard Units>  (85) 
nM

>  <Standard Value>  (85) 
86800.0

>  <Assay ChEMBL ID>  (85) 
CHEMBL4700185

>  <Assay Description>  (85) 
Inhibition of human MET by kinase-profiling analysis

>  <BAO Format ID>  (85) 
BAO_0000357

>  <BAO Label>  (85) 
single protein format

>  <Assay Organism>  (85) 
Homo sapiens

>  <Target ChEMBL ID>  (85) 
CHEMBL3717

>  <Target Name>  (85) 
Hepatocyte growth factor receptor

>  <Target Organism>  (85) 
Homo sapiens

>  <Target Type>  (85) 
SINGLE PROTEIN

>  <Document ChEMBL ID>  (85) 
CHEMBL4699418

>  <Source Description>  (85) 
Scientific Literature

>  <Document Journal>  (85) 
RSC Med Chem

>  <Document Year>  (85) 
2020.0

>  <Active>  (85) 
0.0

$$$$

     RDKit          2D

 34 38  0  0  0  0  0  0  0  0999 V2000
    7.0526  -11.4523    0.0000 C   0  0  0  0  0  0  0  0  0  0  0  0
    8.1673  -10.4486    0.0000 C   0  0  0  0  0  0  0  0  0  0  0  0
    9.5939  -10.9121    0.0000 O   0  0  0  0  0  0  0  0  0  0  0  0
    7.8555   -8.9814    0.0000 N   0  0  0  0  0  0  0  0  0  0  0  0
    6.4289   -8.5179    0.0000 C   0  0  0  0  0  0  0  0  0  0  0  0
    6.1170   -7.0506    0.0000 C   0  0  0  0  0  0  0  0  0  0  0  0
    7.2317   -6.0469    0.0000 C   0  0  0  0  0  0  0  0  0  0  0  0
    6.9199   -4.5797    0.0000 N   0  0  0  0  0  0  0  0  0  0  0  0
    5.4933   -4.1162    0.0000 C   0  0  0  0  0  0  0  0  0  0  0  0
    5.1814   -2.6490    0.0000 C   0  0  0  0  0  0  0  0  0  0  0  0
    3.7548   -2.1855    0.0000 C   0  0  0  0  0  0  0  0  0  0  0  0
    2.6401   -3.1891    0.0000 C   0  0  0  0  0  0  0  0  0  0  0  0
    1.2135   -2.7256    0.0000 C   0  0  0  0  0  0  0  0  0  0  0  0
   -0.0000   -3.6073    0.0000 N   0  0  0  0  0  0  0  0  0  0  0  0
   -1.2135   -2.7256    0.0000 N   0  0  0  0  0  0  0  0  0  0  0  0
   -0.7500   -1.2990    0.0000 C   0  0  0  0  0  0  0  0  0  0  0  0
    0.7500   -1.2990    0.0000 C   0  0  0  0  0  0  0  0  0  0  0  0
    1.5000    0.0000    0.0000 C   0  0  0  0  0  0  0  0  0  0  0  0
    0.7500    1.2990    0.0000 N   0  0  0  0  0  0  0  0  0  0  0  0
    1.5000    2.5981    0.0000 S   0  0  0  0  0  0  0  0  0  0  0  0
    0.2010    3.3481    0.0000 O   0  0  0  0  0  0  0  0  0  0  0  0
    2.7990    1.8481    0.0000 O   0  0  0  0  0  0  0  0  0  0  0  0
    2.2500    3.8971    0.0000 C   0  0  0  0  0  0  0  0  0  0  0  0
    3.7500    3.8971    0.0000 C   0  0  0  0  0  0  0  0  0  0  0  0
    4.5000    5.1962    0.0000 C   0  0  0  0  0  0  0  0  0  0  0  0
    3.7500    6.4952    0.0000 C   0  0  0  0  0  0  0  0  0  0  0  0
    2.2500    6.4952    0.0000 N   0  0  0  0  0  0  0  0  0  0  0  0
    1.5000    5.1962    0.0000 C   0  0  0  0  0  0  0  0  0  0  0  0
   -0.7500    1.2990    0.0000 C   0  0  0  0  0  0  0  0  0  0  0  0
   -1.5000    0.0000    0.0000 C   0  0  0  0  0  0  0  0  0  0  0  0
    2.9520   -4.6564    0.0000 C   0  0  0  0  0  0  0  0  0  0  0  0
    4.3786   -5.1199    0.0000 C   0  0  0  0  0  0  0  0  0  0  0  0
    8.6583   -6.5105    0.0000 C   0  0  0  0  0  0  0  0  0  0  0  0
    8.9702   -7.9777    0.0000 C   0  0  0  0  0  0  0  0  0  0  0  0
  1  2  1  0
  2  3  2  0
  2  4  1  0
  4  5  1  0
  5  6  1  0
  6  7  1  0
  7  8  1  0
  8  9  1  0
  9 10  2  0
 10 11  1  0
 11 12  2  0
 12 13  1  0
 13 14  2  0
 14 15  1  0
 15 16  1  0
 16 17  2  0
 17 18  1  0
 18 19  1  0
 19 20  1  0
 20 21  2  0
 20 22  2  0
 20 23  1  0
 23 24  2  0
 24 25  1  0
 25 26  2  0
 26 27  1  0
 27 28  2  0
 19 29  1  0
 29 30  1  0
 12 31  1  0
 31 32  2  0
  7 33  1  0
 33 34  1  0
 34  4  1  0
 32  9  1  0
 17 13  1  0
 28 23  1  0
 30 16  1  0
M  END
>  <Compound_ID>  (86) 
CHEMBL4166206

>  <Molecule Name>  (86) 
nan

>  <Molecular Weight>  (86) 
480.59

>  <AlogP>  (86) 
2.64

>  <Smiles>  (86) 
CC(=O)N1CCC(Nc2ccc(-c3n[nH]c4c3CN(S(=O)(=O)c3cccnc3)CC4)cc2)CC1

>  <Standard Type>  (86) 
IC50

>  <Standard Relation>  (86) 
'='

>  <Standard Units>  (86) 
nM

>  <Standard Value>  (86) 
17000.0

>  <Assay ChEMBL ID>  (86) 
CHEMBL4131862

>  <Assay Description>  (86) 
Inhibition of human GST-tagged c-MET preincubated for 20 mins followed by [33P]-ATP addition measured after 2 hrs by Hot-SpotSM kinase assay

>  <BAO Format ID>  (86) 
BAO_0000357

>  <BAO Label>  (86) 
single protein format

>  <Assay Organism>  (86) 
Homo sapiens

>  <Target ChEMBL ID>  (86) 
CHEMBL3717

>  <Target Name>  (86) 
Hepatocyte growth factor receptor

>  <Target Organism>  (86) 
Homo sapiens

>  <Target Type>  (86) 
SINGLE PROTEIN

>  <Document ChEMBL ID>  (86) 
CHEMBL4130362

>  <Source Description>  (86) 
Scientific Literature

>  <Document Journal>  (86) 
Eur J Med Chem

>  <Document Year>  (86) 
2017.0

>  <Active>  (86) 
0.0

$$$$

     RDKit          2D

 32 35  0  0  0  0  0  0  0  0999 V2000
    3.0000   -5.1962    0.0000 C   0  0  0  0  0  0  0  0  0  0  0  0
    1.5000   -5.1962    0.0000 O   0  0  0  0  0  0  0  0  0  0  0  0
    0.7500   -3.8971    0.0000 C   0  0  0  0  0  0  0  0  0  0  0  0
    1.5000   -2.5981    0.0000 C   0  0  0  0  0  0  0  0  0  0  0  0
    0.7500   -1.2990    0.0000 C   0  0  0  0  0  0  0  0  0  0  0  0
    1.5000    0.0000    0.0000 N   0  0  0  0  0  0  0  0  0  0  0  0
    0.7500    1.2990    0.0000 C   0  0  0  0  0  0  0  0  0  0  0  0
   -0.7500    1.2990    0.0000 C   0  0  0  0  0  0  0  0  0  0  0  0
   -1.5000    0.0000    0.0000 C   0  0  0  0  0  0  0  0  0  0  0  0
   -3.0000    0.0000    0.0000 O   0  0  0  0  0  0  0  0  0  0  0  0
   -3.7500    1.2990    0.0000 C   0  0  0  0  0  0  0  0  0  0  0  0
   -3.0000    2.5981    0.0000 C   0  0  0  0  0  0  0  0  0  0  0  0
   -3.7500    3.8971    0.0000 C   0  0  0  0  0  0  0  0  0  0  0  0
   -5.2500    3.8971    0.0000 C   0  0  0  0  0  0  0  0  0  0  0  0
   -6.0000    5.1962    0.0000 C   0  0  0  0  0  0  0  0  0  0  0  0
   -5.2500    6.4952    0.0000 C   0  0  0  0  0  0  0  0  0  0  0  0
   -3.7500    6.4952    0.0000 O   0  0  0  0  0  0  0  0  0  0  0  0
   -6.0000    7.7942    0.0000 N   0  0  0  0  0  0  0  0  0  0  0  0
   -5.2500    9.0933    0.0000 C   0  0  0  0  0  0  0  0  0  0  0  0
   -6.5490    9.8433    0.0000 C   0  0  0  0  0  0  0  0  0  0  0  0
   -3.9510    8.3433    0.0000 C   0  0  0  0  0  0  0  0  0  0  0  0
   -4.5000   10.3923    0.0000 C   0  0  0  0  0  0  0  0  0  0  0  0
   -7.5000    5.1962    0.0000 C   0  0  0  0  0  0  0  0  0  0  0  0
   -8.2500    3.8971    0.0000 C   0  0  0  0  0  0  0  0  0  0  0  0
   -7.5000    2.5981    0.0000 C   0  0  0  0  0  0  0  0  0  0  0  0
   -6.0000    2.5981    0.0000 C   0  0  0  0  0  0  0  0  0  0  0  0
   -5.2500    1.2990    0.0000 C   0  0  0  0  0  0  0  0  0  0  0  0
   -0.7500   -1.2990    0.0000 C   0  0  0  0  0  0  0  0  0  0  0  0
   -1.5000   -2.5981    0.0000 C   0  0  0  0  0  0  0  0  0  0  0  0
   -0.7500   -3.8971    0.0000 C   0  0  0  0  0  0  0  0  0  0  0  0
   -1.5000   -5.1962    0.0000 O   0  0  0  0  0  0  0  0  0  0  0  0
   -3.0000   -5.1962    0.0000 C   0  0  0  0  0  0  0  0  0  0  0  0
  1  2  1  0
  2  3  1  0
  3  4  2  0
  4  5  1  0
  5  6  2  0
  6  7  1  0
  7  8  2  0
  8  9  1  0
  9 10  1  0
 10 11  1  0
 11 12  2  0
 12 13  1  0
 13 14  2  0
 14 15  1  0
 15 16  1  0
 16 17  2  0
 16 18  1  0
 18 19  1  0
 19 20  1  0
 19 21  1  0
 19 22  1  0
 15 23  2  0
 23 24  1  0
 24 25  2  0
 25 26  1  0
 26 27  2  0
  9 28  2  0
 28 29  1  0
 29 30  2  0
 30 31  1  0
 31 32  1  0
 30  3  1  0
 28  5  1  0
 27 11  1  0
 26 14  1  0
M  END
>  <Compound_ID>  (87) 
CHEMBL406914

>  <Molecule Name>  (87) 
nan

>  <Molecular Weight>  (87) 
430.50

>  <AlogP>  (87) 
5.73

>  <Smiles>  (87) 
COc1cc2nccc(Oc3ccc4c(C(=O)NC(C)(C)C)cccc4c3)c2cc1OC

>  <Standard Type>  (87) 
IC50

>  <Standard Relation>  (87) 
'='

>  <Standard Units>  (87) 
nM

>  <Standard Value>  (87) 
11000.0

>  <Assay ChEMBL ID>  (87) 
CHEMBL951282

>  <Assay Description>  (87) 
Inhibition of c-Met

>  <BAO Format ID>  (87) 
BAO_0000357

>  <BAO Label>  (87) 
single protein format

>  <Assay Organism>  (87) 
None

>  <Target ChEMBL ID>  (87) 
CHEMBL3717

>  <Target Name>  (87) 
Hepatocyte growth factor receptor

>  <Target Organism>  (87) 
Homo sapiens

>  <Target Type>  (87) 
SINGLE PROTEIN

>  <Document ChEMBL ID>  (87) 
CHEMBL1144684

>  <Source Description>  (87) 
Scientific Literature

>  <Document Journal>  (87) 
J Med Chem

>  <Document Year>  (87) 
2008.0

>  <Active>  (87) 
0.0

$$$$

     RDKit          2D

 55 57  0  0  0  0  0  0  0  0999 V2000
  -10.5000   -2.5981    0.0000 C   0  0  0  0  0  0  0  0  0  0  0  0
   -9.0000   -2.5981    0.0000 C   0  0  0  0  0  0  0  0  0  0  0  0
   -8.2500   -1.2990    0.0000 O   0  0  0  0  0  0  0  0  0  0  0  0
   -8.2500   -3.8971    0.0000 O   0  0  0  0  0  0  0  0  0  0  0  0
   -6.7500   -3.8971    0.0000 C   0  0  0  0  0  0  0  0  0  0  0  0
   -6.0000   -2.5981    0.0000 C   0  0  0  0  0  0  0  0  0  0  0  0
   -4.5000   -2.5981    0.0000 C   0  0  0  0  0  0  0  0  0  0  0  0
   -3.7500   -3.8971    0.0000 C   0  0  0  0  0  0  0  0  0  0  0  0
   -2.2500   -3.8971    0.0000 C   0  0  0  0  0  0  0  0  0  0  0  0
   -1.5000   -5.1962    0.0000 O   0  0  0  0  0  0  0  0  0  0  0  0
   -1.5000   -2.5981    0.0000 C   0  0  0  0  0  0  0  0  0  0  0  0
   -0.0000   -2.5981    0.0000 C   0  0  0  0  0  0  0  0  0  0  0  0
    0.7500   -3.8971    0.0000 O   0  0  0  0  0  0  0  0  0  0  0  0
    0.7500   -1.2990    0.0000 C   0  0  0  0  0  0  0  0  0  0  0  0
    1.5000   -2.5981    0.0000 C   0  0  0  0  0  0  0  0  0  0  0  0
    3.0000   -2.5981    0.0000 C   0  0  0  0  0  0  0  0  0  0  0  0
    3.7500   -3.8971    0.0000 C   0  0  0  0  0  0  0  0  0  0  0  0
    5.2500   -3.8971    0.0000 C   0  0  0  0  0  0  0  0  0  0  0  0
    3.0000   -5.1962    0.0000 C   0  0  0  0  0  0  0  0  0  0  0  0
    1.5000    0.0000    0.0000 C   0  0  0  0  0  0  0  0  0  0  0  0
    0.7500    1.2990    0.0000 C   0  0  0  0  0  0  0  0  0  0  0  0
    1.5000    2.5981    0.0000 C   0  0  0  0  0  0  0  0  0  0  0  0
    3.0000    2.5981    0.0000 C   0  0  0  0  0  0  0  0  0  0  0  0
    3.7500    3.8971    0.0000 C   0  0  0  0  0  0  0  0  0  0  0  0
    3.0000    5.1962    0.0000 C   0  0  0  0  0  0  0  0  0  0  0  0
    5.2500    3.8971    0.0000 C   0  0  0  0  0  0  0  0  0  0  0  0
    6.0000    2.5981    0.0000 C   0  0  0  0  0  0  0  0  0  0  0  0
    7.5000    2.5981    0.0000 C   0  0  0  0  0  0  0  0  0  0  0  0
    8.2500    1.2990    0.0000 C   0  0  0  0  0  0  0  0  0  0  0  0
    9.7500    1.2990    0.0000 C   0  0  0  0  0  0  0  0  0  0  0  0
    7.5000   -0.0000    0.0000 C   0  0  0  0  0  0  0  0  0  0  0  0
   -0.7500    1.2990    0.0000 C   0  0  0  0  0  0  0  0  0  0  0  0
   -2.1595    1.8121    0.0000 C   0  0  0  0  0  0  0  0  0  0  0  0
   -0.4895    2.7762    0.0000 C   0  0  0  0  0  0  0  0  0  0  0  0
   -1.6386    3.7404    0.0000 C   0  0  0  0  0  0  0  0  0  0  0  0
   -1.3781    5.2176    0.0000 C   0  0  0  0  0  0  0  0  0  0  0  0
   -2.5272    6.1818    0.0000 C   0  0  0  0  0  0  0  0  0  0  0  0
   -2.2667    7.6590    0.0000 C   0  0  0  0  0  0  0  0  0  0  0  0
   -3.9367    5.6688    0.0000 C   0  0  0  0  0  0  0  0  0  0  0  0
   -1.5000    0.0000    0.0000 C   0  0  0  0  0  0  0  0  0  0  0  0
   -3.0000    0.0000    0.0000 C   0  0  0  0  0  0  0  0  0  0  0  0
   -3.7500    1.2990    0.0000 C   0  0  0  0  0  0  0  0  0  0  0  0
   -5.2500    1.2990    0.0000 C   0  0  0  0  0  0  0  0  0  0  0  0
   -6.0000    2.5981    0.0000 C   0  0  0  0  0  0  0  0  0  0  0  0
   -6.0000    0.0000    0.0000 C   0  0  0  0  0  0  0  0  0  0  0  0
   -2.2500   -1.2990    0.0000 C   0  0  0  0  0  0  0  0  0  0  0  0
   -3.7500   -1.2990    0.0000 O   0  0  0  0  0  0  0  0  0  0  0  0
   -0.7500   -1.2990    0.0000 C   0  0  0  0  0  0  0  0  0  0  0  0
   -1.3038   -1.8724    0.0000 O   0  0  0  0  0  0  0  0  0  0  0  0
   -4.5000   -5.1962    0.0000 C   0  0  0  0  0  0  0  0  0  0  0  0
   -6.0000   -5.1962    0.0000 C   0  0  0  0  0  0  0  0  0  0  0  0
   -6.7500   -6.4952    0.0000 O   0  0  0  0  0  0  0  0  0  0  0  0
   -6.0000   -7.7942    0.0000 C   0  0  0  0  0  0  0  0  0  0  0  0
   -6.7500   -9.0933    0.0000 C   0  0  0  0  0  0  0  0  0  0  0  0
   -4.5000   -7.7942    0.0000 O   0  0  0  0  0  0  0  0  0  0  0  0
  1  2  1  0
  2  3  2  0
  2  4  1  0
  4  5  1  0
  5  6  2  0
  6  7  1  0
  7  8  2  0
  8  9  1  0
  9 10  2  0
  9 11  1  0
 11 12  2  0
 12 13  1  0
 12 14  1  0
 14 15  1  6
 15 16  1  0
 16 17  2  0
 17 18  1  0
 17 19  1  0
 14 20  1  0
 20 21  1  0
 21 22  1  6
 22 23  1  0
 23 24  2  0
 24 25  1  0
 24 26  1  0
 26 27  1  0
 27 28  1  0
 28 29  2  0
 29 30  1  0
 29 31  1  0
 21 32  1  0
 32 33  1  6
 32 34  1  0
 34 35  1  0
 35 36  1  0
 36 37  2  0
 37 38  1  0
 37 39  1  0
 32 40  1  0
 40 41  1  6
 41 42  1  0
 42 43  2  0
 43 44  1  0
 43 45  1  0
 40 46  1  0
 46 47  2  0
 40 48  1  0
 48 49  2  0
  8 50  1  0
 50 51  2  0
 51 52  1  0
 52 53  1  0
 53 54  1  0
 53 55  2  0
 51  5  1  0
 46 11  1  0
 48 14  1  0
M  END
>  <Compound_ID>  (88) 
CHEMBL3828170

>  <Molecule Name>  (88) 
nan

>  <Molecular Weight>  (88) 
755.00

>  <AlogP>  (88) 
11.22

>  <Smiles>  (88) 
CC(=O)Oc1ccc(C(=O)C2=C(O)[C@]3(CC=C(C)C)C[C@@H](C/C=C(\C)CCC=C(C)C)[C@](C)(CCC=C(C)C)[C@](CC=C(C)C)(C2=O)C3=O)cc1OC(C)=O

>  <Standard Type>  (88) 
IC50

>  <Standard Relation>  (88) 
'='

>  <Standard Units>  (88) 
nM

>  <Standard Value>  (88) 
18900.0

>  <Assay ChEMBL ID>  (88) 
CHEMBL3830264

>  <Assay Description>  (88) 
Inhibition of c-MET (unknown origin) by caliper mobility shift assay

>  <BAO Format ID>  (88) 
BAO_0000357

>  <BAO Label>  (88) 
single protein format

>  <Assay Organism>  (88) 
Homo sapiens

>  <Target ChEMBL ID>  (88) 
CHEMBL3717

>  <Target Name>  (88) 
Hepatocyte growth factor receptor

>  <Target Organism>  (88) 
Homo sapiens

>  <Target Type>  (88) 
SINGLE PROTEIN

>  <Document ChEMBL ID>  (88) 
CHEMBL3826938

>  <Source Description>  (88) 
Scientific Literature

>  <Document Journal>  (88) 
Bioorg Med Chem

>  <Document Year>  (88) 
2016.0

>  <Active>  (88) 
0.0

$$$$

     RDKit          2D

 27 30  0  0  0  0  0  0  0  0999 V2000
    3.7500   -6.4952    0.0000 C   0  0  0  0  0  0  0  0  0  0  0  0
    3.0000   -5.1962    0.0000 N   0  0  0  0  0  0  0  0  0  0  0  0
    1.5000   -5.1962    0.0000 C   0  0  0  0  0  0  0  0  0  0  0  0
    0.7500   -3.8971    0.0000 C   0  0  0  0  0  0  0  0  0  0  0  0
    1.5000   -2.5981    0.0000 N   0  0  0  0  0  0  0  0  0  0  0  0
    0.7500   -1.2990    0.0000 C   0  0  0  0  0  0  0  0  0  0  0  0
    1.5000    0.0000    0.0000 C   0  0  0  0  0  0  0  0  0  0  0  0
    0.7500    1.2990    0.0000 N   0  0  0  0  0  0  0  0  0  0  0  0
   -0.7500    1.2990    0.0000 C   0  0  0  0  0  0  0  0  0  0  0  0
   -1.5000    2.5981    0.0000 C   0  0  0  0  0  0  0  0  0  0  0  0
   -3.0000    2.5981    0.0000 C   0  0  0  0  0  0  0  0  0  0  0  0
   -3.7500    1.2990    0.0000 C   0  0  0  0  0  0  0  0  0  0  0  0
   -3.0000    0.0000    0.0000 C   0  0  0  0  0  0  0  0  0  0  0  0
   -3.7500   -1.2990    0.0000 O   0  0  0  0  0  0  0  0  0  0  0  0
   -5.2500   -1.2990    0.0000 C   0  0  0  0  0  0  0  0  0  0  0  0
   -6.0000   -2.5981    0.0000 C   0  0  0  0  0  0  0  0  0  0  0  0
   -7.5000   -2.5981    0.0000 C   0  0  0  0  0  0  0  0  0  0  0  0
   -8.2500   -3.8971    0.0000 C   0  0  0  0  0  0  0  0  0  0  0  0
   -7.5000   -5.1962    0.0000 C   0  0  0  0  0  0  0  0  0  0  0  0
   -6.0000   -5.1962    0.0000 C   0  0  0  0  0  0  0  0  0  0  0  0
   -5.2500   -6.4952    0.0000 C   0  0  0  0  0  0  0  0  0  0  0  0
   -4.5000   -7.7942    0.0000 N   0  0  0  0  0  0  0  0  0  0  0  0
   -5.2500   -3.8971    0.0000 C   0  0  0  0  0  0  0  0  0  0  0  0
   -1.5000    0.0000    0.0000 C   0  0  0  0  0  0  0  0  0  0  0  0
   -0.7500   -1.2990    0.0000 C   0  0  0  0  0  0  0  0  0  0  0  0
    3.0000   -2.5981    0.0000 C   0  0  0  0  0  0  0  0  0  0  0  0
    3.7500   -3.8971    0.0000 C   0  0  0  0  0  0  0  0  0  0  0  0
  1  2  1  0
  2  3  1  0
  3  4  1  0
  4  5  1  0
  5  6  1  0
  6  7  2  0
  7  8  1  0
  8  9  2  0
  9 10  1  0
 10 11  2  0
 11 12  1  0
 12 13  2  0
 13 14  1  0
 14 15  1  0
 15 16  1  0
 16 17  2  0
 17 18  1  0
 18 19  2  0
 19 20  1  0
 20 21  1  0
 21 22  3  0
 20 23  2  0
 13 24  1  0
 24 25  2  0
  5 26  1  0
 26 27  1  0
 27  2  1  0
 25  6  1  0
 24  9  1  0
 23 16  1  0
M  END
>  <Compound_ID>  (89) 
CHEMBL1766509

>  <Molecule Name>  (89) 
nan

>  <Molecular Weight>  (89) 
358.44

>  <AlogP>  (89) 
3.44

>  <Smiles>  (89) 
CN1CCN(c2cnc3cccc(OCc4cccc(C#N)c4)c3c2)CC1

>  <Standard Type>  (89) 
IC50

>  <Standard Relation>  (89) 
'='

>  <Standard Units>  (89) 
nM

>  <Standard Value>  (89) 
12300.0

>  <Assay ChEMBL ID>  (89) 
CHEMBL1768668

>  <Assay Description>  (89) 
Inhibition of purified recombinant c-Met after 60 mins by ELISA

>  <BAO Format ID>  (89) 
BAO_0000357

>  <BAO Label>  (89) 
single protein format

>  <Assay Organism>  (89) 
None

>  <Target ChEMBL ID>  (89) 
CHEMBL3717

>  <Target Name>  (89) 
Hepatocyte growth factor receptor

>  <Target Organism>  (89) 
Homo sapiens

>  <Target Type>  (89) 
SINGLE PROTEIN

>  <Document ChEMBL ID>  (89) 
CHEMBL1765011

>  <Source Description>  (89) 
Scientific Literature

>  <Document Journal>  (89) 
J Med Chem

>  <Document Year>  (89) 
2011.0

>  <Active>  (89) 
0.0

$$$$

     RDKit          2D

 53 60  0  0  0  0  0  0  0  0999 V2000
    4.5000    0.0000    0.0000 N   0  0  0  0  0  0  0  0  0  0  0  0
    3.0000    0.0000    0.0000 C   0  0  0  0  0  0  0  0  0  0  0  0
    1.5000    0.0000    0.0000 C   0  0  0  0  0  0  0  0  0  0  0  0
    0.7500   -1.2990    0.0000 C   0  0  0  0  0  0  0  0  0  0  0  0
    1.5000   -2.5981    0.0000 C   0  0  0  0  0  0  0  0  0  0  0  0
    0.7500   -3.8971    0.0000 C   0  0  0  0  0  0  0  0  0  0  0  0
    1.5000   -5.1962    0.0000 C   0  0  0  0  0  0  0  0  0  0  0  0
    3.0000   -5.1962    0.0000 C   0  0  0  0  0  0  0  0  0  0  0  0
    3.7500   -3.8971    0.0000 C   0  0  0  0  0  0  0  0  0  0  0  0
    3.0000   -2.5981    0.0000 C   0  0  0  0  0  0  0  0  0  0  0  0
   -0.7500   -1.2990    0.0000 C   0  0  0  0  0  0  0  0  0  0  0  0
   -1.5000    0.0000    0.0000 C   0  0  0  0  0  0  0  0  0  0  0  0
   -3.0000    0.0000    0.0000 C   0  0  0  0  0  0  0  0  0  0  0  0
   -3.7500    1.2990    0.0000 C   0  0  0  0  0  0  0  0  0  0  0  0
   -5.2500    1.2990    0.0000 C   0  0  0  0  0  0  0  0  0  0  0  0
   -6.0000    0.0000    0.0000 C   0  0  0  0  0  0  0  0  0  0  0  0
   -5.2500   -1.2990    0.0000 C   0  0  0  0  0  0  0  0  0  0  0  0
   -3.7500   -1.2990    0.0000 C   0  0  0  0  0  0  0  0  0  0  0  0
   -0.7500    1.2990    0.0000 N   0  0  0  0  0  0  0  0  0  0  0  0
    0.7500    1.2990    0.0000 C   0  0  0  0  0  0  0  0  0  0  0  0
    1.5000    2.5981    0.0000 N   0  0  0  0  0  0  0  0  0  0  0  0
    0.7500    3.8971    0.0000 C   0  0  0  0  0  0  0  0  0  0  0  0
   -0.7418    4.0539    0.0000 S   0  0  0  0  0  0  0  0  0  0  0  0
   -1.0537    5.5211    0.0000 C   0  0  0  0  0  0  0  0  0  0  0  0
   -2.4240    6.1312    0.0000 C   0  0  0  0  0  0  0  0  0  0  0  0
   -3.7230    5.3812    0.0000 S   0  0  0  0  0  0  0  0  0  0  0  0
   -4.8377    6.3849    0.0000 C   0  0  0  0  0  0  0  0  0  0  0  0
   -6.3049    6.0731    0.0000 C   0  0  0  0  0  0  0  0  0  0  0  0
   -6.7685    4.6465    0.0000 O   0  0  0  0  0  0  0  0  0  0  0  0
   -7.3086    7.1878    0.0000 N   0  0  0  0  0  0  0  0  0  0  0  0
   -8.7759    6.8759    0.0000 C   0  0  0  0  0  0  0  0  0  0  0  0
   -9.7796    7.9906    0.0000 C   0  0  0  0  0  0  0  0  0  0  0  0
  -11.2468    7.6788    0.0000 C   0  0  0  0  0  0  0  0  0  0  0  0
  -11.7103    6.2522    0.0000 C   0  0  0  0  0  0  0  0  0  0  0  0
  -10.7066    5.1375    0.0000 C   0  0  0  0  0  0  0  0  0  0  0  0
   -9.2394    5.4493    0.0000 C   0  0  0  0  0  0  0  0  0  0  0  0
   -4.2276    7.7552    0.0000 N   0  0  0  0  0  0  0  0  0  0  0  0
   -2.7358    7.5985    0.0000 N   0  0  0  0  0  0  0  0  0  0  0  0
   -1.7321    8.7132    0.0000 C   0  0  0  0  0  0  0  0  0  0  0  0
   -0.2649    8.4013    0.0000 C   0  0  0  0  0  0  0  0  0  0  0  0
    0.7388    9.5160    0.0000 C   0  0  0  0  0  0  0  0  0  0  0  0
    0.2753   10.9426    0.0000 C   0  0  0  0  0  0  0  0  0  0  0  0
   -1.1920   11.2545    0.0000 C   0  0  0  0  0  0  0  0  0  0  0  0
   -2.1957   10.1398    0.0000 C   0  0  0  0  0  0  0  0  0  0  0  0
    0.2454    6.2711    0.0000 C   0  0  0  0  0  0  0  0  0  0  0  0
    0.4022    7.7629    0.0000 O   0  0  0  0  0  0  0  0  0  0  0  0
    1.3601    5.2674    0.0000 N   0  0  0  0  0  0  0  0  0  0  0  0
    2.8273    5.5793    0.0000 C   0  0  0  0  0  0  0  0  0  0  0  0
    3.8310    4.4646    0.0000 C   0  0  0  0  0  0  0  0  0  0  0  0
    5.2982    4.7765    0.0000 C   0  0  0  0  0  0  0  0  0  0  0  0
    5.7618    6.2030    0.0000 C   0  0  0  0  0  0  0  0  0  0  0  0
    4.7581    7.3178    0.0000 C   0  0  0  0  0  0  0  0  0  0  0  0
    3.2909    7.0059    0.0000 C   0  0  0  0  0  0  0  0  0  0  0  0
  1  2  3  0
  2  3  1  0
  3  4  2  0
  4  5  1  0
  5  6  2  0
  6  7  1  0
  7  8  2  0
  8  9  1  0
  9 10  2  0
  4 11  1  0
 11 12  2  0
 12 13  1  0
 13 14  2  0
 14 15  1  0
 15 16  2  0
 16 17  1  0
 17 18  2  0
 12 19  1  0
 19 20  2  0
 20 21  1  0
 21 22  2  0
 22 23  1  0
 23 24  1  0
 24 25  2  0
 25 26  1  0
 26 27  1  0
 27 28  1  0
 28 29  2  0
 28 30  1  0
 30 31  1  0
 31 32  2  0
 32 33  1  0
 33 34  2  0
 34 35  1  0
 35 36  2  0
 27 37  2  0
 37 38  1  0
 38 39  1  0
 39 40  2  0
 40 41  1  0
 41 42  2  0
 42 43  1  0
 43 44  2  0
 24 45  1  0
 45 46  2  0
 45 47  1  0
 47 48  1  0
 48 49  2  0
 49 50  1  0
 50 51  2  0
 51 52  1  0
 52 53  2  0
 20  3  1  0
 47 22  1  0
 53 48  1  0
 10  5  1  0
 18 13  1  0
 38 25  1  0
 44 39  1  0
 36 31  1  0
M  END
>  <Compound_ID>  (90) 
CHEMBL3408396

>  <Molecule Name>  (90) 
nan

>  <Molecular Weight>  (90) 
725.86

>  <AlogP>  (90) 
9.43

>  <Smiles>  (90) 
N#Cc1c(-c2ccccc2)cc(-c2ccccc2)nc1/N=C1\S/C(=C2\SC(C(=O)Nc3ccccc3)=NN2c2ccccc2)C(=O)N1c1ccccc1

>  <Standard Type>  (90) 
Inhibition

>  <Standard Relation>  (90) 
'='

>  <Standard Units>  (90) 
%

>  <Standard Value>  (90) 
3.0

>  <Assay ChEMBL ID>  (90) 
CHEMBL3413727

>  <Assay Description>  (90) 
Inhibition of MET (unknown origin) assessed as inhibition of peptide phosphorylation at 30 uM by based microfluidic mobility shift assay

>  <BAO Format ID>  (90) 
BAO_0000357

>  <BAO Label>  (90) 
single protein format

>  <Assay Organism>  (90) 
Homo sapiens

>  <Target ChEMBL ID>  (90) 
CHEMBL3717

>  <Target Name>  (90) 
Hepatocyte growth factor receptor

>  <Target Organism>  (90) 
Homo sapiens

>  <Target Type>  (90) 
SINGLE PROTEIN

>  <Document ChEMBL ID>  (90) 
CHEMBL3407353

>  <Source Description>  (90) 
Scientific Literature

>  <Document Journal>  (90) 
Eur J Med Chem

>  <Document Year>  (90) 
2015.0

>  <Active>  (90) 
0.0

$$$$

     RDKit          2D

 23 25  0  0  0  0  0  0  0  0999 V2000
    3.0000    0.0000    0.0000 C   0  0  0  0  0  0  0  0  0  0  0  0
    1.5000    0.0000    0.0000 C   0  0  0  0  0  0  0  0  0  0  0  0
    0.7500   -1.2990    0.0000 C   0  0  0  0  0  0  0  0  0  0  0  0
   -0.7500   -1.2990    0.0000 C   0  0  0  0  0  0  0  0  0  0  0  0
   -1.5000    0.0000    0.0000 C   0  0  0  0  0  0  0  0  0  0  0  0
   -0.7500    1.2990    0.0000 C   0  0  0  0  0  0  0  0  0  0  0  0
    0.7500    1.2990    0.0000 C   0  0  0  0  0  0  0  0  0  0  0  0
   -1.7537    2.4138    0.0000 C   0  0  0  0  0  0  0  0  0  0  0  0
   -1.4418    3.8810    0.0000 N   0  0  0  0  0  0  0  0  0  0  0  0
   -2.5565    4.8847    0.0000 N   0  0  0  0  0  0  0  0  0  0  0  0
   -2.2447    6.3519    0.0000 C   0  0  0  0  0  0  0  0  0  0  0  0
   -0.8181    6.8154    0.0000 C   0  0  0  0  0  0  0  0  0  0  0  0
   -0.5062    8.2826    0.0000 C   0  0  0  0  0  0  0  0  0  0  0  0
   -1.6209    9.2863    0.0000 C   0  0  0  0  0  0  0  0  0  0  0  0
   -1.3091   10.7536    0.0000 S   0  0  0  0  0  0  0  0  0  0  0  0
   -0.9972   12.2208    0.0000 N   0  0  0  0  0  0  0  0  0  0  0  0
    0.1581   10.4417    0.0000 O   0  0  0  0  0  0  0  0  0  0  0  0
   -2.7763   11.0654    0.0000 O   0  0  0  0  0  0  0  0  0  0  0  0
   -3.0475    8.8228    0.0000 C   0  0  0  0  0  0  0  0  0  0  0  0
   -3.3594    7.3556    0.0000 C   0  0  0  0  0  0  0  0  0  0  0  0
   -3.1240    1.8037    0.0000 C   0  0  0  0  0  0  0  0  0  0  0  0
   -4.4231    2.5537    0.0000 O   0  0  0  0  0  0  0  0  0  0  0  0
   -2.9672    0.3119    0.0000 N   0  0  0  0  0  0  0  0  0  0  0  0
  1  2  1  0
  2  3  2  0
  3  4  1  0
  4  5  2  0
  5  6  1  0
  6  7  2  0
  6  8  1  0
  8  9  2  0
  9 10  1  0
 10 11  1  0
 11 12  2  0
 12 13  1  0
 13 14  2  0
 14 15  1  0
 15 16  1  0
 15 17  2  0
 15 18  2  0
 14 19  1  0
 19 20  2  0
  8 21  1  0
 21 22  2  0
 21 23  1  0
  7  2  1  0
 20 11  1  0
 23  5  1  0
M  END
>  <Compound_ID>  (91) 
CHEMBL271843

>  <Molecule Name>  (91) 
GW275944X

>  <Molecular Weight>  (91) 
330.37

>  <AlogP>  (91) 
1.41

>  <Smiles>  (91) 
Cc1ccc2c(c1)/C(=N/Nc1ccc(S(N)(=O)=O)cc1)C(=O)N2

>  <Standard Type>  (91) 
Inhibition

>  <Standard Relation>  (91) 
'='

>  <Standard Units>  (91) 
%

>  <Standard Value>  (91) 
1.07

>  <Assay ChEMBL ID>  (91) 
CHEMBL1962142

>  <Assay Description>  (91) 
GSK_PKIS: MET mean inhibition at 0.1 uM [Nanosyn]

>  <BAO Format ID>  (91) 
BAO_0000357

>  <BAO Label>  (91) 
single protein format

>  <Assay Organism>  (91) 
None

>  <Target ChEMBL ID>  (91) 
CHEMBL3717

>  <Target Name>  (91) 
Hepatocyte growth factor receptor

>  <Target Organism>  (91) 
Homo sapiens

>  <Target Type>  (91) 
SINGLE PROTEIN

>  <Document ChEMBL ID>  (91) 
CHEMBL1961873

>  <Source Description>  (91) 
GSK Published Kinase Inhibitor Set

>  <Document Journal>  (91) 
nan

>  <Document Year>  (91) 
nan

>  <Active>  (91) 
0.0

$$$$

     RDKit          2D

 22 24  0  0  0  0  0  0  0  0999 V2000
    3.7500   -1.2990    0.0000 C   0  0  0  0  0  0  0  0  0  0  0  0
    3.0000    0.0000    0.0000 O   0  0  0  0  0  0  0  0  0  0  0  0
    1.5000    0.0000    0.0000 C   0  0  0  0  0  0  0  0  0  0  0  0
    0.7500   -1.2990    0.0000 C   0  0  0  0  0  0  0  0  0  0  0  0
   -0.7500   -1.2990    0.0000 C   0  0  0  0  0  0  0  0  0  0  0  0
   -1.5000   -2.5981    0.0000 N   0  0  0  0  0  0  0  0  0  0  0  0
   -3.0000   -2.5981    0.0000 C   0  0  0  0  0  0  0  0  0  0  0  0
   -3.8817   -3.8116    0.0000 N   0  0  0  0  0  0  0  0  0  0  0  0
   -5.3083   -3.3481    0.0000 C   0  0  0  0  0  0  0  0  0  0  0  0
   -5.3083   -1.8481    0.0000 C   0  0  0  0  0  0  0  0  0  0  0  0
   -6.5218   -0.9664    0.0000 C   0  0  0  0  0  0  0  0  0  0  0  0
   -6.3650    0.5254    0.0000 C   0  0  0  0  0  0  0  0  0  0  0  0
   -7.5785    1.4071    0.0000 C   0  0  0  0  0  0  0  0  0  0  0  0
   -8.9488    0.7970    0.0000 C   0  0  0  0  0  0  0  0  0  0  0  0
   -9.1056   -0.6948    0.0000 C   0  0  0  0  0  0  0  0  0  0  0  0
   -7.8921   -1.5765    0.0000 C   0  0  0  0  0  0  0  0  0  0  0  0
   -3.8817   -1.3846    0.0000 O   0  0  0  0  0  0  0  0  0  0  0  0
   -1.5000    0.0000    0.0000 C   0  0  0  0  0  0  0  0  0  0  0  0
   -0.7500    1.2990    0.0000 C   0  0  0  0  0  0  0  0  0  0  0  0
   -1.5000    2.5981    0.0000 O   0  0  0  0  0  0  0  0  0  0  0  0
   -0.7500    3.8971    0.0000 C   0  0  0  0  0  0  0  0  0  0  0  0
    0.7500    1.2990    0.0000 C   0  0  0  0  0  0  0  0  0  0  0  0
  1  2  1  0
  2  3  1  0
  3  4  2  0
  4  5  1  0
  5  6  1  0
  6  7  1  0
  7  8  2  0
  8  9  1  0
  9 10  2  0
 10 11  1  0
 11 12  2  0
 12 13  1  0
 13 14  2  0
 14 15  1  0
 15 16  2  0
 10 17  1  0
  5 18  2  0
 18 19  1  0
 19 20  1  0
 20 21  1  0
 19 22  2  0
 22  3  1  0
 17  7  1  0
 16 11  1  0
M  END
>  <Compound_ID>  (92) 
CHEMBL176553

>  <Molecule Name>  (92) 
GW631581B

>  <Molecular Weight>  (92) 
296.33

>  <AlogP>  (92) 
4.10

>  <Smiles>  (92) 
COc1cc(Nc2ncc(-c3ccccc3)o2)cc(OC)c1

>  <Standard Type>  (92) 
Inhibition

>  <Standard Relation>  (92) 
'='

>  <Standard Units>  (92) 
%

>  <Standard Value>  (92) 
3.69

>  <Assay ChEMBL ID>  (92) 
CHEMBL1962142

>  <Assay Description>  (92) 
GSK_PKIS: MET mean inhibition at 0.1 uM [Nanosyn]

>  <BAO Format ID>  (92) 
BAO_0000357

>  <BAO Label>  (92) 
single protein format

>  <Assay Organism>  (92) 
None

>  <Target ChEMBL ID>  (92) 
CHEMBL3717

>  <Target Name>  (92) 
Hepatocyte growth factor receptor

>  <Target Organism>  (92) 
Homo sapiens

>  <Target Type>  (92) 
SINGLE PROTEIN

>  <Document ChEMBL ID>  (92) 
CHEMBL1961873

>  <Source Description>  (92) 
GSK Published Kinase Inhibitor Set

>  <Document Journal>  (92) 
nan

>  <Document Year>  (92) 
nan

>  <Active>  (92) 
0.0

$$$$

     RDKit          2D

 32 35  0  0  0  0  0  0  0  0999 V2000
    3.7500   -1.2990    0.0000 C   0  0  0  0  0  0  0  0  0  0  0  0
    3.0000    0.0000    0.0000 O   0  0  0  0  0  0  0  0  0  0  0  0
    1.5000    0.0000    0.0000 C   0  0  0  0  0  0  0  0  0  0  0  0
    0.7500   -1.2990    0.0000 C   0  0  0  0  0  0  0  0  0  0  0  0
   -0.7500   -1.2990    0.0000 C   0  0  0  0  0  0  0  0  0  0  0  0
   -1.5000    0.0000    0.0000 C   0  0  0  0  0  0  0  0  0  0  0  0
   -2.9672    0.3119    0.0000 N   0  0  0  0  0  0  0  0  0  0  0  0
   -3.1240    1.8037    0.0000 C   0  0  0  0  0  0  0  0  0  0  0  0
   -1.7537    2.4138    0.0000 N   0  0  0  0  0  0  0  0  0  0  0  0
   -1.4418    3.8810    0.0000 C   0  0  0  0  0  0  0  0  0  0  0  0
   -2.4455    4.9957    0.0000 C   0  0  0  0  0  0  0  0  0  0  0  0
   -1.6955    6.2947    0.0000 C   0  0  0  0  0  0  0  0  0  0  0  0
   -2.3056    7.6651    0.0000 O   0  0  0  0  0  0  0  0  0  0  0  0
   -3.7974    7.8218    0.0000 C   0  0  0  0  0  0  0  0  0  0  0  0
   -4.4075    9.1922    0.0000 C   0  0  0  0  0  0  0  0  0  0  0  0
   -4.6791    6.6083    0.0000 C   0  0  0  0  0  0  0  0  0  0  0  0
   -4.0690    5.2380    0.0000 C   0  0  0  0  0  0  0  0  0  0  0  0
   -4.9507    4.0245    0.0000 C   0  0  0  0  0  0  0  0  0  0  0  0
   -6.4424    4.1813    0.0000 C   0  0  0  0  0  0  0  0  0  0  0  0
   -7.0526    5.5516    0.0000 C   0  0  0  0  0  0  0  0  0  0  0  0
   -6.1709    6.7651    0.0000 C   0  0  0  0  0  0  0  0  0  0  0  0
   -6.7810    8.1354    0.0000 C   0  0  0  0  0  0  0  0  0  0  0  0
   -7.3911    9.5057    0.0000 F   0  0  0  0  0  0  0  0  0  0  0  0
   -8.1513    7.5253    0.0000 F   0  0  0  0  0  0  0  0  0  0  0  0
   -5.4107    8.7455    0.0000 F   0  0  0  0  0  0  0  0  0  0  0  0
   -0.2283    5.9829    0.0000 C   0  0  0  0  0  0  0  0  0  0  0  0
    0.8864    6.9866    0.0000 C   0  0  0  0  0  0  0  0  0  0  0  0
    2.3130    6.5230    0.0000 N   0  0  0  0  0  0  0  0  0  0  0  0
    0.5745    8.4538    0.0000 O   0  0  0  0  0  0  0  0  0  0  0  0
   -0.0715    4.4911    0.0000 S   0  0  0  0  0  0  0  0  0  0  0  0
   -0.7500    1.2990    0.0000 C   0  0  0  0  0  0  0  0  0  0  0  0
    0.7500    1.2990    0.0000 C   0  0  0  0  0  0  0  0  0  0  0  0
  1  2  1  0
  2  3  1  0
  3  4  2  0
  4  5  1  0
  5  6  2  0
  6  7  1  0
  7  8  2  0
  8  9  1  0
  9 10  1  0
 10 11  2  0
 11 12  1  0
 12 13  1  0
 13 14  1  0
 14 15  1  1
 14 16  1  0
 16 17  2  0
 17 18  1  0
 18 19  2  0
 19 20  1  0
 20 21  2  0
 21 22  1  0
 22 23  1  0
 22 24  1  0
 22 25  1  0
 12 26  2  0
 26 27  1  0
 27 28  1  0
 27 29  2  0
 26 30  1  0
  9 31  1  0
 31 32  2  0
 32  3  1  0
 31  6  1  0
 30 10  1  0
 21 16  1  0
M  END
>  <Compound_ID>  (93) 
CHEMBL522709

>  <Molecule Name>  (93) 
GSK-317315A

>  <Molecular Weight>  (93) 
461.47

>  <AlogP>  (93) 
5.35

>  <Smiles>  (93) 
COc1ccc2ncn(-c3cc(O[C@H](C)c4ccccc4C(F)(F)F)c(C(N)=O)s3)c2c1

>  <Standard Type>  (93) 
Inhibition

>  <Standard Relation>  (93) 
'='

>  <Standard Units>  (93) 
%

>  <Standard Value>  (93) 
-3.32

>  <Assay ChEMBL ID>  (93) 
CHEMBL1962142

>  <Assay Description>  (93) 
GSK_PKIS: MET mean inhibition at 0.1 uM [Nanosyn]

>  <BAO Format ID>  (93) 
BAO_0000357

>  <BAO Label>  (93) 
single protein format

>  <Assay Organism>  (93) 
None

>  <Target ChEMBL ID>  (93) 
CHEMBL3717

>  <Target Name>  (93) 
Hepatocyte growth factor receptor

>  <Target Organism>  (93) 
Homo sapiens

>  <Target Type>  (93) 
SINGLE PROTEIN

>  <Document ChEMBL ID>  (93) 
CHEMBL1961873

>  <Source Description>  (93) 
GSK Published Kinase Inhibitor Set

>  <Document Journal>  (93) 
nan

>  <Document Year>  (93) 
nan

>  <Active>  (93) 
0.0

$$$$

     RDKit          2D

 21 24  0  0  0  0  0  0  0  0999 V2000
   -2.6401   -3.1891    0.0000 C   0  0  0  0  0  0  0  0  0  0  0  0
   -1.2135   -2.7256    0.0000 N   0  0  0  0  0  0  0  0  0  0  0  0
   -0.0000   -3.6073    0.0000 C   0  0  0  0  0  0  0  0  0  0  0  0
    1.2135   -2.7256    0.0000 C   0  0  0  0  0  0  0  0  0  0  0  0
    2.6401   -3.1891    0.0000 C   0  0  0  0  0  0  0  0  0  0  0  0
    2.9520   -4.6564    0.0000 C   0  0  0  0  0  0  0  0  0  0  0  0
    1.9483   -5.7711    0.0000 C   0  0  0  0  0  0  0  0  0  0  0  0
    0.4565   -5.6143    0.0000 O   0  0  0  0  0  0  0  0  0  0  0  0
    2.6983   -7.0701    0.0000 N   0  0  0  0  0  0  0  0  0  0  0  0
    4.1655   -6.7583    0.0000 C   0  0  0  0  0  0  0  0  0  0  0  0
    5.3790   -7.6399    0.0000 C   0  0  0  0  0  0  0  0  0  0  0  0
    6.7493   -7.0298    0.0000 C   0  0  0  0  0  0  0  0  0  0  0  0
    6.9061   -5.5380    0.0000 C   0  0  0  0  0  0  0  0  0  0  0  0
    5.6926   -4.6564    0.0000 N   0  0  0  0  0  0  0  0  0  0  0  0
    4.3223   -5.2665    0.0000 C   0  0  0  0  0  0  0  0  0  0  0  0
    0.7500   -1.2990    0.0000 C   0  0  0  0  0  0  0  0  0  0  0  0
    1.5000    0.0000    0.0000 C   0  0  0  0  0  0  0  0  0  0  0  0
    0.7500    1.2990    0.0000 C   0  0  0  0  0  0  0  0  0  0  0  0
   -0.7500    1.2990    0.0000 C   0  0  0  0  0  0  0  0  0  0  0  0
   -1.5000    0.0000    0.0000 C   0  0  0  0  0  0  0  0  0  0  0  0
   -0.7500   -1.2990    0.0000 C   0  0  0  0  0  0  0  0  0  0  0  0
  1  2  1  0
  2  3  1  0
  3  4  2  0
  4  5  1  0
  5  6  2  3
  6  7  1  0
  7  8  2  0
  7  9  1  0
  9 10  1  0
 10 11  2  0
 11 12  1  0
 12 13  2  0
 13 14  1  0
 14 15  2  0
  4 16  1  0
 16 17  2  0
 17 18  1  0
 18 19  2  0
 19 20  1  0
 20 21  2  0
 21  2  1  0
 15  6  1  0
 21 16  1  0
 15 10  1  0
M  END
>  <Compound_ID>  (94) 
CHEMBL1516890

>  <Molecule Name>  (94) 
GW441756X

>  <Molecular Weight>  (94) 
275.31

>  <AlogP>  (94) 
3.07

>  <Smiles>  (94) 
Cn1cc(C=C2C(=O)Nc3cccnc32)c2ccccc21

>  <Standard Type>  (94) 
Inhibition

>  <Standard Relation>  (94) 
'='

>  <Standard Units>  (94) 
%

>  <Standard Value>  (94) 
5.5

>  <Assay ChEMBL ID>  (94) 
CHEMBL1962143

>  <Assay Description>  (94) 
GSK_PKIS: MET mean inhibition at 1 uM [Nanosyn]

>  <BAO Format ID>  (94) 
BAO_0000357

>  <BAO Label>  (94) 
single protein format

>  <Assay Organism>  (94) 
None

>  <Target ChEMBL ID>  (94) 
CHEMBL3717

>  <Target Name>  (94) 
Hepatocyte growth factor receptor

>  <Target Organism>  (94) 
Homo sapiens

>  <Target Type>  (94) 
SINGLE PROTEIN

>  <Document ChEMBL ID>  (94) 
CHEMBL1961873

>  <Source Description>  (94) 
GSK Published Kinase Inhibitor Set

>  <Document Journal>  (94) 
nan

>  <Document Year>  (94) 
nan

>  <Active>  (94) 
0.0

$$$$

     RDKit          2D

 39 43  0  0  0  0  0  0  0  0999 V2000
  -11.4711  -10.1522    0.0000 C   0  0  0  0  0  0  0  0  0  0  0  0
  -10.8609   -8.7818    0.0000 S   0  0  0  0  0  0  0  0  0  0  0  0
   -9.4906   -9.3919    0.0000 O   0  0  0  0  0  0  0  0  0  0  0  0
  -12.2313   -8.1717    0.0000 O   0  0  0  0  0  0  0  0  0  0  0  0
  -10.2508   -7.4115    0.0000 C   0  0  0  0  0  0  0  0  0  0  0  0
   -8.7591   -7.2547    0.0000 C   0  0  0  0  0  0  0  0  0  0  0  0
   -8.1490   -5.8844    0.0000 N   0  0  0  0  0  0  0  0  0  0  0  0
   -6.6572   -5.7276    0.0000 C   0  0  0  0  0  0  0  0  0  0  0  0
   -6.0471   -4.3573    0.0000 C   0  0  0  0  0  0  0  0  0  0  0  0
   -4.5798   -4.0454    0.0000 C   0  0  0  0  0  0  0  0  0  0  0  0
   -4.4231   -2.5537    0.0000 C   0  0  0  0  0  0  0  0  0  0  0  0
   -3.1240   -1.8037    0.0000 C   0  0  0  0  0  0  0  0  0  0  0  0
   -1.7537   -2.4138    0.0000 C   0  0  0  0  0  0  0  0  0  0  0  0
   -0.7500   -1.2990    0.0000 C   0  0  0  0  0  0  0  0  0  0  0  0
    0.7500   -1.2990    0.0000 C   0  0  0  0  0  0  0  0  0  0  0  0
    1.5000   -2.5981    0.0000 N   0  0  0  0  0  0  0  0  0  0  0  0
    3.0000   -2.5981    0.0000 C   0  0  0  0  0  0  0  0  0  0  0  0
    3.7500   -3.8971    0.0000 C   0  0  0  0  0  0  0  0  0  0  0  0
    5.2500   -3.8971    0.0000 C   0  0  0  0  0  0  0  0  0  0  0  0
    6.0000   -2.5981    0.0000 C   0  0  0  0  0  0  0  0  0  0  0  0
    7.5000   -2.5981    0.0000 O   0  0  0  0  0  0  0  0  0  0  0  0
    8.2500   -3.8971    0.0000 C   0  0  0  0  0  0  0  0  0  0  0  0
    9.7500   -3.8971    0.0000 C   0  0  0  0  0  0  0  0  0  0  0  0
   10.5000   -5.1962    0.0000 C   0  0  0  0  0  0  0  0  0  0  0  0
   12.0000   -5.1962    0.0000 C   0  0  0  0  0  0  0  0  0  0  0  0
   12.7500   -3.8971    0.0000 C   0  0  0  0  0  0  0  0  0  0  0  0
   12.0000   -2.5981    0.0000 C   0  0  0  0  0  0  0  0  0  0  0  0
   12.7500   -1.2990    0.0000 F   0  0  0  0  0  0  0  0  0  0  0  0
   10.5000   -2.5981    0.0000 C   0  0  0  0  0  0  0  0  0  0  0  0
    5.2500   -1.2990    0.0000 C   0  0  0  0  0  0  0  0  0  0  0  0
    6.0000   -0.0000    0.0000 Cl  0  0  0  0  0  0  0  0  0  0  0  0
    3.7500   -1.2990    0.0000 C   0  0  0  0  0  0  0  0  0  0  0  0
    1.5000    0.0000    0.0000 N   0  0  0  0  0  0  0  0  0  0  0  0
    0.7500    1.2990    0.0000 C   0  0  0  0  0  0  0  0  0  0  0  0
   -0.7500    1.2990    0.0000 N   0  0  0  0  0  0  0  0  0  0  0  0
   -1.5000    0.0000    0.0000 C   0  0  0  0  0  0  0  0  0  0  0  0
   -2.9672   -0.3119    0.0000 S   0  0  0  0  0  0  0  0  0  0  0  0
   -5.7934   -1.9435    0.0000 C   0  0  0  0  0  0  0  0  0  0  0  0
   -6.7971   -3.0583    0.0000 S   0  0  0  0  0  0  0  0  0  0  0  0
  1  2  1  0
  2  3  2  0
  2  4  2  0
  2  5  1  0
  5  6  1  0
  6  7  1  0
  7  8  1  0
  8  9  1  0
  9 10  2  0
 10 11  1  0
 11 12  1  0
 12 13  2  0
 13 14  1  0
 14 15  2  0
 15 16  1  0
 16 17  1  0
 17 18  2  0
 18 19  1  0
 19 20  2  0
 20 21  1  0
 21 22  1  0
 22 23  1  0
 23 24  2  0
 24 25  1  0
 25 26  2  0
 26 27  1  0
 27 28  1  0
 27 29  2  0
 20 30  1  0
 30 31  1  0
 30 32  2  0
 15 33  1  0
 33 34  2  0
 34 35  1  0
 35 36  2  0
 36 37  1  0
 11 38  2  0
 38 39  1  0
 39  9  1  0
 37 12  1  0
 36 14  1  0
 32 17  1  0
 29 23  1  0
M  END
>  <Compound_ID>  (95) 
CHEMBL475599

>  <Molecule Name>  (95) 
GSK-300014A

>  <Molecular Weight>  (95) 
603.17

>  <AlogP>  (95) 
6.67

>  <Smiles>  (95) 
CS(=O)(=O)CCNCc1cc(-c2cc3c(Nc4ccc(OCc5cccc(F)c5)c(Cl)c4)ncnc3s2)cs1

>  <Standard Type>  (95) 
Inhibition

>  <Standard Relation>  (95) 
'='

>  <Standard Units>  (95) 
%

>  <Standard Value>  (95) 
6.72

>  <Assay ChEMBL ID>  (95) 
CHEMBL1962143

>  <Assay Description>  (95) 
GSK_PKIS: MET mean inhibition at 1 uM [Nanosyn]

>  <BAO Format ID>  (95) 
BAO_0000357

>  <BAO Label>  (95) 
single protein format

>  <Assay Organism>  (95) 
None

>  <Target ChEMBL ID>  (95) 
CHEMBL3717

>  <Target Name>  (95) 
Hepatocyte growth factor receptor

>  <Target Organism>  (95) 
Homo sapiens

>  <Target Type>  (95) 
SINGLE PROTEIN

>  <Document ChEMBL ID>  (95) 
CHEMBL1961873

>  <Source Description>  (95) 
GSK Published Kinase Inhibitor Set

>  <Document Journal>  (95) 
nan

>  <Document Year>  (95) 
nan

>  <Active>  (95) 
0.0

$$$$

     RDKit          2D

 43 47  0  0  0  0  0  0  0  0999 V2000
   -1.3632  -12.1594    0.0000 C   0  0  0  0  0  0  0  0  0  0  0  0
   -1.2064  -10.6676    0.0000 S   0  0  0  0  0  0  0  0  0  0  0  0
    0.2854  -10.8244    0.0000 O   0  0  0  0  0  0  0  0  0  0  0  0
   -2.6982  -10.5109    0.0000 O   0  0  0  0  0  0  0  0  0  0  0  0
   -1.0496   -9.1759    0.0000 C   0  0  0  0  0  0  0  0  0  0  0  0
    0.3207   -8.5658    0.0000 C   0  0  0  0  0  0  0  0  0  0  0  0
    0.4775   -7.0740    0.0000 N   0  0  0  0  0  0  0  0  0  0  0  0
    1.8478   -6.4639    0.0000 C   0  0  0  0  0  0  0  0  0  0  0  0
    2.0046   -4.9721    0.0000 C   0  0  0  0  0  0  0  0  0  0  0  0
    3.3037   -4.2221    0.0000 C   0  0  0  0  0  0  0  0  0  0  0  0
    2.9918   -2.7549    0.0000 C   0  0  0  0  0  0  0  0  0  0  0  0
    1.5000   -2.5981    0.0000 C   0  0  0  0  0  0  0  0  0  0  0  0
    0.7500   -1.2990    0.0000 C   0  0  0  0  0  0  0  0  0  0  0  0
    1.5000    0.0000    0.0000 C   0  0  0  0  0  0  0  0  0  0  0  0
    0.7500    1.2990    0.0000 C   0  0  0  0  0  0  0  0  0  0  0  0
   -0.7500    1.2990    0.0000 C   0  0  0  0  0  0  0  0  0  0  0  0
   -1.5000    2.5981    0.0000 N   0  0  0  0  0  0  0  0  0  0  0  0
   -3.0000    2.5981    0.0000 C   0  0  0  0  0  0  0  0  0  0  0  0
   -3.7500    1.2990    0.0000 N   0  0  0  0  0  0  0  0  0  0  0  0
   -3.0000    0.0000    0.0000 C   0  0  0  0  0  0  0  0  0  0  0  0
   -3.7500   -1.2990    0.0000 N   0  0  0  0  0  0  0  0  0  0  0  0
   -5.2500   -1.2990    0.0000 C   0  0  0  0  0  0  0  0  0  0  0  0
   -6.0000    0.0000    0.0000 C   0  0  0  0  0  0  0  0  0  0  0  0
   -7.5000    0.0000    0.0000 C   0  0  0  0  0  0  0  0  0  0  0  0
   -8.2500   -1.2990    0.0000 C   0  0  0  0  0  0  0  0  0  0  0  0
   -9.7500   -1.2990    0.0000 O   0  0  0  0  0  0  0  0  0  0  0  0
  -10.5000    0.0000    0.0000 C   0  0  0  0  0  0  0  0  0  0  0  0
  -12.0000    0.0000    0.0000 C   0  0  0  0  0  0  0  0  0  0  0  0
  -12.7500    1.2990    0.0000 C   0  0  0  0  0  0  0  0  0  0  0  0
  -14.2500    1.2990    0.0000 C   0  0  0  0  0  0  0  0  0  0  0  0
  -15.0000    0.0000    0.0000 C   0  0  0  0  0  0  0  0  0  0  0  0
  -14.2500   -1.2990    0.0000 C   0  0  0  0  0  0  0  0  0  0  0  0
  -15.0000   -2.5981    0.0000 F   0  0  0  0  0  0  0  0  0  0  0  0
  -12.7500   -1.2990    0.0000 C   0  0  0  0  0  0  0  0  0  0  0  0
   -7.5000   -2.5981    0.0000 C   0  0  0  0  0  0  0  0  0  0  0  0
   -8.2500   -3.8971    0.0000 C   0  0  0  0  0  0  0  0  0  0  0  0
   -9.0000   -5.1962    0.0000 F   0  0  0  0  0  0  0  0  0  0  0  0
   -6.9510   -4.6471    0.0000 F   0  0  0  0  0  0  0  0  0  0  0  0
   -9.5490   -3.1471    0.0000 F   0  0  0  0  0  0  0  0  0  0  0  0
   -6.0000   -2.5981    0.0000 C   0  0  0  0  0  0  0  0  0  0  0  0
   -1.5000    0.0000    0.0000 C   0  0  0  0  0  0  0  0  0  0  0  0
   -0.7500   -1.2990    0.0000 C   0  0  0  0  0  0  0  0  0  0  0  0
    0.8899   -3.9684    0.0000 O   0  0  0  0  0  0  0  0  0  0  0  0
  1  2  1  0
  2  3  2  0
  2  4  2  0
  2  5  1  0
  5  6  1  0
  6  7  1  0
  7  8  1  0
  8  9  1  0
  9 10  2  0
 10 11  1  0
 11 12  2  0
 12 13  1  0
 13 14  2  0
 14 15  1  0
 15 16  2  0
 16 17  1  0
 17 18  2  0
 18 19  1  0
 19 20  2  0
 20 21  1  0
 21 22  1  0
 22 23  2  0
 23 24  1  0
 24 25  2  0
 25 26  1  0
 26 27  1  0
 27 28  1  0
 28 29  2  0
 29 30  1  0
 30 31  2  0
 31 32  1  0
 32 33  1  0
 32 34  2  0
 25 35  1  0
 35 36  1  0
 36 37  1  0
 36 38  1  0
 36 39  1  0
 35 40  2  0
 20 41  1  0
 41 42  2  0
 12 43  1  0
 43  9  1  0
 42 13  1  0
 41 16  1  0
 40 22  1  0
 34 28  1  0
M  END
>  <Compound_ID>  (96) 
CHEMBL215814

>  <Molecule Name>  (96) 
GW576484X

>  <Molecular Weight>  (96) 
614.62

>  <AlogP>  (96) 
6.50

>  <Smiles>  (96) 
CS(=O)(=O)CCNCc1ccc(-c2ccc3ncnc(Nc4ccc(OCc5cccc(F)c5)c(C(F)(F)F)c4)c3c2)o1

>  <Standard Type>  (96) 
Inhibition

>  <Standard Relation>  (96) 
'='

>  <Standard Units>  (96) 
%

>  <Standard Value>  (96) 
7.18

>  <Assay ChEMBL ID>  (96) 
CHEMBL1962142

>  <Assay Description>  (96) 
GSK_PKIS: MET mean inhibition at 0.1 uM [Nanosyn]

>  <BAO Format ID>  (96) 
BAO_0000357

>  <BAO Label>  (96) 
single protein format

>  <Assay Organism>  (96) 
None

>  <Target ChEMBL ID>  (96) 
CHEMBL3717

>  <Target Name>  (96) 
Hepatocyte growth factor receptor

>  <Target Organism>  (96) 
Homo sapiens

>  <Target Type>  (96) 
SINGLE PROTEIN

>  <Document ChEMBL ID>  (96) 
CHEMBL1961873

>  <Source Description>  (96) 
GSK Published Kinase Inhibitor Set

>  <Document Journal>  (96) 
nan

>  <Document Year>  (96) 
nan

>  <Active>  (96) 
0.0

$$$$

     RDKit          2D

 29 33  0  0  0  0  0  0  0  0999 V2000
   -8.3464   -5.0433    0.0000 C   0  0  0  0  0  0  0  0  0  0  0  0
   -6.9199   -4.5797    0.0000 S   0  0  0  0  0  0  0  0  0  0  0  0
   -6.4563   -6.0063    0.0000 O   0  0  0  0  0  0  0  0  0  0  0  0
   -7.3834   -3.1531    0.0000 O   0  0  0  0  0  0  0  0  0  0  0  0
   -5.4933   -4.1162    0.0000 C   0  0  0  0  0  0  0  0  0  0  0  0
   -5.1814   -2.6490    0.0000 C   0  0  0  0  0  0  0  0  0  0  0  0
   -3.7548   -2.1855    0.0000 C   0  0  0  0  0  0  0  0  0  0  0  0
   -2.6401   -3.1891    0.0000 C   0  0  0  0  0  0  0  0  0  0  0  0
   -1.2135   -2.7256    0.0000 N   0  0  0  0  0  0  0  0  0  0  0  0
   -0.0000   -3.6073    0.0000 N   0  0  0  0  0  0  0  0  0  0  0  0
    1.2135   -2.7256    0.0000 C   0  0  0  0  0  0  0  0  0  0  0  0
    2.6401   -3.1891    0.0000 C   0  0  0  0  0  0  0  0  0  0  0  0
    3.7548   -2.1855    0.0000 C   0  0  0  0  0  0  0  0  0  0  0  0
    5.1814   -2.6490    0.0000 N   0  0  0  0  0  0  0  0  0  0  0  0
    5.4933   -4.1162    0.0000 C   0  0  0  0  0  0  0  0  0  0  0  0
    6.7923   -4.8662    0.0000 N   0  0  0  0  0  0  0  0  0  0  0  0
    6.4805   -6.3334    0.0000 C   0  0  0  0  0  0  0  0  0  0  0  0
    4.9887   -6.4902    0.0000 C   0  0  0  0  0  0  0  0  0  0  0  0
    4.3786   -5.1199    0.0000 C   0  0  0  0  0  0  0  0  0  0  0  0
    2.9520   -4.6564    0.0000 C   0  0  0  0  0  0  0  0  0  0  0  0
    0.7500   -1.2990    0.0000 C   0  0  0  0  0  0  0  0  0  0  0  0
    1.5000    0.0000    0.0000 C   0  0  0  0  0  0  0  0  0  0  0  0
    3.0000    0.0000    0.0000 N   0  0  0  0  0  0  0  0  0  0  0  0
    0.7500    1.2990    0.0000 N   0  0  0  0  0  0  0  0  0  0  0  0
   -0.7500    1.2990    0.0000 C   0  0  0  0  0  0  0  0  0  0  0  0
   -1.5000    0.0000    0.0000 N   0  0  0  0  0  0  0  0  0  0  0  0
   -0.7500   -1.2990    0.0000 C   0  0  0  0  0  0  0  0  0  0  0  0
   -2.9520   -4.6564    0.0000 C   0  0  0  0  0  0  0  0  0  0  0  0
   -4.3786   -5.1199    0.0000 C   0  0  0  0  0  0  0  0  0  0  0  0
  1  2  1  0
  2  3  2  0
  2  4  2  0
  2  5  1  0
  5  6  2  0
  6  7  1  0
  7  8  2  0
  8  9  1  0
  9 10  1  0
 10 11  2  0
 11 12  1  0
 12 13  2  0
 13 14  1  0
 14 15  2  0
 15 16  1  0
 16 17  1  0
 17 18  2  0
 18 19  1  0
 19 20  2  0
 11 21  1  0
 21 22  2  0
 22 23  1  0
 22 24  1  0
 24 25  2  0
 25 26  1  0
 26 27  2  0
  8 28  1  0
 28 29  2  0
 29  5  1  0
 27  9  1  0
 20 12  1  0
 27 21  1  0
 19 15  1  0
M  END
>  <Compound_ID>  (97) 
CHEMBL4207014

>  <Molecule Name>  (97) 
nan

>  <Molecular Weight>  (97) 
405.44

>  <AlogP>  (97) 
2.34

>  <Smiles>  (97) 
CS(=O)(=O)c1ccc(-n2nc(-c3cnc4[nH]ccc4c3)c3c(N)ncnc32)cc1

>  <Standard Type>  (97) 
Inhibition

>  <Standard Relation>  (97) 
'='

>  <Standard Units>  (97) 
%

>  <Standard Value>  (97) 
4.0

>  <Assay ChEMBL ID>  (97) 
CHEMBL4191058

>  <Assay Description>  (97) 
Inhibition of recombinant human Met Y1248H mutant (974 to end residues) at 1 uM using KKKGQEEEYVFIE as substrate after 40 mins in presence of [gamma-33P]ATP by scintillation counting method

>  <BAO Format ID>  (97) 
BAO_0000357

>  <BAO Label>  (97) 
single protein format

>  <Assay Organism>  (97) 
Homo sapiens

>  <Target ChEMBL ID>  (97) 
CHEMBL3717

>  <Target Name>  (97) 
Hepatocyte growth factor receptor

>  <Target Organism>  (97) 
Homo sapiens

>  <Target Type>  (97) 
SINGLE PROTEIN

>  <Document ChEMBL ID>  (97) 
CHEMBL4190187

>  <Source Description>  (97) 
Scientific Literature

>  <Document Journal>  (97) 
Bioorg Med Chem Lett

>  <Document Year>  (97) 
2017.0

>  <Active>  (97) 
0.0

$$$$

     RDKit          2D

 26 29  0  0  0  0  0  0  0  0999 V2000
    3.0000    0.0000    0.0000 C   0  0  0  0  0  0  0  0  0  0  0  0
    1.5000    0.0000    0.0000 C   0  0  0  0  0  0  0  0  0  0  0  0
    0.7500   -1.2990    0.0000 C   0  0  0  0  0  0  0  0  0  0  0  0
   -0.7500   -1.2990    0.0000 C   0  0  0  0  0  0  0  0  0  0  0  0
   -1.5000   -2.5981    0.0000 C   0  0  0  0  0  0  0  0  0  0  0  0
   -0.8899   -3.9684    0.0000 C   0  0  0  0  0  0  0  0  0  0  0  0
   -2.0046   -4.9721    0.0000 C   0  0  0  0  0  0  0  0  0  0  0  0
   -3.3037   -4.2221    0.0000 C   0  0  0  0  0  0  0  0  0  0  0  0
   -2.9918   -2.7549    0.0000 O   0  0  0  0  0  0  0  0  0  0  0  0
   -1.5000    0.0000    0.0000 C   0  0  0  0  0  0  0  0  0  0  0  0
   -0.7500    1.2990    0.0000 C   0  0  0  0  0  0  0  0  0  0  0  0
   -1.5000    2.5981    0.0000 C   0  0  0  0  0  0  0  0  0  0  0  0
    0.7500    1.2990    0.0000 C   0  0  0  0  0  0  0  0  0  0  0  0
    1.5000    2.5981    0.0000 C   0  0  0  0  0  0  0  0  0  0  0  0
    3.0000    2.5981    0.0000 C   0  0  0  0  0  0  0  0  0  0  0  0
    3.7500    3.8971    0.0000 C   0  0  0  0  0  0  0  0  0  0  0  0
    5.2500    3.8971    0.0000 C   0  0  0  0  0  0  0  0  0  0  0  0
    6.0000    5.1962    0.0000 N   0  0  0  0  0  0  0  0  0  0  0  0
    5.2500    6.4952    0.0000 C   0  0  0  0  0  0  0  0  0  0  0  0
    3.7500    6.4952    0.0000 C   0  0  0  0  0  0  0  0  0  0  0  0
    3.0000    7.7942    0.0000 C   0  0  0  0  0  0  0  0  0  0  0  0
    1.5082    7.9510    0.0000 N   0  0  0  0  0  0  0  0  0  0  0  0
    1.1963    9.4182    0.0000 N   0  0  0  0  0  0  0  0  0  0  0  0
    2.4954   10.1682    0.0000 N   0  0  0  0  0  0  0  0  0  0  0  0
    3.6101    9.1645    0.0000 N   0  0  0  0  0  0  0  0  0  0  0  0
    3.0000    5.1962    0.0000 C   0  0  0  0  0  0  0  0  0  0  0  0
  1  2  1  0
  2  3  2  0
  3  4  1  0
  4  5  1  0
  5  6  2  0
  6  7  1  0
  7  8  2  0
  8  9  1  0
  4 10  2  0
 10 11  1  0
 11 12  1  0
 11 13  2  0
 13 14  1  0
 14 15  2  0
 15 16  1  0
 16 17  2  0
 17 18  1  0
 18 19  2  0
 19 20  1  0
 20 21  1  0
 21 22  1  0
 22 23  2  0
 23 24  1  0
 24 25  1  0
 20 26  2  0
 13  2  1  0
 26 16  1  0
  9  5  1  0
 25 21  2  0
M  END
>  <Compound_ID>  (98) 
CHEMBL1909353

>  <Molecule Name>  (98) 
GW458344A

>  <Molecular Weight>  (98) 
379.85

>  <AlogP>  (98) 
4.31

>  <Smiles>  (98) 
Cc1cc(-c2ccco2)cc(C)c1/C=C/c1cncc(-c2nn[nH]n2)c1

>  <Standard Type>  (98) 
Inhibition

>  <Standard Relation>  (98) 
'='

>  <Standard Units>  (98) 
%

>  <Standard Value>  (98) 
3.8

>  <Assay ChEMBL ID>  (98) 
CHEMBL1962143

>  <Assay Description>  (98) 
GSK_PKIS: MET mean inhibition at 1 uM [Nanosyn]

>  <BAO Format ID>  (98) 
BAO_0000357

>  <BAO Label>  (98) 
single protein format

>  <Assay Organism>  (98) 
None

>  <Target ChEMBL ID>  (98) 
CHEMBL3717

>  <Target Name>  (98) 
Hepatocyte growth factor receptor

>  <Target Organism>  (98) 
Homo sapiens

>  <Target Type>  (98) 
SINGLE PROTEIN

>  <Document ChEMBL ID>  (98) 
CHEMBL1961873

>  <Source Description>  (98) 
GSK Published Kinase Inhibitor Set

>  <Document Journal>  (98) 
nan

>  <Document Year>  (98) 
nan

>  <Active>  (98) 
0.0

$$$$

     RDKit          2D

 23 26  0  0  0  0  0  0  0  0999 V2000
    3.3287    1.8373    0.0000 O   0  0  0  0  0  0  0  0  0  0  0  0
    2.3250    2.9520    0.0000 C   0  0  0  0  0  0  0  0  0  0  0  0
    0.8578    2.6401    0.0000 N   0  0  0  0  0  0  0  0  0  0  0  0
    0.3943    1.2135    0.0000 C   0  0  0  0  0  0  0  0  0  0  0  0
    1.2760    0.0000    0.0000 N   0  0  0  0  0  0  0  0  0  0  0  0
    0.3943   -1.2135    0.0000 N   0  0  0  0  0  0  0  0  0  0  0  0
   -1.0323   -0.7500    0.0000 C   0  0  0  0  0  0  0  0  0  0  0  0
   -2.3313   -1.5000    0.0000 N   0  0  0  0  0  0  0  0  0  0  0  0
   -3.6304   -0.7500    0.0000 C   0  0  0  0  0  0  0  0  0  0  0  0
   -4.9294   -1.5000    0.0000 C   0  0  0  0  0  0  0  0  0  0  0  0
   -6.2284   -0.7500    0.0000 C   0  0  0  0  0  0  0  0  0  0  0  0
   -7.5275   -1.5000    0.0000 C   0  0  0  0  0  0  0  0  0  0  0  0
   -7.5275   -3.0000    0.0000 C   0  0  0  0  0  0  0  0  0  0  0  0
   -8.8265   -3.7500    0.0000 O   0  0  0  0  0  0  0  0  0  0  0  0
   -6.2284   -3.7500    0.0000 C   0  0  0  0  0  0  0  0  0  0  0  0
   -4.9294   -3.0000    0.0000 C   0  0  0  0  0  0  0  0  0  0  0  0
   -3.6304    0.7500    0.0000 C   0  0  0  0  0  0  0  0  0  0  0  0
   -4.9294    1.5000    0.0000 Br  0  0  0  0  0  0  0  0  0  0  0  0
   -2.3313    1.5000    0.0000 C   0  0  0  0  0  0  0  0  0  0  0  0
   -1.0323    0.7500    0.0000 C   0  0  0  0  0  0  0  0  0  0  0  0
    2.7886    4.3786    0.0000 C   0  0  0  0  0  0  0  0  0  0  0  0
    2.4767    5.8458    0.0000 C   0  0  0  0  0  0  0  0  0  0  0  0
    3.9033    5.3823    0.0000 C   0  0  0  0  0  0  0  0  0  0  0  0
  1  2  2  0
  2  3  1  0
  3  4  1  0
  4  5  2  0
  5  6  1  0
  6  7  1  0
  7  8  2  0
  8  9  1  0
  9 10  1  0
 10 11  2  0
 11 12  1  0
 12 13  2  0
 13 14  1  0
 13 15  1  0
 15 16  2  0
  9 17  2  0
 17 18  1  0
 17 19  1  0
 19 20  2  0
  2 21  1  0
 21 22  1  0
 22 23  1  0
 20  4  1  0
 23 21  1  0
 20  7  1  0
 16 10  1  0
M  END
>  <Compound_ID>  (99) 
CHEMBL260417

>  <Molecule Name>  (99) 
nan

>  <Molecular Weight>  (99) 
373.21

>  <AlogP>  (99) 
3.44

>  <Smiles>  (99) 
O=C(Nc1n[nH]c2nc(-c3ccc(O)cc3)c(Br)cc12)C1CC1

>  <Standard Type>  (99) 
Inhibition

>  <Standard Relation>  (99) 
'='

>  <Standard Units>  (99) 
%

>  <Standard Value>  (99) 
10.9

>  <Assay ChEMBL ID>  (99) 
CHEMBL1962143

>  <Assay Description>  (99) 
GSK_PKIS: MET mean inhibition at 1 uM [Nanosyn]

>  <BAO Format ID>  (99) 
BAO_0000357

>  <BAO Label>  (99) 
single protein format

>  <Assay Organism>  (99) 
None

>  <Target ChEMBL ID>  (99) 
CHEMBL3717

>  <Target Name>  (99) 
Hepatocyte growth factor receptor

>  <Target Organism>  (99) 
Homo sapiens

>  <Target Type>  (99) 
SINGLE PROTEIN

>  <Document ChEMBL ID>  (99) 
CHEMBL1961873

>  <Source Description>  (99) 
GSK Published Kinase Inhibitor Set

>  <Document Journal>  (99) 
nan

>  <Document Year>  (99) 
nan

>  <Active>  (99) 
0.0

$$$$

     RDKit          2D

 42 46  0  0  0  0  0  0  0  0999 V2000
   -2.5981  -14.1073    0.0000 C   0  0  0  0  0  0  0  0  0  0  0  0
   -2.5981  -12.6073    0.0000 N   0  0  0  0  0  0  0  0  0  0  0  0
   -3.8971  -11.8573    0.0000 C   0  0  0  0  0  0  0  0  0  0  0  0
   -3.8971  -10.3573    0.0000 C   0  0  0  0  0  0  0  0  0  0  0  0
   -2.5981   -9.6073    0.0000 N   0  0  0  0  0  0  0  0  0  0  0  0
   -2.5981   -8.1073    0.0000 C   0  0  0  0  0  0  0  0  0  0  0  0
   -1.2990   -7.3573    0.0000 C   0  0  0  0  0  0  0  0  0  0  0  0
   -1.2990   -5.8573    0.0000 C   0  0  0  0  0  0  0  0  0  0  0  0
   -0.0000   -5.1073    0.0000 N   0  0  0  0  0  0  0  0  0  0  0  0
   -0.0000   -3.6073    0.0000 C   0  0  0  0  0  0  0  0  0  0  0  0
    1.2135   -2.7256    0.0000 N   0  0  0  0  0  0  0  0  0  0  0  0
    0.7500   -1.2990    0.0000 C   0  0  0  0  0  0  0  0  0  0  0  0
    1.5000    0.0000    0.0000 C   0  0  0  0  0  0  0  0  0  0  0  0
    0.7500    1.2990    0.0000 C   0  0  0  0  0  0  0  0  0  0  0  0
   -0.7500    1.2990    0.0000 C   0  0  0  0  0  0  0  0  0  0  0  0
   -1.5000    2.5981    0.0000 O   0  0  0  0  0  0  0  0  0  0  0  0
   -0.7500    3.8971    0.0000 C   0  0  0  0  0  0  0  0  0  0  0  0
    0.7500    3.8971    0.0000 C   0  0  0  0  0  0  0  0  0  0  0  0
    1.5000    5.1962    0.0000 C   0  0  0  0  0  0  0  0  0  0  0  0
    0.7500    6.4952    0.0000 C   0  0  0  0  0  0  0  0  0  0  0  0
    1.5000    7.7942    0.0000 N   0  0  0  0  0  0  0  0  0  0  0  0
    3.0000    7.7942    0.0000 C   0  0  0  0  0  0  0  0  0  0  0  0
    3.7500    6.4952    0.0000 O   0  0  0  0  0  0  0  0  0  0  0  0
    3.7500    9.0933    0.0000 N   0  0  0  0  0  0  0  0  0  0  0  0
    5.2500    9.0933    0.0000 C   0  0  0  0  0  0  0  0  0  0  0  0
    6.0000    7.7942    0.0000 C   0  0  0  0  0  0  0  0  0  0  0  0
    7.5000    7.7942    0.0000 C   0  0  0  0  0  0  0  0  0  0  0  0
    8.2500    6.4952    0.0000 C   0  0  0  0  0  0  0  0  0  0  0  0
    9.0000    5.1962    0.0000 F   0  0  0  0  0  0  0  0  0  0  0  0
    6.9510    5.7452    0.0000 F   0  0  0  0  0  0  0  0  0  0  0  0
    9.5490    7.2452    0.0000 F   0  0  0  0  0  0  0  0  0  0  0  0
    8.2500    9.0933    0.0000 C   0  0  0  0  0  0  0  0  0  0  0  0
    7.5000   10.3923    0.0000 C   0  0  0  0  0  0  0  0  0  0  0  0
    6.0000   10.3923    0.0000 C   0  0  0  0  0  0  0  0  0  0  0  0
    5.2500   11.6913    0.0000 F   0  0  0  0  0  0  0  0  0  0  0  0
   -0.7500    6.4952    0.0000 C   0  0  0  0  0  0  0  0  0  0  0  0
   -1.5000    5.1962    0.0000 C   0  0  0  0  0  0  0  0  0  0  0  0
   -1.5000    0.0000    0.0000 C   0  0  0  0  0  0  0  0  0  0  0  0
   -0.7500   -1.2990    0.0000 C   0  0  0  0  0  0  0  0  0  0  0  0
   -1.2135   -2.7256    0.0000 N   0  0  0  0  0  0  0  0  0  0  0  0
   -1.2990  -10.3573    0.0000 C   0  0  0  0  0  0  0  0  0  0  0  0
   -1.2990  -11.8573    0.0000 C   0  0  0  0  0  0  0  0  0  0  0  0
  1  2  1  0
  2  3  1  0
  3  4  1  0
  4  5  1  0
  5  6  1  0
  6  7  1  0
  7  8  1  0
  8  9  1  0
  9 10  1  0
 10 11  2  0
 11 12  1  0
 12 13  2  0
 13 14  1  0
 14 15  2  0
 15 16  1  0
 16 17  1  0
 17 18  2  0
 18 19  1  0
 19 20  2  0
 20 21  1  0
 21 22  1  0
 22 23  2  0
 22 24  1  0
 24 25  1  0
 25 26  2  0
 26 27  1  0
 27 28  1  0
 28 29  1  0
 28 30  1  0
 28 31  1  0
 27 32  2  0
 32 33  1  0
 33 34  2  0
 34 35  1  0
 20 36  1  0
 36 37  2  0
 15 38  1  0
 38 39  2  0
 39 40  1  0
  5 41  1  0
 41 42  1  0
 42  2  1  0
 40 10  1  0
 39 12  1  0
 37 17  1  0
 34 25  1  0
M  END
>  <Compound_ID>  (100) 
CHEMBL1909372

>  <Molecule Name>  (100) 
GW700494A

>  <Molecular Weight>  (100) 
622.07

>  <AlogP>  (100) 
6.21

>  <Smiles>  (100) 
CN1CCN(CCCNc2nc3ccc(Oc4ccc(NC(=O)Nc5cc(C(F)(F)F)ccc5F)cc4)cc3[nH]2)CC1

>  <Standard Type>  (100) 
Inhibition

>  <Standard Relation>  (100) 
'='

>  <Standard Units>  (100) 
%

>  <Standard Value>  (100) 
8.95

>  <Assay ChEMBL ID>  (100) 
CHEMBL1962143

>  <Assay Description>  (100) 
GSK_PKIS: MET mean inhibition at 1 uM [Nanosyn]

>  <BAO Format ID>  (100) 
BAO_0000357

>  <BAO Label>  (100) 
single protein format

>  <Assay Organism>  (100) 
None

>  <Target ChEMBL ID>  (100) 
CHEMBL3717

>  <Target Name>  (100) 
Hepatocyte growth factor receptor

>  <Target Organism>  (100) 
Homo sapiens

>  <Target Type>  (100) 
SINGLE PROTEIN

>  <Document ChEMBL ID>  (100) 
CHEMBL1961873

>  <Source Description>  (100) 
GSK Published Kinase Inhibitor Set

>  <Document Journal>  (100) 
nan

>  <Document Year>  (100) 
nan

>  <Active>  (100) 
0.0

$$$$

     RDKit          2D

 18 20  0  0  0  0  0  0  0  0999 V2000
   -8.0346   -3.5760    0.0000 C   0  0  0  0  0  0  0  0  0  0  0  0
   -6.9199   -4.5797    0.0000 O   0  0  0  0  0  0  0  0  0  0  0  0
   -5.4933   -4.1162    0.0000 C   0  0  0  0  0  0  0  0  0  0  0  0
   -5.1814   -2.6490    0.0000 C   0  0  0  0  0  0  0  0  0  0  0  0
   -3.7548   -2.1855    0.0000 C   0  0  0  0  0  0  0  0  0  0  0  0
   -2.6401   -3.1891    0.0000 C   0  0  0  0  0  0  0  0  0  0  0  0
   -1.2135   -2.7256    0.0000 C   0  0  0  0  0  0  0  0  0  0  0  0
   -0.0000   -3.6073    0.0000 C   0  0  0  0  0  0  0  0  0  0  0  0
    1.2135   -2.7256    0.0000 O   0  0  0  0  0  0  0  0  0  0  0  0
    0.7500   -1.2990    0.0000 C   0  0  0  0  0  0  0  0  0  0  0  0
    1.5000    0.0000    0.0000 N   0  0  0  0  0  0  0  0  0  0  0  0
    0.7500    1.2990    0.0000 C   0  0  0  0  0  0  0  0  0  0  0  0
   -0.7500    1.2990    0.0000 N   0  0  0  0  0  0  0  0  0  0  0  0
   -1.5000    0.0000    0.0000 C   0  0  0  0  0  0  0  0  0  0  0  0
   -3.0000    0.0000    0.0000 N   0  0  0  0  0  0  0  0  0  0  0  0
   -0.7500   -1.2990    0.0000 C   0  0  0  0  0  0  0  0  0  0  0  0
   -2.9520   -4.6564    0.0000 C   0  0  0  0  0  0  0  0  0  0  0  0
   -4.3786   -5.1199    0.0000 C   0  0  0  0  0  0  0  0  0  0  0  0
  1  2  1  0
  2  3  1  0
  3  4  2  0
  4  5  1  0
  5  6  2  0
  6  7  1  0
  7  8  2  0
  8  9  1  0
  9 10  1  0
 10 11  2  0
 11 12  1  0
 12 13  2  0
 13 14  1  0
 14 15  1  0
 14 16  2  0
  6 17  1  0
 17 18  2  0
 18  3  1  0
 16  7  1  0
 16 10  1  0
M  END
>  <Compound_ID>  (101) 
CHEMBL196022

>  <Molecule Name>  (101) 
GW642125X

>  <Molecular Weight>  (101) 
241.25

>  <AlogP>  (101) 
2.48

>  <Smiles>  (101) 
COc1ccc(-c2coc3ncnc(N)c23)cc1

>  <Standard Type>  (101) 
Inhibition

>  <Standard Relation>  (101) 
'='

>  <Standard Units>  (101) 
%

>  <Standard Value>  (101) 
10.0

>  <Assay ChEMBL ID>  (101) 
CHEMBL1962142

>  <Assay Description>  (101) 
GSK_PKIS: MET mean inhibition at 0.1 uM [Nanosyn]

>  <BAO Format ID>  (101) 
BAO_0000357

>  <BAO Label>  (101) 
single protein format

>  <Assay Organism>  (101) 
None

>  <Target ChEMBL ID>  (101) 
CHEMBL3717

>  <Target Name>  (101) 
Hepatocyte growth factor receptor

>  <Target Organism>  (101) 
Homo sapiens

>  <Target Type>  (101) 
SINGLE PROTEIN

>  <Document ChEMBL ID>  (101) 
CHEMBL1961873

>  <Source Description>  (101) 
GSK Published Kinase Inhibitor Set

>  <Document Journal>  (101) 
nan

>  <Document Year>  (101) 
nan

>  <Active>  (101) 
0.0

$$$$

     RDKit          2D

 21 22  0  0  0  0  0  0  0  0999 V2000
    5.2500   -1.2990    0.0000 C   0  0  0  0  0  0  0  0  0  0  0  0
    3.7500   -1.2990    0.0000 O   0  0  0  0  0  0  0  0  0  0  0  0
    3.0000    0.0000    0.0000 C   0  0  0  0  0  0  0  0  0  0  0  0
    3.7500    1.2990    0.0000 O   0  0  0  0  0  0  0  0  0  0  0  0
    1.5000    0.0000    0.0000 C   0  0  0  0  0  0  0  0  0  0  0  0
    0.7500   -1.2990    0.0000 C   0  0  0  0  0  0  0  0  0  0  0  0
   -0.7500   -1.2990    0.0000 N   0  0  0  0  0  0  0  0  0  0  0  0
   -1.5000    0.0000    0.0000 C   0  0  0  0  0  0  0  0  0  0  0  0
   -0.7500    1.2990    0.0000 C   0  0  0  0  0  0  0  0  0  0  0  0
   -1.5000    2.5981    0.0000 C   0  0  0  0  0  0  0  0  0  0  0  0
   -0.7500    3.8971    0.0000 C   0  0  0  0  0  0  0  0  0  0  0  0
   -1.5000    5.1962    0.0000 C   0  0  0  0  0  0  0  0  0  0  0  0
   -0.7500    6.4952    0.0000 C   0  0  0  0  0  0  0  0  0  0  0  0
    0.7500    6.4952    0.0000 C   0  0  0  0  0  0  0  0  0  0  0  0
   -1.5000    7.7942    0.0000 C   0  0  0  0  0  0  0  0  0  0  0  0
   -3.0000    7.7942    0.0000 C   0  0  0  0  0  0  0  0  0  0  0  0
   -3.7500    9.0933    0.0000 O   0  0  0  0  0  0  0  0  0  0  0  0
   -3.7500    6.4952    0.0000 C   0  0  0  0  0  0  0  0  0  0  0  0
   -3.0000    5.1962    0.0000 C   0  0  0  0  0  0  0  0  0  0  0  0
   -3.7500    3.8971    0.0000 C   0  0  0  0  0  0  0  0  0  0  0  0
    0.7500    1.2990    0.0000 C   0  0  0  0  0  0  0  0  0  0  0  0
  1  2  1  0
  2  3  1  0
  3  4  2  0
  3  5  1  0
  5  6  2  0
  6  7  1  0
  7  8  2  0
  8  9  1  0
  9 10  1  0
 10 11  2  0
 11 12  1  0
 12 13  2  0
 13 14  1  0
 13 15  1  0
 15 16  2  0
 16 17  1  0
 16 18  1  0
 18 19  2  0
 19 20  1  0
  9 21  2  0
 21  5  1  0
 19 12  1  0
M  END
>  <Compound_ID>  (102) 
CHEMBL220243

>  <Molecule Name>  (102) 
GW406731X

>  <Molecular Weight>  (102) 
283.33

>  <AlogP>  (102) 
3.36

>  <Smiles>  (102) 
COC(=O)c1cncc(/C=C/c2c(C)cc(O)cc2C)c1

>  <Standard Type>  (102) 
Inhibition

>  <Standard Relation>  (102) 
'='

>  <Standard Units>  (102) 
%

>  <Standard Value>  (102) 
1.79

>  <Assay ChEMBL ID>  (102) 
CHEMBL1962142

>  <Assay Description>  (102) 
GSK_PKIS: MET mean inhibition at 0.1 uM [Nanosyn]

>  <BAO Format ID>  (102) 
BAO_0000357

>  <BAO Label>  (102) 
single protein format

>  <Assay Organism>  (102) 
None

>  <Target ChEMBL ID>  (102) 
CHEMBL3717

>  <Target Name>  (102) 
Hepatocyte growth factor receptor

>  <Target Organism>  (102) 
Homo sapiens

>  <Target Type>  (102) 
SINGLE PROTEIN

>  <Document ChEMBL ID>  (102) 
CHEMBL1961873

>  <Source Description>  (102) 
GSK Published Kinase Inhibitor Set

>  <Document Journal>  (102) 
nan

>  <Document Year>  (102) 
nan

>  <Active>  (102) 
0.0

$$$$

     RDKit          2D

 30 33  0  0  0  0  0  0  0  0999 V2000
  -10.0849   -6.9740    0.0000 N   0  0  0  0  0  0  0  0  0  0  0  0
   -8.6583   -6.5105    0.0000 S   0  0  0  0  0  0  0  0  0  0  0  0
   -9.1218   -5.0839    0.0000 O   0  0  0  0  0  0  0  0  0  0  0  0
   -8.1948   -7.9371    0.0000 O   0  0  0  0  0  0  0  0  0  0  0  0
   -7.2317   -6.0469    0.0000 C   0  0  0  0  0  0  0  0  0  0  0  0
   -6.9199   -4.5797    0.0000 C   0  0  0  0  0  0  0  0  0  0  0  0
   -5.4933   -4.1162    0.0000 C   0  0  0  0  0  0  0  0  0  0  0  0
   -4.3786   -5.1199    0.0000 C   0  0  0  0  0  0  0  0  0  0  0  0
   -2.9520   -4.6564    0.0000 N   0  0  0  0  0  0  0  0  0  0  0  0
   -2.6401   -3.1891    0.0000 N   0  0  0  0  0  0  0  0  0  0  0  0
   -1.2135   -2.7256    0.0000 C   0  0  0  0  0  0  0  0  0  0  0  0
   -0.0000   -3.6073    0.0000 C   0  0  0  0  0  0  0  0  0  0  0  0
    0.0000   -5.1073    0.0000 O   0  0  0  0  0  0  0  0  0  0  0  0
    1.2135   -2.7256    0.0000 N   0  0  0  0  0  0  0  0  0  0  0  0
    0.7500   -1.2990    0.0000 C   0  0  0  0  0  0  0  0  0  0  0  0
    1.5000    0.0000    0.0000 C   0  0  0  0  0  0  0  0  0  0  0  0
    0.7500    1.2990    0.0000 C   0  0  0  0  0  0  0  0  0  0  0  0
   -0.7500    1.2990    0.0000 C   0  0  0  0  0  0  0  0  0  0  0  0
   -1.5000    0.0000    0.0000 C   0  0  0  0  0  0  0  0  0  0  0  0
   -3.0000    0.0000    0.0000 C   0  0  0  0  0  0  0  0  0  0  0  0
   -3.7500    1.2990    0.0000 C   0  0  0  0  0  0  0  0  0  0  0  0
   -5.2500    1.2990    0.0000 C   0  0  0  0  0  0  0  0  0  0  0  0
   -6.0000    2.5981    0.0000 C   0  0  0  0  0  0  0  0  0  0  0  0
   -7.5000    2.5981    0.0000 C   0  0  0  0  0  0  0  0  0  0  0  0
   -8.2500    1.2990    0.0000 N   0  0  0  0  0  0  0  0  0  0  0  0
   -7.5000    0.0000    0.0000 C   0  0  0  0  0  0  0  0  0  0  0  0
   -6.0000    0.0000    0.0000 C   0  0  0  0  0  0  0  0  0  0  0  0
   -0.7500   -1.2990    0.0000 C   0  0  0  0  0  0  0  0  0  0  0  0
   -4.6904   -6.5871    0.0000 C   0  0  0  0  0  0  0  0  0  0  0  0
   -6.1170   -7.0506    0.0000 C   0  0  0  0  0  0  0  0  0  0  0  0
  1  2  1  0
  2  3  2  0
  2  4  2  0
  2  5  1  0
  5  6  2  0
  6  7  1  0
  7  8  2  0
  8  9  1  0
  9 10  1  0
 10 11  2  0
 11 12  1  0
 12 13  2  0
 12 14  1  0
 14 15  1  0
 15 16  2  0
 16 17  1  0
 17 18  2  0
 18 19  1  0
 19 20  1  0
 20 21  1  0
 21 22  1  0
 22 23  2  0
 23 24  1  0
 24 25  2  0
 25 26  1  0
 26 27  2  0
 19 28  2  0
  8 29  1  0
 29 30  2  0
 30  5  1  0
 28 11  1  0
 28 15  1  0
 27 22  1  0
M  END
>  <Compound_ID>  (103) 
CHEMBL1909399

>  <Molecule Name>  (103) 
GW352430A

>  <Molecular Weight>  (103) 
457.94

>  <AlogP>  (103) 
2.28

>  <Smiles>  (103) 
NS(=O)(=O)c1ccc(N/N=C2\C(=O)Nc3cccc(CCc4ccncc4)c32)cc1

>  <Standard Type>  (103) 
Inhibition

>  <Standard Relation>  (103) 
'='

>  <Standard Units>  (103) 
%

>  <Standard Value>  (103) 
15.4

>  <Assay ChEMBL ID>  (103) 
CHEMBL1962143

>  <Assay Description>  (103) 
GSK_PKIS: MET mean inhibition at 1 uM [Nanosyn]

>  <BAO Format ID>  (103) 
BAO_0000357

>  <BAO Label>  (103) 
single protein format

>  <Assay Organism>  (103) 
None

>  <Target ChEMBL ID>  (103) 
CHEMBL3717

>  <Target Name>  (103) 
Hepatocyte growth factor receptor

>  <Target Organism>  (103) 
Homo sapiens

>  <Target Type>  (103) 
SINGLE PROTEIN

>  <Document ChEMBL ID>  (103) 
CHEMBL1961873

>  <Source Description>  (103) 
GSK Published Kinase Inhibitor Set

>  <Document Journal>  (103) 
nan

>  <Document Year>  (103) 
nan

>  <Active>  (103) 
0.0

$$$$

     RDKit          2D

 33 37  0  0  0  0  0  0  0  0999 V2000
    3.7500   -1.2990    0.0000 C   0  0  0  0  0  0  0  0  0  0  0  0
    3.0000    0.0000    0.0000 C   0  0  0  0  0  0  0  0  0  0  0  0
    1.5000    0.0000    0.0000 C   0  0  0  0  0  0  0  0  0  0  0  0
    0.7500   -1.2990    0.0000 C   0  0  0  0  0  0  0  0  0  0  0  0
   -0.7500   -1.2990    0.0000 C   0  0  0  0  0  0  0  0  0  0  0  0
   -1.5000    0.0000    0.0000 C   0  0  0  0  0  0  0  0  0  0  0  0
   -3.0000    0.0000    0.0000 O   0  0  0  0  0  0  0  0  0  0  0  0
   -3.7500    1.2990    0.0000 C   0  0  0  0  0  0  0  0  0  0  0  0
   -3.0000    2.5981    0.0000 N   0  0  0  0  0  0  0  0  0  0  0  0
   -3.7500    3.8971    0.0000 C   0  0  0  0  0  0  0  0  0  0  0  0
   -5.2500    3.8971    0.0000 C   0  0  0  0  0  0  0  0  0  0  0  0
   -6.0000    2.5981    0.0000 C   0  0  0  0  0  0  0  0  0  0  0  0
   -7.5000    2.5981    0.0000 C   0  0  0  0  0  0  0  0  0  0  0  0
   -8.3817    1.3846    0.0000 C   0  0  0  0  0  0  0  0  0  0  0  0
   -7.9182   -0.0420    0.0000 C   0  0  0  0  0  0  0  0  0  0  0  0
   -8.9218   -1.1568    0.0000 C   0  0  0  0  0  0  0  0  0  0  0  0
   -8.4583   -2.5833    0.0000 C   0  0  0  0  0  0  0  0  0  0  0  0
   -6.9911   -2.8952    0.0000 C   0  0  0  0  0  0  0  0  0  0  0  0
   -6.5276   -4.3218    0.0000 F   0  0  0  0  0  0  0  0  0  0  0  0
   -5.9874   -1.7805    0.0000 C   0  0  0  0  0  0  0  0  0  0  0  0
   -6.4509   -0.3539    0.0000 C   0  0  0  0  0  0  0  0  0  0  0  0
   -9.8083    1.8481    0.0000 N   0  0  0  0  0  0  0  0  0  0  0  0
   -9.8083    3.3481    0.0000 C   0  0  0  0  0  0  0  0  0  0  0  0
   -8.3817    3.8116    0.0000 N   0  0  0  0  0  0  0  0  0  0  0  0
   -7.9182    5.2382    0.0000 C   0  0  0  0  0  0  0  0  0  0  0  0
   -6.4509    5.5501    0.0000 C   0  0  0  0  0  0  0  0  0  0  0  0
   -5.9874    6.9766    0.0000 C   0  0  0  0  0  0  0  0  0  0  0  0
   -6.9911    8.0914    0.0000 N   0  0  0  0  0  0  0  0  0  0  0  0
   -8.4583    7.7795    0.0000 C   0  0  0  0  0  0  0  0  0  0  0  0
   -8.9218    6.3529    0.0000 C   0  0  0  0  0  0  0  0  0  0  0  0
   -5.2500    1.2990    0.0000 N   0  0  0  0  0  0  0  0  0  0  0  0
   -0.7500    1.2990    0.0000 C   0  0  0  0  0  0  0  0  0  0  0  0
    0.7500    1.2990    0.0000 C   0  0  0  0  0  0  0  0  0  0  0  0
  1  2  1  0
  2  3  1  0
  3  4  2  0
  4  5  1  0
  5  6  2  0
  6  7  1  0
  7  8  1  0
  8  9  2  0
  9 10  1  0
 10 11  2  0
 11 12  1  0
 12 13  1  0
 13 14  2  0
 14 15  1  0
 15 16  2  0
 16 17  1  0
 17 18  2  0
 18 19  1  0
 18 20  1  0
 20 21  2  0
 14 22  1  0
 22 23  2  0
 23 24  1  0
 24 25  1  0
 25 26  1  0
 26 27  1  0
 27 28  1  0
 28 29  1  0
 29 30  1  0
 12 31  2  0
  6 32  1  0
 32 33  2  0
 33  3  1  0
 31  8  1  0
 24 13  1  0
 30 25  1  0
 21 15  1  0
M  END
>  <Compound_ID>  (104) 
CHEMBL428877

>  <Molecule Name>  (104) 
nan

>  <Molecular Weight>  (104) 
443.53

>  <AlogP>  (104) 
5.43

>  <Smiles>  (104) 
CCc1ccc(Oc2nccc(-c3c(-c4ccc(F)cc4)ncn3C3CCNCC3)n2)cc1

>  <Standard Type>  (104) 
Inhibition

>  <Standard Relation>  (104) 
'='

>  <Standard Units>  (104) 
%

>  <Standard Value>  (104) 
3.25

>  <Assay ChEMBL ID>  (104) 
CHEMBL1962143

>  <Assay Description>  (104) 
GSK_PKIS: MET mean inhibition at 1 uM [Nanosyn]

>  <BAO Format ID>  (104) 
BAO_0000357

>  <BAO Label>  (104) 
single protein format

>  <Assay Organism>  (104) 
None

>  <Target ChEMBL ID>  (104) 
CHEMBL3717

>  <Target Name>  (104) 
Hepatocyte growth factor receptor

>  <Target Organism>  (104) 
Homo sapiens

>  <Target Type>  (104) 
SINGLE PROTEIN

>  <Document ChEMBL ID>  (104) 
CHEMBL1961873

>  <Source Description>  (104) 
GSK Published Kinase Inhibitor Set

>  <Document Journal>  (104) 
nan

>  <Document Year>  (104) 
nan

>  <Active>  (104) 
0.0

$$$$

     RDKit          2D

 25 26  0  0  0  0  0  0  0  0999 V2000
    6.0000   -2.5981    0.0000 C   0  0  0  0  0  0  0  0  0  0  0  0
    5.2500   -1.2990    0.0000 N   0  0  0  0  0  0  0  0  0  0  0  0
    3.7500   -1.2990    0.0000 C   0  0  0  0  0  0  0  0  0  0  0  0
    3.0000   -2.5981    0.0000 O   0  0  0  0  0  0  0  0  0  0  0  0
    3.0000    0.0000    0.0000 O   0  0  0  0  0  0  0  0  0  0  0  0
    1.5000    0.0000    0.0000 C   0  0  0  0  0  0  0  0  0  0  0  0
    0.7500   -1.2990    0.0000 C   0  0  0  0  0  0  0  0  0  0  0  0
   -0.7500   -1.2990    0.0000 C   0  0  0  0  0  0  0  0  0  0  0  0
   -1.5000   -2.5981    0.0000 C   0  0  0  0  0  0  0  0  0  0  0  0
   -1.5000    0.0000    0.0000 C   0  0  0  0  0  0  0  0  0  0  0  0
   -3.0000    0.0000    0.0000 C   0  0  0  0  0  0  0  0  0  0  0  0
   -3.7500    1.2990    0.0000 C   0  0  0  0  0  0  0  0  0  0  0  0
   -5.2500    1.2990    0.0000 C   0  0  0  0  0  0  0  0  0  0  0  0
   -6.0000    2.5981    0.0000 C   0  0  0  0  0  0  0  0  0  0  0  0
   -7.5000    2.5981    0.0000 N   0  0  0  0  0  0  0  0  0  0  0  0
   -8.2500    1.2990    0.0000 C   0  0  0  0  0  0  0  0  0  0  0  0
   -7.5000    0.0000    0.0000 C   0  0  0  0  0  0  0  0  0  0  0  0
   -8.2500   -1.2990    0.0000 C   0  0  0  0  0  0  0  0  0  0  0  0
   -7.5000   -2.5981    0.0000 O   0  0  0  0  0  0  0  0  0  0  0  0
   -9.7500   -1.2990    0.0000 N   0  0  0  0  0  0  0  0  0  0  0  0
  -10.5000   -2.5981    0.0000 C   0  0  0  0  0  0  0  0  0  0  0  0
   -6.0000    0.0000    0.0000 C   0  0  0  0  0  0  0  0  0  0  0  0
   -0.7500    1.2990    0.0000 C   0  0  0  0  0  0  0  0  0  0  0  0
   -1.5000    2.5981    0.0000 C   0  0  0  0  0  0  0  0  0  0  0  0
    0.7500    1.2990    0.0000 C   0  0  0  0  0  0  0  0  0  0  0  0
  1  2  1  0
  2  3  1  0
  3  4  2  0
  3  5  1  0
  5  6  1  0
  6  7  2  0
  7  8  1  0
  8  9  1  0
  8 10  2  0
 10 11  1  0
 11 12  2  0
 12 13  1  0
 13 14  2  0
 14 15  1  0
 15 16  2  0
 16 17  1  0
 17 18  1  0
 18 19  2  0
 18 20  1  0
 20 21  1  0
 17 22  2  0
 10 23  1  0
 23 24  1  0
 23 25  2  0
 25  6  1  0
 22 13  1  0
M  END
>  <Compound_ID>  (105) 
CHEMBL218932

>  <Molecule Name>  (105) 
GW432441X

>  <Molecular Weight>  (105) 
339.40

>  <AlogP>  (105) 
2.95

>  <Smiles>  (105) 
CNC(=O)Oc1cc(C)c(/C=C/c2cncc(C(=O)NC)c2)c(C)c1

>  <Standard Type>  (105) 
Inhibition

>  <Standard Relation>  (105) 
'='

>  <Standard Units>  (105) 
%

>  <Standard Value>  (105) 
-0.63

>  <Assay ChEMBL ID>  (105) 
CHEMBL1962143

>  <Assay Description>  (105) 
GSK_PKIS: MET mean inhibition at 1 uM [Nanosyn]

>  <BAO Format ID>  (105) 
BAO_0000357

>  <BAO Label>  (105) 
single protein format

>  <Assay Organism>  (105) 
None

>  <Target ChEMBL ID>  (105) 
CHEMBL3717

>  <Target Name>  (105) 
Hepatocyte growth factor receptor

>  <Target Organism>  (105) 
Homo sapiens

>  <Target Type>  (105) 
SINGLE PROTEIN

>  <Document ChEMBL ID>  (105) 
CHEMBL1961873

>  <Source Description>  (105) 
GSK Published Kinase Inhibitor Set

>  <Document Journal>  (105) 
nan

>  <Document Year>  (105) 
nan

>  <Active>  (105) 
0.0

$$$$

     RDKit          2D

 34 37  0  0  0  0  0  0  0  0999 V2000
    3.0000    0.0000    0.0000 N   0  0  0  0  0  0  0  0  0  0  0  0
    1.5000    0.0000    0.0000 C   0  0  0  0  0  0  0  0  0  0  0  0
    0.7500   -1.2990    0.0000 N   0  0  0  0  0  0  0  0  0  0  0  0
   -0.7500   -1.2990    0.0000 C   0  0  0  0  0  0  0  0  0  0  0  0
   -1.5000    0.0000    0.0000 N   0  0  0  0  0  0  0  0  0  0  0  0
   -0.7500    1.2990    0.0000 C   0  0  0  0  0  0  0  0  0  0  0  0
   -1.2135    2.7256    0.0000 O   0  0  0  0  0  0  0  0  0  0  0  0
   -0.0000    3.6073    0.0000 C   0  0  0  0  0  0  0  0  0  0  0  0
    1.2135    2.7256    0.0000 C   0  0  0  0  0  0  0  0  0  0  0  0
    2.6401    3.1891    0.0000 C   0  0  0  0  0  0  0  0  0  0  0  0
    3.7548    2.1855    0.0000 C   0  0  0  0  0  0  0  0  0  0  0  0
    5.1814    2.6490    0.0000 C   0  0  0  0  0  0  0  0  0  0  0  0
    5.4933    4.1162    0.0000 C   0  0  0  0  0  0  0  0  0  0  0  0
    6.9199    4.5797    0.0000 N   0  0  0  0  0  0  0  0  0  0  0  0
    8.0346    3.5760    0.0000 C   0  0  0  0  0  0  0  0  0  0  0  0
    7.7227    2.1088    0.0000 O   0  0  0  0  0  0  0  0  0  0  0  0
    9.4612    4.0396    0.0000 N   0  0  0  0  0  0  0  0  0  0  0  0
   10.5759    3.0359    0.0000 C   0  0  0  0  0  0  0  0  0  0  0  0
   10.2640    1.5686    0.0000 C   0  0  0  0  0  0  0  0  0  0  0  0
   11.3787    0.5649    0.0000 C   0  0  0  0  0  0  0  0  0  0  0  0
   11.0669   -0.9023    0.0000 C   0  0  0  0  0  0  0  0  0  0  0  0
   10.7550   -2.3695    0.0000 F   0  0  0  0  0  0  0  0  0  0  0  0
    9.5996   -0.5904    0.0000 F   0  0  0  0  0  0  0  0  0  0  0  0
   12.5341   -1.2141    0.0000 F   0  0  0  0  0  0  0  0  0  0  0  0
   12.8053    1.0285    0.0000 C   0  0  0  0  0  0  0  0  0  0  0  0
   13.1172    2.4957    0.0000 C   0  0  0  0  0  0  0  0  0  0  0  0
   14.5438    2.9592    0.0000 C   0  0  0  0  0  0  0  0  0  0  0  0
   15.9704    3.4227    0.0000 F   0  0  0  0  0  0  0  0  0  0  0  0
   15.0073    1.5326    0.0000 F   0  0  0  0  0  0  0  0  0  0  0  0
   14.0802    4.3858    0.0000 F   0  0  0  0  0  0  0  0  0  0  0  0
   12.0025    3.4994    0.0000 C   0  0  0  0  0  0  0  0  0  0  0  0
    4.3786    5.1199    0.0000 C   0  0  0  0  0  0  0  0  0  0  0  0
    2.9520    4.6564    0.0000 C   0  0  0  0  0  0  0  0  0  0  0  0
    0.7500    1.2990    0.0000 C   0  0  0  0  0  0  0  0  0  0  0  0
  1  2  1  0
  2  3  2  0
  3  4  1  0
  4  5  2  0
  5  6  1  0
  6  7  1  0
  7  8  1  0
  8  9  2  0
  9 10  1  0
 10 11  2  0
 11 12  1  0
 12 13  2  0
 13 14  1  0
 14 15  1  0
 15 16  2  0
 15 17  1  0
 17 18  1  0
 18 19  2  0
 19 20  1  0
 20 21  1  0
 21 22  1  0
 21 23  1  0
 21 24  1  0
 20 25  2  0
 25 26  1  0
 26 27  1  0
 27 28  1  0
 27 29  1  0
 27 30  1  0
 26 31  2  0
 13 32  1  0
 32 33  2  0
  9 34  1  0
 34  2  1  0
 34  6  2  0
 33 10  1  0
 31 18  1  0
M  END
>  <Compound_ID>  (106) 
CHEMBL396107

>  <Molecule Name>  (106) 
GW795486X

>  <Molecular Weight>  (106) 
481.36

>  <AlogP>  (106) 
6.15

>  <Smiles>  (106) 
Nc1ncnc2occ(-c3ccc(NC(=O)Nc4cc(C(F)(F)F)cc(C(F)(F)F)c4)cc3)c12

>  <Standard Type>  (106) 
Inhibition

>  <Standard Relation>  (106) 
'='

>  <Standard Units>  (106) 
%

>  <Standard Value>  (106) 
10.27

>  <Assay ChEMBL ID>  (106) 
CHEMBL1962143

>  <Assay Description>  (106) 
GSK_PKIS: MET mean inhibition at 1 uM [Nanosyn]

>  <BAO Format ID>  (106) 
BAO_0000357

>  <BAO Label>  (106) 
single protein format

>  <Assay Organism>  (106) 
None

>  <Target ChEMBL ID>  (106) 
CHEMBL3717

>  <Target Name>  (106) 
Hepatocyte growth factor receptor

>  <Target Organism>  (106) 
Homo sapiens

>  <Target Type>  (106) 
SINGLE PROTEIN

>  <Document ChEMBL ID>  (106) 
CHEMBL1961873

>  <Source Description>  (106) 
GSK Published Kinase Inhibitor Set

>  <Document Journal>  (106) 
nan

>  <Document Year>  (106) 
nan

>  <Active>  (106) 
0.0

$$$$

     RDKit          2D

 35 38  0  0  0  0  0  0  0  0999 V2000
    5.2500   -1.2990    0.0000 C   0  0  0  0  0  0  0  0  0  0  0  0
    3.7500   -1.2990    0.0000 N   0  0  0  0  0  0  0  0  0  0  0  0
    3.0000    0.0000    0.0000 C   0  0  0  0  0  0  0  0  0  0  0  0
    3.7500    1.2990    0.0000 O   0  0  0  0  0  0  0  0  0  0  0  0
    1.5000    0.0000    0.0000 C   0  0  0  0  0  0  0  0  0  0  0  0
    0.7500   -1.2990    0.0000 C   0  0  0  0  0  0  0  0  0  0  0  0
   -0.7500   -1.2990    0.0000 C   0  0  0  0  0  0  0  0  0  0  0  0
   -1.5000    0.0000    0.0000 C   0  0  0  0  0  0  0  0  0  0  0  0
   -0.7500    1.2990    0.0000 C   0  0  0  0  0  0  0  0  0  0  0  0
   -1.5000    2.5981    0.0000 C   0  0  0  0  0  0  0  0  0  0  0  0
   -2.2500    3.8971    0.0000 C   0  0  0  0  0  0  0  0  0  0  0  0
   -3.0000    5.1962    0.0000 C   0  0  0  0  0  0  0  0  0  0  0  0
   -2.2500    6.4952    0.0000 C   0  0  0  0  0  0  0  0  0  0  0  0
   -3.0000    7.7942    0.0000 N   0  0  0  0  0  0  0  0  0  0  0  0
   -4.5000    7.7942    0.0000 C   0  0  0  0  0  0  0  0  0  0  0  0
   -5.2500    6.4952    0.0000 N   0  0  0  0  0  0  0  0  0  0  0  0
   -4.5000    5.1962    0.0000 C   0  0  0  0  0  0  0  0  0  0  0  0
   -5.2500    3.8971    0.0000 N   0  0  0  0  0  0  0  0  0  0  0  0
   -6.7500    3.8971    0.0000 C   0  0  0  0  0  0  0  0  0  0  0  0
   -7.5000    5.1962    0.0000 C   0  0  0  0  0  0  0  0  0  0  0  0
   -9.0000    5.1962    0.0000 C   0  0  0  0  0  0  0  0  0  0  0  0
   -9.7500    3.8971    0.0000 C   0  0  0  0  0  0  0  0  0  0  0  0
  -11.2500    3.8971    0.0000 O   0  0  0  0  0  0  0  0  0  0  0  0
  -12.0000    5.1962    0.0000 C   0  0  0  0  0  0  0  0  0  0  0  0
  -13.5000    5.1962    0.0000 C   0  0  0  0  0  0  0  0  0  0  0  0
  -14.2500    6.4952    0.0000 C   0  0  0  0  0  0  0  0  0  0  0  0
  -15.7500    6.4952    0.0000 C   0  0  0  0  0  0  0  0  0  0  0  0
  -16.5000    5.1962    0.0000 C   0  0  0  0  0  0  0  0  0  0  0  0
  -15.7500    3.8971    0.0000 C   0  0  0  0  0  0  0  0  0  0  0  0
  -16.5000    2.5981    0.0000 F   0  0  0  0  0  0  0  0  0  0  0  0
  -14.2500    3.8971    0.0000 C   0  0  0  0  0  0  0  0  0  0  0  0
   -9.0000    2.5981    0.0000 C   0  0  0  0  0  0  0  0  0  0  0  0
   -9.7500    1.2990    0.0000 Cl  0  0  0  0  0  0  0  0  0  0  0  0
   -7.5000    2.5981    0.0000 C   0  0  0  0  0  0  0  0  0  0  0  0
    0.7500    1.2990    0.0000 C   0  0  0  0  0  0  0  0  0  0  0  0
  1  2  1  0
  2  3  1  0
  3  4  2  0
  3  5  1  0
  5  6  2  0
  6  7  1  0
  7  8  2  0
  8  9  1  0
  9 10  1  0
 10 11  3  0
 11 12  1  0
 12 13  2  0
 13 14  1  0
 14 15  2  0
 15 16  1  0
 16 17  2  0
 17 18  1  0
 18 19  1  0
 19 20  2  0
 20 21  1  0
 21 22  2  0
 22 23  1  0
 23 24  1  0
 24 25  1  0
 25 26  2  0
 26 27  1  0
 27 28  2  0
 28 29  1  0
 29 30  1  0
 29 31  2  0
 22 32  1  0
 32 33  1  0
 32 34  2  0
  9 35  2  0
 35  5  1  0
 17 12  1  0
 34 19  1  0
 31 25  1  0
M  END
>  <Compound_ID>  (107) 
CHEMBL207410

>  <Molecule Name>  (107) 
GW772405X

>  <Molecular Weight>  (107) 
486.93

>  <AlogP>  (107) 
5.35

>  <Smiles>  (107) 
CNC(=O)c1cccc(C#Cc2cncnc2Nc2ccc(OCc3cccc(F)c3)c(Cl)c2)c1

>  <Standard Type>  (107) 
Inhibition

>  <Standard Relation>  (107) 
'='

>  <Standard Units>  (107) 
%

>  <Standard Value>  (107) 
5.11

>  <Assay ChEMBL ID>  (107) 
CHEMBL1962143

>  <Assay Description>  (107) 
GSK_PKIS: MET mean inhibition at 1 uM [Nanosyn]

>  <BAO Format ID>  (107) 
BAO_0000357

>  <BAO Label>  (107) 
single protein format

>  <Assay Organism>  (107) 
None

>  <Target ChEMBL ID>  (107) 
CHEMBL3717

>  <Target Name>  (107) 
Hepatocyte growth factor receptor

>  <Target Organism>  (107) 
Homo sapiens

>  <Target Type>  (107) 
SINGLE PROTEIN

>  <Document ChEMBL ID>  (107) 
CHEMBL1961873

>  <Source Description>  (107) 
GSK Published Kinase Inhibitor Set

>  <Document Journal>  (107) 
nan

>  <Document Year>  (107) 
nan

>  <Active>  (107) 
0.0

$$$$

     RDKit          2D

 28 31  0  0  0  0  0  0  0  0999 V2000
    1.3299    5.6152    0.0000 C   0  0  0  0  0  0  0  0  0  0  0  0
   -0.0967    5.1517    0.0000 O   0  0  0  0  0  0  0  0  0  0  0  0
   -0.4086    3.6844    0.0000 C   0  0  0  0  0  0  0  0  0  0  0  0
    0.7062    2.6807    0.0000 C   0  0  0  0  0  0  0  0  0  0  0  0
    0.3943    1.2135    0.0000 C   0  0  0  0  0  0  0  0  0  0  0  0
    1.2760    0.0000    0.0000 N   0  0  0  0  0  0  0  0  0  0  0  0
    0.3943   -1.2135    0.0000 C   0  0  0  0  0  0  0  0  0  0  0  0
   -1.0323   -0.7500    0.0000 N   0  0  0  0  0  0  0  0  0  0  0  0
   -2.2458   -1.6317    0.0000 C   0  0  0  0  0  0  0  0  0  0  0  0
   -2.2458   -3.1317    0.0000 C   0  0  0  0  0  0  0  0  0  0  0  0
   -3.6724   -3.5952    0.0000 C   0  0  0  0  0  0  0  0  0  0  0  0
   -4.1359   -5.0218    0.0000 O   0  0  0  0  0  0  0  0  0  0  0  0
   -5.6031   -5.3337    0.0000 C   0  0  0  0  0  0  0  0  0  0  0  0
   -6.0667   -6.7602    0.0000 C   0  0  0  0  0  0  0  0  0  0  0  0
   -5.1850   -7.9738    0.0000 C   0  0  0  0  0  0  0  0  0  0  0  0
   -6.0667   -9.1873    0.0000 C   0  0  0  0  0  0  0  0  0  0  0  0
   -7.4933   -8.7238    0.0000 C   0  0  0  0  0  0  0  0  0  0  0  0
   -7.4933   -7.2238    0.0000 S   0  0  0  0  0  0  0  0  0  0  0  0
   -4.5541   -2.3817    0.0000 C   0  0  0  0  0  0  0  0  0  0  0  0
   -6.0541   -2.3817    0.0000 C   0  0  0  0  0  0  0  0  0  0  0  0
   -6.8041   -1.0826    0.0000 N   0  0  0  0  0  0  0  0  0  0  0  0
   -6.8041   -3.6807    0.0000 O   0  0  0  0  0  0  0  0  0  0  0  0
   -3.6724   -1.1682    0.0000 S   0  0  0  0  0  0  0  0  0  0  0  0
   -1.0323    0.7500    0.0000 C   0  0  0  0  0  0  0  0  0  0  0  0
   -2.1470    1.7537    0.0000 C   0  0  0  0  0  0  0  0  0  0  0  0
   -1.8351    3.2209    0.0000 C   0  0  0  0  0  0  0  0  0  0  0  0
   -2.9499    4.2246    0.0000 O   0  0  0  0  0  0  0  0  0  0  0  0
   -4.3764    3.7611    0.0000 C   0  0  0  0  0  0  0  0  0  0  0  0
  1  2  1  0
  2  3  1  0
  3  4  2  0
  4  5  1  0
  5  6  1  0
  6  7  2  0
  7  8  1  0
  8  9  1  0
  9 10  2  0
 10 11  1  0
 11 12  1  0
 12 13  1  0
 13 14  1  0
 14 15  2  0
 15 16  1  0
 16 17  2  0
 17 18  1  0
 11 19  2  0
 19 20  1  0
 20 21  1  0
 20 22  2  0
 19 23  1  0
  8 24  1  0
 24 25  1  0
 25 26  2  0
 26 27  1  0
 27 28  1  0
 26  3  1  0
 24  5  2  0
 23  9  1  0
 18 14  1  0
M  END
>  <Compound_ID>  (108) 
CHEMBL480382

>  <Molecule Name>  (108) 
GSK-312948A

>  <Molecular Weight>  (108) 
415.50

>  <AlogP>  (108) 
3.84

>  <Smiles>  (108) 
COc1cc2ncn(-c3cc(OCc4cccs4)c(C(N)=O)s3)c2cc1OC

>  <Standard Type>  (108) 
Inhibition

>  <Standard Relation>  (108) 
'='

>  <Standard Units>  (108) 
%

>  <Standard Value>  (108) 
13.43

>  <Assay ChEMBL ID>  (108) 
CHEMBL1962143

>  <Assay Description>  (108) 
GSK_PKIS: MET mean inhibition at 1 uM [Nanosyn]

>  <BAO Format ID>  (108) 
BAO_0000357

>  <BAO Label>  (108) 
single protein format

>  <Assay Organism>  (108) 
None

>  <Target ChEMBL ID>  (108) 
CHEMBL3717

>  <Target Name>  (108) 
Hepatocyte growth factor receptor

>  <Target Organism>  (108) 
Homo sapiens

>  <Target Type>  (108) 
SINGLE PROTEIN

>  <Document ChEMBL ID>  (108) 
CHEMBL1961873

>  <Source Description>  (108) 
GSK Published Kinase Inhibitor Set

>  <Document Journal>  (108) 
nan

>  <Document Year>  (108) 
nan

>  <Active>  (108) 
0.0

$$$$

     RDKit          2D

 31 33  0  0  0  0  0  0  0  0999 V2000
    4.7010   -3.3481    0.0000 C   0  0  0  0  0  0  0  0  0  0  0  0
    6.0000   -2.5981    0.0000 C   0  0  0  0  0  0  0  0  0  0  0  0
    7.2990   -1.8481    0.0000 C   0  0  0  0  0  0  0  0  0  0  0  0
    6.7500   -3.8971    0.0000 C   0  0  0  0  0  0  0  0  0  0  0  0
    6.0000   -5.1962    0.0000 O   0  0  0  0  0  0  0  0  0  0  0  0
    5.2500   -1.2990    0.0000 C   0  0  0  0  0  0  0  0  0  0  0  0
    3.7500   -1.2990    0.0000 N   0  0  0  0  0  0  0  0  0  0  0  0
    3.0000    0.0000    0.0000 C   0  0  0  0  0  0  0  0  0  0  0  0
    3.7500    1.2990    0.0000 O   0  0  0  0  0  0  0  0  0  0  0  0
    1.5000    0.0000    0.0000 C   0  0  0  0  0  0  0  0  0  0  0  0
    0.7500   -1.2990    0.0000 C   0  0  0  0  0  0  0  0  0  0  0  0
   -0.7500   -1.2990    0.0000 C   0  0  0  0  0  0  0  0  0  0  0  0
   -1.5000    0.0000    0.0000 C   0  0  0  0  0  0  0  0  0  0  0  0
   -0.7500    1.2990    0.0000 C   0  0  0  0  0  0  0  0  0  0  0  0
    0.7500    1.2990    0.0000 C   0  0  0  0  0  0  0  0  0  0  0  0
   -1.7537    2.4138    0.0000 C   0  0  0  0  0  0  0  0  0  0  0  0
   -1.4418    3.8810    0.0000 N   0  0  0  0  0  0  0  0  0  0  0  0
   -2.5565    4.8847    0.0000 N   0  0  0  0  0  0  0  0  0  0  0  0
   -2.2447    6.3519    0.0000 C   0  0  0  0  0  0  0  0  0  0  0  0
   -0.8181    6.8154    0.0000 C   0  0  0  0  0  0  0  0  0  0  0  0
   -0.5062    8.2826    0.0000 C   0  0  0  0  0  0  0  0  0  0  0  0
   -1.6209    9.2863    0.0000 C   0  0  0  0  0  0  0  0  0  0  0  0
   -1.3091   10.7536    0.0000 S   0  0  0  0  0  0  0  0  0  0  0  0
   -0.9972   12.2208    0.0000 N   0  0  0  0  0  0  0  0  0  0  0  0
    0.1581   10.4417    0.0000 O   0  0  0  0  0  0  0  0  0  0  0  0
   -2.7763   11.0654    0.0000 O   0  0  0  0  0  0  0  0  0  0  0  0
   -3.0475    8.8228    0.0000 C   0  0  0  0  0  0  0  0  0  0  0  0
   -3.3594    7.3556    0.0000 C   0  0  0  0  0  0  0  0  0  0  0  0
   -3.1240    1.8037    0.0000 C   0  0  0  0  0  0  0  0  0  0  0  0
   -4.4231    2.5537    0.0000 O   0  0  0  0  0  0  0  0  0  0  0  0
   -2.9672    0.3119    0.0000 N   0  0  0  0  0  0  0  0  0  0  0  0
  1  2  1  0
  2  3  1  0
  2  4  1  0
  4  5  1  0
  2  6  1  0
  6  7  1  0
  7  8  1  0
  8  9  2  0
  8 10  1  0
 10 11  2  0
 11 12  1  0
 12 13  2  0
 13 14  1  0
 14 15  2  0
 14 16  1  0
 16 17  2  0
 17 18  1  0
 18 19  1  0
 19 20  2  0
 20 21  1  0
 21 22  2  0
 22 23  1  0
 23 24  1  0
 23 25  2  0
 23 26  2  0
 22 27  1  0
 27 28  2  0
 16 29  1  0
 29 30  2  0
 29 31  1  0
 15 10  1  0
 28 19  1  0
 31 13  1  0
M  END
>  <Compound_ID>  (109) 
CHEMBL410072

>  <Molecule Name>  (109) 
GW301784X

>  <Molecular Weight>  (109) 
445.50

>  <AlogP>  (109) 
0.85

>  <Smiles>  (109) 
CC(C)(CO)CNC(=O)c1ccc2c(c1)/C(=N/Nc1ccc(S(N)(=O)=O)cc1)C(=O)N2

>  <Standard Type>  (109) 
Inhibition

>  <Standard Relation>  (109) 
'='

>  <Standard Units>  (109) 
%

>  <Standard Value>  (109) 
9.65

>  <Assay ChEMBL ID>  (109) 
CHEMBL1962142

>  <Assay Description>  (109) 
GSK_PKIS: MET mean inhibition at 0.1 uM [Nanosyn]

>  <BAO Format ID>  (109) 
BAO_0000357

>  <BAO Label>  (109) 
single protein format

>  <Assay Organism>  (109) 
None

>  <Target ChEMBL ID>  (109) 
CHEMBL3717

>  <Target Name>  (109) 
Hepatocyte growth factor receptor

>  <Target Organism>  (109) 
Homo sapiens

>  <Target Type>  (109) 
SINGLE PROTEIN

>  <Document ChEMBL ID>  (109) 
CHEMBL1961873

>  <Source Description>  (109) 
GSK Published Kinase Inhibitor Set

>  <Document Journal>  (109) 
nan

>  <Document Year>  (109) 
nan

>  <Active>  (109) 
0.0

$$$$

     RDKit          2D

 34 37  0  0  0  0  0  0  0  0999 V2000
    0.9345    9.0350    0.0000 C   0  0  0  0  0  0  0  0  0  0  0  0
    1.3980    7.6085    0.0000 O   0  0  0  0  0  0  0  0  0  0  0  0
    0.3943    6.4937    0.0000 C   0  0  0  0  0  0  0  0  0  0  0  0
   -1.0729    6.8056    0.0000 O   0  0  0  0  0  0  0  0  0  0  0  0
    0.8578    5.0672    0.0000 C   0  0  0  0  0  0  0  0  0  0  0  0
   -0.0239    3.8536    0.0000 S   0  0  0  0  0  0  0  0  0  0  0  0
    0.8578    2.6401    0.0000 C   0  0  0  0  0  0  0  0  0  0  0  0
    0.3943    1.2135    0.0000 N   0  0  0  0  0  0  0  0  0  0  0  0
    1.2760    0.0000    0.0000 C   0  0  0  0  0  0  0  0  0  0  0  0
    0.3943   -1.2135    0.0000 N   0  0  0  0  0  0  0  0  0  0  0  0
   -1.0323   -0.7500    0.0000 C   0  0  0  0  0  0  0  0  0  0  0  0
   -2.3313   -1.5000    0.0000 C   0  0  0  0  0  0  0  0  0  0  0  0
   -3.6304   -0.7500    0.0000 C   0  0  0  0  0  0  0  0  0  0  0  0
   -4.9294   -1.5000    0.0000 O   0  0  0  0  0  0  0  0  0  0  0  0
   -6.2284   -0.7500    0.0000 C   0  0  0  0  0  0  0  0  0  0  0  0
   -3.6304    0.7500    0.0000 C   0  0  0  0  0  0  0  0  0  0  0  0
   -4.9294    1.5000    0.0000 O   0  0  0  0  0  0  0  0  0  0  0  0
   -4.9294    3.0000    0.0000 C   0  0  0  0  0  0  0  0  0  0  0  0
   -2.3313    1.5000    0.0000 C   0  0  0  0  0  0  0  0  0  0  0  0
   -1.0323    0.7500    0.0000 C   0  0  0  0  0  0  0  0  0  0  0  0
    2.2844    3.1036    0.0000 C   0  0  0  0  0  0  0  0  0  0  0  0
    2.2844    4.6036    0.0000 C   0  0  0  0  0  0  0  0  0  0  0  0
    3.4979    5.4853    0.0000 O   0  0  0  0  0  0  0  0  0  0  0  0
    4.8683    4.8752    0.0000 C   0  0  0  0  0  0  0  0  0  0  0  0
    6.0818    5.7569    0.0000 C   0  0  0  0  0  0  0  0  0  0  0  0
    7.4521    5.1468    0.0000 C   0  0  0  0  0  0  0  0  0  0  0  0
    8.6656    6.0285    0.0000 C   0  0  0  0  0  0  0  0  0  0  0  0
    8.5088    7.5202    0.0000 C   0  0  0  0  0  0  0  0  0  0  0  0
    7.1385    8.1303    0.0000 C   0  0  0  0  0  0  0  0  0  0  0  0
    5.9250    7.2487    0.0000 C   0  0  0  0  0  0  0  0  0  0  0  0
    4.5547    7.8588    0.0000 C   0  0  0  0  0  0  0  0  0  0  0  0
    3.1843    8.4689    0.0000 F   0  0  0  0  0  0  0  0  0  0  0  0
    5.1648    9.2291    0.0000 F   0  0  0  0  0  0  0  0  0  0  0  0
    3.9446    6.4885    0.0000 F   0  0  0  0  0  0  0  0  0  0  0  0
  1  2  1  0
  2  3  1  0
  3  4  2  0
  3  5  1  0
  5  6  1  0
  6  7  1  0
  7  8  1  0
  8  9  1  0
  9 10  2  0
 10 11  1  0
 11 12  2  0
 12 13  1  0
 13 14  1  0
 14 15  1  0
 13 16  2  0
 16 17  1  0
 17 18  1  0
 16 19  1  0
 19 20  2  0
  7 21  2  0
 21 22  1  0
 22 23  1  0
 23 24  1  0
 24 25  1  0
 25 26  2  0
 26 27  1  0
 27 28  2  0
 28 29  1  0
 29 30  2  0
 30 31  1  0
 31 32  1  0
 31 33  1  0
 31 34  1  0
 22  5  2  0
 30 25  1  0
 20  8  1  0
 20 11  1  0
M  END
>  <Compound_ID>  (110) 
CHEMBL473420

>  <Molecule Name>  (110) 
GSK-1030058A

>  <Molecular Weight>  (110) 
492.48

>  <AlogP>  (110) 
5.49

>  <Smiles>  (110) 
COC(=O)c1sc(-n2cnc3cc(OC)c(OC)cc32)cc1OCc1ccccc1C(F)(F)F

>  <Standard Type>  (110) 
Inhibition

>  <Standard Relation>  (110) 
'='

>  <Standard Units>  (110) 
%

>  <Standard Value>  (110) 
-0.86

>  <Assay ChEMBL ID>  (110) 
CHEMBL1962142

>  <Assay Description>  (110) 
GSK_PKIS: MET mean inhibition at 0.1 uM [Nanosyn]

>  <BAO Format ID>  (110) 
BAO_0000357

>  <BAO Label>  (110) 
single protein format

>  <Assay Organism>  (110) 
None

>  <Target ChEMBL ID>  (110) 
CHEMBL3717

>  <Target Name>  (110) 
Hepatocyte growth factor receptor

>  <Target Organism>  (110) 
Homo sapiens

>  <Target Type>  (110) 
SINGLE PROTEIN

>  <Document ChEMBL ID>  (110) 
CHEMBL1961873

>  <Source Description>  (110) 
GSK Published Kinase Inhibitor Set

>  <Document Journal>  (110) 
nan

>  <Document Year>  (110) 
nan

>  <Active>  (110) 
0.0

$$$$

     RDKit          2D

 22 25  0  0  0  0  0  0  0  0999 V2000
    2.6401   -3.1891    0.0000 N   0  0  0  0  0  0  0  0  0  0  0  0
    1.2135   -2.7256    0.0000 C   0  0  0  0  0  0  0  0  0  0  0  0
    0.7500   -1.2990    0.0000 C   0  0  0  0  0  0  0  0  0  0  0  0
    1.5000    0.0000    0.0000 C   0  0  0  0  0  0  0  0  0  0  0  0
    0.7500    1.2990    0.0000 N   0  0  0  0  0  0  0  0  0  0  0  0
   -0.7500    1.2990    0.0000 C   0  0  0  0  0  0  0  0  0  0  0  0
   -1.5000    2.5981    0.0000 C   0  0  0  0  0  0  0  0  0  0  0  0
   -0.7500    3.8971    0.0000 C   0  0  0  0  0  0  0  0  0  0  0  0
   -1.5000    5.1962    0.0000 C   0  0  0  0  0  0  0  0  0  0  0  0
   -3.0000    5.1962    0.0000 C   0  0  0  0  0  0  0  0  0  0  0  0
   -3.7500    3.8971    0.0000 C   0  0  0  0  0  0  0  0  0  0  0  0
   -3.0000    2.5981    0.0000 C   0  0  0  0  0  0  0  0  0  0  0  0
   -1.5000    0.0000    0.0000 C   0  0  0  0  0  0  0  0  0  0  0  0
   -0.7500   -1.2990    0.0000 C   0  0  0  0  0  0  0  0  0  0  0  0
   -1.2135   -2.7256    0.0000 N   0  0  0  0  0  0  0  0  0  0  0  0
   -0.0000   -3.6073    0.0000 N   0  0  0  0  0  0  0  0  0  0  0  0
   -0.0000   -5.1073    0.0000 C   0  0  0  0  0  0  0  0  0  0  0  0
   -1.2990   -5.8573    0.0000 C   0  0  0  0  0  0  0  0  0  0  0  0
   -1.2990   -7.3573    0.0000 C   0  0  0  0  0  0  0  0  0  0  0  0
   -0.0000   -8.1073    0.0000 C   0  0  0  0  0  0  0  0  0  0  0  0
    1.2990   -7.3573    0.0000 C   0  0  0  0  0  0  0  0  0  0  0  0
    1.2990   -5.8573    0.0000 C   0  0  0  0  0  0  0  0  0  0  0  0
  1  2  1  0
  2  3  2  0
  3  4  1  0
  4  5  2  0
  5  6  1  0
  6  7  1  0
  7  8  2  0
  8  9  1  0
  9 10  2  0
 10 11  1  0
 11 12  2  0
  6 13  2  0
 13 14  1  0
 14 15  2  0
 15 16  1  0
 16 17  1  0
 17 18  2  0
 18 19  1  0
 19 20  2  0
 20 21  1  0
 21 22  2  0
 16  2  1  0
 22 17  1  0
 14  3  1  0
 12  7  1  0
M  END
>  <Compound_ID>  (111) 
CHEMBL1813802

>  <Molecule Name>  (111) 
nan

>  <Molecular Weight>  (111) 
286.34

>  <AlogP>  (111) 
3.67

>  <Smiles>  (111) 
Nc1c2cnc(-c3ccccc3)cc2nn1-c1ccccc1

>  <Standard Type>  (111) 
Inhibition

>  <Standard Relation>  (111) 
'='

>  <Standard Units>  (111) 
%

>  <Standard Value>  (111) 
6.0

>  <Assay ChEMBL ID>  (111) 
CHEMBL1815730

>  <Assay Description>  (111) 
Inhibition of MET at 30 uM by microfluidic mobility shift assay

>  <BAO Format ID>  (111) 
BAO_0000357

>  <BAO Label>  (111) 
single protein format

>  <Assay Organism>  (111) 
None

>  <Target ChEMBL ID>  (111) 
CHEMBL3717

>  <Target Name>  (111) 
Hepatocyte growth factor receptor

>  <Target Organism>  (111) 
Homo sapiens

>  <Target Type>  (111) 
SINGLE PROTEIN

>  <Document ChEMBL ID>  (111) 
CHEMBL1811853

>  <Source Description>  (111) 
Scientific Literature

>  <Document Journal>  (111) 
Bioorg Med Chem

>  <Document Year>  (111) 
2011.0

>  <Active>  (111) 
0.0

$$$$

     RDKit          2D

 23 25  0  0  0  0  0  0  0  0999 V2000
    1.8478   -6.4639    0.0000 O   0  0  0  0  0  0  0  0  0  0  0  0
    2.0046   -4.9721    0.0000 C   0  0  0  0  0  0  0  0  0  0  0  0
    3.3037   -4.2221    0.0000 N   0  0  0  0  0  0  0  0  0  0  0  0
    2.9918   -2.7549    0.0000 C   0  0  0  0  0  0  0  0  0  0  0  0
    3.9955   -1.6402    0.0000 O   0  0  0  0  0  0  0  0  0  0  0  0
    1.5000   -2.5981    0.0000 C   0  0  0  0  0  0  0  0  0  0  0  0
    0.7500   -1.2990    0.0000 C   0  0  0  0  0  0  0  0  0  0  0  0
    1.5000    0.0000    0.0000 C   0  0  0  0  0  0  0  0  0  0  0  0
    0.7500    1.2990    0.0000 C   0  0  0  0  0  0  0  0  0  0  0  0
   -0.7500    1.2990    0.0000 C   0  0  0  0  0  0  0  0  0  0  0  0
   -1.5000    0.0000    0.0000 C   0  0  0  0  0  0  0  0  0  0  0  0
   -3.0000    0.0000    0.0000 Cl  0  0  0  0  0  0  0  0  0  0  0  0
   -0.7500   -1.2990    0.0000 C   0  0  0  0  0  0  0  0  0  0  0  0
    0.8899   -3.9684    0.0000 C   0  0  0  0  0  0  0  0  0  0  0  0
   -0.5773   -4.2803    0.0000 N   0  0  0  0  0  0  0  0  0  0  0  0
   -1.0409   -5.7068    0.0000 C   0  0  0  0  0  0  0  0  0  0  0  0
   -2.5081   -6.0187    0.0000 C   0  0  0  0  0  0  0  0  0  0  0  0
   -2.9716   -7.4453    0.0000 C   0  0  0  0  0  0  0  0  0  0  0  0
   -1.9679   -8.5600    0.0000 C   0  0  0  0  0  0  0  0  0  0  0  0
   -2.4314   -9.9866    0.0000 O   0  0  0  0  0  0  0  0  0  0  0  0
   -0.5007   -8.2481    0.0000 C   0  0  0  0  0  0  0  0  0  0  0  0
    0.5030   -9.3629    0.0000 Cl  0  0  0  0  0  0  0  0  0  0  0  0
   -0.0372   -6.8216    0.0000 C   0  0  0  0  0  0  0  0  0  0  0  0
  1  2  2  0
  2  3  1  0
  3  4  1  0
  4  5  2  0
  4  6  1  0
  6  7  1  0
  7  8  2  0
  8  9  1  0
  9 10  2  0
 10 11  1  0
 11 12  1  0
 11 13  2  0
  6 14  2  0
 14 15  1  0
 15 16  1  0
 16 17  2  0
 17 18  1  0
 18 19  2  0
 19 20  1  0
 19 21  1  0
 21 22  1  0
 21 23  2  0
 14  2  1  0
 23 16  1  0
 13  7  1  0
M  END
>  <Compound_ID>  (112) 
CHEMBL160333

>  <Molecule Name>  (112) 
nan

>  <Molecular Weight>  (112) 
349.17

>  <AlogP>  (112) 
3.18

>  <Smiles>  (112) 
O=C1NC(=O)C(c2cccc(Cl)c2)=C1Nc1ccc(O)c(Cl)c1

>  <Standard Type>  (112) 
Inhibition

>  <Standard Relation>  (112) 
'='

>  <Standard Units>  (112) 
%

>  <Standard Value>  (112) 
0.77

>  <Assay ChEMBL ID>  (112) 
CHEMBL1962142

>  <Assay Description>  (112) 
GSK_PKIS: MET mean inhibition at 0.1 uM [Nanosyn]

>  <BAO Format ID>  (112) 
BAO_0000357

>  <BAO Label>  (112) 
single protein format

>  <Assay Organism>  (112) 
None

>  <Target ChEMBL ID>  (112) 
CHEMBL3717

>  <Target Name>  (112) 
Hepatocyte growth factor receptor

>  <Target Organism>  (112) 
Homo sapiens

>  <Target Type>  (112) 
SINGLE PROTEIN

>  <Document ChEMBL ID>  (112) 
CHEMBL1961873

>  <Source Description>  (112) 
GSK Published Kinase Inhibitor Set

>  <Document Journal>  (112) 
nan

>  <Document Year>  (112) 
nan

>  <Active>  (112) 
0.0

$$$$

     RDKit          2D

 24 26  0  0  0  0  0  0  0  0999 V2000
    3.7500   -1.2990    0.0000 N   0  0  0  0  0  0  0  0  0  0  0  0
    3.0000    0.0000    0.0000 C   0  0  0  0  0  0  0  0  0  0  0  0
    3.7500    1.2990    0.0000 O   0  0  0  0  0  0  0  0  0  0  0  0
    1.5000    0.0000    0.0000 C   0  0  0  0  0  0  0  0  0  0  0  0
    0.7500   -1.2990    0.0000 C   0  0  0  0  0  0  0  0  0  0  0  0
   -0.7500   -1.2990    0.0000 C   0  0  0  0  0  0  0  0  0  0  0  0
   -1.5000    0.0000    0.0000 C   0  0  0  0  0  0  0  0  0  0  0  0
   -0.7500    1.2990    0.0000 C   0  0  0  0  0  0  0  0  0  0  0  0
   -1.5000    2.5981    0.0000 N   0  0  0  0  0  0  0  0  0  0  0  0
   -0.7500    3.8971    0.0000 C   0  0  0  0  0  0  0  0  0  0  0  0
    0.7500    3.8971    0.0000 N   0  0  0  0  0  0  0  0  0  0  0  0
    1.5000    5.1962    0.0000 C   0  0  0  0  0  0  0  0  0  0  0  0
    0.7500    6.4952    0.0000 C   0  0  0  0  0  0  0  0  0  0  0  0
   -0.7500    6.4952    0.0000 C   0  0  0  0  0  0  0  0  0  0  0  0
   -1.5000    7.7942    0.0000 N   0  0  0  0  0  0  0  0  0  0  0  0
   -0.7500    9.0933    0.0000 C   0  0  0  0  0  0  0  0  0  0  0  0
    0.7500    9.0933    0.0000 C   0  0  0  0  0  0  0  0  0  0  0  0
    1.5000   10.3923    0.0000 C   0  0  0  0  0  0  0  0  0  0  0  0
    0.7500   11.6913    0.0000 C   0  0  0  0  0  0  0  0  0  0  0  0
   -0.7500   11.6913    0.0000 C   0  0  0  0  0  0  0  0  0  0  0  0
   -1.5000   12.9904    0.0000 F   0  0  0  0  0  0  0  0  0  0  0  0
   -1.5000   10.3923    0.0000 C   0  0  0  0  0  0  0  0  0  0  0  0
   -1.5000    5.1962    0.0000 N   0  0  0  0  0  0  0  0  0  0  0  0
    0.7500    1.2990    0.0000 C   0  0  0  0  0  0  0  0  0  0  0  0
  1  2  1  0
  2  3  2  0
  2  4  1  0
  4  5  2  0
  5  6  1  0
  6  7  2  0
  7  8  1  0
  8  9  1  0
  9 10  1  0
 10 11  2  0
 11 12  1  0
 12 13  2  0
 13 14  1  0
 14 15  1  0
 15 16  1  0
 16 17  2  0
 17 18  1  0
 18 19  2  0
 19 20  1  0
 20 21  1  0
 20 22  2  0
 14 23  2  0
  8 24  2  0
 24  4  1  0
 23 10  1  0
 22 16  1  0
M  END
>  <Compound_ID>  (113) 
CHEMBL1909382

>  <Molecule Name>  (113) 
GW759710A

>  <Molecular Weight>  (113) 
359.79

>  <AlogP>  (113) 
3.20

>  <Smiles>  (113) 
NC(=O)c1cccc(Nc2nccc(Nc3cccc(F)c3)n2)c1

>  <Standard Type>  (113) 
Inhibition

>  <Standard Relation>  (113) 
'='

>  <Standard Units>  (113) 
%

>  <Standard Value>  (113) 
7.98

>  <Assay ChEMBL ID>  (113) 
CHEMBL1962142

>  <Assay Description>  (113) 
GSK_PKIS: MET mean inhibition at 0.1 uM [Nanosyn]

>  <BAO Format ID>  (113) 
BAO_0000357

>  <BAO Label>  (113) 
single protein format

>  <Assay Organism>  (113) 
None

>  <Target ChEMBL ID>  (113) 
CHEMBL3717

>  <Target Name>  (113) 
Hepatocyte growth factor receptor

>  <Target Organism>  (113) 
Homo sapiens

>  <Target Type>  (113) 
SINGLE PROTEIN

>  <Document ChEMBL ID>  (113) 
CHEMBL1961873

>  <Source Description>  (113) 
GSK Published Kinase Inhibitor Set

>  <Document Journal>  (113) 
nan

>  <Document Year>  (113) 
nan

>  <Active>  (113) 
0.0

$$$$

     RDKit          2D

 35 39  0  0  0  0  0  0  0  0999 V2000
   -3.7500  -11.6913    0.0000 C   0  0  0  0  0  0  0  0  0  0  0  0
   -3.0000  -10.3923    0.0000 N   0  0  0  0  0  0  0  0  0  0  0  0
   -3.7500   -9.0933    0.0000 C   0  0  0  0  0  0  0  0  0  0  0  0
   -3.0000   -7.7942    0.0000 C   0  0  0  0  0  0  0  0  0  0  0  0
   -1.5000   -7.7942    0.0000 N   0  0  0  0  0  0  0  0  0  0  0  0
   -0.7500   -6.4952    0.0000 C   0  0  0  0  0  0  0  0  0  0  0  0
    0.7500   -6.4952    0.0000 C   0  0  0  0  0  0  0  0  0  0  0  0
    1.5000   -5.1962    0.0000 C   0  0  0  0  0  0  0  0  0  0  0  0
    0.7500   -3.8971    0.0000 C   0  0  0  0  0  0  0  0  0  0  0  0
    1.5000   -2.5981    0.0000 N   0  0  0  0  0  0  0  0  0  0  0  0
    0.7500   -1.2990    0.0000 C   0  0  0  0  0  0  0  0  0  0  0  0
    1.5000    0.0000    0.0000 N   0  0  0  0  0  0  0  0  0  0  0  0
    0.7500    1.2990    0.0000 C   0  0  0  0  0  0  0  0  0  0  0  0
   -0.7500    1.2990    0.0000 C   0  0  0  0  0  0  0  0  0  0  0  0
   -1.5000    2.5981    0.0000 C   0  0  0  0  0  0  0  0  0  0  0  0
   -3.0000    2.5981    0.0000 C   0  0  0  0  0  0  0  0  0  0  0  0
   -3.7500    3.8971    0.0000 O   0  0  0  0  0  0  0  0  0  0  0  0
   -3.0000    5.1962    0.0000 C   0  0  0  0  0  0  0  0  0  0  0  0
   -1.5000    5.1962    0.0000 C   0  0  0  0  0  0  0  0  0  0  0  0
   -0.7500    3.8971    0.0000 Cl  0  0  0  0  0  0  0  0  0  0  0  0
   -0.7500    6.4952    0.0000 C   0  0  0  0  0  0  0  0  0  0  0  0
   -1.5000    7.7942    0.0000 C   0  0  0  0  0  0  0  0  0  0  0  0
   -3.0000    7.7942    0.0000 C   0  0  0  0  0  0  0  0  0  0  0  0
   -3.7500    6.4952    0.0000 C   0  0  0  0  0  0  0  0  0  0  0  0
   -5.2500    6.4952    0.0000 Cl  0  0  0  0  0  0  0  0  0  0  0  0
   -3.7500    1.2990    0.0000 C   0  0  0  0  0  0  0  0  0  0  0  0
   -5.2500    1.2990    0.0000 O   0  0  0  0  0  0  0  0  0  0  0  0
   -3.0000    0.0000    0.0000 N   0  0  0  0  0  0  0  0  0  0  0  0
   -3.7500   -1.2990    0.0000 C   0  0  0  0  0  0  0  0  0  0  0  0
   -1.5000    0.0000    0.0000 C   0  0  0  0  0  0  0  0  0  0  0  0
   -0.7500   -1.2990    0.0000 N   0  0  0  0  0  0  0  0  0  0  0  0
   -0.7500   -3.8971    0.0000 C   0  0  0  0  0  0  0  0  0  0  0  0
   -1.5000   -5.1962    0.0000 C   0  0  0  0  0  0  0  0  0  0  0  0
   -0.7500   -9.0933    0.0000 C   0  0  0  0  0  0  0  0  0  0  0  0
   -1.5000  -10.3923    0.0000 C   0  0  0  0  0  0  0  0  0  0  0  0
  1  2  1  0
  2  3  1  0
  3  4  1  0
  4  5  1  0
  5  6  1  0
  6  7  2  0
  7  8  1  0
  8  9  2  0
  9 10  1  0
 10 11  1  0
 11 12  2  0
 12 13  1  0
 13 14  2  0
 14 15  1  0
 15 16  2  0
 16 17  1  0
 17 18  1  0
 18 19  2  0
 19 20  1  0
 19 21  1  0
 21 22  2  0
 22 23  1  0
 23 24  2  0
 24 25  1  0
 16 26  1  0
 26 27  2  0
 26 28  1  0
 28 29  1  0
 28 30  1  0
 30 31  2  0
  9 32  1  0
 32 33  2  0
  5 34  1  0
 34 35  1  0
 35  2  1  0
 33  6  1  0
 31 11  1  0
 30 14  1  0
 24 18  1  0
M  END
>  <Compound_ID>  (114) 
CHEMBL3747023

>  <Molecule Name>  (114) 
nan

>  <Molecular Weight>  (114) 
511.41

>  <AlogP>  (114) 
4.92

>  <Smiles>  (114) 
CN1CCN(c2ccc(Nc3ncc4cc(Oc5c(Cl)cccc5Cl)c(=O)n(C)c4n3)cc2)CC1

>  <Standard Type>  (114) 
Inhibition

>  <Standard Relation>  (114) 
'='

>  <Standard Units>  (114) 
%

>  <Standard Value>  (114) 
4.0

>  <Assay ChEMBL ID>  (114) 
CHEMBL3750644

>  <Assay Description>  (114) 
Inhibition of cMET (unknown origin) at 10 uM

>  <BAO Format ID>  (114) 
BAO_0000357

>  <BAO Label>  (114) 
single protein format

>  <Assay Organism>  (114) 
Homo sapiens

>  <Target ChEMBL ID>  (114) 
CHEMBL3717

>  <Target Name>  (114) 
Hepatocyte growth factor receptor

>  <Target Organism>  (114) 
Homo sapiens

>  <Target Type>  (114) 
SINGLE PROTEIN

>  <Document ChEMBL ID>  (114) 
CHEMBL3745672

>  <Source Description>  (114) 
Scientific Literature

>  <Document Journal>  (114) 
Bioorg Med Chem Lett

>  <Document Year>  (114) 
2016.0

>  <Active>  (114) 
0.0

$$$$

     RDKit          2D

 25 28  0  0  0  0  0  0  0  0999 V2000
   -3.7548   -2.1855    0.0000 C   0  0  0  0  0  0  0  0  0  0  0  0
   -2.6401   -3.1891    0.0000 C   0  0  0  0  0  0  0  0  0  0  0  0
   -1.2135   -2.7256    0.0000 N   0  0  0  0  0  0  0  0  0  0  0  0
   -0.0000   -3.6073    0.0000 C   0  0  0  0  0  0  0  0  0  0  0  0
   -0.0000   -5.1073    0.0000 C   0  0  0  0  0  0  0  0  0  0  0  0
    1.2135   -5.9890    0.0000 N   0  0  0  0  0  0  0  0  0  0  0  0
    0.7500   -7.4156    0.0000 O   0  0  0  0  0  0  0  0  0  0  0  0
   -0.7500   -7.4156    0.0000 N   0  0  0  0  0  0  0  0  0  0  0  0
   -1.2135   -5.9890    0.0000 C   0  0  0  0  0  0  0  0  0  0  0  0
   -2.6401   -5.5255    0.0000 N   0  0  0  0  0  0  0  0  0  0  0  0
    1.2135   -2.7256    0.0000 N   0  0  0  0  0  0  0  0  0  0  0  0
    0.7500   -1.2990    0.0000 C   0  0  0  0  0  0  0  0  0  0  0  0
    1.5000    0.0000    0.0000 C   0  0  0  0  0  0  0  0  0  0  0  0
    0.7500    1.2990    0.0000 N   0  0  0  0  0  0  0  0  0  0  0  0
   -0.7500    1.2990    0.0000 C   0  0  0  0  0  0  0  0  0  0  0  0
   -1.5000    0.0000    0.0000 C   0  0  0  0  0  0  0  0  0  0  0  0
   -3.0000    0.0000    0.0000 C   0  0  0  0  0  0  0  0  0  0  0  0
   -3.7500   -1.2990    0.0000 O   0  0  0  0  0  0  0  0  0  0  0  0
   -3.7500    1.2990    0.0000 N   0  0  0  0  0  0  0  0  0  0  0  0
   -3.0000    2.5981    0.0000 C   0  0  0  0  0  0  0  0  0  0  0  0
   -3.7500    3.8971    0.0000 C   0  0  0  0  0  0  0  0  0  0  0  0
   -5.2500    3.8971    0.0000 N   0  0  0  0  0  0  0  0  0  0  0  0
   -6.0000    2.5981    0.0000 C   0  0  0  0  0  0  0  0  0  0  0  0
   -5.2500    1.2990    0.0000 C   0  0  0  0  0  0  0  0  0  0  0  0
   -0.7500   -1.2990    0.0000 C   0  0  0  0  0  0  0  0  0  0  0  0
  1  2  1  0
  2  3  1  0
  3  4  1  0
  4  5  1  0
  5  6  2  0
  6  7  1  0
  7  8  1  0
  8  9  2  0
  9 10  1  0
  4 11  2  0
 11 12  1  0
 12 13  2  0
 13 14  1  0
 14 15  2  0
 15 16  1  0
 16 17  1  0
 17 18  2  0
 17 19  1  0
 19 20  1  0
 20 21  1  0
 21 22  1  0
 22 23  1  0
 23 24  1  0
 16 25  2  0
 25  3  1  0
  9  5  1  0
 25 12  1  0
 24 19  1  0
M  END
>  <Compound_ID>  (115) 
CHEMBL1909376

>  <Molecule Name>  (115) 
nan

>  <Molecular Weight>  (115) 
378.82

>  <AlogP>  (115) 
0.13

>  <Smiles>  (115) 
CCn1c(-c2nonc2N)nc2cncc(C(=O)N3CCNCC3)c21

>  <Standard Type>  (115) 
Inhibition

>  <Standard Relation>  (115) 
'='

>  <Standard Units>  (115) 
%

>  <Standard Value>  (115) 
2.94

>  <Assay ChEMBL ID>  (115) 
CHEMBL1962142

>  <Assay Description>  (115) 
GSK_PKIS: MET mean inhibition at 0.1 uM [Nanosyn]

>  <BAO Format ID>  (115) 
BAO_0000357

>  <BAO Label>  (115) 
single protein format

>  <Assay Organism>  (115) 
None

>  <Target ChEMBL ID>  (115) 
CHEMBL3717

>  <Target Name>  (115) 
Hepatocyte growth factor receptor

>  <Target Organism>  (115) 
Homo sapiens

>  <Target Type>  (115) 
SINGLE PROTEIN

>  <Document ChEMBL ID>  (115) 
CHEMBL1961873

>  <Source Description>  (115) 
GSK Published Kinase Inhibitor Set

>  <Document Journal>  (115) 
nan

>  <Document Year>  (115) 
nan

>  <Active>  (115) 
0.0

$$$$

     RDKit          2D

 35 39  0  0  0  0  0  0  0  0999 V2000
   -3.7500  -11.6913    0.0000 C   0  0  0  0  0  0  0  0  0  0  0  0
   -3.0000  -10.3923    0.0000 N   0  0  0  0  0  0  0  0  0  0  0  0
   -3.7500   -9.0933    0.0000 C   0  0  0  0  0  0  0  0  0  0  0  0
   -3.0000   -7.7942    0.0000 C   0  0  0  0  0  0  0  0  0  0  0  0
   -1.5000   -7.7942    0.0000 N   0  0  0  0  0  0  0  0  0  0  0  0
   -0.7500   -6.4952    0.0000 C   0  0  0  0  0  0  0  0  0  0  0  0
    0.7500   -6.4952    0.0000 C   0  0  0  0  0  0  0  0  0  0  0  0
    1.5000   -5.1962    0.0000 C   0  0  0  0  0  0  0  0  0  0  0  0
    0.7500   -3.8971    0.0000 C   0  0  0  0  0  0  0  0  0  0  0  0
    1.5000   -2.5981    0.0000 N   0  0  0  0  0  0  0  0  0  0  0  0
    0.7500   -1.2990    0.0000 C   0  0  0  0  0  0  0  0  0  0  0  0
    1.5000    0.0000    0.0000 N   0  0  0  0  0  0  0  0  0  0  0  0
    0.7500    1.2990    0.0000 C   0  0  0  0  0  0  0  0  0  0  0  0
   -0.7500    1.2990    0.0000 C   0  0  0  0  0  0  0  0  0  0  0  0
   -1.5000    2.5981    0.0000 C   0  0  0  0  0  0  0  0  0  0  0  0
   -3.0000    2.5981    0.0000 C   0  0  0  0  0  0  0  0  0  0  0  0
   -3.7500    3.8971    0.0000 O   0  0  0  0  0  0  0  0  0  0  0  0
   -3.0000    5.1962    0.0000 C   0  0  0  0  0  0  0  0  0  0  0  0
   -1.5000    5.1962    0.0000 C   0  0  0  0  0  0  0  0  0  0  0  0
   -0.7500    6.4952    0.0000 C   0  0  0  0  0  0  0  0  0  0  0  0
   -1.5000    7.7942    0.0000 C   0  0  0  0  0  0  0  0  0  0  0  0
   -0.7500    9.0933    0.0000 F   0  0  0  0  0  0  0  0  0  0  0  0
   -3.0000    7.7942    0.0000 C   0  0  0  0  0  0  0  0  0  0  0  0
   -3.7500    6.4952    0.0000 C   0  0  0  0  0  0  0  0  0  0  0  0
   -5.2500    6.4952    0.0000 F   0  0  0  0  0  0  0  0  0  0  0  0
   -3.7500    1.2990    0.0000 C   0  0  0  0  0  0  0  0  0  0  0  0
   -5.2500    1.2990    0.0000 O   0  0  0  0  0  0  0  0  0  0  0  0
   -3.0000    0.0000    0.0000 N   0  0  0  0  0  0  0  0  0  0  0  0
   -3.7500   -1.2990    0.0000 C   0  0  0  0  0  0  0  0  0  0  0  0
   -1.5000    0.0000    0.0000 C   0  0  0  0  0  0  0  0  0  0  0  0
   -0.7500   -1.2990    0.0000 N   0  0  0  0  0  0  0  0  0  0  0  0
   -0.7500   -3.8971    0.0000 C   0  0  0  0  0  0  0  0  0  0  0  0
   -1.5000   -5.1962    0.0000 C   0  0  0  0  0  0  0  0  0  0  0  0
   -0.7500   -9.0933    0.0000 C   0  0  0  0  0  0  0  0  0  0  0  0
   -1.5000  -10.3923    0.0000 C   0  0  0  0  0  0  0  0  0  0  0  0
  1  2  1  0
  2  3  1  0
  3  4  1  0
  4  5  1  0
  5  6  1  0
  6  7  2  0
  7  8  1  0
  8  9  2  0
  9 10  1  0
 10 11  1  0
 11 12  2  0
 12 13  1  0
 13 14  2  0
 14 15  1  0
 15 16  2  0
 16 17  1  0
 17 18  1  0
 18 19  2  0
 19 20  1  0
 20 21  2  0
 21 22  1  0
 21 23  1  0
 23 24  2  0
 24 25  1  0
 16 26  1  0
 26 27  2  0
 26 28  1  0
 28 29  1  0
 28 30  1  0
 30 31  2  0
  9 32  1  0
 32 33  2  0
  5 34  1  0
 34 35  1  0
 35  2  1  0
 33  6  1  0
 31 11  1  0
 30 14  1  0
 24 18  1  0
M  END
>  <Compound_ID>  (116) 
CHEMBL3745734

>  <Molecule Name>  (116) 
nan

>  <Molecular Weight>  (116) 
478.50

>  <AlogP>  (116) 
3.89

>  <Smiles>  (116) 
CN1CCN(c2ccc(Nc3ncc4cc(Oc5ccc(F)cc5F)c(=O)n(C)c4n3)cc2)CC1

>  <Standard Type>  (116) 
Inhibition

>  <Standard Relation>  (116) 
'='

>  <Standard Units>  (116) 
%

>  <Standard Value>  (116) 
0.0

>  <Assay ChEMBL ID>  (116) 
CHEMBL3750644

>  <Assay Description>  (116) 
Inhibition of cMET (unknown origin) at 10 uM

>  <BAO Format ID>  (116) 
BAO_0000357

>  <BAO Label>  (116) 
single protein format

>  <Assay Organism>  (116) 
Homo sapiens

>  <Target ChEMBL ID>  (116) 
CHEMBL3717

>  <Target Name>  (116) 
Hepatocyte growth factor receptor

>  <Target Organism>  (116) 
Homo sapiens

>  <Target Type>  (116) 
SINGLE PROTEIN

>  <Document ChEMBL ID>  (116) 
CHEMBL3745672

>  <Source Description>  (116) 
Scientific Literature

>  <Document Journal>  (116) 
Bioorg Med Chem Lett

>  <Document Year>  (116) 
2016.0

>  <Active>  (116) 
0.0

$$$$

     RDKit          2D

 22 24  0  0  0  0  0  0  0  0999 V2000
   -6.7407   -9.9851    0.0000 N   0  0  0  0  0  0  0  0  0  0  0  0
   -6.4289   -8.5179    0.0000 S   0  0  0  0  0  0  0  0  0  0  0  0
   -7.8961   -8.2060    0.0000 O   0  0  0  0  0  0  0  0  0  0  0  0
   -4.9617   -8.8297    0.0000 O   0  0  0  0  0  0  0  0  0  0  0  0
   -6.1170   -7.0506    0.0000 C   0  0  0  0  0  0  0  0  0  0  0  0
   -7.2317   -6.0469    0.0000 C   0  0  0  0  0  0  0  0  0  0  0  0
   -6.9199   -4.5797    0.0000 C   0  0  0  0  0  0  0  0  0  0  0  0
   -5.4933   -4.1162    0.0000 C   0  0  0  0  0  0  0  0  0  0  0  0
   -4.3786   -5.1199    0.0000 C   0  0  0  0  0  0  0  0  0  0  0  0
   -2.9520   -4.6564    0.0000 N   0  0  0  0  0  0  0  0  0  0  0  0
   -2.6401   -3.1891    0.0000 C   0  0  0  0  0  0  0  0  0  0  0  0
   -1.2135   -2.7256    0.0000 C   0  0  0  0  0  0  0  0  0  0  0  0
   -0.0000   -3.6073    0.0000 C   0  0  0  0  0  0  0  0  0  0  0  0
    0.0000   -5.1073    0.0000 O   0  0  0  0  0  0  0  0  0  0  0  0
    1.2135   -2.7256    0.0000 N   0  0  0  0  0  0  0  0  0  0  0  0
    0.7500   -1.2990    0.0000 C   0  0  0  0  0  0  0  0  0  0  0  0
    1.5000    0.0000    0.0000 C   0  0  0  0  0  0  0  0  0  0  0  0
    0.7500    1.2990    0.0000 C   0  0  0  0  0  0  0  0  0  0  0  0
   -0.7500    1.2990    0.0000 C   0  0  0  0  0  0  0  0  0  0  0  0
   -1.5000    0.0000    0.0000 C   0  0  0  0  0  0  0  0  0  0  0  0
   -0.7500   -1.2990    0.0000 C   0  0  0  0  0  0  0  0  0  0  0  0
   -4.6904   -6.5871    0.0000 C   0  0  0  0  0  0  0  0  0  0  0  0
  1  2  1  0
  2  3  2  0
  2  4  2  0
  2  5  1  0
  5  6  2  0
  6  7  1  0
  7  8  2  0
  8  9  1  0
  9 10  1  0
 10 11  1  0
 11 12  2  0
 12 13  1  0
 13 14  2  0
 13 15  1  0
 15 16  1  0
 16 17  2  0
 17 18  1  0
 18 19  2  0
 19 20  1  0
 20 21  2  0
  9 22  2  0
 22  5  1  0
 21 12  1  0
 21 16  1  0
M  END
>  <Compound_ID>  (117) 
CHEMBL1794059

>  <Molecule Name>  (117) 
GW275616X

>  <Molecular Weight>  (117) 
315.35

>  <AlogP>  (117) 
1.74

>  <Smiles>  (117) 
NS(=O)(=O)c1cccc(N/C=C2\C(=O)Nc3ccccc32)c1

>  <Standard Type>  (117) 
Inhibition

>  <Standard Relation>  (117) 
'='

>  <Standard Units>  (117) 
%

>  <Standard Value>  (117) 
6.92

>  <Assay ChEMBL ID>  (117) 
CHEMBL1962143

>  <Assay Description>  (117) 
GSK_PKIS: MET mean inhibition at 1 uM [Nanosyn]

>  <BAO Format ID>  (117) 
BAO_0000357

>  <BAO Label>  (117) 
single protein format

>  <Assay Organism>  (117) 
None

>  <Target ChEMBL ID>  (117) 
CHEMBL3717

>  <Target Name>  (117) 
Hepatocyte growth factor receptor

>  <Target Organism>  (117) 
Homo sapiens

>  <Target Type>  (117) 
SINGLE PROTEIN

>  <Document ChEMBL ID>  (117) 
CHEMBL1961873

>  <Source Description>  (117) 
GSK Published Kinase Inhibitor Set

>  <Document Journal>  (117) 
nan

>  <Document Year>  (117) 
nan

>  <Active>  (117) 
0.0

$$$$

     RDKit          2D

 28 31  0  0  0  0  0  0  0  0999 V2000
    2.1306   -5.7367    0.0000 C   0  0  0  0  0  0  0  0  0  0  0  0
    0.7040   -6.2002    0.0000 O   0  0  0  0  0  0  0  0  0  0  0  0
    0.3922   -7.6675    0.0000 C   0  0  0  0  0  0  0  0  0  0  0  0
    1.5069   -8.6712    0.0000 C   0  0  0  0  0  0  0  0  0  0  0  0
    1.1950  -10.1384    0.0000 C   0  0  0  0  0  0  0  0  0  0  0  0
   -0.2316  -10.6019    0.0000 C   0  0  0  0  0  0  0  0  0  0  0  0
   -1.3463   -9.5982    0.0000 C   0  0  0  0  0  0  0  0  0  0  0  0
   -1.0344   -8.1310    0.0000 C   0  0  0  0  0  0  0  0  0  0  0  0
   -2.1491   -7.1273    0.0000 C   0  0  0  0  0  0  0  0  0  0  0  0
   -1.8373   -5.6601    0.0000 C   0  0  0  0  0  0  0  0  0  0  0  0
   -2.9520   -4.6564    0.0000 C   0  0  0  0  0  0  0  0  0  0  0  0
   -2.6401   -3.1891    0.0000 C   0  0  0  0  0  0  0  0  0  0  0  0
   -1.2135   -2.7256    0.0000 C   0  0  0  0  0  0  0  0  0  0  0  0
   -0.0000   -3.6073    0.0000 C   0  0  0  0  0  0  0  0  0  0  0  0
    0.0000   -5.1073    0.0000 O   0  0  0  0  0  0  0  0  0  0  0  0
    1.2135   -2.7256    0.0000 N   0  0  0  0  0  0  0  0  0  0  0  0
    0.7500   -1.2990    0.0000 C   0  0  0  0  0  0  0  0  0  0  0  0
    1.5000    0.0000    0.0000 N   0  0  0  0  0  0  0  0  0  0  0  0
    0.7500    1.2990    0.0000 C   0  0  0  0  0  0  0  0  0  0  0  0
   -0.7500    1.2990    0.0000 C   0  0  0  0  0  0  0  0  0  0  0  0
   -1.5000    2.5981    0.0000 Br  0  0  0  0  0  0  0  0  0  0  0  0
   -1.5000    0.0000    0.0000 C   0  0  0  0  0  0  0  0  0  0  0  0
   -0.7500   -1.2990    0.0000 C   0  0  0  0  0  0  0  0  0  0  0  0
   -4.3786   -5.1199    0.0000 C   0  0  0  0  0  0  0  0  0  0  0  0
   -4.6904   -6.5871    0.0000 C   0  0  0  0  0  0  0  0  0  0  0  0
   -6.1170   -7.0506    0.0000 Br  0  0  0  0  0  0  0  0  0  0  0  0
   -3.5757   -7.5908    0.0000 C   0  0  0  0  0  0  0  0  0  0  0  0
   -3.8876   -9.0580    0.0000 O   0  0  0  0  0  0  0  0  0  0  0  0
  1  2  1  0
  2  3  1  0
  3  4  2  0
  4  5  1  0
  5  6  2  0
  6  7  1  0
  7  8  2  0
  8  9  1  0
  9 10  2  0
 10 11  1  0
 11 12  1  0
 12 13  2  0
 13 14  1  0
 14 15  2  0
 14 16  1  0
 16 17  1  0
 17 18  2  0
 18 19  1  0
 19 20  2  0
 20 21  1  0
 20 22  1  0
 22 23  2  0
 11 24  2  0
 24 25  1  0
 25 26  1  0
 25 27  2  0
 27 28  1  0
  8  3  1  0
 27  9  1  0
 23 13  1  0
 23 17  1  0
M  END
>  <Compound_ID>  (118) 
CHEMBL176857

>  <Molecule Name>  (118) 
GW442130X

>  <Molecular Weight>  (118) 
502.16

>  <AlogP>  (118) 
5.48

>  <Smiles>  (118) 
COc1ccccc1-c1cc(/C=C2\C(=O)Nc3ncc(Br)cc32)cc(Br)c1O

>  <Standard Type>  (118) 
Inhibition

>  <Standard Relation>  (118) 
'='

>  <Standard Units>  (118) 
%

>  <Standard Value>  (118) 
1.57

>  <Assay ChEMBL ID>  (118) 
CHEMBL1962142

>  <Assay Description>  (118) 
GSK_PKIS: MET mean inhibition at 0.1 uM [Nanosyn]

>  <BAO Format ID>  (118) 
BAO_0000357

>  <BAO Label>  (118) 
single protein format

>  <Assay Organism>  (118) 
None

>  <Target ChEMBL ID>  (118) 
CHEMBL3717

>  <Target Name>  (118) 
Hepatocyte growth factor receptor

>  <Target Organism>  (118) 
Homo sapiens

>  <Target Type>  (118) 
SINGLE PROTEIN

>  <Document ChEMBL ID>  (118) 
CHEMBL1961873

>  <Source Description>  (118) 
GSK Published Kinase Inhibitor Set

>  <Document Journal>  (118) 
nan

>  <Document Year>  (118) 
nan

>  <Active>  (118) 
0.0

$$$$

     RDKit          2D

 42 46  0  0  0  0  0  0  0  0999 V2000
   -1.3632  -12.1594    0.0000 C   0  0  0  0  0  0  0  0  0  0  0  0
   -1.2064  -10.6676    0.0000 S   0  0  0  0  0  0  0  0  0  0  0  0
    0.2854  -10.8244    0.0000 O   0  0  0  0  0  0  0  0  0  0  0  0
   -2.6982  -10.5109    0.0000 O   0  0  0  0  0  0  0  0  0  0  0  0
   -1.0496   -9.1759    0.0000 C   0  0  0  0  0  0  0  0  0  0  0  0
    0.3207   -8.5658    0.0000 C   0  0  0  0  0  0  0  0  0  0  0  0
    0.4775   -7.0740    0.0000 N   0  0  0  0  0  0  0  0  0  0  0  0
    1.8478   -6.4639    0.0000 C   0  0  0  0  0  0  0  0  0  0  0  0
    2.0046   -4.9721    0.0000 C   0  0  0  0  0  0  0  0  0  0  0  0
    3.3037   -4.2221    0.0000 C   0  0  0  0  0  0  0  0  0  0  0  0
    2.9918   -2.7549    0.0000 C   0  0  0  0  0  0  0  0  0  0  0  0
    1.5000   -2.5981    0.0000 C   0  0  0  0  0  0  0  0  0  0  0  0
    0.7500   -1.2990    0.0000 C   0  0  0  0  0  0  0  0  0  0  0  0
    1.5000    0.0000    0.0000 C   0  0  0  0  0  0  0  0  0  0  0  0
    0.7500    1.2990    0.0000 C   0  0  0  0  0  0  0  0  0  0  0  0
   -0.7500    1.2990    0.0000 C   0  0  0  0  0  0  0  0  0  0  0  0
   -1.5000    2.5981    0.0000 N   0  0  0  0  0  0  0  0  0  0  0  0
   -3.0000    2.5981    0.0000 C   0  0  0  0  0  0  0  0  0  0  0  0
   -3.7500    1.2990    0.0000 N   0  0  0  0  0  0  0  0  0  0  0  0
   -3.0000    0.0000    0.0000 C   0  0  0  0  0  0  0  0  0  0  0  0
   -3.7500   -1.2990    0.0000 N   0  0  0  0  0  0  0  0  0  0  0  0
   -5.2500   -1.2990    0.0000 C   0  0  0  0  0  0  0  0  0  0  0  0
   -6.0000    0.0000    0.0000 C   0  0  0  0  0  0  0  0  0  0  0  0
   -7.5000    0.0000    0.0000 C   0  0  0  0  0  0  0  0  0  0  0  0
   -8.2500   -1.2990    0.0000 C   0  0  0  0  0  0  0  0  0  0  0  0
   -9.7500   -1.2990    0.0000 O   0  0  0  0  0  0  0  0  0  0  0  0
  -10.5000    0.0000    0.0000 C   0  0  0  0  0  0  0  0  0  0  0  0
  -12.0000    0.0000    0.0000 C   0  0  0  0  0  0  0  0  0  0  0  0
  -12.7500    1.2990    0.0000 C   0  0  0  0  0  0  0  0  0  0  0  0
  -14.2500    1.2990    0.0000 C   0  0  0  0  0  0  0  0  0  0  0  0
  -15.0000    0.0000    0.0000 C   0  0  0  0  0  0  0  0  0  0  0  0
  -14.2500   -1.2990    0.0000 C   0  0  0  0  0  0  0  0  0  0  0  0
  -15.0000   -2.5981    0.0000 C   0  0  0  0  0  0  0  0  0  0  0  0
  -15.7500   -3.8971    0.0000 F   0  0  0  0  0  0  0  0  0  0  0  0
  -16.2990   -1.8481    0.0000 F   0  0  0  0  0  0  0  0  0  0  0  0
  -13.7010   -3.3481    0.0000 F   0  0  0  0  0  0  0  0  0  0  0  0
  -12.7500   -1.2990    0.0000 C   0  0  0  0  0  0  0  0  0  0  0  0
   -7.5000   -2.5981    0.0000 C   0  0  0  0  0  0  0  0  0  0  0  0
   -6.0000   -2.5981    0.0000 C   0  0  0  0  0  0  0  0  0  0  0  0
   -1.5000    0.0000    0.0000 C   0  0  0  0  0  0  0  0  0  0  0  0
   -0.7500   -1.2990    0.0000 C   0  0  0  0  0  0  0  0  0  0  0  0
    0.8899   -3.9684    0.0000 O   0  0  0  0  0  0  0  0  0  0  0  0
  1  2  1  0
  2  3  2  0
  2  4  2  0
  2  5  1  0
  5  6  1  0
  6  7  1  0
  7  8  1  0
  8  9  1  0
  9 10  2  0
 10 11  1  0
 11 12  2  0
 12 13  1  0
 13 14  2  0
 14 15  1  0
 15 16  2  0
 16 17  1  0
 17 18  2  0
 18 19  1  0
 19 20  2  0
 20 21  1  0
 21 22  1  0
 22 23  2  0
 23 24  1  0
 24 25  2  0
 25 26  1  0
 26 27  1  0
 27 28  1  0
 28 29  2  0
 29 30  1  0
 30 31  2  0
 31 32  1  0
 32 33  1  0
 33 34  1  0
 33 35  1  0
 33 36  1  0
 32 37  2  0
 25 38  1  0
 38 39  2  0
 20 40  1  0
 40 41  2  0
 12 42  1  0
 42  9  1  0
 41 13  1  0
 40 16  1  0
 39 22  1  0
 37 28  1  0
M  END
>  <Compound_ID>  (119) 
CHEMBL1909387

>  <Molecule Name>  (119) 
GW567808A

>  <Molecular Weight>  (119) 
633.09

>  <AlogP>  (119) 
6.37

>  <Smiles>  (119) 
CS(=O)(=O)CCNCc1ccc(-c2ccc3ncnc(Nc4ccc(OCc5cccc(C(F)(F)F)c5)cc4)c3c2)o1

>  <Standard Type>  (119) 
Inhibition

>  <Standard Relation>  (119) 
'='

>  <Standard Units>  (119) 
%

>  <Standard Value>  (119) 
2.15

>  <Assay ChEMBL ID>  (119) 
CHEMBL1962142

>  <Assay Description>  (119) 
GSK_PKIS: MET mean inhibition at 0.1 uM [Nanosyn]

>  <BAO Format ID>  (119) 
BAO_0000357

>  <BAO Label>  (119) 
single protein format

>  <Assay Organism>  (119) 
None

>  <Target ChEMBL ID>  (119) 
CHEMBL3717

>  <Target Name>  (119) 
Hepatocyte growth factor receptor

>  <Target Organism>  (119) 
Homo sapiens

>  <Target Type>  (119) 
SINGLE PROTEIN

>  <Document ChEMBL ID>  (119) 
CHEMBL1961873

>  <Source Description>  (119) 
GSK Published Kinase Inhibitor Set

>  <Document Journal>  (119) 
nan

>  <Document Year>  (119) 
nan

>  <Active>  (119) 
0.0

$$$$

     RDKit          2D

 32 35  0  0  0  0  0  0  0  0999 V2000
    5.2500   -1.2990    0.0000 C   0  0  0  0  0  0  0  0  0  0  0  0
    3.7500   -1.2990    0.0000 N   0  0  0  0  0  0  0  0  0  0  0  0
    3.0000    0.0000    0.0000 C   0  0  0  0  0  0  0  0  0  0  0  0
    3.7500    1.2990    0.0000 O   0  0  0  0  0  0  0  0  0  0  0  0
    1.5000    0.0000    0.0000 C   0  0  0  0  0  0  0  0  0  0  0  0
    0.7500   -1.2990    0.0000 C   0  0  0  0  0  0  0  0  0  0  0  0
   -0.7500   -1.2990    0.0000 C   0  0  0  0  0  0  0  0  0  0  0  0
   -1.5000   -2.5981    0.0000 C   0  0  0  0  0  0  0  0  0  0  0  0
   -3.0000   -2.5981    0.0000 C   0  0  0  0  0  0  0  0  0  0  0  0
   -3.7500   -3.8971    0.0000 C   0  0  0  0  0  0  0  0  0  0  0  0
   -3.0000   -5.1962    0.0000 C   0  0  0  0  0  0  0  0  0  0  0  0
   -3.7500   -6.4952    0.0000 F   0  0  0  0  0  0  0  0  0  0  0  0
   -1.5000   -5.1962    0.0000 C   0  0  0  0  0  0  0  0  0  0  0  0
   -0.7500   -3.8971    0.0000 C   0  0  0  0  0  0  0  0  0  0  0  0
   -1.5000    0.0000    0.0000 C   0  0  0  0  0  0  0  0  0  0  0  0
   -0.7500    1.2990    0.0000 C   0  0  0  0  0  0  0  0  0  0  0  0
   -1.5000    2.5981    0.0000 C   0  0  0  0  0  0  0  0  0  0  0  0
   -0.7500    3.8971    0.0000 C   0  0  0  0  0  0  0  0  0  0  0  0
   -1.5000    5.1962    0.0000 C   0  0  0  0  0  0  0  0  0  0  0  0
   -3.0000    5.1962    0.0000 C   0  0  0  0  0  0  0  0  0  0  0  0
   -3.7500    6.4952    0.0000 S   0  0  0  0  0  0  0  0  0  0  0  0
   -2.4510    7.2452    0.0000 O   0  0  0  0  0  0  0  0  0  0  0  0
   -5.0490    5.7452    0.0000 O   0  0  0  0  0  0  0  0  0  0  0  0
   -4.5000    7.7942    0.0000 N   0  0  0  0  0  0  0  0  0  0  0  0
   -5.9918    7.9510    0.0000 C   0  0  0  0  0  0  0  0  0  0  0  0
   -6.3037    9.4182    0.0000 C   0  0  0  0  0  0  0  0  0  0  0  0
   -5.0046   10.1682    0.0000 C   0  0  0  0  0  0  0  0  0  0  0  0
   -3.8899    9.1645    0.0000 C   0  0  0  0  0  0  0  0  0  0  0  0
   -3.7500    3.8971    0.0000 C   0  0  0  0  0  0  0  0  0  0  0  0
   -3.0000    2.5981    0.0000 C   0  0  0  0  0  0  0  0  0  0  0  0
    0.7500    1.2990    0.0000 C   0  0  0  0  0  0  0  0  0  0  0  0
    1.5000    2.5981    0.0000 N   0  0  0  0  0  0  0  0  0  0  0  0
  1  2  1  0
  2  3  1  0
  3  4  2  0
  3  5  1  0
  5  6  2  0
  6  7  1  0
  7  8  1  0
  8  9  2  0
  9 10  1  0
 10 11  2  0
 11 12  1  0
 11 13  1  0
 13 14  2  0
  7 15  2  0
 15 16  1  0
 16 17  1  0
 17 18  2  0
 18 19  1  0
 19 20  2  0
 20 21  1  0
 21 22  2  0
 21 23  2  0
 21 24  1  0
 24 25  1  0
 25 26  1  0
 26 27  1  0
 27 28  1  0
 20 29  1  0
 29 30  2  0
 16 31  2  0
 31 32  1  0
 31  5  1  0
 14  8  1  0
 30 17  1  0
 28 24  1  0
M  END
>  <Compound_ID>  (120) 
CHEMBL230592

>  <Molecule Name>  (120) 
GSK-635416A

>  <Molecular Weight>  (120) 
453.54

>  <AlogP>  (120) 
3.89

>  <Smiles>  (120) 
CNC(=O)c1cc(-c2ccc(F)cc2)cc(-c2ccc(S(=O)(=O)N3CCCC3)cc2)c1N

>  <Standard Type>  (120) 
Inhibition

>  <Standard Relation>  (120) 
'='

>  <Standard Units>  (120) 
%

>  <Standard Value>  (120) 
3.93

>  <Assay ChEMBL ID>  (120) 
CHEMBL1962142

>  <Assay Description>  (120) 
GSK_PKIS: MET mean inhibition at 0.1 uM [Nanosyn]

>  <BAO Format ID>  (120) 
BAO_0000357

>  <BAO Label>  (120) 
single protein format

>  <Assay Organism>  (120) 
None

>  <Target ChEMBL ID>  (120) 
CHEMBL3717

>  <Target Name>  (120) 
Hepatocyte growth factor receptor

>  <Target Organism>  (120) 
Homo sapiens

>  <Target Type>  (120) 
SINGLE PROTEIN

>  <Document ChEMBL ID>  (120) 
CHEMBL1961873

>  <Source Description>  (120) 
GSK Published Kinase Inhibitor Set

>  <Document Journal>  (120) 
nan

>  <Document Year>  (120) 
nan

>  <Active>  (120) 
0.0

$$$$

     RDKit          2D

 27 30  0  0  0  0  0  0  0  0999 V2000
  -10.0849   -6.9740    0.0000 N   0  0  0  0  0  0  0  0  0  0  0  0
   -8.6583   -6.5105    0.0000 S   0  0  0  0  0  0  0  0  0  0  0  0
   -9.1218   -5.0839    0.0000 O   0  0  0  0  0  0  0  0  0  0  0  0
   -8.1948   -7.9371    0.0000 O   0  0  0  0  0  0  0  0  0  0  0  0
   -7.2317   -6.0469    0.0000 C   0  0  0  0  0  0  0  0  0  0  0  0
   -6.9199   -4.5797    0.0000 C   0  0  0  0  0  0  0  0  0  0  0  0
   -5.4933   -4.1162    0.0000 C   0  0  0  0  0  0  0  0  0  0  0  0
   -4.3786   -5.1199    0.0000 C   0  0  0  0  0  0  0  0  0  0  0  0
   -2.9520   -4.6564    0.0000 N   0  0  0  0  0  0  0  0  0  0  0  0
   -2.6401   -3.1891    0.0000 N   0  0  0  0  0  0  0  0  0  0  0  0
   -1.2135   -2.7256    0.0000 C   0  0  0  0  0  0  0  0  0  0  0  0
   -0.0000   -3.6073    0.0000 C   0  0  0  0  0  0  0  0  0  0  0  0
    0.0000   -5.1073    0.0000 O   0  0  0  0  0  0  0  0  0  0  0  0
    1.2135   -2.7256    0.0000 N   0  0  0  0  0  0  0  0  0  0  0  0
    0.7500   -1.2990    0.0000 C   0  0  0  0  0  0  0  0  0  0  0  0
    1.5000    0.0000    0.0000 C   0  0  0  0  0  0  0  0  0  0  0  0
    0.7500    1.2990    0.0000 C   0  0  0  0  0  0  0  0  0  0  0  0
   -0.7500    1.2990    0.0000 C   0  0  0  0  0  0  0  0  0  0  0  0
   -1.5000    2.5981    0.0000 C   0  0  0  0  0  0  0  0  0  0  0  0
   -2.9918    2.7549    0.0000 C   0  0  0  0  0  0  0  0  0  0  0  0
   -3.3037    4.2221    0.0000 N   0  0  0  0  0  0  0  0  0  0  0  0
   -2.0046    4.9721    0.0000 C   0  0  0  0  0  0  0  0  0  0  0  0
   -0.8899    3.9684    0.0000 O   0  0  0  0  0  0  0  0  0  0  0  0
   -1.5000    0.0000    0.0000 C   0  0  0  0  0  0  0  0  0  0  0  0
   -0.7500   -1.2990    0.0000 C   0  0  0  0  0  0  0  0  0  0  0  0
   -4.6904   -6.5871    0.0000 C   0  0  0  0  0  0  0  0  0  0  0  0
   -6.1170   -7.0506    0.0000 C   0  0  0  0  0  0  0  0  0  0  0  0
  1  2  1  0
  2  3  2  0
  2  4  2  0
  2  5  1  0
  5  6  2  0
  6  7  1  0
  7  8  2  0
  8  9  1  0
  9 10  1  0
 10 11  2  0
 11 12  1  0
 12 13  2  0
 12 14  1  0
 14 15  1  0
 15 16  2  0
 16 17  1  0
 17 18  2  0
 18 19  1  0
 19 20  2  0
 20 21  1  0
 21 22  2  0
 22 23  1  0
 18 24  1  0
 24 25  2  0
  8 26  1  0
 26 27  2  0
 27  5  1  0
 25 11  1  0
 25 15  1  0
 23 19  1  0
M  END
>  <Compound_ID>  (121) 
CHEMBL269827

>  <Molecule Name>  (121) 
GW276655X

>  <Molecular Weight>  (121) 
383.39

>  <AlogP>  (121) 
1.76

>  <Smiles>  (121) 
NS(=O)(=O)c1ccc(N/N=C2\C(=O)Nc3ccc(-c4cnco4)cc32)cc1

>  <Standard Type>  (121) 
Inhibition

>  <Standard Relation>  (121) 
'='

>  <Standard Units>  (121) 
%

>  <Standard Value>  (121) 
2.64

>  <Assay ChEMBL ID>  (121) 
CHEMBL1962143

>  <Assay Description>  (121) 
GSK_PKIS: MET mean inhibition at 1 uM [Nanosyn]

>  <BAO Format ID>  (121) 
BAO_0000357

>  <BAO Label>  (121) 
single protein format

>  <Assay Organism>  (121) 
None

>  <Target ChEMBL ID>  (121) 
CHEMBL3717

>  <Target Name>  (121) 
Hepatocyte growth factor receptor

>  <Target Organism>  (121) 
Homo sapiens

>  <Target Type>  (121) 
SINGLE PROTEIN

>  <Document ChEMBL ID>  (121) 
CHEMBL1961873

>  <Source Description>  (121) 
GSK Published Kinase Inhibitor Set

>  <Document Journal>  (121) 
nan

>  <Document Year>  (121) 
nan

>  <Active>  (121) 
0.0

$$$$

     RDKit          2D

 29 31  0  0  0  0  0  0  0  0999 V2000
    7.5000   -2.5981    0.0000 C   0  0  0  0  0  0  0  0  0  0  0  0
    6.0000   -2.5981    0.0000 C   0  0  0  0  0  0  0  0  0  0  0  0
    5.2500   -3.8971    0.0000 C   0  0  0  0  0  0  0  0  0  0  0  0
    5.2500   -1.2990    0.0000 C   0  0  0  0  0  0  0  0  0  0  0  0
    3.7500   -1.2990    0.0000 O   0  0  0  0  0  0  0  0  0  0  0  0
    3.0000    0.0000    0.0000 C   0  0  0  0  0  0  0  0  0  0  0  0
    3.7500    1.2990    0.0000 O   0  0  0  0  0  0  0  0  0  0  0  0
    1.5000    0.0000    0.0000 C   0  0  0  0  0  0  0  0  0  0  0  0
    0.7500   -1.2990    0.0000 C   0  0  0  0  0  0  0  0  0  0  0  0
   -0.7500   -1.2990    0.0000 C   0  0  0  0  0  0  0  0  0  0  0  0
   -1.5000    0.0000    0.0000 C   0  0  0  0  0  0  0  0  0  0  0  0
   -0.7500    1.2990    0.0000 C   0  0  0  0  0  0  0  0  0  0  0  0
    0.7500    1.2990    0.0000 C   0  0  0  0  0  0  0  0  0  0  0  0
   -1.7537    2.4138    0.0000 C   0  0  0  0  0  0  0  0  0  0  0  0
   -1.4418    3.8810    0.0000 C   0  0  0  0  0  0  0  0  0  0  0  0
   -2.5565    4.8847    0.0000 N   0  0  0  0  0  0  0  0  0  0  0  0
   -2.2447    6.3519    0.0000 C   0  0  0  0  0  0  0  0  0  0  0  0
   -0.8181    6.8154    0.0000 C   0  0  0  0  0  0  0  0  0  0  0  0
   -0.5062    8.2826    0.0000 C   0  0  0  0  0  0  0  0  0  0  0  0
   -1.6209    9.2863    0.0000 C   0  0  0  0  0  0  0  0  0  0  0  0
   -1.3091   10.7536    0.0000 S   0  0  0  0  0  0  0  0  0  0  0  0
   -0.9972   12.2208    0.0000 N   0  0  0  0  0  0  0  0  0  0  0  0
    0.1581   10.4417    0.0000 O   0  0  0  0  0  0  0  0  0  0  0  0
   -2.7763   11.0654    0.0000 O   0  0  0  0  0  0  0  0  0  0  0  0
   -3.0475    8.8228    0.0000 C   0  0  0  0  0  0  0  0  0  0  0  0
   -3.3594    7.3556    0.0000 C   0  0  0  0  0  0  0  0  0  0  0  0
   -3.1240    1.8037    0.0000 C   0  0  0  0  0  0  0  0  0  0  0  0
   -4.4231    2.5537    0.0000 O   0  0  0  0  0  0  0  0  0  0  0  0
   -2.9672    0.3119    0.0000 N   0  0  0  0  0  0  0  0  0  0  0  0
  1  2  1  0
  2  3  1  0
  2  4  1  0
  4  5  1  0
  5  6  1  0
  6  7  2  0
  6  8  1  0
  8  9  2  0
  9 10  1  0
 10 11  2  0
 11 12  1  0
 12 13  2  0
 12 14  1  0
 14 15  2  0
 15 16  1  0
 16 17  1  0
 17 18  2  0
 18 19  1  0
 19 20  2  0
 20 21  1  0
 21 22  1  0
 21 23  2  0
 21 24  2  0
 20 25  1  0
 25 26  2  0
 14 27  1  0
 27 28  2  0
 27 29  1  0
 13  8  1  0
 26 17  1  0
 29 11  1  0
M  END
>  <Compound_ID>  (122) 
CHEMBL269883

>  <Molecule Name>  (122) 
GW416981X

>  <Molecular Weight>  (122) 
415.47

>  <AlogP>  (122) 
2.55

>  <Smiles>  (122) 
CC(C)COC(=O)c1ccc2c(c1)/C(=C/Nc1ccc(S(N)(=O)=O)cc1)C(=O)N2

>  <Standard Type>  (122) 
Inhibition

>  <Standard Relation>  (122) 
'='

>  <Standard Units>  (122) 
%

>  <Standard Value>  (122) 
13.34

>  <Assay ChEMBL ID>  (122) 
CHEMBL1962143

>  <Assay Description>  (122) 
GSK_PKIS: MET mean inhibition at 1 uM [Nanosyn]

>  <BAO Format ID>  (122) 
BAO_0000357

>  <BAO Label>  (122) 
single protein format

>  <Assay Organism>  (122) 
None

>  <Target ChEMBL ID>  (122) 
CHEMBL3717

>  <Target Name>  (122) 
Hepatocyte growth factor receptor

>  <Target Organism>  (122) 
Homo sapiens

>  <Target Type>  (122) 
SINGLE PROTEIN

>  <Document ChEMBL ID>  (122) 
CHEMBL1961873

>  <Source Description>  (122) 
GSK Published Kinase Inhibitor Set

>  <Document Journal>  (122) 
nan

>  <Document Year>  (122) 
nan

>  <Active>  (122) 
0.0

$$$$

     RDKit          2D

 33 37  0  0  0  0  0  0  0  0999 V2000
    3.0000    0.0000    0.0000 C   0  0  0  0  0  0  0  0  0  0  0  0
    1.5000    0.0000    0.0000 C   0  0  0  0  0  0  0  0  0  0  0  0
    0.7500   -1.2990    0.0000 C   0  0  0  0  0  0  0  0  0  0  0  0
   -0.7500   -1.2990    0.0000 C   0  0  0  0  0  0  0  0  0  0  0  0
   -1.5000    0.0000    0.0000 C   0  0  0  0  0  0  0  0  0  0  0  0
   -0.7500    1.2990    0.0000 C   0  0  0  0  0  0  0  0  0  0  0  0
   -1.5000    2.5981    0.0000 O   0  0  0  0  0  0  0  0  0  0  0  0
   -3.0000    2.5981    0.0000 C   0  0  0  0  0  0  0  0  0  0  0  0
   -3.7500    3.8971    0.0000 N   0  0  0  0  0  0  0  0  0  0  0  0
   -5.2500    3.8971    0.0000 C   0  0  0  0  0  0  0  0  0  0  0  0
   -6.0000    2.5981    0.0000 C   0  0  0  0  0  0  0  0  0  0  0  0
   -5.2500    1.2990    0.0000 C   0  0  0  0  0  0  0  0  0  0  0  0
   -6.0000   -0.0000    0.0000 C   0  0  0  0  0  0  0  0  0  0  0  0
   -5.3899   -1.3703    0.0000 C   0  0  0  0  0  0  0  0  0  0  0  0
   -3.9227   -1.6822    0.0000 C   0  0  0  0  0  0  0  0  0  0  0  0
   -3.4591   -3.1088    0.0000 C   0  0  0  0  0  0  0  0  0  0  0  0
   -1.9919   -3.4206    0.0000 C   0  0  0  0  0  0  0  0  0  0  0  0
   -0.9882   -2.3059    0.0000 C   0  0  0  0  0  0  0  0  0  0  0  0
    0.4790   -2.6178    0.0000 F   0  0  0  0  0  0  0  0  0  0  0  0
   -1.4518   -0.8793    0.0000 C   0  0  0  0  0  0  0  0  0  0  0  0
   -2.9190   -0.5675    0.0000 C   0  0  0  0  0  0  0  0  0  0  0  0
   -6.5046   -2.3740    0.0000 N   0  0  0  0  0  0  0  0  0  0  0  0
   -7.8037   -1.6240    0.0000 C   0  0  0  0  0  0  0  0  0  0  0  0
   -7.4918   -0.1568    0.0000 N   0  0  0  0  0  0  0  0  0  0  0  0
   -8.4955    0.9579    0.0000 C   0  0  0  0  0  0  0  0  0  0  0  0
   -8.0320    2.3845    0.0000 C   0  0  0  0  0  0  0  0  0  0  0  0
   -9.0356    3.4992    0.0000 C   0  0  0  0  0  0  0  0  0  0  0  0
  -10.5029    3.1874    0.0000 N   0  0  0  0  0  0  0  0  0  0  0  0
  -10.9664    1.7608    0.0000 C   0  0  0  0  0  0  0  0  0  0  0  0
   -9.9627    0.6461    0.0000 C   0  0  0  0  0  0  0  0  0  0  0  0
   -3.7500    1.2990    0.0000 N   0  0  0  0  0  0  0  0  0  0  0  0
    0.7500    1.2990    0.0000 C   0  0  0  0  0  0  0  0  0  0  0  0
    1.5000    2.5981    0.0000 C   0  0  0  0  0  0  0  0  0  0  0  0
  1  2  1  0
  2  3  2  0
  3  4  1  0
  4  5  2  0
  5  6  1  0
  6  7  1  0
  7  8  1  0
  8  9  2  0
  9 10  1  0
 10 11  2  0
 11 12  1  0
 12 13  1  0
 13 14  2  0
 14 15  1  0
 15 16  2  0
 16 17  1  0
 17 18  2  0
 18 19  1  0
 18 20  1  0
 20 21  2  0
 14 22  1  0
 22 23  2  0
 23 24  1  0
 24 25  1  0
 25 26  1  0
 26 27  1  0
 27 28  1  0
 28 29  1  0
 29 30  1  0
 12 31  2  0
  6 32  2  0
 32 33  1  0
 32  2  1  0
 31  8  1  0
 24 13  1  0
 30 25  1  0
 21 15  1  0
M  END
>  <Compound_ID>  (123) 
CHEMBL1909400

>  <Molecule Name>  (123) 
nan

>  <Molecular Weight>  (123) 
557.55

>  <AlogP>  (123) 
5.48

>  <Smiles>  (123) 
Cc1cccc(Oc2nccc(-c3c(-c4ccc(F)cc4)ncn3C3CCNCC3)n2)c1C

>  <Standard Type>  (123) 
Inhibition

>  <Standard Relation>  (123) 
'='

>  <Standard Units>  (123) 
%

>  <Standard Value>  (123) 
6.5

>  <Assay ChEMBL ID>  (123) 
CHEMBL1962143

>  <Assay Description>  (123) 
GSK_PKIS: MET mean inhibition at 1 uM [Nanosyn]

>  <BAO Format ID>  (123) 
BAO_0000357

>  <BAO Label>  (123) 
single protein format

>  <Assay Organism>  (123) 
None

>  <Target ChEMBL ID>  (123) 
CHEMBL3717

>  <Target Name>  (123) 
Hepatocyte growth factor receptor

>  <Target Organism>  (123) 
Homo sapiens

>  <Target Type>  (123) 
SINGLE PROTEIN

>  <Document ChEMBL ID>  (123) 
CHEMBL1961873

>  <Source Description>  (123) 
GSK Published Kinase Inhibitor Set

>  <Document Journal>  (123) 
nan

>  <Document Year>  (123) 
nan

>  <Active>  (123) 
0.0

$$$$

     RDKit          2D

 24 27  0  0  0  0  0  0  0  0999 V2000
   -8.0346   -3.5760    0.0000 C   0  0  0  0  0  0  0  0  0  0  0  0
   -6.9199   -4.5797    0.0000 O   0  0  0  0  0  0  0  0  0  0  0  0
   -5.4933   -4.1162    0.0000 C   0  0  0  0  0  0  0  0  0  0  0  0
   -5.1814   -2.6490    0.0000 C   0  0  0  0  0  0  0  0  0  0  0  0
   -3.7548   -2.1855    0.0000 C   0  0  0  0  0  0  0  0  0  0  0  0
   -2.6401   -3.1891    0.0000 C   0  0  0  0  0  0  0  0  0  0  0  0
   -1.2135   -2.7256    0.0000 C   0  0  0  0  0  0  0  0  0  0  0  0
   -0.0000   -3.6073    0.0000 N   0  0  0  0  0  0  0  0  0  0  0  0
    1.2135   -2.7256    0.0000 N   0  0  0  0  0  0  0  0  0  0  0  0
    2.6401   -3.1891    0.0000 C   0  0  0  0  0  0  0  0  0  0  0  0
    3.3211   -4.5257    0.0000 C   0  0  0  0  0  0  0  0  0  0  0  0
    4.6576   -3.8447    0.0000 C   0  0  0  0  0  0  0  0  0  0  0  0
    3.9766   -2.5082    0.0000 C   0  0  0  0  0  0  0  0  0  0  0  0
    0.7500   -1.2990    0.0000 C   0  0  0  0  0  0  0  0  0  0  0  0
    1.5000    0.0000    0.0000 N   0  0  0  0  0  0  0  0  0  0  0  0
    0.7500    1.2990    0.0000 C   0  0  0  0  0  0  0  0  0  0  0  0
   -0.7500    1.2990    0.0000 N   0  0  0  0  0  0  0  0  0  0  0  0
   -1.5000    0.0000    0.0000 C   0  0  0  0  0  0  0  0  0  0  0  0
   -3.0000    0.0000    0.0000 N   0  0  0  0  0  0  0  0  0  0  0  0
   -0.7500   -1.2990    0.0000 C   0  0  0  0  0  0  0  0  0  0  0  0
   -2.9520   -4.6564    0.0000 C   0  0  0  0  0  0  0  0  0  0  0  0
   -4.3786   -5.1199    0.0000 C   0  0  0  0  0  0  0  0  0  0  0  0
   -4.6904   -6.5871    0.0000 O   0  0  0  0  0  0  0  0  0  0  0  0
   -3.5757   -7.5908    0.0000 C   0  0  0  0  0  0  0  0  0  0  0  0
  1  2  1  0
  2  3  1  0
  3  4  2  0
  4  5  1  0
  5  6  2  0
  6  7  1  0
  7  8  2  0
  8  9  1  0
  9 10  1  0
 10 11  1  0
 11 12  1  0
 12 13  1  0
  9 14  1  0
 14 15  2  0
 15 16  1  0
 16 17  2  0
 17 18  1  0
 18 19  1  0
 18 20  2  0
  6 21  1  0
 21 22  2  0
 22 23  1  0
 23 24  1  0
 22  3  1  0
 20  7  1  0
 13 10  1  0
 20 14  1  0
M  END
>  <Compound_ID>  (124) 
CHEMBL1233881

>  <Molecule Name>  (124) 
nan

>  <Molecular Weight>  (124) 
325.37

>  <AlogP>  (124) 
2.82

>  <Smiles>  (124) 
COc1ccc(-c2nn(C3CCC3)c3ncnc(N)c23)cc1OC

>  <Standard Type>  (124) 
Inhibition

>  <Standard Relation>  (124) 
'='

>  <Standard Units>  (124) 
%

>  <Standard Value>  (124) 
-4.0

>  <Assay ChEMBL ID>  (124) 
CHEMBL1244220

>  <Assay Description>  (124) 
Inhibition of MET at 1 uM after 60 mins by FRET assay in presence of 10 uM ATP

>  <BAO Format ID>  (124) 
BAO_0000357

>  <BAO Label>  (124) 
single protein format

>  <Assay Organism>  (124) 
None

>  <Target ChEMBL ID>  (124) 
CHEMBL3717

>  <Target Name>  (124) 
Hepatocyte growth factor receptor

>  <Target Organism>  (124) 
Homo sapiens

>  <Target Type>  (124) 
SINGLE PROTEIN

>  <Document ChEMBL ID>  (124) 
CHEMBL1240340

>  <Source Description>  (124) 
Scientific Literature

>  <Document Journal>  (124) 
Nat Chem Biol

>  <Document Year>  (124) 
2008.0

>  <Active>  (124) 
0.0

$$$$

     RDKit          2D

 25 27  0  0  0  0  0  0  0  0999 V2000
    1.8478   -6.4639    0.0000 O   0  0  0  0  0  0  0  0  0  0  0  0
    2.0046   -4.9721    0.0000 C   0  0  0  0  0  0  0  0  0  0  0  0
    3.3037   -4.2221    0.0000 N   0  0  0  0  0  0  0  0  0  0  0  0
    2.9918   -2.7549    0.0000 C   0  0  0  0  0  0  0  0  0  0  0  0
    3.9955   -1.6402    0.0000 O   0  0  0  0  0  0  0  0  0  0  0  0
    1.5000   -2.5981    0.0000 C   0  0  0  0  0  0  0  0  0  0  0  0
    0.7500   -1.2990    0.0000 C   0  0  0  0  0  0  0  0  0  0  0  0
    1.5000    0.0000    0.0000 C   0  0  0  0  0  0  0  0  0  0  0  0
    0.7500    1.2990    0.0000 C   0  0  0  0  0  0  0  0  0  0  0  0
   -0.7500    1.2990    0.0000 C   0  0  0  0  0  0  0  0  0  0  0  0
   -1.5000    2.5981    0.0000 Cl  0  0  0  0  0  0  0  0  0  0  0  0
   -1.5000    0.0000    0.0000 C   0  0  0  0  0  0  0  0  0  0  0  0
   -0.7500   -1.2990    0.0000 C   0  0  0  0  0  0  0  0  0  0  0  0
    0.8899   -3.9684    0.0000 C   0  0  0  0  0  0  0  0  0  0  0  0
   -0.5773   -4.2803    0.0000 N   0  0  0  0  0  0  0  0  0  0  0  0
   -1.0409   -5.7068    0.0000 C   0  0  0  0  0  0  0  0  0  0  0  0
   -2.5081   -6.0187    0.0000 C   0  0  0  0  0  0  0  0  0  0  0  0
   -2.9716   -7.4453    0.0000 C   0  0  0  0  0  0  0  0  0  0  0  0
   -1.9679   -8.5600    0.0000 C   0  0  0  0  0  0  0  0  0  0  0  0
   -2.4314   -9.9866    0.0000 Cl  0  0  0  0  0  0  0  0  0  0  0  0
   -0.5007   -8.2481    0.0000 C   0  0  0  0  0  0  0  0  0  0  0  0
    0.5030   -9.3629    0.0000 C   0  0  0  0  0  0  0  0  0  0  0  0
    1.9702   -9.0510    0.0000 O   0  0  0  0  0  0  0  0  0  0  0  0
    0.0395  -10.7895    0.0000 O   0  0  0  0  0  0  0  0  0  0  0  0
   -0.0372   -6.8216    0.0000 C   0  0  0  0  0  0  0  0  0  0  0  0
  1  2  2  0
  2  3  1  0
  3  4  1  0
  4  5  2  0
  4  6  1  0
  6  7  1  0
  7  8  2  0
  8  9  1  0
  9 10  2  0
 10 11  1  0
 10 12  1  0
 12 13  2  0
  6 14  2  0
 14 15  1  0
 15 16  1  0
 16 17  2  0
 17 18  1  0
 18 19  2  0
 19 20  1  0
 19 21  1  0
 21 22  1  0
 22 23  2  0
 22 24  1  0
 21 25  2  0
 14  2  1  0
 25 16  1  0
 13  7  1  0
M  END
>  <Compound_ID>  (125) 
CHEMBL160876

>  <Molecule Name>  (125) 
nan

>  <Molecular Weight>  (125) 
377.18

>  <AlogP>  (125) 
3.17

>  <Smiles>  (125) 
O=C1NC(=O)C(c2ccc(Cl)cc2)=C1Nc1ccc(Cl)c(C(=O)O)c1

>  <Standard Type>  (125) 
Inhibition

>  <Standard Relation>  (125) 
'='

>  <Standard Units>  (125) 
%

>  <Standard Value>  (125) 
-0.38

>  <Assay ChEMBL ID>  (125) 
CHEMBL1962143

>  <Assay Description>  (125) 
GSK_PKIS: MET mean inhibition at 1 uM [Nanosyn]

>  <BAO Format ID>  (125) 
BAO_0000357

>  <BAO Label>  (125) 
single protein format

>  <Assay Organism>  (125) 
None

>  <Target ChEMBL ID>  (125) 
CHEMBL3717

>  <Target Name>  (125) 
Hepatocyte growth factor receptor

>  <Target Organism>  (125) 
Homo sapiens

>  <Target Type>  (125) 
SINGLE PROTEIN

>  <Document ChEMBL ID>  (125) 
CHEMBL1961873

>  <Source Description>  (125) 
GSK Published Kinase Inhibitor Set

>  <Document Journal>  (125) 
nan

>  <Document Year>  (125) 
nan

>  <Active>  (125) 
0.0

$$$$

     RDKit          2D

 27 29  0  0  0  0  0  0  0  0999 V2000
    3.8971   -7.3573    0.0000 O   0  0  0  0  0  0  0  0  0  0  0  0
    2.5981   -8.1073    0.0000 C   0  0  0  0  0  0  0  0  0  0  0  0
    1.2990   -7.3573    0.0000 C   0  0  0  0  0  0  0  0  0  0  0  0
    1.2990   -5.8573    0.0000 C   0  0  0  0  0  0  0  0  0  0  0  0
   -0.0000   -5.1073    0.0000 C   0  0  0  0  0  0  0  0  0  0  0  0
   -0.0000   -3.6073    0.0000 N   0  0  0  0  0  0  0  0  0  0  0  0
    1.2135   -2.7256    0.0000 Se  0  0  0  0  0  2  0  0  0  0  0  0
    0.7500   -1.2990    0.0000 C   0  0  0  0  0  0  0  0  0  0  0  0
    1.5000    0.0000    0.0000 C   0  0  0  0  0  0  0  0  0  0  0  0
    0.7500    1.2990    0.0000 C   0  0  0  0  0  0  0  0  0  0  0  0
   -0.7500    1.2990    0.0000 C   0  0  0  0  0  0  0  0  0  0  0  0
   -1.5000    0.0000    0.0000 C   0  0  0  0  0  0  0  0  0  0  0  0
   -0.7500   -1.2990    0.0000 C   0  0  0  0  0  0  0  0  0  0  0  0
   -1.2135   -2.7256    0.0000 C   0  0  0  0  0  0  0  0  0  0  0  0
   -2.6401   -3.1891    0.0000 O   0  0  0  0  0  0  0  0  0  0  0  0
    2.5981   -9.6073    0.0000 N   0  0  0  0  0  0  0  0  0  0  0  0
    3.8971  -10.3573    0.0000 C   0  0  0  0  0  0  0  0  0  0  0  0
    3.8971  -11.8573    0.0000 O   0  0  0  0  0  0  0  0  0  0  0  0
    5.1962  -12.6073    0.0000 C   0  0  0  0  0  0  0  0  0  0  0  0
    5.1962  -14.1073    0.0000 C   0  0  0  0  0  0  0  0  0  0  0  0
    3.8971  -14.8573    0.0000 O   0  0  0  0  0  0  0  0  0  0  0  0
    6.4952  -11.8573    0.0000 C   0  0  0  0  0  0  0  0  0  0  0  0
    7.7942  -12.6073    0.0000 O   0  0  0  0  0  0  0  0  0  0  0  0
    6.4952  -10.3573    0.0000 C   0  0  0  0  0  0  0  0  0  0  0  0
    7.7942   -9.6073    0.0000 O   0  0  0  0  0  0  0  0  0  0  0  0
    5.1962   -9.6073    0.0000 C   0  0  0  0  0  0  0  0  0  0  0  0
    5.1962   -8.1073    0.0000 O   0  0  0  0  0  0  0  0  0  0  0  0
  1  2  2  0
  2  3  1  0
  3  4  1  0
  4  5  1  0
  5  6  1  0
  6  7  1  0
  7  8  1  0
  8  9  2  0
  9 10  1  0
 10 11  2  0
 11 12  1  0
 12 13  2  0
 13 14  1  0
 14 15  2  0
  2 16  1  0
 17 16  1  1
 17 18  1  0
 18 19  1  0
 19 20  1  1
 20 21  1  0
 19 22  1  0
 22 23  1  6
 22 24  1  0
 24 25  1  1
 24 26  1  0
 26 27  1  6
 14  6  1  0
 26 17  1  0
 13  8  1  0
M  END
>  <Compound_ID>  (126) 
CHEMBL1940999

>  <Molecule Name>  (126) 
nan

>  <Molecular Weight>  (126) 
445.33

>  <AlogP>  (126) 
None

>  <Smiles>  (126) 
O=C(CCCn1[se]c2ccccc2c1=O)N[C@@H]1O[C@H](CO)[C@@H](O)[C@H](O)[C@H]1O

>  <Standard Type>  (126) 
Inhibition

>  <Standard Relation>  (126) 
'='

>  <Standard Units>  (126) 
%

>  <Standard Value>  (126) 
0.0

>  <Assay ChEMBL ID>  (126) 
CHEMBL1943931

>  <Assay Description>  (126) 
Inhibition of MET at 1 uM

>  <BAO Format ID>  (126) 
BAO_0000357

>  <BAO Label>  (126) 
single protein format

>  <Assay Organism>  (126) 
None

>  <Target ChEMBL ID>  (126) 
CHEMBL3717

>  <Target Name>  (126) 
Hepatocyte growth factor receptor

>  <Target Organism>  (126) 
Homo sapiens

>  <Target Type>  (126) 
SINGLE PROTEIN

>  <Document ChEMBL ID>  (126) 
CHEMBL1938284

>  <Source Description>  (126) 
Scientific Literature

>  <Document Journal>  (126) 
Eur J Med Chem

>  <Document Year>  (126) 
2012.0

>  <Active>  (126) 
0.0

$$$$

     RDKit          2D

 23 25  0  0  0  0  0  0  0  0999 V2000
    3.0000   -5.1962    0.0000 C   0  0  0  0  0  0  0  0  0  0  0  0
    1.5000   -5.1962    0.0000 O   0  0  0  0  0  0  0  0  0  0  0  0
    0.7500   -3.8971    0.0000 C   0  0  0  0  0  0  0  0  0  0  0  0
    1.5000   -2.5981    0.0000 C   0  0  0  0  0  0  0  0  0  0  0  0
    0.7500   -1.2990    0.0000 C   0  0  0  0  0  0  0  0  0  0  0  0
    1.5000    0.0000    0.0000 N   0  0  0  0  0  0  0  0  0  0  0  0
    0.7500    1.2990    0.0000 C   0  0  0  0  0  0  0  0  0  0  0  0
   -0.7500    1.2990    0.0000 N   0  0  0  0  0  0  0  0  0  0  0  0
   -1.5000    0.0000    0.0000 C   0  0  0  0  0  0  0  0  0  0  0  0
   -3.0000    0.0000    0.0000 N   0  0  0  0  0  0  0  0  0  0  0  0
   -3.7500    1.2990    0.0000 C   0  0  0  0  0  0  0  0  0  0  0  0
   -3.0000    2.5981    0.0000 C   0  0  0  0  0  0  0  0  0  0  0  0
   -3.7500    3.8971    0.0000 C   0  0  0  0  0  0  0  0  0  0  0  0
   -5.2500    3.8971    0.0000 C   0  0  0  0  0  0  0  0  0  0  0  0
   -6.0000    5.1962    0.0000 C   0  0  0  0  0  0  0  0  0  0  0  0
   -6.0000    2.5981    0.0000 C   0  0  0  0  0  0  0  0  0  0  0  0
   -7.5000    2.5981    0.0000 O   0  0  0  0  0  0  0  0  0  0  0  0
   -5.2500    1.2990    0.0000 C   0  0  0  0  0  0  0  0  0  0  0  0
   -0.7500   -1.2990    0.0000 C   0  0  0  0  0  0  0  0  0  0  0  0
   -1.5000   -2.5981    0.0000 C   0  0  0  0  0  0  0  0  0  0  0  0
   -0.7500   -3.8971    0.0000 C   0  0  0  0  0  0  0  0  0  0  0  0
   -1.5000   -5.1962    0.0000 O   0  0  0  0  0  0  0  0  0  0  0  0
   -3.0000   -5.1962    0.0000 C   0  0  0  0  0  0  0  0  0  0  0  0
  1  2  1  0
  2  3  1  0
  3  4  2  0
  4  5  1  0
  5  6  2  0
  6  7  1  0
  7  8  2  0
  8  9  1  0
  9 10  1  0
 10 11  1  0
 11 12  2  0
 12 13  1  0
 13 14  2  0
 14 15  1  0
 14 16  1  0
 16 17  1  0
 16 18  2  0
  9 19  2  0
 19 20  1  0
 20 21  2  0
 21 22  1  0
 22 23  1  0
 21  3  1  0
 19  5  1  0
 18 11  1  0
M  END
>  <Compound_ID>  (127) 
CHEMBL1909357

>  <Molecule Name>  (127) 
GW410563A

>  <Molecular Weight>  (127) 
347.80

>  <AlogP>  (127) 
3.40

>  <Smiles>  (127) 
COc1cc2ncnc(Nc3ccc(C)c(O)c3)c2cc1OC

>  <Standard Type>  (127) 
Inhibition

>  <Standard Relation>  (127) 
'='

>  <Standard Units>  (127) 
%

>  <Standard Value>  (127) 
9.16

>  <Assay ChEMBL ID>  (127) 
CHEMBL1962143

>  <Assay Description>  (127) 
GSK_PKIS: MET mean inhibition at 1 uM [Nanosyn]

>  <BAO Format ID>  (127) 
BAO_0000357

>  <BAO Label>  (127) 
single protein format

>  <Assay Organism>  (127) 
None

>  <Target ChEMBL ID>  (127) 
CHEMBL3717

>  <Target Name>  (127) 
Hepatocyte growth factor receptor

>  <Target Organism>  (127) 
Homo sapiens

>  <Target Type>  (127) 
SINGLE PROTEIN

>  <Document ChEMBL ID>  (127) 
CHEMBL1961873

>  <Source Description>  (127) 
GSK Published Kinase Inhibitor Set

>  <Document Journal>  (127) 
nan

>  <Document Year>  (127) 
nan

>  <Active>  (127) 
0.0

$$$$

     RDKit          2D

 39 43  0  0  0  0  0  0  0  0999 V2000
   -9.7500   -1.2990    0.0000 C   0  0  0  0  0  0  0  0  0  0  0  0
   -8.2500   -1.2990    0.0000 N   0  0  0  0  0  0  0  0  0  0  0  0
   -7.5000    0.0000    0.0000 C   0  0  0  0  0  0  0  0  0  0  0  0
   -8.2500    1.2990    0.0000 O   0  0  0  0  0  0  0  0  0  0  0  0
   -6.0000    0.0000    0.0000 C   0  0  0  0  0  0  0  0  0  0  0  0
   -5.2500    1.2990    0.0000 N   0  0  0  0  0  0  0  0  0  0  0  0
   -3.7500    1.2990    0.0000 C   0  0  0  0  0  0  0  0  0  0  0  0
   -3.0000   -0.0000    0.0000 C   0  0  0  0  0  0  0  0  0  0  0  0
   -3.7500   -1.2990    0.0000 C   0  0  0  0  0  0  0  0  0  0  0  0
   -5.2500   -1.2990    0.0000 C   0  0  0  0  0  0  0  0  0  0  0  0
   -6.0000   -2.5981    0.0000 N   0  0  0  0  0  0  0  0  0  0  0  0
   -5.2500   -3.8971    0.0000 C   0  0  0  0  0  0  0  0  0  0  0  0
   -3.7500   -3.8971    0.0000 N   0  0  0  0  0  0  0  0  0  0  0  0
   -3.0000   -5.1962    0.0000 C   0  0  0  0  0  0  0  0  0  0  0  0
   -1.5000   -5.1962    0.0000 N   0  0  0  0  0  0  0  0  0  0  0  0
   -0.7500   -6.4952    0.0000 C   0  0  0  0  0  0  0  0  0  0  0  0
    0.7500   -6.4952    0.0000 C   0  0  0  0  0  0  0  0  0  0  0  0
    1.5000   -7.7942    0.0000 C   0  0  0  0  0  0  0  0  0  0  0  0
    0.7500   -9.0933    0.0000 C   0  0  0  0  0  0  0  0  0  0  0  0
   -0.7500   -9.0933    0.0000 C   0  0  0  0  0  0  0  0  0  0  0  0
   -1.5000   -7.7942    0.0000 C   0  0  0  0  0  0  0  0  0  0  0  0
   -3.0000   -7.7942    0.0000 O   0  0  0  0  0  0  0  0  0  0  0  0
   -3.7500   -9.0933    0.0000 C   0  0  0  0  0  0  0  0  0  0  0  0
    1.5000  -10.3923    0.0000 C   0  0  0  0  0  0  0  0  0  0  0  0
    3.0000  -10.3923    0.0000 C   0  0  0  0  0  0  0  0  0  0  0  0
    3.7500   -9.0933    0.0000 C   0  0  0  0  0  0  0  0  0  0  0  0
    3.0000   -7.7942    0.0000 N   0  0  0  0  0  0  0  0  0  0  0  0
    3.7500   -6.4952    0.0000 C   0  0  0  0  0  0  0  0  0  0  0  0
    3.0000   -5.1962    0.0000 O   0  0  0  0  0  0  0  0  0  0  0  0
    5.2500   -6.4952    0.0000 C   0  0  0  0  0  0  0  0  0  0  0  0
    6.0000   -5.1962    0.0000 N   0  0  0  0  0  0  0  0  0  0  0  0
    7.5000   -5.1962    0.0000 C   0  0  0  0  0  0  0  0  0  0  0  0
    5.2500   -3.8971    0.0000 C   0  0  0  0  0  0  0  0  0  0  0  0
   -3.7500   -6.4952    0.0000 N   0  0  0  0  0  0  0  0  0  0  0  0
   -5.2500   -6.4952    0.0000 C   0  0  0  0  0  0  0  0  0  0  0  0
   -6.2537   -7.6099    0.0000 N   0  0  0  0  0  0  0  0  0  0  0  0
   -7.6240   -6.9998    0.0000 C   0  0  0  0  0  0  0  0  0  0  0  0
   -7.4672   -5.5080    0.0000 C   0  0  0  0  0  0  0  0  0  0  0  0
   -6.0000   -5.1962    0.0000 C   0  0  0  0  0  0  0  0  0  0  0  0
  1  2  1  0
  2  3  1  0
  3  4  2  0
  3  5  1  0
  5  6  2  0
  6  7  1  0
  7  8  2  0
  8  9  1  0
  9 10  2  0
 10 11  1  0
 11 12  1  0
 12 13  2  0
 13 14  1  0
 14 15  1  0
 15 16  1  0
 16 17  2  0
 17 18  1  0
 18 19  2  0
 19 20  1  0
 20 21  2  0
 21 22  1  0
 22 23  1  0
 19 24  1  0
 24 25  1  0
 25 26  1  0
 26 27  1  0
 27 28  1  0
 28 29  2  0
 28 30  1  0
 30 31  1  0
 31 32  1  0
 31 33  1  0
 14 34  2  0
 34 35  1  0
 35 36  1  0
 36 37  1  0
 37 38  2  0
 38 39  1  0
 10  5  1  0
 39 12  1  0
 21 16  1  0
 39 35  2  0
 27 18  1  0
M  END
>  <Compound_ID>  (128) 
CHEMBL1895450

>  <Molecule Name>  (128) 
GSK-2220400A

>  <Molecular Weight>  (128) 
529.61

>  <AlogP>  (128) 
3.05

>  <Smiles>  (128) 
CNC(=O)c1ncccc1Nc1nc(Nc2cc3c(cc2OC)CCCN3C(=O)CN(C)C)nc2[nH]ccc12

>  <Standard Type>  (128) 
Inhibition

>  <Standard Relation>  (128) 
'='

>  <Standard Units>  (128) 
%

>  <Standard Value>  (128) 
6.6

>  <Assay ChEMBL ID>  (128) 
CHEMBL1962142

>  <Assay Description>  (128) 
GSK_PKIS: MET mean inhibition at 0.1 uM [Nanosyn]

>  <BAO Format ID>  (128) 
BAO_0000357

>  <BAO Label>  (128) 
single protein format

>  <Assay Organism>  (128) 
None

>  <Target ChEMBL ID>  (128) 
CHEMBL3717

>  <Target Name>  (128) 
Hepatocyte growth factor receptor

>  <Target Organism>  (128) 
Homo sapiens

>  <Target Type>  (128) 
SINGLE PROTEIN

>  <Document ChEMBL ID>  (128) 
CHEMBL1961873

>  <Source Description>  (128) 
GSK Published Kinase Inhibitor Set

>  <Document Journal>  (128) 
nan

>  <Document Year>  (128) 
nan

>  <Active>  (128) 
0.0

$$$$

     RDKit          2D

 43 47  0  0  0  0  0  0  0  0999 V2000
   -4.5334   -5.0390    0.0000 C   0  0  0  0  0  0  0  0  0  0  0  0
   -3.3199   -5.9207    0.0000 S   0  0  0  0  0  0  0  0  0  0  0  0
   -2.4382   -4.7072    0.0000 O   0  0  0  0  0  0  0  0  0  0  0  0
   -4.2015   -7.1343    0.0000 O   0  0  0  0  0  0  0  0  0  0  0  0
   -2.1063   -6.8024    0.0000 C   0  0  0  0  0  0  0  0  0  0  0  0
   -0.7360   -6.1923    0.0000 C   0  0  0  0  0  0  0  0  0  0  0  0
    0.4775   -7.0740    0.0000 N   0  0  0  0  0  0  0  0  0  0  0  0
    0.3207   -8.5658    0.0000 C   0  0  0  0  0  0  0  0  0  0  0  0
   -1.0496   -9.1759    0.0000 C   0  0  0  0  0  0  0  0  0  0  0  0
   -2.4199   -9.7860    0.0000 N   0  0  0  0  0  0  0  0  0  0  0  0
    1.8478   -6.4639    0.0000 C   0  0  0  0  0  0  0  0  0  0  0  0
    2.0046   -4.9721    0.0000 C   0  0  0  0  0  0  0  0  0  0  0  0
    3.3037   -4.2221    0.0000 C   0  0  0  0  0  0  0  0  0  0  0  0
    2.9918   -2.7549    0.0000 C   0  0  0  0  0  0  0  0  0  0  0  0
    1.5000   -2.5981    0.0000 C   0  0  0  0  0  0  0  0  0  0  0  0
    0.7500   -1.2990    0.0000 C   0  0  0  0  0  0  0  0  0  0  0  0
    1.5000    0.0000    0.0000 C   0  0  0  0  0  0  0  0  0  0  0  0
    0.7500    1.2990    0.0000 C   0  0  0  0  0  0  0  0  0  0  0  0
   -0.7500    1.2990    0.0000 C   0  0  0  0  0  0  0  0  0  0  0  0
   -1.5000    2.5981    0.0000 N   0  0  0  0  0  0  0  0  0  0  0  0
   -3.0000    2.5981    0.0000 C   0  0  0  0  0  0  0  0  0  0  0  0
   -3.7500    1.2990    0.0000 N   0  0  0  0  0  0  0  0  0  0  0  0
   -3.0000    0.0000    0.0000 C   0  0  0  0  0  0  0  0  0  0  0  0
   -3.7500   -1.2990    0.0000 N   0  0  0  0  0  0  0  0  0  0  0  0
   -5.2500   -1.2990    0.0000 C   0  0  0  0  0  0  0  0  0  0  0  0
   -6.0000    0.0000    0.0000 C   0  0  0  0  0  0  0  0  0  0  0  0
   -7.5000    0.0000    0.0000 C   0  0  0  0  0  0  0  0  0  0  0  0
   -8.2500   -1.2990    0.0000 C   0  0  0  0  0  0  0  0  0  0  0  0
   -9.7500   -1.2990    0.0000 O   0  0  0  0  0  0  0  0  0  0  0  0
  -10.5000    0.0000    0.0000 C   0  0  0  0  0  0  0  0  0  0  0  0
  -12.0000    0.0000    0.0000 C   0  0  0  0  0  0  0  0  0  0  0  0
  -12.7500    1.2990    0.0000 C   0  0  0  0  0  0  0  0  0  0  0  0
  -14.2500    1.2990    0.0000 C   0  0  0  0  0  0  0  0  0  0  0  0
  -15.0000    0.0000    0.0000 C   0  0  0  0  0  0  0  0  0  0  0  0
  -14.2500   -1.2990    0.0000 C   0  0  0  0  0  0  0  0  0  0  0  0
  -15.0000   -2.5981    0.0000 F   0  0  0  0  0  0  0  0  0  0  0  0
  -12.7500   -1.2990    0.0000 C   0  0  0  0  0  0  0  0  0  0  0  0
   -7.5000   -2.5981    0.0000 C   0  0  0  0  0  0  0  0  0  0  0  0
   -8.2500   -3.8971    0.0000 Cl  0  0  0  0  0  0  0  0  0  0  0  0
   -6.0000   -2.5981    0.0000 C   0  0  0  0  0  0  0  0  0  0  0  0
   -1.5000    0.0000    0.0000 C   0  0  0  0  0  0  0  0  0  0  0  0
   -0.7500   -1.2990    0.0000 C   0  0  0  0  0  0  0  0  0  0  0  0
    0.8899   -3.9684    0.0000 O   0  0  0  0  0  0  0  0  0  0  0  0
  1  2  1  0
  2  3  2  0
  2  4  2  0
  2  5  1  0
  5  6  1  0
  6  7  1  0
  7  8  1  0
  8  9  1  0
  9 10  3  0
  7 11  1  0
 11 12  1  0
 12 13  2  0
 13 14  1  0
 14 15  2  0
 15 16  1  0
 16 17  2  0
 17 18  1  0
 18 19  2  0
 19 20  1  0
 20 21  2  0
 21 22  1  0
 22 23  2  0
 23 24  1  0
 24 25  1  0
 25 26  2  0
 26 27  1  0
 27 28  2  0
 28 29  1  0
 29 30  1  0
 30 31  1  0
 31 32  2  0
 32 33  1  0
 33 34  2  0
 34 35  1  0
 35 36  1  0
 35 37  2  0
 28 38  1  0
 38 39  1  0
 38 40  2  0
 23 41  1  0
 41 42  2  0
 15 43  1  0
 43 12  1  0
 42 16  1  0
 41 19  1  0
 40 25  1  0
 37 31  1  0
M  END
>  <Compound_ID>  (129) 
CHEMBL384407

>  <Molecule Name>  (129) 
GW616030X

>  <Molecular Weight>  (129) 
620.11

>  <AlogP>  (129) 
6.38

>  <Smiles>  (129) 
CS(=O)(=O)CCN(CC#N)Cc1ccc(-c2ccc3ncnc(Nc4ccc(OCc5cccc(F)c5)c(Cl)c4)c3c2)o1

>  <Standard Type>  (129) 
Inhibition

>  <Standard Relation>  (129) 
'='

>  <Standard Units>  (129) 
%

>  <Standard Value>  (129) 
2.64

>  <Assay ChEMBL ID>  (129) 
CHEMBL1962143

>  <Assay Description>  (129) 
GSK_PKIS: MET mean inhibition at 1 uM [Nanosyn]

>  <BAO Format ID>  (129) 
BAO_0000357

>  <BAO Label>  (129) 
single protein format

>  <Assay Organism>  (129) 
None

>  <Target ChEMBL ID>  (129) 
CHEMBL3717

>  <Target Name>  (129) 
Hepatocyte growth factor receptor

>  <Target Organism>  (129) 
Homo sapiens

>  <Target Type>  (129) 
SINGLE PROTEIN

>  <Document ChEMBL ID>  (129) 
CHEMBL1961873

>  <Source Description>  (129) 
GSK Published Kinase Inhibitor Set

>  <Document Journal>  (129) 
nan

>  <Document Year>  (129) 
nan

>  <Active>  (129) 
0.0

$$$$

     RDKit          2D

 45 50  0  0  0  0  0  0  0  0999 V2000
    7.1181  -10.4063    0.0000 O   0  0  0  0  0  0  0  0  0  0  0  0
    7.7282   -9.0360    0.0000 S   0  0  0  0  0  0  0  0  0  0  0  0
    8.3383   -7.6657    0.0000 O   0  0  0  0  0  0  0  0  0  0  0  0
    6.3579   -8.4259    0.0000 C   0  0  0  0  0  0  0  0  0  0  0  0
    6.2011   -6.9341    0.0000 C   0  0  0  0  0  0  0  0  0  0  0  0
    4.8308   -6.3240    0.0000 N   0  0  0  0  0  0  0  0  0  0  0  0
    4.6740   -4.8322    0.0000 C   0  0  0  0  0  0  0  0  0  0  0  0
    3.3037   -4.2221    0.0000 C   0  0  0  0  0  0  0  0  0  0  0  0
    2.0046   -4.9721    0.0000 C   0  0  0  0  0  0  0  0  0  0  0  0
    0.8899   -3.9684    0.0000 C   0  0  0  0  0  0  0  0  0  0  0  0
    1.5000   -2.5981    0.0000 C   0  0  0  0  0  0  0  0  0  0  0  0
    0.7500   -1.2990    0.0000 C   0  0  0  0  0  0  0  0  0  0  0  0
    1.5000    0.0000    0.0000 C   0  0  0  0  0  0  0  0  0  0  0  0
    0.7500    1.2990    0.0000 C   0  0  0  0  0  0  0  0  0  0  0  0
   -0.7500    1.2990    0.0000 C   0  0  0  0  0  0  0  0  0  0  0  0
   -1.5000    2.5981    0.0000 N   0  0  0  0  0  0  0  0  0  0  0  0
   -3.0000    2.5981    0.0000 C   0  0  0  0  0  0  0  0  0  0  0  0
   -3.7500    1.2990    0.0000 N   0  0  0  0  0  0  0  0  0  0  0  0
   -3.0000    0.0000    0.0000 C   0  0  0  0  0  0  0  0  0  0  0  0
   -3.7500   -1.2990    0.0000 N   0  0  0  0  0  0  0  0  0  0  0  0
   -5.2500   -1.2990    0.0000 C   0  0  0  0  0  0  0  0  0  0  0  0
   -6.0000    0.0000    0.0000 C   0  0  0  0  0  0  0  0  0  0  0  0
   -7.5000    0.0000    0.0000 C   0  0  0  0  0  0  0  0  0  0  0  0
   -8.2500   -1.2990    0.0000 C   0  0  0  0  0  0  0  0  0  0  0  0
   -9.7500   -1.2990    0.0000 O   0  0  0  0  0  0  0  0  0  0  0  0
  -10.5000    0.0000    0.0000 C   0  0  0  0  0  0  0  0  0  0  0  0
  -12.0000    0.0000    0.0000 C   0  0  0  0  0  0  0  0  0  0  0  0
  -12.7500    1.2990    0.0000 C   0  0  0  0  0  0  0  0  0  0  0  0
  -14.2500    1.2990    0.0000 C   0  0  0  0  0  0  0  0  0  0  0  0
  -15.0000    0.0000    0.0000 C   0  0  0  0  0  0  0  0  0  0  0  0
  -14.2500   -1.2990    0.0000 C   0  0  0  0  0  0  0  0  0  0  0  0
  -15.0000   -2.5981    0.0000 F   0  0  0  0  0  0  0  0  0  0  0  0
  -12.7500   -1.2990    0.0000 C   0  0  0  0  0  0  0  0  0  0  0  0
   -7.5000   -2.5981    0.0000 C   0  0  0  0  0  0  0  0  0  0  0  0
   -8.2500   -3.8971    0.0000 Cl  0  0  0  0  0  0  0  0  0  0  0  0
   -6.0000   -2.5981    0.0000 C   0  0  0  0  0  0  0  0  0  0  0  0
   -1.5000    0.0000    0.0000 C   0  0  0  0  0  0  0  0  0  0  0  0
   -0.7500   -1.2990    0.0000 C   0  0  0  0  0  0  0  0  0  0  0  0
    2.9918   -2.7549    0.0000 O   0  0  0  0  0  0  0  0  0  0  0  0
    9.0985   -9.6461    0.0000 C   0  0  0  0  0  0  0  0  0  0  0  0
    9.2553  -11.1379    0.0000 C   0  0  0  0  0  0  0  0  0  0  0  0
   10.6256  -11.7480    0.0000 C   0  0  0  0  0  0  0  0  0  0  0  0
   11.8391  -10.8663    0.0000 C   0  0  0  0  0  0  0  0  0  0  0  0
   11.6824   -9.3745    0.0000 C   0  0  0  0  0  0  0  0  0  0  0  0
   10.3120   -8.7644    0.0000 C   0  0  0  0  0  0  0  0  0  0  0  0
  1  2  2  0
  2  3  2  0
  2  4  1  0
  4  5  1  0
  5  6  1  0
  6  7  1  0
  7  8  1  0
  8  9  2  0
  9 10  1  0
 10 11  2  0
 11 12  1  0
 12 13  2  0
 13 14  1  0
 14 15  2  0
 15 16  1  0
 16 17  2  0
 17 18  1  0
 18 19  2  0
 19 20  1  0
 20 21  1  0
 21 22  2  0
 22 23  1  0
 23 24  2  0
 24 25  1  0
 25 26  1  0
 26 27  1  0
 27 28  2  0
 28 29  1  0
 29 30  2  0
 30 31  1  0
 31 32  1  0
 31 33  2  0
 24 34  1  0
 34 35  1  0
 34 36  2  0
 19 37  1  0
 37 38  2  0
 11 39  1  0
  2 40  1  0
 40 41  2  0
 41 42  1  0
 42 43  2  0
 43 44  1  0
 44 45  2  0
 39  8  1  0
 45 40  1  0
 38 12  1  0
 37 15  1  0
 36 21  1  0
 33 27  1  0
M  END
>  <Compound_ID>  (130) 
CHEMBL1909395

>  <Molecule Name>  (130) 
GW633459A

>  <Molecular Weight>  (130) 
679.60

>  <AlogP>  (130) 
7.57

>  <Smiles>  (130) 
O=S(=O)(CCNCc1ccc(-c2ccc3ncnc(Nc4ccc(OCc5cccc(F)c5)c(Cl)c4)c3c2)o1)c1ccccc1

>  <Standard Type>  (130) 
Inhibition

>  <Standard Relation>  (130) 
'='

>  <Standard Units>  (130) 
%

>  <Standard Value>  (130) 
6.95

>  <Assay ChEMBL ID>  (130) 
CHEMBL1962143

>  <Assay Description>  (130) 
GSK_PKIS: MET mean inhibition at 1 uM [Nanosyn]

>  <BAO Format ID>  (130) 
BAO_0000357

>  <BAO Label>  (130) 
single protein format

>  <Assay Organism>  (130) 
None

>  <Target ChEMBL ID>  (130) 
CHEMBL3717

>  <Target Name>  (130) 
Hepatocyte growth factor receptor

>  <Target Organism>  (130) 
Homo sapiens

>  <Target Type>  (130) 
SINGLE PROTEIN

>  <Document ChEMBL ID>  (130) 
CHEMBL1961873

>  <Source Description>  (130) 
GSK Published Kinase Inhibitor Set

>  <Document Journal>  (130) 
nan

>  <Document Year>  (130) 
nan

>  <Active>  (130) 
0.0

$$$$

     RDKit          2D

 30 34  0  0  0  0  0  0  0  0999 V2000
    3.0613  -12.5417    0.0000 O   0  0  0  0  0  0  0  0  0  0  0  0
    1.8478  -11.6600    0.0000 C   0  0  0  0  0  0  0  0  0  0  0  0
    0.4775  -12.2701    0.0000 O   0  0  0  0  0  0  0  0  0  0  0  0
    2.0046  -10.1682    0.0000 C   0  0  0  0  0  0  0  0  0  0  0  0
    3.3037   -9.4182    0.0000 C   0  0  0  0  0  0  0  0  0  0  0  0
    2.9918   -7.9510    0.0000 C   0  0  0  0  0  0  0  0  0  0  0  0
    1.5000   -7.7942    0.0000 C   0  0  0  0  0  0  0  0  0  0  0  0
    0.7500   -6.4952    0.0000 C   0  0  0  0  0  0  0  0  0  0  0  0
    1.5000   -5.1962    0.0000 N   0  0  0  0  0  0  0  0  0  0  0  0
    0.7500   -3.8971    0.0000 C   0  0  0  0  0  0  0  0  0  0  0  0
    1.5000   -2.5981    0.0000 C   0  0  0  0  0  0  0  0  0  0  0  0
    0.7500   -1.2990    0.0000 C   0  0  0  0  0  0  0  0  0  0  0  0
    1.5000    0.0000    0.0000 C   0  0  0  0  0  0  0  0  0  0  0  0
    0.7500    1.2990    0.0000 C   0  0  0  0  0  0  0  0  0  0  0  0
   -0.7500    1.2990    0.0000 C   0  0  0  0  0  0  0  0  0  0  0  0
   -1.5000    0.0000    0.0000 C   0  0  0  0  0  0  0  0  0  0  0  0
   -0.7500   -1.2990    0.0000 C   0  0  0  0  0  0  0  0  0  0  0  0
   -1.5000   -2.5981    0.0000 C   0  0  0  0  0  0  0  0  0  0  0  0
   -0.7500   -3.8971    0.0000 C   0  0  0  0  0  0  0  0  0  0  0  0
   -1.5000   -5.1962    0.0000 N   0  0  0  0  0  0  0  0  0  0  0  0
   -0.7500   -6.4952    0.0000 C   0  0  0  0  0  0  0  0  0  0  0  0
   -1.5000   -7.7942    0.0000 C   0  0  0  0  0  0  0  0  0  0  0  0
   -0.8899   -9.1645    0.0000 C   0  0  0  0  0  0  0  0  0  0  0  0
   -2.0046  -10.1682    0.0000 C   0  0  0  0  0  0  0  0  0  0  0  0
   -3.3037   -9.4182    0.0000 C   0  0  0  0  0  0  0  0  0  0  0  0
   -4.6740  -10.0283    0.0000 C   0  0  0  0  0  0  0  0  0  0  0  0
   -4.8308  -11.5201    0.0000 O   0  0  0  0  0  0  0  0  0  0  0  0
   -5.8875   -9.1467    0.0000 O   0  0  0  0  0  0  0  0  0  0  0  0
   -2.9918   -7.9510    0.0000 S   0  0  0  0  0  0  0  0  0  0  0  0
    0.8899   -9.1645    0.0000 S   0  0  0  0  0  0  0  0  0  0  0  0
  1  2  2  0
  2  3  1  0
  2  4  1  0
  4  5  2  0
  5  6  1  0
  6  7  2  0
  7  8  1  0
  8  9  2  0
  9 10  1  0
 10 11  2  0
 11 12  1  0
 12 13  2  0
 13 14  1  0
 14 15  2  0
 15 16  1  0
 16 17  2  0
 17 18  1  0
 18 19  2  0
 19 20  1  0
 20 21  2  0
 21 22  1  0
 22 23  2  0
 23 24  1  0
 24 25  2  0
 25 26  1  0
 26 27  2  0
 26 28  1  0
 25 29  1  0
  7 30  1  0
 30  4  1  0
 21  8  1  0
 29 22  1  0
 19 10  1  0
 17 12  1  0
M  END
>  <Compound_ID>  (131) 
CHEMBL366185

>  <Molecule Name>  (131) 
nan

>  <Molecular Weight>  (131) 
432.48

>  <AlogP>  (131) 
5.64

>  <Smiles>  (131) 
O=C(O)c1ccc(-c2nc3cc4ccccc4cc3nc2-c2ccc(C(=O)O)s2)s1

>  <Standard Type>  (131) 
Inhibition

>  <Standard Relation>  (131) 
'='

>  <Standard Units>  (131) 
%

>  <Standard Value>  (131) 
-4.0

>  <Assay ChEMBL ID>  (131) 
CHEMBL835467

>  <Assay Description>  (131) 
In vitro percent inhibition of Met proto-oncogene tyrosine kinase at 10 uM concentration of compound dissolved in 100% DMSO using 5''-[gamma-33P]-triphosphate

>  <BAO Format ID>  (131) 
BAO_0000357

>  <BAO Label>  (131) 
single protein format

>  <Assay Organism>  (131) 
None

>  <Target ChEMBL ID>  (131) 
CHEMBL3717

>  <Target Name>  (131) 
Hepatocyte growth factor receptor

>  <Target Organism>  (131) 
Homo sapiens

>  <Target Type>  (131) 
SINGLE PROTEIN

>  <Document ChEMBL ID>  (131) 
CHEMBL1140238

>  <Source Description>  (131) 
Scientific Literature

>  <Document Journal>  (131) 
Bioorg Med Chem Lett

>  <Document Year>  (131) 
2005.0

>  <Active>  (131) 
0.0

$$$$

     RDKit          2D

 22 25  0  0  0  0  0  0  0  0999 V2000
    3.0000    0.0000    0.0000 O   0  0  0  0  0  0  0  0  0  0  0  0
    1.5000    0.0000    0.0000 C   0  0  0  0  0  0  0  0  0  0  0  0
    0.7500   -1.2990    0.0000 C   0  0  0  0  0  0  0  0  0  0  0  0
   -0.7500   -1.2990    0.0000 C   0  0  0  0  0  0  0  0  0  0  0  0
   -1.5000   -2.5981    0.0000 N   0  0  0  0  0  0  0  0  0  0  0  0
   -3.0000   -2.5981    0.0000 C   0  0  0  0  0  0  0  0  0  0  0  0
   -3.7500   -3.8971    0.0000 C   0  0  0  0  0  0  0  0  0  0  0  0
   -3.1399   -5.2674    0.0000 C   0  0  0  0  0  0  0  0  0  0  0  0
   -4.2546   -6.2711    0.0000 C   0  0  0  0  0  0  0  0  0  0  0  0
   -5.5537   -5.5211    0.0000 C   0  0  0  0  0  0  0  0  0  0  0  0
   -5.2418   -4.0539    0.0000 S   0  0  0  0  0  0  0  0  0  0  0  0
   -3.7500   -1.2990    0.0000 C   0  0  0  0  0  0  0  0  0  0  0  0
   -5.2500   -1.2990    0.0000 C   0  0  0  0  0  0  0  0  0  0  0  0
   -6.1317   -2.5126    0.0000 C   0  0  0  0  0  0  0  0  0  0  0  0
   -7.5583   -2.0490    0.0000 C   0  0  0  0  0  0  0  0  0  0  0  0
   -7.5583   -0.5490    0.0000 C   0  0  0  0  0  0  0  0  0  0  0  0
   -6.1317   -0.0855    0.0000 S   0  0  0  0  0  0  0  0  0  0  0  0
   -3.0000    0.0000    0.0000 N   0  0  0  0  0  0  0  0  0  0  0  0
   -1.5000    0.0000    0.0000 C   0  0  0  0  0  0  0  0  0  0  0  0
   -0.7500    1.2990    0.0000 C   0  0  0  0  0  0  0  0  0  0  0  0
    0.7500    1.2990    0.0000 C   0  0  0  0  0  0  0  0  0  0  0  0
    1.5000    2.5981    0.0000 O   0  0  0  0  0  0  0  0  0  0  0  0
  1  2  1  0
  2  3  2  0
  3  4  1  0
  4  5  2  0
  5  6  1  0
  6  7  1  0
  7  8  2  0
  8  9  1  0
  9 10  2  0
 10 11  1  0
  6 12  2  0
 12 13  1  0
 13 14  2  0
 14 15  1  0
 15 16  2  0
 16 17  1  0
 12 18  1  0
 18 19  2  0
 19 20  1  0
 20 21  2  0
 21 22  1  0
 21  2  1  0
 19  4  1  0
 11  7  1  0
 17 13  1  0
M  END
>  <Compound_ID>  (132) 
CHEMBL190039

>  <Molecule Name>  (132) 
nan

>  <Molecular Weight>  (132) 
326.40

>  <AlogP>  (132) 
4.50

>  <Smiles>  (132) 
Oc1cc2nc(-c3cccs3)c(-c3cccs3)nc2cc1O

>  <Standard Type>  (132) 
Inhibition

>  <Standard Relation>  (132) 
'='

>  <Standard Units>  (132) 
%

>  <Standard Value>  (132) 
0.0

>  <Assay ChEMBL ID>  (132) 
CHEMBL835467

>  <Assay Description>  (132) 
In vitro percent inhibition of Met proto-oncogene tyrosine kinase at 10 uM concentration of compound dissolved in 100% DMSO using 5''-[gamma-33P]-triphosphate

>  <BAO Format ID>  (132) 
BAO_0000357

>  <BAO Label>  (132) 
single protein format

>  <Assay Organism>  (132) 
None

>  <Target ChEMBL ID>  (132) 
CHEMBL3717

>  <Target Name>  (132) 
Hepatocyte growth factor receptor

>  <Target Organism>  (132) 
Homo sapiens

>  <Target Type>  (132) 
SINGLE PROTEIN

>  <Document ChEMBL ID>  (132) 
CHEMBL1140238

>  <Source Description>  (132) 
Scientific Literature

>  <Document Journal>  (132) 
Bioorg Med Chem Lett

>  <Document Year>  (132) 
2005.0

>  <Active>  (132) 
0.0

$$$$

     RDKit          2D

 43 48  0  0  0  0  0  0  0  0999 V2000
   -7.5275   -0.0000    0.0000 N   0  0  0  0  0  2  0  0  0  0  0  0
   -6.2284   -0.7500    0.0000 N   0  0  0  0  0  4  0  0  0  0  0  0
   -4.9294   -1.5000    0.0000 N   0  0  0  0  0  0  0  0  0  0  0  0
   -3.6304   -0.7500    0.0000 C   0  0  0  0  0  0  0  0  0  0  0  0
   -3.6304    0.7500    0.0000 N   0  0  0  0  0  0  0  0  0  0  0  0
   -2.3313    1.5000    0.0000 C   0  0  0  0  0  0  0  0  0  0  0  0
   -2.3313    3.0000    0.0000 O   0  0  0  0  0  0  0  0  0  0  0  0
   -3.6304    3.7500    0.0000 C   0  0  0  0  0  0  0  0  0  0  0  0
   -3.6304    5.2500    0.0000 C   0  0  0  0  0  0  0  0  0  0  0  0
   -4.9294    6.0000    0.0000 C   0  0  0  0  0  0  0  0  0  0  0  0
   -6.2284    5.2500    0.0000 C   0  0  0  0  0  0  0  0  0  0  0  0
   -7.5275    6.0000    0.0000 N   0  0  0  0  0  0  0  0  0  0  0  0
   -7.5275    7.5000    0.0000 C   0  0  0  0  0  0  0  0  0  0  0  0
   -6.2284    8.2500    0.0000 O   0  0  0  0  0  0  0  0  0  0  0  0
   -8.8265    8.2500    0.0000 C   0  0  0  0  0  0  0  0  0  0  0  0
   -8.8265    9.7500    0.0000 C   0  0  0  0  0  0  0  0  0  0  0  0
  -10.1256   10.5000    0.0000 C   0  0  0  0  0  0  0  0  0  0  0  0
  -11.4246    9.7500    0.0000 C   0  0  0  0  0  0  0  0  0  0  0  0
  -11.4246    8.2500    0.0000 N   0  0  0  0  0  0  0  0  0  0  0  0
  -12.7236    7.5000    0.0000 C   0  0  0  0  0  0  0  0  0  0  0  0
  -14.0227    8.2500    0.0000 C   0  0  0  0  0  0  0  0  0  0  0  0
  -15.3217    7.5000    0.0000 C   0  0  0  0  0  0  0  0  0  0  0  0
  -15.3217    6.0000    0.0000 C   0  0  0  0  0  0  0  0  0  0  0  0
  -16.6207    5.2500    0.0000 F   0  0  0  0  0  0  0  0  0  0  0  0
  -14.0227    5.2500    0.0000 C   0  0  0  0  0  0  0  0  0  0  0  0
  -12.7236    6.0000    0.0000 C   0  0  0  0  0  0  0  0  0  0  0  0
  -10.1256    7.5000    0.0000 C   0  0  0  0  0  0  0  0  0  0  0  0
  -10.1256    6.0000    0.0000 O   0  0  0  0  0  0  0  0  0  0  0  0
   -6.2284    3.7500    0.0000 C   0  0  0  0  0  0  0  0  0  0  0  0
   -4.9294    3.0000    0.0000 C   0  0  0  0  0  0  0  0  0  0  0  0
   -4.9294    1.5000    0.0000 F   0  0  0  0  0  0  0  0  0  0  0  0
   -1.0323    0.7500    0.0000 C   0  0  0  0  0  0  0  0  0  0  0  0
    0.3943    1.2135    0.0000 C   0  0  0  0  0  0  0  0  0  0  0  0
    0.8578    2.6401    0.0000 C   0  0  0  0  0  0  0  0  0  0  0  0
    2.3250    2.9520    0.0000 C   0  0  0  0  0  0  0  0  0  0  0  0
    2.7886    4.3786    0.0000 C   0  0  0  0  0  0  0  0  0  0  0  0
    1.7849    5.4933    0.0000 C   0  0  0  0  0  0  0  0  0  0  0  0
    0.3177    5.1814    0.0000 C   0  0  0  0  0  0  0  0  0  0  0  0
   -0.1459    3.7548    0.0000 C   0  0  0  0  0  0  0  0  0  0  0  0
    1.2760    0.0000    0.0000 C   0  0  0  0  0  0  0  0  0  0  0  0
    0.3943   -1.2135    0.0000 O   0  0  0  0  0  0  0  0  0  0  0  0
   -1.0323   -0.7500    0.0000 C   0  0  0  0  0  0  0  0  0  0  0  0
   -2.3313   -1.5000    0.0000 N   0  0  0  0  0  0  0  0  0  0  0  0
  1  2  2  0
  2  3  2  0
  3  4  1  0
  4  5  2  0
  5  6  1  0
  6  7  1  0
  7  8  1  0
  8  9  2  0
  9 10  1  0
 10 11  2  0
 11 12  1  0
 12 13  1  0
 13 14  2  0
 13 15  1  0
 15 16  2  0
 16 17  1  0
 17 18  2  0
 18 19  1  0
 19 20  1  0
 20 21  2  0
 21 22  1  0
 22 23  2  0
 23 24  1  0
 23 25  1  0
 25 26  2  0
 19 27  1  0
 27 28  2  0
 11 29  1  0
 29 30  2  0
 30 31  1  0
  6 32  2  0
 32 33  1  0
 33 34  1  0
 34 35  2  0
 35 36  1  0
 36 37  2  0
 37 38  1  0
 38 39  2  0
 33 40  2  0
 40 41  1  0
 41 42  1  0
 42 43  2  0
 43  4  1  0
 30  8  1  0
 42 32  1  0
 27 15  1  0
 39 34  1  0
 26 20  1  0
M  CHG  2   1  -1   2   1
M  END
>  <Compound_ID>  (133) 
CHEMBL1813653

>  <Molecule Name>  (133) 
nan

>  <Molecular Weight>  (133) 
577.51

>  <AlogP>  (133) 
7.31

>  <Smiles>  (133) 
[N-]=[N+]=Nc1nc(Oc2ccc(NC(=O)c3cccn(-c4ccc(F)cc4)c3=O)cc2F)c2c(-c3ccccc3)coc2n1

>  <Standard Type>  (133) 
Inhibition

>  <Standard Relation>  (133) 
'='

>  <Standard Units>  (133) 
%

>  <Standard Value>  (133) 
18.5

>  <Assay ChEMBL ID>  (133) 
CHEMBL1816160

>  <Assay Description>  (133) 
Inhibition of c-Met at 10 uM after 60 mins by ELISA

>  <BAO Format ID>  (133) 
BAO_0000357

>  <BAO Label>  (133) 
single protein format

>  <Assay Organism>  (133) 
None

>  <Target ChEMBL ID>  (133) 
CHEMBL3717

>  <Target Name>  (133) 
Hepatocyte growth factor receptor

>  <Target Organism>  (133) 
Homo sapiens

>  <Target Type>  (133) 
SINGLE PROTEIN

>  <Document ChEMBL ID>  (133) 
CHEMBL1811756

>  <Source Description>  (133) 
Scientific Literature

>  <Document Journal>  (133) 
Bioorg Med Chem

>  <Document Year>  (133) 
2011.0

>  <Active>  (133) 
0.0

$$$$

     RDKit          2D

 24 27  0  0  0  0  0  0  0  0999 V2000
    1.2990   -5.9462    0.0000 O   0  0  0  0  0  0  0  0  0  0  0  0
   -0.0000   -5.1962    0.0000 S   0  0  0  0  0  0  0  0  0  0  0  0
   -1.2990   -4.4462    0.0000 O   0  0  0  0  0  0  0  0  0  0  0  0
   -0.7500   -6.4952    0.0000 C   0  0  0  0  0  0  0  0  0  0  0  0
   -2.2500   -6.4952    0.0000 C   0  0  0  0  0  0  0  0  0  0  0  0
   -3.0000   -7.7942    0.0000 C   0  0  0  0  0  0  0  0  0  0  0  0
   -2.2500   -9.0933    0.0000 C   0  0  0  0  0  0  0  0  0  0  0  0
   -0.7500   -9.0933    0.0000 C   0  0  0  0  0  0  0  0  0  0  0  0
   -0.0000  -10.3923    0.0000 C   0  0  0  0  0  0  0  0  0  0  0  0
    1.5000  -10.3923    0.0000 N   0  0  0  0  0  0  0  0  0  0  0  0
    2.2500   -9.0933    0.0000 C   0  0  0  0  0  0  0  0  0  0  0  0
    1.5000   -7.7942    0.0000 C   0  0  0  0  0  0  0  0  0  0  0  0
   -0.0000   -7.7942    0.0000 C   0  0  0  0  0  0  0  0  0  0  0  0
    0.7500   -3.8971    0.0000 N   0  0  0  0  0  0  0  0  0  0  0  0
    2.2500   -3.8971    0.0000 C   0  0  0  0  0  0  0  0  0  0  0  0
    3.0000   -2.5981    0.0000 C   0  0  0  0  0  0  0  0  0  0  0  0
    2.2500   -1.2990    0.0000 C   0  0  0  0  0  0  0  0  0  0  0  0
    0.7500   -1.2990    0.0000 C   0  0  0  0  0  0  0  0  0  0  0  0
    1.5000    0.0000    0.0000 C   0  0  0  0  0  0  0  0  0  0  0  0
    0.7500    1.2990    0.0000 C   0  0  0  0  0  0  0  0  0  0  0  0
   -0.7500    1.2990    0.0000 C   0  0  0  0  0  0  0  0  0  0  0  0
   -1.5000    0.0000    0.0000 N   0  0  0  0  0  0  0  0  0  0  0  0
   -0.7500   -1.2990    0.0000 C   0  0  0  0  0  0  0  0  0  0  0  0
   -0.0000   -2.5981    0.0000 C   0  0  0  0  0  0  0  0  0  0  0  0
  1  2  2  0
  2  3  2  0
  2  4  1  0
  4  5  2  0
  5  6  1  0
  6  7  2  0
  7  8  1  0
  8  9  2  0
  9 10  1  0
 10 11  2  0
 11 12  1  0
 12 13  2  0
  2 14  1  0
 14 15  1  0
 15 16  1  0
 16 17  1  0
 17 18  1  0
 18 19  1  0
 19 20  1  0
 20 21  1  0
 21 22  1  0
 22 23  1  0
 18 24  1  0
 13  4  1  0
 24 14  1  0
 13  8  1  0
 23 18  1  0
M  END
>  <Compound_ID>  (134) 
CHEMBL2420922

>  <Molecule Name>  (134) 
nan

>  <Molecular Weight>  (134) 
345.47

>  <AlogP>  (134) 
2.39

>  <Smiles>  (134) 
O=S(=O)(c1cccc2cnccc12)N1CCCC2(CCCNC2)C1

>  <Standard Type>  (134) 
Inhibition

>  <Standard Relation>  (134) 
'='

>  <Standard Units>  (134) 
%

>  <Standard Value>  (134) 
8.0

>  <Assay ChEMBL ID>  (134) 
CHEMBL2424318

>  <Assay Description>  (134) 
Inhibition of MET (unknown origin) at 30 uM by microfluidic mobility shift assay relative to control

>  <BAO Format ID>  (134) 
BAO_0000357

>  <BAO Label>  (134) 
single protein format

>  <Assay Organism>  (134) 
Homo sapiens

>  <Target ChEMBL ID>  (134) 
CHEMBL3717

>  <Target Name>  (134) 
Hepatocyte growth factor receptor

>  <Target Organism>  (134) 
Homo sapiens

>  <Target Type>  (134) 
SINGLE PROTEIN

>  <Document ChEMBL ID>  (134) 
CHEMBL2417369

>  <Source Description>  (134) 
Scientific Literature

>  <Document Journal>  (134) 
Bioorg Med Chem

>  <Document Year>  (134) 
2013.0

>  <Active>  (134) 
0.0

$$$$

     RDKit          2D

 36 40  0  0  0  0  0  0  0  0999 V2000
    6.0000   -2.5981    0.0000 N   0  0  0  0  0  0  0  0  0  0  0  0
    5.2500   -1.2990    0.0000 C   0  0  0  0  0  0  0  0  0  0  0  0
    6.0000    0.0000    0.0000 O   0  0  0  0  0  0  0  0  0  0  0  0
    3.7500   -1.2990    0.0000 C   0  0  0  0  0  0  0  0  0  0  0  0
    3.0000    0.0000    0.0000 C   0  0  0  0  0  0  0  0  0  0  0  0
    1.5000    0.0000    0.0000 C   0  0  0  0  0  0  0  0  0  0  0  0
    0.7500   -1.2990    0.0000 C   0  0  0  0  0  0  0  0  0  0  0  0
   -0.7500   -1.2990    0.0000 C   0  0  0  0  0  0  0  0  0  0  0  0
   -1.5000    0.0000    0.0000 C   0  0  0  0  0  0  0  0  0  0  0  0
   -0.7500    1.2990    0.0000 C   0  0  0  0  0  0  0  0  0  0  0  0
    0.7500    1.2990    0.0000 C   0  0  0  0  0  0  0  0  0  0  0  0
    1.5000    2.5981    0.0000 O   0  0  0  0  0  0  0  0  0  0  0  0
    0.7500    3.8971    0.0000 C   0  0  0  0  0  0  0  0  0  0  0  0
    1.5000    5.1962    0.0000 N   0  0  0  0  0  0  0  0  0  0  0  0
    0.7500    6.4952    0.0000 C   0  0  0  0  0  0  0  0  0  0  0  0
   -0.7500    6.4952    0.0000 C   0  0  0  0  0  0  0  0  0  0  0  0
   -1.5000    5.1962    0.0000 C   0  0  0  0  0  0  0  0  0  0  0  0
   -3.0000    5.1962    0.0000 C   0  0  0  0  0  0  0  0  0  0  0  0
   -3.8817    3.9826    0.0000 C   0  0  0  0  0  0  0  0  0  0  0  0
   -3.4182    2.5560    0.0000 C   0  0  0  0  0  0  0  0  0  0  0  0
   -4.4218    1.4413    0.0000 C   0  0  0  0  0  0  0  0  0  0  0  0
   -3.9583    0.0147    0.0000 C   0  0  0  0  0  0  0  0  0  0  0  0
   -2.4911   -0.2971    0.0000 C   0  0  0  0  0  0  0  0  0  0  0  0
   -2.0276   -1.7237    0.0000 F   0  0  0  0  0  0  0  0  0  0  0  0
   -1.4874    0.8176    0.0000 C   0  0  0  0  0  0  0  0  0  0  0  0
   -1.9509    2.2442    0.0000 C   0  0  0  0  0  0  0  0  0  0  0  0
   -5.3083    4.4462    0.0000 N   0  0  0  0  0  0  0  0  0  0  0  0
   -5.3083    5.9462    0.0000 C   0  0  0  0  0  0  0  0  0  0  0  0
   -3.8817    6.4097    0.0000 N   0  0  0  0  0  0  0  0  0  0  0  0
   -3.4182    7.8363    0.0000 C   0  0  0  0  0  0  0  0  0  0  0  0
   -1.9509    8.1481    0.0000 C   0  0  0  0  0  0  0  0  0  0  0  0
   -1.4874    9.5747    0.0000 C   0  0  0  0  0  0  0  0  0  0  0  0
   -2.4911   10.6894    0.0000 N   0  0  0  0  0  0  0  0  0  0  0  0
   -3.9583   10.3776    0.0000 C   0  0  0  0  0  0  0  0  0  0  0  0
   -4.4218    8.9510    0.0000 C   0  0  0  0  0  0  0  0  0  0  0  0
   -0.7500    3.8971    0.0000 N   0  0  0  0  0  0  0  0  0  0  0  0
  1  2  1  0
  2  3  2  0
  2  4  1  0
  4  5  1  0
  5  6  1  0
  6  7  2  0
  7  8  1  0
  8  9  2  0
  9 10  1  0
 10 11  2  0
 11 12  1  0
 12 13  1  0
 13 14  2  0
 14 15  1  0
 15 16  2  0
 16 17  1  0
 17 18  1  0
 18 19  2  0
 19 20  1  0
 20 21  2  0
 21 22  1  0
 22 23  2  0
 23 24  1  0
 23 25  1  0
 25 26  2  0
 19 27  1  0
 27 28  2  0
 28 29  1  0
 29 30  1  0
 30 31  1  0
 31 32  1  0
 32 33  1  0
 33 34  1  0
 34 35  1  0
 17 36  2  0
 11  6  1  0
 36 13  1  0
 29 18  1  0
 35 30  1  0
 26 20  1  0
M  END
>  <Compound_ID>  (135) 
CHEMBL1785003

>  <Molecule Name>  (135) 
nan

>  <Molecular Weight>  (135) 
486.55

>  <AlogP>  (135) 
4.28

>  <Smiles>  (135) 
NC(=O)CCc1ccccc1Oc1nccc(-c2c(-c3ccc(F)cc3)ncn2C2CCNCC2)n1

>  <Standard Type>  (135) 
Inhibition

>  <Standard Relation>  (135) 
'='

>  <Standard Units>  (135) 
%

>  <Standard Value>  (135) 
4.01

>  <Assay ChEMBL ID>  (135) 
CHEMBL1962142

>  <Assay Description>  (135) 
GSK_PKIS: MET mean inhibition at 0.1 uM [Nanosyn]

>  <BAO Format ID>  (135) 
BAO_0000357

>  <BAO Label>  (135) 
single protein format

>  <Assay Organism>  (135) 
None

>  <Target ChEMBL ID>  (135) 
CHEMBL3717

>  <Target Name>  (135) 
Hepatocyte growth factor receptor

>  <Target Organism>  (135) 
Homo sapiens

>  <Target Type>  (135) 
SINGLE PROTEIN

>  <Document ChEMBL ID>  (135) 
CHEMBL1961873

>  <Source Description>  (135) 
GSK Published Kinase Inhibitor Set

>  <Document Journal>  (135) 
nan

>  <Document Year>  (135) 
nan

>  <Active>  (135) 
0.0

$$$$

     RDKit          2D

 29 32  0  0  0  0  0  0  0  0999 V2000
    5.2500   -1.2990    0.0000 C   0  0  0  0  0  0  0  0  0  0  0  0
    3.7500   -1.2990    0.0000 N   0  0  0  0  0  0  0  0  0  0  0  0
    3.0000   -2.5981    0.0000 C   0  0  0  0  0  0  0  0  0  0  0  0
    3.0000    0.0000    0.0000 C   0  0  0  0  0  0  0  0  0  0  0  0
    1.5000    0.0000    0.0000 C   0  0  0  0  0  0  0  0  0  0  0  0
    0.7500   -1.2990    0.0000 C   0  0  0  0  0  0  0  0  0  0  0  0
   -0.7500   -1.2990    0.0000 C   0  0  0  0  0  0  0  0  0  0  0  0
   -1.5000    0.0000    0.0000 C   0  0  0  0  0  0  0  0  0  0  0  0
   -2.9672    0.3119    0.0000 N   0  0  0  0  0  0  0  0  0  0  0  0
   -3.1240    1.8037    0.0000 C   0  0  0  0  0  0  0  0  0  0  0  0
   -4.4231    2.5537    0.0000 N   0  0  0  0  0  0  0  0  0  0  0  0
   -4.4231    4.0537    0.0000 C   0  0  0  0  0  0  0  0  0  0  0  0
   -3.1240    4.8037    0.0000 O   0  0  0  0  0  0  0  0  0  0  0  0
   -5.7221    4.8037    0.0000 N   0  0  0  0  0  0  0  0  0  0  0  0
   -5.7221    6.3037    0.0000 N   0  0  0  0  0  0  0  0  0  0  0  0
   -7.0211    7.0537    0.0000 C   0  0  0  0  0  0  0  0  0  0  0  0
   -8.3914    6.4435    0.0000 C   0  0  0  0  0  0  0  0  0  0  0  0
   -8.7033    4.9763    0.0000 O   0  0  0  0  0  0  0  0  0  0  0  0
   -9.3951    7.5583    0.0000 N   0  0  0  0  0  0  0  0  0  0  0  0
   -8.6451    8.8573    0.0000 C   0  0  0  0  0  0  0  0  0  0  0  0
   -9.1087   10.2839    0.0000 C   0  0  0  0  0  0  0  0  0  0  0  0
   -8.1050   11.3986    0.0000 C   0  0  0  0  0  0  0  0  0  0  0  0
   -6.6378   11.0867    0.0000 C   0  0  0  0  0  0  0  0  0  0  0  0
   -5.6341   12.2015    0.0000 F   0  0  0  0  0  0  0  0  0  0  0  0
   -6.1742    9.6602    0.0000 C   0  0  0  0  0  0  0  0  0  0  0  0
   -7.1779    8.5454    0.0000 C   0  0  0  0  0  0  0  0  0  0  0  0
   -1.7537    2.4138    0.0000 S   0  0  0  0  0  0  0  0  0  0  0  0
   -0.7500    1.2990    0.0000 C   0  0  0  0  0  0  0  0  0  0  0  0
    0.7500    1.2990    0.0000 C   0  0  0  0  0  0  0  0  0  0  0  0
  1  2  1  0
  2  3  1  0
  2  4  1  0
  4  5  1  0
  5  6  2  0
  6  7  1  0
  7  8  2  0
  8  9  1  0
  9 10  2  0
 10 11  1  0
 11 12  1  0
 12 13  2  0
 12 14  1  0
 14 15  1  0
 15 16  2  0
 16 17  1  0
 17 18  2  0
 17 19  1  0
 19 20  1  0
 20 21  2  0
 21 22  1  0
 22 23  2  0
 23 24  1  0
 23 25  1  0
 25 26  2  0
 10 27  1  0
 27 28  1  0
 28 29  2  0
 29  5  1  0
 28  8  1  0
 26 16  1  0
 26 20  1  0
M  END
>  <Compound_ID>  (136) 
CHEMBL3415260

>  <Molecule Name>  (136) 
nan

>  <Molecular Weight>  (136) 
412.45

>  <AlogP>  (136) 
2.97

>  <Smiles>  (136) 
CN(C)Cc1ccc2nc(NC(=O)N/N=C3\C(=O)Nc4ccc(F)cc43)sc2c1

>  <Standard Type>  (136) 
Inhibition

>  <Standard Relation>  (136) 
'='

>  <Standard Units>  (136) 
%

>  <Standard Value>  (136) 
12.5

>  <Assay ChEMBL ID>  (136) 
CHEMBL3420457

>  <Assay Description>  (136) 
Inhibition of c-met (unknown origin) at 10 uM by HTRF method

>  <BAO Format ID>  (136) 
BAO_0000357

>  <BAO Label>  (136) 
single protein format

>  <Assay Organism>  (136) 
Homo sapiens

>  <Target ChEMBL ID>  (136) 
CHEMBL3717

>  <Target Name>  (136) 
Hepatocyte growth factor receptor

>  <Target Organism>  (136) 
Homo sapiens

>  <Target Type>  (136) 
SINGLE PROTEIN

>  <Document ChEMBL ID>  (136) 
CHEMBL3414507

>  <Source Description>  (136) 
Scientific Literature

>  <Document Journal>  (136) 
Eur J Med Chem

>  <Document Year>  (136) 
2015.0

>  <Active>  (136) 
0.0

$$$$

     RDKit          2D

 27 30  0  0  0  0  0  0  0  0999 V2000
    4.1791    8.6583    0.0000 C   0  0  0  0  0  0  0  0  0  0  0  0
    3.7156    7.2317    0.0000 N   0  0  0  0  0  0  0  0  0  0  0  0
    4.7193    6.1170    0.0000 C   0  0  0  0  0  0  0  0  0  0  0  0
    4.2558    4.6904    0.0000 C   0  0  0  0  0  0  0  0  0  0  0  0
    2.7886    4.3786    0.0000 C   0  0  0  0  0  0  0  0  0  0  0  0
    2.3250    2.9520    0.0000 C   0  0  0  0  0  0  0  0  0  0  0  0
    3.3287    1.8373    0.0000 O   0  0  0  0  0  0  0  0  0  0  0  0
    0.8578    2.6401    0.0000 N   0  0  0  0  0  0  0  0  0  0  0  0
    0.3943    1.2135    0.0000 C   0  0  0  0  0  0  0  0  0  0  0  0
    1.2760    0.0000    0.0000 N   0  0  0  0  0  0  0  0  0  0  0  0
    0.3943   -1.2135    0.0000 N   0  0  0  0  0  0  0  0  0  0  0  0
   -1.0323   -0.7500    0.0000 C   0  0  0  0  0  0  0  0  0  0  0  0
   -2.3313   -1.5000    0.0000 N   0  0  0  0  0  0  0  0  0  0  0  0
   -3.6304   -0.7500    0.0000 C   0  0  0  0  0  0  0  0  0  0  0  0
   -4.9294   -1.5000    0.0000 C   0  0  0  0  0  0  0  0  0  0  0  0
   -6.2284   -0.7500    0.0000 C   0  0  0  0  0  0  0  0  0  0  0  0
   -7.5275   -1.5000    0.0000 C   0  0  0  0  0  0  0  0  0  0  0  0
   -7.5275   -3.0000    0.0000 C   0  0  0  0  0  0  0  0  0  0  0  0
   -8.8265   -3.7500    0.0000 O   0  0  0  0  0  0  0  0  0  0  0  0
   -6.2284   -3.7500    0.0000 C   0  0  0  0  0  0  0  0  0  0  0  0
   -4.9294   -3.0000    0.0000 C   0  0  0  0  0  0  0  0  0  0  0  0
   -3.6304    0.7500    0.0000 C   0  0  0  0  0  0  0  0  0  0  0  0
   -4.9294    1.5000    0.0000 Br  0  0  0  0  0  0  0  0  0  0  0  0
   -2.3313    1.5000    0.0000 C   0  0  0  0  0  0  0  0  0  0  0  0
   -1.0323    0.7500    0.0000 C   0  0  0  0  0  0  0  0  0  0  0  0
    1.7849    5.4933    0.0000 C   0  0  0  0  0  0  0  0  0  0  0  0
    2.2484    6.9199    0.0000 C   0  0  0  0  0  0  0  0  0  0  0  0
  1  2  1  0
  2  3  1  0
  3  4  1  0
  4  5  1  0
  5  6  1  0
  6  7  2  0
  6  8  1  0
  8  9  1  0
  9 10  2  0
 10 11  1  0
 11 12  1  0
 12 13  2  0
 13 14  1  0
 14 15  1  0
 15 16  2  0
 16 17  1  0
 17 18  2  0
 18 19  1  0
 18 20  1  0
 20 21  2  0
 14 22  2  0
 22 23  1  0
 22 24  1  0
 24 25  2  0
  5 26  1  0
 26 27  1  0
 27  2  1  0
 25  9  1  0
 25 12  1  0
 21 15  1  0
M  END
>  <Compound_ID>  (137) 
CHEMBL1909347

>  <Molecule Name>  (137) 
nan

>  <Molecular Weight>  (137) 
546.38

>  <AlogP>  (137) 
3.37

>  <Smiles>  (137) 
CN1CCC(C(=O)Nc2n[nH]c3nc(-c4ccc(O)cc4)c(Br)cc23)CC1

>  <Standard Type>  (137) 
Inhibition

>  <Standard Relation>  (137) 
'='

>  <Standard Units>  (137) 
%

>  <Standard Value>  (137) 
6.92

>  <Assay ChEMBL ID>  (137) 
CHEMBL1962143

>  <Assay Description>  (137) 
GSK_PKIS: MET mean inhibition at 1 uM [Nanosyn]

>  <BAO Format ID>  (137) 
BAO_0000357

>  <BAO Label>  (137) 
single protein format

>  <Assay Organism>  (137) 
None

>  <Target ChEMBL ID>  (137) 
CHEMBL3717

>  <Target Name>  (137) 
Hepatocyte growth factor receptor

>  <Target Organism>  (137) 
Homo sapiens

>  <Target Type>  (137) 
SINGLE PROTEIN

>  <Document ChEMBL ID>  (137) 
CHEMBL1961873

>  <Source Description>  (137) 
GSK Published Kinase Inhibitor Set

>  <Document Journal>  (137) 
nan

>  <Document Year>  (137) 
nan

>  <Active>  (137) 
0.0

$$$$

     RDKit          2D

 33 36  0  0  0  0  0  0  0  0999 V2000
    1.3299    5.6152    0.0000 C   0  0  0  0  0  0  0  0  0  0  0  0
   -0.0967    5.1517    0.0000 O   0  0  0  0  0  0  0  0  0  0  0  0
   -0.4086    3.6844    0.0000 C   0  0  0  0  0  0  0  0  0  0  0  0
    0.7062    2.6807    0.0000 C   0  0  0  0  0  0  0  0  0  0  0  0
    0.3943    1.2135    0.0000 C   0  0  0  0  0  0  0  0  0  0  0  0
    1.2760    0.0000    0.0000 N   0  0  0  0  0  0  0  0  0  0  0  0
    0.3943   -1.2135    0.0000 C   0  0  0  0  0  0  0  0  0  0  0  0
   -1.0323   -0.7500    0.0000 N   0  0  0  0  0  0  0  0  0  0  0  0
   -2.2458   -1.6317    0.0000 C   0  0  0  0  0  0  0  0  0  0  0  0
   -2.2458   -3.1317    0.0000 C   0  0  0  0  0  0  0  0  0  0  0  0
   -3.6724   -3.5952    0.0000 C   0  0  0  0  0  0  0  0  0  0  0  0
   -4.1359   -5.0218    0.0000 O   0  0  0  0  0  0  0  0  0  0  0  0
   -5.6031   -5.3337    0.0000 C   0  0  0  0  0  0  0  0  0  0  0  0
   -6.0667   -6.7602    0.0000 C   0  0  0  0  0  0  0  0  0  0  0  0
   -7.5339   -7.0721    0.0000 C   0  0  0  0  0  0  0  0  0  0  0  0
   -7.9974   -8.4987    0.0000 C   0  0  0  0  0  0  0  0  0  0  0  0
   -6.9937   -9.6134    0.0000 C   0  0  0  0  0  0  0  0  0  0  0  0
   -5.5265   -9.3015    0.0000 C   0  0  0  0  0  0  0  0  0  0  0  0
   -5.0630   -7.8750    0.0000 C   0  0  0  0  0  0  0  0  0  0  0  0
   -3.5958   -7.5631    0.0000 C   0  0  0  0  0  0  0  0  0  0  0  0
   -2.1285   -7.2512    0.0000 F   0  0  0  0  0  0  0  0  0  0  0  0
   -3.2839   -9.0303    0.0000 F   0  0  0  0  0  0  0  0  0  0  0  0
   -3.9076   -6.0959    0.0000 F   0  0  0  0  0  0  0  0  0  0  0  0
   -4.5541   -2.3817    0.0000 C   0  0  0  0  0  0  0  0  0  0  0  0
   -6.0541   -2.3817    0.0000 C   0  0  0  0  0  0  0  0  0  0  0  0
   -6.8041   -1.0826    0.0000 N   0  0  0  0  0  0  0  0  0  0  0  0
   -6.8041   -3.6807    0.0000 O   0  0  0  0  0  0  0  0  0  0  0  0
   -3.6724   -1.1682    0.0000 S   0  0  0  0  0  0  0  0  0  0  0  0
   -1.0323    0.7500    0.0000 C   0  0  0  0  0  0  0  0  0  0  0  0
   -2.1470    1.7537    0.0000 C   0  0  0  0  0  0  0  0  0  0  0  0
   -1.8351    3.2209    0.0000 C   0  0  0  0  0  0  0  0  0  0  0  0
   -2.9499    4.2246    0.0000 O   0  0  0  0  0  0  0  0  0  0  0  0
   -4.3764    3.7611    0.0000 C   0  0  0  0  0  0  0  0  0  0  0  0
  1  2  1  0
  2  3  1  0
  3  4  2  0
  4  5  1  0
  5  6  1  0
  6  7  2  0
  7  8  1  0
  8  9  1  0
  9 10  2  0
 10 11  1  0
 11 12  1  0
 12 13  1  0
 13 14  1  0
 14 15  2  0
 15 16  1  0
 16 17  2  0
 17 18  1  0
 18 19  2  0
 19 20  1  0
 20 21  1  0
 20 22  1  0
 20 23  1  0
 11 24  2  0
 24 25  1  0
 25 26  1  0
 25 27  2  0
 24 28  1  0
  8 29  1  0
 29 30  1  0
 30 31  2  0
 31 32  1  0
 32 33  1  0
 31  3  1  0
 29  5  2  0
 28  9  1  0
 19 14  1  0
M  END
>  <Compound_ID>  (138) 
CHEMBL514499

>  <Molecule Name>  (138) 
GW843682X

>  <Molecular Weight>  (138) 
477.46

>  <AlogP>  (138) 
4.80

>  <Smiles>  (138) 
COc1cc2ncn(-c3cc(OCc4ccccc4C(F)(F)F)c(C(N)=O)s3)c2cc1OC

>  <Standard Type>  (138) 
Inhibition

>  <Standard Relation>  (138) 
'='

>  <Standard Units>  (138) 
%

>  <Standard Value>  (138) 
4.37

>  <Assay ChEMBL ID>  (138) 
CHEMBL1962142

>  <Assay Description>  (138) 
GSK_PKIS: MET mean inhibition at 0.1 uM [Nanosyn]

>  <BAO Format ID>  (138) 
BAO_0000357

>  <BAO Label>  (138) 
single protein format

>  <Assay Organism>  (138) 
None

>  <Target ChEMBL ID>  (138) 
CHEMBL3717

>  <Target Name>  (138) 
Hepatocyte growth factor receptor

>  <Target Organism>  (138) 
Homo sapiens

>  <Target Type>  (138) 
SINGLE PROTEIN

>  <Document ChEMBL ID>  (138) 
CHEMBL1961873

>  <Source Description>  (138) 
GSK Published Kinase Inhibitor Set

>  <Document Journal>  (138) 
nan

>  <Document Year>  (138) 
nan

>  <Active>  (138) 
0.0

$$$$

     RDKit          2D

 24 26  0  0  0  0  0  0  0  0999 V2000
   -3.7548   -2.1855    0.0000 C   0  0  0  0  0  0  0  0  0  0  0  0
   -2.6401   -3.1891    0.0000 C   0  0  0  0  0  0  0  0  0  0  0  0
   -1.2135   -2.7256    0.0000 N   0  0  0  0  0  0  0  0  0  0  0  0
   -0.0000   -3.6073    0.0000 C   0  0  0  0  0  0  0  0  0  0  0  0
   -0.0000   -5.1073    0.0000 C   0  0  0  0  0  0  0  0  0  0  0  0
    1.2135   -5.9890    0.0000 N   0  0  0  0  0  0  0  0  0  0  0  0
    0.7500   -7.4156    0.0000 O   0  0  0  0  0  0  0  0  0  0  0  0
   -0.7500   -7.4156    0.0000 N   0  0  0  0  0  0  0  0  0  0  0  0
   -1.2135   -5.9890    0.0000 C   0  0  0  0  0  0  0  0  0  0  0  0
   -2.6401   -5.5255    0.0000 N   0  0  0  0  0  0  0  0  0  0  0  0
    1.2135   -2.7256    0.0000 N   0  0  0  0  0  0  0  0  0  0  0  0
    0.7500   -1.2990    0.0000 C   0  0  0  0  0  0  0  0  0  0  0  0
    1.5000    0.0000    0.0000 C   0  0  0  0  0  0  0  0  0  0  0  0
    0.7500    1.2990    0.0000 N   0  0  0  0  0  0  0  0  0  0  0  0
   -0.7500    1.2990    0.0000 C   0  0  0  0  0  0  0  0  0  0  0  0
   -1.5000    0.0000    0.0000 C   0  0  0  0  0  0  0  0  0  0  0  0
   -3.0000    0.0000    0.0000 C   0  0  0  0  0  0  0  0  0  0  0  0
   -3.7500   -1.2990    0.0000 O   0  0  0  0  0  0  0  0  0  0  0  0
   -3.7500    1.2990    0.0000 N   0  0  0  0  0  0  0  0  0  0  0  0
   -5.2500    1.2990    0.0000 C   0  0  0  0  0  0  0  0  0  0  0  0
   -6.0000    2.5981    0.0000 C   0  0  0  0  0  0  0  0  0  0  0  0
   -7.5000    2.5981    0.0000 N   0  0  0  0  0  0  0  0  0  0  0  0
   -8.2500    3.8971    0.0000 C   0  0  0  0  0  0  0  0  0  0  0  0
   -0.7500   -1.2990    0.0000 C   0  0  0  0  0  0  0  0  0  0  0  0
  1  2  1  0
  2  3  1  0
  3  4  1  0
  4  5  1  0
  5  6  2  0
  6  7  1  0
  7  8  1  0
  8  9  2  0
  9 10  1  0
  4 11  2  0
 11 12  1  0
 12 13  2  0
 13 14  1  0
 14 15  2  0
 15 16  1  0
 16 17  1  0
 17 18  2  0
 17 19  1  0
 19 20  1  0
 20 21  1  0
 21 22  1  0
 22 23  1  0
 16 24  2  0
 24  3  1  0
  9  5  1  0
 24 12  1  0
M  END
>  <Compound_ID>  (139) 
CHEMBL506153

>  <Molecule Name>  (139) 
GW876790X

>  <Molecular Weight>  (139) 
330.35

>  <AlogP>  (139) 
0.03

>  <Smiles>  (139) 
CCn1c(-c2nonc2N)nc2cncc(C(=O)NCCNC)c21

>  <Standard Type>  (139) 
Inhibition

>  <Standard Relation>  (139) 
'='

>  <Standard Units>  (139) 
%

>  <Standard Value>  (139) 
4.45

>  <Assay ChEMBL ID>  (139) 
CHEMBL1962143

>  <Assay Description>  (139) 
GSK_PKIS: MET mean inhibition at 1 uM [Nanosyn]

>  <BAO Format ID>  (139) 
BAO_0000357

>  <BAO Label>  (139) 
single protein format

>  <Assay Organism>  (139) 
None

>  <Target ChEMBL ID>  (139) 
CHEMBL3717

>  <Target Name>  (139) 
Hepatocyte growth factor receptor

>  <Target Organism>  (139) 
Homo sapiens

>  <Target Type>  (139) 
SINGLE PROTEIN

>  <Document ChEMBL ID>  (139) 
CHEMBL1961873

>  <Source Description>  (139) 
GSK Published Kinase Inhibitor Set

>  <Document Journal>  (139) 
nan

>  <Document Year>  (139) 
nan

>  <Active>  (139) 
0.0

$$$$

     RDKit          2D

 33 38  0  0  0  0  0  0  0  0999 V2000
   -2.0276   -0.8744    0.0000 F   0  0  0  0  0  0  0  0  0  0  0  0
   -2.4911   -2.3009    0.0000 C   0  0  0  0  0  0  0  0  0  0  0  0
   -1.4874   -3.4157    0.0000 C   0  0  0  0  0  0  0  0  0  0  0  0
   -1.9509   -4.8423    0.0000 C   0  0  0  0  0  0  0  0  0  0  0  0
   -3.4182   -5.1541    0.0000 C   0  0  0  0  0  0  0  0  0  0  0  0
   -3.8817   -6.5807    0.0000 C   0  0  0  0  0  0  0  0  0  0  0  0
   -5.3083   -7.0442    0.0000 N   0  0  0  0  0  0  0  0  0  0  0  0
   -5.3083   -8.5442    0.0000 N   0  0  0  0  0  0  0  0  0  0  0  0
   -6.4230   -9.5479    0.0000 N   0  0  0  0  0  0  0  0  0  0  0  0
   -6.1111  -11.0151    0.0000 C   0  0  0  0  0  0  0  0  0  0  0  0
   -4.6845  -11.4787    0.0000 C   0  0  0  0  0  0  0  0  0  0  0  0
   -3.5698  -10.4750    0.0000 C   0  0  0  0  0  0  0  0  0  0  0  0
   -3.8817   -9.0078    0.0000 C   0  0  0  0  0  0  0  0  0  0  0  0
   -3.0000   -7.7942    0.0000 C   0  0  0  0  0  0  0  0  0  0  0  0
   -1.5000   -7.7942    0.0000 C   0  0  0  0  0  0  0  0  0  0  0  0
   -0.7500   -9.0933    0.0000 C   0  0  0  0  0  0  0  0  0  0  0  0
    0.7500   -9.0933    0.0000 C   0  0  0  0  0  0  0  0  0  0  0  0
    1.5000   -7.7942    0.0000 N   0  0  0  0  0  0  0  0  0  0  0  0
    0.7500   -6.4952    0.0000 C   0  0  0  0  0  0  0  0  0  0  0  0
    1.5000   -5.1962    0.0000 N   0  0  0  0  0  0  0  0  0  0  0  0
    0.7500   -3.8971    0.0000 C   0  0  0  0  0  0  0  0  0  0  0  0
   -0.7500   -3.8971    0.0000 C   0  0  0  0  0  0  0  0  0  0  0  0
   -1.5000   -2.5981    0.0000 C   0  0  0  0  0  0  0  0  0  0  0  0
   -0.7500   -1.2990    0.0000 C   0  0  0  0  0  0  0  0  0  0  0  0
    0.7500   -1.2990    0.0000 C   0  0  0  0  0  0  0  0  0  0  0  0
    1.5000   -2.5981    0.0000 C   0  0  0  0  0  0  0  0  0  0  0  0
    1.5000    0.0000    0.0000 O   0  0  0  0  0  0  0  0  0  0  0  0
    0.7500    1.2990    0.0000 C   0  0  0  0  0  0  0  0  0  0  0  0
   -0.7500    1.2990    0.0000 C   0  0  0  0  0  0  0  0  0  0  0  0
   -1.5000    0.0000    0.0000 O   0  0  0  0  0  0  0  0  0  0  0  0
   -0.7500   -6.4952    0.0000 N   0  0  0  0  0  0  0  0  0  0  0  0
   -4.4218   -4.0394    0.0000 C   0  0  0  0  0  0  0  0  0  0  0  0
   -3.9583   -2.6128    0.0000 C   0  0  0  0  0  0  0  0  0  0  0  0
  1  2  1  0
  2  3  2  0
  3  4  1  0
  4  5  2  0
  5  6  1  0
  6  7  2  0
  7  8  1  0
  8  9  1  0
  9 10  2  0
 10 11  1  0
 11 12  2  0
 12 13  1  0
 13 14  2  0
 14 15  1  0
 15 16  2  0
 16 17  1  0
 17 18  2  0
 18 19  1  0
 19 20  1  0
 20 21  1  0
 21 22  2  0
 22 23  1  0
 23 24  2  0
 24 25  1  0
 25 26  2  0
 25 27  1  0
 27 28  1  0
 28 29  1  0
 29 30  1  0
 19 31  2  0
  5 32  1  0
 32 33  2  0
 33  2  1  0
 14  6  1  0
 31 15  1  0
 13  8  1  0
 26 21  1  0
 30 24  1  0
M  END
>  <Compound_ID>  (140) 
CHEMBL365297

>  <Molecule Name>  (140) 
GW827099X

>  <Molecular Weight>  (140) 
440.44

>  <AlogP>  (140) 
4.51

>  <Smiles>  (140) 
Fc1ccc(-c2nn3ncccc3c2-c2ccnc(Nc3ccc4c(c3)OCCO4)n2)cc1

>  <Standard Type>  (140) 
Inhibition

>  <Standard Relation>  (140) 
'='

>  <Standard Units>  (140) 
%

>  <Standard Value>  (140) 
4.89

>  <Assay ChEMBL ID>  (140) 
CHEMBL1962142

>  <Assay Description>  (140) 
GSK_PKIS: MET mean inhibition at 0.1 uM [Nanosyn]

>  <BAO Format ID>  (140) 
BAO_0000357

>  <BAO Label>  (140) 
single protein format

>  <Assay Organism>  (140) 
None

>  <Target ChEMBL ID>  (140) 
CHEMBL3717

>  <Target Name>  (140) 
Hepatocyte growth factor receptor

>  <Target Organism>  (140) 
Homo sapiens

>  <Target Type>  (140) 
SINGLE PROTEIN

>  <Document ChEMBL ID>  (140) 
CHEMBL1961873

>  <Source Description>  (140) 
GSK Published Kinase Inhibitor Set

>  <Document Journal>  (140) 
nan

>  <Document Year>  (140) 
nan

>  <Active>  (140) 
0.0

$$$$

     RDKit          2D

 42 46  0  0  0  0  0  0  0  0999 V2000
    9.0985   -9.6461    0.0000 C   0  0  0  0  0  0  0  0  0  0  0  0
    7.7282   -9.0360    0.0000 S   0  0  0  0  0  0  0  0  0  0  0  0
    8.3383   -7.6657    0.0000 O   0  0  0  0  0  0  0  0  0  0  0  0
    7.1181  -10.4063    0.0000 O   0  0  0  0  0  0  0  0  0  0  0  0
    6.3579   -8.4259    0.0000 C   0  0  0  0  0  0  0  0  0  0  0  0
    6.2011   -6.9341    0.0000 C   0  0  0  0  0  0  0  0  0  0  0  0
    4.8308   -6.3240    0.0000 N   0  0  0  0  0  0  0  0  0  0  0  0
    4.6740   -4.8322    0.0000 C   0  0  0  0  0  0  0  0  0  0  0  0
    3.3037   -4.2221    0.0000 C   0  0  0  0  0  0  0  0  0  0  0  0
    2.9918   -2.7549    0.0000 N   0  0  0  0  0  0  0  0  0  0  0  0
    1.5000   -2.5981    0.0000 C   0  0  0  0  0  0  0  0  0  0  0  0
    0.7500   -1.2990    0.0000 C   0  0  0  0  0  0  0  0  0  0  0  0
    1.5000    0.0000    0.0000 C   0  0  0  0  0  0  0  0  0  0  0  0
    0.7500    1.2990    0.0000 C   0  0  0  0  0  0  0  0  0  0  0  0
   -0.7500    1.2990    0.0000 C   0  0  0  0  0  0  0  0  0  0  0  0
   -1.5000    2.5981    0.0000 N   0  0  0  0  0  0  0  0  0  0  0  0
   -3.0000    2.5981    0.0000 C   0  0  0  0  0  0  0  0  0  0  0  0
   -3.7500    1.2990    0.0000 N   0  0  0  0  0  0  0  0  0  0  0  0
   -3.0000    0.0000    0.0000 C   0  0  0  0  0  0  0  0  0  0  0  0
   -3.7500   -1.2990    0.0000 N   0  0  0  0  0  0  0  0  0  0  0  0
   -5.2500   -1.2990    0.0000 C   0  0  0  0  0  0  0  0  0  0  0  0
   -6.0000    0.0000    0.0000 C   0  0  0  0  0  0  0  0  0  0  0  0
   -7.5000    0.0000    0.0000 C   0  0  0  0  0  0  0  0  0  0  0  0
   -8.2500   -1.2990    0.0000 C   0  0  0  0  0  0  0  0  0  0  0  0
   -9.7500   -1.2990    0.0000 O   0  0  0  0  0  0  0  0  0  0  0  0
  -10.5000    0.0000    0.0000 C   0  0  0  0  0  0  0  0  0  0  0  0
  -12.0000    0.0000    0.0000 C   0  0  0  0  0  0  0  0  0  0  0  0
  -12.7500    1.2990    0.0000 C   0  0  0  0  0  0  0  0  0  0  0  0
  -14.2500    1.2990    0.0000 C   0  0  0  0  0  0  0  0  0  0  0  0
  -15.0000    0.0000    0.0000 C   0  0  0  0  0  0  0  0  0  0  0  0
  -14.2500   -1.2990    0.0000 C   0  0  0  0  0  0  0  0  0  0  0  0
  -15.0000   -2.5981    0.0000 C   0  0  0  0  0  0  0  0  0  0  0  0
  -15.7500   -3.8971    0.0000 F   0  0  0  0  0  0  0  0  0  0  0  0
  -16.2990   -1.8481    0.0000 F   0  0  0  0  0  0  0  0  0  0  0  0
  -13.7010   -3.3481    0.0000 F   0  0  0  0  0  0  0  0  0  0  0  0
  -12.7500   -1.2990    0.0000 C   0  0  0  0  0  0  0  0  0  0  0  0
   -7.5000   -2.5981    0.0000 C   0  0  0  0  0  0  0  0  0  0  0  0
   -6.0000   -2.5981    0.0000 C   0  0  0  0  0  0  0  0  0  0  0  0
   -1.5000    0.0000    0.0000 C   0  0  0  0  0  0  0  0  0  0  0  0
   -0.7500   -1.2990    0.0000 C   0  0  0  0  0  0  0  0  0  0  0  0
    0.8899   -3.9684    0.0000 C   0  0  0  0  0  0  0  0  0  0  0  0
    2.0046   -4.9721    0.0000 S   0  0  0  0  0  0  0  0  0  0  0  0
  1  2  1  0
  2  3  2  0
  2  4  2  0
  2  5  1  0
  5  6  1  0
  6  7  1  0
  7  8  1  0
  8  9  1  0
  9 10  2  0
 10 11  1  0
 11 12  1  0
 12 13  2  0
 13 14  1  0
 14 15  2  0
 15 16  1  0
 16 17  2  0
 17 18  1  0
 18 19  2  0
 19 20  1  0
 20 21  1  0
 21 22  2  0
 22 23  1  0
 23 24  2  0
 24 25  1  0
 25 26  1  0
 26 27  1  0
 27 28  2  0
 28 29  1  0
 29 30  2  0
 30 31  1  0
 31 32  1  0
 32 33  1  0
 32 34  1  0
 32 35  1  0
 31 36  2  0
 24 37  1  0
 37 38  2  0
 19 39  1  0
 39 40  2  0
 11 41  2  0
 41 42  1  0
 42  9  1  0
 40 12  1  0
 39 15  1  0
 38 21  1  0
 36 27  1  0
M  END
>  <Compound_ID>  (141) 
CHEMBL1909356

>  <Molecule Name>  (141) 
GW569530A

>  <Molecular Weight>  (141) 
650.15

>  <AlogP>  (141) 
6.23

>  <Smiles>  (141) 
CS(=O)(=O)CCNCc1nc(-c2ccc3ncnc(Nc4ccc(OCc5cccc(C(F)(F)F)c5)cc4)c3c2)cs1

>  <Standard Type>  (141) 
Inhibition

>  <Standard Relation>  (141) 
'='

>  <Standard Units>  (141) 
%

>  <Standard Value>  (141) 
4.81

>  <Assay ChEMBL ID>  (141) 
CHEMBL1962142

>  <Assay Description>  (141) 
GSK_PKIS: MET mean inhibition at 0.1 uM [Nanosyn]

>  <BAO Format ID>  (141) 
BAO_0000357

>  <BAO Label>  (141) 
single protein format

>  <Assay Organism>  (141) 
None

>  <Target ChEMBL ID>  (141) 
CHEMBL3717

>  <Target Name>  (141) 
Hepatocyte growth factor receptor

>  <Target Organism>  (141) 
Homo sapiens

>  <Target Type>  (141) 
SINGLE PROTEIN

>  <Document ChEMBL ID>  (141) 
CHEMBL1961873

>  <Source Description>  (141) 
GSK Published Kinase Inhibitor Set

>  <Document Journal>  (141) 
nan

>  <Document Year>  (141) 
nan

>  <Active>  (141) 
0.0

$$$$

     RDKit          2D

 33 36  0  0  0  0  0  0  0  0999 V2000
    1.3299    5.6152    0.0000 C   0  0  0  0  0  0  0  0  0  0  0  0
   -0.0967    5.1517    0.0000 O   0  0  0  0  0  0  0  0  0  0  0  0
   -0.4086    3.6844    0.0000 C   0  0  0  0  0  0  0  0  0  0  0  0
    0.7062    2.6807    0.0000 C   0  0  0  0  0  0  0  0  0  0  0  0
    0.3943    1.2135    0.0000 C   0  0  0  0  0  0  0  0  0  0  0  0
    1.2760    0.0000    0.0000 N   0  0  0  0  0  0  0  0  0  0  0  0
    0.3943   -1.2135    0.0000 C   0  0  0  0  0  0  0  0  0  0  0  0
   -1.0323   -0.7500    0.0000 N   0  0  0  0  0  0  0  0  0  0  0  0
   -2.2458   -1.6317    0.0000 C   0  0  0  0  0  0  0  0  0  0  0  0
   -2.2458   -3.1317    0.0000 C   0  0  0  0  0  0  0  0  0  0  0  0
   -3.6724   -3.5952    0.0000 C   0  0  0  0  0  0  0  0  0  0  0  0
   -4.1359   -5.0218    0.0000 O   0  0  0  0  0  0  0  0  0  0  0  0
   -5.6031   -5.3337    0.0000 C   0  0  0  0  0  0  0  0  0  0  0  0
   -6.0667   -6.7602    0.0000 C   0  0  0  0  0  0  0  0  0  0  0  0
   -7.5339   -7.0721    0.0000 C   0  0  0  0  0  0  0  0  0  0  0  0
   -7.9974   -8.4987    0.0000 C   0  0  0  0  0  0  0  0  0  0  0  0
   -6.9937   -9.6134    0.0000 C   0  0  0  0  0  0  0  0  0  0  0  0
   -5.5265   -9.3015    0.0000 C   0  0  0  0  0  0  0  0  0  0  0  0
   -5.0630   -7.8750    0.0000 C   0  0  0  0  0  0  0  0  0  0  0  0
   -3.5958   -7.5631    0.0000 C   0  0  0  0  0  0  0  0  0  0  0  0
   -2.1285   -7.2512    0.0000 F   0  0  0  0  0  0  0  0  0  0  0  0
   -3.2839   -9.0303    0.0000 F   0  0  0  0  0  0  0  0  0  0  0  0
   -3.9076   -6.0959    0.0000 F   0  0  0  0  0  0  0  0  0  0  0  0
   -4.5541   -2.3817    0.0000 C   0  0  0  0  0  0  0  0  0  0  0  0
   -6.0541   -2.3817    0.0000 C   0  0  0  0  0  0  0  0  0  0  0  0
   -6.8041   -1.0826    0.0000 C   0  0  0  0  0  0  0  0  0  0  0  0
   -6.8041   -3.6807    0.0000 O   0  0  0  0  0  0  0  0  0  0  0  0
   -3.6724   -1.1682    0.0000 S   0  0  0  0  0  0  0  0  0  0  0  0
   -1.0323    0.7500    0.0000 C   0  0  0  0  0  0  0  0  0  0  0  0
   -2.1470    1.7537    0.0000 C   0  0  0  0  0  0  0  0  0  0  0  0
   -1.8351    3.2209    0.0000 C   0  0  0  0  0  0  0  0  0  0  0  0
   -2.9499    4.2246    0.0000 O   0  0  0  0  0  0  0  0  0  0  0  0
   -4.3764    3.7611    0.0000 C   0  0  0  0  0  0  0  0  0  0  0  0
  1  2  1  0
  2  3  1  0
  3  4  2  0
  4  5  1  0
  5  6  1  0
  6  7  2  0
  7  8  1  0
  8  9  1  0
  9 10  2  0
 10 11  1  0
 11 12  1  0
 12 13  1  0
 13 14  1  0
 14 15  2  0
 15 16  1  0
 16 17  2  0
 17 18  1  0
 18 19  2  0
 19 20  1  0
 20 21  1  0
 20 22  1  0
 20 23  1  0
 11 24  2  0
 24 25  1  0
 25 26  1  0
 25 27  2  0
 24 28  1  0
  8 29  1  0
 29 30  1  0
 30 31  2  0
 31 32  1  0
 32 33  1  0
 31  3  1  0
 29  5  2  0
 28  9  1  0
 19 14  1  0
M  END
>  <Compound_ID>  (142) 
CHEMBL471789

>  <Molecule Name>  (142) 
GSK-1030059A

>  <Molecular Weight>  (142) 
476.48

>  <AlogP>  (142) 
5.90

>  <Smiles>  (142) 
COc1cc2ncn(-c3cc(OCc4ccccc4C(F)(F)F)c(C(C)=O)s3)c2cc1OC

>  <Standard Type>  (142) 
Inhibition

>  <Standard Relation>  (142) 
'='

>  <Standard Units>  (142) 
%

>  <Standard Value>  (142) 
13.49

>  <Assay ChEMBL ID>  (142) 
CHEMBL1962143

>  <Assay Description>  (142) 
GSK_PKIS: MET mean inhibition at 1 uM [Nanosyn]

>  <BAO Format ID>  (142) 
BAO_0000357

>  <BAO Label>  (142) 
single protein format

>  <Assay Organism>  (142) 
None

>  <Target ChEMBL ID>  (142) 
CHEMBL3717

>  <Target Name>  (142) 
Hepatocyte growth factor receptor

>  <Target Organism>  (142) 
Homo sapiens

>  <Target Type>  (142) 
SINGLE PROTEIN

>  <Document ChEMBL ID>  (142) 
CHEMBL1961873

>  <Source Description>  (142) 
GSK Published Kinase Inhibitor Set

>  <Document Journal>  (142) 
nan

>  <Document Year>  (142) 
nan

>  <Active>  (142) 
0.0

$$$$

     RDKit          2D

 36 40  0  0  0  0  0  0  0  0999 V2000
    5.2500   -1.2990    0.0000 C   0  0  0  0  0  0  0  0  0  0  0  0
    3.7500   -1.2990    0.0000 N   0  0  0  0  0  0  0  0  0  0  0  0
    3.0000   -2.5981    0.0000 C   0  0  0  0  0  0  0  0  0  0  0  0
    3.0000    0.0000    0.0000 C   0  0  0  0  0  0  0  0  0  0  0  0
    1.5000    0.0000    0.0000 C   0  0  0  0  0  0  0  0  0  0  0  0
    0.7500   -1.2990    0.0000 C   0  0  0  0  0  0  0  0  0  0  0  0
   -0.7500   -1.2990    0.0000 C   0  0  0  0  0  0  0  0  0  0  0  0
   -1.5000    0.0000    0.0000 C   0  0  0  0  0  0  0  0  0  0  0  0
   -2.9672    0.3119    0.0000 N   0  0  0  0  0  0  0  0  0  0  0  0
   -3.1240    1.8037    0.0000 C   0  0  0  0  0  0  0  0  0  0  0  0
   -4.4231    2.5537    0.0000 N   0  0  0  0  0  0  0  0  0  0  0  0
   -4.4231    4.0537    0.0000 C   0  0  0  0  0  0  0  0  0  0  0  0
   -3.1240    4.8037    0.0000 O   0  0  0  0  0  0  0  0  0  0  0  0
   -5.7221    4.8037    0.0000 N   0  0  0  0  0  0  0  0  0  0  0  0
   -5.7221    6.3037    0.0000 N   0  0  0  0  0  0  0  0  0  0  0  0
   -7.0211    7.0537    0.0000 C   0  0  0  0  0  0  0  0  0  0  0  0
   -7.0211    8.5537    0.0000 C   0  0  0  0  0  0  0  0  0  0  0  0
   -5.8076    9.4353    0.0000 C   0  0  0  0  0  0  0  0  0  0  0  0
   -6.2711   10.8619    0.0000 N   0  0  0  0  0  0  0  0  0  0  0  0
   -5.3895   12.0754    0.0000 C   0  0  0  0  0  0  0  0  0  0  0  0
   -3.8977   11.9186    0.0000 C   0  0  0  0  0  0  0  0  0  0  0  0
   -3.2876   10.5483    0.0000 C   0  0  0  0  0  0  0  0  0  0  0  0
   -1.7958   10.3915    0.0000 C   0  0  0  0  0  0  0  0  0  0  0  0
   -0.9141   11.6051    0.0000 C   0  0  0  0  0  0  0  0  0  0  0  0
   -1.5242   12.9754    0.0000 C   0  0  0  0  0  0  0  0  0  0  0  0
   -0.6425   14.1889    0.0000 Cl  0  0  0  0  0  0  0  0  0  0  0  0
   -3.0160   13.1322    0.0000 C   0  0  0  0  0  0  0  0  0  0  0  0
   -7.7711   10.8619    0.0000 C   0  0  0  0  0  0  0  0  0  0  0  0
   -8.7748   11.9766    0.0000 C   0  0  0  0  0  0  0  0  0  0  0  0
  -10.2420   11.6648    0.0000 C   0  0  0  0  0  0  0  0  0  0  0  0
  -10.7056   10.2382    0.0000 C   0  0  0  0  0  0  0  0  0  0  0  0
   -9.7019    9.1235    0.0000 C   0  0  0  0  0  0  0  0  0  0  0  0
   -8.2347    9.4353    0.0000 C   0  0  0  0  0  0  0  0  0  0  0  0
   -1.7537    2.4138    0.0000 S   0  0  0  0  0  0  0  0  0  0  0  0
   -0.7500    1.2990    0.0000 C   0  0  0  0  0  0  0  0  0  0  0  0
    0.7500    1.2990    0.0000 C   0  0  0  0  0  0  0  0  0  0  0  0
  1  2  1  0
  2  3  1  0
  2  4  1  0
  4  5  1  0
  5  6  2  0
  6  7  1  0
  7  8  2  0
  8  9  1  0
  9 10  2  0
 10 11  1  0
 11 12  1  0
 12 13  2  0
 12 14  1  0
 14 15  1  0
 15 16  2  0
 16 17  1  0
 17 18  2  0
 18 19  1  0
 19 20  1  0
 20 21  1  0
 21 22  2  0
 22 23  1  0
 23 24  2  0
 24 25  1  0
 25 26  1  0
 25 27  2  0
 19 28  1  0
 28 29  2  0
 29 30  1  0
 30 31  2  0
 31 32  1  0
 32 33  2  0
 10 34  1  0
 34 35  1  0
 35 36  2  0
 36  5  1  0
 35  8  1  0
 33 17  1  0
 27 21  1  0
 33 28  1  0
M  END
>  <Compound_ID>  (143) 
CHEMBL3415269

>  <Molecule Name>  (143) 
nan

>  <Molecular Weight>  (143) 
517.06

>  <AlogP>  (143) 
6.17

>  <Smiles>  (143) 
CN(C)Cc1ccc2nc(NC(=O)N/N=C/c3cn(Cc4cccc(Cl)c4)c4ccccc34)sc2c1

>  <Standard Type>  (143) 
Inhibition

>  <Standard Relation>  (143) 
'='

>  <Standard Units>  (143) 
%

>  <Standard Value>  (143) 
10.6

>  <Assay ChEMBL ID>  (143) 
CHEMBL3420457

>  <Assay Description>  (143) 
Inhibition of c-met (unknown origin) at 10 uM by HTRF method

>  <BAO Format ID>  (143) 
BAO_0000357

>  <BAO Label>  (143) 
single protein format

>  <Assay Organism>  (143) 
Homo sapiens

>  <Target ChEMBL ID>  (143) 
CHEMBL3717

>  <Target Name>  (143) 
Hepatocyte growth factor receptor

>  <Target Organism>  (143) 
Homo sapiens

>  <Target Type>  (143) 
SINGLE PROTEIN

>  <Document ChEMBL ID>  (143) 
CHEMBL3414507

>  <Source Description>  (143) 
Scientific Literature

>  <Document Journal>  (143) 
Eur J Med Chem

>  <Document Year>  (143) 
2015.0

>  <Active>  (143) 
0.0

$$$$

     RDKit          2D

 33 36  0  0  0  0  0  0  0  0999 V2000
   -3.7500   -6.4952    0.0000 C   0  0  0  0  0  0  0  0  0  0  0  0
   -3.0000   -5.1962    0.0000 O   0  0  0  0  0  0  0  0  0  0  0  0
   -1.5000   -5.1962    0.0000 C   0  0  0  0  0  0  0  0  0  0  0  0
   -0.7500   -3.8971    0.0000 C   0  0  0  0  0  0  0  0  0  0  0  0
    0.7500   -3.8971    0.0000 C   0  0  0  0  0  0  0  0  0  0  0  0
    1.5000   -2.5981    0.0000 N   0  0  0  0  0  0  0  0  0  0  0  0
    0.7500   -1.2990    0.0000 C   0  0  0  0  0  0  0  0  0  0  0  0
    1.5000    0.0000    0.0000 N   0  0  0  0  0  0  0  0  0  0  0  0
    0.7500    1.2990    0.0000 C   0  0  0  0  0  0  0  0  0  0  0  0
   -0.7500    1.2990    0.0000 C   0  0  0  0  0  0  0  0  0  0  0  0
   -1.7537    2.4138    0.0000 C   0  0  0  0  0  0  0  0  0  0  0  0
   -1.4418    3.8810    0.0000 C   0  0  0  0  0  0  0  0  0  0  0  0
   -3.1240    1.8037    0.0000 N   0  0  0  0  0  0  0  0  0  0  0  0
   -2.9672    0.3119    0.0000 C   0  0  0  0  0  0  0  0  0  0  0  0
   -4.0819   -0.6918    0.0000 C   0  0  0  0  0  0  0  0  0  0  0  0
   -3.7701   -2.1590    0.0000 C   0  0  0  0  0  0  0  0  0  0  0  0
   -4.8848   -3.1627    0.0000 C   0  0  0  0  0  0  0  0  0  0  0  0
   -6.3114   -2.6992    0.0000 C   0  0  0  0  0  0  0  0  0  0  0  0
   -6.6232   -1.2320    0.0000 C   0  0  0  0  0  0  0  0  0  0  0  0
   -8.0498   -0.7685    0.0000 C   0  0  0  0  0  0  0  0  0  0  0  0
   -9.4764   -0.3049    0.0000 F   0  0  0  0  0  0  0  0  0  0  0  0
   -8.5134   -2.1951    0.0000 F   0  0  0  0  0  0  0  0  0  0  0  0
   -7.5863    0.6581    0.0000 F   0  0  0  0  0  0  0  0  0  0  0  0
   -5.5085   -0.2283    0.0000 C   0  0  0  0  0  0  0  0  0  0  0  0
   -1.5000    0.0000    0.0000 N   0  0  0  0  0  0  0  0  0  0  0  0
   -0.7500   -1.2990    0.0000 N   0  0  0  0  0  0  0  0  0  0  0  0
    1.5000   -5.1962    0.0000 C   0  0  0  0  0  0  0  0  0  0  0  0
    0.7500   -6.4952    0.0000 C   0  0  0  0  0  0  0  0  0  0  0  0
    1.5000   -7.7942    0.0000 O   0  0  0  0  0  0  0  0  0  0  0  0
    0.7500   -9.0933    0.0000 C   0  0  0  0  0  0  0  0  0  0  0  0
   -0.7500   -6.4952    0.0000 C   0  0  0  0  0  0  0  0  0  0  0  0
   -1.5000   -7.7942    0.0000 O   0  0  0  0  0  0  0  0  0  0  0  0
   -0.7500   -9.0933    0.0000 C   0  0  0  0  0  0  0  0  0  0  0  0
  1  2  1  0
  2  3  1  0
  3  4  2  0
  4  5  1  0
  5  6  1  0
  6  7  1  0
  7  8  1  0
  8  9  2  0
  9 10  1  0
 10 11  2  0
 11 12  1  0
 11 13  1  0
 13 14  2  0
 14 15  1  0
 15 16  2  0
 16 17  1  0
 17 18  2  0
 18 19  1  0
 19 20  1  0
 20 21  1  0
 20 22  1  0
 20 23  1  0
 19 24  2  0
 14 25  1  0
 25 26  1  0
  5 27  2  0
 27 28  1  0
 28 29  1  0
 29 30  1  0
 28 31  2  0
 31 32  1  0
 32 33  1  0
 31  3  1  0
 26  7  2  0
 25 10  1  0
 24 15  1  0
M  END
>  <Compound_ID>  (144) 
CHEMBL520037

>  <Molecule Name>  (144) 
GW837331X

>  <Molecular Weight>  (144) 
459.43

>  <AlogP>  (144) 
4.89

>  <Smiles>  (144) 
COc1cc(Nc2ncc3c(C)nc(-c4cccc(C(F)(F)F)c4)n3n2)cc(OC)c1OC

>  <Standard Type>  (144) 
Inhibition

>  <Standard Relation>  (144) 
'='

>  <Standard Units>  (144) 
%

>  <Standard Value>  (144) 
8.25

>  <Assay ChEMBL ID>  (144) 
CHEMBL1962142

>  <Assay Description>  (144) 
GSK_PKIS: MET mean inhibition at 0.1 uM [Nanosyn]

>  <BAO Format ID>  (144) 
BAO_0000357

>  <BAO Label>  (144) 
single protein format

>  <Assay Organism>  (144) 
None

>  <Target ChEMBL ID>  (144) 
CHEMBL3717

>  <Target Name>  (144) 
Hepatocyte growth factor receptor

>  <Target Organism>  (144) 
Homo sapiens

>  <Target Type>  (144) 
SINGLE PROTEIN

>  <Document ChEMBL ID>  (144) 
CHEMBL1961873

>  <Source Description>  (144) 
GSK Published Kinase Inhibitor Set

>  <Document Journal>  (144) 
nan

>  <Document Year>  (144) 
nan

>  <Active>  (144) 
0.0

$$$$

     RDKit          2D

 23 25  0  0  0  0  0  0  0  0999 V2000
   -3.7548   -2.1855    0.0000 C   0  0  0  0  0  0  0  0  0  0  0  0
   -2.6401   -3.1891    0.0000 C   0  0  0  0  0  0  0  0  0  0  0  0
   -2.9520   -4.6564    0.0000 N   0  0  0  0  0  0  0  0  0  0  0  0
   -4.3786   -5.1199    0.0000 C   0  0  0  0  0  0  0  0  0  0  0  0
   -5.4933   -4.1162    0.0000 C   0  0  0  0  0  0  0  0  0  0  0  0
   -6.9199   -4.5797    0.0000 C   0  0  0  0  0  0  0  0  0  0  0  0
   -7.2317   -6.0469    0.0000 C   0  0  0  0  0  0  0  0  0  0  0  0
   -8.6583   -6.5105    0.0000 S   0  0  0  0  0  0  0  0  0  0  0  0
  -10.0849   -6.9740    0.0000 N   0  0  0  0  0  0  0  0  0  0  0  0
   -9.1218   -5.0839    0.0000 O   0  0  0  0  0  0  0  0  0  0  0  0
   -8.1948   -7.9371    0.0000 O   0  0  0  0  0  0  0  0  0  0  0  0
   -6.1170   -7.0506    0.0000 C   0  0  0  0  0  0  0  0  0  0  0  0
   -4.6904   -6.5871    0.0000 C   0  0  0  0  0  0  0  0  0  0  0  0
   -1.2135   -2.7256    0.0000 C   0  0  0  0  0  0  0  0  0  0  0  0
   -0.0000   -3.6073    0.0000 C   0  0  0  0  0  0  0  0  0  0  0  0
    0.0000   -5.1073    0.0000 O   0  0  0  0  0  0  0  0  0  0  0  0
    1.2135   -2.7256    0.0000 N   0  0  0  0  0  0  0  0  0  0  0  0
    0.7500   -1.2990    0.0000 C   0  0  0  0  0  0  0  0  0  0  0  0
    1.5000    0.0000    0.0000 C   0  0  0  0  0  0  0  0  0  0  0  0
    0.7500    1.2990    0.0000 C   0  0  0  0  0  0  0  0  0  0  0  0
   -0.7500    1.2990    0.0000 C   0  0  0  0  0  0  0  0  0  0  0  0
   -1.5000    0.0000    0.0000 C   0  0  0  0  0  0  0  0  0  0  0  0
   -0.7500   -1.2990    0.0000 C   0  0  0  0  0  0  0  0  0  0  0  0
  1  2  1  0
  2  3  1  0
  3  4  1  0
  4  5  2  0
  5  6  1  0
  6  7  2  0
  7  8  1  0
  8  9  1  0
  8 10  2  0
  8 11  2  0
  7 12  1  0
 12 13  2  0
  2 14  2  0
 14 15  1  0
 15 16  2  0
 15 17  1  0
 17 18  1  0
 18 19  2  0
 19 20  1  0
 20 21  2  0
 21 22  1  0
 22 23  2  0
 13  4  1  0
 23 14  1  0
 23 18  1  0
M  END
>  <Compound_ID>  (145) 
CHEMBL405042

>  <Molecule Name>  (145) 
GW335962X

>  <Molecular Weight>  (145) 
329.38

>  <AlogP>  (145) 
2.13

>  <Smiles>  (145) 
C/C(Nc1ccc(S(N)(=O)=O)cc1)=C1/C(=O)Nc2ccccc21

>  <Standard Type>  (145) 
Inhibition

>  <Standard Relation>  (145) 
'='

>  <Standard Units>  (145) 
%

>  <Standard Value>  (145) 
9.39

>  <Assay ChEMBL ID>  (145) 
CHEMBL1962143

>  <Assay Description>  (145) 
GSK_PKIS: MET mean inhibition at 1 uM [Nanosyn]

>  <BAO Format ID>  (145) 
BAO_0000357

>  <BAO Label>  (145) 
single protein format

>  <Assay Organism>  (145) 
None

>  <Target ChEMBL ID>  (145) 
CHEMBL3717

>  <Target Name>  (145) 
Hepatocyte growth factor receptor

>  <Target Organism>  (145) 
Homo sapiens

>  <Target Type>  (145) 
SINGLE PROTEIN

>  <Document ChEMBL ID>  (145) 
CHEMBL1961873

>  <Source Description>  (145) 
GSK Published Kinase Inhibitor Set

>  <Document Journal>  (145) 
nan

>  <Document Year>  (145) 
nan

>  <Active>  (145) 
0.0

$$$$

     RDKit          2D

 28 31  0  0  0  0  0  0  0  0999 V2000
    9.7500   -1.2990    0.0000 C   0  0  0  0  0  0  0  0  0  0  0  0
    8.2500   -1.2990    0.0000 O   0  0  0  0  0  0  0  0  0  0  0  0
    7.5000   -2.5981    0.0000 C   0  0  0  0  0  0  0  0  0  0  0  0
    8.2500   -3.8971    0.0000 C   0  0  0  0  0  0  0  0  0  0  0  0
    7.5000   -5.1962    0.0000 C   0  0  0  0  0  0  0  0  0  0  0  0
    6.0000   -5.1962    0.0000 C   0  0  0  0  0  0  0  0  0  0  0  0
    5.2500   -3.8971    0.0000 C   0  0  0  0  0  0  0  0  0  0  0  0
    3.7500   -3.8971    0.0000 C   0  0  0  0  0  0  0  0  0  0  0  0
    3.0000   -2.5981    0.0000 N   0  0  0  0  0  0  0  0  0  0  0  0
    1.5000   -2.5981    0.0000 N   0  0  0  0  0  0  0  0  0  0  0  0
    0.7500   -1.2990    0.0000 C   0  0  0  0  0  0  0  0  0  0  0  0
    1.5000    0.0000    0.0000 N   0  0  0  0  0  0  0  0  0  0  0  0
    0.7500    1.2990    0.0000 C   0  0  0  0  0  0  0  0  0  0  0  0
   -0.7500    1.2990    0.0000 N   0  0  0  0  0  0  0  0  0  0  0  0
   -1.5000    0.0000    0.0000 C   0  0  0  0  0  0  0  0  0  0  0  0
   -0.7500   -1.2990    0.0000 C   0  0  0  0  0  0  0  0  0  0  0  0
   -1.7537   -2.4138    0.0000 C   0  0  0  0  0  0  0  0  0  0  0  0
   -3.1240   -1.8037    0.0000 N   0  0  0  0  0  0  0  0  0  0  0  0
   -2.9672   -0.3119    0.0000 N   0  0  0  0  0  0  0  0  0  0  0  0
   -4.0819    0.6918    0.0000 C   0  0  0  0  0  0  0  0  0  0  0  0
   -3.7701    2.1590    0.0000 C   0  0  0  0  0  0  0  0  0  0  0  0
   -4.8848    3.1627    0.0000 C   0  0  0  0  0  0  0  0  0  0  0  0
   -6.3114    2.6992    0.0000 C   0  0  0  0  0  0  0  0  0  0  0  0
   -6.6232    1.2320    0.0000 C   0  0  0  0  0  0  0  0  0  0  0  0
   -8.0498    0.7685    0.0000 O   0  0  0  0  0  0  0  0  0  0  0  0
   -9.1645    1.7722    0.0000 C   0  0  0  0  0  0  0  0  0  0  0  0
   -5.5085    0.2283    0.0000 C   0  0  0  0  0  0  0  0  0  0  0  0
    6.0000   -2.5981    0.0000 C   0  0  0  0  0  0  0  0  0  0  0  0
  1  2  1  0
  2  3  1  0
  3  4  2  0
  4  5  1  0
  5  6  2  0
  6  7  1  0
  7  8  1  0
  8  9  2  0
  9 10  1  0
 10 11  1  0
 11 12  2  0
 12 13  1  0
 13 14  2  0
 14 15  1  0
 15 16  2  0
 16 17  1  0
 17 18  2  0
 18 19  1  0
 19 20  1  0
 20 21  2  0
 21 22  1  0
 22 23  2  0
 23 24  1  0
 24 25  1  0
 25 26  1  0
 24 27  2  0
  7 28  2  0
 28  3  1  0
 16 11  1  0
 27 20  1  0
 19 15  1  0
M  END
>  <Compound_ID>  (146) 
CHEMBL305477

>  <Molecule Name>  (146) 
GW829874X

>  <Molecular Weight>  (146) 
374.40

>  <AlogP>  (146) 
3.28

>  <Smiles>  (146) 
COc1cccc(/C=N/Nc2ncnc3c2cnn3-c2cccc(OC)c2)c1

>  <Standard Type>  (146) 
Inhibition

>  <Standard Relation>  (146) 
'='

>  <Standard Units>  (146) 
%

>  <Standard Value>  (146) 
9.96

>  <Assay ChEMBL ID>  (146) 
CHEMBL1962143

>  <Assay Description>  (146) 
GSK_PKIS: MET mean inhibition at 1 uM [Nanosyn]

>  <BAO Format ID>  (146) 
BAO_0000357

>  <BAO Label>  (146) 
single protein format

>  <Assay Organism>  (146) 
None

>  <Target ChEMBL ID>  (146) 
CHEMBL3717

>  <Target Name>  (146) 
Hepatocyte growth factor receptor

>  <Target Organism>  (146) 
Homo sapiens

>  <Target Type>  (146) 
SINGLE PROTEIN

>  <Document ChEMBL ID>  (146) 
CHEMBL1961873

>  <Source Description>  (146) 
GSK Published Kinase Inhibitor Set

>  <Document Journal>  (146) 
nan

>  <Document Year>  (146) 
nan

>  <Active>  (146) 
0.0

$$$$

     RDKit          2D

 22 23  0  0  0  0  0  0  0  0999 V2000
    3.7500   -1.2990    0.0000 C   0  0  0  0  0  0  0  0  0  0  0  0
    3.0000    0.0000    0.0000 C   0  0  0  0  0  0  0  0  0  0  0  0
    1.5000    0.0000    0.0000 C   0  0  0  0  0  0  0  0  0  0  0  0
    0.7500   -1.2990    0.0000 C   0  0  0  0  0  0  0  0  0  0  0  0
   -0.7500   -1.2990    0.0000 C   0  0  0  0  0  0  0  0  0  0  0  0
   -1.5000    0.0000    0.0000 C   0  0  0  0  0  0  0  0  0  0  0  0
   -0.7500    1.2990    0.0000 C   0  0  0  0  0  0  0  0  0  0  0  0
   -1.5000    2.5981    0.0000 C   0  0  0  0  0  0  0  0  0  0  0  0
   -0.7500    3.8971    0.0000 C   0  0  0  0  0  0  0  0  0  0  0  0
    0.7500    1.2990    0.0000 C   0  0  0  0  0  0  0  0  0  0  0  0
    1.5000    2.5981    0.0000 C   0  0  0  0  0  0  0  0  0  0  0  0
    3.0000    2.5981    0.0000 C   0  0  0  0  0  0  0  0  0  0  0  0
    3.7500    3.8971    0.0000 C   0  0  0  0  0  0  0  0  0  0  0  0
    5.2500    3.8971    0.0000 C   0  0  0  0  0  0  0  0  0  0  0  0
    6.0000    5.1962    0.0000 N   0  0  0  0  0  0  0  0  0  0  0  0
    5.2500    6.4952    0.0000 C   0  0  0  0  0  0  0  0  0  0  0  0
    3.7500    6.4952    0.0000 C   0  0  0  0  0  0  0  0  0  0  0  0
    3.0000    7.7942    0.0000 C   0  0  0  0  0  0  0  0  0  0  0  0
    1.5000    7.7942    0.0000 O   0  0  0  0  0  0  0  0  0  0  0  0
    3.7500    9.0933    0.0000 N   0  0  0  0  0  0  0  0  0  0  0  0
    3.0000   10.3923    0.0000 C   0  0  0  0  0  0  0  0  0  0  0  0
    3.0000    5.1962    0.0000 C   0  0  0  0  0  0  0  0  0  0  0  0
  1  2  1  0
  2  3  1  0
  3  4  2  0
  4  5  1  0
  5  6  2  0
  6  7  1  0
  7  8  1  0
  8  9  1  0
  7 10  2  0
 10 11  1  0
 11 12  2  0
 12 13  1  0
 13 14  2  0
 14 15  1  0
 15 16  2  0
 16 17  1  0
 17 18  1  0
 18 19  2  0
 18 20  1  0
 20 21  1  0
 17 22  2  0
 10  3  1  0
 22 13  1  0
M  END
>  <Compound_ID>  (147) 
CHEMBL385426

>  <Molecule Name>  (147) 
GW450241X

>  <Molecular Weight>  (147) 
294.40

>  <AlogP>  (147) 
3.74

>  <Smiles>  (147) 
CCc1cccc(CC)c1/C=C/c1cncc(C(=O)NC)c1

>  <Standard Type>  (147) 
Inhibition

>  <Standard Relation>  (147) 
'='

>  <Standard Units>  (147) 
%

>  <Standard Value>  (147) 
-0.26

>  <Assay ChEMBL ID>  (147) 
CHEMBL1962142

>  <Assay Description>  (147) 
GSK_PKIS: MET mean inhibition at 0.1 uM [Nanosyn]

>  <BAO Format ID>  (147) 
BAO_0000357

>  <BAO Label>  (147) 
single protein format

>  <Assay Organism>  (147) 
None

>  <Target ChEMBL ID>  (147) 
CHEMBL3717

>  <Target Name>  (147) 
Hepatocyte growth factor receptor

>  <Target Organism>  (147) 
Homo sapiens

>  <Target Type>  (147) 
SINGLE PROTEIN

>  <Document ChEMBL ID>  (147) 
CHEMBL1961873

>  <Source Description>  (147) 
GSK Published Kinase Inhibitor Set

>  <Document Journal>  (147) 
nan

>  <Document Year>  (147) 
nan

>  <Active>  (147) 
0.0

$$$$

     RDKit          2D

 41 46  0  0  0  0  0  0  0  0999 V2000
    4.5000    0.0000    0.0000 N   0  0  0  0  0  0  0  0  0  0  0  0
    3.0000    0.0000    0.0000 C   0  0  0  0  0  0  0  0  0  0  0  0
    1.5000    0.0000    0.0000 C   0  0  0  0  0  0  0  0  0  0  0  0
    0.7500   -1.2990    0.0000 C   0  0  0  0  0  0  0  0  0  0  0  0
    1.5000   -2.5981    0.0000 C   0  0  0  0  0  0  0  0  0  0  0  0
    0.7500   -3.8971    0.0000 C   0  0  0  0  0  0  0  0  0  0  0  0
    1.5000   -5.1962    0.0000 C   0  0  0  0  0  0  0  0  0  0  0  0
    3.0000   -5.1962    0.0000 C   0  0  0  0  0  0  0  0  0  0  0  0
    3.7500   -3.8971    0.0000 C   0  0  0  0  0  0  0  0  0  0  0  0
    3.0000   -2.5981    0.0000 C   0  0  0  0  0  0  0  0  0  0  0  0
   -0.7500   -1.2990    0.0000 C   0  0  0  0  0  0  0  0  0  0  0  0
   -1.5000    0.0000    0.0000 C   0  0  0  0  0  0  0  0  0  0  0  0
   -3.0000    0.0000    0.0000 C   0  0  0  0  0  0  0  0  0  0  0  0
   -3.7500    1.2990    0.0000 C   0  0  0  0  0  0  0  0  0  0  0  0
   -5.2500    1.2990    0.0000 C   0  0  0  0  0  0  0  0  0  0  0  0
   -6.0000    0.0000    0.0000 C   0  0  0  0  0  0  0  0  0  0  0  0
   -5.2500   -1.2990    0.0000 C   0  0  0  0  0  0  0  0  0  0  0  0
   -3.7500   -1.2990    0.0000 C   0  0  0  0  0  0  0  0  0  0  0  0
   -0.7500    1.2990    0.0000 N   0  0  0  0  0  0  0  0  0  0  0  0
    0.7500    1.2990    0.0000 C   0  0  0  0  0  0  0  0  0  0  0  0
    1.5000    2.5981    0.0000 N   0  0  0  0  0  0  0  0  0  0  0  0
    0.7500    3.8971    0.0000 C   0  0  0  0  0  0  0  0  0  0  0  0
   -0.7418    4.0539    0.0000 S   0  0  0  0  0  0  0  0  0  0  0  0
   -1.0537    5.5211    0.0000 C   0  0  0  0  0  0  0  0  0  0  0  0
   -2.4240    6.1312    0.0000 C   0  0  0  0  0  0  0  0  0  0  0  0
   -3.6375    5.2496    0.0000 O   0  0  0  0  0  0  0  0  0  0  0  0
   -2.5808    7.6230    0.0000 N   0  0  0  0  0  0  0  0  0  0  0  0
   -3.9511    8.2331    0.0000 C   0  0  0  0  0  0  0  0  0  0  0  0
   -4.1079    9.7249    0.0000 C   0  0  0  0  0  0  0  0  0  0  0  0
   -5.4782   10.3350    0.0000 C   0  0  0  0  0  0  0  0  0  0  0  0
   -6.6917    9.4533    0.0000 C   0  0  0  0  0  0  0  0  0  0  0  0
   -6.5349    7.9615    0.0000 C   0  0  0  0  0  0  0  0  0  0  0  0
   -5.1646    7.3514    0.0000 C   0  0  0  0  0  0  0  0  0  0  0  0
    0.2454    6.2711    0.0000 N   0  0  0  0  0  0  0  0  0  0  0  0
    1.3601    5.2674    0.0000 N   0  0  0  0  0  0  0  0  0  0  0  0
    2.8273    5.5793    0.0000 C   0  0  0  0  0  0  0  0  0  0  0  0
    3.8310    4.4646    0.0000 C   0  0  0  0  0  0  0  0  0  0  0  0
    5.2982    4.7765    0.0000 C   0  0  0  0  0  0  0  0  0  0  0  0
    5.7618    6.2030    0.0000 C   0  0  0  0  0  0  0  0  0  0  0  0
    4.7581    7.3178    0.0000 C   0  0  0  0  0  0  0  0  0  0  0  0
    3.2909    7.0059    0.0000 C   0  0  0  0  0  0  0  0  0  0  0  0
  1  2  3  0
  2  3  1  0
  3  4  2  0
  4  5  1  0
  5  6  2  0
  6  7  1  0
  7  8  2  0
  8  9  1  0
  9 10  2  0
  4 11  1  0
 11 12  2  0
 12 13  1  0
 13 14  2  0
 14 15  1  0
 15 16  2  0
 16 17  1  0
 17 18  2  0
 12 19  1  0
 19 20  2  0
 20 21  1  0
 21 22  2  0
 22 23  1  0
 23 24  1  0
 24 25  1  0
 25 26  2  0
 25 27  1  0
 27 28  1  0
 28 29  2  0
 29 30  1  0
 30 31  2  0
 31 32  1  0
 32 33  2  0
 24 34  2  0
 34 35  1  0
 35 36  1  0
 36 37  2  0
 37 38  1  0
 38 39  2  0
 39 40  1  0
 40 41  2  0
 20  3  1  0
 35 22  1  0
 41 36  1  0
 10  5  1  0
 18 13  1  0
 33 28  1  0
M  END
>  <Compound_ID>  (148) 
CHEMBL3408390

>  <Molecule Name>  (148) 
nan

>  <Molecular Weight>  (148) 
550.65

>  <AlogP>  (148) 
7.02

>  <Smiles>  (148) 
N#Cc1c(-c2ccccc2)cc(-c2ccccc2)nc1/N=c1\sc(C(=O)Nc2ccccc2)nn1-c1ccccc1

>  <Standard Type>  (148) 
Inhibition

>  <Standard Relation>  (148) 
'='

>  <Standard Units>  (148) 
%

>  <Standard Value>  (148) 
2.0

>  <Assay ChEMBL ID>  (148) 
CHEMBL3413727

>  <Assay Description>  (148) 
Inhibition of MET (unknown origin) assessed as inhibition of peptide phosphorylation at 30 uM by based microfluidic mobility shift assay

>  <BAO Format ID>  (148) 
BAO_0000357

>  <BAO Label>  (148) 
single protein format

>  <Assay Organism>  (148) 
Homo sapiens

>  <Target ChEMBL ID>  (148) 
CHEMBL3717

>  <Target Name>  (148) 
Hepatocyte growth factor receptor

>  <Target Organism>  (148) 
Homo sapiens

>  <Target Type>  (148) 
SINGLE PROTEIN

>  <Document ChEMBL ID>  (148) 
CHEMBL3407353

>  <Source Description>  (148) 
Scientific Literature

>  <Document Journal>  (148) 
Eur J Med Chem

>  <Document Year>  (148) 
2015.0

>  <Active>  (148) 
0.0

$$$$

     RDKit          2D

 41 45  0  0  0  0  0  0  0  0999 V2000
  -11.6913   -1.3573    0.0000 C   0  0  0  0  0  0  0  0  0  0  0  0
  -11.6913   -2.8573    0.0000 C   0  0  0  0  0  0  0  0  0  0  0  0
  -12.9904   -3.6073    0.0000 O   0  0  0  0  0  0  0  0  0  0  0  0
  -10.3923   -3.6073    0.0000 N   0  0  0  0  0  0  0  0  0  0  0  0
   -9.0933   -2.8573    0.0000 C   0  0  0  0  0  0  0  0  0  0  0  0
   -7.7942   -3.6073    0.0000 C   0  0  0  0  0  0  0  0  0  0  0  0
   -7.7942   -5.1073    0.0000 N   0  0  0  0  0  0  0  0  0  0  0  0
   -6.4952   -5.8573    0.0000 C   0  0  0  0  0  0  0  0  0  0  0  0
   -6.4952   -7.3573    0.0000 C   0  0  0  0  0  0  0  0  0  0  0  0
   -5.1962   -8.1073    0.0000 C   0  0  0  0  0  0  0  0  0  0  0  0
   -3.8971   -7.3573    0.0000 C   0  0  0  0  0  0  0  0  0  0  0  0
   -2.5981   -8.1073    0.0000 N   0  0  0  0  0  0  0  0  0  0  0  0
   -1.2990   -7.3573    0.0000 C   0  0  0  0  0  0  0  0  0  0  0  0
    0.0000   -8.1073    0.0000 N   0  0  0  0  0  0  0  0  0  0  0  0
    1.2990   -7.3573    0.0000 C   0  0  0  0  0  0  0  0  0  0  0  0
    1.2990   -5.8573    0.0000 C   0  0  0  0  0  0  0  0  0  0  0  0
    2.5981   -5.1073    0.0000 C   0  0  0  0  0  0  0  0  0  0  0  0
    3.8971   -4.3573    0.0000 F   0  0  0  0  0  0  0  0  0  0  0  0
    3.3481   -6.4063    0.0000 F   0  0  0  0  0  0  0  0  0  0  0  0
    1.8481   -3.8083    0.0000 F   0  0  0  0  0  0  0  0  0  0  0  0
   -0.0000   -5.1073    0.0000 C   0  0  0  0  0  0  0  0  0  0  0  0
   -0.0000   -3.6073    0.0000 N   0  0  0  0  0  0  0  0  0  0  0  0
    1.2135   -2.7256    0.0000 C   0  0  0  0  0  0  0  0  0  0  0  0
    0.7500   -1.2990    0.0000 C   0  0  0  0  0  0  0  0  0  0  0  0
    1.5000    0.0000    0.0000 C   0  0  0  0  0  0  0  0  0  0  0  0
    0.7500    1.2990    0.0000 C   0  0  0  0  0  0  0  0  0  0  0  0
   -0.7500    1.2990    0.0000 C   0  0  0  0  0  0  0  0  0  0  0  0
   -1.5000    0.0000    0.0000 C   0  0  0  0  0  0  0  0  0  0  0  0
   -3.0000    0.0000    0.0000 N   0  0  0  0  0  0  0  0  0  0  0  0
   -3.7500    1.2990    0.0000 C   0  0  0  0  0  0  0  0  0  0  0  0
   -3.7500   -1.2990    0.0000 S   0  0  0  0  0  0  0  0  0  0  0  0
   -4.5000   -2.5981    0.0000 C   0  0  0  0  0  0  0  0  0  0  0  0
   -2.4510   -2.0490    0.0000 O   0  0  0  0  0  0  0  0  0  0  0  0
   -5.0490   -0.5490    0.0000 O   0  0  0  0  0  0  0  0  0  0  0  0
   -0.7500   -1.2990    0.0000 C   0  0  0  0  0  0  0  0  0  0  0  0
   -1.2135   -2.7256    0.0000 C   0  0  0  0  0  0  0  0  0  0  0  0
   -1.2990   -5.8573    0.0000 N   0  0  0  0  0  0  0  0  0  0  0  0
   -3.8971   -5.8573    0.0000 C   0  0  0  0  0  0  0  0  0  0  0  0
   -5.1962   -5.1073    0.0000 C   0  0  0  0  0  0  0  0  0  0  0  0
   -9.0933   -5.8573    0.0000 C   0  0  0  0  0  0  0  0  0  0  0  0
  -10.3923   -5.1073    0.0000 C   0  0  0  0  0  0  0  0  0  0  0  0
  1  2  1  0
  2  3  2  0
  2  4  1  0
  4  5  1  0
  5  6  1  0
  6  7  1  0
  7  8  1  0
  8  9  2  0
  9 10  1  0
 10 11  2  0
 11 12  1  0
 12 13  1  0
 13 14  2  0
 14 15  1  0
 15 16  2  0
 16 17  1  0
 17 18  1  0
 17 19  1  0
 17 20  1  0
 16 21  1  0
 21 22  1  0
 22 23  1  0
 23 24  1  0
 24 25  2  0
 25 26  1  0
 26 27  2  0
 27 28  1  0
 28 29  1  0
 29 30  1  0
 29 31  1  0
 31 32  1  0
 31 33  2  0
 31 34  2  0
 28 35  2  0
 35 36  1  0
 21 37  2  0
 11 38  1  0
 38 39  2  0
  7 40  1  0
 40 41  1  0
 41  4  1  0
 39  8  1  0
 37 13  1  0
 36 22  1  0
 35 24  1  0
M  END
>  <Compound_ID>  (149) 
CHEMBL4476226

>  <Molecule Name>  (149) 
nan

>  <Molecular Weight>  (149) 
589.64

>  <AlogP>  (149) 
3.82

>  <Smiles>  (149) 
CC(=O)N1CCN(c2ccc(Nc3ncc(C(F)(F)F)c(N4Cc5cccc(N(C)S(C)(=O)=O)c5C4)n3)cc2)CC1

>  <Standard Type>  (149) 
Inhibition

>  <Standard Relation>  (149) 
'='

>  <Standard Units>  (149) 
%

>  <Standard Value>  (149) 
17.9

>  <Assay ChEMBL ID>  (149) 
CHEMBL4326605

>  <Assay Description>  (149) 
Inhibition of human c-MET at 10 uM using KKKSPGEYVNIEFG as substrate by [gamma-33P]-ATP assay relative to control

>  <BAO Format ID>  (149) 
BAO_0000357

>  <BAO Label>  (149) 
single protein format

>  <Assay Organism>  (149) 
Homo sapiens

>  <Target ChEMBL ID>  (149) 
CHEMBL3717

>  <Target Name>  (149) 
Hepatocyte growth factor receptor

>  <Target Organism>  (149) 
Homo sapiens

>  <Target Type>  (149) 
SINGLE PROTEIN

>  <Document ChEMBL ID>  (149) 
CHEMBL4325842

>  <Source Description>  (149) 
Scientific Literature

>  <Document Journal>  (149) 
Bioorg Med Chem Lett

>  <Document Year>  (149) 
2018.0

>  <Active>  (149) 
0.0

$$$$

     RDKit          2D

 29 32  0  0  0  0  0  0  0  0999 V2000
   -3.7548   -2.1855    0.0000 C   0  0  0  0  0  0  0  0  0  0  0  0
   -2.6401   -3.1891    0.0000 C   0  0  0  0  0  0  0  0  0  0  0  0
   -1.2135   -2.7256    0.0000 N   0  0  0  0  0  0  0  0  0  0  0  0
   -0.0000   -3.6073    0.0000 C   0  0  0  0  0  0  0  0  0  0  0  0
   -0.0000   -5.1073    0.0000 C   0  0  0  0  0  0  0  0  0  0  0  0
    1.2135   -5.9890    0.0000 N   0  0  0  0  0  0  0  0  0  0  0  0
    0.7500   -7.4156    0.0000 O   0  0  0  0  0  0  0  0  0  0  0  0
   -0.7500   -7.4156    0.0000 N   0  0  0  0  0  0  0  0  0  0  0  0
   -1.2135   -5.9890    0.0000 C   0  0  0  0  0  0  0  0  0  0  0  0
   -2.6401   -5.5255    0.0000 N   0  0  0  0  0  0  0  0  0  0  0  0
    1.2135   -2.7256    0.0000 N   0  0  0  0  0  0  0  0  0  0  0  0
    0.7500   -1.2990    0.0000 C   0  0  0  0  0  0  0  0  0  0  0  0
    1.5000    0.0000    0.0000 C   0  0  0  0  0  0  0  0  0  0  0  0
    3.0000    0.0000    0.0000 C   0  0  0  0  0  0  0  0  0  0  0  0
    4.5000    0.0000    0.0000 C   0  0  0  0  0  0  0  0  0  0  0  0
    6.0000    0.0000    0.0000 C   0  0  0  0  0  0  0  0  0  0  0  0
    6.0000   -1.5000    0.0000 C   0  0  0  0  0  0  0  0  0  0  0  0
    6.0000    1.5000    0.0000 C   0  0  0  0  0  0  0  0  0  0  0  0
    7.5000    0.0000    0.0000 O   0  0  0  0  0  0  0  0  0  0  0  0
    0.7500    1.2990    0.0000 N   0  0  0  0  0  0  0  0  0  0  0  0
   -0.7500    1.2990    0.0000 C   0  0  0  0  0  0  0  0  0  0  0  0
   -1.5000    2.5981    0.0000 C   0  0  0  0  0  0  0  0  0  0  0  0
   -0.7500    3.8971    0.0000 N   0  0  0  0  0  0  0  0  0  0  0  0
   -1.3601    5.2674    0.0000 C   0  0  0  0  0  0  0  0  0  0  0  0
   -0.2454    6.2711    0.0000 C   0  0  0  0  0  0  0  0  0  0  0  0
    1.0537    5.5211    0.0000 C   0  0  0  0  0  0  0  0  0  0  0  0
    0.7418    4.0539    0.0000 C   0  0  0  0  0  0  0  0  0  0  0  0
   -1.5000    0.0000    0.0000 C   0  0  0  0  0  0  0  0  0  0  0  0
   -0.7500   -1.2990    0.0000 C   0  0  0  0  0  0  0  0  0  0  0  0
  1  2  1  0
  2  3  1  0
  3  4  1  0
  4  5  1  0
  5  6  2  0
  6  7  1  0
  7  8  1  0
  8  9  2  0
  9 10  1  0
  4 11  2  0
 11 12  1  0
 12 13  2  0
 13 14  1  0
 14 15  3  0
 15 16  1  0
 16 17  1  0
 16 18  1  0
 16 19  1  0
 13 20  1  0
 20 21  2  0
 21 22  1  0
 22 23  1  0
 23 24  1  0
 24 25  1  0
 25 26  1  0
 26 27  1  0
 21 28  1  0
 28 29  2  0
 29  3  1  0
  9  5  1  0
 29 12  1  0
 27 23  1  0
M  END
>  <Compound_ID>  (150) 
CHEMBL1096290

>  <Molecule Name>  (150) 
GSK-1000163A

>  <Molecular Weight>  (150) 
395.47

>  <AlogP>  (150) 
1.80

>  <Smiles>  (150) 
CCn1c(-c2nonc2N)nc2c(C#CC(C)(C)O)nc(CN3CCCC3)cc21

>  <Standard Type>  (150) 
Inhibition

>  <Standard Relation>  (150) 
'='

>  <Standard Units>  (150) 
%

>  <Standard Value>  (150) 
5.28

>  <Assay ChEMBL ID>  (150) 
CHEMBL1962143

>  <Assay Description>  (150) 
GSK_PKIS: MET mean inhibition at 1 uM [Nanosyn]

>  <BAO Format ID>  (150) 
BAO_0000357

>  <BAO Label>  (150) 
single protein format

>  <Assay Organism>  (150) 
None

>  <Target ChEMBL ID>  (150) 
CHEMBL3717

>  <Target Name>  (150) 
Hepatocyte growth factor receptor

>  <Target Organism>  (150) 
Homo sapiens

>  <Target Type>  (150) 
SINGLE PROTEIN

>  <Document ChEMBL ID>  (150) 
CHEMBL1961873

>  <Source Description>  (150) 
GSK Published Kinase Inhibitor Set

>  <Document Journal>  (150) 
nan

>  <Document Year>  (150) 
nan

>  <Active>  (150) 
0.0

$$$$

     RDKit          2D

 36 40  0  0  0  0  0  0  0  0999 V2000
    4.8308   -6.3240    0.0000 C   0  0  0  0  0  0  0  0  0  0  0  0
    4.6740   -4.8322    0.0000 C   0  0  0  0  0  0  0  0  0  0  0  0
    5.8875   -3.9505    0.0000 O   0  0  0  0  0  0  0  0  0  0  0  0
    3.3037   -4.2221    0.0000 C   0  0  0  0  0  0  0  0  0  0  0  0
    2.9918   -2.7549    0.0000 N   0  0  0  0  0  0  0  0  0  0  0  0
    1.5000   -2.5981    0.0000 N   0  0  0  0  0  0  0  0  0  0  0  0
    0.7500   -1.2990    0.0000 C   0  0  0  0  0  0  0  0  0  0  0  0
    1.5000    0.0000    0.0000 C   0  0  0  0  0  0  0  0  0  0  0  0
    0.7500    1.2990    0.0000 C   0  0  0  0  0  0  0  0  0  0  0  0
   -0.7500    1.2990    0.0000 C   0  0  0  0  0  0  0  0  0  0  0  0
   -1.5000    2.5981    0.0000 C   0  0  0  0  0  0  0  0  0  0  0  0
   -1.5000    0.0000    0.0000 C   0  0  0  0  0  0  0  0  0  0  0  0
   -0.7500   -1.2990    0.0000 C   0  0  0  0  0  0  0  0  0  0  0  0
    0.8899   -3.9684    0.0000 C   0  0  0  0  0  0  0  0  0  0  0  0
   -0.5773   -4.2803    0.0000 N   0  0  0  0  0  0  0  0  0  0  0  0
   -1.0409   -5.7068    0.0000 C   0  0  0  0  0  0  0  0  0  0  0  0
   -2.5081   -6.0187    0.0000 N   0  0  0  0  0  0  0  0  0  0  0  0
   -2.9716   -7.4453    0.0000 C   0  0  0  0  0  0  0  0  0  0  0  0
   -4.4388   -7.7572    0.0000 C   0  0  0  0  0  0  0  0  0  0  0  0
   -5.4425   -6.6424    0.0000 C   0  0  0  0  0  0  0  0  0  0  0  0
   -6.9097   -6.9543    0.0000 C   0  0  0  0  0  0  0  0  0  0  0  0
   -7.3733   -8.3809    0.0000 C   0  0  0  0  0  0  0  0  0  0  0  0
   -6.3696   -9.4956    0.0000 C   0  0  0  0  0  0  0  0  0  0  0  0
   -4.9023   -9.1838    0.0000 C   0  0  0  0  0  0  0  0  0  0  0  0
   -1.9679   -8.5600    0.0000 C   0  0  0  0  0  0  0  0  0  0  0  0
   -0.5007   -8.2481    0.0000 C   0  0  0  0  0  0  0  0  0  0  0  0
    0.5030   -9.3629    0.0000 C   0  0  0  0  0  0  0  0  0  0  0  0
    0.0395  -10.7895    0.0000 C   0  0  0  0  0  0  0  0  0  0  0  0
    1.0432  -11.9042    0.0000 C   0  0  0  0  0  0  0  0  0  0  0  0
    2.5104  -11.5923    0.0000 C   0  0  0  0  0  0  0  0  0  0  0  0
    2.9739  -10.1657    0.0000 C   0  0  0  0  0  0  0  0  0  0  0  0
    1.9702   -9.0510    0.0000 C   0  0  0  0  0  0  0  0  0  0  0  0
   -0.0372   -6.8216    0.0000 C   0  0  0  0  0  0  0  0  0  0  0  0
    1.4301   -6.5097    0.0000 C   0  0  0  0  0  0  0  0  0  0  0  0
    2.8973   -6.1978    0.0000 N   0  0  0  0  0  0  0  0  0  0  0  0
    2.0046   -4.9721    0.0000 S   0  0  0  0  0  0  0  0  0  0  0  0
  1  2  1  0
  2  3  2  0
  2  4  1  0
  4  5  2  0
  5  6  1  0
  6  7  1  0
  7  8  2  0
  8  9  1  0
  9 10  2  0
 10 11  1  0
 10 12  1  0
 12 13  2  0
  6 14  1  0
 14 15  2  0
 15 16  1  0
 16 17  2  0
 17 18  1  0
 18 19  1  0
 19 20  2  0
 20 21  1  0
 21 22  2  0
 22 23  1  0
 23 24  2  0
 18 25  2  0
 25 26  1  0
 26 27  1  0
 27 28  2  0
 28 29  1  0
 29 30  2  0
 30 31  1  0
 31 32  2  0
 26 33  2  0
 33 34  1  0
 34 35  3  0
 14 36  1  0
 36  4  1  0
 13  7  1  0
 33 16  1  0
 24 19  1  0
 32 27  1  0
M  END
>  <Compound_ID>  (151) 
CHEMBL3408384

>  <Molecule Name>  (151) 
nan

>  <Molecular Weight>  (151) 
487.59

>  <AlogP>  (151) 
6.28

>  <Smiles>  (151) 
CC(=O)c1nn(-c2ccc(C)cc2)/c(=N/c2nc(-c3ccccc3)cc(-c3ccccc3)c2C#N)s1

>  <Standard Type>  (151) 
Inhibition

>  <Standard Relation>  (151) 
'='

>  <Standard Units>  (151) 
%

>  <Standard Value>  (151) 
19.0

>  <Assay ChEMBL ID>  (151) 
CHEMBL3413727

>  <Assay Description>  (151) 
Inhibition of MET (unknown origin) assessed as inhibition of peptide phosphorylation at 30 uM by based microfluidic mobility shift assay

>  <BAO Format ID>  (151) 
BAO_0000357

>  <BAO Label>  (151) 
single protein format

>  <Assay Organism>  (151) 
Homo sapiens

>  <Target ChEMBL ID>  (151) 
CHEMBL3717

>  <Target Name>  (151) 
Hepatocyte growth factor receptor

>  <Target Organism>  (151) 
Homo sapiens

>  <Target Type>  (151) 
SINGLE PROTEIN

>  <Document ChEMBL ID>  (151) 
CHEMBL3407353

>  <Source Description>  (151) 
Scientific Literature

>  <Document Journal>  (151) 
Eur J Med Chem

>  <Document Year>  (151) 
2015.0

>  <Active>  (151) 
0.0

$$$$

     RDKit          2D

 22 24  0  0  0  0  0  0  0  0999 V2000
    3.0000   -5.1962    0.0000 C   0  0  0  0  0  0  0  0  0  0  0  0
    1.5000   -5.1962    0.0000 O   0  0  0  0  0  0  0  0  0  0  0  0
    0.7500   -3.8971    0.0000 C   0  0  0  0  0  0  0  0  0  0  0  0
    1.5000   -2.5981    0.0000 C   0  0  0  0  0  0  0  0  0  0  0  0
    0.7500   -1.2990    0.0000 C   0  0  0  0  0  0  0  0  0  0  0  0
    1.5000    0.0000    0.0000 N   0  0  0  0  0  0  0  0  0  0  0  0
    0.7500    1.2990    0.0000 C   0  0  0  0  0  0  0  0  0  0  0  0
   -0.7500    1.2990    0.0000 C   0  0  0  0  0  0  0  0  0  0  0  0
   -1.5000    0.0000    0.0000 C   0  0  0  0  0  0  0  0  0  0  0  0
   -3.0000    0.0000    0.0000 O   0  0  0  0  0  0  0  0  0  0  0  0
   -3.7500    1.2990    0.0000 C   0  0  0  0  0  0  0  0  0  0  0  0
   -3.0000    2.5981    0.0000 C   0  0  0  0  0  0  0  0  0  0  0  0
   -3.7500    3.8971    0.0000 C   0  0  0  0  0  0  0  0  0  0  0  0
   -5.2500    3.8971    0.0000 C   0  0  0  0  0  0  0  0  0  0  0  0
   -6.0000    5.1962    0.0000 N   0  0  0  0  0  0  0  0  0  0  0  0
   -6.0000    2.5981    0.0000 N   0  0  0  0  0  0  0  0  0  0  0  0
   -5.2500    1.2990    0.0000 C   0  0  0  0  0  0  0  0  0  0  0  0
   -0.7500   -1.2990    0.0000 C   0  0  0  0  0  0  0  0  0  0  0  0
   -1.5000   -2.5981    0.0000 C   0  0  0  0  0  0  0  0  0  0  0  0
   -0.7500   -3.8971    0.0000 C   0  0  0  0  0  0  0  0  0  0  0  0
   -1.5000   -5.1962    0.0000 O   0  0  0  0  0  0  0  0  0  0  0  0
   -3.0000   -5.1962    0.0000 C   0  0  0  0  0  0  0  0  0  0  0  0
  1  2  1  0
  2  3  1  0
  3  4  2  0
  4  5  1  0
  5  6  2  0
  6  7  1  0
  7  8  2  0
  8  9  1  0
  9 10  1  0
 10 11  1  0
 11 12  2  0
 12 13  1  0
 13 14  2  0
 14 15  1  0
 14 16  1  0
 16 17  2  0
  9 18  2  0
 18 19  1  0
 19 20  2  0
 20 21  1  0
 21 22  1  0
 20  3  1  0
 18  5  1  0
 17 11  1  0
M  END
>  <Compound_ID>  (152) 
CHEMBL509608

>  <Molecule Name>  (152) 
nan

>  <Molecular Weight>  (152) 
297.31

>  <AlogP>  (152) 
3.02

>  <Smiles>  (152) 
COc1cc2nccc(Oc3ccc(N)nc3)c2cc1OC

>  <Standard Type>  (152) 
Inhibition

>  <Standard Relation>  (152) 
'='

>  <Standard Units>  (152) 
%

>  <Standard Value>  (152) 
2.0

>  <Assay ChEMBL ID>  (152) 
CHEMBL969891

>  <Assay Description>  (152) 
Inhibition of human activated c-Met at 1 uM by PK/LDH coupled kinetic assay

>  <BAO Format ID>  (152) 
BAO_0000357

>  <BAO Label>  (152) 
single protein format

>  <Assay Organism>  (152) 
Homo sapiens

>  <Target ChEMBL ID>  (152) 
CHEMBL3717

>  <Target Name>  (152) 
Hepatocyte growth factor receptor

>  <Target Organism>  (152) 
Homo sapiens

>  <Target Type>  (152) 
SINGLE PROTEIN

>  <Document ChEMBL ID>  (152) 
CHEMBL1156696

>  <Source Description>  (152) 
Scientific Literature

>  <Document Journal>  (152) 
Eur J Med Chem

>  <Document Year>  (152) 
2008.0

>  <Active>  (152) 
0.0

$$$$

     RDKit          2D

 19 21  0  0  0  0  0  0  0  0999 V2000
    3.7500   -1.2990    0.0000 C   0  0  0  0  0  0  0  0  0  0  0  0
    3.0000    0.0000    0.0000 C   0  0  0  0  0  0  0  0  0  0  0  0
    1.5000    0.0000    0.0000 C   0  0  0  0  0  0  0  0  0  0  0  0
    0.7500   -1.2990    0.0000 N   0  0  0  0  0  0  0  0  0  0  0  0
   -0.7500   -1.2990    0.0000 C   0  0  0  0  0  0  0  0  0  0  0  0
   -1.5000    0.0000    0.0000 C   0  0  0  0  0  0  0  0  0  0  0  0
   -0.7500    1.2990    0.0000 C   0  0  0  0  0  0  0  0  0  0  0  0
    0.7500    1.2990    0.0000 C   0  0  0  0  0  0  0  0  0  0  0  0
    1.2135    2.7256    0.0000 N   0  0  0  0  0  0  0  0  0  0  0  0
    0.0000    3.6073    0.0000 C   0  0  0  0  0  0  0  0  0  0  0  0
    0.0000    5.1073    0.0000 C   0  0  0  0  0  0  0  0  0  0  0  0
   -1.2135    5.9890    0.0000 N   0  0  0  0  0  0  0  0  0  0  0  0
   -0.7500    7.4156    0.0000 O   0  0  0  0  0  0  0  0  0  0  0  0
    0.7500    7.4156    0.0000 N   0  0  0  0  0  0  0  0  0  0  0  0
    1.2135    5.9890    0.0000 C   0  0  0  0  0  0  0  0  0  0  0  0
    2.6401    5.5255    0.0000 N   0  0  0  0  0  0  0  0  0  0  0  0
   -1.2135    2.7256    0.0000 N   0  0  0  0  0  0  0  0  0  0  0  0
   -2.6401    3.1891    0.0000 C   0  0  0  0  0  0  0  0  0  0  0  0
   -3.7548    2.1855    0.0000 C   0  0  0  0  0  0  0  0  0  0  0  0
  1  2  1  0
  2  3  1  0
  3  4  2  0
  4  5  1  0
  5  6  2  0
  6  7  1  0
  7  8  2  0
  8  9  1  0
  9 10  2  0
 10 11  1  0
 11 12  2  0
 12 13  1  0
 13 14  1  0
 14 15  2  0
 15 16  1  0
 10 17  1  0
 17 18  1  0
 18 19  1  0
  8  3  1  0
 15 11  1  0
 17  7  1  0
M  END
>  <Compound_ID>  (153) 
CHEMBL365072

>  <Molecule Name>  (153) 
nan

>  <Molecular Weight>  (153) 
258.29

>  <AlogP>  (153) 
1.65

>  <Smiles>  (153) 
CCc1nccc2c1nc(-c1nonc1N)n2CC

>  <Standard Type>  (153) 
Inhibition

>  <Standard Relation>  (153) 
'='

>  <Standard Units>  (153) 
%

>  <Standard Value>  (153) 
2.04

>  <Assay ChEMBL ID>  (153) 
CHEMBL1962142

>  <Assay Description>  (153) 
GSK_PKIS: MET mean inhibition at 0.1 uM [Nanosyn]

>  <BAO Format ID>  (153) 
BAO_0000357

>  <BAO Label>  (153) 
single protein format

>  <Assay Organism>  (153) 
None

>  <Target ChEMBL ID>  (153) 
CHEMBL3717

>  <Target Name>  (153) 
Hepatocyte growth factor receptor

>  <Target Organism>  (153) 
Homo sapiens

>  <Target Type>  (153) 
SINGLE PROTEIN

>  <Document ChEMBL ID>  (153) 
CHEMBL1961873

>  <Source Description>  (153) 
GSK Published Kinase Inhibitor Set

>  <Document Journal>  (153) 
nan

>  <Document Year>  (153) 
nan

>  <Active>  (153) 
0.0

$$$$

     RDKit          2D

 38 42  0  0  0  0  0  0  0  0999 V2000
   -1.3632  -12.1594    0.0000 C   0  0  0  0  0  0  0  0  0  0  0  0
   -1.2064  -10.6676    0.0000 S   0  0  0  0  0  0  0  0  0  0  0  0
    0.2854  -10.8244    0.0000 O   0  0  0  0  0  0  0  0  0  0  0  0
   -2.6982  -10.5109    0.0000 O   0  0  0  0  0  0  0  0  0  0  0  0
   -1.0496   -9.1759    0.0000 C   0  0  0  0  0  0  0  0  0  0  0  0
    0.3207   -8.5658    0.0000 C   0  0  0  0  0  0  0  0  0  0  0  0
    0.4775   -7.0740    0.0000 N   0  0  0  0  0  0  0  0  0  0  0  0
    1.8478   -6.4639    0.0000 C   0  0  0  0  0  0  0  0  0  0  0  0
    2.0046   -4.9721    0.0000 C   0  0  0  0  0  0  0  0  0  0  0  0
    3.3037   -4.2221    0.0000 C   0  0  0  0  0  0  0  0  0  0  0  0
    2.9918   -2.7549    0.0000 C   0  0  0  0  0  0  0  0  0  0  0  0
    1.5000   -2.5981    0.0000 C   0  0  0  0  0  0  0  0  0  0  0  0
    0.7500   -1.2990    0.0000 C   0  0  0  0  0  0  0  0  0  0  0  0
    1.5000    0.0000    0.0000 C   0  0  0  0  0  0  0  0  0  0  0  0
    0.7500    1.2990    0.0000 C   0  0  0  0  0  0  0  0  0  0  0  0
   -0.7500    1.2990    0.0000 C   0  0  0  0  0  0  0  0  0  0  0  0
   -1.5000    2.5981    0.0000 N   0  0  0  0  0  0  0  0  0  0  0  0
   -3.0000    2.5981    0.0000 C   0  0  0  0  0  0  0  0  0  0  0  0
   -3.7500    1.2990    0.0000 N   0  0  0  0  0  0  0  0  0  0  0  0
   -3.0000    0.0000    0.0000 C   0  0  0  0  0  0  0  0  0  0  0  0
   -3.7500   -1.2990    0.0000 N   0  0  0  0  0  0  0  0  0  0  0  0
   -5.2500   -1.2990    0.0000 C   0  0  0  0  0  0  0  0  0  0  0  0
   -6.0000    0.0000    0.0000 C   0  0  0  0  0  0  0  0  0  0  0  0
   -7.5000    0.0000    0.0000 C   0  0  0  0  0  0  0  0  0  0  0  0
   -8.2500   -1.2990    0.0000 C   0  0  0  0  0  0  0  0  0  0  0  0
   -9.7500   -1.2990    0.0000 O   0  0  0  0  0  0  0  0  0  0  0  0
  -10.5000    0.0000    0.0000 C   0  0  0  0  0  0  0  0  0  0  0  0
  -12.0000    0.0000    0.0000 C   0  0  0  0  0  0  0  0  0  0  0  0
  -12.7500    1.2990    0.0000 C   0  0  0  0  0  0  0  0  0  0  0  0
  -14.2500    1.2990    0.0000 C   0  0  0  0  0  0  0  0  0  0  0  0
  -15.0000    0.0000    0.0000 C   0  0  0  0  0  0  0  0  0  0  0  0
  -14.2500   -1.2990    0.0000 C   0  0  0  0  0  0  0  0  0  0  0  0
  -12.7500   -1.2990    0.0000 C   0  0  0  0  0  0  0  0  0  0  0  0
   -7.5000   -2.5981    0.0000 C   0  0  0  0  0  0  0  0  0  0  0  0
   -6.0000   -2.5981    0.0000 C   0  0  0  0  0  0  0  0  0  0  0  0
   -1.5000    0.0000    0.0000 C   0  0  0  0  0  0  0  0  0  0  0  0
   -0.7500   -1.2990    0.0000 C   0  0  0  0  0  0  0  0  0  0  0  0
    0.8899   -3.9684    0.0000 O   0  0  0  0  0  0  0  0  0  0  0  0
  1  2  1  0
  2  3  2  0
  2  4  2  0
  2  5  1  0
  5  6  1  0
  6  7  1  0
  7  8  1  0
  8  9  1  0
  9 10  2  0
 10 11  1  0
 11 12  2  0
 12 13  1  0
 13 14  2  0
 14 15  1  0
 15 16  2  0
 16 17  1  0
 17 18  2  0
 18 19  1  0
 19 20  2  0
 20 21  1  0
 21 22  1  0
 22 23  2  0
 23 24  1  0
 24 25  2  0
 25 26  1  0
 26 27  1  0
 27 28  1  0
 28 29  2  0
 29 30  1  0
 30 31  2  0
 31 32  1  0
 32 33  2  0
 25 34  1  0
 34 35  2  0
 20 36  1  0
 36 37  2  0
 12 38  1  0
 38  9  1  0
 37 13  1  0
 36 16  1  0
 35 22  1  0
 33 28  1  0
M  END
>  <Compound_ID>  (154) 
CHEMBL1909385

>  <Molecule Name>  (154) 
GW458787A

>  <Molecular Weight>  (154) 
565.10

>  <AlogP>  (154) 
5.35

>  <Smiles>  (154) 
CS(=O)(=O)CCNCc1ccc(-c2ccc3ncnc(Nc4ccc(OCc5ccccc5)cc4)c3c2)o1

>  <Standard Type>  (154) 
Inhibition

>  <Standard Relation>  (154) 
'='

>  <Standard Units>  (154) 
%

>  <Standard Value>  (154) 
-0.6

>  <Assay ChEMBL ID>  (154) 
CHEMBL1962142

>  <Assay Description>  (154) 
GSK_PKIS: MET mean inhibition at 0.1 uM [Nanosyn]

>  <BAO Format ID>  (154) 
BAO_0000357

>  <BAO Label>  (154) 
single protein format

>  <Assay Organism>  (154) 
None

>  <Target ChEMBL ID>  (154) 
CHEMBL3717

>  <Target Name>  (154) 
Hepatocyte growth factor receptor

>  <Target Organism>  (154) 
Homo sapiens

>  <Target Type>  (154) 
SINGLE PROTEIN

>  <Document ChEMBL ID>  (154) 
CHEMBL1961873

>  <Source Description>  (154) 
GSK Published Kinase Inhibitor Set

>  <Document Journal>  (154) 
nan

>  <Document Year>  (154) 
nan

>  <Active>  (154) 
0.0

$$$$

     RDKit          2D

 30 32  0  0  0  0  0  0  0  0999 V2000
    3.7500   -1.2990    0.0000 C   0  0  0  0  0  0  0  0  0  0  0  0
    3.0000    0.0000    0.0000 O   0  0  0  0  0  0  0  0  0  0  0  0
    1.5000    0.0000    0.0000 C   0  0  0  0  0  0  0  0  0  0  0  0
    0.7500   -1.2990    0.0000 C   0  0  0  0  0  0  0  0  0  0  0  0
   -0.7500   -1.2990    0.0000 C   0  0  0  0  0  0  0  0  0  0  0  0
   -1.5000    0.0000    0.0000 C   0  0  0  0  0  0  0  0  0  0  0  0
   -3.0000    0.0000    0.0000 C   0  0  0  0  0  0  0  0  0  0  0  0
   -3.7500    1.2990    0.0000 N   0  0  0  0  0  0  0  0  0  0  0  0
   -5.2500    1.2990    0.0000 N   0  0  0  0  0  0  0  0  0  0  0  0
   -6.0000    2.5981    0.0000 C   0  0  0  0  0  0  0  0  0  0  0  0
   -7.4918    2.7549    0.0000 N   0  0  0  0  0  0  0  0  0  0  0  0
   -7.8037    4.2221    0.0000 N   0  0  0  0  0  0  0  0  0  0  0  0
   -6.5046    4.9721    0.0000 C   0  0  0  0  0  0  0  0  0  0  0  0
   -6.3478    6.4639    0.0000 C   0  0  0  0  0  0  0  0  0  0  0  0
   -5.3899    3.9684    0.0000 C   0  0  0  0  0  0  0  0  0  0  0  0
   -3.9227    4.2803    0.0000 C   0  0  0  0  0  0  0  0  0  0  0  0
   -2.9190    3.1655    0.0000 O   0  0  0  0  0  0  0  0  0  0  0  0
   -3.4591    5.7068    0.0000 N   0  0  0  0  0  0  0  0  0  0  0  0
   -1.9919    6.0187    0.0000 C   0  0  0  0  0  0  0  0  0  0  0  0
   -0.9882    4.9040    0.0000 C   0  0  0  0  0  0  0  0  0  0  0  0
    0.4790    5.2159    0.0000 C   0  0  0  0  0  0  0  0  0  0  0  0
    0.9425    6.6424    0.0000 C   0  0  0  0  0  0  0  0  0  0  0  0
   -0.0612    7.7572    0.0000 C   0  0  0  0  0  0  0  0  0  0  0  0
    0.4023    9.1838    0.0000 N   0  0  0  0  0  0  0  0  0  0  0  0
    1.8696    9.4956    0.0000 C   0  0  0  0  0  0  0  0  0  0  0  0
    2.3331   10.9222    0.0000 C   0  0  0  0  0  0  0  0  0  0  0  0
    2.8733    8.3809    0.0000 O   0  0  0  0  0  0  0  0  0  0  0  0
   -1.5284    7.4453    0.0000 C   0  0  0  0  0  0  0  0  0  0  0  0
   -0.7500    1.2990    0.0000 C   0  0  0  0  0  0  0  0  0  0  0  0
    0.7500    1.2990    0.0000 C   0  0  0  0  0  0  0  0  0  0  0  0
  1  2  1  0
  2  3  1  0
  3  4  2  0
  4  5  1  0
  5  6  2  0
  6  7  1  0
  7  8  2  0
  8  9  1  0
  9 10  1  0
 10 11  1  0
 11 12  1  0
 12 13  2  0
 13 14  1  0
 13 15  1  0
 15 16  1  0
 16 17  2  0
 16 18  1  0
 18 19  1  0
 19 20  2  0
 20 21  1  0
 21 22  2  0
 22 23  1  0
 23 24  1  0
 24 25  1  0
 25 26  1  0
 25 27  2  0
 23 28  2  0
  6 29  1  0
 29 30  2  0
 30  3  1  0
 15 10  2  0
 28 19  1  0
M  END
>  <Compound_ID>  (155) 
CHEMBL515560

>  <Molecule Name>  (155) 
nan

>  <Molecular Weight>  (155) 
406.45

>  <AlogP>  (155) 
3.38

>  <Smiles>  (155) 
COc1ccc(/C=N/Nc2[nH]nc(C)c2C(=O)Nc2cccc(NC(C)=O)c2)cc1

>  <Standard Type>  (155) 
Inhibition

>  <Standard Relation>  (155) 
'='

>  <Standard Units>  (155) 
%

>  <Standard Value>  (155) 
19.0

>  <Assay ChEMBL ID>  (155) 
CHEMBL1006318

>  <Assay Description>  (155) 
Inhibition of cMET at 1 uM relative to control

>  <BAO Format ID>  (155) 
BAO_0000357

>  <BAO Label>  (155) 
single protein format

>  <Assay Organism>  (155) 
None

>  <Target ChEMBL ID>  (155) 
CHEMBL3717

>  <Target Name>  (155) 
Hepatocyte growth factor receptor

>  <Target Organism>  (155) 
Homo sapiens

>  <Target Type>  (155) 
SINGLE PROTEIN

>  <Document ChEMBL ID>  (155) 
CHEMBL1140919

>  <Source Description>  (155) 
Scientific Literature

>  <Document Journal>  (155) 
J Med Chem

>  <Document Year>  (155) 
2009.0

>  <Active>  (155) 
0.0

$$$$

     RDKit          2D

 23 25  0  0  0  0  0  0  0  0999 V2000
  -10.8878   -4.5031    0.0000 C   0  0  0  0  0  0  0  0  0  0  0  0
   -9.7730   -5.5068    0.0000 S   0  0  0  0  0  0  0  0  0  0  0  0
   -8.7693   -4.3921    0.0000 O   0  0  0  0  0  0  0  0  0  0  0  0
  -10.7767   -6.6215    0.0000 O   0  0  0  0  0  0  0  0  0  0  0  0
   -8.6583   -6.5105    0.0000 N   0  0  0  0  0  0  0  0  0  0  0  0
   -7.2317   -6.0469    0.0000 C   0  0  0  0  0  0  0  0  0  0  0  0
   -6.9199   -4.5797    0.0000 C   0  0  0  0  0  0  0  0  0  0  0  0
   -5.4933   -4.1162    0.0000 C   0  0  0  0  0  0  0  0  0  0  0  0
   -4.3786   -5.1199    0.0000 C   0  0  0  0  0  0  0  0  0  0  0  0
   -2.9520   -4.6564    0.0000 N   0  0  0  0  0  0  0  0  0  0  0  0
   -2.6401   -3.1891    0.0000 C   0  0  0  0  0  0  0  0  0  0  0  0
   -1.2135   -2.7256    0.0000 C   0  0  0  0  0  0  0  0  0  0  0  0
   -0.0000   -3.6073    0.0000 C   0  0  0  0  0  0  0  0  0  0  0  0
    0.0000   -5.1073    0.0000 O   0  0  0  0  0  0  0  0  0  0  0  0
    1.2135   -2.7256    0.0000 N   0  0  0  0  0  0  0  0  0  0  0  0
    0.7500   -1.2990    0.0000 C   0  0  0  0  0  0  0  0  0  0  0  0
    1.5000    0.0000    0.0000 C   0  0  0  0  0  0  0  0  0  0  0  0
    0.7500    1.2990    0.0000 C   0  0  0  0  0  0  0  0  0  0  0  0
   -0.7500    1.2990    0.0000 C   0  0  0  0  0  0  0  0  0  0  0  0
   -1.5000    0.0000    0.0000 C   0  0  0  0  0  0  0  0  0  0  0  0
   -0.7500   -1.2990    0.0000 C   0  0  0  0  0  0  0  0  0  0  0  0
   -4.6904   -6.5871    0.0000 C   0  0  0  0  0  0  0  0  0  0  0  0
   -6.1170   -7.0506    0.0000 C   0  0  0  0  0  0  0  0  0  0  0  0
  1  2  1  0
  2  3  2  0
  2  4  2  0
  2  5  1  0
  5  6  1  0
  6  7  2  0
  7  8  1  0
  8  9  2  0
  9 10  1  0
 10 11  1  0
 11 12  2  0
 12 13  1  0
 13 14  2  0
 13 15  1  0
 15 16  1  0
 16 17  2  0
 17 18  1  0
 18 19  2  0
 19 20  1  0
 20 21  2  0
  9 22  1  0
 22 23  2  0
 23  6  1  0
 21 12  1  0
 21 16  1  0
M  END
>  <Compound_ID>  (156) 
CHEMBL1794058

>  <Molecule Name>  (156) 
GW278681X

>  <Molecular Weight>  (156) 
329.38

>  <AlogP>  (156) 
2.46

>  <Smiles>  (156) 
CS(=O)(=O)Nc1ccc(N/C=C2\C(=O)Nc3ccccc32)cc1

>  <Standard Type>  (156) 
Inhibition

>  <Standard Relation>  (156) 
'='

>  <Standard Units>  (156) 
%

>  <Standard Value>  (156) 
-0.23

>  <Assay ChEMBL ID>  (156) 
CHEMBL1962143

>  <Assay Description>  (156) 
GSK_PKIS: MET mean inhibition at 1 uM [Nanosyn]

>  <BAO Format ID>  (156) 
BAO_0000357

>  <BAO Label>  (156) 
single protein format

>  <Assay Organism>  (156) 
None

>  <Target ChEMBL ID>  (156) 
CHEMBL3717

>  <Target Name>  (156) 
Hepatocyte growth factor receptor

>  <Target Organism>  (156) 
Homo sapiens

>  <Target Type>  (156) 
SINGLE PROTEIN

>  <Document ChEMBL ID>  (156) 
CHEMBL1961873

>  <Source Description>  (156) 
GSK Published Kinase Inhibitor Set

>  <Document Journal>  (156) 
nan

>  <Document Year>  (156) 
nan

>  <Active>  (156) 
0.0

$$$$

     RDKit          2D

 28 31  0  0  0  0  0  0  0  0999 V2000
   -1.8836    6.6179    0.0000 C   0  0  0  0  0  0  0  0  0  0  0  0
   -3.3102    6.1544    0.0000 C   0  0  0  0  0  0  0  0  0  0  0  0
   -3.6221    4.6871    0.0000 N   0  0  0  0  0  0  0  0  0  0  0  0
   -2.5074    3.6834    0.0000 C   0  0  0  0  0  0  0  0  0  0  0  0
   -1.0808    4.1470    0.0000 C   0  0  0  0  0  0  0  0  0  0  0  0
   -5.0487    4.2236    0.0000 C   0  0  0  0  0  0  0  0  0  0  0  0
   -5.3605    2.7564    0.0000 C   0  0  0  0  0  0  0  0  0  0  0  0
   -4.2458    1.7527    0.0000 C   0  0  0  0  0  0  0  0  0  0  0  0
   -4.5577    0.2855    0.0000 C   0  0  0  0  0  0  0  0  0  0  0  0
   -5.9843   -0.1781    0.0000 C   0  0  0  0  0  0  0  0  0  0  0  0
   -6.2961   -1.6453    0.0000 N   0  0  0  0  0  0  0  0  0  0  0  0
   -5.1814   -2.6490    0.0000 C   0  0  0  0  0  0  0  0  0  0  0  0
   -5.4933   -4.1162    0.0000 N   0  0  0  0  0  0  0  0  0  0  0  0
   -4.3786   -5.1199    0.0000 C   0  0  0  0  0  0  0  0  0  0  0  0
   -2.9520   -4.6564    0.0000 C   0  0  0  0  0  0  0  0  0  0  0  0
   -2.6401   -3.1891    0.0000 C   0  0  0  0  0  0  0  0  0  0  0  0
   -1.2135   -2.7256    0.0000 C   0  0  0  0  0  0  0  0  0  0  0  0
   -0.0000   -3.6073    0.0000 C   0  0  0  0  0  0  0  0  0  0  0  0
    1.2135   -2.7256    0.0000 N   0  0  0  0  0  0  0  0  0  0  0  0
    0.7500   -1.2990    0.0000 N   0  0  0  0  0  0  0  0  0  0  0  0
    1.5000    0.0000    0.0000 N   0  0  0  0  0  0  0  0  0  0  0  0
    0.7500    1.2990    0.0000 C   0  0  0  0  0  0  0  0  0  0  0  0
   -0.7500    1.2990    0.0000 C   0  0  0  0  0  0  0  0  0  0  0  0
   -1.5000    0.0000    0.0000 C   0  0  0  0  0  0  0  0  0  0  0  0
   -0.7500   -1.2990    0.0000 C   0  0  0  0  0  0  0  0  0  0  0  0
   -3.7548   -2.1855    0.0000 N   0  0  0  0  0  0  0  0  0  0  0  0
   -7.0990    0.8256    0.0000 C   0  0  0  0  0  0  0  0  0  0  0  0
   -6.7871    2.2929    0.0000 C   0  0  0  0  0  0  0  0  0  0  0  0
  1  2  1  0
  2  3  1  0
  3  4  1  0
  4  5  1  0
  3  6  1  0
  6  7  1  0
  7  8  2  0
  8  9  1  0
  9 10  2  0
 10 11  1  0
 11 12  1  0
 12 13  2  0
 13 14  1  0
 14 15  2  0
 15 16  1  0
 16 17  1  0
 17 18  1  0
 18 19  2  0
 19 20  1  0
 20 21  1  0
 21 22  2  0
 22 23  1  0
 23 24  2  0
 24 25  1  0
 16 26  2  0
 10 27  1  0
 27 28  2  0
 28  7  1  0
 26 12  1  0
 25 17  2  0
 25 20  1  0
M  END
>  <Compound_ID>  (157) 
CHEMBL1882194

>  <Molecule Name>  (157) 
GW780056X

>  <Molecular Weight>  (157) 
373.46

>  <AlogP>  (157) 
3.77

>  <Smiles>  (157) 
CCN(CC)Cc1ccc(Nc2nccc(-c3cnn4ncccc34)n2)cc1

>  <Standard Type>  (157) 
Inhibition

>  <Standard Relation>  (157) 
'='

>  <Standard Units>  (157) 
%

>  <Standard Value>  (157) 
7.6

>  <Assay ChEMBL ID>  (157) 
CHEMBL1962142

>  <Assay Description>  (157) 
GSK_PKIS: MET mean inhibition at 0.1 uM [Nanosyn]

>  <BAO Format ID>  (157) 
BAO_0000357

>  <BAO Label>  (157) 
single protein format

>  <Assay Organism>  (157) 
None

>  <Target ChEMBL ID>  (157) 
CHEMBL3717

>  <Target Name>  (157) 
Hepatocyte growth factor receptor

>  <Target Organism>  (157) 
Homo sapiens

>  <Target Type>  (157) 
SINGLE PROTEIN

>  <Document ChEMBL ID>  (157) 
CHEMBL1961873

>  <Source Description>  (157) 
GSK Published Kinase Inhibitor Set

>  <Document Journal>  (157) 
nan

>  <Document Year>  (157) 
nan

>  <Active>  (157) 
0.0

$$$$

     RDKit          2D

 22 25  0  0  0  0  0  0  0  0999 V2000
    4.0519   -4.9608    0.0000 C   0  0  0  0  0  0  0  0  0  0  0  0
    3.0482   -6.0755    0.0000 C   0  0  0  0  0  0  0  0  0  0  0  0
    3.5118   -7.5021    0.0000 C   0  0  0  0  0  0  0  0  0  0  0  0
    2.5081   -8.6168    0.0000 C   0  0  0  0  0  0  0  0  0  0  0  0
    1.0409   -8.3049    0.0000 C   0  0  0  0  0  0  0  0  0  0  0  0
    0.5773   -6.8783    0.0000 C   0  0  0  0  0  0  0  0  0  0  0  0
   -0.8899   -6.5665    0.0000 C   0  0  0  0  0  0  0  0  0  0  0  0
   -2.0046   -7.5702    0.0000 N   0  0  0  0  0  0  0  0  0  0  0  0
   -3.3037   -6.8202    0.0000 N   0  0  0  0  0  0  0  0  0  0  0  0
   -2.9918   -5.3529    0.0000 C   0  0  0  0  0  0  0  0  0  0  0  0
   -1.5000   -5.1962    0.0000 C   0  0  0  0  0  0  0  0  0  0  0  0
   -0.7500   -3.8971    0.0000 C   0  0  0  0  0  0  0  0  0  0  0  0
    0.7500   -3.8971    0.0000 C   0  0  0  0  0  0  0  0  0  0  0  0
    1.5000   -2.5981    0.0000 C   0  0  0  0  0  0  0  0  0  0  0  0
    0.7500   -1.2990    0.0000 C   0  0  0  0  0  0  0  0  0  0  0  0
    1.5000    0.0000    0.0000 N   0  0  0  0  0  0  0  0  0  0  0  0
    0.7500    1.2990    0.0000 C   0  0  0  0  0  0  0  0  0  0  0  0
   -0.7500    1.2990    0.0000 C   0  0  0  0  0  0  0  0  0  0  0  0
   -1.5000    0.0000    0.0000 C   0  0  0  0  0  0  0  0  0  0  0  0
   -0.7500   -1.2990    0.0000 C   0  0  0  0  0  0  0  0  0  0  0  0
   -1.5000   -2.5981    0.0000 N   0  0  0  0  0  0  0  0  0  0  0  0
    1.5810   -5.7636    0.0000 N   0  0  0  0  0  0  0  0  0  0  0  0
  1  2  1  0
  2  3  2  0
  3  4  1  0
  4  5  2  0
  5  6  1  0
  6  7  1  0
  7  8  2  0
  8  9  1  0
  9 10  1  0
 10 11  2  0
 11 12  1  0
 12 13  2  0
 13 14  1  0
 14 15  2  0
 15 16  1  0
 16 17  2  0
 17 18  1  0
 18 19  2  0
 19 20  1  0
 20 21  2  0
  6 22  2  0
 22  2  1  0
 11  7  1  0
 21 12  1  0
 20 15  1  0
M  END
>  <Compound_ID>  (158) 
CHEMBL185238

>  <Molecule Name>  (158) 
GW786460X

>  <Molecular Weight>  (158) 
287.33

>  <AlogP>  (158) 
3.39

>  <Smiles>  (158) 
Cc1cccc(-c2n[nH]cc2-c2ccc3ncccc3n2)n1

>  <Standard Type>  (158) 
Inhibition

>  <Standard Relation>  (158) 
'='

>  <Standard Units>  (158) 
%

>  <Standard Value>  (158) 
-1.62

>  <Assay ChEMBL ID>  (158) 
CHEMBL1962143

>  <Assay Description>  (158) 
GSK_PKIS: MET mean inhibition at 1 uM [Nanosyn]

>  <BAO Format ID>  (158) 
BAO_0000357

>  <BAO Label>  (158) 
single protein format

>  <Assay Organism>  (158) 
None

>  <Target ChEMBL ID>  (158) 
CHEMBL3717

>  <Target Name>  (158) 
Hepatocyte growth factor receptor

>  <Target Organism>  (158) 
Homo sapiens

>  <Target Type>  (158) 
SINGLE PROTEIN

>  <Document ChEMBL ID>  (158) 
CHEMBL1961873

>  <Source Description>  (158) 
GSK Published Kinase Inhibitor Set

>  <Document Journal>  (158) 
nan

>  <Document Year>  (158) 
nan

>  <Active>  (158) 
0.0

$$$$

     RDKit          2D

 33 36  0  0  0  0  0  0  0  0999 V2000
   -8.2322   -0.7949    0.0000 C   0  0  0  0  0  0  0  0  0  0  0  0
   -6.8056   -1.2584    0.0000 C   0  0  0  0  0  0  0  0  0  0  0  0
   -6.4937   -2.7256    0.0000 O   0  0  0  0  0  0  0  0  0  0  0  0
   -5.0672   -3.1891    0.0000 C   0  0  0  0  0  0  0  0  0  0  0  0
   -3.8536   -2.3075    0.0000 C   0  0  0  0  0  0  0  0  0  0  0  0
   -2.6401   -3.1891    0.0000 C   0  0  0  0  0  0  0  0  0  0  0  0
   -1.2135   -2.7256    0.0000 N   0  0  0  0  0  0  0  0  0  0  0  0
   -0.0000   -3.6073    0.0000 C   0  0  0  0  0  0  0  0  0  0  0  0
    1.2135   -2.7256    0.0000 N   0  0  0  0  0  0  0  0  0  0  0  0
    0.7500   -1.2990    0.0000 C   0  0  0  0  0  0  0  0  0  0  0  0
    1.5000    0.0000    0.0000 C   0  0  0  0  0  0  0  0  0  0  0  0
    0.7500    1.2990    0.0000 C   0  0  0  0  0  0  0  0  0  0  0  0
   -0.7500    1.2990    0.0000 C   0  0  0  0  0  0  0  0  0  0  0  0
   -1.5000    2.5981    0.0000 O   0  0  0  0  0  0  0  0  0  0  0  0
   -0.7500    3.8971    0.0000 C   0  0  0  0  0  0  0  0  0  0  0  0
   -1.5000    5.1962    0.0000 C   0  0  0  0  0  0  0  0  0  0  0  0
   -3.0000    5.1962    0.0000 O   0  0  0  0  0  0  0  0  0  0  0  0
   -0.7500    6.4952    0.0000 C   0  0  0  0  0  0  0  0  0  0  0  0
   -1.5000    7.7942    0.0000 O   0  0  0  0  0  0  0  0  0  0  0  0
   -1.5000    0.0000    0.0000 C   0  0  0  0  0  0  0  0  0  0  0  0
   -0.7500   -1.2990    0.0000 C   0  0  0  0  0  0  0  0  0  0  0  0
   -3.1036   -4.6157    0.0000 S   0  0  0  0  0  0  0  0  0  0  0  0
   -4.6036   -4.6157    0.0000 C   0  0  0  0  0  0  0  0  0  0  0  0
   -5.4853   -5.8293    0.0000 C   0  0  0  0  0  0  0  0  0  0  0  0
   -4.8752   -7.1996    0.0000 N   0  0  0  0  0  0  0  0  0  0  0  0
   -6.9771   -5.6725    0.0000 O   0  0  0  0  0  0  0  0  0  0  0  0
   -5.6909   -0.2547    0.0000 C   0  0  0  0  0  0  0  0  0  0  0  0
   -4.2643   -0.7182    0.0000 C   0  0  0  0  0  0  0  0  0  0  0  0
   -3.1496    0.2855    0.0000 C   0  0  0  0  0  0  0  0  0  0  0  0
   -3.4615    1.7527    0.0000 C   0  0  0  0  0  0  0  0  0  0  0  0
   -4.8880    2.2162    0.0000 C   0  0  0  0  0  0  0  0  0  0  0  0
   -6.0028    1.2125    0.0000 C   0  0  0  0  0  0  0  0  0  0  0  0
   -7.4293    1.6760    0.0000 Cl  0  0  0  0  0  0  0  0  0  0  0  0
  2  1  1  6
  2  3  1  0
  3  4  1  0
  4  5  1  0
  5  6  2  0
  6  7  1  0
  7  8  1  0
  8  9  2  0
  9 10  1  0
 10 11  2  0
 11 12  1  0
 12 13  2  0
 13 14  1  0
 14 15  1  0
 15 16  1  0
 16 17  1  1
 16 18  1  0
 18 19  1  0
 13 20  1  0
 20 21  2  0
  6 22  1  0
 22 23  1  0
 23 24  1  0
 24 25  1  0
 24 26  2  0
  2 27  1  0
 27 28  2  0
 28 29  1  0
 29 30  2  0
 30 31  1  0
 31 32  2  0
 32 33  1  0
 23  4  2  0
 32 27  1  0
 21  7  1  0
 21 10  1  0
M  END
>  <Compound_ID>  (159) 
CHEMBL1794067

>  <Molecule Name>  (159) 
GSK-978744A

>  <Molecular Weight>  (159) 
487.97

>  <AlogP>  (159) 
3.71

>  <Smiles>  (159) 
C[C@@H](Oc1cc(-n2cnc3ccc(OC[C@@H](O)CO)cc32)sc1C(N)=O)c1ccccc1Cl

>  <Standard Type>  (159) 
Inhibition

>  <Standard Relation>  (159) 
'='

>  <Standard Units>  (159) 
%

>  <Standard Value>  (159) 
-4.12

>  <Assay ChEMBL ID>  (159) 
CHEMBL1962142

>  <Assay Description>  (159) 
GSK_PKIS: MET mean inhibition at 0.1 uM [Nanosyn]

>  <BAO Format ID>  (159) 
BAO_0000357

>  <BAO Label>  (159) 
single protein format

>  <Assay Organism>  (159) 
None

>  <Target ChEMBL ID>  (159) 
CHEMBL3717

>  <Target Name>  (159) 
Hepatocyte growth factor receptor

>  <Target Organism>  (159) 
Homo sapiens

>  <Target Type>  (159) 
SINGLE PROTEIN

>  <Document ChEMBL ID>  (159) 
CHEMBL1961873

>  <Source Description>  (159) 
GSK Published Kinase Inhibitor Set

>  <Document Journal>  (159) 
nan

>  <Document Year>  (159) 
nan

>  <Active>  (159) 
0.0

$$$$

     RDKit          2D

 20 22  0  0  0  0  0  0  0  0999 V2000
    4.5000    0.0000    0.0000 N   0  0  0  0  0  0  0  0  0  0  0  0
    3.0000    0.0000    0.0000 C   0  0  0  0  0  0  0  0  0  0  0  0
    1.5000    0.0000    0.0000 C   0  0  0  0  0  0  0  0  0  0  0  0
    0.7500   -1.2990    0.0000 C   0  0  0  0  0  0  0  0  0  0  0  0
   -0.7500   -1.2990    0.0000 C   0  0  0  0  0  0  0  0  0  0  0  0
   -1.5000    0.0000    0.0000 C   0  0  0  0  0  0  0  0  0  0  0  0
   -0.7500    1.2990    0.0000 C   0  0  0  0  0  0  0  0  0  0  0  0
   -1.5000    2.5981    0.0000 N   0  0  0  0  0  0  0  0  0  0  0  0
   -0.7500    3.8971    0.0000 C   0  0  0  0  0  0  0  0  0  0  0  0
   -1.3601    5.2674    0.0000 N   0  0  0  0  0  0  0  0  0  0  0  0
   -0.2454    6.2711    0.0000 C   0  0  0  0  0  0  0  0  0  0  0  0
    1.0537    5.5211    0.0000 C   0  0  0  0  0  0  0  0  0  0  0  0
    2.4240    6.1312    0.0000 C   0  0  0  0  0  0  0  0  0  0  0  0
    3.6375    5.2496    0.0000 C   0  0  0  0  0  0  0  0  0  0  0  0
    5.0078    5.8597    0.0000 C   0  0  0  0  0  0  0  0  0  0  0  0
    5.1646    7.3514    0.0000 C   0  0  0  0  0  0  0  0  0  0  0  0
    3.9511    8.2331    0.0000 C   0  0  0  0  0  0  0  0  0  0  0  0
    2.5808    7.6230    0.0000 C   0  0  0  0  0  0  0  0  0  0  0  0
    0.7418    4.0539    0.0000 O   0  0  0  0  0  0  0  0  0  0  0  0
    0.7500    1.2990    0.0000 C   0  0  0  0  0  0  0  0  0  0  0  0
  1  2  3  0
  2  3  1  0
  3  4  2  0
  4  5  1  0
  5  6  2  0
  6  7  1  0
  7  8  1  0
  8  9  1  0
  9 10  2  0
 10 11  1  0
 11 12  2  0
 12 13  1  0
 13 14  2  0
 14 15  1  0
 15 16  2  0
 16 17  1  0
 17 18  2  0
 12 19  1  0
  7 20  2  0
 20  3  1  0
 19  9  1  0
 18 13  1  0
M  END
>  <Compound_ID>  (160) 
CHEMBL1794061

>  <Molecule Name>  (160) 
GW627834A

>  <Molecular Weight>  (160) 
297.74

>  <AlogP>  (160) 
3.96

>  <Smiles>  (160) 
N#Cc1cccc(Nc2ncc(-c3ccccc3)o2)c1

>  <Standard Type>  (160) 
Inhibition

>  <Standard Relation>  (160) 
'='

>  <Standard Units>  (160) 
%

>  <Standard Value>  (160) 
2.46

>  <Assay ChEMBL ID>  (160) 
CHEMBL1962142

>  <Assay Description>  (160) 
GSK_PKIS: MET mean inhibition at 0.1 uM [Nanosyn]

>  <BAO Format ID>  (160) 
BAO_0000357

>  <BAO Label>  (160) 
single protein format

>  <Assay Organism>  (160) 
None

>  <Target ChEMBL ID>  (160) 
CHEMBL3717

>  <Target Name>  (160) 
Hepatocyte growth factor receptor

>  <Target Organism>  (160) 
Homo sapiens

>  <Target Type>  (160) 
SINGLE PROTEIN

>  <Document ChEMBL ID>  (160) 
CHEMBL1961873

>  <Source Description>  (160) 
GSK Published Kinase Inhibitor Set

>  <Document Journal>  (160) 
nan

>  <Document Year>  (160) 
nan

>  <Active>  (160) 
0.0

$$$$

     RDKit          2D

 24 27  0  0  0  0  0  0  0  0999 V2000
   -7.5900    4.7638    0.0000 C   0  0  0  0  0  0  0  0  0  0  0  0
   -7.9018    3.2966    0.0000 O   0  0  0  0  0  0  0  0  0  0  0  0
   -6.7871    2.2929    0.0000 C   0  0  0  0  0  0  0  0  0  0  0  0
   -5.3605    2.7564    0.0000 C   0  0  0  0  0  0  0  0  0  0  0  0
   -4.2458    1.7527    0.0000 C   0  0  0  0  0  0  0  0  0  0  0  0
   -4.5577    0.2855    0.0000 C   0  0  0  0  0  0  0  0  0  0  0  0
   -5.9843   -0.1781    0.0000 C   0  0  0  0  0  0  0  0  0  0  0  0
   -6.2961   -1.6453    0.0000 N   0  0  0  0  0  0  0  0  0  0  0  0
   -5.1814   -2.6490    0.0000 C   0  0  0  0  0  0  0  0  0  0  0  0
   -5.4933   -4.1162    0.0000 N   0  0  0  0  0  0  0  0  0  0  0  0
   -4.3786   -5.1199    0.0000 C   0  0  0  0  0  0  0  0  0  0  0  0
   -2.9520   -4.6564    0.0000 C   0  0  0  0  0  0  0  0  0  0  0  0
   -2.6401   -3.1891    0.0000 C   0  0  0  0  0  0  0  0  0  0  0  0
   -1.2135   -2.7256    0.0000 C   0  0  0  0  0  0  0  0  0  0  0  0
   -0.0000   -3.6073    0.0000 C   0  0  0  0  0  0  0  0  0  0  0  0
    1.2135   -2.7256    0.0000 N   0  0  0  0  0  0  0  0  0  0  0  0
    0.7500   -1.2990    0.0000 N   0  0  0  0  0  0  0  0  0  0  0  0
    1.5000    0.0000    0.0000 N   0  0  0  0  0  0  0  0  0  0  0  0
    0.7500    1.2990    0.0000 C   0  0  0  0  0  0  0  0  0  0  0  0
   -0.7500    1.2990    0.0000 C   0  0  0  0  0  0  0  0  0  0  0  0
   -1.5000    0.0000    0.0000 C   0  0  0  0  0  0  0  0  0  0  0  0
   -0.7500   -1.2990    0.0000 C   0  0  0  0  0  0  0  0  0  0  0  0
   -3.7548   -2.1855    0.0000 N   0  0  0  0  0  0  0  0  0  0  0  0
   -7.0990    0.8256    0.0000 C   0  0  0  0  0  0  0  0  0  0  0  0
  1  2  1  0
  2  3  1  0
  3  4  2  0
  4  5  1  0
  5  6  2  0
  6  7  1  0
  7  8  1  0
  8  9  1  0
  9 10  2  0
 10 11  1  0
 11 12  2  0
 12 13  1  0
 13 14  1  0
 14 15  1  0
 15 16  2  0
 16 17  1  0
 17 18  1  0
 18 19  2  0
 19 20  1  0
 20 21  2  0
 21 22  1  0
 13 23  2  0
  7 24  2  0
 24  3  1  0
 23  9  1  0
 22 14  2  0
 22 17  1  0
M  END
>  <Compound_ID>  (161) 
CHEMBL187081

>  <Molecule Name>  (161) 
PYRAZOLOPYRIDAZINE 1

>  <Molecular Weight>  (161) 
318.34

>  <AlogP>  (161) 
2.94

>  <Smiles>  (161) 
COc1cccc(Nc2nccc(-c3cnn4ncccc34)n2)c1

>  <Standard Type>  (161) 
Inhibition

>  <Standard Relation>  (161) 
'='

>  <Standard Units>  (161) 
%

>  <Standard Value>  (161) 
12.05

>  <Assay ChEMBL ID>  (161) 
CHEMBL1962143

>  <Assay Description>  (161) 
GSK_PKIS: MET mean inhibition at 1 uM [Nanosyn]

>  <BAO Format ID>  (161) 
BAO_0000357

>  <BAO Label>  (161) 
single protein format

>  <Assay Organism>  (161) 
None

>  <Target ChEMBL ID>  (161) 
CHEMBL3717

>  <Target Name>  (161) 
Hepatocyte growth factor receptor

>  <Target Organism>  (161) 
Homo sapiens

>  <Target Type>  (161) 
SINGLE PROTEIN

>  <Document ChEMBL ID>  (161) 
CHEMBL1961873

>  <Source Description>  (161) 
GSK Published Kinase Inhibitor Set

>  <Document Journal>  (161) 
nan

>  <Document Year>  (161) 
nan

>  <Active>  (161) 
0.0

$$$$

     RDKit          2D

 26 28  0  0  0  0  0  0  0  0999 V2000
   -3.7548   -2.1855    0.0000 C   0  0  0  0  0  0  0  0  0  0  0  0
   -2.6401   -3.1891    0.0000 C   0  0  0  0  0  0  0  0  0  0  0  0
   -1.2135   -2.7256    0.0000 N   0  0  0  0  0  0  0  0  0  0  0  0
   -0.0000   -3.6073    0.0000 C   0  0  0  0  0  0  0  0  0  0  0  0
   -0.0000   -5.1073    0.0000 C   0  0  0  0  0  0  0  0  0  0  0  0
    1.2135   -5.9890    0.0000 N   0  0  0  0  0  0  0  0  0  0  0  0
    0.7500   -7.4156    0.0000 O   0  0  0  0  0  0  0  0  0  0  0  0
   -0.7500   -7.4156    0.0000 N   0  0  0  0  0  0  0  0  0  0  0  0
   -1.2135   -5.9890    0.0000 C   0  0  0  0  0  0  0  0  0  0  0  0
   -2.6401   -5.5255    0.0000 N   0  0  0  0  0  0  0  0  0  0  0  0
    1.2135   -2.7256    0.0000 N   0  0  0  0  0  0  0  0  0  0  0  0
    0.7500   -1.2990    0.0000 C   0  0  0  0  0  0  0  0  0  0  0  0
    1.5000    0.0000    0.0000 C   0  0  0  0  0  0  0  0  0  0  0  0
    3.0000    0.0000    0.0000 C   0  0  0  0  0  0  0  0  0  0  0  0
    4.5000    0.0000    0.0000 C   0  0  0  0  0  0  0  0  0  0  0  0
    6.0000    0.0000    0.0000 C   0  0  0  0  0  0  0  0  0  0  0  0
    6.7500    1.2990    0.0000 N   0  0  0  0  0  0  0  0  0  0  0  0
    0.7500    1.2990    0.0000 N   0  0  0  0  0  0  0  0  0  0  0  0
   -0.7500    1.2990    0.0000 C   0  0  0  0  0  0  0  0  0  0  0  0
   -1.5000    0.0000    0.0000 C   0  0  0  0  0  0  0  0  0  0  0  0
   -3.0000    0.0000    0.0000 O   0  0  0  0  0  0  0  0  0  0  0  0
   -3.7500    1.2990    0.0000 C   0  0  0  0  0  0  0  0  0  0  0  0
   -5.2500    1.2990    0.0000 C   0  0  0  0  0  0  0  0  0  0  0  0
   -6.0000    2.5981    0.0000 C   0  0  0  0  0  0  0  0  0  0  0  0
   -7.5000    2.5981    0.0000 N   0  0  0  0  0  0  0  0  0  0  0  0
   -0.7500   -1.2990    0.0000 C   0  0  0  0  0  0  0  0  0  0  0  0
  1  2  1  0
  2  3  1  0
  3  4  1  0
  4  5  1  0
  5  6  2  0
  6  7  1  0
  7  8  1  0
  8  9  2  0
  9 10  1  0
  4 11  2  0
 11 12  1  0
 12 13  2  0
 13 14  1  0
 14 15  3  0
 15 16  1  0
 16 17  1  0
 13 18  1  0
 18 19  2  0
 19 20  1  0
 20 21  1  0
 21 22  1  0
 22 23  1  0
 23 24  1  0
 24 25  1  0
 20 26  2  0
 26  3  1  0
  9  5  1  0
 26 12  1  0
M  END
>  <Compound_ID>  (162) 
CHEMBL1794064

>  <Molecule Name>  (162) 
GSK-561866B

>  <Molecular Weight>  (162) 
470.41

>  <AlogP>  (162) 
0.12

>  <Smiles>  (162) 
CCn1c(-c2nonc2N)nc2c(C#CCN)ncc(OCCCN)c21

>  <Standard Type>  (162) 
Inhibition

>  <Standard Relation>  (162) 
'='

>  <Standard Units>  (162) 
%

>  <Standard Value>  (162) 
0.78

>  <Assay ChEMBL ID>  (162) 
CHEMBL1962142

>  <Assay Description>  (162) 
GSK_PKIS: MET mean inhibition at 0.1 uM [Nanosyn]

>  <BAO Format ID>  (162) 
BAO_0000357

>  <BAO Label>  (162) 
single protein format

>  <Assay Organism>  (162) 
None

>  <Target ChEMBL ID>  (162) 
CHEMBL3717

>  <Target Name>  (162) 
Hepatocyte growth factor receptor

>  <Target Organism>  (162) 
Homo sapiens

>  <Target Type>  (162) 
SINGLE PROTEIN

>  <Document ChEMBL ID>  (162) 
CHEMBL1961873

>  <Source Description>  (162) 
GSK Published Kinase Inhibitor Set

>  <Document Journal>  (162) 
nan

>  <Document Year>  (162) 
nan

>  <Active>  (162) 
0.0

$$$$

     RDKit          2D

 20 23  0  0  0  0  0  0  0  0999 V2000
   -5.4933   -4.1162    0.0000 C   0  0  0  0  0  0  0  0  0  0  0  0
   -5.1814   -2.6490    0.0000 C   0  0  0  0  0  0  0  0  0  0  0  0
   -3.7548   -2.1855    0.0000 C   0  0  0  0  0  0  0  0  0  0  0  0
   -2.6401   -3.1891    0.0000 C   0  0  0  0  0  0  0  0  0  0  0  0
   -1.2135   -2.7256    0.0000 C   0  0  0  0  0  0  0  0  0  0  0  0
   -0.0000   -3.6073    0.0000 C   0  0  0  0  0  0  0  0  0  0  0  0
    1.2135   -2.7256    0.0000 N   0  0  0  0  0  0  0  0  0  0  0  0
    0.7500   -1.2990    0.0000 C   0  0  0  0  0  0  0  0  0  0  0  0
    1.5000    0.0000    0.0000 C   0  0  0  0  0  0  0  0  0  0  0  0
    0.7500    1.2990    0.0000 N   0  0  0  0  0  0  0  0  0  0  0  0
   -0.7500    1.2990    0.0000 C   0  0  0  0  0  0  0  0  0  0  0  0
   -1.5000    2.5981    0.0000 C   0  0  0  0  0  0  0  0  0  0  0  0
   -2.9918    2.7549    0.0000 C   0  0  0  0  0  0  0  0  0  0  0  0
   -3.3037    4.2221    0.0000 C   0  0  0  0  0  0  0  0  0  0  0  0
   -2.0046    4.9721    0.0000 N   0  0  0  0  0  0  0  0  0  0  0  0
   -0.8899    3.9684    0.0000 N   0  0  0  0  0  0  0  0  0  0  0  0
   -1.5000    0.0000    0.0000 C   0  0  0  0  0  0  0  0  0  0  0  0
   -0.7500   -1.2990    0.0000 N   0  0  0  0  0  0  0  0  0  0  0  0
   -2.9520   -4.6564    0.0000 C   0  0  0  0  0  0  0  0  0  0  0  0
   -4.3786   -5.1199    0.0000 C   0  0  0  0  0  0  0  0  0  0  0  0
  1  2  2  0
  2  3  1  0
  3  4  2  0
  4  5  1  0
  5  6  2  0
  6  7  1  0
  7  8  2  0
  8  9  1  0
  9 10  2  0
 10 11  1  0
 11 12  1  0
 12 13  1  0
 13 14  2  0
 14 15  1  0
 15 16  1  0
 11 17  2  0
 17 18  1  0
  4 19  1  0
 19 20  2  0
 20  1  1  0
 18  5  1  0
 18  8  1  0
 16 12  2  0
M  END
>  <Compound_ID>  (163) 
CHEMBL1170750

>  <Molecule Name>  (163) 
nan

>  <Molecular Weight>  (163) 
261.29

>  <AlogP>  (163) 
2.79

>  <Smiles>  (163) 
c1ccc(-c2cnc3cnc(-c4cc[nH]n4)cn23)cc1

>  <Standard Type>  (163) 
Inhibition

>  <Standard Relation>  (163) 
'='

>  <Standard Units>  (163) 
%

>  <Standard Value>  (163) 
12.0

>  <Assay ChEMBL ID>  (163) 
CHEMBL1173995

>  <Assay Description>  (163) 
Inhibition of MET at 10 uM by mobility shift assay

>  <BAO Format ID>  (163) 
BAO_0000357

>  <BAO Label>  (163) 
single protein format

>  <Assay Organism>  (163) 
None

>  <Target ChEMBL ID>  (163) 
CHEMBL3717

>  <Target Name>  (163) 
Hepatocyte growth factor receptor

>  <Target Organism>  (163) 
Homo sapiens

>  <Target Type>  (163) 
SINGLE PROTEIN

>  <Document ChEMBL ID>  (163) 
CHEMBL1177828

>  <Source Description>  (163) 
Scientific Literature

>  <Document Journal>  (163) 
Bioorg Med Chem Lett

>  <Document Year>  (163) 
2010.0

>  <Active>  (163) 
0.0

$$$$

     RDKit          2D

 26 29  0  0  0  0  0  0  0  0999 V2000
    2.2500   -9.0933    0.0000 C   0  0  0  0  0  0  0  0  0  0  0  0
    3.0000   -7.7942    0.0000 S   0  0  0  0  0  0  0  0  0  0  0  0
    1.7010   -7.0442    0.0000 O   0  0  0  0  0  0  0  0  0  0  0  0
    4.2990   -8.5442    0.0000 O   0  0  0  0  0  0  0  0  0  0  0  0
    3.7500   -6.4952    0.0000 N   0  0  0  0  0  0  0  0  0  0  0  0
    3.0000   -5.1962    0.0000 C   0  0  0  0  0  0  0  0  0  0  0  0
    1.5000   -5.1962    0.0000 C   0  0  0  0  0  0  0  0  0  0  0  0
    0.7500   -3.8971    0.0000 C   0  0  0  0  0  0  0  0  0  0  0  0
    1.5000   -2.5981    0.0000 C   0  0  0  0  0  0  0  0  0  0  0  0
    0.7500   -1.2990    0.0000 C   0  0  0  0  0  0  0  0  0  0  0  0
    1.5000    0.0000    0.0000 C   0  0  0  0  0  0  0  0  0  0  0  0
    0.7500    1.2990    0.0000 C   0  0  0  0  0  0  0  0  0  0  0  0
   -0.7500    1.2990    0.0000 C   0  0  0  0  0  0  0  0  0  0  0  0
   -1.7537    2.4138    0.0000 C   0  0  0  0  0  0  0  0  0  0  0  0
   -1.4418    3.8810    0.0000 N   0  0  0  0  0  0  0  0  0  0  0  0
   -2.5565    4.8847    0.0000 C   0  0  0  0  0  0  0  0  0  0  0  0
   -3.9831    4.4211    0.0000 O   0  0  0  0  0  0  0  0  0  0  0  0
   -2.2447    6.3519    0.0000 C   0  0  0  0  0  0  0  0  0  0  0  0
   -2.7082    7.7785    0.0000 C   0  0  0  0  0  0  0  0  0  0  0  0
   -1.2410    7.4666    0.0000 C   0  0  0  0  0  0  0  0  0  0  0  0
   -3.1240    1.8037    0.0000 N   0  0  0  0  0  0  0  0  0  0  0  0
   -2.9672    0.3119    0.0000 N   0  0  0  0  0  0  0  0  0  0  0  0
   -1.5000    0.0000    0.0000 C   0  0  0  0  0  0  0  0  0  0  0  0
   -0.7500   -1.2990    0.0000 C   0  0  0  0  0  0  0  0  0  0  0  0
    3.0000   -2.5981    0.0000 C   0  0  0  0  0  0  0  0  0  0  0  0
    3.7500   -3.8971    0.0000 C   0  0  0  0  0  0  0  0  0  0  0  0
  1  2  1  0
  2  3  2  0
  2  4  2  0
  2  5  1  0
  5  6  1  0
  6  7  2  0
  7  8  1  0
  8  9  2  0
  9 10  1  0
 10 11  2  0
 11 12  1  0
 12 13  2  0
 13 14  1  0
 14 15  1  0
 15 16  1  0
 16 17  2  0
 16 18  1  0
 18 19  1  0
 19 20  1  0
 14 21  2  0
 21 22  1  0
 22 23  1  0
 23 24  2  0
  9 25  1  0
 25 26  2  0
 26  6  1  0
 24 10  1  0
 23 13  1  0
 20 18  1  0
M  END
>  <Compound_ID>  (164) 
CHEMBL102936

>  <Molecule Name>  (164) 
nan

>  <Molecular Weight>  (164) 
370.43

>  <AlogP>  (164) 
2.95

>  <Smiles>  (164) 
CS(=O)(=O)Nc1ccc(-c2ccc3c(NC(=O)C4CC4)n[nH]c3c2)cc1

>  <Standard Type>  (164) 
Inhibition

>  <Standard Relation>  (164) 
'='

>  <Standard Units>  (164) 
%

>  <Standard Value>  (164) 
-3.22

>  <Assay ChEMBL ID>  (164) 
CHEMBL1962143

>  <Assay Description>  (164) 
GSK_PKIS: MET mean inhibition at 1 uM [Nanosyn]

>  <BAO Format ID>  (164) 
BAO_0000357

>  <BAO Label>  (164) 
single protein format

>  <Assay Organism>  (164) 
None

>  <Target ChEMBL ID>  (164) 
CHEMBL3717

>  <Target Name>  (164) 
Hepatocyte growth factor receptor

>  <Target Organism>  (164) 
Homo sapiens

>  <Target Type>  (164) 
SINGLE PROTEIN

>  <Document ChEMBL ID>  (164) 
CHEMBL1961873

>  <Source Description>  (164) 
GSK Published Kinase Inhibitor Set

>  <Document Journal>  (164) 
nan

>  <Document Year>  (164) 
nan

>  <Active>  (164) 
0.0

$$$$

     RDKit          2D

 32 35  0  0  0  0  0  0  0  0999 V2000
    3.0000    0.0000    0.0000 N   0  0  0  0  0  0  0  0  0  0  0  0
    1.5000    0.0000    0.0000 C   0  0  0  0  0  0  0  0  0  0  0  0
    0.7500   -1.2990    0.0000 N   0  0  0  0  0  0  0  0  0  0  0  0
   -0.7500   -1.2990    0.0000 C   0  0  0  0  0  0  0  0  0  0  0  0
   -1.5000    0.0000    0.0000 C   0  0  0  0  0  0  0  0  0  0  0  0
   -0.7500    1.2990    0.0000 C   0  0  0  0  0  0  0  0  0  0  0  0
   -1.5000    2.5981    0.0000 C   0  0  0  0  0  0  0  0  0  0  0  0
   -2.2500    3.8971    0.0000 C   0  0  0  0  0  0  0  0  0  0  0  0
   -3.0000    5.1962    0.0000 C   0  0  0  0  0  0  0  0  0  0  0  0
   -2.2500    6.4952    0.0000 C   0  0  0  0  0  0  0  0  0  0  0  0
   -3.0000    7.7942    0.0000 N   0  0  0  0  0  0  0  0  0  0  0  0
   -4.5000    7.7942    0.0000 C   0  0  0  0  0  0  0  0  0  0  0  0
   -5.2500    6.4952    0.0000 N   0  0  0  0  0  0  0  0  0  0  0  0
   -4.5000    5.1962    0.0000 C   0  0  0  0  0  0  0  0  0  0  0  0
   -5.2500    3.8971    0.0000 N   0  0  0  0  0  0  0  0  0  0  0  0
   -6.7500    3.8971    0.0000 C   0  0  0  0  0  0  0  0  0  0  0  0
   -7.5000    5.1962    0.0000 C   0  0  0  0  0  0  0  0  0  0  0  0
   -9.0000    5.1962    0.0000 C   0  0  0  0  0  0  0  0  0  0  0  0
   -9.7500    3.8971    0.0000 C   0  0  0  0  0  0  0  0  0  0  0  0
  -11.2500    3.8971    0.0000 O   0  0  0  0  0  0  0  0  0  0  0  0
  -12.0000    5.1962    0.0000 C   0  0  0  0  0  0  0  0  0  0  0  0
  -13.5000    5.1962    0.0000 C   0  0  0  0  0  0  0  0  0  0  0  0
  -14.2500    6.4952    0.0000 C   0  0  0  0  0  0  0  0  0  0  0  0
  -15.7500    6.4952    0.0000 C   0  0  0  0  0  0  0  0  0  0  0  0
  -16.5000    5.1962    0.0000 C   0  0  0  0  0  0  0  0  0  0  0  0
  -15.7500    3.8971    0.0000 C   0  0  0  0  0  0  0  0  0  0  0  0
  -16.5000    2.5981    0.0000 F   0  0  0  0  0  0  0  0  0  0  0  0
  -14.2500    3.8971    0.0000 C   0  0  0  0  0  0  0  0  0  0  0  0
   -9.0000    2.5981    0.0000 C   0  0  0  0  0  0  0  0  0  0  0  0
   -9.7500    1.2990    0.0000 Cl  0  0  0  0  0  0  0  0  0  0  0  0
   -7.5000    2.5981    0.0000 C   0  0  0  0  0  0  0  0  0  0  0  0
    0.7500    1.2990    0.0000 N   0  0  0  0  0  0  0  0  0  0  0  0
  1  2  1  0
  2  3  2  0
  3  4  1  0
  4  5  2  0
  5  6  1  0
  6  7  1  0
  7  8  3  0
  8  9  1  0
  9 10  2  0
 10 11  1  0
 11 12  2  0
 12 13  1  0
 13 14  2  0
 14 15  1  0
 15 16  1  0
 16 17  2  0
 17 18  1  0
 18 19  2  0
 19 20  1  0
 20 21  1  0
 21 22  1  0
 22 23  2  0
 23 24  1  0
 24 25  2  0
 25 26  1  0
 26 27  1  0
 26 28  2  0
 19 29  1  0
 29 30  1  0
 29 31  2  0
  6 32  2  0
 32  2  1  0
 14  9  1  0
 31 16  1  0
 28 22  1  0
M  END
>  <Compound_ID>  (165) 
CHEMBL381604

>  <Molecule Name>  (165) 
GW799251X

>  <Molecular Weight>  (165) 
446.87

>  <AlogP>  (165) 
4.36

>  <Smiles>  (165) 
Nc1nccc(C#Cc2cncnc2Nc2ccc(OCc3cccc(F)c3)c(Cl)c2)n1

>  <Standard Type>  (165) 
Inhibition

>  <Standard Relation>  (165) 
'='

>  <Standard Units>  (165) 
%

>  <Standard Value>  (165) 
4.74

>  <Assay ChEMBL ID>  (165) 
CHEMBL1962142

>  <Assay Description>  (165) 
GSK_PKIS: MET mean inhibition at 0.1 uM [Nanosyn]

>  <BAO Format ID>  (165) 
BAO_0000357

>  <BAO Label>  (165) 
single protein format

>  <Assay Organism>  (165) 
None

>  <Target ChEMBL ID>  (165) 
CHEMBL3717

>  <Target Name>  (165) 
Hepatocyte growth factor receptor

>  <Target Organism>  (165) 
Homo sapiens

>  <Target Type>  (165) 
SINGLE PROTEIN

>  <Document ChEMBL ID>  (165) 
CHEMBL1961873

>  <Source Description>  (165) 
GSK Published Kinase Inhibitor Set

>  <Document Journal>  (165) 
nan

>  <Document Year>  (165) 
nan

>  <Active>  (165) 
0.0

$$$$

     RDKit          2D

 37 40  0  0  0  0  0  0  0  0999 V2000
   -6.2940    7.2357    0.0000 C   0  0  0  0  0  0  0  0  0  0  0  0
   -5.1793    6.2320    0.0000 O   0  0  0  0  0  0  0  0  0  0  0  0
   -3.7527    6.6955    0.0000 C   0  0  0  0  0  0  0  0  0  0  0  0
   -3.4408    8.1628    0.0000 C   0  0  0  0  0  0  0  0  0  0  0  0
   -2.0143    8.6263    0.0000 C   0  0  0  0  0  0  0  0  0  0  0  0
   -1.7024   10.0935    0.0000 C   0  0  0  0  0  0  0  0  0  0  0  0
   -0.8995    7.6226    0.0000 C   0  0  0  0  0  0  0  0  0  0  0  0
    0.5271    8.0861    0.0000 N   0  0  0  0  0  0  0  0  0  0  0  0
    0.8389    9.5533    0.0000 C   0  0  0  0  0  0  0  0  0  0  0  0
   -0.2758   10.5570    0.0000 O   0  0  0  0  0  0  0  0  0  0  0  0
    2.2655   10.0169    0.0000 C   0  0  0  0  0  0  0  0  0  0  0  0
    2.5774   11.4841    0.0000 N   0  0  0  0  0  0  0  0  0  0  0  0
    4.0040   11.9476    0.0000 C   0  0  0  0  0  0  0  0  0  0  0  0
    1.4627   12.4878    0.0000 C   0  0  0  0  0  0  0  0  0  0  0  0
   -1.2114    6.1554    0.0000 C   0  0  0  0  0  0  0  0  0  0  0  0
   -2.6380    5.6918    0.0000 C   0  0  0  0  0  0  0  0  0  0  0  0
   -2.9499    4.2246    0.0000 N   0  0  0  0  0  0  0  0  0  0  0  0
   -1.8351    3.2209    0.0000 C   0  0  0  0  0  0  0  0  0  0  0  0
   -0.4086    3.6844    0.0000 N   0  0  0  0  0  0  0  0  0  0  0  0
    0.7062    2.6807    0.0000 C   0  0  0  0  0  0  0  0  0  0  0  0
    2.1328    3.1443    0.0000 N   0  0  0  0  0  0  0  0  0  0  0  0
    2.4446    4.6115    0.0000 C   0  0  0  0  0  0  0  0  0  0  0  0
    1.3299    5.6152    0.0000 C   0  0  0  0  0  0  0  0  0  0  0  0
    1.6418    7.0824    0.0000 C   0  0  0  0  0  0  0  0  0  0  0  0
    3.0684    7.5459    0.0000 C   0  0  0  0  0  0  0  0  0  0  0  0
    4.1831    6.5422    0.0000 C   0  0  0  0  0  0  0  0  0  0  0  0
    5.6097    7.0058    0.0000 F   0  0  0  0  0  0  0  0  0  0  0  0
    3.8712    5.0750    0.0000 C   0  0  0  0  0  0  0  0  0  0  0  0
    4.9859    4.0713    0.0000 C   0  0  0  0  0  0  0  0  0  0  0  0
    6.4125    4.5348    0.0000 N   0  0  0  0  0  0  0  0  0  0  0  0
    4.6741    2.6041    0.0000 O   0  0  0  0  0  0  0  0  0  0  0  0
    0.3943    1.2135    0.0000 C   0  0  0  0  0  0  0  0  0  0  0  0
    1.2760    0.0000    0.0000 C   0  0  0  0  0  0  0  0  0  0  0  0
    0.3943   -1.2135    0.0000 C   0  0  0  0  0  0  0  0  0  0  0  0
   -1.0323   -0.7500    0.0000 N   0  0  0  0  0  0  0  0  0  0  0  0
   -1.0323    0.7500    0.0000 C   0  0  0  0  0  0  0  0  0  0  0  0
   -2.1470    1.7537    0.0000 N   0  0  0  0  0  0  0  0  0  0  0  0
  1  2  1  0
  2  3  1  0
  3  4  2  0
  4  5  1  0
  5  6  1  0
  5  7  2  0
  7  8  1  0
  8  9  1  0
  9 10  2  0
  9 11  1  0
 11 12  1  0
 12 13  1  0
 12 14  1  0
  7 15  1  0
 15 16  2  0
 16 17  1  0
 17 18  1  0
 18 19  2  0
 19 20  1  0
 20 21  1  0
 21 22  1  0
 22 23  2  0
 23 24  1  0
 24 25  2  0
 25 26  1  0
 26 27  1  0
 26 28  2  0
 28 29  1  0
 29 30  1  0
 29 31  2  0
 20 32  2  0
 32 33  1  0
 33 34  2  0
 34 35  1  0
 35 36  1  0
 36 37  2  0
 16  3  1  0
 37 18  1  0
 28 22  1  0
 36 32  1  0
M  END
>  <Compound_ID>  (166) 
CHEMBL511765

>  <Molecule Name>  (166) 
GSK-2213727A

>  <Molecular Weight>  (166) 
506.54

>  <AlogP>  (166) 
3.50

>  <Smiles>  (166) 
COc1cc(C)c(NC(=O)CN(C)C)cc1Nc1nc(Nc2cccc(F)c2C(N)=O)c2cc[nH]c2n1

>  <Standard Type>  (166) 
Inhibition

>  <Standard Relation>  (166) 
'='

>  <Standard Units>  (166) 
%

>  <Standard Value>  (166) 
3.32

>  <Assay ChEMBL ID>  (166) 
CHEMBL1962142

>  <Assay Description>  (166) 
GSK_PKIS: MET mean inhibition at 0.1 uM [Nanosyn]

>  <BAO Format ID>  (166) 
BAO_0000357

>  <BAO Label>  (166) 
single protein format

>  <Assay Organism>  (166) 
None

>  <Target ChEMBL ID>  (166) 
CHEMBL3717

>  <Target Name>  (166) 
Hepatocyte growth factor receptor

>  <Target Organism>  (166) 
Homo sapiens

>  <Target Type>  (166) 
SINGLE PROTEIN

>  <Document ChEMBL ID>  (166) 
CHEMBL1961873

>  <Source Description>  (166) 
GSK Published Kinase Inhibitor Set

>  <Document Journal>  (166) 
nan

>  <Document Year>  (166) 
nan

>  <Active>  (166) 
0.0

$$$$

     RDKit          2D

 26 29  0  0  0  0  0  0  0  0999 V2000
   -0.0000   -5.1073    0.0000 O   0  0  0  0  0  0  0  0  0  0  0  0
   -0.0000   -3.6073    0.0000 C   0  0  0  0  0  0  0  0  0  0  0  0
    1.2135   -2.7256    0.0000 N   0  0  0  0  0  0  0  0  0  0  0  0
    0.7500   -1.2990    0.0000 C   0  0  0  0  0  0  0  0  0  0  0  0
    1.5000    0.0000    0.0000 C   0  0  0  0  0  0  0  0  0  0  0  0
    0.7500    1.2990    0.0000 C   0  0  0  0  0  0  0  0  0  0  0  0
   -0.7500    1.2990    0.0000 C   0  0  0  0  0  0  0  0  0  0  0  0
   -1.5000    2.5981    0.0000 C   0  0  0  0  0  0  0  0  0  0  0  0
   -0.7500    3.8971    0.0000 C   0  0  0  0  0  0  0  0  0  0  0  0
   -1.5000    5.1962    0.0000 C   0  0  0  0  0  0  0  0  0  0  0  0
   -3.0000    5.1962    0.0000 C   0  0  0  0  0  0  0  0  0  0  0  0
   -3.7500    3.8971    0.0000 N   0  0  0  0  0  0  0  0  0  0  0  0
   -3.0000    2.5981    0.0000 C   0  0  0  0  0  0  0  0  0  0  0  0
   -1.5000    0.0000    0.0000 C   0  0  0  0  0  0  0  0  0  0  0  0
   -0.7500   -1.2990    0.0000 C   0  0  0  0  0  0  0  0  0  0  0  0
   -1.2135   -2.7256    0.0000 C   0  0  0  0  0  0  0  0  0  0  0  0
   -2.6401   -3.1891    0.0000 C   0  0  0  0  0  0  0  0  0  0  0  0
   -2.9520   -4.6564    0.0000 C   0  0  0  0  0  0  0  0  0  0  0  0
   -4.3786   -5.1199    0.0000 C   0  0  0  0  0  0  0  0  0  0  0  0
   -4.6904   -6.5871    0.0000 C   0  0  0  0  0  0  0  0  0  0  0  0
   -6.1170   -7.0506    0.0000 Br  0  0  0  0  0  0  0  0  0  0  0  0
   -3.5757   -7.5908    0.0000 C   0  0  0  0  0  0  0  0  0  0  0  0
   -3.8876   -9.0580    0.0000 O   0  0  0  0  0  0  0  0  0  0  0  0
   -2.1491   -7.1273    0.0000 C   0  0  0  0  0  0  0  0  0  0  0  0
   -1.0344   -8.1310    0.0000 Br  0  0  0  0  0  0  0  0  0  0  0  0
   -1.8373   -5.6601    0.0000 C   0  0  0  0  0  0  0  0  0  0  0  0
  1  2  2  0
  2  3  1  0
  3  4  1  0
  4  5  2  0
  5  6  1  0
  6  7  2  0
  7  8  1  0
  8  9  2  0
  9 10  1  0
 10 11  2  0
 11 12  1  0
 12 13  2  0
  7 14  1  0
 14 15  2  0
 15 16  1  0
 16 17  2  3
 17 18  1  0
 18 19  2  0
 19 20  1  0
 20 21  1  0
 20 22  2  0
 22 23  1  0
 22 24  1  0
 24 25  1  0
 24 26  2  0
 16  2  1  0
 26 18  1  0
 15  4  1  0
 13  8  1  0
M  END
>  <Compound_ID>  (167) 
CHEMBL1794050

>  <Molecule Name>  (167) 
GW429374A

>  <Molecular Weight>  (167) 
508.60

>  <AlogP>  (167) 
5.47

>  <Smiles>  (167) 
O=C1Nc2ccc(-c3cccnc3)cc2C1=Cc1cc(Br)c(O)c(Br)c1

>  <Standard Type>  (167) 
Inhibition

>  <Standard Relation>  (167) 
'='

>  <Standard Units>  (167) 
%

>  <Standard Value>  (167) 
2.89

>  <Assay ChEMBL ID>  (167) 
CHEMBL1962142

>  <Assay Description>  (167) 
GSK_PKIS: MET mean inhibition at 0.1 uM [Nanosyn]

>  <BAO Format ID>  (167) 
BAO_0000357

>  <BAO Label>  (167) 
single protein format

>  <Assay Organism>  (167) 
None

>  <Target ChEMBL ID>  (167) 
CHEMBL3717

>  <Target Name>  (167) 
Hepatocyte growth factor receptor

>  <Target Organism>  (167) 
Homo sapiens

>  <Target Type>  (167) 
SINGLE PROTEIN

>  <Document ChEMBL ID>  (167) 
CHEMBL1961873

>  <Source Description>  (167) 
GSK Published Kinase Inhibitor Set

>  <Document Journal>  (167) 
nan

>  <Document Year>  (167) 
nan

>  <Active>  (167) 
0.0

$$$$

     RDKit          2D

 25 28  0  0  0  0  0  0  0  0999 V2000
   -3.7548   -2.1855    0.0000 C   0  0  0  0  0  0  0  0  0  0  0  0
   -2.6401   -3.1891    0.0000 C   0  0  0  0  0  0  0  0  0  0  0  0
   -1.2135   -2.7256    0.0000 N   0  0  0  0  0  0  0  0  0  0  0  0
   -0.0000   -3.6073    0.0000 C   0  0  0  0  0  0  0  0  0  0  0  0
   -0.0000   -5.1073    0.0000 C   0  0  0  0  0  0  0  0  0  0  0  0
    1.2135   -5.9890    0.0000 N   0  0  0  0  0  0  0  0  0  0  0  0
    0.7500   -7.4156    0.0000 O   0  0  0  0  0  0  0  0  0  0  0  0
   -0.7500   -7.4156    0.0000 N   0  0  0  0  0  0  0  0  0  0  0  0
   -1.2135   -5.9890    0.0000 C   0  0  0  0  0  0  0  0  0  0  0  0
   -2.6401   -5.5255    0.0000 N   0  0  0  0  0  0  0  0  0  0  0  0
    1.2135   -2.7256    0.0000 N   0  0  0  0  0  0  0  0  0  0  0  0
    0.7500   -1.2990    0.0000 C   0  0  0  0  0  0  0  0  0  0  0  0
    1.5000    0.0000    0.0000 C   0  0  0  0  0  0  0  0  0  0  0  0
    0.7500    1.2990    0.0000 N   0  0  0  0  0  0  0  0  0  0  0  0
   -0.7500    1.2990    0.0000 C   0  0  0  0  0  0  0  0  0  0  0  0
   -1.5000    0.0000    0.0000 C   0  0  0  0  0  0  0  0  0  0  0  0
   -3.0000    0.0000    0.0000 C   0  0  0  0  0  0  0  0  0  0  0  0
   -3.7500   -1.2990    0.0000 O   0  0  0  0  0  0  0  0  0  0  0  0
   -3.7500    1.2990    0.0000 N   0  0  0  0  0  0  0  0  0  0  0  0
   -5.2418    1.4558    0.0000 C   0  0  0  0  0  0  0  0  0  0  0  0
   -5.5537    2.9231    0.0000 C   0  0  0  0  0  0  0  0  0  0  0  0
   -4.2546    3.6731    0.0000 C   0  0  0  0  0  0  0  0  0  0  0  0
   -4.0978    5.1648    0.0000 N   0  0  0  0  0  0  0  0  0  0  0  0
   -3.1399    2.6694    0.0000 C   0  0  0  0  0  0  0  0  0  0  0  0
   -0.7500   -1.2990    0.0000 C   0  0  0  0  0  0  0  0  0  0  0  0
  1  2  1  0
  2  3  1  0
  3  4  1  0
  4  5  1  0
  5  6  2  0
  6  7  1  0
  7  8  1  0
  8  9  2  0
  9 10  1  0
  4 11  2  0
 11 12  1  0
 12 13  2  0
 13 14  1  0
 14 15  2  0
 15 16  1  0
 16 17  1  0
 17 18  2  0
 17 19  1  0
 19 20  1  0
 20 21  1  0
 21 22  1  0
 22 23  1  6
 22 24  1  0
 16 25  2  0
 25  3  1  0
  9  5  1  0
 25 12  1  0
 24 19  1  0
M  END
>  <Compound_ID>  (168) 
CHEMBL1909384

>  <Molecule Name>  (168) 
nan

>  <Molecular Weight>  (168) 
378.82

>  <AlogP>  (168) 
0.26

>  <Smiles>  (168) 
CCn1c(-c2nonc2N)nc2cncc(C(=O)N3CC[C@H](N)C3)c21

>  <Standard Type>  (168) 
Inhibition

>  <Standard Relation>  (168) 
'='

>  <Standard Units>  (168) 
%

>  <Standard Value>  (168) 
5.74

>  <Assay ChEMBL ID>  (168) 
CHEMBL1962142

>  <Assay Description>  (168) 
GSK_PKIS: MET mean inhibition at 0.1 uM [Nanosyn]

>  <BAO Format ID>  (168) 
BAO_0000357

>  <BAO Label>  (168) 
single protein format

>  <Assay Organism>  (168) 
None

>  <Target ChEMBL ID>  (168) 
CHEMBL3717

>  <Target Name>  (168) 
Hepatocyte growth factor receptor

>  <Target Organism>  (168) 
Homo sapiens

>  <Target Type>  (168) 
SINGLE PROTEIN

>  <Document ChEMBL ID>  (168) 
CHEMBL1961873

>  <Source Description>  (168) 
GSK Published Kinase Inhibitor Set

>  <Document Journal>  (168) 
nan

>  <Document Year>  (168) 
nan

>  <Active>  (168) 
0.0

$$$$

     RDKit          2D

 18 20  0  0  0  0  0  0  0  0999 V2000
   -3.7548   -2.1855    0.0000 C   0  0  0  0  0  0  0  0  0  0  0  0
   -2.6401   -3.1891    0.0000 C   0  0  0  0  0  0  0  0  0  0  0  0
   -1.2135   -2.7256    0.0000 N   0  0  0  0  0  0  0  0  0  0  0  0
   -0.0000   -3.6073    0.0000 C   0  0  0  0  0  0  0  0  0  0  0  0
   -0.0000   -5.1073    0.0000 C   0  0  0  0  0  0  0  0  0  0  0  0
    1.2135   -5.9890    0.0000 N   0  0  0  0  0  0  0  0  0  0  0  0
    0.7500   -7.4156    0.0000 O   0  0  0  0  0  0  0  0  0  0  0  0
   -0.7500   -7.4156    0.0000 N   0  0  0  0  0  0  0  0  0  0  0  0
   -1.2135   -5.9890    0.0000 C   0  0  0  0  0  0  0  0  0  0  0  0
   -2.6401   -5.5255    0.0000 N   0  0  0  0  0  0  0  0  0  0  0  0
    1.2135   -2.7256    0.0000 N   0  0  0  0  0  0  0  0  0  0  0  0
    0.7500   -1.2990    0.0000 C   0  0  0  0  0  0  0  0  0  0  0  0
    1.5000    0.0000    0.0000 C   0  0  0  0  0  0  0  0  0  0  0  0
    0.7500    1.2990    0.0000 C   0  0  0  0  0  0  0  0  0  0  0  0
   -0.7500    1.2990    0.0000 C   0  0  0  0  0  0  0  0  0  0  0  0
   -1.5000    2.5981    0.0000 F   0  0  0  0  0  0  0  0  0  0  0  0
   -1.5000    0.0000    0.0000 C   0  0  0  0  0  0  0  0  0  0  0  0
   -0.7500   -1.2990    0.0000 C   0  0  0  0  0  0  0  0  0  0  0  0
  1  2  1  0
  2  3  1  0
  3  4  1  0
  4  5  1  0
  5  6  2  0
  6  7  1  0
  7  8  1  0
  8  9  2  0
  9 10  1  0
  4 11  2  0
 11 12  1  0
 12 13  2  0
 13 14  1  0
 14 15  2  0
 15 16  1  0
 15 17  1  0
 17 18  2  0
 18  3  1  0
  9  5  1  0
 18 12  1  0
M  END
>  <Compound_ID>  (169) 
CHEMBL426800

>  <Molecule Name>  (169) 
GW785404X

>  <Molecular Weight>  (169) 
247.23

>  <AlogP>  (169) 
1.83

>  <Smiles>  (169) 
CCn1c(-c2nonc2N)nc2ccc(F)cc21

>  <Standard Type>  (169) 
Inhibition

>  <Standard Relation>  (169) 
'='

>  <Standard Units>  (169) 
%

>  <Standard Value>  (169) 
9.65

>  <Assay ChEMBL ID>  (169) 
CHEMBL1962143

>  <Assay Description>  (169) 
GSK_PKIS: MET mean inhibition at 1 uM [Nanosyn]

>  <BAO Format ID>  (169) 
BAO_0000357

>  <BAO Label>  (169) 
single protein format

>  <Assay Organism>  (169) 
None

>  <Target ChEMBL ID>  (169) 
CHEMBL3717

>  <Target Name>  (169) 
Hepatocyte growth factor receptor

>  <Target Organism>  (169) 
Homo sapiens

>  <Target Type>  (169) 
SINGLE PROTEIN

>  <Document ChEMBL ID>  (169) 
CHEMBL1961873

>  <Source Description>  (169) 
GSK Published Kinase Inhibitor Set

>  <Document Journal>  (169) 
nan

>  <Document Year>  (169) 
nan

>  <Active>  (169) 
0.0

$$$$

     RDKit          2D

 33 36  0  0  0  0  0  0  0  0999 V2000
   -3.7548   -2.1855    0.0000 C   0  0  0  0  0  0  0  0  0  0  0  0
   -2.6401   -3.1891    0.0000 C   0  0  0  0  0  0  0  0  0  0  0  0
   -1.2135   -2.7256    0.0000 N   0  0  0  0  0  0  0  0  0  0  0  0
   -0.0000   -3.6073    0.0000 C   0  0  0  0  0  0  0  0  0  0  0  0
   -0.0000   -5.1073    0.0000 C   0  0  0  0  0  0  0  0  0  0  0  0
    1.2135   -5.9890    0.0000 N   0  0  0  0  0  0  0  0  0  0  0  0
    0.7500   -7.4156    0.0000 O   0  0  0  0  0  0  0  0  0  0  0  0
   -0.7500   -7.4156    0.0000 N   0  0  0  0  0  0  0  0  0  0  0  0
   -1.2135   -5.9890    0.0000 C   0  0  0  0  0  0  0  0  0  0  0  0
   -2.6401   -5.5255    0.0000 N   0  0  0  0  0  0  0  0  0  0  0  0
    1.2135   -2.7256    0.0000 N   0  0  0  0  0  0  0  0  0  0  0  0
    0.7500   -1.2990    0.0000 C   0  0  0  0  0  0  0  0  0  0  0  0
    1.5000    0.0000    0.0000 C   0  0  0  0  0  0  0  0  0  0  0  0
    3.0000    0.0000    0.0000 C   0  0  0  0  0  0  0  0  0  0  0  0
    4.5000    0.0000    0.0000 C   0  0  0  0  0  0  0  0  0  0  0  0
    6.0000    0.0000    0.0000 C   0  0  0  0  0  0  0  0  0  0  0  0
    6.0000   -1.5000    0.0000 C   0  0  0  0  0  0  0  0  0  0  0  0
    6.0000    1.5000    0.0000 C   0  0  0  0  0  0  0  0  0  0  0  0
    7.5000    0.0000    0.0000 O   0  0  0  0  0  0  0  0  0  0  0  0
    0.7500    1.2990    0.0000 N   0  0  0  0  0  0  0  0  0  0  0  0
   -0.7500    1.2990    0.0000 C   0  0  0  0  0  0  0  0  0  0  0  0
   -1.5000    2.5981    0.0000 O   0  0  0  0  0  0  0  0  0  0  0  0
   -0.7500    3.8971    0.0000 C   0  0  0  0  0  0  0  0  0  0  0  0
    0.7500    3.8971    0.0000 C   0  0  0  0  0  0  0  0  0  0  0  0
    1.5000    5.1962    0.0000 N   0  0  0  0  0  0  0  0  0  0  0  0
   -1.5000    5.1962    0.0000 C   0  0  0  0  0  0  0  0  0  0  0  0
   -0.7500    6.4952    0.0000 C   0  0  0  0  0  0  0  0  0  0  0  0
   -1.5000    7.7942    0.0000 C   0  0  0  0  0  0  0  0  0  0  0  0
   -3.0000    7.7942    0.0000 C   0  0  0  0  0  0  0  0  0  0  0  0
   -3.7500    6.4952    0.0000 C   0  0  0  0  0  0  0  0  0  0  0  0
   -3.0000    5.1962    0.0000 C   0  0  0  0  0  0  0  0  0  0  0  0
   -1.5000    0.0000    0.0000 C   0  0  0  0  0  0  0  0  0  0  0  0
   -0.7500   -1.2990    0.0000 C   0  0  0  0  0  0  0  0  0  0  0  0
  1  2  1  0
  2  3  1  0
  3  4  1  0
  4  5  1  0
  5  6  2  0
  6  7  1  0
  7  8  1  0
  8  9  2  0
  9 10  1  0
  4 11  2  0
 11 12  1  0
 12 13  2  0
 13 14  1  0
 14 15  3  0
 15 16  1  0
 16 17  1  0
 16 18  1  0
 16 19  1  0
 13 20  1  0
 20 21  2  0
 21 22  1  0
 22 23  1  0
 23 24  1  6
 24 25  1  0
 23 26  1  0
 26 27  2  0
 27 28  1  0
 28 29  2  0
 29 30  1  0
 30 31  2  0
 21 32  1  0
 32 33  2  0
 33  3  1  0
  9  5  1  0
 33 12  1  0
 31 26  1  0
M  END
>  <Compound_ID>  (170) 
CHEMBL1909349

>  <Molecule Name>  (170) 
GSK-1007102B

>  <Molecular Weight>  (170) 
561.52

>  <AlogP>  (170) 
2.28

>  <Smiles>  (170) 
CCn1c(-c2nonc2N)nc2c(C#CC(C)(C)O)nc(O[C@@H](CN)c3ccccc3)cc21

>  <Standard Type>  (170) 
Inhibition

>  <Standard Relation>  (170) 
'='

>  <Standard Units>  (170) 
%

>  <Standard Value>  (170) 
-0.12

>  <Assay ChEMBL ID>  (170) 
CHEMBL1962143

>  <Assay Description>  (170) 
GSK_PKIS: MET mean inhibition at 1 uM [Nanosyn]

>  <BAO Format ID>  (170) 
BAO_0000357

>  <BAO Label>  (170) 
single protein format

>  <Assay Organism>  (170) 
None

>  <Target ChEMBL ID>  (170) 
CHEMBL3717

>  <Target Name>  (170) 
Hepatocyte growth factor receptor

>  <Target Organism>  (170) 
Homo sapiens

>  <Target Type>  (170) 
SINGLE PROTEIN

>  <Document ChEMBL ID>  (170) 
CHEMBL1961873

>  <Source Description>  (170) 
GSK Published Kinase Inhibitor Set

>  <Document Journal>  (170) 
nan

>  <Document Year>  (170) 
nan

>  <Active>  (170) 
0.0

$$$$

     RDKit          2D

 21 24  0  0  0  0  0  0  0  0999 V2000
   -2.8864    8.8834    0.0000 F   0  0  0  0  0  0  0  0  0  0  0  0
   -2.4229    7.4568    0.0000 C   0  0  0  0  0  0  0  0  0  0  0  0
   -0.9556    7.1449    0.0000 C   0  0  0  0  0  0  0  0  0  0  0  0
   -0.4921    5.7184    0.0000 C   0  0  0  0  0  0  0  0  0  0  0  0
   -1.4958    4.6036    0.0000 C   0  0  0  0  0  0  0  0  0  0  0  0
   -1.0323    3.1771    0.0000 C   0  0  0  0  0  0  0  0  0  0  0  0
   -1.9140    1.9635    0.0000 N   0  0  0  0  0  0  0  0  0  0  0  0
   -1.0323    0.7500    0.0000 C   0  0  0  0  0  0  0  0  0  0  0  0
    0.3943    1.2135    0.0000 N   0  0  0  0  0  0  0  0  0  0  0  0
    0.3943    2.7135    0.0000 C   0  0  0  0  0  0  0  0  0  0  0  0
    1.6078    3.5952    0.0000 C   0  0  0  0  0  0  0  0  0  0  0  0
    2.9781    2.9851    0.0000 C   0  0  0  0  0  0  0  0  0  0  0  0
    4.1917    3.8668    0.0000 C   0  0  0  0  0  0  0  0  0  0  0  0
    4.0349    5.3586    0.0000 N   0  0  0  0  0  0  0  0  0  0  0  0
    2.6646    5.9687    0.0000 C   0  0  0  0  0  0  0  0  0  0  0  0
    1.4510    5.0870    0.0000 C   0  0  0  0  0  0  0  0  0  0  0  0
    1.2760    0.0000    0.0000 C   0  0  0  0  0  0  0  0  0  0  0  0
    0.3943   -1.2135    0.0000 C   0  0  0  0  0  0  0  0  0  0  0  0
   -1.0323   -0.7500    0.0000 S   0  0  0  0  0  0  0  0  0  0  0  0
   -2.9630    4.9155    0.0000 C   0  0  0  0  0  0  0  0  0  0  0  0
   -3.4266    6.3421    0.0000 C   0  0  0  0  0  0  0  0  0  0  0  0
  1  2  1  0
  2  3  2  0
  3  4  1  0
  4  5  2  0
  5  6  1  0
  6  7  1  0
  7  8  2  0
  8  9  1  0
  9 10  1  0
 10 11  1  0
 11 12  2  0
 12 13  1  0
 13 14  2  0
 14 15  1  0
 15 16  2  0
  9 17  1  0
 17 18  1  0
 18 19  1  0
  5 20  1  0
 20 21  2  0
 21  2  1  0
 10  6  2  0
 16 11  1  0
 19  8  1  0
M  END
>  <Compound_ID>  (171) 
CHEMBL1909406

>  <Molecule Name>  (171) 
nan

>  <Molecular Weight>  (171) 
333.82

>  <AlogP>  (171) 
3.86

>  <Smiles>  (171) 
Fc1ccc(-c2nc3n(c2-c2ccncc2)CCS3)cc1

>  <Standard Type>  (171) 
Inhibition

>  <Standard Relation>  (171) 
'='

>  <Standard Units>  (171) 
%

>  <Standard Value>  (171) 
5.29

>  <Assay ChEMBL ID>  (171) 
CHEMBL1962143

>  <Assay Description>  (171) 
GSK_PKIS: MET mean inhibition at 1 uM [Nanosyn]

>  <BAO Format ID>  (171) 
BAO_0000357

>  <BAO Label>  (171) 
single protein format

>  <Assay Organism>  (171) 
None

>  <Target ChEMBL ID>  (171) 
CHEMBL3717

>  <Target Name>  (171) 
Hepatocyte growth factor receptor

>  <Target Organism>  (171) 
Homo sapiens

>  <Target Type>  (171) 
SINGLE PROTEIN

>  <Document ChEMBL ID>  (171) 
CHEMBL1961873

>  <Source Description>  (171) 
GSK Published Kinase Inhibitor Set

>  <Document Journal>  (171) 
nan

>  <Document Year>  (171) 
nan

>  <Active>  (171) 
0.0

$$$$

     RDKit          2D

 36 40  0  0  0  0  0  0  0  0999 V2000
    3.0000  -15.5885    0.0000 N   0  0  0  0  0  0  0  0  0  0  0  0
    3.7500  -14.2894    0.0000 C   0  0  0  0  0  0  0  0  0  0  0  0
    3.0000  -12.9904    0.0000 C   0  0  0  0  0  0  0  0  0  0  0  0
    3.7500  -11.6913    0.0000 C   0  0  0  0  0  0  0  0  0  0  0  0
    5.2500  -11.6913    0.0000 C   0  0  0  0  0  0  0  0  0  0  0  0
    6.0000  -10.3923    0.0000 C   0  0  0  0  0  0  0  0  0  0  0  0
    5.2500   -9.0933    0.0000 C   0  0  0  0  0  0  0  0  0  0  0  0
    6.0000   -7.7942    0.0000 C   0  0  0  0  0  0  0  0  0  0  0  0
    5.2500   -6.4952    0.0000 C   0  0  0  0  0  0  0  0  0  0  0  0
    3.7500   -6.4952    0.0000 C   0  0  0  0  0  0  0  0  0  0  0  0
    3.0000   -5.1962    0.0000 N   0  0  0  0  0  0  0  0  0  0  0  0
    1.5000   -5.1962    0.0000 C   0  0  0  0  0  0  0  0  0  0  0  0
    0.7500   -6.4952    0.0000 C   0  0  0  0  0  0  0  0  0  0  0  0
   -0.7500   -6.4952    0.0000 C   0  0  0  0  0  0  0  0  0  0  0  0
   -1.5000   -7.7942    0.0000 S   0  0  0  0  0  0  0  0  0  0  0  0
   -0.2010   -8.5442    0.0000 O   0  0  0  0  0  0  0  0  0  0  0  0
   -2.7990   -7.0442    0.0000 O   0  0  0  0  0  0  0  0  0  0  0  0
   -2.2500   -9.0933    0.0000 O   0  0  0  0  0  1  0  0  0  0  0  0
   -1.5000   -5.1962    0.0000 C   0  0  0  0  0  0  0  0  0  0  0  0
   -3.0000   -5.1962    0.0000 N   0  0  0  0  0  0  0  0  0  0  0  0
   -0.7500   -3.8971    0.0000 C   0  0  0  0  0  0  0  0  0  0  0  0
    0.7500   -3.8971    0.0000 C   0  0  0  0  0  0  0  0  0  0  0  0
    1.5000   -2.5981    0.0000 C   0  0  0  0  0  0  0  0  0  0  0  0
    3.0000   -2.5981    0.0000 O   0  0  0  0  0  0  0  0  0  0  0  0
    0.7500   -1.2990    0.0000 C   0  0  0  0  0  0  0  0  0  0  0  0
    1.5000    0.0000    0.0000 C   0  0  0  0  0  0  0  0  0  0  0  0
    0.7500    1.2990    0.0000 C   0  0  0  0  0  0  0  0  0  0  0  0
   -0.7500    1.2990    0.0000 C   0  0  0  0  0  0  0  0  0  0  0  0
   -1.5000    0.0000    0.0000 C   0  0  0  0  0  0  0  0  0  0  0  0
   -0.7500   -1.2990    0.0000 C   0  0  0  0  0  0  0  0  0  0  0  0
   -1.5000   -2.5981    0.0000 C   0  0  0  0  0  0  0  0  0  0  0  0
   -3.0000   -2.5981    0.0000 O   0  0  0  0  0  0  0  0  0  0  0  0
    3.0000   -7.7942    0.0000 C   0  0  0  0  0  0  0  0  0  0  0  0
    3.7500   -9.0933    0.0000 C   0  0  0  0  0  0  0  0  0  0  0  0
    6.0000  -12.9904    0.0000 C   0  0  0  0  0  0  0  0  0  0  0  0
    5.2500  -14.2894    0.0000 C   0  0  0  0  0  0  0  0  0  0  0  0
  1  2  1  0
  2  3  2  0
  3  4  1  0
  4  5  2  0
  5  6  1  0
  6  7  1  0
  7  8  2  0
  8  9  1  0
  9 10  2  0
 10 11  1  0
 11 12  1  0
 12 13  2  0
 13 14  1  0
 14 15  1  0
 15 16  2  0
 15 17  2  0
 15 18  1  0
 14 19  2  0
 19 20  1  0
 19 21  1  0
 21 22  2  0
 22 23  1  0
 23 24  2  0
 23 25  1  0
 25 26  2  0
 26 27  1  0
 27 28  2  0
 28 29  1  0
 29 30  2  0
 30 31  1  0
 31 32  2  0
 10 33  1  0
 33 34  2  0
  5 35  1  0
 35 36  2  0
 36  2  1  0
 34  7  1  0
 22 12  1  0
 30 25  1  0
 31 21  1  0
M  CHG  1  18  -1
M  END
>  <Compound_ID>  (172) 
CHEMBL2337897

>  <Molecule Name>  (172) 
nan

>  <Molecular Weight>  (172) 
521.53

>  <AlogP>  (172) 
4.21

>  <Smiles>  (172) 
Nc1ccc(Cc2ccc(Nc3cc(S(=O)(=O)[O-])c(N)c4c3C(=O)c3ccccc3C4=O)cc2)cc1

>  <Standard Type>  (172) 
Inhibition

>  <Standard Relation>  (172) 
'='

>  <Standard Units>  (172) 
%

>  <Standard Value>  (172) 
11.4

>  <Assay ChEMBL ID>  (172) 
CHEMBL2340058

>  <Assay Description>  (172) 
Inhibition of c-Met (unknown origin) using Poly(Glu,Tyr) at 4:1 ratio as substrate at 10 uM preincubated with substrate prior to enzyme addition measured after 60 mins by ELISA

>  <BAO Format ID>  (172) 
BAO_0000357

>  <BAO Label>  (172) 
single protein format

>  <Assay Organism>  (172) 
Homo sapiens

>  <Target ChEMBL ID>  (172) 
CHEMBL3717

>  <Target Name>  (172) 
Hepatocyte growth factor receptor

>  <Target Organism>  (172) 
Homo sapiens

>  <Target Type>  (172) 
SINGLE PROTEIN

>  <Document ChEMBL ID>  (172) 
CHEMBL2331125

>  <Source Description>  (172) 
Scientific Literature

>  <Document Journal>  (172) 
ACS Med Chem Lett

>  <Document Year>  (172) 
2013.0

>  <Active>  (172) 
0.0

$$$$

     RDKit          2D

 57 64  0  0  0  0  0  0  0  0999 V2000
    3.0000   -5.1962    0.0000 N   0  0  0  0  0  0  0  0  0  0  0  0
    1.5000   -5.1962    0.0000 C   0  0  0  0  0  0  0  0  0  0  0  0
    0.7500   -6.4952    0.0000 C   0  0  0  0  0  0  0  0  0  0  0  0
    1.5000   -7.7942    0.0000 S   0  0  0  0  0  0  0  0  0  0  0  0
    0.2010   -8.5442    0.0000 O   0  0  0  0  0  0  0  0  0  0  0  0
    2.7990   -7.0442    0.0000 O   0  0  0  0  0  0  0  0  0  0  0  0
    2.2500   -9.0933    0.0000 O   0  0  0  0  0  1  0  0  0  0  0  0
   -0.7500   -6.4952    0.0000 C   0  0  0  0  0  0  0  0  0  0  0  0
   -1.5000   -5.1962    0.0000 C   0  0  0  0  0  0  0  0  0  0  0  0
   -3.0000   -5.1962    0.0000 N   0  0  0  0  0  0  0  0  0  0  0  0
   -3.7500   -6.4952    0.0000 C   0  0  0  0  0  0  0  0  0  0  0  0
   -5.2500   -6.4952    0.0000 C   0  0  0  0  0  0  0  0  0  0  0  0
   -6.0000   -7.7942    0.0000 C   0  0  0  0  0  0  0  0  0  0  0  0
   -5.2500   -9.0933    0.0000 C   0  0  0  0  0  0  0  0  0  0  0  0
   -6.0000  -10.3923    0.0000 O   0  0  0  0  0  0  0  0  0  0  0  0
   -7.5000  -10.3923    0.0000 C   0  0  0  0  0  0  0  0  0  0  0  0
   -8.2500   -9.0933    0.0000 C   0  0  0  0  0  0  0  0  0  0  0  0
   -9.7500   -9.0933    0.0000 C   0  0  0  0  0  0  0  0  0  0  0  0
  -10.5000  -10.3923    0.0000 C   0  0  0  0  0  0  0  0  0  0  0  0
  -12.0000  -10.3923    0.0000 N   0  0  0  0  0  0  0  0  0  0  0  0
  -12.7500   -9.0933    0.0000 C   0  0  0  0  0  0  0  0  0  0  0  0
  -12.0000   -7.7942    0.0000 C   0  0  0  0  0  0  0  0  0  0  0  0
  -12.7500   -6.4952    0.0000 C   0  0  0  0  0  0  0  0  0  0  0  0
  -12.0000   -5.1962    0.0000 S   0  0  0  0  0  0  0  0  0  0  0  0
  -10.7010   -5.9462    0.0000 O   0  0  0  0  0  0  0  0  0  0  0  0
  -13.2990   -4.4462    0.0000 O   0  0  0  0  0  0  0  0  0  0  0  0
  -11.2500   -3.8971    0.0000 O   0  0  0  0  0  1  0  0  0  0  0  0
  -14.2500   -6.4952    0.0000 C   0  0  0  0  0  0  0  0  0  0  0  0
  -15.0000   -5.1962    0.0000 N   0  0  0  0  0  0  0  0  0  0  0  0
  -15.0000   -7.7942    0.0000 C   0  0  0  0  0  0  0  0  0  0  0  0
  -14.2500   -9.0933    0.0000 C   0  0  0  0  0  0  0  0  0  0  0  0
  -15.0000  -10.3923    0.0000 C   0  0  0  0  0  0  0  0  0  0  0  0
  -14.2500  -11.6913    0.0000 O   0  0  0  0  0  0  0  0  0  0  0  0
  -16.5000  -10.3923    0.0000 C   0  0  0  0  0  0  0  0  0  0  0  0
  -17.2500  -11.6913    0.0000 C   0  0  0  0  0  0  0  0  0  0  0  0
  -18.7500  -11.6913    0.0000 C   0  0  0  0  0  0  0  0  0  0  0  0
  -19.5000  -10.3923    0.0000 C   0  0  0  0  0  0  0  0  0  0  0  0
  -18.7500   -9.0933    0.0000 C   0  0  0  0  0  0  0  0  0  0  0  0
  -17.2500   -9.0933    0.0000 C   0  0  0  0  0  0  0  0  0  0  0  0
  -16.5000   -7.7942    0.0000 C   0  0  0  0  0  0  0  0  0  0  0  0
  -17.2500   -6.4952    0.0000 O   0  0  0  0  0  0  0  0  0  0  0  0
   -9.7500  -11.6913    0.0000 C   0  0  0  0  0  0  0  0  0  0  0  0
   -8.2500  -11.6913    0.0000 C   0  0  0  0  0  0  0  0  0  0  0  0
   -3.7500   -9.0933    0.0000 C   0  0  0  0  0  0  0  0  0  0  0  0
   -3.0000   -7.7942    0.0000 C   0  0  0  0  0  0  0  0  0  0  0  0
   -0.7500   -3.8971    0.0000 C   0  0  0  0  0  0  0  0  0  0  0  0
    0.7500   -3.8971    0.0000 C   0  0  0  0  0  0  0  0  0  0  0  0
    1.5000   -2.5981    0.0000 C   0  0  0  0  0  0  0  0  0  0  0  0
    3.0000   -2.5981    0.0000 O   0  0  0  0  0  0  0  0  0  0  0  0
    0.7500   -1.2990    0.0000 C   0  0  0  0  0  0  0  0  0  0  0  0
    1.5000    0.0000    0.0000 C   0  0  0  0  0  0  0  0  0  0  0  0
    0.7500    1.2990    0.0000 C   0  0  0  0  0  0  0  0  0  0  0  0
   -0.7500    1.2990    0.0000 C   0  0  0  0  0  0  0  0  0  0  0  0
   -1.5000    0.0000    0.0000 C   0  0  0  0  0  0  0  0  0  0  0  0
   -0.7500   -1.2990    0.0000 C   0  0  0  0  0  0  0  0  0  0  0  0
   -1.5000   -2.5981    0.0000 C   0  0  0  0  0  0  0  0  0  0  0  0
   -3.0000   -2.5981    0.0000 O   0  0  0  0  0  0  0  0  0  0  0  0
  1  2  1  0
  2  3  2  0
  3  4  1  0
  4  5  2  0
  4  6  2  0
  4  7  1  0
  3  8  1  0
  8  9  2  0
  9 10  1  0
 10 11  1  0
 11 12  2  0
 12 13  1  0
 13 14  2  0
 14 15  1  0
 15 16  1  0
 16 17  2  0
 17 18  1  0
 18 19  2  0
 19 20  1  0
 20 21  1  0
 21 22  2  0
 22 23  1  0
 23 24  1  0
 24 25  2  0
 24 26  2  0
 24 27  1  0
 23 28  2  0
 28 29  1  0
 28 30  1  0
 30 31  2  0
 31 32  1  0
 32 33  2  0
 32 34  1  0
 34 35  2  0
 35 36  1  0
 36 37  2  0
 37 38  1  0
 38 39  2  0
 39 40  1  0
 40 41  2  0
 19 42  1  0
 42 43  2  0
 14 44  1  0
 44 45  2  0
  9 46  1  0
 46 47  2  0
 47 48  1  0
 48 49  2  0
 48 50  1  0
 50 51  2  0
 51 52  1  0
 52 53  2  0
 53 54  1  0
 54 55  2  0
 55 56  1  0
 56 57  2  0
 47  2  1  0
 55 50  1  0
 45 11  1  0
 56 46  1  0
 43 16  1  0
 31 21  1  0
 39 34  1  0
 40 30  1  0
M  CHG  2   7  -1  27  -1
M  END
>  <Compound_ID>  (173) 
CHEMBL2337906

>  <Molecule Name>  (173) 
nan

>  <Molecular Weight>  (173) 
846.76

>  <AlogP>  (173) 
6.17

>  <Smiles>  (173) 
Nc1c(S(=O)(=O)[O-])cc(Nc2ccc(Oc3ccc(Nc4cc(S(=O)(=O)[O-])c(N)c5c4C(=O)c4ccccc4C5=O)cc3)cc2)c2c1C(=O)c1ccccc1C2=O

>  <Standard Type>  (173) 
Inhibition

>  <Standard Relation>  (173) 
'='

>  <Standard Units>  (173) 
%

>  <Standard Value>  (173) 
8.7

>  <Assay ChEMBL ID>  (173) 
CHEMBL2340058

>  <Assay Description>  (173) 
Inhibition of c-Met (unknown origin) using Poly(Glu,Tyr) at 4:1 ratio as substrate at 10 uM preincubated with substrate prior to enzyme addition measured after 60 mins by ELISA

>  <BAO Format ID>  (173) 
BAO_0000357

>  <BAO Label>  (173) 
single protein format

>  <Assay Organism>  (173) 
Homo sapiens

>  <Target ChEMBL ID>  (173) 
CHEMBL3717

>  <Target Name>  (173) 
Hepatocyte growth factor receptor

>  <Target Organism>  (173) 
Homo sapiens

>  <Target Type>  (173) 
SINGLE PROTEIN

>  <Document ChEMBL ID>  (173) 
CHEMBL2331125

>  <Source Description>  (173) 
Scientific Literature

>  <Document Journal>  (173) 
ACS Med Chem Lett

>  <Document Year>  (173) 
2013.0

>  <Active>  (173) 
0.0

$$$$

     RDKit          2D

 37 41  0  0  0  0  0  0  0  0999 V2000
    8.2500  -16.8875    0.0000 N   0  0  0  0  0  0  0  0  0  0  0  0
    7.5000  -15.5885    0.0000 C   0  0  0  0  0  0  0  0  0  0  0  0
    6.0000  -15.5885    0.0000 C   0  0  0  0  0  0  0  0  0  0  0  0
    5.2500  -14.2894    0.0000 C   0  0  0  0  0  0  0  0  0  0  0  0
    6.0000  -12.9904    0.0000 C   0  0  0  0  0  0  0  0  0  0  0  0
    5.2500  -11.6913    0.0000 C   0  0  0  0  0  0  0  0  0  0  0  0
    6.0000  -10.3923    0.0000 C   0  0  0  0  0  0  0  0  0  0  0  0
    5.2500   -9.0933    0.0000 C   0  0  0  0  0  0  0  0  0  0  0  0
    6.0000   -7.7942    0.0000 C   0  0  0  0  0  0  0  0  0  0  0  0
    5.2500   -6.4952    0.0000 C   0  0  0  0  0  0  0  0  0  0  0  0
    3.7500   -6.4952    0.0000 C   0  0  0  0  0  0  0  0  0  0  0  0
    3.0000   -5.1962    0.0000 N   0  0  0  0  0  0  0  0  0  0  0  0
    1.5000   -5.1962    0.0000 C   0  0  0  0  0  0  0  0  0  0  0  0
    0.7500   -6.4952    0.0000 C   0  0  0  0  0  0  0  0  0  0  0  0
   -0.7500   -6.4952    0.0000 C   0  0  0  0  0  0  0  0  0  0  0  0
   -1.5000   -7.7942    0.0000 S   0  0  0  0  0  0  0  0  0  0  0  0
   -0.2010   -8.5442    0.0000 O   0  0  0  0  0  0  0  0  0  0  0  0
   -2.7990   -7.0442    0.0000 O   0  0  0  0  0  0  0  0  0  0  0  0
   -2.2500   -9.0933    0.0000 O   0  0  0  0  0  1  0  0  0  0  0  0
   -1.5000   -5.1962    0.0000 C   0  0  0  0  0  0  0  0  0  0  0  0
   -3.0000   -5.1962    0.0000 N   0  0  0  0  0  0  0  0  0  0  0  0
   -0.7500   -3.8971    0.0000 C   0  0  0  0  0  0  0  0  0  0  0  0
    0.7500   -3.8971    0.0000 C   0  0  0  0  0  0  0  0  0  0  0  0
    1.5000   -2.5981    0.0000 C   0  0  0  0  0  0  0  0  0  0  0  0
    3.0000   -2.5981    0.0000 O   0  0  0  0  0  0  0  0  0  0  0  0
    0.7500   -1.2990    0.0000 C   0  0  0  0  0  0  0  0  0  0  0  0
    1.5000    0.0000    0.0000 C   0  0  0  0  0  0  0  0  0  0  0  0
    0.7500    1.2990    0.0000 C   0  0  0  0  0  0  0  0  0  0  0  0
   -0.7500    1.2990    0.0000 C   0  0  0  0  0  0  0  0  0  0  0  0
   -1.5000    0.0000    0.0000 C   0  0  0  0  0  0  0  0  0  0  0  0
   -0.7500   -1.2990    0.0000 C   0  0  0  0  0  0  0  0  0  0  0  0
   -1.5000   -2.5981    0.0000 C   0  0  0  0  0  0  0  0  0  0  0  0
   -3.0000   -2.5981    0.0000 O   0  0  0  0  0  0  0  0  0  0  0  0
    3.0000   -7.7942    0.0000 C   0  0  0  0  0  0  0  0  0  0  0  0
    3.7500   -9.0933    0.0000 C   0  0  0  0  0  0  0  0  0  0  0  0
    7.5000  -12.9904    0.0000 C   0  0  0  0  0  0  0  0  0  0  0  0
    8.2500  -14.2894    0.0000 C   0  0  0  0  0  0  0  0  0  0  0  0
  1  2  1  0
  2  3  2  0
  3  4  1  0
  4  5  2  0
  5  6  1  0
  6  7  1  0
  7  8  1  0
  8  9  2  0
  9 10  1  0
 10 11  2  0
 11 12  1  0
 12 13  1  0
 13 14  2  0
 14 15  1  0
 15 16  1  0
 16 17  2  0
 16 18  2  0
 16 19  1  0
 15 20  2  0
 20 21  1  0
 20 22  1  0
 22 23  2  0
 23 24  1  0
 24 25  2  0
 24 26  1  0
 26 27  2  0
 27 28  1  0
 28 29  2  0
 29 30  1  0
 30 31  2  0
 31 32  1  0
 32 33  2  0
 11 34  1  0
 34 35  2  0
  5 36  1  0
 36 37  2  0
 37  2  1  0
 35  8  1  0
 23 13  1  0
 31 26  1  0
 32 22  1  0
M  CHG  1  19  -1
M  END
>  <Compound_ID>  (174) 
CHEMBL2337899

>  <Molecule Name>  (174) 
nan

>  <Molecular Weight>  (174) 
535.56

>  <AlogP>  (174) 
4.40

>  <Smiles>  (174) 
Nc1ccc(CCc2ccc(Nc3cc(S(=O)(=O)[O-])c(N)c4c3C(=O)c3ccccc3C4=O)cc2)cc1

>  <Standard Type>  (174) 
Inhibition

>  <Standard Relation>  (174) 
'='

>  <Standard Units>  (174) 
%

>  <Standard Value>  (174) 
15.8

>  <Assay ChEMBL ID>  (174) 
CHEMBL2340058

>  <Assay Description>  (174) 
Inhibition of c-Met (unknown origin) using Poly(Glu,Tyr) at 4:1 ratio as substrate at 10 uM preincubated with substrate prior to enzyme addition measured after 60 mins by ELISA

>  <BAO Format ID>  (174) 
BAO_0000357

>  <BAO Label>  (174) 
single protein format

>  <Assay Organism>  (174) 
Homo sapiens

>  <Target ChEMBL ID>  (174) 
CHEMBL3717

>  <Target Name>  (174) 
Hepatocyte growth factor receptor

>  <Target Organism>  (174) 
Homo sapiens

>  <Target Type>  (174) 
SINGLE PROTEIN

>  <Document ChEMBL ID>  (174) 
CHEMBL2331125

>  <Source Description>  (174) 
Scientific Literature

>  <Document Journal>  (174) 
ACS Med Chem Lett

>  <Document Year>  (174) 
2013.0

>  <Active>  (174) 
0.0

$$$$

     RDKit          2D

 21 24  0  0  0  0  0  0  0  0999 V2000
   -2.6401   -3.1891    0.0000 C   0  0  0  0  0  0  0  0  0  0  0  0
   -1.2135   -2.7256    0.0000 N   0  0  0  0  0  0  0  0  0  0  0  0
   -0.0000   -3.6073    0.0000 C   0  0  0  0  0  0  0  0  0  0  0  0
   -0.0000   -5.1073    0.0000 O   0  0  0  0  0  0  0  0  0  0  0  0
    1.2135   -2.7256    0.0000 C   0  0  0  0  0  0  0  0  0  0  0  0
    2.6401   -3.1891    0.0000 C   0  0  0  0  0  0  0  0  0  0  0  0
    3.8536   -2.3075    0.0000 C   0  0  0  0  0  0  0  0  0  0  0  0
    3.8536   -0.8075    0.0000 O   0  0  0  0  0  0  0  0  0  0  0  0
    5.0672   -3.1891    0.0000 N   0  0  0  0  0  0  0  0  0  0  0  0
    4.6036   -4.6157    0.0000 C   0  0  0  0  0  0  0  0  0  0  0  0
    5.3536   -5.9148    0.0000 C   0  0  0  0  0  0  0  0  0  0  0  0
    4.6036   -7.2138    0.0000 C   0  0  0  0  0  0  0  0  0  0  0  0
    3.1036   -7.2138    0.0000 C   0  0  0  0  0  0  0  0  0  0  0  0
    2.3536   -5.9148    0.0000 C   0  0  0  0  0  0  0  0  0  0  0  0
    3.1036   -4.6157    0.0000 C   0  0  0  0  0  0  0  0  0  0  0  0
    0.7500   -1.2990    0.0000 C   0  0  0  0  0  0  0  0  0  0  0  0
    1.5000    0.0000    0.0000 C   0  0  0  0  0  0  0  0  0  0  0  0
    0.7500    1.2990    0.0000 C   0  0  0  0  0  0  0  0  0  0  0  0
   -0.7500    1.2990    0.0000 C   0  0  0  0  0  0  0  0  0  0  0  0
   -1.5000    0.0000    0.0000 C   0  0  0  0  0  0  0  0  0  0  0  0
   -0.7500   -1.2990    0.0000 C   0  0  0  0  0  0  0  0  0  0  0  0
  1  2  1  0
  2  3  1  0
  3  4  2  0
  3  5  1  0
  5  6  2  0
  6  7  1  0
  7  8  2  0
  7  9  1  0
  9 10  1  0
 10 11  2  0
 11 12  1  0
 12 13  2  0
 13 14  1  0
 14 15  2  0
  5 16  1  0
 16 17  2  0
 17 18  1  0
 18 19  2  0
 19 20  1  0
 20 21  2  0
 21  2  1  0
 15  6  1  0
 21 16  1  0
 15 10  1  0
M  END
>  <Compound_ID>  (175) 
CHEMBL607535

>  <Molecule Name>  (175) 
MEISOINDIGO

>  <Molecular Weight>  (175) 
276.30

>  <AlogP>  (175) 
2.53

>  <Smiles>  (175) 
CN1C(=O)/C(=C2/C(=O)Nc3ccccc32)c2ccccc21

>  <Standard Type>  (175) 
Inhibition

>  <Standard Relation>  (175) 
'='

>  <Standard Units>  (175) 
%

>  <Standard Value>  (175) 
0.0

>  <Assay ChEMBL ID>  (175) 
CHEMBL1066072

>  <Assay Description>  (175) 
Inhibition of MET at 10 uM

>  <BAO Format ID>  (175) 
BAO_0000357

>  <BAO Label>  (175) 
single protein format

>  <Assay Organism>  (175) 
None

>  <Target ChEMBL ID>  (175) 
CHEMBL3717

>  <Target Name>  (175) 
Hepatocyte growth factor receptor

>  <Target Organism>  (175) 
Homo sapiens

>  <Target Type>  (175) 
SINGLE PROTEIN

>  <Document ChEMBL ID>  (175) 
CHEMBL1152632

>  <Source Description>  (175) 
Scientific Literature

>  <Document Journal>  (175) 
Bioorg Med Chem

>  <Document Year>  (175) 
2009.0

>  <Active>  (175) 
0.0

$$$$

     RDKit          2D

 16 18  0  0  0  0  0  0  0  0999 V2000
    2.7760    0.0000    0.0000 N   0  0  0  0  0  0  0  0  0  0  0  0
    1.2760    0.0000    0.0000 C   0  0  0  0  0  0  0  0  0  0  0  0
    0.3943    1.2135    0.0000 N   0  0  0  0  0  0  0  0  0  0  0  0
   -1.0323    0.7500    0.0000 N   0  0  0  0  0  0  0  0  0  0  0  0
   -1.0323   -0.7500    0.0000 C   0  0  0  0  0  0  0  0  0  0  0  0
   -2.1470   -1.7537    0.0000 C   0  0  0  0  0  0  0  0  0  0  0  0
   -1.8351   -3.2209    0.0000 C   0  0  0  0  0  0  0  0  0  0  0  0
   -2.9499   -4.2246    0.0000 C   0  0  0  0  0  0  0  0  0  0  0  0
   -2.7931   -5.7164    0.0000 C   0  0  0  0  0  0  0  0  0  0  0  0
   -4.1634   -6.3265    0.0000 C   0  0  0  0  0  0  0  0  0  0  0  0
   -5.1671   -5.2118    0.0000 C   0  0  0  0  0  0  0  0  0  0  0  0
   -4.4171   -3.9127    0.0000 S   0  0  0  0  0  0  0  0  0  0  0  0
   -0.4086   -3.6844    0.0000 N   0  0  0  0  0  0  0  0  0  0  0  0
    0.7062   -2.6807    0.0000 C   0  0  0  0  0  0  0  0  0  0  0  0
    2.1328   -3.1443    0.0000 O   0  0  0  0  0  0  0  0  0  0  0  0
    0.3943   -1.2135    0.0000 C   0  0  0  0  0  0  0  0  0  0  0  0
  1  2  1  0
  2  3  2  0
  3  4  1  0
  4  5  1  0
  5  6  1  0
  6  7  2  0
  7  8  1  0
  8  9  2  0
  9 10  1  0
 10 11  2  0
 11 12  1  0
  7 13  1  0
 13 14  1  0
 14 15  2  0
 14 16  1  0
 16  2  1  0
 16  5  2  0
 12  8  1  0
M  END
>  <Compound_ID>  (176) 
CHEMBL1813612

>  <Molecule Name>  (176) 
nan

>  <Molecular Weight>  (176) 
232.27

>  <AlogP>  (176) 
1.56

>  <Smiles>  (176) 
Nc1n[nH]c2cc(-c3cccs3)[nH]c(=O)c12

>  <Standard Type>  (176) 
Inhibition

>  <Standard Relation>  (176) 
'='

>  <Standard Units>  (176) 
%

>  <Standard Value>  (176) 
9.0

>  <Assay ChEMBL ID>  (176) 
CHEMBL1815730

>  <Assay Description>  (176) 
Inhibition of MET at 30 uM by microfluidic mobility shift assay

>  <BAO Format ID>  (176) 
BAO_0000357

>  <BAO Label>  (176) 
single protein format

>  <Assay Organism>  (176) 
None

>  <Target ChEMBL ID>  (176) 
CHEMBL3717

>  <Target Name>  (176) 
Hepatocyte growth factor receptor

>  <Target Organism>  (176) 
Homo sapiens

>  <Target Type>  (176) 
SINGLE PROTEIN

>  <Document ChEMBL ID>  (176) 
CHEMBL1811853

>  <Source Description>  (176) 
Scientific Literature

>  <Document Journal>  (176) 
Bioorg Med Chem

>  <Document Year>  (176) 
2011.0

>  <Active>  (176) 
0.0

$$$$

     RDKit          2D

 27 30  0  0  0  0  0  0  0  0999 V2000
    3.0000    0.0000    0.0000 F   0  0  0  0  0  0  0  0  0  0  0  0
    1.5000    0.0000    0.0000 C   0  0  0  0  0  0  0  0  0  0  0  0
    0.7500   -1.2990    0.0000 C   0  0  0  0  0  0  0  0  0  0  0  0
   -0.7500   -1.2990    0.0000 C   0  0  0  0  0  0  0  0  0  0  0  0
   -1.5000    0.0000    0.0000 C   0  0  0  0  0  0  0  0  0  0  0  0
   -3.0000    0.0000    0.0000 C   0  0  0  0  0  0  0  0  0  0  0  0
   -3.8817   -1.2135    0.0000 N   0  0  0  0  0  0  0  0  0  0  0  0
   -5.3083   -0.7500    0.0000 C   0  0  0  0  0  0  0  0  0  0  0  0
   -5.3083    0.7500    0.0000 N   0  0  0  0  0  0  0  0  0  0  0  0
   -6.5218    1.6317    0.0000 C   0  0  0  0  0  0  0  0  0  0  0  0
   -6.3650    3.1235    0.0000 C   0  0  0  0  0  0  0  0  0  0  0  0
   -7.5785    4.0051    0.0000 C   0  0  0  0  0  0  0  0  0  0  0  0
   -7.4217    5.4969    0.0000 N   0  0  0  0  0  0  0  0  0  0  0  0
   -6.0514    6.1070    0.0000 C   0  0  0  0  0  0  0  0  0  0  0  0
   -5.8946    7.5988    0.0000 C   0  0  0  0  0  0  0  0  0  0  0  0
   -7.1081    8.4805    0.0000 O   0  0  0  0  0  0  0  0  0  0  0  0
   -8.4785    7.8704    0.0000 C   0  0  0  0  0  0  0  0  0  0  0  0
   -8.6353    6.3786    0.0000 C   0  0  0  0  0  0  0  0  0  0  0  0
   -3.8817    1.2135    0.0000 C   0  0  0  0  0  0  0  0  0  0  0  0
   -3.4182    2.6401    0.0000 C   0  0  0  0  0  0  0  0  0  0  0  0
   -1.9509    2.9520    0.0000 C   0  0  0  0  0  0  0  0  0  0  0  0
   -1.4874    4.3786    0.0000 C   0  0  0  0  0  0  0  0  0  0  0  0
   -2.4911    5.4933    0.0000 N   0  0  0  0  0  0  0  0  0  0  0  0
   -3.9583    5.1814    0.0000 C   0  0  0  0  0  0  0  0  0  0  0  0
   -4.4218    3.7548    0.0000 C   0  0  0  0  0  0  0  0  0  0  0  0
   -0.7500    1.2990    0.0000 C   0  0  0  0  0  0  0  0  0  0  0  0
    0.7500    1.2990    0.0000 C   0  0  0  0  0  0  0  0  0  0  0  0
  1  2  1  0
  2  3  2  0
  3  4  1  0
  4  5  2  0
  5  6  1  0
  6  7  1  0
  7  8  2  0
  8  9  1  0
  9 10  1  0
 10 11  1  0
 11 12  1  0
 12 13  1  0
 13 14  1  0
 14 15  1  0
 15 16  1  0
 16 17  1  0
 17 18  1  0
  9 19  1  0
 19 20  1  0
 20 21  2  0
 21 22  1  0
 22 23  2  0
 23 24  1  0
 24 25  2  0
  5 26  1  0
 26 27  2  0
 27  2  1  0
 19  6  2  0
 25 20  1  0
 18 13  1  0
M  END
>  <Compound_ID>  (177) 
CHEMBL14112

>  <Molecule Name>  (177) 
SB-210313

>  <Molecular Weight>  (177) 
366.44

>  <AlogP>  (177) 
3.47

>  <Smiles>  (177) 
Fc1ccc(-c2ncn(CCCN3CCOCC3)c2-c2ccncc2)cc1

>  <Standard Type>  (177) 
Inhibition

>  <Standard Relation>  (177) 
'='

>  <Standard Units>  (177) 
%

>  <Standard Value>  (177) 
-1.62

>  <Assay ChEMBL ID>  (177) 
CHEMBL1962143

>  <Assay Description>  (177) 
GSK_PKIS: MET mean inhibition at 1 uM [Nanosyn]

>  <BAO Format ID>  (177) 
BAO_0000357

>  <BAO Label>  (177) 
single protein format

>  <Assay Organism>  (177) 
None

>  <Target ChEMBL ID>  (177) 
CHEMBL3717

>  <Target Name>  (177) 
Hepatocyte growth factor receptor

>  <Target Organism>  (177) 
Homo sapiens

>  <Target Type>  (177) 
SINGLE PROTEIN

>  <Document ChEMBL ID>  (177) 
CHEMBL1961873

>  <Source Description>  (177) 
GSK Published Kinase Inhibitor Set

>  <Document Journal>  (177) 
nan

>  <Document Year>  (177) 
nan

>  <Active>  (177) 
0.0

$$$$

     RDKit          2D

 28 32  0  0  0  0  0  0  0  0999 V2000
    4.5000    0.0000    0.0000 N   0  0  0  0  0  0  0  0  0  0  0  0
    3.0000    0.0000    0.0000 C   0  0  0  0  0  0  0  0  0  0  0  0
    1.5000    0.0000    0.0000 C   0  0  0  0  0  0  0  0  0  0  0  0
    0.7500   -1.2990    0.0000 C   0  0  0  0  0  0  0  0  0  0  0  0
   -0.7500   -1.2990    0.0000 C   0  0  0  0  0  0  0  0  0  0  0  0
   -1.5000    0.0000    0.0000 C   0  0  0  0  0  0  0  0  0  0  0  0
   -2.9672    0.3119    0.0000 C   0  0  0  0  0  0  0  0  0  0  0  0
   -4.0819   -0.6918    0.0000 C   0  0  0  0  0  0  0  0  0  0  0  0
   -5.5085   -0.2283    0.0000 C   0  0  0  0  0  0  0  0  0  0  0  0
   -6.6232   -1.2320    0.0000 C   0  0  0  0  0  0  0  0  0  0  0  0
   -6.3114   -2.6992    0.0000 N   0  0  0  0  0  0  0  0  0  0  0  0
   -4.8848   -3.1627    0.0000 C   0  0  0  0  0  0  0  0  0  0  0  0
   -4.5729   -4.6300    0.0000 N   0  0  0  0  0  0  0  0  0  0  0  0
   -5.6876   -5.6337    0.0000 C   0  0  0  0  0  0  0  0  0  0  0  0
   -6.1512   -7.0602    0.0000 C   0  0  0  0  0  0  0  0  0  0  0  0
   -7.1549   -5.9455    0.0000 C   0  0  0  0  0  0  0  0  0  0  0  0
   -3.7701   -2.1590    0.0000 N   0  0  0  0  0  0  0  0  0  0  0  0
   -3.1240    1.8037    0.0000 C   0  0  0  0  0  0  0  0  0  0  0  0
   -4.4231    2.5537    0.0000 C   0  0  0  0  0  0  0  0  0  0  0  0
   -4.4231    4.0537    0.0000 C   0  0  0  0  0  0  0  0  0  0  0  0
   -5.7221    4.8037    0.0000 C   0  0  0  0  0  0  0  0  0  0  0  0
   -7.0211    4.0537    0.0000 C   0  0  0  0  0  0  0  0  0  0  0  0
   -8.3202    4.8037    0.0000 F   0  0  0  0  0  0  0  0  0  0  0  0
   -7.0211    2.5537    0.0000 C   0  0  0  0  0  0  0  0  0  0  0  0
   -5.7221    1.8037    0.0000 C   0  0  0  0  0  0  0  0  0  0  0  0
   -1.7537    2.4138    0.0000 N   0  0  0  0  0  0  0  0  0  0  0  0
   -0.7500    1.2990    0.0000 N   0  0  0  0  0  0  0  0  0  0  0  0
    0.7500    1.2990    0.0000 C   0  0  0  0  0  0  0  0  0  0  0  0
  1  2  3  0
  2  3  1  0
  3  4  1  0
  4  5  2  0
  5  6  1  0
  6  7  2  0
  7  8  1  0
  8  9  2  0
  9 10  1  0
 10 11  2  0
 11 12  1  0
 12 13  1  0
 13 14  1  0
 14 15  1  0
 15 16  1  0
 12 17  2  0
  7 18  1  0
 18 19  1  0
 19 20  2  0
 20 21  1  0
 21 22  2  0
 22 23  1  0
 22 24  1  0
 24 25  2  0
 18 26  2  0
 26 27  1  0
 27 28  1  0
 28  3  2  0
 27  6  1  0
 17  8  1  0
 25 19  1  0
 16 14  1  0
M  END
>  <Compound_ID>  (178) 
CHEMBL1885746

>  <Molecule Name>  (178) 
GW561436X

>  <Molecular Weight>  (178) 
370.39

>  <AlogP>  (178) 
4.04

>  <Smiles>  (178) 
N#Cc1ccc2c(-c3ccnc(NC4CC4)n3)c(-c3ccc(F)cc3)nn2c1

>  <Standard Type>  (178) 
Inhibition

>  <Standard Relation>  (178) 
'='

>  <Standard Units>  (178) 
%

>  <Standard Value>  (178) 
3.34

>  <Assay ChEMBL ID>  (178) 
CHEMBL1962142

>  <Assay Description>  (178) 
GSK_PKIS: MET mean inhibition at 0.1 uM [Nanosyn]

>  <BAO Format ID>  (178) 
BAO_0000357

>  <BAO Label>  (178) 
single protein format

>  <Assay Organism>  (178) 
None

>  <Target ChEMBL ID>  (178) 
CHEMBL3717

>  <Target Name>  (178) 
Hepatocyte growth factor receptor

>  <Target Organism>  (178) 
Homo sapiens

>  <Target Type>  (178) 
SINGLE PROTEIN

>  <Document ChEMBL ID>  (178) 
CHEMBL1961873

>  <Source Description>  (178) 
GSK Published Kinase Inhibitor Set

>  <Document Journal>  (178) 
nan

>  <Document Year>  (178) 
nan

>  <Active>  (178) 
0.0

$$$$

     RDKit          2D

 24 27  0  0  0  0  0  0  0  0999 V2000
    7.5000   -5.1962    0.0000 C   0  0  0  0  0  0  0  0  0  0  0  0
    6.0000   -5.1962    0.0000 O   0  0  0  0  0  0  0  0  0  0  0  0
    5.2500   -6.4952    0.0000 C   0  0  0  0  0  0  0  0  0  0  0  0
    6.0000   -7.7942    0.0000 C   0  0  0  0  0  0  0  0  0  0  0  0
    5.2500   -9.0933    0.0000 C   0  0  0  0  0  0  0  0  0  0  0  0
    3.7500   -9.0933    0.0000 C   0  0  0  0  0  0  0  0  0  0  0  0
    3.0000   -7.7942    0.0000 C   0  0  0  0  0  0  0  0  0  0  0  0
    3.7500   -6.4952    0.0000 C   0  0  0  0  0  0  0  0  0  0  0  0
    3.0000   -5.1962    0.0000 N   0  0  0  0  0  0  0  0  0  0  0  0
    3.7500   -3.8971    0.0000 C   0  0  0  0  0  0  0  0  0  0  0  0
    3.0000   -2.5981    0.0000 C   0  0  0  0  0  0  0  0  0  0  0  0
    1.5000   -2.5981    0.0000 N   0  0  0  0  0  0  0  0  0  0  0  0
    0.7500   -1.2990    0.0000 C   0  0  0  0  0  0  0  0  0  0  0  0
    1.5000    0.0000    0.0000 N   0  0  0  0  0  0  0  0  0  0  0  0
    0.7500    1.2990    0.0000 C   0  0  0  0  0  0  0  0  0  0  0  0
   -0.7500    1.2990    0.0000 N   0  0  0  0  0  0  0  0  0  0  0  0
   -1.5000    0.0000    0.0000 C   0  0  0  0  0  0  0  0  0  0  0  0
   -2.9672   -0.3119    0.0000 N   0  0  0  0  0  0  0  0  0  0  0  0
   -3.1240   -1.8037    0.0000 N   0  0  0  0  0  0  0  0  0  0  0  0
   -1.7537   -2.4138    0.0000 C   0  0  0  0  0  0  0  0  0  0  0  0
   -1.4418   -3.8810    0.0000 Br  0  0  0  0  0  0  0  0  0  0  0  0
   -0.7500   -1.2990    0.0000 C   0  0  0  0  0  0  0  0  0  0  0  0
    0.7500   -3.8971    0.0000 C   0  0  0  0  0  0  0  0  0  0  0  0
    1.5000   -5.1962    0.0000 C   0  0  0  0  0  0  0  0  0  0  0  0
  1  2  1  0
  2  3  1  0
  3  4  2  0
  4  5  1  0
  5  6  2  0
  6  7  1  0
  7  8  2  0
  8  9  1  0
  9 10  1  0
 10 11  1  0
 11 12  1  0
 12 13  1  0
 13 14  2  0
 14 15  1  0
 15 16  2  0
 16 17  1  0
 17 18  1  0
 18 19  1  0
 19 20  2  0
 20 21  1  0
 20 22  1  0
 12 23  1  0
 23 24  1  0
  8  3  1  0
 24  9  1  0
 22 13  1  0
 22 17  2  0
M  END
>  <Compound_ID>  (179) 
CHEMBL1254209

>  <Molecule Name>  (179) 
nan

>  <Molecular Weight>  (179) 
389.26

>  <AlogP>  (179) 
2.45

>  <Smiles>  (179) 
COc1ccccc1N1CCN(c2ncnc3[nH]nc(Br)c23)CC1

>  <Standard Type>  (179) 
Inhibition

>  <Standard Relation>  (179) 
'='

>  <Standard Units>  (179) 
%

>  <Standard Value>  (179) 
8.0

>  <Assay ChEMBL ID>  (179) 
CHEMBL1252491

>  <Assay Description>  (179) 
Inhibition of MET at 1 uM in presence of 10 uM ATP by Select Screen kinase assay relative to untreated control

>  <BAO Format ID>  (179) 
BAO_0000357

>  <BAO Label>  (179) 
single protein format

>  <Assay Organism>  (179) 
None

>  <Target ChEMBL ID>  (179) 
CHEMBL3717

>  <Target Name>  (179) 
Hepatocyte growth factor receptor

>  <Target Organism>  (179) 
Homo sapiens

>  <Target Type>  (179) 
SINGLE PROTEIN

>  <Document ChEMBL ID>  (179) 
CHEMBL1250448

>  <Source Description>  (179) 
Scientific Literature

>  <Document Journal>  (179) 
Nat Chem Biol

>  <Document Year>  (179) 
2009.0

>  <Active>  (179) 
0.0

$$$$

     RDKit          2D

 25 28  0  0  0  0  0  0  0  0999 V2000
   -0.0000   -5.1073    0.0000 O   0  0  0  0  0  0  0  0  0  0  0  0
   -0.0000   -3.6073    0.0000 C   0  0  0  0  0  0  0  0  0  0  0  0
    1.2135   -2.7256    0.0000 N   0  0  0  0  0  0  0  0  0  0  0  0
    0.7500   -1.2990    0.0000 C   0  0  0  0  0  0  0  0  0  0  0  0
    1.5000    0.0000    0.0000 C   0  0  0  0  0  0  0  0  0  0  0  0
    0.7500    1.2990    0.0000 C   0  0  0  0  0  0  0  0  0  0  0  0
   -0.7500    1.2990    0.0000 C   0  0  0  0  0  0  0  0  0  0  0  0
   -1.5000    0.0000    0.0000 C   0  0  0  0  0  0  0  0  0  0  0  0
   -0.7500   -1.2990    0.0000 C   0  0  0  0  0  0  0  0  0  0  0  0
   -1.2135   -2.7256    0.0000 C   0  0  0  0  0  0  0  0  0  0  0  0
   -2.6401   -3.1891    0.0000 C   0  0  0  0  0  0  0  0  0  0  0  0
   -2.9520   -4.6564    0.0000 C   0  0  0  0  0  0  0  0  0  0  0  0
   -1.9483   -5.7711    0.0000 C   0  0  0  0  0  0  0  0  0  0  0  0
   -2.6983   -7.0701    0.0000 N   0  0  0  0  0  0  0  0  0  0  0  0
   -4.1655   -6.7583    0.0000 N   0  0  0  0  0  0  0  0  0  0  0  0
   -4.3223   -5.2665    0.0000 C   0  0  0  0  0  0  0  0  0  0  0  0
   -5.6213   -4.5165    0.0000 C   0  0  0  0  0  0  0  0  0  0  0  0
   -5.6213   -3.0165    0.0000 C   0  0  0  0  0  0  0  0  0  0  0  0
   -6.9204   -2.2665    0.0000 C   0  0  0  0  0  0  0  0  0  0  0  0
   -8.2194   -3.0165    0.0000 C   0  0  0  0  0  0  0  0  0  0  0  0
   -8.2194   -4.5165    0.0000 C   0  0  0  0  0  0  0  0  0  0  0  0
   -6.9204   -5.2665    0.0000 C   0  0  0  0  0  0  0  0  0  0  0  0
   -6.9204   -6.7665    0.0000 N   0  0  0  0  0  4  0  0  0  0  0  0
   -5.6213   -7.5165    0.0000 O   0  0  0  0  0  0  0  0  0  0  0  0
   -8.2194   -7.5165    0.0000 O   0  0  0  0  0  1  0  0  0  0  0  0
  1  2  2  0
  2  3  1  0
  3  4  1  0
  4  5  2  0
  5  6  1  0
  6  7  2  0
  7  8  1  0
  8  9  2  0
  9 10  1  0
 10 11  2  0
 11 12  1  0
 12 13  2  0
 13 14  1  0
 14 15  1  0
 15 16  2  0
 16 17  1  0
 17 18  2  0
 18 19  1  0
 19 20  2  0
 20 21  1  0
 21 22  2  0
 22 23  1  0
 23 24  2  0
 23 25  1  0
 10  2  1  0
 16 12  1  0
 22 17  1  0
  9  4  1  0
M  CHG  2  23   1  25  -1
M  END
>  <Compound_ID>  (180) 
CHEMBL2347053

>  <Molecule Name>  (180) 
nan

>  <Molecular Weight>  (180) 
332.32

>  <AlogP>  (180) 
3.48

>  <Smiles>  (180) 
O=C1Nc2ccccc2/C1=C/c1c[nH]nc1-c1ccccc1[N+](=O)[O-]

>  <Standard Type>  (180) 
Inhibition

>  <Standard Relation>  (180) 
'='

>  <Standard Units>  (180) 
%

>  <Standard Value>  (180) 
16.0

>  <Assay ChEMBL ID>  (180) 
CHEMBL2350982

>  <Assay Description>  (180) 
Inhibition of c-MET (unknown origin) at 10 uM after 10 mins by mobility shift assay relative to control

>  <BAO Format ID>  (180) 
BAO_0000357

>  <BAO Label>  (180) 
single protein format

>  <Assay Organism>  (180) 
Homo sapiens

>  <Target ChEMBL ID>  (180) 
CHEMBL3717

>  <Target Name>  (180) 
Hepatocyte growth factor receptor

>  <Target Organism>  (180) 
Homo sapiens

>  <Target Type>  (180) 
SINGLE PROTEIN

>  <Document ChEMBL ID>  (180) 
CHEMBL2346519

>  <Source Description>  (180) 
Scientific Literature

>  <Document Journal>  (180) 
Bioorg Med Chem

>  <Document Year>  (180) 
2013.0

>  <Active>  (180) 
0.0

$$$$

     RDKit          2D

 23 26  0  0  0  0  0  0  0  0999 V2000
   -8.0346   -3.5760    0.0000 N   0  0  0  0  0  0  0  0  0  0  0  0
   -6.9199   -4.5797    0.0000 C   0  0  0  0  0  0  0  0  0  0  0  0
   -5.4933   -4.1162    0.0000 C   0  0  0  0  0  0  0  0  0  0  0  0
   -5.1814   -2.6490    0.0000 C   0  0  0  0  0  0  0  0  0  0  0  0
   -3.7548   -2.1855    0.0000 C   0  0  0  0  0  0  0  0  0  0  0  0
   -2.6401   -3.1891    0.0000 C   0  0  0  0  0  0  0  0  0  0  0  0
   -1.2135   -2.7256    0.0000 N   0  0  0  0  0  0  0  0  0  0  0  0
   -0.0000   -3.6073    0.0000 C   0  0  0  0  0  0  0  0  0  0  0  0
   -0.0000   -5.1073    0.0000 C   0  0  0  0  0  0  0  0  0  0  0  0
    1.2135   -5.9890    0.0000 N   0  0  0  0  0  0  0  0  0  0  0  0
    0.7500   -7.4156    0.0000 O   0  0  0  0  0  0  0  0  0  0  0  0
   -0.7500   -7.4156    0.0000 N   0  0  0  0  0  0  0  0  0  0  0  0
   -1.2135   -5.9890    0.0000 C   0  0  0  0  0  0  0  0  0  0  0  0
   -2.6401   -5.5255    0.0000 N   0  0  0  0  0  0  0  0  0  0  0  0
    1.2135   -2.7256    0.0000 N   0  0  0  0  0  0  0  0  0  0  0  0
    0.7500   -1.2990    0.0000 C   0  0  0  0  0  0  0  0  0  0  0  0
    1.5000    0.0000    0.0000 C   0  0  0  0  0  0  0  0  0  0  0  0
    0.7500    1.2990    0.0000 N   0  0  0  0  0  0  0  0  0  0  0  0
   -0.7500    1.2990    0.0000 C   0  0  0  0  0  0  0  0  0  0  0  0
   -1.5000    0.0000    0.0000 C   0  0  0  0  0  0  0  0  0  0  0  0
   -0.7500   -1.2990    0.0000 C   0  0  0  0  0  0  0  0  0  0  0  0
   -2.9520   -4.6564    0.0000 C   0  0  0  0  0  0  0  0  0  0  0  0
   -4.3786   -5.1199    0.0000 C   0  0  0  0  0  0  0  0  0  0  0  0
  1  2  1  0
  2  3  1  0
  3  4  2  0
  4  5  1  0
  5  6  2  0
  6  7  1  0
  7  8  1  0
  8  9  1  0
  9 10  2  0
 10 11  1  0
 11 12  1  0
 12 13  2  0
 13 14  1  0
  8 15  2  0
 15 16  1  0
 16 17  2  0
 17 18  1  0
 18 19  2  0
 19 20  1  0
 20 21  2  0
  6 22  1  0
 22 23  2  0
 23  3  1  0
 21  7  1  0
 13  9  1  0
 21 16  1  0
M  END
>  <Compound_ID>  (181) 
CHEMBL188268

>  <Molecule Name>  (181) 
nan

>  <Molecular Weight>  (181) 
307.32

>  <AlogP>  (181) 
1.51

>  <Smiles>  (181) 
NCc1ccc(-n2c(-c3nonc3N)nc3cnccc32)cc1

>  <Standard Type>  (181) 
Inhibition

>  <Standard Relation>  (181) 
'='

>  <Standard Units>  (181) 
%

>  <Standard Value>  (181) 
5.16

>  <Assay ChEMBL ID>  (181) 
CHEMBL1962142

>  <Assay Description>  (181) 
GSK_PKIS: MET mean inhibition at 0.1 uM [Nanosyn]

>  <BAO Format ID>  (181) 
BAO_0000357

>  <BAO Label>  (181) 
single protein format

>  <Assay Organism>  (181) 
None

>  <Target ChEMBL ID>  (181) 
CHEMBL3717

>  <Target Name>  (181) 
Hepatocyte growth factor receptor

>  <Target Organism>  (181) 
Homo sapiens

>  <Target Type>  (181) 
SINGLE PROTEIN

>  <Document ChEMBL ID>  (181) 
CHEMBL1961873

>  <Source Description>  (181) 
GSK Published Kinase Inhibitor Set

>  <Document Journal>  (181) 
nan

>  <Document Year>  (181) 
nan

>  <Active>  (181) 
0.0

$$$$

     RDKit          2D

 33 36  0  0  0  0  0  0  0  0999 V2000
   -3.7548   -2.1855    0.0000 C   0  0  0  0  0  0  0  0  0  0  0  0
   -2.6401   -3.1891    0.0000 C   0  0  0  0  0  0  0  0  0  0  0  0
   -1.2135   -2.7256    0.0000 N   0  0  0  0  0  0  0  0  0  0  0  0
   -0.0000   -3.6073    0.0000 C   0  0  0  0  0  0  0  0  0  0  0  0
   -0.0000   -5.1073    0.0000 C   0  0  0  0  0  0  0  0  0  0  0  0
    1.2135   -5.9890    0.0000 N   0  0  0  0  0  0  0  0  0  0  0  0
    0.7500   -7.4156    0.0000 O   0  0  0  0  0  0  0  0  0  0  0  0
   -0.7500   -7.4156    0.0000 N   0  0  0  0  0  0  0  0  0  0  0  0
   -1.2135   -5.9890    0.0000 C   0  0  0  0  0  0  0  0  0  0  0  0
   -2.6401   -5.5255    0.0000 N   0  0  0  0  0  0  0  0  0  0  0  0
    1.2135   -2.7256    0.0000 N   0  0  0  0  0  0  0  0  0  0  0  0
    0.7500   -1.2990    0.0000 C   0  0  0  0  0  0  0  0  0  0  0  0
    1.5000    0.0000    0.0000 C   0  0  0  0  0  0  0  0  0  0  0  0
    3.0000    0.0000    0.0000 C   0  0  0  0  0  0  0  0  0  0  0  0
    4.5000    0.0000    0.0000 C   0  0  0  0  0  0  0  0  0  0  0  0
    6.0000    0.0000    0.0000 C   0  0  0  0  0  0  0  0  0  0  0  0
    6.0000   -1.5000    0.0000 C   0  0  0  0  0  0  0  0  0  0  0  0
    6.0000    1.5000    0.0000 C   0  0  0  0  0  0  0  0  0  0  0  0
    7.5000    0.0000    0.0000 O   0  0  0  0  0  0  0  0  0  0  0  0
    0.7500    1.2990    0.0000 N   0  0  0  0  0  0  0  0  0  0  0  0
   -0.7500    1.2990    0.0000 C   0  0  0  0  0  0  0  0  0  0  0  0
   -1.5000    2.5981    0.0000 O   0  0  0  0  0  0  0  0  0  0  0  0
   -0.7500    3.8971    0.0000 C   0  0  0  0  0  0  0  0  0  0  0  0
   -1.5000    5.1962    0.0000 C   0  0  0  0  0  0  0  0  0  0  0  0
   -3.0000    5.1962    0.0000 N   0  0  0  0  0  0  0  0  0  0  0  0
   -0.7500    6.4952    0.0000 C   0  0  0  0  0  0  0  0  0  0  0  0
    0.7500    6.4952    0.0000 C   0  0  0  0  0  0  0  0  0  0  0  0
    1.5000    7.7942    0.0000 C   0  0  0  0  0  0  0  0  0  0  0  0
    0.7500    9.0933    0.0000 C   0  0  0  0  0  0  0  0  0  0  0  0
   -0.7500    9.0933    0.0000 C   0  0  0  0  0  0  0  0  0  0  0  0
   -1.5000    7.7942    0.0000 C   0  0  0  0  0  0  0  0  0  0  0  0
   -1.5000    0.0000    0.0000 C   0  0  0  0  0  0  0  0  0  0  0  0
   -0.7500   -1.2990    0.0000 C   0  0  0  0  0  0  0  0  0  0  0  0
  1  2  1  0
  2  3  1  0
  3  4  1  0
  4  5  1  0
  5  6  2  0
  6  7  1  0
  7  8  1  0
  8  9  2  0
  9 10  1  0
  4 11  2  0
 11 12  1  0
 12 13  2  0
 13 14  1  0
 14 15  3  0
 15 16  1  0
 16 17  1  0
 16 18  1  0
 16 19  1  0
 13 20  1  0
 20 21  2  0
 21 22  1  0
 22 23  1  0
 23 24  1  0
 24 25  1  1
 24 26  1  0
 26 27  2  0
 27 28  1  0
 28 29  2  0
 29 30  1  0
 30 31  2  0
 21 32  1  0
 32 33  2  0
 33  3  1  0
  9  5  1  0
 33 12  1  0
 31 26  1  0
M  END
>  <Compound_ID>  (182) 
CHEMBL1096626

>  <Molecule Name>  (182) 
GSK-938890A

>  <Molecular Weight>  (182) 
447.50

>  <AlogP>  (182) 
2.28

>  <Smiles>  (182) 
CCn1c(-c2nonc2N)nc2c(C#CC(C)(C)O)nc(OC[C@@H](N)c3ccccc3)cc21

>  <Standard Type>  (182) 
Inhibition

>  <Standard Relation>  (182) 
'='

>  <Standard Units>  (182) 
%

>  <Standard Value>  (182) 
-4.52

>  <Assay ChEMBL ID>  (182) 
CHEMBL1962143

>  <Assay Description>  (182) 
GSK_PKIS: MET mean inhibition at 1 uM [Nanosyn]

>  <BAO Format ID>  (182) 
BAO_0000357

>  <BAO Label>  (182) 
single protein format

>  <Assay Organism>  (182) 
None

>  <Target ChEMBL ID>  (182) 
CHEMBL3717

>  <Target Name>  (182) 
Hepatocyte growth factor receptor

>  <Target Organism>  (182) 
Homo sapiens

>  <Target Type>  (182) 
SINGLE PROTEIN

>  <Document ChEMBL ID>  (182) 
CHEMBL1961873

>  <Source Description>  (182) 
GSK Published Kinase Inhibitor Set

>  <Document Journal>  (182) 
nan

>  <Document Year>  (182) 
nan

>  <Active>  (182) 
0.0

$$$$

     RDKit          2D

 34 38  0  0  0  0  0  0  0  0999 V2000
   -1.2990  -10.3573    0.0000 C   0  0  0  0  0  0  0  0  0  0  0  0
    0.0000   -9.6073    0.0000 O   0  0  0  0  0  0  0  0  0  0  0  0
    0.0000   -8.1073    0.0000 C   0  0  0  0  0  0  0  0  0  0  0  0
   -1.2990   -7.3573    0.0000 C   0  0  0  0  0  0  0  0  0  0  0  0
   -1.2990   -5.8573    0.0000 C   0  0  0  0  0  0  0  0  0  0  0  0
   -0.0000   -5.1073    0.0000 C   0  0  0  0  0  0  0  0  0  0  0  0
   -0.0000   -3.6073    0.0000 C   0  0  0  0  0  0  0  0  0  0  0  0
    1.2135   -2.7256    0.0000 N   0  0  0  0  0  0  0  0  0  0  0  0
    0.7500   -1.2990    0.0000 N   0  0  0  0  0  0  0  0  0  0  0  0
    1.5000    0.0000    0.0000 N   0  0  0  0  0  0  0  0  0  0  0  0
    0.7500    1.2990    0.0000 C   0  0  0  0  0  0  0  0  0  0  0  0
   -0.7500    1.2990    0.0000 C   0  0  0  0  0  0  0  0  0  0  0  0
   -1.5000    0.0000    0.0000 C   0  0  0  0  0  0  0  0  0  0  0  0
   -0.7500   -1.2990    0.0000 C   0  0  0  0  0  0  0  0  0  0  0  0
   -1.2135   -2.7256    0.0000 C   0  0  0  0  0  0  0  0  0  0  0  0
   -2.6401   -3.1891    0.0000 C   0  0  0  0  0  0  0  0  0  0  0  0
   -3.7548   -2.1855    0.0000 C   0  0  0  0  0  0  0  0  0  0  0  0
   -5.1814   -2.6490    0.0000 C   0  0  0  0  0  0  0  0  0  0  0  0
   -5.4933   -4.1162    0.0000 N   0  0  0  0  0  0  0  0  0  0  0  0
   -4.3786   -5.1199    0.0000 C   0  0  0  0  0  0  0  0  0  0  0  0
   -4.6904   -6.5871    0.0000 N   0  0  0  0  0  0  0  0  0  0  0  0
   -6.1170   -7.0506    0.0000 C   0  0  0  0  0  0  0  0  0  0  0  0
   -7.2317   -6.0469    0.0000 C   0  0  0  0  0  0  0  0  0  0  0  0
   -8.6583   -6.5105    0.0000 C   0  0  0  0  0  0  0  0  0  0  0  0
   -8.9702   -7.9777    0.0000 C   0  0  0  0  0  0  0  0  0  0  0  0
   -7.8555   -8.9814    0.0000 C   0  0  0  0  0  0  0  0  0  0  0  0
   -8.1673  -10.4486    0.0000 C   0  0  0  0  0  0  0  0  0  0  0  0
   -8.4792  -11.9158    0.0000 F   0  0  0  0  0  0  0  0  0  0  0  0
   -9.6346  -10.1367    0.0000 F   0  0  0  0  0  0  0  0  0  0  0  0
   -6.7001  -10.7605    0.0000 F   0  0  0  0  0  0  0  0  0  0  0  0
   -6.4289   -8.5179    0.0000 C   0  0  0  0  0  0  0  0  0  0  0  0
   -2.9520   -4.6564    0.0000 N   0  0  0  0  0  0  0  0  0  0  0  0
    1.2990   -5.8573    0.0000 C   0  0  0  0  0  0  0  0  0  0  0  0
    1.2990   -7.3573    0.0000 C   0  0  0  0  0  0  0  0  0  0  0  0
  1  2  1  0
  2  3  1  0
  3  4  2  0
  4  5  1  0
  5  6  2  0
  6  7  1  0
  7  8  2  0
  8  9  1  0
  9 10  1  0
 10 11  2  0
 11 12  1  0
 12 13  2  0
 13 14  1  0
 14 15  2  0
 15 16  1  0
 16 17  2  0
 17 18  1  0
 18 19  2  0
 19 20  1  0
 20 21  1  0
 21 22  1  0
 22 23  2  0
 23 24  1  0
 24 25  2  0
 25 26  1  0
 26 27  1  0
 27 28  1  0
 27 29  1  0
 27 30  1  0
 26 31  2  0
 20 32  2  0
  6 33  1  0
 33 34  2  0
 34  3  1  0
 15  7  1  0
 32 16  1  0
 14  9  1  0
 31 22  1  0
M  END
>  <Compound_ID>  (183) 
CHEMBL186213

>  <Molecule Name>  (183) 
GW827105X

>  <Molecular Weight>  (183) 
462.44

>  <AlogP>  (183) 
5.62

>  <Smiles>  (183) 
COc1ccc(-c2nn3ncccc3c2-c2ccnc(Nc3cccc(C(F)(F)F)c3)n2)cc1

>  <Standard Type>  (183) 
Inhibition

>  <Standard Relation>  (183) 
'='

>  <Standard Units>  (183) 
%

>  <Standard Value>  (183) 
6.61

>  <Assay ChEMBL ID>  (183) 
CHEMBL1962142

>  <Assay Description>  (183) 
GSK_PKIS: MET mean inhibition at 0.1 uM [Nanosyn]

>  <BAO Format ID>  (183) 
BAO_0000357

>  <BAO Label>  (183) 
single protein format

>  <Assay Organism>  (183) 
None

>  <Target ChEMBL ID>  (183) 
CHEMBL3717

>  <Target Name>  (183) 
Hepatocyte growth factor receptor

>  <Target Organism>  (183) 
Homo sapiens

>  <Target Type>  (183) 
SINGLE PROTEIN

>  <Document ChEMBL ID>  (183) 
CHEMBL1961873

>  <Source Description>  (183) 
GSK Published Kinase Inhibitor Set

>  <Document Journal>  (183) 
nan

>  <Document Year>  (183) 
nan

>  <Active>  (183) 
0.0

$$$$

     RDKit          2D

 25 28  0  0  0  0  0  0  0  0999 V2000
   -5.2046    0.1696    0.0000 N   0  0  0  0  0  0  0  0  0  0  0  0
   -5.6682   -1.2570    0.0000 C   0  0  0  0  0  0  0  0  0  0  0  0
   -6.1317   -2.6836    0.0000 C   0  0  0  0  0  0  0  0  0  0  0  0
   -5.2500   -3.8971    0.0000 C   0  0  0  0  0  0  0  0  0  0  0  0
   -3.7500   -3.8971    0.0000 N   0  0  0  0  0  0  0  0  0  0  0  0
   -3.0000   -2.5981    0.0000 C   0  0  0  0  0  0  0  0  0  0  0  0
   -3.7500   -1.2990    0.0000 O   0  0  0  0  0  0  0  0  0  0  0  0
   -1.5000   -2.5981    0.0000 C   0  0  0  0  0  0  0  0  0  0  0  0
   -0.7500   -3.8971    0.0000 C   0  0  0  0  0  0  0  0  0  0  0  0
    0.7500   -3.8971    0.0000 C   0  0  0  0  0  0  0  0  0  0  0  0
    1.5000   -2.5981    0.0000 C   0  0  0  0  0  0  0  0  0  0  0  0
    3.0000   -2.5981    0.0000 F   0  0  0  0  0  0  0  0  0  0  0  0
    0.7500   -1.2990    0.0000 C   0  0  0  0  0  0  0  0  0  0  0  0
    1.5000    0.0000    0.0000 C   0  0  0  0  0  0  0  0  0  0  0  0
    0.7500    1.2990    0.0000 C   0  0  0  0  0  0  0  0  0  0  0  0
   -0.7500    1.2990    0.0000 C   0  0  0  0  0  0  0  0  0  0  0  0
   -1.5000    0.0000    0.0000 C   0  0  0  0  0  0  0  0  0  0  0  0
   -0.7500   -1.2990    0.0000 C   0  0  0  0  0  0  0  0  0  0  0  0
   -6.1317   -5.1106    0.0000 S   0  0  0  0  0  0  0  0  0  0  0  0
   -7.5583   -4.6471    0.0000 C   0  0  0  0  0  0  0  0  0  0  0  0
   -7.5583   -3.1471    0.0000 C   0  0  0  0  0  0  0  0  0  0  0  0
   -8.8573   -2.3971    0.0000 C   0  0  0  0  0  0  0  0  0  0  0  0
  -10.1563   -3.1471    0.0000 C   0  0  0  0  0  0  0  0  0  0  0  0
  -10.1563   -4.6471    0.0000 C   0  0  0  0  0  0  0  0  0  0  0  0
   -8.8573   -5.3971    0.0000 C   0  0  0  0  0  0  0  0  0  0  0  0
  1  2  3  0
  2  3  1  0
  3  4  2  0
  4  5  1  0
  5  6  1  0
  6  7  2  0
  6  8  1  0
  8  9  2  0
  9 10  1  0
 10 11  2  0
 11 12  1  0
 11 13  1  0
 13 14  2  0
 14 15  1  0
 15 16  2  0
 16 17  1  0
 17 18  2  0
  4 19  1  0
 19 20  1  0
 20 21  2  0
 21 22  1  0
 22 23  1  0
 23 24  1  0
 24 25  1  0
 21  3  1  0
 18  8  1  0
 25 20  1  0
 18 13  1  0
M  END
>  <Compound_ID>  (184) 
CHEMBL233002

>  <Molecule Name>  (184) 
nan

>  <Molecular Weight>  (184) 
350.42

>  <AlogP>  (184) 
5.04

>  <Smiles>  (184) 
N#Cc1c(NC(=O)c2ccc(F)c3ccccc23)sc2c1CCCC2

>  <Standard Type>  (184) 
Inhibition

>  <Standard Relation>  (184) 
'='

>  <Standard Units>  (184) 
%

>  <Standard Value>  (184) 
8.25

>  <Assay ChEMBL ID>  (184) 
CHEMBL1962142

>  <Assay Description>  (184) 
GSK_PKIS: MET mean inhibition at 0.1 uM [Nanosyn]

>  <BAO Format ID>  (184) 
BAO_0000357

>  <BAO Label>  (184) 
single protein format

>  <Assay Organism>  (184) 
None

>  <Target ChEMBL ID>  (184) 
CHEMBL3717

>  <Target Name>  (184) 
Hepatocyte growth factor receptor

>  <Target Organism>  (184) 
Homo sapiens

>  <Target Type>  (184) 
SINGLE PROTEIN

>  <Document ChEMBL ID>  (184) 
CHEMBL1961873

>  <Source Description>  (184) 
GSK Published Kinase Inhibitor Set

>  <Document Journal>  (184) 
nan

>  <Document Year>  (184) 
nan

>  <Active>  (184) 
0.0

$$$$

     RDKit          2D

 33 37  0  0  0  0  0  0  0  0999 V2000
   -4.6904   -6.5871    0.0000 C   0  0  0  0  0  0  0  0  0  0  0  0
   -4.3786   -5.1199    0.0000 C   0  0  0  0  0  0  0  0  0  0  0  0
   -2.9520   -4.6564    0.0000 N   0  0  0  0  0  0  0  0  0  0  0  0
   -2.6401   -3.1891    0.0000 C   0  0  0  0  0  0  0  0  0  0  0  0
   -3.7548   -2.1855    0.0000 O   0  0  0  0  0  0  0  0  0  0  0  0
   -1.2135   -2.7256    0.0000 C   0  0  0  0  0  0  0  0  0  0  0  0
   -0.0000   -3.6073    0.0000 C   0  0  0  0  0  0  0  0  0  0  0  0
    1.2135   -2.7256    0.0000 N   0  0  0  0  0  0  0  0  0  0  0  0
    0.7500   -1.2990    0.0000 C   0  0  0  0  0  0  0  0  0  0  0  0
    1.5000    0.0000    0.0000 N   0  0  0  0  0  0  0  0  0  0  0  0
    0.7500    1.2990    0.0000 C   0  0  0  0  0  0  0  0  0  0  0  0
   -0.7500    1.2990    0.0000 C   0  0  0  0  0  0  0  0  0  0  0  0
   -1.5000    2.5981    0.0000 C   0  0  0  0  0  0  0  0  0  0  0  0
   -2.9918    2.7549    0.0000 N   0  0  0  0  0  0  0  0  0  0  0  0
   -3.3037    4.2221    0.0000 N   0  0  0  0  0  0  0  0  0  0  0  0
   -4.6740    4.8322    0.0000 C   0  0  0  0  0  0  0  0  0  0  0  0
   -2.0046    4.9721    0.0000 C   0  0  0  0  0  0  0  0  0  0  0  0
   -1.6927    6.4393    0.0000 C   0  0  0  0  0  0  0  0  0  0  0  0
   -0.2662    6.9028    0.0000 C   0  0  0  0  0  0  0  0  0  0  0  0
    0.0457    8.3701    0.0000 Cl  0  0  0  0  0  0  0  0  0  0  0  0
    0.8486    5.8991    0.0000 C   0  0  0  0  0  0  0  0  0  0  0  0
    0.5367    4.4319    0.0000 C   0  0  0  0  0  0  0  0  0  0  0  0
   -0.8899    3.9684    0.0000 C   0  0  0  0  0  0  0  0  0  0  0  0
   -1.5000    0.0000    0.0000 N   0  0  0  0  0  0  0  0  0  0  0  0
   -0.7500   -1.2990    0.0000 C   0  0  0  0  0  0  0  0  0  0  0  0
   -5.4933   -4.1162    0.0000 C   0  0  0  0  0  0  0  0  0  0  0  0
   -5.1814   -2.6490    0.0000 O   0  0  0  0  0  0  0  0  0  0  0  0
   -6.9199   -4.5797    0.0000 N   0  0  0  0  0  0  0  0  0  0  0  0
   -8.2564   -3.8987    0.0000 C   0  0  0  0  0  0  0  0  0  0  0  0
   -8.9374   -5.2352    0.0000 C   0  0  0  0  0  0  0  0  0  0  0  0
  -10.3639   -5.6988    0.0000 C   0  0  0  0  0  0  0  0  0  0  0  0
  -11.7905   -6.1623    0.0000 N   0  0  0  0  0  0  0  0  0  0  0  0
   -7.6009   -5.9162    0.0000 C   0  0  0  0  0  0  0  0  0  0  0  0
  2  1  1  6
  2  3  1  0
  3  4  1  0
  4  5  2  0
  4  6  1  0
  6  7  2  0
  7  8  1  0
  8  9  1  0
  9 10  2  0
 10 11  1  0
 11 12  2  0
 12 13  1  0
 13 14  2  0
 14 15  1  0
 15 16  1  0
 15 17  1  0
 17 18  2  0
 18 19  1  0
 19 20  1  0
 19 21  2  0
 21 22  1  0
 22 23  2  0
 12 24  1  0
 24 25  2  0
  2 26  1  0
 26 27  2  0
 26 28  1  0
 28 29  1  0
 29 30  1  0
 30 31  1  0
 31 32  3  0
 30 33  1  0
 25  6  1  0
 33 28  1  0
 25  9  1  0
 23 13  1  0
 23 17  1  0
M  END
>  <Compound_ID>  (185) 
CHEMBL2376144

>  <Molecule Name>  (185) 
nan

>  <Molecular Weight>  (185) 
462.90

>  <AlogP>  (185) 
2.27

>  <Smiles>  (185) 
C[C@@H](NC(=O)c1c[nH]c2ncc(-c3nn(C)c4cc(Cl)ccc34)nc12)C(=O)N1CC(C#N)C1

>  <Standard Type>  (185) 
Inhibition

>  <Standard Relation>  (185) 
'='

>  <Standard Units>  (185) 
%

>  <Standard Value>  (185) 
-15.0

>  <Assay ChEMBL ID>  (185) 
CHEMBL2378435

>  <Assay Description>  (185) 
Inhibition of MET (unknown origin) at 10 uM relative to control

>  <BAO Format ID>  (185) 
BAO_0000357

>  <BAO Label>  (185) 
single protein format

>  <Assay Organism>  (185) 
Homo sapiens

>  <Target ChEMBL ID>  (185) 
CHEMBL3717

>  <Target Name>  (185) 
Hepatocyte growth factor receptor

>  <Target Organism>  (185) 
Homo sapiens

>  <Target Type>  (185) 
SINGLE PROTEIN

>  <Document ChEMBL ID>  (185) 
CHEMBL2375236

>  <Source Description>  (185) 
Scientific Literature

>  <Document Journal>  (185) 
Bioorg Med Chem Lett

>  <Document Year>  (185) 
2013.0

>  <Active>  (185) 
0.0

$$$$

     RDKit          2D

 37 42  0  0  0  0  0  0  0  0999 V2000
  -12.3122    3.9144    0.0000 Cl  0  0  0  0  0  0  0  0  0  0  0  0
  -11.1975    2.9107    0.0000 C   0  0  0  0  0  0  0  0  0  0  0  0
   -9.7709    3.3742    0.0000 C   0  0  0  0  0  0  0  0  0  0  0  0
   -8.6562    2.3705    0.0000 C   0  0  0  0  0  0  0  0  0  0  0  0
   -8.9681    0.9033    0.0000 C   0  0  0  0  0  0  0  0  0  0  0  0
   -7.8533   -0.1004    0.0000 C   0  0  0  0  0  0  0  0  0  0  0  0
   -6.4268    0.3631    0.0000 N   0  0  0  0  0  0  0  0  0  0  0  0
   -5.3120   -0.6406    0.0000 C   0  0  0  0  0  0  0  0  0  0  0  0
   -3.8855   -0.1771    0.0000 C   0  0  0  0  0  0  0  0  0  0  0  0
   -3.5736    1.2902    0.0000 N   0  0  0  0  0  0  0  0  0  0  0  0
   -2.1470    1.7537    0.0000 C   0  0  0  0  0  0  0  0  0  0  0  0
   -1.8351    3.2209    0.0000 C   0  0  0  0  0  0  0  0  0  0  0  0
   -2.9499    4.2246    0.0000 Br  0  0  0  0  0  0  0  0  0  0  0  0
   -0.4086    3.6844    0.0000 C   0  0  0  0  0  0  0  0  0  0  0  0
    0.7062    2.6807    0.0000 N   0  0  0  0  0  0  0  0  0  0  0  0
    0.3943    1.2135    0.0000 C   0  0  0  0  0  0  0  0  0  0  0  0
    1.2760    0.0000    0.0000 N   0  0  0  0  0  0  0  0  0  0  0  0
    0.3943   -1.2135    0.0000 C   0  0  0  0  0  0  0  0  0  0  0  0
    0.8578   -2.6401    0.0000 C   0  0  0  0  0  0  0  0  0  0  0  0
   -0.1459   -3.7548    0.0000 C   0  0  0  0  0  0  0  0  0  0  0  0
    0.3177   -5.1814    0.0000 C   0  0  0  0  0  0  0  0  0  0  0  0
    1.7849   -5.4933    0.0000 C   0  0  0  0  0  0  0  0  0  0  0  0
    2.2484   -6.9199    0.0000 C   0  0  0  0  0  0  0  0  0  0  0  0
    1.2447   -8.0346    0.0000 N   0  0  0  0  0  0  0  0  0  0  0  0
   -0.2225   -7.7227    0.0000 C   0  0  0  0  0  0  0  0  0  0  0  0
   -1.2262   -8.8374    0.0000 C   0  0  0  0  0  0  0  0  0  0  0  0
   -0.7627  -10.2640    0.0000 O   0  0  0  0  0  0  0  0  0  0  0  0
    0.7045  -10.5759    0.0000 C   0  0  0  0  0  0  0  0  0  0  0  0
    1.7082   -9.4612    0.0000 C   0  0  0  0  0  0  0  0  0  0  0  0
    2.7886   -4.3786    0.0000 C   0  0  0  0  0  0  0  0  0  0  0  0
    2.3250   -2.9520    0.0000 C   0  0  0  0  0  0  0  0  0  0  0  0
   -1.0323   -0.7500    0.0000 N   0  0  0  0  0  0  0  0  0  0  0  0
   -1.0323    0.7500    0.0000 C   0  0  0  0  0  0  0  0  0  0  0  0
   -4.6883    2.2939    0.0000 C   0  0  0  0  0  0  0  0  0  0  0  0
   -6.1149    1.8303    0.0000 C   0  0  0  0  0  0  0  0  0  0  0  0
  -10.3946    0.4398    0.0000 C   0  0  0  0  0  0  0  0  0  0  0  0
  -11.5094    1.4435    0.0000 C   0  0  0  0  0  0  0  0  0  0  0  0
  1  2  1  0
  2  3  2  0
  3  4  1  0
  4  5  2  0
  5  6  1  0
  6  7  1  0
  7  8  1  0
  8  9  1  0
  9 10  1  0
 10 11  1  0
 11 12  2  0
 12 13  1  0
 12 14  1  0
 14 15  2  0
 15 16  1  0
 16 17  1  0
 17 18  1  0
 18 19  1  0
 19 20  2  0
 20 21  1  0
 21 22  2  0
 22 23  1  0
 23 24  1  0
 24 25  1  0
 25 26  1  0
 26 27  1  0
 27 28  1  0
 28 29  1  0
 22 30  1  0
 30 31  2  0
 18 32  2  0
 32 33  1  0
 10 34  1  0
 34 35  1  0
  5 36  1  0
 36 37  2  0
 37  2  1  0
 35  7  1  0
 33 11  1  0
 33 16  2  0
 31 19  1  0
 29 24  1  0
M  END
>  <Compound_ID>  (186) 
CHEMBL1083772

>  <Molecule Name>  (186) 
nan

>  <Molecular Weight>  (186) 
581.95

>  <AlogP>  (186) 
5.20

>  <Smiles>  (186) 
Clc1ccc(CN2CCN(c3c(Br)cnc4[nH]c(-c5ccc(CN6CCOCC6)cc5)nc34)CC2)cc1

>  <Standard Type>  (186) 
Inhibition

>  <Standard Relation>  (186) 
'='

>  <Standard Units>  (186) 
%

>  <Standard Value>  (186) 
3.0

>  <Assay ChEMBL ID>  (186) 
CHEMBL1119048

>  <Assay Description>  (186) 
Inhibition of MET at 1 uM

>  <BAO Format ID>  (186) 
BAO_0000357

>  <BAO Label>  (186) 
single protein format

>  <Assay Organism>  (186) 
None

>  <Target ChEMBL ID>  (186) 
CHEMBL3717

>  <Target Name>  (186) 
Hepatocyte growth factor receptor

>  <Target Organism>  (186) 
Homo sapiens

>  <Target Type>  (186) 
SINGLE PROTEIN

>  <Document ChEMBL ID>  (186) 
CHEMBL1155446

>  <Source Description>  (186) 
Scientific Literature

>  <Document Journal>  (186) 
J Med Chem

>  <Document Year>  (186) 
2010.0

>  <Active>  (186) 
0.0

$$$$

     RDKit          2D

 38 42  0  0  0  0  0  0  0  0999 V2000
   -3.8230    3.5974    0.0000 O   0  0  0  0  0  0  0  0  0  0  0  0
   -2.4186    3.0703    0.0000 C   0  0  0  0  0  0  0  0  0  0  0  0
   -1.3344    4.1069    0.0000 C   0  0  0  0  0  0  0  0  0  0  0  0
    0.1520    3.9056    0.0000 C   0  0  0  0  0  0  0  0  0  0  0  0
    0.9784    5.1574    0.0000 C   0  0  0  0  0  0  0  0  0  0  0  0
    2.4757    5.0677    0.0000 C   0  0  0  0  0  0  0  0  0  0  0  0
    3.3020    6.3196    0.0000 C   0  0  0  0  0  0  0  0  0  0  0  0
    2.6310    7.6611    0.0000 C   0  0  0  0  0  0  0  0  0  0  0  0
    1.1337    7.7508    0.0000 C   0  0  0  0  0  0  0  0  0  0  0  0
    0.4628    9.0924    0.0000 N   0  0  0  0  0  0  0  0  0  0  0  0
    1.2891   10.3443    0.0000 C   0  0  0  0  0  0  0  0  0  0  0  0
    2.7864   10.2546    0.0000 O   0  0  0  0  0  0  0  0  0  0  0  0
    0.6181   11.6858    0.0000 C   0  0  0  0  0  0  0  0  0  0  0  0
    1.4445   12.9377    0.0000 C   0  0  0  0  0  0  0  0  0  0  0  0
    0.7735   14.2793    0.0000 C   0  0  0  0  0  0  0  0  0  0  0  0
   -0.7238   14.3690    0.0000 C   0  0  0  0  0  0  0  0  0  0  0  0
   -1.3948   15.7105    0.0000 Cl  0  0  0  0  0  0  0  0  0  0  0  0
   -1.5501   13.1171    0.0000 C   0  0  0  0  0  0  0  0  0  0  0  0
   -3.0475   13.2068    0.0000 C   0  0  0  0  0  0  0  0  0  0  0  0
   -4.5448   13.2965    0.0000 F   0  0  0  0  0  0  0  0  0  0  0  0
   -3.1372   11.7095    0.0000 F   0  0  0  0  0  0  0  0  0  0  0  0
   -2.9578   14.7041    0.0000 F   0  0  0  0  0  0  0  0  0  0  0  0
   -0.8792   11.7755    0.0000 C   0  0  0  0  0  0  0  0  0  0  0  0
    0.3074    6.4990    0.0000 C   0  0  0  0  0  0  0  0  0  0  0  0
    0.9214    2.6179    0.0000 N   0  0  0  0  0  0  0  0  0  0  0  0
    0.3943    1.2135    0.0000 C   0  0  0  0  0  0  0  0  0  0  0  0
    1.2760    0.0000    0.0000 C   0  0  0  0  0  0  0  0  0  0  0  0
    0.3943   -1.2135    0.0000 N   0  0  0  0  0  0  0  0  0  0  0  0
   -1.0323   -0.7500    0.0000 N   0  0  0  0  0  0  0  0  0  0  0  0
   -2.2458   -1.6317    0.0000 C   0  0  0  0  0  0  0  0  0  0  0  0
   -2.0890   -3.1235    0.0000 C   0  0  0  0  0  0  0  0  0  0  0  0
   -3.3025   -4.0051    0.0000 C   0  0  0  0  0  0  0  0  0  0  0  0
   -3.1458   -5.4969    0.0000 C   0  0  0  0  0  0  0  0  0  0  0  0
   -1.7754   -6.1070    0.0000 C   0  0  0  0  0  0  0  0  0  0  0  0
   -0.5619   -5.2253    0.0000 C   0  0  0  0  0  0  0  0  0  0  0  0
   -0.7187   -3.7336    0.0000 C   0  0  0  0  0  0  0  0  0  0  0  0
   -1.0323    0.7500    0.0000 C   0  0  0  0  0  0  0  0  0  0  0  0
   -2.2841    1.5763    0.0000 N   0  0  0  0  0  0  0  0  0  0  0  0
  1  2  2  0
  2  3  1  0
  3  4  1  0
  4  5  1  0
  5  6  2  0
  6  7  1  0
  7  8  2  0
  8  9  1  0
  9 10  1  0
 10 11  1  0
 11 12  2  0
 11 13  1  0
 13 14  2  0
 14 15  1  0
 15 16  2  0
 16 17  1  0
 16 18  1  0
 18 19  1  0
 19 20  1  0
 19 21  1  0
 19 22  1  0
 18 23  2  0
  9 24  2  0
  4 25  2  0
 25 26  1  0
 26 27  1  0
 27 28  2  0
 28 29  1  0
 29 30  1  0
 30 31  1  0
 31 32  2  0
 32 33  1  0
 33 34  2  0
 34 35  1  0
 35 36  2  0
 29 37  1  0
 37 38  1  0
 38  2  1  0
 24  5  1  0
 37 26  2  0
 23 13  1  0
 36 31  1  0
M  END
>  <Compound_ID>  (187) 
CHEMBL1917776

>  <Molecule Name>  (187) 
nan

>  <Molecular Weight>  (187) 
537.93

>  <AlogP>  (187) 
6.32

>  <Smiles>  (187) 
O=C1CC(c2cccc(NC(=O)c3ccc(Cl)c(C(F)(F)F)c3)c2)=Nc2cnn(Cc3ccccc3)c2N1

>  <Standard Type>  (187) 
Inhibition

>  <Standard Relation>  (187) 
'='

>  <Standard Units>  (187) 
%

>  <Standard Value>  (187) 
1.3

>  <Assay ChEMBL ID>  (187) 
CHEMBL1921425

>  <Assay Description>  (187) 
Inhibition of cMet at 10 uM

>  <BAO Format ID>  (187) 
BAO_0000357

>  <BAO Label>  (187) 
single protein format

>  <Assay Organism>  (187) 
None

>  <Target ChEMBL ID>  (187) 
CHEMBL3717

>  <Target Name>  (187) 
Hepatocyte growth factor receptor

>  <Target Organism>  (187) 
Homo sapiens

>  <Target Type>  (187) 
SINGLE PROTEIN

>  <Document ChEMBL ID>  (187) 
CHEMBL1914457

>  <Source Description>  (187) 
Scientific Literature

>  <Document Journal>  (187) 
Bioorg Med Chem

>  <Document Year>  (187) 
2011.0

>  <Active>  (187) 
0.0

$$$$

     RDKit          2D

 25 28  0  0  0  0  0  0  0  0999 V2000
    1.5000    0.0000    0.0000 C   0  0  0  0  0  0  0  0  0  0  0  0
    0.7500   -1.2990    0.0000 C   0  0  0  0  0  0  0  0  0  0  0  0
   -0.7500   -1.2990    0.0000 C   0  0  0  0  0  0  0  0  0  0  0  0
   -1.5000    0.0000    0.0000 C   0  0  0  0  0  0  0  0  0  0  0  0
   -3.0000    0.0000    0.0000 O   0  0  0  0  0  0  0  0  0  0  0  0
   -3.7500    1.2990    0.0000 C   0  0  0  0  0  0  0  0  0  0  0  0
   -3.0000    2.5981    0.0000 C   0  0  0  0  0  0  0  0  0  0  0  0
   -3.7500    3.8971    0.0000 C   0  0  0  0  0  0  0  0  0  0  0  0
   -5.2500    3.8971    0.0000 C   0  0  0  0  0  0  0  0  0  0  0  0
   -6.0000    5.1962    0.0000 N   0  0  0  0  0  0  0  0  0  0  0  0
   -5.2500    6.4952    0.0000 C   0  0  0  0  0  0  0  0  0  0  0  0
   -5.8601    7.8655    0.0000 N   0  0  0  0  0  0  0  0  0  0  0  0
   -4.7454    8.8692    0.0000 C   0  0  0  0  0  0  0  0  0  0  0  0
   -3.4463    8.1192    0.0000 C   0  0  0  0  0  0  0  0  0  0  0  0
   -2.0760    8.7293    0.0000 C   0  0  0  0  0  0  0  0  0  0  0  0
   -0.8625    7.8476    0.0000 C   0  0  0  0  0  0  0  0  0  0  0  0
    0.5078    8.4577    0.0000 C   0  0  0  0  0  0  0  0  0  0  0  0
    0.6646    9.9495    0.0000 C   0  0  0  0  0  0  0  0  0  0  0  0
   -0.5489   10.8312    0.0000 C   0  0  0  0  0  0  0  0  0  0  0  0
   -1.9192   10.2211    0.0000 C   0  0  0  0  0  0  0  0  0  0  0  0
   -3.7582    6.6520    0.0000 O   0  0  0  0  0  0  0  0  0  0  0  0
   -6.0000    2.5981    0.0000 C   0  0  0  0  0  0  0  0  0  0  0  0
   -5.2500    1.2990    0.0000 C   0  0  0  0  0  0  0  0  0  0  0  0
   -0.7500    1.2990    0.0000 C   0  0  0  0  0  0  0  0  0  0  0  0
    0.7500    1.2990    0.0000 C   0  0  0  0  0  0  0  0  0  0  0  0
  1  2  2  0
  2  3  1  0
  3  4  2  0
  4  5  1  0
  5  6  1  0
  6  7  2  0
  7  8  1  0
  8  9  2  0
  9 10  1  0
 10 11  1  0
 11 12  2  0
 12 13  1  0
 13 14  2  0
 14 15  1  0
 15 16  2  0
 16 17  1  0
 17 18  2  0
 18 19  1  0
 19 20  2  0
 14 21  1  0
  9 22  1  0
 22 23  2  0
  4 24  1  0
 24 25  2  0
 25  1  1  0
 23  6  1  0
 21 11  1  0
 20 15  1  0
M  END
>  <Compound_ID>  (188) 
CHEMBL1909341

>  <Molecule Name>  (188) 
GW641155A

>  <Molecular Weight>  (188) 
364.83

>  <AlogP>  (188) 
5.88

>  <Smiles>  (188) 
c1ccc(Oc2ccc(Nc3ncc(-c4ccccc4)o3)cc2)cc1

>  <Standard Type>  (188) 
Inhibition

>  <Standard Relation>  (188) 
'='

>  <Standard Units>  (188) 
%

>  <Standard Value>  (188) 
7.6

>  <Assay ChEMBL ID>  (188) 
CHEMBL1962143

>  <Assay Description>  (188) 
GSK_PKIS: MET mean inhibition at 1 uM [Nanosyn]

>  <BAO Format ID>  (188) 
BAO_0000357

>  <BAO Label>  (188) 
single protein format

>  <Assay Organism>  (188) 
None

>  <Target ChEMBL ID>  (188) 
CHEMBL3717

>  <Target Name>  (188) 
Hepatocyte growth factor receptor

>  <Target Organism>  (188) 
Homo sapiens

>  <Target Type>  (188) 
SINGLE PROTEIN

>  <Document ChEMBL ID>  (188) 
CHEMBL1961873

>  <Source Description>  (188) 
GSK Published Kinase Inhibitor Set

>  <Document Journal>  (188) 
nan

>  <Document Year>  (188) 
nan

>  <Active>  (188) 
0.0

$$$$

     RDKit          2D

 21 23  0  0  0  0  0  0  0  0999 V2000
    4.0667   -3.6527    0.0000 N   0  0  0  0  0  0  0  0  0  0  0  0
    2.6401   -3.1891    0.0000 C   0  0  0  0  0  0  0  0  0  0  0  0
    1.2135   -2.7256    0.0000 C   0  0  0  0  0  0  0  0  0  0  0  0
   -0.0000   -3.6073    0.0000 C   0  0  0  0  0  0  0  0  0  0  0  0
   -0.0000   -5.1073    0.0000 N   0  0  0  0  0  0  0  0  0  0  0  0
   -1.2990   -5.8573    0.0000 C   0  0  0  0  0  0  0  0  0  0  0  0
   -2.5981   -5.1073    0.0000 O   0  0  0  0  0  0  0  0  0  0  0  0
   -1.2990   -7.3573    0.0000 C   0  0  0  0  0  0  0  0  0  0  0  0
   -2.5981   -8.1073    0.0000 N   0  0  0  0  0  0  0  0  0  0  0  0
   -3.8971   -7.3573    0.0000 C   0  0  0  0  0  0  0  0  0  0  0  0
   -5.1962   -8.1073    0.0000 C   0  0  0  0  0  0  0  0  0  0  0  0
   -5.1962   -9.6073    0.0000 O   0  0  0  0  0  0  0  0  0  0  0  0
   -3.8971  -10.3573    0.0000 C   0  0  0  0  0  0  0  0  0  0  0  0
   -2.5981   -9.6073    0.0000 C   0  0  0  0  0  0  0  0  0  0  0  0
   -1.2135   -2.7256    0.0000 S   0  0  0  0  0  0  0  0  0  0  0  0
   -0.7500   -1.2990    0.0000 C   0  0  0  0  0  0  0  0  0  0  0  0
    0.7500   -1.2990    0.0000 C   0  0  0  0  0  0  0  0  0  0  0  0
    1.5000    0.0000    0.0000 C   0  0  0  0  0  0  0  0  0  0  0  0
    0.7500    1.2990    0.0000 C   0  0  0  0  0  0  0  0  0  0  0  0
   -0.7500    1.2990    0.0000 C   0  0  0  0  0  0  0  0  0  0  0  0
   -1.5000    0.0000    0.0000 C   0  0  0  0  0  0  0  0  0  0  0  0
  1  2  3  0
  2  3  1  0
  3  4  2  0
  4  5  1  0
  5  6  1  0
  6  7  2  0
  6  8  1  0
  8  9  1  0
  9 10  1  0
 10 11  1  0
 11 12  1  0
 12 13  1  0
 13 14  1  0
  4 15  1  0
 15 16  1  0
 16 17  2  0
 17 18  1  0
 18 19  1  0
 19 20  1  0
 20 21  1  0
 17  3  1  0
 14  9  1  0
 21 16  1  0
M  END
>  <Compound_ID>  (189) 
CHEMBL1909342

>  <Molecule Name>  (189) 
nan

>  <Molecular Weight>  (189) 
395.44

>  <AlogP>  (189) 
1.77

>  <Smiles>  (189) 
N#Cc1c(NC(=O)CN2CCOCC2)sc2c1CCCC2

>  <Standard Type>  (189) 
Inhibition

>  <Standard Relation>  (189) 
'='

>  <Standard Units>  (189) 
%

>  <Standard Value>  (189) 
13.03

>  <Assay ChEMBL ID>  (189) 
CHEMBL1962143

>  <Assay Description>  (189) 
GSK_PKIS: MET mean inhibition at 1 uM [Nanosyn]

>  <BAO Format ID>  (189) 
BAO_0000357

>  <BAO Label>  (189) 
single protein format

>  <Assay Organism>  (189) 
None

>  <Target ChEMBL ID>  (189) 
CHEMBL3717

>  <Target Name>  (189) 
Hepatocyte growth factor receptor

>  <Target Organism>  (189) 
Homo sapiens

>  <Target Type>  (189) 
SINGLE PROTEIN

>  <Document ChEMBL ID>  (189) 
CHEMBL1961873

>  <Source Description>  (189) 
GSK Published Kinase Inhibitor Set

>  <Document Journal>  (189) 
nan

>  <Document Year>  (189) 
nan

>  <Active>  (189) 
0.0

$$$$

     RDKit          2D

 24 26  0  0  0  0  0  0  0  0999 V2000
    5.2500   -1.2990    0.0000 C   0  0  0  0  0  0  0  0  0  0  0  0
    3.7500   -1.2990    0.0000 O   0  0  0  0  0  0  0  0  0  0  0  0
    3.0000    0.0000    0.0000 C   0  0  0  0  0  0  0  0  0  0  0  0
    3.7500    1.2990    0.0000 O   0  0  0  0  0  0  0  0  0  0  0  0
    1.5000    0.0000    0.0000 C   0  0  0  0  0  0  0  0  0  0  0  0
    0.7500   -1.2990    0.0000 C   0  0  0  0  0  0  0  0  0  0  0  0
   -0.7500   -1.2990    0.0000 C   0  0  0  0  0  0  0  0  0  0  0  0
   -1.5000    0.0000    0.0000 C   0  0  0  0  0  0  0  0  0  0  0  0
   -0.7500    1.2990    0.0000 C   0  0  0  0  0  0  0  0  0  0  0  0
    0.7500    1.2990    0.0000 C   0  0  0  0  0  0  0  0  0  0  0  0
   -1.7537    2.4138    0.0000 C   0  0  0  0  0  0  0  0  0  0  0  0
   -1.4418    3.8810    0.0000 C   0  0  0  0  0  0  0  0  0  0  0  0
   -2.5565    4.8847    0.0000 C   0  0  0  0  0  0  0  0  0  0  0  0
   -2.2447    6.3519    0.0000 C   0  0  0  0  0  0  0  0  0  0  0  0
   -3.3594    7.3556    0.0000 C   0  0  0  0  0  0  0  0  0  0  0  0
   -3.0475    8.8228    0.0000 Br  0  0  0  0  0  0  0  0  0  0  0  0
   -4.7860    6.8921    0.0000 C   0  0  0  0  0  0  0  0  0  0  0  0
   -5.9007    7.8958    0.0000 O   0  0  0  0  0  0  0  0  0  0  0  0
   -5.0978    5.4248    0.0000 C   0  0  0  0  0  0  0  0  0  0  0  0
   -6.5244    4.9613    0.0000 Br  0  0  0  0  0  0  0  0  0  0  0  0
   -3.9831    4.4211    0.0000 C   0  0  0  0  0  0  0  0  0  0  0  0
   -3.1240    1.8037    0.0000 C   0  0  0  0  0  0  0  0  0  0  0  0
   -4.4231    2.5537    0.0000 O   0  0  0  0  0  0  0  0  0  0  0  0
   -2.9672    0.3119    0.0000 N   0  0  0  0  0  0  0  0  0  0  0  0
  1  2  1  0
  2  3  1  0
  3  4  2  0
  3  5  1  0
  5  6  2  0
  6  7  1  0
  7  8  2  0
  8  9  1  0
  9 10  2  0
  9 11  1  0
 11 12  2  3
 12 13  1  0
 13 14  2  0
 14 15  1  0
 15 16  1  0
 15 17  2  0
 17 18  1  0
 17 19  1  0
 19 20  1  0
 19 21  2  0
 11 22  1  0
 22 23  2  0
 22 24  1  0
 10  5  1  0
 21 13  1  0
 24  8  1  0
M  END
>  <Compound_ID>  (190) 
CHEMBL1794052

>  <Molecule Name>  (190) 
GW405841X

>  <Molecular Weight>  (190) 
453.09

>  <AlogP>  (190) 
4.20

>  <Smiles>  (190) 
COC(=O)c1ccc2c(c1)C(=Cc1cc(Br)c(O)c(Br)c1)C(=O)N2

>  <Standard Type>  (190) 
Inhibition

>  <Standard Relation>  (190) 
'='

>  <Standard Units>  (190) 
%

>  <Standard Value>  (190) 
2.4

>  <Assay ChEMBL ID>  (190) 
CHEMBL1962142

>  <Assay Description>  (190) 
GSK_PKIS: MET mean inhibition at 0.1 uM [Nanosyn]

>  <BAO Format ID>  (190) 
BAO_0000357

>  <BAO Label>  (190) 
single protein format

>  <Assay Organism>  (190) 
None

>  <Target ChEMBL ID>  (190) 
CHEMBL3717

>  <Target Name>  (190) 
Hepatocyte growth factor receptor

>  <Target Organism>  (190) 
Homo sapiens

>  <Target Type>  (190) 
SINGLE PROTEIN

>  <Document ChEMBL ID>  (190) 
CHEMBL1961873

>  <Source Description>  (190) 
GSK Published Kinase Inhibitor Set

>  <Document Journal>  (190) 
nan

>  <Document Year>  (190) 
nan

>  <Active>  (190) 
0.0

$$$$

     RDKit          2D

 22 25  0  0  0  0  0  0  0  0999 V2000
   -4.6740   -7.4303    0.0000 N   0  0  0  0  0  0  0  0  0  0  0  0
   -3.3037   -6.8202    0.0000 C   0  0  0  0  0  0  0  0  0  0  0  0
   -2.0046   -7.5702    0.0000 N   0  0  0  0  0  0  0  0  0  0  0  0
   -0.8899   -6.5665    0.0000 C   0  0  0  0  0  0  0  0  0  0  0  0
    0.5773   -6.8783    0.0000 C   0  0  0  0  0  0  0  0  0  0  0  0
    1.0409   -8.3049    0.0000 C   0  0  0  0  0  0  0  0  0  0  0  0
    2.5081   -8.6168    0.0000 C   0  0  0  0  0  0  0  0  0  0  0  0
    3.5118   -7.5021    0.0000 C   0  0  0  0  0  0  0  0  0  0  0  0
    3.0482   -6.0755    0.0000 C   0  0  0  0  0  0  0  0  0  0  0  0
    1.5810   -5.7636    0.0000 N   0  0  0  0  0  0  0  0  0  0  0  0
   -1.5000   -5.1962    0.0000 C   0  0  0  0  0  0  0  0  0  0  0  0
   -0.7500   -3.8971    0.0000 C   0  0  0  0  0  0  0  0  0  0  0  0
    0.7500   -3.8971    0.0000 C   0  0  0  0  0  0  0  0  0  0  0  0
    1.5000   -2.5981    0.0000 C   0  0  0  0  0  0  0  0  0  0  0  0
    0.7500   -1.2990    0.0000 C   0  0  0  0  0  0  0  0  0  0  0  0
    1.5000    0.0000    0.0000 N   0  0  0  0  0  0  0  0  0  0  0  0
    0.7500    1.2990    0.0000 C   0  0  0  0  0  0  0  0  0  0  0  0
   -0.7500    1.2990    0.0000 C   0  0  0  0  0  0  0  0  0  0  0  0
   -1.5000    0.0000    0.0000 C   0  0  0  0  0  0  0  0  0  0  0  0
   -0.7500   -1.2990    0.0000 C   0  0  0  0  0  0  0  0  0  0  0  0
   -1.5000   -2.5981    0.0000 N   0  0  0  0  0  0  0  0  0  0  0  0
   -2.9918   -5.3529    0.0000 S   0  0  0  0  0  0  0  0  0  0  0  0
  1  2  1  0
  2  3  2  0
  3  4  1  0
  4  5  1  0
  5  6  2  0
  6  7  1  0
  7  8  2  0
  8  9  1  0
  9 10  2  0
  4 11  2  0
 11 12  1  0
 12 13  2  0
 13 14  1  0
 14 15  2  0
 15 16  1  0
 16 17  2  0
 17 18  1  0
 18 19  2  0
 19 20  1  0
 20 21  2  0
 11 22  1  0
 22  2  1  0
 10  5  1  0
 21 12  1  0
 20 15  1  0
M  END
>  <Compound_ID>  (191) 
CHEMBL181361

>  <Molecule Name>  (191) 
GW693481X

>  <Molecular Weight>  (191) 
305.37

>  <AlogP>  (191) 
3.40

>  <Smiles>  (191) 
Nc1nc(-c2ccccn2)c(-c2ccc3ncccc3n2)s1

>  <Standard Type>  (191) 
Inhibition

>  <Standard Relation>  (191) 
'='

>  <Standard Units>  (191) 
%

>  <Standard Value>  (191) 
2.46

>  <Assay ChEMBL ID>  (191) 
CHEMBL1962142

>  <Assay Description>  (191) 
GSK_PKIS: MET mean inhibition at 0.1 uM [Nanosyn]

>  <BAO Format ID>  (191) 
BAO_0000357

>  <BAO Label>  (191) 
single protein format

>  <Assay Organism>  (191) 
None

>  <Target ChEMBL ID>  (191) 
CHEMBL3717

>  <Target Name>  (191) 
Hepatocyte growth factor receptor

>  <Target Organism>  (191) 
Homo sapiens

>  <Target Type>  (191) 
SINGLE PROTEIN

>  <Document ChEMBL ID>  (191) 
CHEMBL1961873

>  <Source Description>  (191) 
GSK Published Kinase Inhibitor Set

>  <Document Journal>  (191) 
nan

>  <Document Year>  (191) 
nan

>  <Active>  (191) 
0.0

$$$$

     RDKit          2D

 34 38  0  0  0  0  0  0  0  0999 V2000
   -1.6768  -15.1430    0.0000 C   0  0  0  0  0  0  0  0  0  0  0  0
   -1.5200  -13.6512    0.0000 N   0  0  0  0  0  0  0  0  0  0  0  0
   -2.7335  -12.7695    0.0000 C   0  0  0  0  0  0  0  0  0  0  0  0
   -0.1497  -13.0411    0.0000 C   0  0  0  0  0  0  0  0  0  0  0  0
    0.0071  -11.5493    0.0000 C   0  0  0  0  0  0  0  0  0  0  0  0
    1.3774  -10.9392    0.0000 O   0  0  0  0  0  0  0  0  0  0  0  0
    1.5342   -9.4474    0.0000 C   0  0  0  0  0  0  0  0  0  0  0  0
    0.3207   -8.5658    0.0000 C   0  0  0  0  0  0  0  0  0  0  0  0
    0.4775   -7.0740    0.0000 C   0  0  0  0  0  0  0  0  0  0  0  0
    1.8478   -6.4639    0.0000 C   0  0  0  0  0  0  0  0  0  0  0  0
    2.0046   -4.9721    0.0000 C   0  0  0  0  0  0  0  0  0  0  0  0
    0.8899   -3.9684    0.0000 C   0  0  0  0  0  0  0  0  0  0  0  0
    1.5000   -2.5981    0.0000 C   0  0  0  0  0  0  0  0  0  0  0  0
    0.7500   -1.2990    0.0000 C   0  0  0  0  0  0  0  0  0  0  0  0
    1.5000    0.0000    0.0000 C   0  0  0  0  0  0  0  0  0  0  0  0
    0.7500    1.2990    0.0000 C   0  0  0  0  0  0  0  0  0  0  0  0
   -0.7500    1.2990    0.0000 C   0  0  0  0  0  0  0  0  0  0  0  0
   -1.5000    0.0000    0.0000 C   0  0  0  0  0  0  0  0  0  0  0  0
   -0.7500   -1.2990    0.0000 C   0  0  0  0  0  0  0  0  0  0  0  0
   -2.9672    0.3119    0.0000 C   0  0  0  0  0  0  0  0  0  0  0  0
   -3.1240    1.8037    0.0000 C   0  0  0  0  0  0  0  0  0  0  0  0
   -1.7537    2.4138    0.0000 C   0  0  0  0  0  0  0  0  0  0  0  0
   -1.4418    3.8810    0.0000 N   0  0  0  0  0  0  0  0  0  0  0  0
   -2.5565    4.8847    0.0000 O   0  0  0  0  0  0  0  0  0  0  0  0
    2.9918   -2.7549    0.0000 C   0  0  0  0  0  0  0  0  0  0  0  0
    3.9955   -1.6402    0.0000 C   0  0  0  0  0  0  0  0  0  0  0  0
    5.4627   -1.9520    0.0000 C   0  0  0  0  0  0  0  0  0  0  0  0
    6.4664   -0.8373    0.0000 C   0  0  0  0  0  0  0  0  0  0  0  0
    6.0029    0.5893    0.0000 N   0  0  0  0  0  0  0  0  0  0  0  0
    4.5356    0.9012    0.0000 C   0  0  0  0  0  0  0  0  0  0  0  0
    3.5320   -0.2136    0.0000 C   0  0  0  0  0  0  0  0  0  0  0  0
    3.3037   -4.2221    0.0000 O   0  0  0  0  0  0  0  0  0  0  0  0
    3.0613   -7.3456    0.0000 C   0  0  0  0  0  0  0  0  0  0  0  0
    2.9046   -8.8373    0.0000 C   0  0  0  0  0  0  0  0  0  0  0  0
  1  2  1  0
  2  3  1  0
  2  4  1  0
  4  5  1  0
  5  6  1  0
  6  7  1  0
  7  8  2  0
  8  9  1  0
  9 10  2  0
 10 11  1  0
 11 12  2  0
 12 13  1  0
 13 14  1  0
 14 15  2  0
 15 16  1  0
 16 17  2  0
 17 18  1  0
 18 19  2  0
 18 20  1  0
 20 21  1  0
 21 22  1  0
 22 23  2  3
 23 24  1  0
 13 25  2  0
 25 26  1  0
 26 27  2  0
 27 28  1  0
 28 29  2  0
 29 30  1  0
 30 31  2  0
 25 32  1  0
 10 33  1  0
 33 34  2  0
 34  7  1  0
 32 11  1  0
 19 14  1  0
 31 26  1  0
 22 17  1  0
M  END
>  <Compound_ID>  (192) 
CHEMBL1794072

>  <Molecule Name>  (192) 
nan

>  <Molecular Weight>  (192) 
490.00

>  <AlogP>  (192) 
5.74

>  <Smiles>  (192) 
CN(C)CCOc1ccc(-c2cc(-c3ccc4c(c3)CCC4=NO)c(-c3ccncc3)o2)cc1

>  <Standard Type>  (192) 
Inhibition

>  <Standard Relation>  (192) 
'='

>  <Standard Units>  (192) 
%

>  <Standard Value>  (192) 
5.81

>  <Assay ChEMBL ID>  (192) 
CHEMBL1962143

>  <Assay Description>  (192) 
GSK_PKIS: MET mean inhibition at 1 uM [Nanosyn]

>  <BAO Format ID>  (192) 
BAO_0000357

>  <BAO Label>  (192) 
single protein format

>  <Assay Organism>  (192) 
None

>  <Target ChEMBL ID>  (192) 
CHEMBL3717

>  <Target Name>  (192) 
Hepatocyte growth factor receptor

>  <Target Organism>  (192) 
Homo sapiens

>  <Target Type>  (192) 
SINGLE PROTEIN

>  <Document ChEMBL ID>  (192) 
CHEMBL1961873

>  <Source Description>  (192) 
GSK Published Kinase Inhibitor Set

>  <Document Journal>  (192) 
nan

>  <Document Year>  (192) 
nan

>  <Active>  (192) 
0.0

$$$$

     RDKit          2D

 23 26  0  0  0  0  0  0  0  0999 V2000
   -0.0000   -5.1073    0.0000 O   0  0  0  0  0  0  0  0  0  0  0  0
   -0.0000   -3.6073    0.0000 C   0  0  0  0  0  0  0  0  0  0  0  0
    1.2135   -2.7256    0.0000 N   0  0  0  0  0  0  0  0  0  0  0  0
    0.7500   -1.2990    0.0000 C   0  0  0  0  0  0  0  0  0  0  0  0
    1.5000    0.0000    0.0000 C   0  0  0  0  0  0  0  0  0  0  0  0
    0.7500    1.2990    0.0000 C   0  0  0  0  0  0  0  0  0  0  0  0
   -0.7500    1.2990    0.0000 C   0  0  0  0  0  0  0  0  0  0  0  0
   -1.5000    0.0000    0.0000 C   0  0  0  0  0  0  0  0  0  0  0  0
   -0.7500   -1.2990    0.0000 C   0  0  0  0  0  0  0  0  0  0  0  0
   -1.2135   -2.7256    0.0000 C   0  0  0  0  0  0  0  0  0  0  0  0
   -2.6401   -3.1891    0.0000 C   0  0  0  0  0  0  0  0  0  0  0  0
   -2.9520   -4.6564    0.0000 N   0  0  0  0  0  0  0  0  0  0  0  0
   -4.3786   -5.1199    0.0000 C   0  0  0  0  0  0  0  0  0  0  0  0
   -5.4933   -4.1162    0.0000 C   0  0  0  0  0  0  0  0  0  0  0  0
   -6.9199   -4.5797    0.0000 C   0  0  0  0  0  0  0  0  0  0  0  0
   -7.2317   -6.0469    0.0000 C   0  0  0  0  0  0  0  0  0  0  0  0
   -8.6583   -6.5105    0.0000 N   0  0  0  0  0  0  0  0  0  0  0  0
   -9.1218   -7.9371    0.0000 C   0  0  0  0  0  0  0  0  0  0  0  0
  -10.6218   -7.9371    0.0000 N   0  0  0  0  0  0  0  0  0  0  0  0
  -11.0854   -6.5105    0.0000 C   0  0  0  0  0  0  0  0  0  0  0  0
   -9.8718   -5.6288    0.0000 N   0  0  0  0  0  0  0  0  0  0  0  0
   -6.1170   -7.0506    0.0000 C   0  0  0  0  0  0  0  0  0  0  0  0
   -4.6904   -6.5871    0.0000 C   0  0  0  0  0  0  0  0  0  0  0  0
  1  2  2  0
  2  3  1  0
  3  4  1  0
  4  5  2  0
  5  6  1  0
  6  7  2  0
  7  8  1  0
  8  9  2  0
  9 10  1  0
 10 11  2  0
 11 12  1  0
 12 13  1  0
 13 14  2  0
 14 15  1  0
 15 16  2  0
 16 17  1  0
 17 18  1  0
 18 19  2  0
 19 20  1  0
 20 21  2  0
 16 22  1  0
 22 23  2  0
 10  2  1  0
 23 13  1  0
  9  4  1  0
 21 17  1  0
M  END
>  <Compound_ID>  (193) 
CHEMBL1794056

>  <Molecule Name>  (193) 
GW301789X

>  <Molecular Weight>  (193) 
303.32

>  <AlogP>  (193) 
2.67

>  <Smiles>  (193) 
O=C1Nc2ccccc2/C1=C/Nc1ccc(-n2cncn2)cc1

>  <Standard Type>  (193) 
Inhibition

>  <Standard Relation>  (193) 
'='

>  <Standard Units>  (193) 
%

>  <Standard Value>  (193) 
5.14

>  <Assay ChEMBL ID>  (193) 
CHEMBL1962142

>  <Assay Description>  (193) 
GSK_PKIS: MET mean inhibition at 0.1 uM [Nanosyn]

>  <BAO Format ID>  (193) 
BAO_0000357

>  <BAO Label>  (193) 
single protein format

>  <Assay Organism>  (193) 
None

>  <Target ChEMBL ID>  (193) 
CHEMBL3717

>  <Target Name>  (193) 
Hepatocyte growth factor receptor

>  <Target Organism>  (193) 
Homo sapiens

>  <Target Type>  (193) 
SINGLE PROTEIN

>  <Document ChEMBL ID>  (193) 
CHEMBL1961873

>  <Source Description>  (193) 
GSK Published Kinase Inhibitor Set

>  <Document Journal>  (193) 
nan

>  <Document Year>  (193) 
nan

>  <Active>  (193) 
0.0

$$$$

     RDKit          2D

 20 21  0  0  0  0  0  0  0  0999 V2000
    5.2500   -1.2990    0.0000 C   0  0  0  0  0  0  0  0  0  0  0  0
    3.7500   -1.2990    0.0000 N   0  0  0  0  0  0  0  0  0  0  0  0
    3.0000    0.0000    0.0000 C   0  0  0  0  0  0  0  0  0  0  0  0
    3.7500    1.2990    0.0000 O   0  0  0  0  0  0  0  0  0  0  0  0
    1.5000    0.0000    0.0000 C   0  0  0  0  0  0  0  0  0  0  0  0
    0.7500   -1.2990    0.0000 C   0  0  0  0  0  0  0  0  0  0  0  0
   -0.7500   -1.2990    0.0000 N   0  0  0  0  0  0  0  0  0  0  0  0
   -1.5000    0.0000    0.0000 C   0  0  0  0  0  0  0  0  0  0  0  0
   -0.7500    1.2990    0.0000 C   0  0  0  0  0  0  0  0  0  0  0  0
   -1.5000    2.5981    0.0000 C   0  0  0  0  0  0  0  0  0  0  0  0
   -0.7500    3.8971    0.0000 C   0  0  0  0  0  0  0  0  0  0  0  0
   -1.5000    5.1962    0.0000 C   0  0  0  0  0  0  0  0  0  0  0  0
   -0.7500    6.4952    0.0000 C   0  0  0  0  0  0  0  0  0  0  0  0
    0.7500    6.4952    0.0000 C   0  0  0  0  0  0  0  0  0  0  0  0
   -1.5000    7.7942    0.0000 C   0  0  0  0  0  0  0  0  0  0  0  0
   -3.0000    7.7942    0.0000 C   0  0  0  0  0  0  0  0  0  0  0  0
   -3.7500    6.4952    0.0000 C   0  0  0  0  0  0  0  0  0  0  0  0
   -3.0000    5.1962    0.0000 C   0  0  0  0  0  0  0  0  0  0  0  0
   -3.7500    3.8971    0.0000 C   0  0  0  0  0  0  0  0  0  0  0  0
    0.7500    1.2990    0.0000 C   0  0  0  0  0  0  0  0  0  0  0  0
  1  2  1  0
  2  3  1  0
  3  4  2  0
  3  5  1  0
  5  6  2  0
  6  7  1  0
  7  8  2  0
  8  9  1  0
  9 10  1  0
 10 11  2  0
 11 12  1  0
 12 13  2  0
 13 14  1  0
 13 15  1  0
 15 16  2  0
 16 17  1  0
 17 18  2  0
 18 19  1  0
  9 20  2  0
 20  5  1  0
 18 12  1  0
M  END
>  <Compound_ID>  (194) 
CHEMBL218859

>  <Molecule Name>  (194) 
GW445012X

>  <Molecular Weight>  (194) 
266.34

>  <AlogP>  (194) 
3.23

>  <Smiles>  (194) 
CNC(=O)c1cncc(/C=C/c2c(C)cccc2C)c1

>  <Standard Type>  (194) 
Inhibition

>  <Standard Relation>  (194) 
'='

>  <Standard Units>  (194) 
%

>  <Standard Value>  (194) 
1.41

>  <Assay ChEMBL ID>  (194) 
CHEMBL1962143

>  <Assay Description>  (194) 
GSK_PKIS: MET mean inhibition at 1 uM [Nanosyn]

>  <BAO Format ID>  (194) 
BAO_0000357

>  <BAO Label>  (194) 
single protein format

>  <Assay Organism>  (194) 
None

>  <Target ChEMBL ID>  (194) 
CHEMBL3717

>  <Target Name>  (194) 
Hepatocyte growth factor receptor

>  <Target Organism>  (194) 
Homo sapiens

>  <Target Type>  (194) 
SINGLE PROTEIN

>  <Document ChEMBL ID>  (194) 
CHEMBL1961873

>  <Source Description>  (194) 
GSK Published Kinase Inhibitor Set

>  <Document Journal>  (194) 
nan

>  <Document Year>  (194) 
nan

>  <Active>  (194) 
0.0

$$$$

     RDKit          2D

 25 28  0  0  0  0  0  0  0  0999 V2000
    3.0000    0.0000    0.0000 N   0  0  0  0  0  0  0  0  0  0  0  0
    1.5000    0.0000    0.0000 C   0  0  0  0  0  0  0  0  0  0  0  0
    0.7500   -1.2990    0.0000 N   0  0  0  0  0  0  0  0  0  0  0  0
   -0.7500   -1.2990    0.0000 C   0  0  0  0  0  0  0  0  0  0  0  0
   -1.5000    0.0000    0.0000 C   0  0  0  0  0  0  0  0  0  0  0  0
   -0.7500    1.2990    0.0000 C   0  0  0  0  0  0  0  0  0  0  0  0
   -1.5000    2.5981    0.0000 C   0  0  0  0  0  0  0  0  0  0  0  0
   -2.9918    2.7549    0.0000 C   0  0  0  0  0  0  0  0  0  0  0  0
   -3.9955    1.6402    0.0000 C   0  0  0  0  0  0  0  0  0  0  0  0
   -5.4627    1.9520    0.0000 C   0  0  0  0  0  0  0  0  0  0  0  0
   -6.4664    0.8373    0.0000 C   0  0  0  0  0  0  0  0  0  0  0  0
   -6.0029   -0.5893    0.0000 C   0  0  0  0  0  0  0  0  0  0  0  0
   -7.0066   -1.7040    0.0000 F   0  0  0  0  0  0  0  0  0  0  0  0
   -4.5356   -0.9012    0.0000 C   0  0  0  0  0  0  0  0  0  0  0  0
   -3.5320    0.2136    0.0000 C   0  0  0  0  0  0  0  0  0  0  0  0
   -3.3037    4.2221    0.0000 N   0  0  0  0  0  0  0  0  0  0  0  0
   -2.0046    4.9721    0.0000 C   0  0  0  0  0  0  0  0  0  0  0  0
   -0.8899    3.9684    0.0000 N   0  0  0  0  0  0  0  0  0  0  0  0
    0.5773    4.2803    0.0000 C   0  0  0  0  0  0  0  0  0  0  0  0
    1.5810    3.1655    0.0000 C   0  0  0  0  0  0  0  0  0  0  0  0
    3.0482    3.4774    0.0000 C   0  0  0  0  0  0  0  0  0  0  0  0
    3.5118    4.9040    0.0000 N   0  0  0  0  0  0  0  0  0  0  0  0
    2.5081    6.0187    0.0000 C   0  0  0  0  0  0  0  0  0  0  0  0
    1.0409    5.7068    0.0000 C   0  0  0  0  0  0  0  0  0  0  0  0
    0.7500    1.2990    0.0000 N   0  0  0  0  0  0  0  0  0  0  0  0
  1  2  1  0
  2  3  2  0
  3  4  1  0
  4  5  2  0
  5  6  1  0
  6  7  1  0
  7  8  2  0
  8  9  1  0
  9 10  2  0
 10 11  1  0
 11 12  2  0
 12 13  1  0
 12 14  1  0
 14 15  2  0
  8 16  1  0
 16 17  2  0
 17 18  1  0
 18 19  1  0
 19 20  1  0
 20 21  1  0
 21 22  1  0
 22 23  1  0
 23 24  1  0
  6 25  2  0
 25  2  1  0
 18  7  1  0
 24 19  1  0
 15  9  1  0
M  END
>  <Compound_ID>  (195) 
CHEMBL1909407

>  <Molecule Name>  (195) 
nan

>  <Molecular Weight>  (195) 
374.85

>  <AlogP>  (195) 
2.65

>  <Smiles>  (195) 
Nc1nccc(-c2c(-c3ccc(F)cc3)ncn2C2CCNCC2)n1

>  <Standard Type>  (195) 
Inhibition

>  <Standard Relation>  (195) 
'='

>  <Standard Units>  (195) 
%

>  <Standard Value>  (195) 
4.72

>  <Assay ChEMBL ID>  (195) 
CHEMBL1962143

>  <Assay Description>  (195) 
GSK_PKIS: MET mean inhibition at 1 uM [Nanosyn]

>  <BAO Format ID>  (195) 
BAO_0000357

>  <BAO Label>  (195) 
single protein format

>  <Assay Organism>  (195) 
None

>  <Target ChEMBL ID>  (195) 
CHEMBL3717

>  <Target Name>  (195) 
Hepatocyte growth factor receptor

>  <Target Organism>  (195) 
Homo sapiens

>  <Target Type>  (195) 
SINGLE PROTEIN

>  <Document ChEMBL ID>  (195) 
CHEMBL1961873

>  <Source Description>  (195) 
GSK Published Kinase Inhibitor Set

>  <Document Journal>  (195) 
nan

>  <Document Year>  (195) 
nan

>  <Active>  (195) 
0.0

$$$$

     RDKit          2D

 28 30  0  0  0  0  0  0  0  0999 V2000
    3.7500   -1.2990    0.0000 C   0  0  0  0  0  0  0  0  0  0  0  0
    3.0000    0.0000    0.0000 O   0  0  0  0  0  0  0  0  0  0  0  0
    1.5000    0.0000    0.0000 C   0  0  0  0  0  0  0  0  0  0  0  0
    0.7500   -1.2990    0.0000 C   0  0  0  0  0  0  0  0  0  0  0  0
    1.5000   -2.5981    0.0000 C   0  0  0  0  0  0  0  0  0  0  0  0
    0.7500   -3.8971    0.0000 N   0  0  0  0  0  0  0  0  0  0  0  0
    3.0000   -2.5981    0.0000 O   0  0  0  0  0  0  0  0  0  0  0  0
   -0.7500   -1.2990    0.0000 C   0  0  0  0  0  0  0  0  0  0  0  0
   -1.5000    0.0000    0.0000 C   0  0  0  0  0  0  0  0  0  0  0  0
   -3.0000    0.0000    0.0000 C   0  0  0  0  0  0  0  0  0  0  0  0
   -3.7500    1.2990    0.0000 C   0  0  0  0  0  0  0  0  0  0  0  0
   -5.2500    1.2990    0.0000 C   0  0  0  0  0  0  0  0  0  0  0  0
   -6.0000    0.0000    0.0000 C   0  0  0  0  0  0  0  0  0  0  0  0
   -7.5000    0.0000    0.0000 Cl  0  0  0  0  0  0  0  0  0  0  0  0
   -5.2500   -1.2990    0.0000 C   0  0  0  0  0  0  0  0  0  0  0  0
   -3.7500   -1.2990    0.0000 C   0  0  0  0  0  0  0  0  0  0  0  0
   -0.7500    1.2990    0.0000 C   0  0  0  0  0  0  0  0  0  0  0  0
    0.7500    1.2990    0.0000 C   0  0  0  0  0  0  0  0  0  0  0  0
    1.5000    2.5981    0.0000 C   0  0  0  0  0  0  0  0  0  0  0  0
    3.0000    2.5981    0.0000 C   0  0  0  0  0  0  0  0  0  0  0  0
    3.7500    3.8971    0.0000 C   0  0  0  0  0  0  0  0  0  0  0  0
    3.0000    5.1962    0.0000 C   0  0  0  0  0  0  0  0  0  0  0  0
    3.7500    6.4952    0.0000 S   0  0  0  0  0  0  0  0  0  0  0  0
    4.5000    7.7942    0.0000 N   0  0  0  0  0  0  0  0  0  0  0  0
    5.0490    5.7452    0.0000 O   0  0  0  0  0  0  0  0  0  0  0  0
    2.4510    7.2452    0.0000 O   0  0  0  0  0  0  0  0  0  0  0  0
    1.5000    5.1962    0.0000 C   0  0  0  0  0  0  0  0  0  0  0  0
    0.7500    3.8971    0.0000 C   0  0  0  0  0  0  0  0  0  0  0  0
  1  2  1  0
  2  3  1  0
  3  4  2  0
  4  5  1  0
  5  6  1  0
  5  7  2  0
  4  8  1  0
  8  9  2  0
  9 10  1  0
 10 11  2  0
 11 12  1  0
 12 13  2  0
 13 14  1  0
 13 15  1  0
 15 16  2  0
  9 17  1  0
 17 18  2  0
 18 19  1  0
 19 20  2  0
 20 21  1  0
 21 22  2  0
 22 23  1  0
 23 24  1  0
 23 25  2  0
 23 26  2  0
 22 27  1  0
 27 28  2  0
 18  3  1  0
 28 19  1  0
 16 10  1  0
M  END
>  <Compound_ID>  (196) 
CHEMBL268885

>  <Molecule Name>  (196) 
GSK-711701A

>  <Molecular Weight>  (196) 
416.89

>  <AlogP>  (196) 
3.43

>  <Smiles>  (196) 
COc1c(C(N)=O)cc(-c2ccc(Cl)cc2)cc1-c1ccc(S(N)(=O)=O)cc1

>  <Standard Type>  (196) 
Inhibition

>  <Standard Relation>  (196) 
'='

>  <Standard Units>  (196) 
%

>  <Standard Value>  (196) 
10.95

>  <Assay ChEMBL ID>  (196) 
CHEMBL1962142

>  <Assay Description>  (196) 
GSK_PKIS: MET mean inhibition at 0.1 uM [Nanosyn]

>  <BAO Format ID>  (196) 
BAO_0000357

>  <BAO Label>  (196) 
single protein format

>  <Assay Organism>  (196) 
None

>  <Target ChEMBL ID>  (196) 
CHEMBL3717

>  <Target Name>  (196) 
Hepatocyte growth factor receptor

>  <Target Organism>  (196) 
Homo sapiens

>  <Target Type>  (196) 
SINGLE PROTEIN

>  <Document ChEMBL ID>  (196) 
CHEMBL1961873

>  <Source Description>  (196) 
GSK Published Kinase Inhibitor Set

>  <Document Journal>  (196) 
nan

>  <Document Year>  (196) 
nan

>  <Active>  (196) 
0.0

$$$$

     RDKit          2D

 34 38  0  0  0  0  0  0  0  0999 V2000
    3.7500    1.2990    0.0000 O   0  0  0  0  0  0  0  0  0  0  0  0
    3.0000    0.0000    0.0000 C   0  0  0  0  0  0  0  0  0  0  0  0
    3.7500   -1.2990    0.0000 O   0  0  0  0  0  1  0  0  0  0  0  0
    1.5000    0.0000    0.0000 C   0  0  0  0  0  0  0  0  0  0  0  0
    0.7500   -1.2990    0.0000 C   0  0  0  0  0  0  0  0  0  0  0  0
   -0.7500   -1.2990    0.0000 C   0  0  0  0  0  0  0  0  0  0  0  0
   -1.5000    0.0000    0.0000 C   0  0  0  0  0  0  0  0  0  0  0  0
   -3.0000    0.0000    0.0000 O   0  0  0  0  0  0  0  0  0  0  0  0
   -3.7500    1.2990    0.0000 C   0  0  0  0  0  0  0  0  0  0  0  0
   -3.0000    2.5981    0.0000 N   0  0  0  0  0  0  0  0  0  0  0  0
   -3.7500    3.8971    0.0000 C   0  0  0  0  0  0  0  0  0  0  0  0
   -5.2500    3.8971    0.0000 C   0  0  0  0  0  0  0  0  0  0  0  0
   -6.0000    2.5981    0.0000 C   0  0  0  0  0  0  0  0  0  0  0  0
   -7.5000    2.5981    0.0000 C   0  0  0  0  0  0  0  0  0  0  0  0
   -8.3817    1.3846    0.0000 C   0  0  0  0  0  0  0  0  0  0  0  0
   -7.9182   -0.0420    0.0000 C   0  0  0  0  0  0  0  0  0  0  0  0
   -8.9218   -1.1568    0.0000 C   0  0  0  0  0  0  0  0  0  0  0  0
   -8.4583   -2.5833    0.0000 C   0  0  0  0  0  0  0  0  0  0  0  0
   -6.9911   -2.8952    0.0000 C   0  0  0  0  0  0  0  0  0  0  0  0
   -6.5276   -4.3218    0.0000 F   0  0  0  0  0  0  0  0  0  0  0  0
   -5.9874   -1.7805    0.0000 C   0  0  0  0  0  0  0  0  0  0  0  0
   -6.4509   -0.3539    0.0000 C   0  0  0  0  0  0  0  0  0  0  0  0
   -9.8083    1.8481    0.0000 N   0  0  0  0  0  0  0  0  0  0  0  0
   -9.8083    3.3481    0.0000 C   0  0  0  0  0  0  0  0  0  0  0  0
   -8.3817    3.8116    0.0000 N   0  0  0  0  0  0  0  0  0  0  0  0
   -7.9182    5.2382    0.0000 C   0  0  0  0  0  0  0  0  0  0  0  0
   -6.4509    5.5501    0.0000 C   0  0  0  0  0  0  0  0  0  0  0  0
   -5.9874    6.9766    0.0000 C   0  0  0  0  0  0  0  0  0  0  0  0
   -6.9911    8.0914    0.0000 N   0  0  0  0  0  0  0  0  0  0  0  0
   -8.4583    7.7795    0.0000 C   0  0  0  0  0  0  0  0  0  0  0  0
   -8.9218    6.3529    0.0000 C   0  0  0  0  0  0  0  0  0  0  0  0
   -5.2500    1.2990    0.0000 N   0  0  0  0  0  0  0  0  0  0  0  0
   -0.7500    1.2990    0.0000 C   0  0  0  0  0  0  0  0  0  0  0  0
    0.7500    1.2990    0.0000 C   0  0  0  0  0  0  0  0  0  0  0  0
  1  2  2  0
  2  3  1  0
  2  4  1  0
  4  5  2  0
  5  6  1  0
  6  7  2  0
  7  8  1  0
  8  9  1  0
  9 10  2  0
 10 11  1  0
 11 12  2  0
 12 13  1  0
 13 14  1  0
 14 15  2  0
 15 16  1  0
 16 17  2  0
 17 18  1  0
 18 19  2  0
 19 20  1  0
 19 21  1  0
 21 22  2  0
 15 23  1  0
 23 24  2  0
 24 25  1  0
 25 26  1  0
 26 27  1  0
 27 28  1  0
 28 29  1  0
 29 30  1  0
 30 31  1  0
 13 32  2  0
  7 33  1  0
 33 34  2  0
 34  4  1  0
 32  9  1  0
 25 14  1  0
 31 26  1  0
 22 16  1  0
M  CHG  1   3  -1
M  END
>  <Compound_ID>  (197) 
CHEMBL1909401

>  <Molecule Name>  (197) 
nan

>  <Molecular Weight>  (197) 
465.41

>  <AlogP>  (197) 
4.56

>  <Smiles>  (197) 
O=C([O-])c1ccc(Oc2nccc(-c3c(-c4ccc(F)cc4)ncn3C3CCNCC3)n2)cc1

>  <Standard Type>  (197) 
Inhibition

>  <Standard Relation>  (197) 
'='

>  <Standard Units>  (197) 
%

>  <Standard Value>  (197) 
2.19

>  <Assay ChEMBL ID>  (197) 
CHEMBL1962142

>  <Assay Description>  (197) 
GSK_PKIS: MET mean inhibition at 0.1 uM [Nanosyn]

>  <BAO Format ID>  (197) 
BAO_0000357

>  <BAO Label>  (197) 
single protein format

>  <Assay Organism>  (197) 
None

>  <Target ChEMBL ID>  (197) 
CHEMBL3717

>  <Target Name>  (197) 
Hepatocyte growth factor receptor

>  <Target Organism>  (197) 
Homo sapiens

>  <Target Type>  (197) 
SINGLE PROTEIN

>  <Document ChEMBL ID>  (197) 
CHEMBL1961873

>  <Source Description>  (197) 
GSK Published Kinase Inhibitor Set

>  <Document Journal>  (197) 
nan

>  <Document Year>  (197) 
nan

>  <Active>  (197) 
0.0

$$$$

     RDKit          2D

 39 44  0  0  0  0  0  0  0  0999 V2000
   -0.8087  -14.1104    0.0000 C   0  0  0  0  0  0  0  0  0  0  0  0
   -0.1986  -12.7400    0.0000 N   0  0  0  0  0  0  0  0  0  0  0  0
   -1.0803  -11.5265    0.0000 C   0  0  0  0  0  0  0  0  0  0  0  0
   -0.4702  -10.1562    0.0000 C   0  0  0  0  0  0  0  0  0  0  0  0
    1.0216   -9.9994    0.0000 N   0  0  0  0  0  0  0  0  0  0  0  0
    1.6317   -8.6291    0.0000 C   0  0  0  0  0  0  0  0  0  0  0  0
    0.7500   -7.4156    0.0000 C   0  0  0  0  0  0  0  0  0  0  0  0
   -0.7500   -7.4156    0.0000 C   0  0  0  0  0  0  0  0  0  0  0  0
   -1.2135   -5.9890    0.0000 C   0  0  0  0  0  0  0  0  0  0  0  0
   -0.0000   -5.1073    0.0000 C   0  0  0  0  0  0  0  0  0  0  0  0
   -0.0000   -3.6073    0.0000 C   0  0  0  0  0  0  0  0  0  0  0  0
    1.2135   -2.7256    0.0000 C   0  0  0  0  0  0  0  0  0  0  0  0
    0.7500   -1.2990    0.0000 C   0  0  0  0  0  0  0  0  0  0  0  0
    1.5000    0.0000    0.0000 N   0  0  0  0  0  0  0  0  0  0  0  0
    0.7500    1.2990    0.0000 C   0  0  0  0  0  0  0  0  0  0  0  0
   -0.7500    1.2990    0.0000 N   0  0  0  0  0  0  0  0  0  0  0  0
   -1.5000    0.0000    0.0000 C   0  0  0  0  0  0  0  0  0  0  0  0
   -3.0000    0.0000    0.0000 N   0  0  0  0  0  0  0  0  0  0  0  0
   -3.7500    1.2990    0.0000 C   0  0  0  0  0  0  0  0  0  0  0  0
   -3.0000    2.5981    0.0000 C   0  0  0  0  0  0  0  0  0  0  0  0
   -3.7500    3.8971    0.0000 C   0  0  0  0  0  0  0  0  0  0  0  0
   -5.2500    3.8971    0.0000 C   0  0  0  0  0  0  0  0  0  0  0  0
   -6.0000    5.1962    0.0000 O   0  0  0  0  0  0  0  0  0  0  0  0
   -5.2500    6.4952    0.0000 C   0  0  0  0  0  0  0  0  0  0  0  0
   -6.0000    7.7942    0.0000 C   0  0  0  0  0  0  0  0  0  0  0  0
   -5.2500    9.0933    0.0000 C   0  0  0  0  0  0  0  0  0  0  0  0
   -6.0000   10.3923    0.0000 C   0  0  0  0  0  0  0  0  0  0  0  0
   -7.5000   10.3923    0.0000 C   0  0  0  0  0  0  0  0  0  0  0  0
   -8.2500    9.0933    0.0000 C   0  0  0  0  0  0  0  0  0  0  0  0
   -9.7500    9.0933    0.0000 F   0  0  0  0  0  0  0  0  0  0  0  0
   -7.5000    7.7942    0.0000 C   0  0  0  0  0  0  0  0  0  0  0  0
   -6.0000    2.5981    0.0000 C   0  0  0  0  0  0  0  0  0  0  0  0
   -7.5000    2.5981    0.0000 Cl  0  0  0  0  0  0  0  0  0  0  0  0
   -5.2500    1.2990    0.0000 C   0  0  0  0  0  0  0  0  0  0  0  0
   -0.7500   -1.2990    0.0000 C   0  0  0  0  0  0  0  0  0  0  0  0
   -1.2135   -2.7256    0.0000 S   0  0  0  0  0  0  0  0  0  0  0  0
    1.2135   -5.9890    0.0000 O   0  0  0  0  0  0  0  0  0  0  0  0
    1.9033  -11.2129    0.0000 C   0  0  0  0  0  0  0  0  0  0  0  0
    1.2931  -12.5833    0.0000 C   0  0  0  0  0  0  0  0  0  0  0  0
  1  2  1  0
  2  3  1  0
  3  4  1  0
  4  5  1  0
  5  6  1  0
  6  7  1  0
  7  8  2  0
  8  9  1  0
  9 10  2  0
 10 11  1  0
 11 12  2  0
 12 13  1  0
 13 14  2  0
 14 15  1  0
 15 16  2  0
 16 17  1  0
 17 18  1  0
 18 19  1  0
 19 20  2  0
 20 21  1  0
 21 22  2  0
 22 23  1  0
 23 24  1  0
 24 25  1  0
 25 26  2  0
 26 27  1  0
 27 28  2  0
 28 29  1  0
 29 30  1  0
 29 31  2  0
 22 32  1  0
 32 33  1  0
 32 34  2  0
 17 35  2  0
 35 36  1  0
 10 37  1  0
  5 38  1  0
 38 39  1  0
 39  2  1  0
 37  7  1  0
 36 11  1  0
 35 13  1  0
 34 19  1  0
 31 25  1  0
M  END
>  <Compound_ID>  (198) 
CHEMBL475761

>  <Molecule Name>  (198) 
GW784684X

>  <Molecular Weight>  (198) 
564.09

>  <AlogP>  (198) 
6.81

>  <Smiles>  (198) 
CN1CCN(Cc2ccc(-c3cc4ncnc(Nc5ccc(OCc6cccc(F)c6)c(Cl)c5)c4s3)o2)CC1

>  <Standard Type>  (198) 
Inhibition

>  <Standard Relation>  (198) 
'='

>  <Standard Units>  (198) 
%

>  <Standard Value>  (198) 
5.95

>  <Assay ChEMBL ID>  (198) 
CHEMBL1962142

>  <Assay Description>  (198) 
GSK_PKIS: MET mean inhibition at 0.1 uM [Nanosyn]

>  <BAO Format ID>  (198) 
BAO_0000357

>  <BAO Label>  (198) 
single protein format

>  <Assay Organism>  (198) 
None

>  <Target ChEMBL ID>  (198) 
CHEMBL3717

>  <Target Name>  (198) 
Hepatocyte growth factor receptor

>  <Target Organism>  (198) 
Homo sapiens

>  <Target Type>  (198) 
SINGLE PROTEIN

>  <Document ChEMBL ID>  (198) 
CHEMBL1961873

>  <Source Description>  (198) 
GSK Published Kinase Inhibitor Set

>  <Document Journal>  (198) 
nan

>  <Document Year>  (198) 
nan

>  <Active>  (198) 
0.0

$$$$

     RDKit          2D

 29 32  0  0  0  0  0  0  0  0999 V2000
   -7.0526  -11.4523    0.0000 C   0  0  0  0  0  0  0  0  0  0  0  0
   -5.6260  -10.9888    0.0000 C   0  0  0  0  0  0  0  0  0  0  0  0
   -5.3142   -9.5216    0.0000 N   0  0  0  0  0  0  0  0  0  0  0  0
   -6.4289   -8.5179    0.0000 C   0  0  0  0  0  0  0  0  0  0  0  0
   -6.1170   -7.0506    0.0000 C   0  0  0  0  0  0  0  0  0  0  0  0
   -4.6904   -6.5871    0.0000 C   0  0  0  0  0  0  0  0  0  0  0  0
   -4.3786   -5.1199    0.0000 C   0  0  0  0  0  0  0  0  0  0  0  0
   -2.9520   -4.6564    0.0000 C   0  0  0  0  0  0  0  0  0  0  0  0
   -1.8373   -5.6601    0.0000 O   0  0  0  0  0  0  0  0  0  0  0  0
   -2.6401   -3.1891    0.0000 N   0  0  0  0  0  0  0  0  0  0  0  0
   -1.2135   -2.7256    0.0000 C   0  0  0  0  0  0  0  0  0  0  0  0
   -0.0000   -3.6073    0.0000 N   0  0  0  0  0  0  0  0  0  0  0  0
    1.2135   -2.7256    0.0000 N   0  0  0  0  0  0  0  0  0  0  0  0
    0.7500   -1.2990    0.0000 C   0  0  0  0  0  0  0  0  0  0  0  0
    1.5000    0.0000    0.0000 N   0  0  0  0  0  0  0  0  0  0  0  0
    0.7500    1.2990    0.0000 N   0  0  0  0  0  0  0  0  0  0  0  0
   -0.7500    1.2990    0.0000 C   0  0  0  0  0  0  0  0  0  0  0  0
   -1.5000    2.5981    0.0000 C   0  0  0  0  0  0  0  0  0  0  0  0
   -0.7500    3.8971    0.0000 C   0  0  0  0  0  0  0  0  0  0  0  0
   -1.5000    5.1962    0.0000 C   0  0  0  0  0  0  0  0  0  0  0  0
   -3.0000    5.1962    0.0000 C   0  0  0  0  0  0  0  0  0  0  0  0
   -3.7500    3.8971    0.0000 C   0  0  0  0  0  0  0  0  0  0  0  0
   -5.2500    3.8971    0.0000 F   0  0  0  0  0  0  0  0  0  0  0  0
   -3.0000    2.5981    0.0000 C   0  0  0  0  0  0  0  0  0  0  0  0
   -3.7500    1.2990    0.0000 F   0  0  0  0  0  0  0  0  0  0  0  0
   -1.5000    0.0000    0.0000 C   0  0  0  0  0  0  0  0  0  0  0  0
   -0.7500   -1.2990    0.0000 C   0  0  0  0  0  0  0  0  0  0  0  0
   -3.5757   -7.5908    0.0000 C   0  0  0  0  0  0  0  0  0  0  0  0
   -3.8876   -9.0580    0.0000 C   0  0  0  0  0  0  0  0  0  0  0  0
  1  2  1  0
  2  3  1  0
  3  4  1  0
  4  5  1  0
  5  6  1  0
  6  7  1  0
  7  8  1  0
  8  9  2  0
  8 10  1  0
 10 11  1  0
 11 12  2  0
 12 13  1  0
 13 14  1  0
 14 15  2  0
 15 16  1  0
 16 17  2  0
 17 18  1  0
 18 19  2  0
 19 20  1  0
 20 21  2  0
 21 22  1  0
 22 23  1  0
 22 24  2  0
 24 25  1  0
 17 26  1  0
 26 27  2  0
  6 28  1  0
 28 29  1  0
 29  3  1  0
 27 11  1  0
 27 14  1  0
 24 18  1  0
M  END
>  <Compound_ID>  (199) 
CHEMBL2062289

>  <Molecule Name>  (199) 
nan

>  <Molecular Weight>  (199) 
550.52

>  <AlogP>  (199) 
3.36

>  <Smiles>  (199) 
CCN1CCC(CC(=O)Nc2n[nH]c3nnc(-c4cccc(F)c4F)cc23)CC1

>  <Standard Type>  (199) 
Inhibition

>  <Standard Relation>  (199) 
'='

>  <Standard Units>  (199) 
%

>  <Standard Value>  (199) 
4.54

>  <Assay ChEMBL ID>  (199) 
CHEMBL1962142

>  <Assay Description>  (199) 
GSK_PKIS: MET mean inhibition at 0.1 uM [Nanosyn]

>  <BAO Format ID>  (199) 
BAO_0000357

>  <BAO Label>  (199) 
single protein format

>  <Assay Organism>  (199) 
None

>  <Target ChEMBL ID>  (199) 
CHEMBL3717

>  <Target Name>  (199) 
Hepatocyte growth factor receptor

>  <Target Organism>  (199) 
Homo sapiens

>  <Target Type>  (199) 
SINGLE PROTEIN

>  <Document ChEMBL ID>  (199) 
CHEMBL1961873

>  <Source Description>  (199) 
GSK Published Kinase Inhibitor Set

>  <Document Journal>  (199) 
nan

>  <Document Year>  (199) 
nan

>  <Active>  (199) 
0.0

$$$$

     RDKit          2D

 24 26  0  0  0  0  0  0  0  0999 V2000
    1.8478   -6.4639    0.0000 O   0  0  0  0  0  0  0  0  0  0  0  0
    2.0046   -4.9721    0.0000 C   0  0  0  0  0  0  0  0  0  0  0  0
    3.3037   -4.2221    0.0000 N   0  0  0  0  0  0  0  0  0  0  0  0
    2.9918   -2.7549    0.0000 C   0  0  0  0  0  0  0  0  0  0  0  0
    3.9955   -1.6402    0.0000 O   0  0  0  0  0  0  0  0  0  0  0  0
    1.5000   -2.5981    0.0000 C   0  0  0  0  0  0  0  0  0  0  0  0
    0.7500   -1.2990    0.0000 C   0  0  0  0  0  0  0  0  0  0  0  0
    1.5000    0.0000    0.0000 C   0  0  0  0  0  0  0  0  0  0  0  0
    0.7500    1.2990    0.0000 C   0  0  0  0  0  0  0  0  0  0  0  0
   -0.7500    1.2990    0.0000 C   0  0  0  0  0  0  0  0  0  0  0  0
   -1.5000    0.0000    0.0000 C   0  0  0  0  0  0  0  0  0  0  0  0
   -0.7500   -1.2990    0.0000 C   0  0  0  0  0  0  0  0  0  0  0  0
   -1.5000   -2.5981    0.0000 Cl  0  0  0  0  0  0  0  0  0  0  0  0
    0.8899   -3.9684    0.0000 C   0  0  0  0  0  0  0  0  0  0  0  0
   -0.5773   -4.2803    0.0000 N   0  0  0  0  0  0  0  0  0  0  0  0
   -1.0409   -5.7068    0.0000 C   0  0  0  0  0  0  0  0  0  0  0  0
   -2.5081   -6.0187    0.0000 C   0  0  0  0  0  0  0  0  0  0  0  0
   -2.9716   -7.4453    0.0000 C   0  0  0  0  0  0  0  0  0  0  0  0
   -4.4388   -7.7572    0.0000 Cl  0  0  0  0  0  0  0  0  0  0  0  0
   -1.9679   -8.5600    0.0000 C   0  0  0  0  0  0  0  0  0  0  0  0
   -2.4314   -9.9866    0.0000 O   0  0  0  0  0  0  0  0  0  0  0  0
   -0.5007   -8.2481    0.0000 C   0  0  0  0  0  0  0  0  0  0  0  0
    0.5030   -9.3629    0.0000 Cl  0  0  0  0  0  0  0  0  0  0  0  0
   -0.0372   -6.8216    0.0000 C   0  0  0  0  0  0  0  0  0  0  0  0
  1  2  2  0
  2  3  1  0
  3  4  1  0
  4  5  2  0
  4  6  1  0
  6  7  1  0
  7  8  2  0
  8  9  1  0
  9 10  2  0
 10 11  1  0
 11 12  2  0
 12 13  1  0
  6 14  2  0
 14 15  1  0
 15 16  1  0
 16 17  2  0
 17 18  1  0
 18 19  1  0
 18 20  2  0
 20 21  1  0
 20 22  1  0
 22 23  1  0
 22 24  2  0
 14  2  1  0
 24 16  1  0
 12  7  1  0
M  END
>  <Compound_ID>  (200) 
CHEMBL157258

>  <Molecule Name>  (200) 
nan

>  <Molecular Weight>  (200) 
383.62

>  <AlogP>  (200) 
3.83

>  <Smiles>  (200) 
O=C1NC(=O)C(c2ccccc2Cl)=C1Nc1cc(Cl)c(O)c(Cl)c1

>  <Standard Type>  (200) 
Inhibition

>  <Standard Relation>  (200) 
'='

>  <Standard Units>  (200) 
%

>  <Standard Value>  (200) 
7.88

>  <Assay ChEMBL ID>  (200) 
CHEMBL1962143

>  <Assay Description>  (200) 
GSK_PKIS: MET mean inhibition at 1 uM [Nanosyn]

>  <BAO Format ID>  (200) 
BAO_0000357

>  <BAO Label>  (200) 
single protein format

>  <Assay Organism>  (200) 
None

>  <Target ChEMBL ID>  (200) 
CHEMBL3717

>  <Target Name>  (200) 
Hepatocyte growth factor receptor

>  <Target Organism>  (200) 
Homo sapiens

>  <Target Type>  (200) 
SINGLE PROTEIN

>  <Document ChEMBL ID>  (200) 
CHEMBL1961873

>  <Source Description>  (200) 
GSK Published Kinase Inhibitor Set

>  <Document Journal>  (200) 
nan

>  <Document Year>  (200) 
nan

>  <Active>  (200) 
0.0

$$$$

     RDKit          2D

 44 50  0  0  0  0  0  0  0  0999 V2000
   -0.4702  -13.1562    0.0000 O   0  0  0  0  0  0  0  0  0  0  0  0
    1.0216  -12.9994    0.0000 C   0  0  0  0  0  0  0  0  0  0  0  0
    1.6317  -11.6291    0.0000 O   0  0  0  0  0  0  0  0  0  0  0  0
    0.7500  -10.4156    0.0000 C   0  0  0  0  0  0  0  0  0  0  0  0
   -0.7500  -10.4156    0.0000 C   0  0  0  0  0  0  0  0  0  0  0  0
   -1.2135   -8.9890    0.0000 N   0  0  0  0  0  0  0  0  0  0  0  0
    0.0000   -8.1073    0.0000 C   0  0  0  0  0  0  0  0  0  0  0  0
   -0.0000   -6.6073    0.0000 C   0  0  0  0  0  0  0  0  0  0  0  0
   -0.0000   -5.1073    0.0000 C   0  0  0  0  0  0  0  0  0  0  0  0
   -0.0000   -3.6073    0.0000 C   0  0  0  0  0  0  0  0  0  0  0  0
    1.2135   -2.7256    0.0000 C   0  0  0  0  0  0  0  0  0  0  0  0
    0.7500   -1.2990    0.0000 C   0  0  0  0  0  0  0  0  0  0  0  0
    1.5000    0.0000    0.0000 N   0  0  0  0  0  0  0  0  0  0  0  0
    0.7500    1.2990    0.0000 C   0  0  0  0  0  0  0  0  0  0  0  0
   -0.7500    1.2990    0.0000 N   0  0  0  0  0  0  0  0  0  0  0  0
   -1.5000    0.0000    0.0000 C   0  0  0  0  0  0  0  0  0  0  0  0
   -3.0000    0.0000    0.0000 N   0  0  0  0  0  0  0  0  0  0  0  0
   -3.7500    1.2990    0.0000 C   0  0  0  0  0  0  0  0  0  0  0  0
   -3.0000    2.5981    0.0000 C   0  0  0  0  0  0  0  0  0  0  0  0
   -3.7500    3.8971    0.0000 C   0  0  0  0  0  0  0  0  0  0  0  0
   -5.2500    3.8971    0.0000 C   0  0  0  0  0  0  0  0  0  0  0  0
   -6.0000    2.5981    0.0000 C   0  0  0  0  0  0  0  0  0  0  0  0
   -7.4672    2.9099    0.0000 C   0  0  0  0  0  0  0  0  0  0  0  0
   -7.6240    4.4017    0.0000 C   0  0  0  0  0  0  0  0  0  0  0  0
   -6.2537    5.0118    0.0000 N   0  0  0  0  0  0  0  0  0  0  0  0
   -5.9418    6.4791    0.0000 C   0  0  0  0  0  0  0  0  0  0  0  0
   -7.0565    7.4827    0.0000 C   0  0  0  0  0  0  0  0  0  0  0  0
   -6.7447    8.9500    0.0000 C   0  0  0  0  0  0  0  0  0  0  0  0
   -7.8594    9.9537    0.0000 C   0  0  0  0  0  0  0  0  0  0  0  0
   -7.5475   11.4209    0.0000 F   0  0  0  0  0  0  0  0  0  0  0  0
   -9.2860    9.4901    0.0000 C   0  0  0  0  0  0  0  0  0  0  0  0
   -9.5978    8.0229    0.0000 C   0  0  0  0  0  0  0  0  0  0  0  0
   -8.4831    7.0192    0.0000 C   0  0  0  0  0  0  0  0  0  0  0  0
   -8.7950    5.5520    0.0000 F   0  0  0  0  0  0  0  0  0  0  0  0
   -5.2500    1.2990    0.0000 C   0  0  0  0  0  0  0  0  0  0  0  0
   -0.7500   -1.2990    0.0000 C   0  0  0  0  0  0  0  0  0  0  0  0
   -1.2135   -2.7256    0.0000 S   0  0  0  0  0  0  0  0  0  0  0  0
    1.2135   -8.9890    0.0000 C   0  0  0  0  0  0  0  0  0  0  0  0
    1.9033  -14.2129    0.0000 N   0  0  0  0  0  0  0  0  0  0  0  0
    1.2931  -15.5833    0.0000 C   0  0  0  0  0  0  0  0  0  0  0  0
    2.1748  -16.7968    0.0000 C   0  0  0  0  0  0  0  0  0  0  0  0
    3.6666  -16.6400    0.0000 O   0  0  0  0  0  0  0  0  0  0  0  0
    4.2767  -15.2697    0.0000 C   0  0  0  0  0  0  0  0  0  0  0  0
    3.3950  -14.0561    0.0000 C   0  0  0  0  0  0  0  0  0  0  0  0
  1  2  2  0
  2  3  1  0
  4  3  1  1
  4  5  1  0
  5  6  1  0
  6  7  1  0
  7  8  1  6
  8  9  3  0
  9 10  1  0
 10 11  2  0
 11 12  1  0
 12 13  2  0
 13 14  1  0
 14 15  2  0
 15 16  1  0
 16 17  1  0
 17 18  1  0
 18 19  2  0
 19 20  1  0
 20 21  2  0
 21 22  1  0
 22 23  1  0
 23 24  2  0
 24 25  1  0
 25 26  1  0
 26 27  1  0
 27 28  2  0
 28 29  1  0
 29 30  1  0
 29 31  2  0
 31 32  1  0
 32 33  2  0
 33 34  1  0
 22 35  2  0
 16 36  2  0
 36 37  1  0
  7 38  1  0
  2 39  1  0
 39 40  1  0
 40 41  1  0
 41 42  1  0
 42 43  1  0
 43 44  1  0
 38  4  1  0
 44 39  1  0
 37 10  1  0
 36 12  1  0
 35 18  1  0
 25 21  1  0
 33 27  1  0
M  END
>  <Compound_ID>  (201) 
CHEMBL1909410

>  <Molecule Name>  (201) 
GSK-259178A

>  <Molecular Weight>  (201) 
728.70

>  <AlogP>  (201) 
5.27

>  <Smiles>  (201) 
O=C(O[C@H]1CN[C@H](C#Cc2cc3ncnc(Nc4ccc5c(ccn5Cc5cc(F)ccc5F)c4)c3s2)C1)N1CCOCC1

>  <Standard Type>  (201) 
Inhibition

>  <Standard Relation>  (201) 
'='

>  <Standard Units>  (201) 
%

>  <Standard Value>  (201) 
7.21

>  <Assay ChEMBL ID>  (201) 
CHEMBL1962142

>  <Assay Description>  (201) 
GSK_PKIS: MET mean inhibition at 0.1 uM [Nanosyn]

>  <BAO Format ID>  (201) 
BAO_0000357

>  <BAO Label>  (201) 
single protein format

>  <Assay Organism>  (201) 
None

>  <Target ChEMBL ID>  (201) 
CHEMBL3717

>  <Target Name>  (201) 
Hepatocyte growth factor receptor

>  <Target Organism>  (201) 
Homo sapiens

>  <Target Type>  (201) 
SINGLE PROTEIN

>  <Document ChEMBL ID>  (201) 
CHEMBL1961873

>  <Source Description>  (201) 
GSK Published Kinase Inhibitor Set

>  <Document Journal>  (201) 
nan

>  <Document Year>  (201) 
nan

>  <Active>  (201) 
0.0

$$$$

     RDKit          2D

 39 43  0  0  0  0  0  0  0  0999 V2000
   -1.3632  -12.1594    0.0000 C   0  0  0  0  0  0  0  0  0  0  0  0
   -1.2064  -10.6676    0.0000 S   0  0  0  0  0  0  0  0  0  0  0  0
    0.2854  -10.8244    0.0000 O   0  0  0  0  0  0  0  0  0  0  0  0
   -2.6982  -10.5109    0.0000 O   0  0  0  0  0  0  0  0  0  0  0  0
   -1.0496   -9.1759    0.0000 C   0  0  0  0  0  0  0  0  0  0  0  0
    0.3207   -8.5658    0.0000 C   0  0  0  0  0  0  0  0  0  0  0  0
    0.4775   -7.0740    0.0000 N   0  0  0  0  0  0  0  0  0  0  0  0
    1.8478   -6.4639    0.0000 C   0  0  0  0  0  0  0  0  0  0  0  0
    2.0046   -4.9721    0.0000 C   0  0  0  0  0  0  0  0  0  0  0  0
    3.3037   -4.2221    0.0000 C   0  0  0  0  0  0  0  0  0  0  0  0
    2.9918   -2.7549    0.0000 C   0  0  0  0  0  0  0  0  0  0  0  0
    1.5000   -2.5981    0.0000 C   0  0  0  0  0  0  0  0  0  0  0  0
    0.7500   -1.2990    0.0000 C   0  0  0  0  0  0  0  0  0  0  0  0
    1.5000    0.0000    0.0000 C   0  0  0  0  0  0  0  0  0  0  0  0
    0.7500    1.2990    0.0000 C   0  0  0  0  0  0  0  0  0  0  0  0
   -0.7500    1.2990    0.0000 C   0  0  0  0  0  0  0  0  0  0  0  0
   -1.5000    2.5981    0.0000 N   0  0  0  0  0  0  0  0  0  0  0  0
   -3.0000    2.5981    0.0000 C   0  0  0  0  0  0  0  0  0  0  0  0
   -3.7500    1.2990    0.0000 N   0  0  0  0  0  0  0  0  0  0  0  0
   -3.0000    0.0000    0.0000 C   0  0  0  0  0  0  0  0  0  0  0  0
   -3.7500   -1.2990    0.0000 N   0  0  0  0  0  0  0  0  0  0  0  0
   -5.2500   -1.2990    0.0000 C   0  0  0  0  0  0  0  0  0  0  0  0
   -6.0000    0.0000    0.0000 C   0  0  0  0  0  0  0  0  0  0  0  0
   -7.5000    0.0000    0.0000 C   0  0  0  0  0  0  0  0  0  0  0  0
   -8.2500   -1.2990    0.0000 C   0  0  0  0  0  0  0  0  0  0  0  0
   -9.7500   -1.2990    0.0000 O   0  0  0  0  0  0  0  0  0  0  0  0
  -10.5000    0.0000    0.0000 C   0  0  0  0  0  0  0  0  0  0  0  0
  -12.0000    0.0000    0.0000 C   0  0  0  0  0  0  0  0  0  0  0  0
  -12.7500    1.2990    0.0000 C   0  0  0  0  0  0  0  0  0  0  0  0
  -14.2500    1.2990    0.0000 C   0  0  0  0  0  0  0  0  0  0  0  0
  -15.0000    0.0000    0.0000 C   0  0  0  0  0  0  0  0  0  0  0  0
  -14.2500   -1.2990    0.0000 C   0  0  0  0  0  0  0  0  0  0  0  0
  -12.7500   -1.2990    0.0000 C   0  0  0  0  0  0  0  0  0  0  0  0
   -7.5000   -2.5981    0.0000 C   0  0  0  0  0  0  0  0  0  0  0  0
   -8.2500   -3.8971    0.0000 Br  0  0  0  0  0  0  0  0  0  0  0  0
   -6.0000   -2.5981    0.0000 C   0  0  0  0  0  0  0  0  0  0  0  0
   -1.5000    0.0000    0.0000 C   0  0  0  0  0  0  0  0  0  0  0  0
   -0.7500   -1.2990    0.0000 C   0  0  0  0  0  0  0  0  0  0  0  0
    0.8899   -3.9684    0.0000 O   0  0  0  0  0  0  0  0  0  0  0  0
  1  2  1  0
  2  3  2  0
  2  4  2  0
  2  5  1  0
  5  6  1  0
  6  7  1  0
  7  8  1  0
  8  9  1  0
  9 10  2  0
 10 11  1  0
 11 12  2  0
 12 13  1  0
 13 14  2  0
 14 15  1  0
 15 16  2  0
 16 17  1  0
 17 18  2  0
 18 19  1  0
 19 20  2  0
 20 21  1  0
 21 22  1  0
 22 23  2  0
 23 24  1  0
 24 25  2  0
 25 26  1  0
 26 27  1  0
 27 28  1  0
 28 29  2  0
 29 30  1  0
 30 31  2  0
 31 32  1  0
 32 33  2  0
 25 34  1  0
 34 35  1  0
 34 36  2  0
 20 37  1  0
 37 38  2  0
 12 39  1  0
 39  9  1  0
 38 13  1  0
 37 16  1  0
 36 22  1  0
 33 28  1  0
M  END
>  <Compound_ID>  (202) 
CHEMBL1909392

>  <Molecule Name>  (202) 
GW580496A

>  <Molecular Weight>  (202) 
643.99

>  <AlogP>  (202) 
6.11

>  <Smiles>  (202) 
CS(=O)(=O)CCNCc1ccc(-c2ccc3ncnc(Nc4ccc(OCc5ccccc5)c(Br)c4)c3c2)o1

>  <Standard Type>  (202) 
Inhibition

>  <Standard Relation>  (202) 
'='

>  <Standard Units>  (202) 
%

>  <Standard Value>  (202) 
1.81

>  <Assay ChEMBL ID>  (202) 
CHEMBL1962142

>  <Assay Description>  (202) 
GSK_PKIS: MET mean inhibition at 0.1 uM [Nanosyn]

>  <BAO Format ID>  (202) 
BAO_0000357

>  <BAO Label>  (202) 
single protein format

>  <Assay Organism>  (202) 
None

>  <Target ChEMBL ID>  (202) 
CHEMBL3717

>  <Target Name>  (202) 
Hepatocyte growth factor receptor

>  <Target Organism>  (202) 
Homo sapiens

>  <Target Type>  (202) 
SINGLE PROTEIN

>  <Document ChEMBL ID>  (202) 
CHEMBL1961873

>  <Source Description>  (202) 
GSK Published Kinase Inhibitor Set

>  <Document Journal>  (202) 
nan

>  <Document Year>  (202) 
nan

>  <Active>  (202) 
0.0

$$$$

     RDKit          2D

 32 35  0  0  0  0  0  0  0  0999 V2000
   -2.1491   -7.1273    0.0000 C   0  0  0  0  0  0  0  0  0  0  0  0
   -1.8373   -5.6601    0.0000 O   0  0  0  0  0  0  0  0  0  0  0  0
   -2.9520   -4.6564    0.0000 C   0  0  0  0  0  0  0  0  0  0  0  0
   -4.3786   -5.1199    0.0000 C   0  0  0  0  0  0  0  0  0  0  0  0
   -5.4933   -4.1162    0.0000 C   0  0  0  0  0  0  0  0  0  0  0  0
   -5.1814   -2.6490    0.0000 C   0  0  0  0  0  0  0  0  0  0  0  0
   -6.2961   -1.6453    0.0000 C   0  0  0  0  0  0  0  0  0  0  0  0
   -7.4108   -0.6416    0.0000 C   0  0  0  0  0  0  0  0  0  0  0  0
   -8.5256    0.3621    0.0000 C   0  0  0  0  0  0  0  0  0  0  0  0
   -9.5293   -0.7526    0.0000 C   0  0  0  0  0  0  0  0  0  0  0  0
   -7.5219    1.4768    0.0000 C   0  0  0  0  0  0  0  0  0  0  0  0
   -9.6403    1.3658    0.0000 O   0  0  0  0  0  0  0  0  0  0  0  0
   -3.7548   -2.1855    0.0000 C   0  0  0  0  0  0  0  0  0  0  0  0
   -2.6401   -3.1891    0.0000 C   0  0  0  0  0  0  0  0  0  0  0  0
   -1.2135   -2.7256    0.0000 C   0  0  0  0  0  0  0  0  0  0  0  0
   -0.0000   -3.6073    0.0000 N   0  0  0  0  0  0  0  0  0  0  0  0
    1.2135   -2.7256    0.0000 N   0  0  0  0  0  0  0  0  0  0  0  0
    0.7500   -1.2990    0.0000 C   0  0  0  0  0  0  0  0  0  0  0  0
    1.5000    0.0000    0.0000 N   0  0  0  0  0  0  0  0  0  0  0  0
    0.7500    1.2990    0.0000 C   0  0  0  0  0  0  0  0  0  0  0  0
    1.5000    2.5981    0.0000 N   0  0  0  0  0  0  0  0  0  0  0  0
    3.0000    2.5981    0.0000 C   0  0  0  0  0  0  0  0  0  0  0  0
    3.7500    1.2990    0.0000 C   0  0  0  0  0  0  0  0  0  0  0  0
    5.2500    1.2990    0.0000 C   0  0  0  0  0  0  0  0  0  0  0  0
    6.0000    2.5981    0.0000 C   0  0  0  0  0  0  0  0  0  0  0  0
    7.5000    2.5981    0.0000 F   0  0  0  0  0  0  0  0  0  0  0  0
    5.2500    3.8971    0.0000 C   0  0  0  0  0  0  0  0  0  0  0  0
    3.7500    3.8971    0.0000 C   0  0  0  0  0  0  0  0  0  0  0  0
    3.0000    5.1962    0.0000 F   0  0  0  0  0  0  0  0  0  0  0  0
   -0.7500    1.2990    0.0000 C   0  0  0  0  0  0  0  0  0  0  0  0
   -1.5000    0.0000    0.0000 N   0  0  0  0  0  0  0  0  0  0  0  0
   -0.7500   -1.2990    0.0000 C   0  0  0  0  0  0  0  0  0  0  0  0
  1  2  1  0
  2  3  1  0
  3  4  2  0
  4  5  1  0
  5  6  2  0
  6  7  1  0
  7  8  3  0
  8  9  1  0
  9 10  1  0
  9 11  1  0
  9 12  1  0
  6 13  1  0
 13 14  2  0
 14 15  1  0
 15 16  1  0
 16 17  1  0
 17 18  2  0
 18 19  1  0
 19 20  2  0
 20 21  1  0
 21 22  1  0
 22 23  2  0
 23 24  1  0
 24 25  2  0
 25 26  1  0
 25 27  1  0
 27 28  2  0
 28 29  1  0
 20 30  1  0
 30 31  2  0
 31 32  1  0
 14  3  1  0
 32 15  2  0
 32 18  1  0
 28 22  1  0
M  END
>  <Compound_ID>  (203) 
CHEMBL370156

>  <Molecule Name>  (203) 
nan

>  <Molecular Weight>  (203) 
435.43

>  <AlogP>  (203) 
4.17

>  <Smiles>  (203) 
COc1ccc(C#CC(C)(C)O)cc1-c1[nH]nc2nc(Nc3ccc(F)cc3F)cnc12

>  <Standard Type>  (203) 
Inhibition

>  <Standard Relation>  (203) 
'='

>  <Standard Units>  (203) 
%

>  <Standard Value>  (203) 
-17.0

>  <Assay ChEMBL ID>  (203) 
CHEMBL863468

>  <Assay Description>  (203) 
Inhibition of c-Met at 10 uM

>  <BAO Format ID>  (203) 
BAO_0000357

>  <BAO Label>  (203) 
single protein format

>  <Assay Organism>  (203) 
Homo sapiens

>  <Target ChEMBL ID>  (203) 
CHEMBL3717

>  <Target Name>  (203) 
Hepatocyte growth factor receptor

>  <Target Organism>  (203) 
Homo sapiens

>  <Target Type>  (203) 
SINGLE PROTEIN

>  <Document ChEMBL ID>  (203) 
CHEMBL1147752

>  <Source Description>  (203) 
Scientific Literature

>  <Document Journal>  (203) 
Bioorg Med Chem Lett

>  <Document Year>  (203) 
2006.0

>  <Active>  (203) 
0.0

$$$$

     RDKit          2D

 21 23  0  0  0  0  0  0  0  0999 V2000
    4.0667   -3.6527    0.0000 N   0  0  0  0  0  0  0  0  0  0  0  0
    2.6401   -3.1891    0.0000 C   0  0  0  0  0  0  0  0  0  0  0  0
    1.2135   -2.7256    0.0000 C   0  0  0  0  0  0  0  0  0  0  0  0
   -0.0000   -3.6073    0.0000 C   0  0  0  0  0  0  0  0  0  0  0  0
   -0.0000   -5.1073    0.0000 N   0  0  0  0  0  0  0  0  0  0  0  0
   -1.2990   -5.8573    0.0000 C   0  0  0  0  0  0  0  0  0  0  0  0
   -2.5981   -5.1073    0.0000 O   0  0  0  0  0  0  0  0  0  0  0  0
   -1.2990   -7.3573    0.0000 C   0  0  0  0  0  0  0  0  0  0  0  0
   -2.5981   -8.1073    0.0000 C   0  0  0  0  0  0  0  0  0  0  0  0
   -2.5981   -9.6073    0.0000 C   0  0  0  0  0  0  0  0  0  0  0  0
   -1.2990  -10.3573    0.0000 C   0  0  0  0  0  0  0  0  0  0  0  0
    0.0000   -9.6073    0.0000 C   0  0  0  0  0  0  0  0  0  0  0  0
    0.0000   -8.1073    0.0000 C   0  0  0  0  0  0  0  0  0  0  0  0
    1.2990   -7.3573    0.0000 F   0  0  0  0  0  0  0  0  0  0  0  0
   -1.2135   -2.7256    0.0000 S   0  0  0  0  0  0  0  0  0  0  0  0
   -0.7500   -1.2990    0.0000 C   0  0  0  0  0  0  0  0  0  0  0  0
    0.7500   -1.2990    0.0000 C   0  0  0  0  0  0  0  0  0  0  0  0
    1.5000    0.0000    0.0000 C   0  0  0  0  0  0  0  0  0  0  0  0
    0.7500    1.2990    0.0000 C   0  0  0  0  0  0  0  0  0  0  0  0
   -0.7500    1.2990    0.0000 C   0  0  0  0  0  0  0  0  0  0  0  0
   -1.5000    0.0000    0.0000 C   0  0  0  0  0  0  0  0  0  0  0  0
  1  2  3  0
  2  3  1  0
  3  4  2  0
  4  5  1  0
  5  6  1  0
  6  7  2  0
  6  8  1  0
  8  9  2  0
  9 10  1  0
 10 11  2  0
 11 12  1  0
 12 13  2  0
 13 14  1  0
  4 15  1  0
 15 16  1  0
 16 17  2  0
 17 18  1  0
 18 19  1  0
 19 20  1  0
 20 21  1  0
 17  3  1  0
 13  8  1  0
 21 16  1  0
M  END
>  <Compound_ID>  (204) 
CHEMBL234838

>  <Molecule Name>  (204) 
GW572738X

>  <Molecular Weight>  (204) 
300.36

>  <AlogP>  (204) 
3.89

>  <Smiles>  (204) 
N#Cc1c(NC(=O)c2ccccc2F)sc2c1CCCC2

>  <Standard Type>  (204) 
Inhibition

>  <Standard Relation>  (204) 
'='

>  <Standard Units>  (204) 
%

>  <Standard Value>  (204) 
10.47

>  <Assay ChEMBL ID>  (204) 
CHEMBL1962142

>  <Assay Description>  (204) 
GSK_PKIS: MET mean inhibition at 0.1 uM [Nanosyn]

>  <BAO Format ID>  (204) 
BAO_0000357

>  <BAO Label>  (204) 
single protein format

>  <Assay Organism>  (204) 
None

>  <Target ChEMBL ID>  (204) 
CHEMBL3717

>  <Target Name>  (204) 
Hepatocyte growth factor receptor

>  <Target Organism>  (204) 
Homo sapiens

>  <Target Type>  (204) 
SINGLE PROTEIN

>  <Document ChEMBL ID>  (204) 
CHEMBL1961873

>  <Source Description>  (204) 
GSK Published Kinase Inhibitor Set

>  <Document Journal>  (204) 
nan

>  <Document Year>  (204) 
nan

>  <Active>  (204) 
0.0

$$$$

     RDKit          2D

 23 25  0  0  0  0  0  0  0  0999 V2000
    4.5000    0.0000    0.0000 N   0  0  0  0  0  0  0  0  0  0  0  0
    3.0000    0.0000    0.0000 S   0  0  0  0  0  0  0  0  0  0  0  0
    3.0000   -1.5000    0.0000 O   0  0  0  0  0  0  0  0  0  0  0  0
    3.0000    1.5000    0.0000 O   0  0  0  0  0  0  0  0  0  0  0  0
    1.5000    0.0000    0.0000 C   0  0  0  0  0  0  0  0  0  0  0  0
    0.7500   -1.2990    0.0000 C   0  0  0  0  0  0  0  0  0  0  0  0
   -0.7500   -1.2990    0.0000 C   0  0  0  0  0  0  0  0  0  0  0  0
   -1.5000    0.0000    0.0000 C   0  0  0  0  0  0  0  0  0  0  0  0
   -0.7500    1.2990    0.0000 C   0  0  0  0  0  0  0  0  0  0  0  0
   -1.5000    2.5981    0.0000 N   0  0  0  0  0  0  0  0  0  0  0  0
   -0.7500    3.8971    0.0000 C   0  0  0  0  0  0  0  0  0  0  0  0
   -1.3601    5.2674    0.0000 C   0  0  0  0  0  0  0  0  0  0  0  0
   -0.2454    6.2711    0.0000 C   0  0  0  0  0  0  0  0  0  0  0  0
   -0.4022    7.7629    0.0000 C   0  0  0  0  0  0  0  0  0  0  0  0
    0.8113    8.6446    0.0000 C   0  0  0  0  0  0  0  0  0  0  0  0
    0.6546   10.1364    0.0000 C   0  0  0  0  0  0  0  0  0  0  0  0
   -0.7158   10.7465    0.0000 C   0  0  0  0  0  0  0  0  0  0  0  0
   -0.8726   12.2383    0.0000 F   0  0  0  0  0  0  0  0  0  0  0  0
   -1.9293    9.8648    0.0000 C   0  0  0  0  0  0  0  0  0  0  0  0
   -1.7725    8.3730    0.0000 C   0  0  0  0  0  0  0  0  0  0  0  0
    1.0537    5.5211    0.0000 N   0  0  0  0  0  0  0  0  0  0  0  0
    0.7418    4.0539    0.0000 N   0  0  0  0  0  0  0  0  0  0  0  0
    0.7500    1.2990    0.0000 C   0  0  0  0  0  0  0  0  0  0  0  0
  1  2  1  0
  2  3  2  0
  2  4  2  0
  2  5  1  0
  5  6  2  0
  6  7  1  0
  7  8  2  0
  8  9  1  0
  9 10  1  0
 10 11  1  0
 11 12  2  0
 12 13  1  0
 13 14  1  0
 14 15  2  0
 15 16  1  0
 16 17  2  0
 17 18  1  0
 17 19  1  0
 19 20  2  0
 13 21  2  0
 21 22  1  0
  9 23  2  0
 23  5  1  0
 22 11  1  0
 20 14  1  0
M  END
>  <Compound_ID>  (205) 
CHEMBL1909351

>  <Molecule Name>  (205) 
GW824645A

>  <Molecular Weight>  (205) 
368.82

>  <AlogP>  (205) 
2.61

>  <Smiles>  (205) 
NS(=O)(=O)c1cccc(Nc2cc(-c3ccc(F)cc3)n[nH]2)c1

>  <Standard Type>  (205) 
Inhibition

>  <Standard Relation>  (205) 
'='

>  <Standard Units>  (205) 
%

>  <Standard Value>  (205) 
4.41

>  <Assay ChEMBL ID>  (205) 
CHEMBL1962143

>  <Assay Description>  (205) 
GSK_PKIS: MET mean inhibition at 1 uM [Nanosyn]

>  <BAO Format ID>  (205) 
BAO_0000357

>  <BAO Label>  (205) 
single protein format

>  <Assay Organism>  (205) 
None

>  <Target ChEMBL ID>  (205) 
CHEMBL3717

>  <Target Name>  (205) 
Hepatocyte growth factor receptor

>  <Target Organism>  (205) 
Homo sapiens

>  <Target Type>  (205) 
SINGLE PROTEIN

>  <Document ChEMBL ID>  (205) 
CHEMBL1961873

>  <Source Description>  (205) 
GSK Published Kinase Inhibitor Set

>  <Document Journal>  (205) 
nan

>  <Document Year>  (205) 
nan

>  <Active>  (205) 
0.0

$$$$

     RDKit          2D

 17 19  0  0  0  0  0  0  0  0999 V2000
   -2.6401   -3.1891    0.0000 C   0  0  0  0  0  0  0  0  0  0  0  0
   -1.2135   -2.7256    0.0000 N   0  0  0  0  0  0  0  0  0  0  0  0
   -0.0000   -3.6073    0.0000 N   0  0  0  0  0  0  0  0  0  0  0  0
    1.2135   -2.7256    0.0000 C   0  0  0  0  0  0  0  0  0  0  0  0
    2.6401   -3.1891    0.0000 N   0  0  0  0  0  0  0  0  0  0  0  0
    0.7500   -1.2990    0.0000 C   0  0  0  0  0  0  0  0  0  0  0  0
    1.5000    0.0000    0.0000 C   0  0  0  0  0  0  0  0  0  0  0  0
    0.7500    1.2990    0.0000 N   0  0  0  0  0  0  0  0  0  0  0  0
   -0.7500    1.2990    0.0000 C   0  0  0  0  0  0  0  0  0  0  0  0
   -1.5000    2.5981    0.0000 C   0  0  0  0  0  0  0  0  0  0  0  0
   -0.7500    3.8971    0.0000 C   0  0  0  0  0  0  0  0  0  0  0  0
   -1.5000    5.1962    0.0000 C   0  0  0  0  0  0  0  0  0  0  0  0
   -3.0000    5.1962    0.0000 C   0  0  0  0  0  0  0  0  0  0  0  0
   -3.7500    3.8971    0.0000 C   0  0  0  0  0  0  0  0  0  0  0  0
   -3.0000    2.5981    0.0000 C   0  0  0  0  0  0  0  0  0  0  0  0
   -1.5000    0.0000    0.0000 C   0  0  0  0  0  0  0  0  0  0  0  0
   -0.7500   -1.2990    0.0000 C   0  0  0  0  0  0  0  0  0  0  0  0
  1  2  1  0
  2  3  1  0
  3  4  2  0
  4  5  1  0
  4  6  1  0
  6  7  2  0
  7  8  1  0
  8  9  2  0
  9 10  1  0
 10 11  2  0
 11 12  1  0
 12 13  2  0
 13 14  1  0
 14 15  2  0
  9 16  1  0
 16 17  2  0
 17  2  1  0
 17  6  1  0
 15 10  1  0
M  END
>  <Compound_ID>  (206) 
CHEMBL1813800

>  <Molecule Name>  (206) 
nan

>  <Molecular Weight>  (206) 
224.27

>  <AlogP>  (206) 
2.22

>  <Smiles>  (206) 
Cn1nc(N)c2cnc(-c3ccccc3)cc21

>  <Standard Type>  (206) 
Inhibition

>  <Standard Relation>  (206) 
'='

>  <Standard Units>  (206) 
%

>  <Standard Value>  (206) 
2.0

>  <Assay ChEMBL ID>  (206) 
CHEMBL1815730

>  <Assay Description>  (206) 
Inhibition of MET at 30 uM by microfluidic mobility shift assay

>  <BAO Format ID>  (206) 
BAO_0000357

>  <BAO Label>  (206) 
single protein format

>  <Assay Organism>  (206) 
None

>  <Target ChEMBL ID>  (206) 
CHEMBL3717

>  <Target Name>  (206) 
Hepatocyte growth factor receptor

>  <Target Organism>  (206) 
Homo sapiens

>  <Target Type>  (206) 
SINGLE PROTEIN

>  <Document ChEMBL ID>  (206) 
CHEMBL1811853

>  <Source Description>  (206) 
Scientific Literature

>  <Document Journal>  (206) 
Bioorg Med Chem

>  <Document Year>  (206) 
2011.0

>  <Active>  (206) 
0.0

$$$$

     RDKit          2D

 18 20  0  0  0  0  0  0  0  0999 V2000
    3.0000    0.0000    0.0000 C   0  0  0  0  0  0  0  0  0  0  0  0
    1.5000    0.0000    0.0000 C   0  0  0  0  0  0  0  0  0  0  0  0
    0.7500   -1.2990    0.0000 C   0  0  0  0  0  0  0  0  0  0  0  0
   -0.7500   -1.2990    0.0000 C   0  0  0  0  0  0  0  0  0  0  0  0
   -1.5000    0.0000    0.0000 C   0  0  0  0  0  0  0  0  0  0  0  0
   -2.9672   -0.3119    0.0000 C   0  0  0  0  0  0  0  0  0  0  0  0
   -4.0819    0.6918    0.0000 N   0  0  0  0  0  0  0  0  0  0  0  0
   -3.1240   -1.8037    0.0000 N   0  0  0  0  0  0  0  0  0  0  0  0
   -1.7537   -2.4138    0.0000 N   0  0  0  0  0  0  0  0  0  0  0  0
   -1.4418   -3.8810    0.0000 C   0  0  0  0  0  0  0  0  0  0  0  0
   -0.7500    1.2990    0.0000 C   0  0  0  0  0  0  0  0  0  0  0  0
   -1.5000    2.5981    0.0000 N   0  0  0  0  0  0  0  0  0  0  0  0
   -0.7500    3.8971    0.0000 C   0  0  0  0  0  0  0  0  0  0  0  0
   -1.5000    5.1962    0.0000 C   0  0  0  0  0  0  0  0  0  0  0  0
   -3.0000    5.1962    0.0000 C   0  0  0  0  0  0  0  0  0  0  0  0
   -3.7500    3.8971    0.0000 C   0  0  0  0  0  0  0  0  0  0  0  0
   -3.0000    2.5981    0.0000 C   0  0  0  0  0  0  0  0  0  0  0  0
    0.7500    1.2990    0.0000 N   0  0  0  0  0  0  0  0  0  0  0  0
  1  2  1  0
  2  3  2  0
  3  4  1  0
  4  5  2  0
  5  6  1  0
  6  7  1  0
  6  8  2  0
  8  9  1  0
  9 10  1  0
  5 11  1  0
 11 12  1  0
 12 13  1  0
 13 14  1  0
 14 15  1  0
 15 16  1  0
 16 17  1  0
 11 18  2  0
 18  2  1  0
  9  4  1  0
 17 12  1  0
M  END
>  <Compound_ID>  (207) 
CHEMBL1813781

>  <Molecule Name>  (207) 
nan

>  <Molecular Weight>  (207) 
245.33

>  <AlogP>  (207) 
1.85

>  <Smiles>  (207) 
Cc1cc2c(c(N)nn2C)c(N2CCCCC2)n1

>  <Standard Type>  (207) 
Inhibition

>  <Standard Relation>  (207) 
'='

>  <Standard Units>  (207) 
%

>  <Standard Value>  (207) 
7.0

>  <Assay ChEMBL ID>  (207) 
CHEMBL1815730

>  <Assay Description>  (207) 
Inhibition of MET at 30 uM by microfluidic mobility shift assay

>  <BAO Format ID>  (207) 
BAO_0000357

>  <BAO Label>  (207) 
single protein format

>  <Assay Organism>  (207) 
None

>  <Target ChEMBL ID>  (207) 
CHEMBL3717

>  <Target Name>  (207) 
Hepatocyte growth factor receptor

>  <Target Organism>  (207) 
Homo sapiens

>  <Target Type>  (207) 
SINGLE PROTEIN

>  <Document ChEMBL ID>  (207) 
CHEMBL1811853

>  <Source Description>  (207) 
Scientific Literature

>  <Document Journal>  (207) 
Bioorg Med Chem

>  <Document Year>  (207) 
2011.0

>  <Active>  (207) 
0.0

$$$$

     RDKit          2D

 17 19  0  0  0  0  0  0  0  0999 V2000
   -0.0967    5.1517    0.0000 C   0  0  0  0  0  0  0  0  0  0  0  0
   -0.4086    3.6844    0.0000 C   0  0  0  0  0  0  0  0  0  0  0  0
    0.7062    2.6807    0.0000 C   0  0  0  0  0  0  0  0  0  0  0  0
    0.3943    1.2135    0.0000 C   0  0  0  0  0  0  0  0  0  0  0  0
    1.2760    0.0000    0.0000 N   0  0  0  0  0  0  0  0  0  0  0  0
    0.3943   -1.2135    0.0000 N   0  0  0  0  0  0  0  0  0  0  0  0
   -1.0323   -0.7500    0.0000 C   0  0  0  0  0  0  0  0  0  0  0  0
   -2.2458   -1.6317    0.0000 N   0  0  0  0  0  0  0  0  0  0  0  0
   -1.0323    0.7500    0.0000 C   0  0  0  0  0  0  0  0  0  0  0  0
   -2.1470    1.7537    0.0000 C   0  0  0  0  0  0  0  0  0  0  0  0
   -3.5736    1.2902    0.0000 N   0  0  0  0  0  0  0  0  0  0  0  0
   -4.6883    2.2939    0.0000 C   0  0  0  0  0  0  0  0  0  0  0  0
   -6.1149    1.8303    0.0000 C   0  0  0  0  0  0  0  0  0  0  0  0
   -6.4268    0.3631    0.0000 O   0  0  0  0  0  0  0  0  0  0  0  0
   -5.3120   -0.6406    0.0000 C   0  0  0  0  0  0  0  0  0  0  0  0
   -3.8855   -0.1771    0.0000 C   0  0  0  0  0  0  0  0  0  0  0  0
   -1.8351    3.2209    0.0000 N   0  0  0  0  0  0  0  0  0  0  0  0
  1  2  1  0
  2  3  2  0
  3  4  1  0
  4  5  1  0
  5  6  1  0
  6  7  2  0
  7  8  1  0
  7  9  1  0
  9 10  1  0
 10 11  1  0
 11 12  1  0
 12 13  1  0
 13 14  1  0
 14 15  1  0
 15 16  1  0
 10 17  2  0
 17  2  1  0
  9  4  2  0
 16 11  1  0
M  END
>  <Compound_ID>  (208) 
CHEMBL1813619

>  <Molecule Name>  (208) 
nan

>  <Molecular Weight>  (208) 
233.27

>  <AlogP>  (208) 
0.69

>  <Smiles>  (208) 
Cc1cc2[nH]nc(N)c2c(N2CCOCC2)n1

>  <Standard Type>  (208) 
Inhibition

>  <Standard Relation>  (208) 
'='

>  <Standard Units>  (208) 
%

>  <Standard Value>  (208) 
0.0

>  <Assay ChEMBL ID>  (208) 
CHEMBL1815730

>  <Assay Description>  (208) 
Inhibition of MET at 30 uM by microfluidic mobility shift assay

>  <BAO Format ID>  (208) 
BAO_0000357

>  <BAO Label>  (208) 
single protein format

>  <Assay Organism>  (208) 
None

>  <Target ChEMBL ID>  (208) 
CHEMBL3717

>  <Target Name>  (208) 
Hepatocyte growth factor receptor

>  <Target Organism>  (208) 
Homo sapiens

>  <Target Type>  (208) 
SINGLE PROTEIN

>  <Document ChEMBL ID>  (208) 
CHEMBL1811853

>  <Source Description>  (208) 
Scientific Literature

>  <Document Journal>  (208) 
Bioorg Med Chem

>  <Document Year>  (208) 
2011.0

>  <Active>  (208) 
0.0

$$$$

     RDKit          2D

 31 33  0  0  0  0  0  0  0  0999 V2000
    6.7500    1.2990    0.0000 C   0  0  0  0  0  0  0  0  0  0  0  0
    6.0000   -0.0000    0.0000 C   0  0  0  0  0  0  0  0  0  0  0  0
    5.2500   -1.2990    0.0000 C   0  0  0  0  0  0  0  0  0  0  0  0
    6.0000   -2.5981    0.0000 C   0  0  0  0  0  0  0  0  0  0  0  0
    5.2500   -3.8971    0.0000 C   0  0  0  0  0  0  0  0  0  0  0  0
    3.7500   -3.8971    0.0000 C   0  0  0  0  0  0  0  0  0  0  0  0
    3.0000   -2.5981    0.0000 C   0  0  0  0  0  0  0  0  0  0  0  0
    1.5000   -2.5981    0.0000 N   0  0  0  0  0  0  0  0  0  0  0  0
    0.7500   -1.2990    0.0000 C   0  0  0  0  0  0  0  0  0  0  0  0
    1.5000    0.0000    0.0000 N   0  0  0  0  0  0  0  0  0  0  0  0
    0.7500    1.2990    0.0000 C   0  0  0  0  0  0  0  0  0  0  0  0
   -0.7500    1.2990    0.0000 N   0  0  0  0  0  0  0  0  0  0  0  0
   -1.5000    0.0000    0.0000 C   0  0  0  0  0  0  0  0  0  0  0  0
   -3.0000    0.0000    0.0000 C   0  0  0  0  0  0  0  0  0  0  0  0
   -3.7500   -1.2990    0.0000 C   0  0  0  0  0  0  0  0  0  0  0  0
   -3.0000   -2.5981    0.0000 C   0  0  0  0  0  0  0  0  0  0  0  0
   -3.7500   -3.8971    0.0000 O   0  0  0  0  0  0  0  0  0  0  0  0
   -5.2500   -3.8971    0.0000 C   0  0  0  0  0  0  0  0  0  0  0  0
   -6.0000   -5.1962    0.0000 C   0  0  0  0  0  0  0  0  0  0  0  0
   -7.5000   -5.1962    0.0000 C   0  0  0  0  0  0  0  0  0  0  0  0
   -8.2500   -6.4952    0.0000 C   0  0  0  0  0  0  0  0  0  0  0  0
   -9.7500   -6.4952    0.0000 N   0  0  0  0  0  0  0  0  0  0  0  0
  -10.5000   -7.7942    0.0000 C   0  0  0  0  0  0  0  0  0  0  0  0
  -12.0000   -7.7942    0.0000 C   0  0  0  0  0  0  0  0  0  0  0  0
  -12.7500   -9.0933    0.0000 S   0  0  0  0  0  0  0  0  0  0  0  0
  -13.5000  -10.3923    0.0000 C   0  0  0  0  0  0  0  0  0  0  0  0
  -11.4510   -9.8433    0.0000 O   0  0  0  0  0  0  0  0  0  0  0  0
  -14.0490   -8.3433    0.0000 O   0  0  0  0  0  0  0  0  0  0  0  0
   -1.5000   -2.5981    0.0000 C   0  0  0  0  0  0  0  0  0  0  0  0
   -0.7500   -1.2990    0.0000 C   0  0  0  0  0  0  0  0  0  0  0  0
    3.7500   -1.2990    0.0000 C   0  0  0  0  0  0  0  0  0  0  0  0
  1  2  3  0
  2  3  1  0
  3  4  2  0
  4  5  1  0
  5  6  2  0
  6  7  1  0
  7  8  1  0
  8  9  1  0
  9 10  2  0
 10 11  1  0
 11 12  2  0
 12 13  1  0
 13 14  2  0
 14 15  1  0
 15 16  2  0
 16 17  1  0
 17 18  1  0
 18 19  1  0
 19 20  1  0
 20 21  1  0
 21 22  1  0
 22 23  1  0
 23 24  1  0
 24 25  1  0
 25 26  1  0
 25 27  2  0
 25 28  2  0
 16 29  1  0
 29 30  2  0
  7 31  2  0
 31  3  1  0
 30  9  1  0
 30 13  1  0
M  END
>  <Compound_ID>  (209) 
CHEMBL517907

>  <Molecule Name>  (209) 
GW680191X

>  <Molecular Weight>  (209) 
438.55

>  <AlogP>  (209) 
3.15

>  <Smiles>  (209) 
C#Cc1cccc(Nc2ncnc3ccc(OCCCCNCCS(C)(=O)=O)cc23)c1

>  <Standard Type>  (209) 
Inhibition

>  <Standard Relation>  (209) 
'='

>  <Standard Units>  (209) 
%

>  <Standard Value>  (209) 
8.4

>  <Assay ChEMBL ID>  (209) 
CHEMBL1962143

>  <Assay Description>  (209) 
GSK_PKIS: MET mean inhibition at 1 uM [Nanosyn]

>  <BAO Format ID>  (209) 
BAO_0000357

>  <BAO Label>  (209) 
single protein format

>  <Assay Organism>  (209) 
None

>  <Target ChEMBL ID>  (209) 
CHEMBL3717

>  <Target Name>  (209) 
Hepatocyte growth factor receptor

>  <Target Organism>  (209) 
Homo sapiens

>  <Target Type>  (209) 
SINGLE PROTEIN

>  <Document ChEMBL ID>  (209) 
CHEMBL1961873

>  <Source Description>  (209) 
GSK Published Kinase Inhibitor Set

>  <Document Journal>  (209) 
nan

>  <Document Year>  (209) 
nan

>  <Active>  (209) 
0.0

$$$$

     RDKit          2D

 31 34  0  0  0  0  0  0  0  0999 V2000
   -0.7500   -6.4952    0.0000 C   0  0  0  0  0  0  0  0  0  0  0  0
    0.7500   -6.4952    0.0000 C   0  0  0  0  0  0  0  0  0  0  0  0
    1.5000   -5.1962    0.0000 C   0  0  0  0  0  0  0  0  0  0  0  0
    0.7500   -3.8971    0.0000 C   0  0  0  0  0  0  0  0  0  0  0  0
   -0.7500   -3.8971    0.0000 O   0  0  0  0  0  0  0  0  0  0  0  0
    1.5000   -2.5981    0.0000 N   0  0  0  0  0  0  0  0  0  0  0  0
    0.7500   -1.2990    0.0000 C   0  0  0  0  0  0  0  0  0  0  0  0
    1.5000    0.0000    0.0000 C   0  0  0  0  0  0  0  0  0  0  0  0
    0.7500    1.2990    0.0000 C   0  0  0  0  0  0  0  0  0  0  0  0
   -0.7500    1.2990    0.0000 C   0  0  0  0  0  0  0  0  0  0  0  0
   -1.7537    2.4138    0.0000 N   0  0  0  0  0  0  0  0  0  0  0  0
   -3.1240    1.8037    0.0000 N   0  0  0  0  0  0  0  0  0  0  0  0
   -2.9672    0.3119    0.0000 C   0  0  0  0  0  0  0  0  0  0  0  0
   -4.0819   -0.6918    0.0000 C   0  0  0  0  0  0  0  0  0  0  0  0
   -1.5000    0.0000    0.0000 C   0  0  0  0  0  0  0  0  0  0  0  0
   -0.7500   -1.2990    0.0000 C   0  0  0  0  0  0  0  0  0  0  0  0
    3.0000   -5.1962    0.0000 C   0  0  0  0  0  0  0  0  0  0  0  0
    3.7500   -3.8971    0.0000 C   0  0  0  0  0  0  0  0  0  0  0  0
    5.2500   -3.8971    0.0000 C   0  0  0  0  0  0  0  0  0  0  0  0
    6.0000   -2.5981    0.0000 C   0  0  0  0  0  0  0  0  0  0  0  0
    5.2500   -1.2990    0.0000 C   0  0  0  0  0  0  0  0  0  0  0  0
    6.0000   -0.0000    0.0000 C   0  0  0  0  0  0  0  0  0  0  0  0
    6.7500    1.2990    0.0000 F   0  0  0  0  0  0  0  0  0  0  0  0
    7.2990   -0.7500    0.0000 F   0  0  0  0  0  0  0  0  0  0  0  0
    4.7010    0.7500    0.0000 F   0  0  0  0  0  0  0  0  0  0  0  0
    3.7500   -1.2990    0.0000 C   0  0  0  0  0  0  0  0  0  0  0  0
    3.0000   -2.5981    0.0000 C   0  0  0  0  0  0  0  0  0  0  0  0
    3.7500   -6.4952    0.0000 C   0  0  0  0  0  0  0  0  0  0  0  0
    3.0000   -7.7942    0.0000 C   0  0  0  0  0  0  0  0  0  0  0  0
    3.7500   -9.0933    0.0000 O   0  0  0  0  0  0  0  0  0  0  0  0
    1.5000   -7.7942    0.0000 N   0  0  0  0  0  0  0  0  0  0  0  0
  1  2  1  0
  2  3  2  0
  3  4  1  0
  4  5  2  0
  4  6  1  0
  6  7  1  0
  7  8  2  0
  8  9  1  0
  9 10  2  0
 10 11  1  0
 11 12  1  0
 12 13  2  0
 13 14  1  0
 13 15  1  0
 15 16  2  0
  3 17  1  0
 17 18  1  0
 18 19  2  0
 19 20  1  0
 20 21  2  0
 21 22  1  0
 22 23  1  0
 22 24  1  0
 22 25  1  0
 21 26  1  0
 26 27  2  0
 17 28  1  0
 28 29  1  0
 29 30  2  0
 29 31  1  0
 31  2  1  0
 16  7  1  0
 27 18  1  0
 15 10  1  0
M  END
>  <Compound_ID>  (210) 
CHEMBL218720

>  <Molecule Name>  (210) 
GSK-466314A

>  <Molecular Weight>  (210) 
428.41

>  <AlogP>  (210) 
4.41

>  <Smiles>  (210) 
CC1=C(C(=O)Nc2ccc3[nH]nc(C)c3c2)C(c2ccc(C(F)(F)F)cc2)CC(=O)N1

>  <Standard Type>  (210) 
Inhibition

>  <Standard Relation>  (210) 
'='

>  <Standard Units>  (210) 
%

>  <Standard Value>  (210) 
17.31

>  <Assay ChEMBL ID>  (210) 
CHEMBL1962143

>  <Assay Description>  (210) 
GSK_PKIS: MET mean inhibition at 1 uM [Nanosyn]

>  <BAO Format ID>  (210) 
BAO_0000357

>  <BAO Label>  (210) 
single protein format

>  <Assay Organism>  (210) 
None

>  <Target ChEMBL ID>  (210) 
CHEMBL3717

>  <Target Name>  (210) 
Hepatocyte growth factor receptor

>  <Target Organism>  (210) 
Homo sapiens

>  <Target Type>  (210) 
SINGLE PROTEIN

>  <Document ChEMBL ID>  (210) 
CHEMBL1961873

>  <Source Description>  (210) 
GSK Published Kinase Inhibitor Set

>  <Document Journal>  (210) 
nan

>  <Document Year>  (210) 
nan

>  <Active>  (210) 
0.0

$$$$

     RDKit          2D

 22 25  0  0  0  0  0  0  0  0999 V2000
   -8.3202   -4.8037    0.0000 C   0  0  0  0  0  0  0  0  0  0  0  0
   -7.0211   -4.0537    0.0000 C   0  0  0  0  0  0  0  0  0  0  0  0
   -7.0211   -2.5537    0.0000 C   0  0  0  0  0  0  0  0  0  0  0  0
   -5.7221   -1.8037    0.0000 C   0  0  0  0  0  0  0  0  0  0  0  0
   -4.4231   -2.5537    0.0000 C   0  0  0  0  0  0  0  0  0  0  0  0
   -3.1240   -1.8037    0.0000 C   0  0  0  0  0  0  0  0  0  0  0  0
   -1.7537   -2.4138    0.0000 C   0  0  0  0  0  0  0  0  0  0  0  0
   -0.7500   -1.2990    0.0000 C   0  0  0  0  0  0  0  0  0  0  0  0
    0.7500   -1.2990    0.0000 C   0  0  0  0  0  0  0  0  0  0  0  0
    1.5000   -2.5981    0.0000 N   0  0  0  0  0  0  0  0  0  0  0  0
    3.0000   -2.5981    0.0000 C   0  0  0  0  0  0  0  0  0  0  0  0
    3.7500   -1.2990    0.0000 O   0  0  0  0  0  0  0  0  0  0  0  0
    3.7500   -3.8971    0.0000 C   0  0  0  0  0  0  0  0  0  0  0  0
    5.0490   -4.6471    0.0000 C   0  0  0  0  0  0  0  0  0  0  0  0
    3.7500   -5.3971    0.0000 C   0  0  0  0  0  0  0  0  0  0  0  0
    1.5000    0.0000    0.0000 N   0  0  0  0  0  0  0  0  0  0  0  0
    0.7500    1.2990    0.0000 C   0  0  0  0  0  0  0  0  0  0  0  0
   -0.7500    1.2990    0.0000 N   0  0  0  0  0  0  0  0  0  0  0  0
   -1.5000    0.0000    0.0000 C   0  0  0  0  0  0  0  0  0  0  0  0
   -2.9672   -0.3119    0.0000 O   0  0  0  0  0  0  0  0  0  0  0  0
   -4.4231   -4.0537    0.0000 C   0  0  0  0  0  0  0  0  0  0  0  0
   -5.7221   -4.8037    0.0000 C   0  0  0  0  0  0  0  0  0  0  0  0
  1  2  1  0
  2  3  2  0
  3  4  1  0
  4  5  2  0
  5  6  1  0
  6  7  2  0
  7  8  1  0
  8  9  2  0
  9 10  1  0
 10 11  1  0
 11 12  2  0
 11 13  1  0
 13 14  1  0
 14 15  1  0
  9 16  1  0
 16 17  2  0
 17 18  1  0
 18 19  2  0
 19 20  1  0
  5 21  1  0
 21 22  2  0
 22  2  1  0
 20  6  1  0
 19  8  1  0
 15 13  1  0
M  END
>  <Compound_ID>  (211) 
CHEMBL182283

>  <Molecule Name>  (211) 
GW819230X

>  <Molecular Weight>  (211) 
293.33

>  <AlogP>  (211) 
3.55

>  <Smiles>  (211) 
Cc1ccc(-c2cc3c(NC(=O)C4CC4)ncnc3o2)cc1

>  <Standard Type>  (211) 
Inhibition

>  <Standard Relation>  (211) 
'='

>  <Standard Units>  (211) 
%

>  <Standard Value>  (211) 
4.71

>  <Assay ChEMBL ID>  (211) 
CHEMBL1962142

>  <Assay Description>  (211) 
GSK_PKIS: MET mean inhibition at 0.1 uM [Nanosyn]

>  <BAO Format ID>  (211) 
BAO_0000357

>  <BAO Label>  (211) 
single protein format

>  <Assay Organism>  (211) 
None

>  <Target ChEMBL ID>  (211) 
CHEMBL3717

>  <Target Name>  (211) 
Hepatocyte growth factor receptor

>  <Target Organism>  (211) 
Homo sapiens

>  <Target Type>  (211) 
SINGLE PROTEIN

>  <Document ChEMBL ID>  (211) 
CHEMBL1961873

>  <Source Description>  (211) 
GSK Published Kinase Inhibitor Set

>  <Document Journal>  (211) 
nan

>  <Document Year>  (211) 
nan

>  <Active>  (211) 
0.0

$$$$

     RDKit          2D

 20 23  0  0  0  0  0  0  0  0999 V2000
   -2.2500   -6.4952    0.0000 C   0  0  0  0  0  0  0  0  0  0  0  0
   -1.5000   -5.1962    0.0000 N   0  0  0  0  0  0  0  0  0  0  0  0
   -0.0000   -5.1962    0.0000 C   0  0  0  0  0  0  0  0  0  0  0  0
    0.7500   -3.8971    0.0000 N   0  0  0  0  0  0  0  0  0  0  0  0
    2.2500   -3.8971    0.0000 C   0  0  0  0  0  0  0  0  0  0  0  0
    3.0000   -2.5981    0.0000 C   0  0  0  0  0  0  0  0  0  0  0  0
    2.2500   -1.2990    0.0000 C   0  0  0  0  0  0  0  0  0  0  0  0
    0.7500   -1.2990    0.0000 C   0  0  0  0  0  0  0  0  0  0  0  0
    1.5000    0.0000    0.0000 C   0  0  0  0  0  0  0  0  0  0  0  0
    0.7500    1.2990    0.0000 C   0  0  0  0  0  0  0  0  0  0  0  0
   -0.7500    1.2990    0.0000 C   0  0  0  0  0  0  0  0  0  0  0  0
   -1.5000    0.0000    0.0000 N   0  0  0  0  0  0  0  0  0  0  0  0
   -0.7500   -1.2990    0.0000 C   0  0  0  0  0  0  0  0  0  0  0  0
   -0.0000   -2.5981    0.0000 C   0  0  0  0  0  0  0  0  0  0  0  0
    0.7500   -6.4952    0.0000 C   0  0  0  0  0  0  0  0  0  0  0  0
    2.2172   -6.8071    0.0000 N   0  0  0  0  0  0  0  0  0  0  0  0
    2.3740   -8.2988    0.0000 C   0  0  0  0  0  0  0  0  0  0  0  0
    1.0037   -8.9089    0.0000 N   0  0  0  0  0  0  0  0  0  0  0  0
   -0.0000   -7.7942    0.0000 C   0  0  0  0  0  0  0  0  0  0  0  0
   -1.5000   -7.7942    0.0000 N   0  0  0  0  0  0  0  0  0  0  0  0
  1  2  2  0
  2  3  1  0
  3  4  1  0
  4  5  1  0
  5  6  1  0
  6  7  1  0
  7  8  1  0
  8  9  1  0
  9 10  1  0
 10 11  1  0
 11 12  1  0
 12 13  1  0
  8 14  1  0
  3 15  2  0
 15 16  1  0
 16 17  2  0
 17 18  1  0
 18 19  1  0
 19 20  2  0
 20  1  1  0
 14  4  1  0
 19 15  1  0
 13  8  1  0
M  END
>  <Compound_ID>  (212) 
CHEMBL2420914

>  <Molecule Name>  (212) 
nan

>  <Molecular Weight>  (212) 
272.36

>  <AlogP>  (212) 
1.32

>  <Smiles>  (212) 
c1nc(N2CCCC3(CCCNC3)C2)c2nc[nH]c2n1

>  <Standard Type>  (212) 
Inhibition

>  <Standard Relation>  (212) 
'='

>  <Standard Units>  (212) 
%

>  <Standard Value>  (212) 
6.0

>  <Assay ChEMBL ID>  (212) 
CHEMBL2424318

>  <Assay Description>  (212) 
Inhibition of MET (unknown origin) at 30 uM by microfluidic mobility shift assay relative to control

>  <BAO Format ID>  (212) 
BAO_0000357

>  <BAO Label>  (212) 
single protein format

>  <Assay Organism>  (212) 
Homo sapiens

>  <Target ChEMBL ID>  (212) 
CHEMBL3717

>  <Target Name>  (212) 
Hepatocyte growth factor receptor

>  <Target Organism>  (212) 
Homo sapiens

>  <Target Type>  (212) 
SINGLE PROTEIN

>  <Document ChEMBL ID>  (212) 
CHEMBL2417369

>  <Source Description>  (212) 
Scientific Literature

>  <Document Journal>  (212) 
Bioorg Med Chem

>  <Document Year>  (212) 
2013.0

>  <Active>  (212) 
0.0

$$$$

     RDKit          2D

 19 22  0  0  0  0  0  0  0  0999 V2000
    3.7156    7.2317    0.0000 C   0  0  0  0  0  0  0  0  0  0  0  0
    3.2521    5.8051    0.0000 N   0  0  0  0  0  0  0  0  0  0  0  0
    1.7849    5.4933    0.0000 C   0  0  0  0  0  0  0  0  0  0  0  0
    1.3213    4.0667    0.0000 N   0  0  0  0  0  0  0  0  0  0  0  0
   -0.1459    3.7548    0.0000 C   0  0  0  0  0  0  0  0  0  0  0  0
   -0.6094    2.3282    0.0000 C   0  0  0  0  0  0  0  0  0  0  0  0
    0.3943    1.2135    0.0000 C   0  0  0  0  0  0  0  0  0  0  0  0
    1.2760    0.0000    0.0000 C   0  0  0  0  0  0  0  0  0  0  0  0
    0.3943   -1.2135    0.0000 C   0  0  0  0  0  0  0  0  0  0  0  0
   -1.0323   -0.7500    0.0000 N   0  0  0  0  0  0  0  0  0  0  0  0
   -1.0323    0.7500    0.0000 C   0  0  0  0  0  0  0  0  0  0  0  0
    1.8615    1.5254    0.0000 C   0  0  0  0  0  0  0  0  0  0  0  0
    2.3250    2.9520    0.0000 C   0  0  0  0  0  0  0  0  0  0  0  0
    0.7812    6.6080    0.0000 C   0  0  0  0  0  0  0  0  0  0  0  0
   -0.7188    6.6080    0.0000 N   0  0  0  0  0  0  0  0  0  0  0  0
   -1.1823    8.0346    0.0000 C   0  0  0  0  0  0  0  0  0  0  0  0
    0.0312    8.9163    0.0000 N   0  0  0  0  0  0  0  0  0  0  0  0
    1.2447    8.0346    0.0000 C   0  0  0  0  0  0  0  0  0  0  0  0
    2.7119    8.3464    0.0000 N   0  0  0  0  0  0  0  0  0  0  0  0
  1  2  2  0
  2  3  1  0
  3  4  1  0
  4  5  1  0
  5  6  1  0
  6  7  1  0
  7  8  1  0
  8  9  1  0
  9 10  1  0
 10 11  1  0
  7 12  1  0
 12 13  1  0
  3 14  2  0
 14 15  1  0
 15 16  2  0
 16 17  1  0
 17 18  1  0
 18 19  2  0
 19  1  1  0
 13  4  1  0
 18 14  1  0
 11  7  1  0
M  END
>  <Compound_ID>  (213) 
CHEMBL2420912

>  <Molecule Name>  (213) 
nan

>  <Molecular Weight>  (213) 
258.33

>  <AlogP>  (213) 
0.93

>  <Smiles>  (213) 
c1nc(N2CCC3(CCNC3)CC2)c2nc[nH]c2n1

>  <Standard Type>  (213) 
Inhibition

>  <Standard Relation>  (213) 
'='

>  <Standard Units>  (213) 
%

>  <Standard Value>  (213) 
17.0

>  <Assay ChEMBL ID>  (213) 
CHEMBL2424318

>  <Assay Description>  (213) 
Inhibition of MET (unknown origin) at 30 uM by microfluidic mobility shift assay relative to control

>  <BAO Format ID>  (213) 
BAO_0000357

>  <BAO Label>  (213) 
single protein format

>  <Assay Organism>  (213) 
Homo sapiens

>  <Target ChEMBL ID>  (213) 
CHEMBL3717

>  <Target Name>  (213) 
Hepatocyte growth factor receptor

>  <Target Organism>  (213) 
Homo sapiens

>  <Target Type>  (213) 
SINGLE PROTEIN

>  <Document ChEMBL ID>  (213) 
CHEMBL2417369

>  <Source Description>  (213) 
Scientific Literature

>  <Document Journal>  (213) 
Bioorg Med Chem

>  <Document Year>  (213) 
2013.0

>  <Active>  (213) 
0.0

$$$$

     RDKit          2D

 39 42  0  0  0  0  0  0  0  0999 V2000
    3.7500   -1.2990    0.0000 C   0  0  0  0  0  0  0  0  0  0  0  0
    3.0000    0.0000    0.0000 O   0  0  0  0  0  0  0  0  0  0  0  0
    1.5000    0.0000    0.0000 C   0  0  0  0  0  0  0  0  0  0  0  0
    0.7500   -1.2990    0.0000 C   0  0  0  0  0  0  0  0  0  0  0  0
   -0.7500   -1.2990    0.0000 C   0  0  0  0  0  0  0  0  0  0  0  0
   -1.5000   -2.5981    0.0000 C   0  0  0  0  0  0  0  0  0  0  0  0
   -3.0000   -2.5981    0.0000 N   0  0  0  0  0  0  0  0  0  0  0  0
   -3.7500   -3.8971    0.0000 N   0  0  0  0  0  0  0  0  0  0  0  0
   -5.2500   -3.8971    0.0000 C   0  0  0  0  0  0  0  0  0  0  0  0
   -6.0000   -2.5981    0.0000 O   0  0  0  0  0  0  0  0  0  0  0  0
   -6.0000   -5.1962    0.0000 N   0  0  0  0  0  0  0  0  0  0  0  0
   -7.5000   -5.1962    0.0000 C   0  0  0  0  0  0  0  0  0  0  0  0
   -8.2500   -3.8971    0.0000 C   0  0  0  0  0  0  0  0  0  0  0  0
   -9.7500   -3.8971    0.0000 C   0  0  0  0  0  0  0  0  0  0  0  0
  -10.5000   -5.1962    0.0000 C   0  0  0  0  0  0  0  0  0  0  0  0
  -12.0000   -5.1962    0.0000 O   0  0  0  0  0  0  0  0  0  0  0  0
  -12.7500   -3.8971    0.0000 C   0  0  0  0  0  0  0  0  0  0  0  0
  -12.0000   -2.5981    0.0000 C   0  0  0  0  0  0  0  0  0  0  0  0
  -12.7500   -1.2990    0.0000 C   0  0  0  0  0  0  0  0  0  0  0  0
  -14.2500   -1.2990    0.0000 N   0  0  0  0  0  0  0  0  0  0  0  0
  -15.0000   -2.5981    0.0000 C   0  0  0  0  0  0  0  0  0  0  0  0
  -16.5000   -2.5981    0.0000 C   0  0  0  0  0  0  0  0  0  0  0  0
  -17.3817   -3.8116    0.0000 N   0  0  0  0  0  0  0  0  0  0  0  0
  -18.8083   -3.3481    0.0000 N   0  0  0  0  0  0  0  0  0  0  0  0
  -18.8083   -1.8481    0.0000 C   0  0  0  0  0  0  0  0  0  0  0  0
  -17.3817   -1.3846    0.0000 N   0  0  0  0  0  0  0  0  0  0  0  0
  -16.9182    0.0420    0.0000 C   0  0  0  0  0  0  0  0  0  0  0  0
  -17.9218    1.1568    0.0000 C   0  0  0  0  0  0  0  0  0  0  0  0
  -17.4583    2.5833    0.0000 N   0  0  0  0  0  0  0  0  0  0  0  0
  -18.4620    3.6981    0.0000 C   0  0  0  0  0  0  0  0  0  0  0  0
  -15.9911    2.8952    0.0000 C   0  0  0  0  0  0  0  0  0  0  0  0
  -14.2500   -3.8971    0.0000 C   0  0  0  0  0  0  0  0  0  0  0  0
   -9.7500   -6.4952    0.0000 C   0  0  0  0  0  0  0  0  0  0  0  0
  -10.5000   -7.7942    0.0000 F   0  0  0  0  0  0  0  0  0  0  0  0
   -8.2500   -6.4952    0.0000 C   0  0  0  0  0  0  0  0  0  0  0  0
   -1.5000    0.0000    0.0000 C   0  0  0  0  0  0  0  0  0  0  0  0
   -0.7500    1.2990    0.0000 C   0  0  0  0  0  0  0  0  0  0  0  0
    0.7500    1.2990    0.0000 C   0  0  0  0  0  0  0  0  0  0  0  0
    1.5000    2.5981    0.0000 O   0  0  0  0  0  0  0  0  0  0  0  0
  1  2  1  0
  2  3  1  0
  3  4  2  0
  4  5  1  0
  5  6  1  0
  6  7  2  0
  7  8  1  0
  8  9  1  0
  9 10  2  0
  9 11  1  0
 11 12  1  0
 12 13  2  0
 13 14  1  0
 14 15  2  0
 15 16  1  0
 16 17  1  0
 17 18  2  0
 18 19  1  0
 19 20  2  0
 20 21  1  0
 21 22  1  0
 22 23  2  0
 23 24  1  0
 24 25  2  0
 25 26  1  0
 26 27  1  0
 27 28  1  0
 28 29  1  0
 29 30  1  0
 29 31  1  0
 21 32  2  0
 15 33  1  0
 33 34  1  0
 33 35  2  0
  5 36  2  0
 36 37  1  0
 37 38  2  0
 38 39  1  0
 38  3  1  0
 35 12  1  0
 32 17  1  0
 26 22  1  0
M  END
>  <Compound_ID>  (214) 
CHEMBL3262864

>  <Molecule Name>  (214) 
nan

>  <Molecular Weight>  (214) 
534.55

>  <AlogP>  (214) 
3.70

>  <Smiles>  (214) 
COc1cc(/C=N/NC(=O)Nc2ccc(Oc3ccnc(-c4nncn4CCN(C)C)c3)c(F)c2)ccc1O

>  <Standard Type>  (214) 
Inhibition

>  <Standard Relation>  (214) 
'='

>  <Standard Units>  (214) 
%

>  <Standard Value>  (214) 
10.2

>  <Assay ChEMBL ID>  (214) 
CHEMBL3271573

>  <Assay Description>  (214) 
Inhibition of c-MET (unknown origin) at 10 uM after 20 mins by HTRF method

>  <BAO Format ID>  (214) 
BAO_0000357

>  <BAO Label>  (214) 
single protein format

>  <Assay Organism>  (214) 
Homo sapiens

>  <Target ChEMBL ID>  (214) 
CHEMBL3717

>  <Target Name>  (214) 
Hepatocyte growth factor receptor

>  <Target Organism>  (214) 
Homo sapiens

>  <Target Type>  (214) 
SINGLE PROTEIN

>  <Document ChEMBL ID>  (214) 
CHEMBL3259649

>  <Source Description>  (214) 
Scientific Literature

>  <Document Journal>  (214) 
Eur J Med Chem

>  <Document Year>  (214) 
2014.0

>  <Active>  (214) 
0.0

$$$$

     RDKit          2D

 38 42  0  0  0  0  0  0  0  0999 V2000
    3.2011   14.4185    0.0000 C   0  0  0  0  0  0  0  0  0  0  0  0
    1.7745   13.9550    0.0000 C   0  0  0  0  0  0  0  0  0  0  0  0
    1.4627   12.4878    0.0000 C   0  0  0  0  0  0  0  0  0  0  0  0
    0.0361   12.0242    0.0000 N   0  0  0  0  0  0  0  0  0  0  0  0
   -1.0786   13.0279    0.0000 C   0  0  0  0  0  0  0  0  0  0  0  0
   -2.5052   12.5644    0.0000 C   0  0  0  0  0  0  0  0  0  0  0  0
   -2.8171   11.0972    0.0000 C   0  0  0  0  0  0  0  0  0  0  0  0
   -1.7024   10.0935    0.0000 C   0  0  0  0  0  0  0  0  0  0  0  0
   -2.0143    8.6263    0.0000 C   0  0  0  0  0  0  0  0  0  0  0  0
   -0.8995    7.6226    0.0000 C   0  0  0  0  0  0  0  0  0  0  0  0
   -1.2114    6.1554    0.0000 C   0  0  0  0  0  0  0  0  0  0  0  0
   -2.6380    5.6918    0.0000 C   0  0  0  0  0  0  0  0  0  0  0  0
   -2.9499    4.2246    0.0000 N   0  0  0  0  0  0  0  0  0  0  0  0
   -1.8351    3.2209    0.0000 C   0  0  0  0  0  0  0  0  0  0  0  0
   -0.4086    3.6844    0.0000 N   0  0  0  0  0  0  0  0  0  0  0  0
    0.7062    2.6807    0.0000 C   0  0  0  0  0  0  0  0  0  0  0  0
    2.1328    3.1443    0.0000 N   0  0  0  0  0  0  0  0  0  0  0  0
    2.4446    4.6115    0.0000 C   0  0  0  0  0  0  0  0  0  0  0  0
    1.3299    5.6152    0.0000 C   0  0  0  0  0  0  0  0  0  0  0  0
    1.6418    7.0824    0.0000 C   0  0  0  0  0  0  0  0  0  0  0  0
    0.5271    8.0861    0.0000 F   0  0  0  0  0  0  0  0  0  0  0  0
    3.0684    7.5459    0.0000 C   0  0  0  0  0  0  0  0  0  0  0  0
    4.1831    6.5422    0.0000 C   0  0  0  0  0  0  0  0  0  0  0  0
    3.8712    5.0750    0.0000 C   0  0  0  0  0  0  0  0  0  0  0  0
    4.9859    4.0713    0.0000 C   0  0  0  0  0  0  0  0  0  0  0  0
    6.4125    4.5348    0.0000 N   0  0  0  0  0  0  0  0  0  0  0  0
    4.6741    2.6041    0.0000 O   0  0  0  0  0  0  0  0  0  0  0  0
    0.3943    1.2135    0.0000 C   0  0  0  0  0  0  0  0  0  0  0  0
    1.2760    0.0000    0.0000 C   0  0  0  0  0  0  0  0  0  0  0  0
    0.3943   -1.2135    0.0000 C   0  0  0  0  0  0  0  0  0  0  0  0
   -1.0323   -0.7500    0.0000 N   0  0  0  0  0  0  0  0  0  0  0  0
   -1.0323    0.7500    0.0000 C   0  0  0  0  0  0  0  0  0  0  0  0
   -2.1470    1.7537    0.0000 N   0  0  0  0  0  0  0  0  0  0  0  0
   -3.7527    6.6955    0.0000 C   0  0  0  0  0  0  0  0  0  0  0  0
   -5.1793    6.2320    0.0000 O   0  0  0  0  0  0  0  0  0  0  0  0
   -5.4912    4.7648    0.0000 C   0  0  0  0  0  0  0  0  0  0  0  0
   -3.4408    8.1628    0.0000 C   0  0  0  0  0  0  0  0  0  0  0  0
   -0.2758   10.5570    0.0000 C   0  0  0  0  0  0  0  0  0  0  0  0
  1  2  1  0
  2  3  1  0
  3  4  1  0
  4  5  1  0
  5  6  1  0
  6  7  1  0
  7  8  1  0
  8  9  1  0
  9 10  2  0
 10 11  1  0
 11 12  2  0
 12 13  1  0
 13 14  1  0
 14 15  2  0
 15 16  1  0
 16 17  1  0
 17 18  1  0
 18 19  2  0
 19 20  1  0
 20 21  1  0
 20 22  2  0
 22 23  1  0
 23 24  2  0
 24 25  1  0
 25 26  1  0
 25 27  2  0
 16 28  2  0
 28 29  1  0
 29 30  2  0
 30 31  1  0
 31 32  1  0
 32 33  2  0
 12 34  1  0
 34 35  1  0
 35 36  1  0
 34 37  2  0
  8 38  1  0
 38  4  1  0
 37  9  1  0
 33 14  1  0
 24 18  1  0
 32 28  1  0
M  END
>  <Compound_ID>  (215) 
CHEMBL477069

>  <Molecule Name>  (215) 
GSK-1173862A

>  <Molecular Weight>  (215) 
517.61

>  <AlogP>  (215) 
5.28

>  <Smiles>  (215) 
CCCN1CCCC(c2ccc(Nc3nc(Nc4cc(F)ccc4C(N)=O)c4cc[nH]c4n3)c(OC)c2)C1

>  <Standard Type>  (215) 
Inhibition

>  <Standard Relation>  (215) 
'='

>  <Standard Units>  (215) 
%

>  <Standard Value>  (215) 
2.96

>  <Assay ChEMBL ID>  (215) 
CHEMBL1962142

>  <Assay Description>  (215) 
GSK_PKIS: MET mean inhibition at 0.1 uM [Nanosyn]

>  <BAO Format ID>  (215) 
BAO_0000357

>  <BAO Label>  (215) 
single protein format

>  <Assay Organism>  (215) 
None

>  <Target ChEMBL ID>  (215) 
CHEMBL3717

>  <Target Name>  (215) 
Hepatocyte growth factor receptor

>  <Target Organism>  (215) 
Homo sapiens

>  <Target Type>  (215) 
SINGLE PROTEIN

>  <Document ChEMBL ID>  (215) 
CHEMBL1961873

>  <Source Description>  (215) 
GSK Published Kinase Inhibitor Set

>  <Document Journal>  (215) 
nan

>  <Document Year>  (215) 
nan

>  <Active>  (215) 
0.0

$$$$

     RDKit          2D

 25 29  0  0  0  0  0  0  0  0999 V2000
   -5.1814   -2.6490    0.0000 C   0  0  0  0  0  0  0  0  0  0  0  0
   -3.7548   -2.1855    0.0000 C   0  0  0  0  0  0  0  0  0  0  0  0
   -2.6401   -3.1891    0.0000 C   0  0  0  0  0  0  0  0  0  0  0  0
   -1.2135   -2.7256    0.0000 C   0  0  0  0  0  0  0  0  0  0  0  0
   -0.0000   -3.6073    0.0000 C   0  0  0  0  0  0  0  0  0  0  0  0
    1.2135   -2.7256    0.0000 N   0  0  0  0  0  0  0  0  0  0  0  0
    0.7500   -1.2990    0.0000 N   0  0  0  0  0  0  0  0  0  0  0  0
    1.5000    0.0000    0.0000 N   0  0  0  0  0  0  0  0  0  0  0  0
    0.7500    1.2990    0.0000 C   0  0  0  0  0  0  0  0  0  0  0  0
    1.5000    2.5981    0.0000 N   0  0  0  0  0  0  0  0  0  0  0  0
    3.0000    2.5981    0.0000 C   0  0  0  0  0  0  0  0  0  0  0  0
    3.7500    3.8971    0.0000 C   0  0  0  0  0  0  0  0  0  0  0  0
    3.0000    5.1962    0.0000 O   0  0  0  0  0  0  0  0  0  0  0  0
    1.5000    5.1962    0.0000 C   0  0  0  0  0  0  0  0  0  0  0  0
    0.7500    3.8971    0.0000 C   0  0  0  0  0  0  0  0  0  0  0  0
   -0.7500    1.2990    0.0000 C   0  0  0  0  0  0  0  0  0  0  0  0
   -1.5000    0.0000    0.0000 C   0  0  0  0  0  0  0  0  0  0  0  0
   -0.7500   -1.2990    0.0000 C   0  0  0  0  0  0  0  0  0  0  0  0
   -2.9520   -4.6564    0.0000 N   0  0  0  0  0  0  0  0  0  0  0  0
   -4.3786   -5.1199    0.0000 C   0  0  0  0  0  0  0  0  0  0  0  0
   -4.6904   -6.5871    0.0000 N   0  0  0  0  0  0  0  0  0  0  0  0
   -6.1170   -7.0506    0.0000 C   0  0  0  0  0  0  0  0  0  0  0  0
   -7.1207   -8.1654    0.0000 C   0  0  0  0  0  0  0  0  0  0  0  0
   -7.5842   -6.7388    0.0000 C   0  0  0  0  0  0  0  0  0  0  0  0
   -5.4933   -4.1162    0.0000 N   0  0  0  0  0  0  0  0  0  0  0  0
  1  2  2  0
  2  3  1  0
  3  4  1  0
  4  5  1  0
  5  6  2  0
  6  7  1  0
  7  8  1  0
  8  9  2  0
  9 10  1  0
 10 11  1  0
 11 12  1  0
 12 13  1  0
 13 14  1  0
 14 15  1  0
  9 16  1  0
 16 17  2  0
 17 18  1  0
  3 19  2  0
 19 20  1  0
 20 21  1  0
 21 22  1  0
 22 23  1  0
 23 24  1  0
 20 25  2  0
 25  1  1  0
 18  4  2  0
 24 22  1  0
 18  7  1  0
 15 10  1  0
M  END
>  <Compound_ID>  (216) 
CHEMBL495771

>  <Molecule Name>  (216) 
GW708336X

>  <Molecular Weight>  (216) 
337.39

>  <AlogP>  (216) 
1.60

>  <Smiles>  (216) 
c1cc(-c2cnn3nc(N4CCOCC4)ccc23)nc(NC2CC2)n1

>  <Standard Type>  (216) 
Inhibition

>  <Standard Relation>  (216) 
'='

>  <Standard Units>  (216) 
%

>  <Standard Value>  (216) 
2.41

>  <Assay ChEMBL ID>  (216) 
CHEMBL1962143

>  <Assay Description>  (216) 
GSK_PKIS: MET mean inhibition at 1 uM [Nanosyn]

>  <BAO Format ID>  (216) 
BAO_0000357

>  <BAO Label>  (216) 
single protein format

>  <Assay Organism>  (216) 
None

>  <Target ChEMBL ID>  (216) 
CHEMBL3717

>  <Target Name>  (216) 
Hepatocyte growth factor receptor

>  <Target Organism>  (216) 
Homo sapiens

>  <Target Type>  (216) 
SINGLE PROTEIN

>  <Document ChEMBL ID>  (216) 
CHEMBL1961873

>  <Source Description>  (216) 
GSK Published Kinase Inhibitor Set

>  <Document Journal>  (216) 
nan

>  <Document Year>  (216) 
nan

>  <Active>  (216) 
0.0

$$$$

     RDKit          2D

 21 24  0  0  0  0  0  0  0  0999 V2000
   -1.8373   -5.6601    0.0000 O   0  0  0  0  0  0  0  0  0  0  0  0
   -2.9520   -4.6564    0.0000 C   0  0  0  0  0  0  0  0  0  0  0  0
   -2.6401   -3.1891    0.0000 N   0  0  0  0  0  0  0  0  0  0  0  0
   -1.2135   -2.7256    0.0000 C   0  0  0  0  0  0  0  0  0  0  0  0
   -0.0000   -3.6073    0.0000 N   0  0  0  0  0  0  0  0  0  0  0  0
    1.2135   -2.7256    0.0000 N   0  0  0  0  0  0  0  0  0  0  0  0
    0.7500   -1.2990    0.0000 C   0  0  0  0  0  0  0  0  0  0  0  0
    1.5000    0.0000    0.0000 N   0  0  0  0  0  0  0  0  0  0  0  0
    0.7500    1.2990    0.0000 N   0  0  0  0  0  0  0  0  0  0  0  0
   -0.7500    1.2990    0.0000 C   0  0  0  0  0  0  0  0  0  0  0  0
   -1.5000    2.5981    0.0000 C   0  0  0  0  0  0  0  0  0  0  0  0
   -0.7500    3.8971    0.0000 C   0  0  0  0  0  0  0  0  0  0  0  0
   -1.5000    5.1962    0.0000 C   0  0  0  0  0  0  0  0  0  0  0  0
   -3.0000    5.1962    0.0000 C   0  0  0  0  0  0  0  0  0  0  0  0
   -3.7500    3.8971    0.0000 N   0  0  0  0  0  0  0  0  0  0  0  0
   -3.0000    2.5981    0.0000 C   0  0  0  0  0  0  0  0  0  0  0  0
   -1.5000    0.0000    0.0000 C   0  0  0  0  0  0  0  0  0  0  0  0
   -0.7500   -1.2990    0.0000 C   0  0  0  0  0  0  0  0  0  0  0  0
   -4.3786   -5.1199    0.0000 C   0  0  0  0  0  0  0  0  0  0  0  0
   -5.3823   -6.2346    0.0000 C   0  0  0  0  0  0  0  0  0  0  0  0
   -5.8458   -4.8080    0.0000 C   0  0  0  0  0  0  0  0  0  0  0  0
  1  2  2  0
  2  3  1  0
  3  4  1  0
  4  5  2  0
  5  6  1  0
  6  7  1  0
  7  8  2  0
  8  9  1  0
  9 10  2  0
 10 11  1  0
 11 12  2  0
 12 13  1  0
 13 14  2  0
 14 15  1  0
 15 16  2  0
 10 17  1  0
 17 18  2  0
  2 19  1  0
 19 20  1  0
 20 21  1  0
 18  4  1  0
 21 19  1  0
 18  7  1  0
 16 11  1  0
M  END
>  <Compound_ID>  (217) 
CHEMBL1909343

>  <Molecule Name>  (217) 
nan

>  <Molecular Weight>  (217) 
394.31

>  <AlogP>  (217) 
1.76

>  <Smiles>  (217) 
O=C(Nc1n[nH]c2nnc(-c3cccnc3)cc12)C1CC1

>  <Standard Type>  (217) 
Inhibition

>  <Standard Relation>  (217) 
'='

>  <Standard Units>  (217) 
%

>  <Standard Value>  (217) 
0.68

>  <Assay ChEMBL ID>  (217) 
CHEMBL1962143

>  <Assay Description>  (217) 
GSK_PKIS: MET mean inhibition at 1 uM [Nanosyn]

>  <BAO Format ID>  (217) 
BAO_0000357

>  <BAO Label>  (217) 
single protein format

>  <Assay Organism>  (217) 
None

>  <Target ChEMBL ID>  (217) 
CHEMBL3717

>  <Target Name>  (217) 
Hepatocyte growth factor receptor

>  <Target Organism>  (217) 
Homo sapiens

>  <Target Type>  (217) 
SINGLE PROTEIN

>  <Document ChEMBL ID>  (217) 
CHEMBL1961873

>  <Source Description>  (217) 
GSK Published Kinase Inhibitor Set

>  <Document Journal>  (217) 
nan

>  <Document Year>  (217) 
nan

>  <Active>  (217) 
0.0

$$$$

     RDKit          2D

 27 30  0  0  0  0  0  0  0  0999 V2000
    9.6612    4.5113    0.0000 C   0  0  0  0  0  0  0  0  0  0  0  0
    8.6575    5.6260    0.0000 C   0  0  0  0  0  0  0  0  0  0  0  0
    7.1902    5.3142    0.0000 N   0  0  0  0  0  0  0  0  0  0  0  0
    6.7267    3.8876    0.0000 C   0  0  0  0  0  0  0  0  0  0  0  0
    5.2595    3.5757    0.0000 C   0  0  0  0  0  0  0  0  0  0  0  0
    4.2558    4.6904    0.0000 C   0  0  0  0  0  0  0  0  0  0  0  0
    2.7886    4.3786    0.0000 C   0  0  0  0  0  0  0  0  0  0  0  0
    2.3250    2.9520    0.0000 C   0  0  0  0  0  0  0  0  0  0  0  0
    3.3287    1.8373    0.0000 O   0  0  0  0  0  0  0  0  0  0  0  0
    0.8578    2.6401    0.0000 N   0  0  0  0  0  0  0  0  0  0  0  0
    0.3943    1.2135    0.0000 C   0  0  0  0  0  0  0  0  0  0  0  0
    1.2760    0.0000    0.0000 N   0  0  0  0  0  0  0  0  0  0  0  0
    0.3943   -1.2135    0.0000 N   0  0  0  0  0  0  0  0  0  0  0  0
   -1.0323   -0.7500    0.0000 C   0  0  0  0  0  0  0  0  0  0  0  0
   -2.3313   -1.5000    0.0000 N   0  0  0  0  0  0  0  0  0  0  0  0
   -3.6304   -0.7500    0.0000 C   0  0  0  0  0  0  0  0  0  0  0  0
   -4.9294   -1.5000    0.0000 C   0  0  0  0  0  0  0  0  0  0  0  0
   -5.0862   -2.9918    0.0000 C   0  0  0  0  0  0  0  0  0  0  0  0
   -6.5534   -3.3037    0.0000 C   0  0  0  0  0  0  0  0  0  0  0  0
   -7.3034   -2.0046    0.0000 C   0  0  0  0  0  0  0  0  0  0  0  0
   -6.2997   -0.8899    0.0000 S   0  0  0  0  0  0  0  0  0  0  0  0
   -3.6304    0.7500    0.0000 C   0  0  0  0  0  0  0  0  0  0  0  0
   -4.9294    1.5000    0.0000 Br  0  0  0  0  0  0  0  0  0  0  0  0
   -2.3313    1.5000    0.0000 C   0  0  0  0  0  0  0  0  0  0  0  0
   -1.0323    0.7500    0.0000 C   0  0  0  0  0  0  0  0  0  0  0  0
    4.7193    6.1170    0.0000 C   0  0  0  0  0  0  0  0  0  0  0  0
    6.1865    6.4289    0.0000 C   0  0  0  0  0  0  0  0  0  0  0  0
  1  2  1  0
  2  3  1  0
  3  4  1  0
  4  5  1  0
  5  6  1  0
  6  7  1  0
  7  8  1  0
  8  9  2  0
  8 10  1  0
 10 11  1  0
 11 12  2  0
 12 13  1  0
 13 14  1  0
 14 15  2  0
 15 16  1  0
 16 17  1  0
 17 18  2  0
 18 19  1  0
 19 20  2  0
 20 21  1  0
 16 22  2  0
 22 23  1  0
 22 24  1  0
 24 25  2  0
  6 26  1  0
 26 27  1  0
 27  3  1  0
 25 11  1  0
 25 14  1  0
 21 17  1  0
M  END
>  <Compound_ID>  (218) 
CHEMBL2062290

>  <Molecule Name>  (218) 
nan

>  <Molecular Weight>  (218) 
598.48

>  <AlogP>  (218) 
4.51

>  <Smiles>  (218) 
CCN1CCC(CC(=O)Nc2n[nH]c3nc(-c4cccs4)c(Br)cc23)CC1

>  <Standard Type>  (218) 
Inhibition

>  <Standard Relation>  (218) 
'='

>  <Standard Units>  (218) 
%

>  <Standard Value>  (218) 
-0.73

>  <Assay ChEMBL ID>  (218) 
CHEMBL1962142

>  <Assay Description>  (218) 
GSK_PKIS: MET mean inhibition at 0.1 uM [Nanosyn]

>  <BAO Format ID>  (218) 
BAO_0000357

>  <BAO Label>  (218) 
single protein format

>  <Assay Organism>  (218) 
None

>  <Target ChEMBL ID>  (218) 
CHEMBL3717

>  <Target Name>  (218) 
Hepatocyte growth factor receptor

>  <Target Organism>  (218) 
Homo sapiens

>  <Target Type>  (218) 
SINGLE PROTEIN

>  <Document ChEMBL ID>  (218) 
CHEMBL1961873

>  <Source Description>  (218) 
GSK Published Kinase Inhibitor Set

>  <Document Journal>  (218) 
nan

>  <Document Year>  (218) 
nan

>  <Active>  (218) 
0.0

$$$$

     RDKit          2D

 19 20  0  0  0  0  0  0  0  0999 V2000
    5.2500   -1.2990    0.0000 C   0  0  0  0  0  0  0  0  0  0  0  0
    3.7500   -1.2990    0.0000 N   0  0  0  0  0  0  0  0  0  0  0  0
    3.0000    0.0000    0.0000 C   0  0  0  0  0  0  0  0  0  0  0  0
    3.7500    1.2990    0.0000 O   0  0  0  0  0  0  0  0  0  0  0  0
    1.5000    0.0000    0.0000 C   0  0  0  0  0  0  0  0  0  0  0  0
    0.7500   -1.2990    0.0000 C   0  0  0  0  0  0  0  0  0  0  0  0
   -0.7500   -1.2990    0.0000 N   0  0  0  0  0  0  0  0  0  0  0  0
   -1.5000    0.0000    0.0000 C   0  0  0  0  0  0  0  0  0  0  0  0
   -0.7500    1.2990    0.0000 C   0  0  0  0  0  0  0  0  0  0  0  0
   -1.5000    2.5981    0.0000 C   0  0  0  0  0  0  0  0  0  0  0  0
   -0.7500    3.8971    0.0000 C   0  0  0  0  0  0  0  0  0  0  0  0
   -1.5000    5.1962    0.0000 C   0  0  0  0  0  0  0  0  0  0  0  0
   -0.7500    6.4952    0.0000 C   0  0  0  0  0  0  0  0  0  0  0  0
   -1.5000    7.7942    0.0000 C   0  0  0  0  0  0  0  0  0  0  0  0
   -3.0000    7.7942    0.0000 C   0  0  0  0  0  0  0  0  0  0  0  0
   -3.7500    6.4952    0.0000 C   0  0  0  0  0  0  0  0  0  0  0  0
   -3.0000    5.1962    0.0000 C   0  0  0  0  0  0  0  0  0  0  0  0
   -3.7500    3.8971    0.0000 C   0  0  0  0  0  0  0  0  0  0  0  0
    0.7500    1.2990    0.0000 C   0  0  0  0  0  0  0  0  0  0  0  0
  1  2  1  0
  2  3  1  0
  3  4  2  0
  3  5  1  0
  5  6  2  0
  6  7  1  0
  7  8  2  0
  8  9  1  0
  9 10  1  0
 10 11  2  0
 11 12  1  0
 12 13  2  0
 13 14  1  0
 14 15  2  0
 15 16  1  0
 16 17  2  0
 17 18  1  0
  9 19  2  0
 19  5  1  0
 17 12  1  0
M  END
>  <Compound_ID>  (219) 
CHEMBL218969

>  <Molecule Name>  (219) 
GW445015X

>  <Molecular Weight>  (219) 
252.32

>  <AlogP>  (219) 
2.92

>  <Smiles>  (219) 
CNC(=O)c1cncc(/C=C/c2ccccc2C)c1

>  <Standard Type>  (219) 
Inhibition

>  <Standard Relation>  (219) 
'='

>  <Standard Units>  (219) 
%

>  <Standard Value>  (219) 
9.7

>  <Assay ChEMBL ID>  (219) 
CHEMBL1962142

>  <Assay Description>  (219) 
GSK_PKIS: MET mean inhibition at 0.1 uM [Nanosyn]

>  <BAO Format ID>  (219) 
BAO_0000357

>  <BAO Label>  (219) 
single protein format

>  <Assay Organism>  (219) 
None

>  <Target ChEMBL ID>  (219) 
CHEMBL3717

>  <Target Name>  (219) 
Hepatocyte growth factor receptor

>  <Target Organism>  (219) 
Homo sapiens

>  <Target Type>  (219) 
SINGLE PROTEIN

>  <Document ChEMBL ID>  (219) 
CHEMBL1961873

>  <Source Description>  (219) 
GSK Published Kinase Inhibitor Set

>  <Document Journal>  (219) 
nan

>  <Document Year>  (219) 
nan

>  <Active>  (219) 
0.0

$$$$

     RDKit          2D

 28 31  0  0  0  0  0  0  0  0999 V2000
    4.5000  -10.3923    0.0000 N   0  0  0  0  0  0  0  0  0  0  0  0
    3.7500   -9.0933    0.0000 S   0  0  0  0  0  0  0  0  0  0  0  0
    2.4510   -9.8433    0.0000 O   0  0  0  0  0  0  0  0  0  0  0  0
    5.0490   -8.3433    0.0000 O   0  0  0  0  0  0  0  0  0  0  0  0
    3.0000   -7.7942    0.0000 C   0  0  0  0  0  0  0  0  0  0  0  0
    1.5000   -7.7942    0.0000 C   0  0  0  0  0  0  0  0  0  0  0  0
    0.7500   -6.4952    0.0000 C   0  0  0  0  0  0  0  0  0  0  0  0
    1.5000   -5.1962    0.0000 C   0  0  0  0  0  0  0  0  0  0  0  0
    0.7500   -3.8971    0.0000 C   0  0  0  0  0  0  0  0  0  0  0  0
    1.5000   -2.5981    0.0000 C   0  0  0  0  0  0  0  0  0  0  0  0
    0.7500   -1.2990    0.0000 C   0  0  0  0  0  0  0  0  0  0  0  0
    1.5000    0.0000    0.0000 C   0  0  0  0  0  0  0  0  0  0  0  0
    0.7500    1.2990    0.0000 C   0  0  0  0  0  0  0  0  0  0  0  0
   -0.7500    1.2990    0.0000 N   0  0  0  0  0  0  0  0  0  0  0  0
   -1.5000    0.0000    0.0000 C   0  0  0  0  0  0  0  0  0  0  0  0
   -0.7500   -1.2990    0.0000 C   0  0  0  0  0  0  0  0  0  0  0  0
   -1.5000   -2.5981    0.0000 C   0  0  0  0  0  0  0  0  0  0  0  0
   -0.7500   -3.8971    0.0000 C   0  0  0  0  0  0  0  0  0  0  0  0
   -1.5000   -5.1962    0.0000 O   0  0  0  0  0  0  0  0  0  0  0  0
   -3.0000   -5.1962    0.0000 C   0  0  0  0  0  0  0  0  0  0  0  0
   -3.7500   -6.4952    0.0000 C   0  0  0  0  0  0  0  0  0  0  0  0
   -5.2500   -6.4952    0.0000 C   0  0  0  0  0  0  0  0  0  0  0  0
   -6.0000   -7.7942    0.0000 C   0  0  0  0  0  0  0  0  0  0  0  0
   -5.2500   -9.0933    0.0000 C   0  0  0  0  0  0  0  0  0  0  0  0
   -3.7500   -9.0933    0.0000 C   0  0  0  0  0  0  0  0  0  0  0  0
   -3.0000   -7.7942    0.0000 C   0  0  0  0  0  0  0  0  0  0  0  0
    3.0000   -5.1962    0.0000 C   0  0  0  0  0  0  0  0  0  0  0  0
    3.7500   -6.4952    0.0000 C   0  0  0  0  0  0  0  0  0  0  0  0
  1  2  1  0
  2  3  2  0
  2  4  2  0
  2  5  1  0
  5  6  2  0
  6  7  1  0
  7  8  2  0
  8  9  1  0
  9 10  2  0
 10 11  1  0
 11 12  2  0
 12 13  1  0
 13 14  2  0
 14 15  1  0
 15 16  2  0
 16 17  1  0
 17 18  2  0
 18 19  1  0
 19 20  1  0
 20 21  1  0
 21 22  2  0
 22 23  1  0
 23 24  2  0
 24 25  1  0
 25 26  2  0
  8 27  1  0
 27 28  2  0
 28  5  1  0
 18  9  1  0
 26 21  1  0
 16 11  1  0
M  END
>  <Compound_ID>  (220) 
CHEMBL483748

>  <Molecule Name>  (220) 
GSK-953913A

>  <Molecular Weight>  (220) 
390.46

>  <AlogP>  (220) 
4.13

>  <Smiles>  (220) 
NS(=O)(=O)c1ccc(-c2cc3ccncc3cc2OCc2ccccc2)cc1

>  <Standard Type>  (220) 
Inhibition

>  <Standard Relation>  (220) 
'='

>  <Standard Units>  (220) 
%

>  <Standard Value>  (220) 
5.85

>  <Assay ChEMBL ID>  (220) 
CHEMBL1962143

>  <Assay Description>  (220) 
GSK_PKIS: MET mean inhibition at 1 uM [Nanosyn]

>  <BAO Format ID>  (220) 
BAO_0000357

>  <BAO Label>  (220) 
single protein format

>  <Assay Organism>  (220) 
None

>  <Target ChEMBL ID>  (220) 
CHEMBL3717

>  <Target Name>  (220) 
Hepatocyte growth factor receptor

>  <Target Organism>  (220) 
Homo sapiens

>  <Target Type>  (220) 
SINGLE PROTEIN

>  <Document ChEMBL ID>  (220) 
CHEMBL1961873

>  <Source Description>  (220) 
GSK Published Kinase Inhibitor Set

>  <Document Journal>  (220) 
nan

>  <Document Year>  (220) 
nan

>  <Active>  (220) 
0.0

$$$$

     RDKit          2D

 23 26  0  0  0  0  0  0  0  0999 V2000
   -4.6740   -7.4303    0.0000 N   0  0  0  0  0  0  0  0  0  0  0  0
   -3.3037   -6.8202    0.0000 C   0  0  0  0  0  0  0  0  0  0  0  0
   -2.0046   -7.5702    0.0000 N   0  0  0  0  0  0  0  0  0  0  0  0
   -0.8899   -6.5665    0.0000 C   0  0  0  0  0  0  0  0  0  0  0  0
    0.5773   -6.8783    0.0000 C   0  0  0  0  0  0  0  0  0  0  0  0
    1.0409   -8.3049    0.0000 C   0  0  0  0  0  0  0  0  0  0  0  0
    2.5081   -8.6168    0.0000 C   0  0  0  0  0  0  0  0  0  0  0  0
    3.5118   -7.5021    0.0000 C   0  0  0  0  0  0  0  0  0  0  0  0
    3.0482   -6.0755    0.0000 C   0  0  0  0  0  0  0  0  0  0  0  0
    4.0519   -4.9608    0.0000 Cl  0  0  0  0  0  0  0  0  0  0  0  0
    1.5810   -5.7636    0.0000 C   0  0  0  0  0  0  0  0  0  0  0  0
   -1.5000   -5.1962    0.0000 C   0  0  0  0  0  0  0  0  0  0  0  0
   -0.7500   -3.8971    0.0000 C   0  0  0  0  0  0  0  0  0  0  0  0
    0.7500   -3.8971    0.0000 C   0  0  0  0  0  0  0  0  0  0  0  0
    1.5000   -2.5981    0.0000 C   0  0  0  0  0  0  0  0  0  0  0  0
    0.7500   -1.2990    0.0000 C   0  0  0  0  0  0  0  0  0  0  0  0
    1.5000    0.0000    0.0000 N   0  0  0  0  0  0  0  0  0  0  0  0
    0.7500    1.2990    0.0000 C   0  0  0  0  0  0  0  0  0  0  0  0
   -0.7500    1.2990    0.0000 C   0  0  0  0  0  0  0  0  0  0  0  0
   -1.5000    0.0000    0.0000 C   0  0  0  0  0  0  0  0  0  0  0  0
   -0.7500   -1.2990    0.0000 C   0  0  0  0  0  0  0  0  0  0  0  0
   -1.5000   -2.5981    0.0000 N   0  0  0  0  0  0  0  0  0  0  0  0
   -2.9918   -5.3529    0.0000 S   0  0  0  0  0  0  0  0  0  0  0  0
  1  2  1  0
  2  3  2  0
  3  4  1  0
  4  5  1  0
  5  6  2  0
  6  7  1  0
  7  8  2  0
  8  9  1  0
  9 10  1  0
  9 11  2  0
  4 12  2  0
 12 13  1  0
 13 14  2  0
 14 15  1  0
 15 16  2  0
 16 17  1  0
 17 18  2  0
 18 19  1  0
 19 20  2  0
 20 21  1  0
 21 22  2  0
 12 23  1  0
 23  2  1  0
 11  5  1  0
 22 13  1  0
 21 16  1  0
M  END
>  <Compound_ID>  (221) 
CHEMBL365663

>  <Molecule Name>  (221) 
GW780159X

>  <Molecular Weight>  (221) 
338.82

>  <AlogP>  (221) 
4.66

>  <Smiles>  (221) 
Nc1nc(-c2cccc(Cl)c2)c(-c2ccc3ncccc3n2)s1

>  <Standard Type>  (221) 
Inhibition

>  <Standard Relation>  (221) 
'='

>  <Standard Units>  (221) 
%

>  <Standard Value>  (221) 
6.65

>  <Assay ChEMBL ID>  (221) 
CHEMBL1962142

>  <Assay Description>  (221) 
GSK_PKIS: MET mean inhibition at 0.1 uM [Nanosyn]

>  <BAO Format ID>  (221) 
BAO_0000357

>  <BAO Label>  (221) 
single protein format

>  <Assay Organism>  (221) 
None

>  <Target ChEMBL ID>  (221) 
CHEMBL3717

>  <Target Name>  (221) 
Hepatocyte growth factor receptor

>  <Target Organism>  (221) 
Homo sapiens

>  <Target Type>  (221) 
SINGLE PROTEIN

>  <Document ChEMBL ID>  (221) 
CHEMBL1961873

>  <Source Description>  (221) 
GSK Published Kinase Inhibitor Set

>  <Document Journal>  (221) 
nan

>  <Document Year>  (221) 
nan

>  <Active>  (221) 
0.0

$$$$

     RDKit          2D

 47 51  0  0  0  0  0  0  0  0999 V2000
    4.5000   -2.5981    0.0000 C   0  0  0  0  0  0  0  0  0  0  0  0
    3.7500   -1.2990    0.0000 S   0  0  0  0  0  0  0  0  0  0  0  0
    2.4510   -2.0490    0.0000 O   0  0  0  0  0  0  0  0  0  0  0  0
    5.0490   -0.5490    0.0000 O   0  0  0  0  0  0  0  0  0  0  0  0
    3.0000    0.0000    0.0000 C   0  0  0  0  0  0  0  0  0  0  0  0
    1.5000    0.0000    0.0000 C   0  0  0  0  0  0  0  0  0  0  0  0
    0.7500   -1.2990    0.0000 C   0  0  0  0  0  0  0  0  0  0  0  0
   -0.7500   -1.2990    0.0000 C   0  0  0  0  0  0  0  0  0  0  0  0
   -1.5000    0.0000    0.0000 C   0  0  0  0  0  0  0  0  0  0  0  0
   -0.7500    1.2990    0.0000 C   0  0  0  0  0  0  0  0  0  0  0  0
   -1.5000    2.5981    0.0000 N   0  0  0  0  0  0  0  0  0  0  0  0
   -0.7500    3.8971    0.0000 C   0  0  0  0  0  0  0  0  0  0  0  0
    0.7500    3.8971    0.0000 N   0  0  0  0  0  0  0  0  0  0  0  0
    1.5000    5.1962    0.0000 C   0  0  0  0  0  0  0  0  0  0  0  0
    0.7500    6.4952    0.0000 C   0  0  0  0  0  0  0  0  0  0  0  0
   -0.7500    6.4952    0.0000 C   0  0  0  0  0  0  0  0  0  0  0  0
   -1.5000    7.7942    0.0000 O   0  0  0  0  0  0  0  0  0  0  0  0
   -0.7500    9.0933    0.0000 C   0  0  0  0  0  0  0  0  0  0  0  0
    0.7500    9.0933    0.0000 C   0  0  0  0  0  0  0  0  0  0  0  0
    1.5000   10.3923    0.0000 C   0  0  0  0  0  0  0  0  0  0  0  0
    0.7500   11.6913    0.0000 C   0  0  0  0  0  0  0  0  0  0  0  0
    1.5000   12.9904    0.0000 N   0  0  0  0  0  0  0  0  0  0  0  0
    3.0000   12.9904    0.0000 C   0  0  0  0  0  0  0  0  0  0  0  0
    3.7500   11.6913    0.0000 O   0  0  0  0  0  0  0  0  0  0  0  0
    3.7500   14.2894    0.0000 C   0  0  0  0  0  0  0  0  0  0  0  0
    2.6009   15.2536    0.0000 C   0  0  0  0  0  0  0  0  0  0  0  0
    1.1914   14.7406    0.0000 O   0  0  0  0  0  0  0  0  0  0  0  0
    2.8614   16.7308    0.0000 N   0  0  0  0  0  0  0  0  0  0  0  0
    1.7123   17.6950    0.0000 C   0  0  0  0  0  0  0  0  0  0  0  0
    1.9728   19.1722    0.0000 C   0  0  0  0  0  0  0  0  0  0  0  0
    0.8237   20.1364    0.0000 C   0  0  0  0  0  0  0  0  0  0  0  0
   -0.5858   19.6234    0.0000 C   0  0  0  0  0  0  0  0  0  0  0  0
   -1.7349   20.5875    0.0000 C   0  0  0  0  0  0  0  0  0  0  0  0
   -2.8839   21.5517    0.0000 N   0  0  0  0  0  0  0  0  0  0  0  0
   -0.8463   18.1461    0.0000 C   0  0  0  0  0  0  0  0  0  0  0  0
   -2.2558   17.6331    0.0000 C   0  0  0  0  0  0  0  0  0  0  0  0
   -3.6653   17.1201    0.0000 F   0  0  0  0  0  0  0  0  0  0  0  0
   -1.7428   16.2236    0.0000 F   0  0  0  0  0  0  0  0  0  0  0  0
   -2.7688   19.0427    0.0000 F   0  0  0  0  0  0  0  0  0  0  0  0
    0.3028   17.1820    0.0000 C   0  0  0  0  0  0  0  0  0  0  0  0
    4.8991   15.2536    0.0000 C   0  0  0  0  0  0  0  0  0  0  0  0
    5.1595   13.7764    0.0000 C   0  0  0  0  0  0  0  0  0  0  0  0
   -0.7500   11.6913    0.0000 C   0  0  0  0  0  0  0  0  0  0  0  0
   -1.5000   10.3923    0.0000 C   0  0  0  0  0  0  0  0  0  0  0  0
   -3.0000   10.3923    0.0000 F   0  0  0  0  0  0  0  0  0  0  0  0
   -1.5000    5.1962    0.0000 N   0  0  0  0  0  0  0  0  0  0  0  0
    0.7500    1.2990    0.0000 C   0  0  0  0  0  0  0  0  0  0  0  0
  1  2  1  0
  2  3  2  0
  2  4  2  0
  2  5  1  0
  5  6  1  0
  6  7  2  0
  7  8  1  0
  8  9  2  0
  9 10  1  0
 10 11  1  0
 11 12  1  0
 12 13  2  0
 13 14  1  0
 14 15  2  0
 15 16  1  0
 16 17  1  0
 17 18  1  0
 18 19  2  0
 19 20  1  0
 20 21  2  0
 21 22  1  0
 22 23  1  0
 23 24  2  0
 23 25  1  0
 25 26  1  0
 26 27  2  0
 26 28  1  0
 28 29  1  0
 29 30  2  0
 30 31  1  0
 31 32  2  0
 32 33  1  0
 33 34  3  0
 32 35  1  0
 35 36  1  0
 36 37  1  0
 36 38  1  0
 36 39  1  0
 35 40  2  0
 25 41  1  0
 41 42  1  0
 21 43  1  0
 43 44  2  0
 44 45  1  0
 16 46  2  0
 10 47  2  0
 47  6  1  0
 46 12  1  0
 44 18  1  0
 42 25  1  0
 40 29  1  0
M  END
>  <Compound_ID>  (222) 
CHEMBL3287320

>  <Molecule Name>  (222) 
nan

>  <Molecular Weight>  (222) 
668.63

>  <AlogP>  (222) 
5.94

>  <Smiles>  (222) 
CS(=O)(=O)Cc1cccc(Nc2nccc(Oc3ccc(NC(=O)C4(C(=O)Nc5ccc(C#N)c(C(F)(F)F)c5)CC4)cc3F)n2)c1

>  <Standard Type>  (222) 
Inhibition

>  <Standard Relation>  (222) 
'='

>  <Standard Units>  (222) 
%

>  <Standard Value>  (222) 
17.7

>  <Assay ChEMBL ID>  (222) 
CHEMBL3292048

>  <Assay Description>  (222) 
Inhibition of c-Met (unknown origin) using poly (Glu,Tyr)4:1 as substrate at 10 uM after 60 mins by ELISA

>  <BAO Format ID>  (222) 
BAO_0000357

>  <BAO Label>  (222) 
single protein format

>  <Assay Organism>  (222) 
Homo sapiens

>  <Target ChEMBL ID>  (222) 
CHEMBL3717

>  <Target Name>  (222) 
Hepatocyte growth factor receptor

>  <Target Organism>  (222) 
Homo sapiens

>  <Target Type>  (222) 
SINGLE PROTEIN

>  <Document ChEMBL ID>  (222) 
CHEMBL3286177

>  <Source Description>  (222) 
Scientific Literature

>  <Document Journal>  (222) 
ACS Med Chem Lett

>  <Document Year>  (222) 
2014.0

>  <Active>  (222) 
0.0

$$$$

     RDKit          2D

 21 23  0  0  0  0  0  0  0  0999 V2000
    4.0667   -3.6527    0.0000 N   0  0  0  0  0  0  0  0  0  0  0  0
    2.6401   -3.1891    0.0000 C   0  0  0  0  0  0  0  0  0  0  0  0
    1.2135   -2.7256    0.0000 C   0  0  0  0  0  0  0  0  0  0  0  0
   -0.0000   -3.6073    0.0000 C   0  0  0  0  0  0  0  0  0  0  0  0
   -0.0000   -5.1073    0.0000 N   0  0  0  0  0  0  0  0  0  0  0  0
   -1.2990   -5.8573    0.0000 C   0  0  0  0  0  0  0  0  0  0  0  0
   -2.5981   -5.1073    0.0000 O   0  0  0  0  0  0  0  0  0  0  0  0
   -1.2990   -7.3573    0.0000 C   0  0  0  0  0  0  0  0  0  0  0  0
   -2.5981   -8.1073    0.0000 C   0  0  0  0  0  0  0  0  0  0  0  0
   -2.5981   -9.6073    0.0000 C   0  0  0  0  0  0  0  0  0  0  0  0
   -1.2990  -10.3573    0.0000 C   0  0  0  0  0  0  0  0  0  0  0  0
   -1.2990  -11.8573    0.0000 F   0  0  0  0  0  0  0  0  0  0  0  0
    0.0000   -9.6073    0.0000 C   0  0  0  0  0  0  0  0  0  0  0  0
    0.0000   -8.1073    0.0000 C   0  0  0  0  0  0  0  0  0  0  0  0
   -1.2135   -2.7256    0.0000 S   0  0  0  0  0  0  0  0  0  0  0  0
   -0.7500   -1.2990    0.0000 C   0  0  0  0  0  0  0  0  0  0  0  0
    0.7500   -1.2990    0.0000 C   0  0  0  0  0  0  0  0  0  0  0  0
    1.5000    0.0000    0.0000 C   0  0  0  0  0  0  0  0  0  0  0  0
    0.7500    1.2990    0.0000 C   0  0  0  0  0  0  0  0  0  0  0  0
   -0.7500    1.2990    0.0000 C   0  0  0  0  0  0  0  0  0  0  0  0
   -1.5000    0.0000    0.0000 C   0  0  0  0  0  0  0  0  0  0  0  0
  1  2  3  0
  2  3  1  0
  3  4  2  0
  4  5  1  0
  5  6  1  0
  6  7  2  0
  6  8  1  0
  8  9  2  0
  9 10  1  0
 10 11  2  0
 11 12  1  0
 11 13  1  0
 13 14  2  0
  4 15  1  0
 15 16  1  0
 16 17  2  0
 17 18  1  0
 18 19  1  0
 19 20  1  0
 20 21  1  0
 17  3  1  0
 14  8  1  0
 21 16  1  0
M  END
>  <Compound_ID>  (223) 
CHEMBL397570

>  <Molecule Name>  (223) 
nan

>  <Molecular Weight>  (223) 
300.36

>  <AlogP>  (223) 
3.89

>  <Smiles>  (223) 
N#Cc1c(NC(=O)c2ccc(F)cc2)sc2c1CCCC2

>  <Standard Type>  (223) 
Inhibition

>  <Standard Relation>  (223) 
'='

>  <Standard Units>  (223) 
%

>  <Standard Value>  (223) 
2.01

>  <Assay ChEMBL ID>  (223) 
CHEMBL1962143

>  <Assay Description>  (223) 
GSK_PKIS: MET mean inhibition at 1 uM [Nanosyn]

>  <BAO Format ID>  (223) 
BAO_0000357

>  <BAO Label>  (223) 
single protein format

>  <Assay Organism>  (223) 
None

>  <Target ChEMBL ID>  (223) 
CHEMBL3717

>  <Target Name>  (223) 
Hepatocyte growth factor receptor

>  <Target Organism>  (223) 
Homo sapiens

>  <Target Type>  (223) 
SINGLE PROTEIN

>  <Document ChEMBL ID>  (223) 
CHEMBL1961873

>  <Source Description>  (223) 
GSK Published Kinase Inhibitor Set

>  <Document Journal>  (223) 
nan

>  <Document Year>  (223) 
nan

>  <Active>  (223) 
0.0

$$$$

     RDKit          2D

 21 23  0  0  0  0  0  0  0  0999 V2000
   -7.7227   -2.1088    0.0000 C   0  0  0  0  0  0  0  0  0  0  0  0
   -6.2961   -1.6453    0.0000 N   0  0  0  0  0  0  0  0  0  0  0  0
   -5.9843   -0.1781    0.0000 C   0  0  0  0  0  0  0  0  0  0  0  0
   -5.1814   -2.6490    0.0000 C   0  0  0  0  0  0  0  0  0  0  0  0
   -3.7548   -2.1855    0.0000 C   0  0  0  0  0  0  0  0  0  0  0  0
   -2.6401   -3.1891    0.0000 C   0  0  0  0  0  0  0  0  0  0  0  0
   -1.2135   -2.7256    0.0000 N   0  0  0  0  0  0  0  0  0  0  0  0
   -0.0000   -3.6073    0.0000 C   0  0  0  0  0  0  0  0  0  0  0  0
   -0.0000   -5.1073    0.0000 C   0  0  0  0  0  0  0  0  0  0  0  0
    1.2135   -5.9890    0.0000 N   0  0  0  0  0  0  0  0  0  0  0  0
    0.7500   -7.4156    0.0000 O   0  0  0  0  0  0  0  0  0  0  0  0
   -0.7500   -7.4156    0.0000 N   0  0  0  0  0  0  0  0  0  0  0  0
   -1.2135   -5.9890    0.0000 C   0  0  0  0  0  0  0  0  0  0  0  0
   -2.6401   -5.5255    0.0000 N   0  0  0  0  0  0  0  0  0  0  0  0
    1.2135   -2.7256    0.0000 N   0  0  0  0  0  0  0  0  0  0  0  0
    0.7500   -1.2990    0.0000 C   0  0  0  0  0  0  0  0  0  0  0  0
    1.5000    0.0000    0.0000 C   0  0  0  0  0  0  0  0  0  0  0  0
    0.7500    1.2990    0.0000 N   0  0  0  0  0  0  0  0  0  0  0  0
   -0.7500    1.2990    0.0000 C   0  0  0  0  0  0  0  0  0  0  0  0
   -1.5000    0.0000    0.0000 C   0  0  0  0  0  0  0  0  0  0  0  0
   -0.7500   -1.2990    0.0000 C   0  0  0  0  0  0  0  0  0  0  0  0
  1  2  1  0
  2  3  1  0
  2  4  1  0
  4  5  1  0
  5  6  1  0
  6  7  1  0
  7  8  1  0
  8  9  1  0
  9 10  2  0
 10 11  1  0
 11 12  1  0
 12 13  2  0
 13 14  1  0
  8 15  2  0
 15 16  1  0
 16 17  2  0
 17 18  1  0
 18 19  2  0
 19 20  1  0
 20 21  2  0
 21  7  1  0
 13  9  1  0
 21 16  1  0
M  END
>  <Compound_ID>  (224) 
CHEMBL191105

>  <Molecule Name>  (224) 
nan

>  <Molecular Weight>  (224) 
287.33

>  <AlogP>  (224) 
1.02

>  <Smiles>  (224) 
CN(C)CCCn1c(-c2nonc2N)nc2cnccc21

>  <Standard Type>  (224) 
Inhibition

>  <Standard Relation>  (224) 
'='

>  <Standard Units>  (224) 
%

>  <Standard Value>  (224) 
6.53

>  <Assay ChEMBL ID>  (224) 
CHEMBL1962142

>  <Assay Description>  (224) 
GSK_PKIS: MET mean inhibition at 0.1 uM [Nanosyn]

>  <BAO Format ID>  (224) 
BAO_0000357

>  <BAO Label>  (224) 
single protein format

>  <Assay Organism>  (224) 
None

>  <Target ChEMBL ID>  (224) 
CHEMBL3717

>  <Target Name>  (224) 
Hepatocyte growth factor receptor

>  <Target Organism>  (224) 
Homo sapiens

>  <Target Type>  (224) 
SINGLE PROTEIN

>  <Document ChEMBL ID>  (224) 
CHEMBL1961873

>  <Source Description>  (224) 
GSK Published Kinase Inhibitor Set

>  <Document Journal>  (224) 
nan

>  <Document Year>  (224) 
nan

>  <Active>  (224) 
0.0

$$$$

     RDKit          2D

 18 21  0  0  0  0  0  0  0  0999 V2000
   -2.6401   -5.5255    0.0000 N   0  0  0  0  0  0  0  0  0  0  0  0
   -1.2135   -5.9890    0.0000 C   0  0  0  0  0  0  0  0  0  0  0  0
   -0.7500   -7.4156    0.0000 N   0  0  0  0  0  0  0  0  0  0  0  0
    0.7500   -7.4156    0.0000 O   0  0  0  0  0  0  0  0  0  0  0  0
    1.2135   -5.9890    0.0000 N   0  0  0  0  0  0  0  0  0  0  0  0
   -0.0000   -5.1073    0.0000 C   0  0  0  0  0  0  0  0  0  0  0  0
   -0.0000   -3.6073    0.0000 C   0  0  0  0  0  0  0  0  0  0  0  0
    1.2135   -2.7256    0.0000 N   0  0  0  0  0  0  0  0  0  0  0  0
    0.7500   -1.2990    0.0000 C   0  0  0  0  0  0  0  0  0  0  0  0
    1.5000    0.0000    0.0000 C   0  0  0  0  0  0  0  0  0  0  0  0
    0.7500    1.2990    0.0000 N   0  0  0  0  0  0  0  0  0  0  0  0
   -0.7500    1.2990    0.0000 C   0  0  0  0  0  0  0  0  0  0  0  0
   -1.5000    0.0000    0.0000 C   0  0  0  0  0  0  0  0  0  0  0  0
   -0.7500   -1.2990    0.0000 C   0  0  0  0  0  0  0  0  0  0  0  0
   -1.2135   -2.7256    0.0000 N   0  0  0  0  0  0  0  0  0  0  0  0
   -2.6401   -3.1891    0.0000 C   0  0  0  0  0  0  0  0  0  0  0  0
   -3.6438   -4.3039    0.0000 C   0  0  0  0  0  0  0  0  0  0  0  0
   -4.1073   -2.8773    0.0000 C   0  0  0  0  0  0  0  0  0  0  0  0
  1  2  1  0
  2  3  2  0
  3  4  1  0
  4  5  1  0
  5  6  2  0
  6  7  1  0
  7  8  2  0
  8  9  1  0
  9 10  2  0
 10 11  1  0
 11 12  2  0
 12 13  1  0
 13 14  2  0
 14 15  1  0
 15 16  1  0
 16 17  1  0
 17 18  1  0
  6  2  1  0
 15  7  1  0
 18 16  1  0
 14  9  1  0
M  END
>  <Compound_ID>  (225) 
CHEMBL185962

>  <Molecule Name>  (225) 
nan

>  <Molecular Weight>  (225) 
242.24

>  <AlogP>  (225) 
1.40

>  <Smiles>  (225) 
Nc1nonc1-c1nc2cnccc2n1C1CC1

>  <Standard Type>  (225) 
Inhibition

>  <Standard Relation>  (225) 
'='

>  <Standard Units>  (225) 
%

>  <Standard Value>  (225) 
7.09

>  <Assay ChEMBL ID>  (225) 
CHEMBL1962143

>  <Assay Description>  (225) 
GSK_PKIS: MET mean inhibition at 1 uM [Nanosyn]

>  <BAO Format ID>  (225) 
BAO_0000357

>  <BAO Label>  (225) 
single protein format

>  <Assay Organism>  (225) 
None

>  <Target ChEMBL ID>  (225) 
CHEMBL3717

>  <Target Name>  (225) 
Hepatocyte growth factor receptor

>  <Target Organism>  (225) 
Homo sapiens

>  <Target Type>  (225) 
SINGLE PROTEIN

>  <Document ChEMBL ID>  (225) 
CHEMBL1961873

>  <Source Description>  (225) 
GSK Published Kinase Inhibitor Set

>  <Document Journal>  (225) 
nan

>  <Document Year>  (225) 
nan

>  <Active>  (225) 
0.0

$$$$

     RDKit          2D

 33 36  0  0  0  0  0  0  0  0999 V2000
  -10.0849   -6.9740    0.0000 N   0  0  0  0  0  0  0  0  0  0  0  0
   -8.6583   -6.5105    0.0000 S   0  0  0  0  0  0  0  0  0  0  0  0
   -9.1218   -5.0839    0.0000 O   0  0  0  0  0  0  0  0  0  0  0  0
   -8.1948   -7.9371    0.0000 O   0  0  0  0  0  0  0  0  0  0  0  0
   -7.2317   -6.0469    0.0000 C   0  0  0  0  0  0  0  0  0  0  0  0
   -6.9199   -4.5797    0.0000 C   0  0  0  0  0  0  0  0  0  0  0  0
   -5.4933   -4.1162    0.0000 C   0  0  0  0  0  0  0  0  0  0  0  0
   -4.3786   -5.1199    0.0000 C   0  0  0  0  0  0  0  0  0  0  0  0
   -2.9520   -4.6564    0.0000 N   0  0  0  0  0  0  0  0  0  0  0  0
   -2.6401   -3.1891    0.0000 N   0  0  0  0  0  0  0  0  0  0  0  0
   -1.2135   -2.7256    0.0000 C   0  0  0  0  0  0  0  0  0  0  0  0
   -0.0000   -3.6073    0.0000 C   0  0  0  0  0  0  0  0  0  0  0  0
    0.0000   -5.1073    0.0000 O   0  0  0  0  0  0  0  0  0  0  0  0
    1.2135   -2.7256    0.0000 N   0  0  0  0  0  0  0  0  0  0  0  0
    0.7500   -1.2990    0.0000 C   0  0  0  0  0  0  0  0  0  0  0  0
    1.5000    0.0000    0.0000 C   0  0  0  0  0  0  0  0  0  0  0  0
    0.7500    1.2990    0.0000 C   0  0  0  0  0  0  0  0  0  0  0  0
   -0.7500    1.2990    0.0000 C   0  0  0  0  0  0  0  0  0  0  0  0
   -1.5000    2.5981    0.0000 C   0  0  0  0  0  0  0  0  0  0  0  0
   -3.0000    2.5981    0.0000 O   0  0  0  0  0  0  0  0  0  0  0  0
   -0.7500    3.8971    0.0000 N   0  0  0  0  0  0  0  0  0  0  0  0
   -1.5000    5.1962    0.0000 C   0  0  0  0  0  0  0  0  0  0  0  0
   -0.7500    6.4952    0.0000 C   0  0  0  0  0  0  0  0  0  0  0  0
   -1.5000    7.7942    0.0000 C   0  0  0  0  0  0  0  0  0  0  0  0
   -0.7500    9.0933    0.0000 N   0  0  0  0  0  0  0  0  0  0  0  0
   -1.3601   10.4636    0.0000 C   0  0  0  0  0  0  0  0  0  0  0  0
   -0.2454   11.4673    0.0000 C   0  0  0  0  0  0  0  0  0  0  0  0
    1.0537   10.7173    0.0000 N   0  0  0  0  0  0  0  0  0  0  0  0
    0.7418    9.2501    0.0000 C   0  0  0  0  0  0  0  0  0  0  0  0
   -1.5000    0.0000    0.0000 C   0  0  0  0  0  0  0  0  0  0  0  0
   -0.7500   -1.2990    0.0000 C   0  0  0  0  0  0  0  0  0  0  0  0
   -4.6904   -6.5871    0.0000 C   0  0  0  0  0  0  0  0  0  0  0  0
   -6.1170   -7.0506    0.0000 C   0  0  0  0  0  0  0  0  0  0  0  0
  1  2  1  0
  2  3  2  0
  2  4  2  0
  2  5  1  0
  5  6  2  0
  6  7  1  0
  7  8  2  0
  8  9  1  0
  9 10  1  0
 10 11  2  0
 11 12  1  0
 12 13  2  0
 12 14  1  0
 14 15  1  0
 15 16  2  0
 16 17  1  0
 17 18  2  0
 18 19  1  0
 19 20  2  0
 19 21  1  0
 21 22  1  0
 22 23  1  0
 23 24  1  0
 24 25  1  0
 25 26  1  0
 26 27  2  0
 27 28  1  0
 28 29  2  0
 18 30  1  0
 30 31  2  0
  8 32  1  0
 32 33  2  0
 33  5  1  0
 31 11  1  0
 31 15  1  0
 29 25  1  0
M  END
>  <Compound_ID>  (226) 
CHEMBL272026

>  <Molecule Name>  (226) 
GW290597X

>  <Molecular Weight>  (226) 
467.51

>  <AlogP>  (226) 
1.12

>  <Smiles>  (226) 
NS(=O)(=O)c1ccc(N/N=C2\C(=O)Nc3ccc(C(=O)NCCCn4ccnc4)cc32)cc1

>  <Standard Type>  (226) 
Inhibition

>  <Standard Relation>  (226) 
'='

>  <Standard Units>  (226) 
%

>  <Standard Value>  (226) 
11.99

>  <Assay ChEMBL ID>  (226) 
CHEMBL1962143

>  <Assay Description>  (226) 
GSK_PKIS: MET mean inhibition at 1 uM [Nanosyn]

>  <BAO Format ID>  (226) 
BAO_0000357

>  <BAO Label>  (226) 
single protein format

>  <Assay Organism>  (226) 
None

>  <Target ChEMBL ID>  (226) 
CHEMBL3717

>  <Target Name>  (226) 
Hepatocyte growth factor receptor

>  <Target Organism>  (226) 
Homo sapiens

>  <Target Type>  (226) 
SINGLE PROTEIN

>  <Document ChEMBL ID>  (226) 
CHEMBL1961873

>  <Source Description>  (226) 
GSK Published Kinase Inhibitor Set

>  <Document Journal>  (226) 
nan

>  <Document Year>  (226) 
nan

>  <Active>  (226) 
0.0

$$$$

     RDKit          2D

 26 29  0  0  0  0  0  0  0  0999 V2000
   -2.5074    3.6834    0.0000 C   0  0  0  0  0  0  0  0  0  0  0  0
   -2.8192    2.2162    0.0000 O   0  0  0  0  0  0  0  0  0  0  0  0
   -4.2458    1.7527    0.0000 C   0  0  0  0  0  0  0  0  0  0  0  0
   -4.5577    0.2855    0.0000 C   0  0  0  0  0  0  0  0  0  0  0  0
   -5.9843   -0.1781    0.0000 C   0  0  0  0  0  0  0  0  0  0  0  0
   -6.2961   -1.6453    0.0000 N   0  0  0  0  0  0  0  0  0  0  0  0
   -5.1814   -2.6490    0.0000 C   0  0  0  0  0  0  0  0  0  0  0  0
   -5.4933   -4.1162    0.0000 N   0  0  0  0  0  0  0  0  0  0  0  0
   -4.3786   -5.1199    0.0000 C   0  0  0  0  0  0  0  0  0  0  0  0
   -2.9520   -4.6564    0.0000 C   0  0  0  0  0  0  0  0  0  0  0  0
   -2.6401   -3.1891    0.0000 C   0  0  0  0  0  0  0  0  0  0  0  0
   -1.2135   -2.7256    0.0000 C   0  0  0  0  0  0  0  0  0  0  0  0
   -0.0000   -3.6073    0.0000 C   0  0  0  0  0  0  0  0  0  0  0  0
    1.2135   -2.7256    0.0000 N   0  0  0  0  0  0  0  0  0  0  0  0
    0.7500   -1.2990    0.0000 N   0  0  0  0  0  0  0  0  0  0  0  0
    1.5000    0.0000    0.0000 N   0  0  0  0  0  0  0  0  0  0  0  0
    0.7500    1.2990    0.0000 C   0  0  0  0  0  0  0  0  0  0  0  0
   -0.7500    1.2990    0.0000 C   0  0  0  0  0  0  0  0  0  0  0  0
   -1.5000    0.0000    0.0000 C   0  0  0  0  0  0  0  0  0  0  0  0
   -0.7500   -1.2990    0.0000 C   0  0  0  0  0  0  0  0  0  0  0  0
   -3.7548   -2.1855    0.0000 N   0  0  0  0  0  0  0  0  0  0  0  0
   -7.0990    0.8256    0.0000 C   0  0  0  0  0  0  0  0  0  0  0  0
   -6.7871    2.2929    0.0000 C   0  0  0  0  0  0  0  0  0  0  0  0
   -7.9018    3.2966    0.0000 O   0  0  0  0  0  0  0  0  0  0  0  0
   -7.5900    4.7638    0.0000 C   0  0  0  0  0  0  0  0  0  0  0  0
   -5.3605    2.7564    0.0000 C   0  0  0  0  0  0  0  0  0  0  0  0
  1  2  1  0
  2  3  1  0
  3  4  2  0
  4  5  1  0
  5  6  1  0
  6  7  1  0
  7  8  2  0
  8  9  1  0
  9 10  2  0
 10 11  1  0
 11 12  1  0
 12 13  1  0
 13 14  2  0
 14 15  1  0
 15 16  1  0
 16 17  2  0
 17 18  1  0
 18 19  2  0
 19 20  1  0
 11 21  2  0
  5 22  2  0
 22 23  1  0
 23 24  1  0
 24 25  1  0
 23 26  2  0
 26  3  1  0
 21  7  1  0
 20 12  2  0
 20 15  1  0
M  END
>  <Compound_ID>  (227) 
CHEMBL359999

>  <Molecule Name>  (227) 
GW801372X

>  <Molecular Weight>  (227) 
348.37

>  <AlogP>  (227) 
2.95

>  <Smiles>  (227) 
COc1cc(Nc2nccc(-c3cnn4ncccc34)n2)cc(OC)c1

>  <Standard Type>  (227) 
Inhibition

>  <Standard Relation>  (227) 
'='

>  <Standard Units>  (227) 
%

>  <Standard Value>  (227) 
14.45

>  <Assay ChEMBL ID>  (227) 
CHEMBL1962143

>  <Assay Description>  (227) 
GSK_PKIS: MET mean inhibition at 1 uM [Nanosyn]

>  <BAO Format ID>  (227) 
BAO_0000357

>  <BAO Label>  (227) 
single protein format

>  <Assay Organism>  (227) 
None

>  <Target ChEMBL ID>  (227) 
CHEMBL3717

>  <Target Name>  (227) 
Hepatocyte growth factor receptor

>  <Target Organism>  (227) 
Homo sapiens

>  <Target Type>  (227) 
SINGLE PROTEIN

>  <Document ChEMBL ID>  (227) 
CHEMBL1961873

>  <Source Description>  (227) 
GSK Published Kinase Inhibitor Set

>  <Document Journal>  (227) 
nan

>  <Document Year>  (227) 
nan

>  <Active>  (227) 
0.0

$$$$

     RDKit          2D

 18 19  0  0  0  0  0  0  0  0999 V2000
    6.0000   -2.5981    0.0000 C   0  0  0  0  0  0  0  0  0  0  0  0
    5.2500   -1.2990    0.0000 C   0  0  0  0  0  0  0  0  0  0  0  0
    3.7500   -1.2990    0.0000 C   0  0  0  0  0  0  0  0  0  0  0  0
    3.0000    0.0000    0.0000 O   0  0  0  0  0  0  0  0  0  0  0  0
    1.5000    0.0000    0.0000 C   0  0  0  0  0  0  0  0  0  0  0  0
    0.7500   -1.2990    0.0000 C   0  0  0  0  0  0  0  0  0  0  0  0
   -0.7500   -1.2990    0.0000 C   0  0  0  0  0  0  0  0  0  0  0  0
   -1.5000    0.0000    0.0000 C   0  0  0  0  0  0  0  0  0  0  0  0
   -3.0000    0.0000    0.0000 C   0  0  0  0  0  0  0  0  0  0  0  0
   -3.7500    1.2990    0.0000 C   0  0  0  0  0  0  0  0  0  0  0  0
   -3.1399    2.6694    0.0000 S   0  0  0  0  0  0  0  0  0  0  0  0
   -4.2546    3.6731    0.0000 C   0  0  0  0  0  0  0  0  0  0  0  0
   -4.0978    5.1648    0.0000 O   0  0  0  0  0  0  0  0  0  0  0  0
   -5.5537    2.9231    0.0000 N   0  0  0  0  0  0  0  0  0  0  0  0
   -5.2418    1.4558    0.0000 C   0  0  0  0  0  0  0  0  0  0  0  0
   -6.2455    0.3411    0.0000 O   0  0  0  0  0  0  0  0  0  0  0  0
   -0.7500    1.2990    0.0000 C   0  0  0  0  0  0  0  0  0  0  0  0
    0.7500    1.2990    0.0000 C   0  0  0  0  0  0  0  0  0  0  0  0
  1  2  1  0
  2  3  1  0
  3  4  1  0
  4  5  1  0
  5  6  2  0
  6  7  1  0
  7  8  2  0
  8  9  1  0
  9 10  2  0
 10 11  1  0
 11 12  1  0
 12 13  2  0
 12 14  1  0
 14 15  1  0
 15 16  2  0
  8 17  1  0
 17 18  2  0
 18  5  1  0
 15 10  1  0
M  END
>  <Compound_ID>  (228) 
CHEMBL84558

>  <Molecule Name>  (228) 
nan

>  <Molecular Weight>  (228) 
263.32

>  <AlogP>  (228) 
2.80

>  <Smiles>  (228) 
CCCOc1ccc(/C=C2\SC(=O)NC2=O)cc1

>  <Standard Type>  (228) 
Inhibition

>  <Standard Relation>  (228) 
'='

>  <Standard Units>  (228) 
%

>  <Standard Value>  (228) 
-6.0

>  <Assay ChEMBL ID>  (228) 
CHEMBL1012703

>  <Assay Description>  (228) 
Inhibition of MET at 5 uM

>  <BAO Format ID>  (228) 
BAO_0000357

>  <BAO Label>  (228) 
single protein format

>  <Assay Organism>  (228) 
None

>  <Target ChEMBL ID>  (228) 
CHEMBL3717

>  <Target Name>  (228) 
Hepatocyte growth factor receptor

>  <Target Organism>  (228) 
Homo sapiens

>  <Target Type>  (228) 
SINGLE PROTEIN

>  <Document ChEMBL ID>  (228) 
CHEMBL1139352

>  <Source Description>  (228) 
Scientific Literature

>  <Document Journal>  (228) 
J Med Chem

>  <Document Year>  (228) 
2009.0

>  <Active>  (228) 
0.0

$$$$

     RDKit          2D

 25 27  0  0  0  0  0  0  0  0999 V2000
    6.0000   -2.5981    0.0000 C   0  0  0  0  0  0  0  0  0  0  0  0
    5.2500   -1.2990    0.0000 C   0  0  0  0  0  0  0  0  0  0  0  0
    3.7500   -1.2990    0.0000 C   0  0  0  0  0  0  0  0  0  0  0  0
    3.0000   -2.5981    0.0000 O   0  0  0  0  0  0  0  0  0  0  0  0
    3.0000    0.0000    0.0000 N   0  0  0  0  0  0  0  0  0  0  0  0
    1.5000    0.0000    0.0000 C   0  0  0  0  0  0  0  0  0  0  0  0
    0.7500   -1.2990    0.0000 C   0  0  0  0  0  0  0  0  0  0  0  0
   -0.7500   -1.2990    0.0000 C   0  0  0  0  0  0  0  0  0  0  0  0
   -1.5000    0.0000    0.0000 C   0  0  0  0  0  0  0  0  0  0  0  0
   -3.0000    0.0000    0.0000 C   0  0  0  0  0  0  0  0  0  0  0  0
   -0.7500    1.2990    0.0000 C   0  0  0  0  0  0  0  0  0  0  0  0
   -1.5000    2.5981    0.0000 C   0  0  0  0  0  0  0  0  0  0  0  0
   -0.7500    3.8971    0.0000 C   0  0  0  0  0  0  0  0  0  0  0  0
   -1.5000    5.1962    0.0000 C   0  0  0  0  0  0  0  0  0  0  0  0
   -3.0000    5.1962    0.0000 C   0  0  0  0  0  0  0  0  0  0  0  0
   -3.7500    6.4952    0.0000 C   0  0  0  0  0  0  0  0  0  0  0  0
   -5.2500    6.4952    0.0000 O   0  0  0  0  0  0  0  0  0  0  0  0
   -3.0000    7.7942    0.0000 N   0  0  0  0  0  0  0  0  0  0  0  0
   -3.7500    9.0933    0.0000 C   0  0  0  0  0  0  0  0  0  0  0  0
   -3.0000   10.3923    0.0000 C   0  0  0  0  0  0  0  0  0  0  0  0
   -3.0000   11.8923    0.0000 C   0  0  0  0  0  0  0  0  0  0  0  0
   -1.7010   11.1423    0.0000 C   0  0  0  0  0  0  0  0  0  0  0  0
   -3.7500    3.8971    0.0000 C   0  0  0  0  0  0  0  0  0  0  0  0
   -3.0000    2.5981    0.0000 C   0  0  0  0  0  0  0  0  0  0  0  0
    0.7500    1.2990    0.0000 C   0  0  0  0  0  0  0  0  0  0  0  0
  1  2  1  0
  2  3  1  0
  3  4  2  0
  3  5  1  0
  5  6  1  0
  6  7  2  0
  7  8  1  0
  8  9  2  0
  9 10  1  0
  9 11  1  0
 11 12  1  0
 12 13  2  0
 13 14  1  0
 14 15  2  0
 15 16  1  0
 16 17  2  0
 16 18  1  0
 18 19  1  0
 19 20  1  0
 20 21  1  0
 21 22  1  0
 15 23  1  0
 23 24  2  0
 11 25  2  0
 25  6  1  0
 24 12  1  0
 22 20  1  0
M  END
>  <Compound_ID>  (229) 
CHEMBL517666

>  <Molecule Name>  (229) 
GW796921X

>  <Molecular Weight>  (229) 
336.44

>  <AlogP>  (229) 
4.15

>  <Smiles>  (229) 
CCC(=O)Nc1ccc(C)c(-c2ccc(C(=O)NCC3CC3)cc2)c1

>  <Standard Type>  (229) 
Inhibition

>  <Standard Relation>  (229) 
'='

>  <Standard Units>  (229) 
%

>  <Standard Value>  (229) 
6.02

>  <Assay ChEMBL ID>  (229) 
CHEMBL1962142

>  <Assay Description>  (229) 
GSK_PKIS: MET mean inhibition at 0.1 uM [Nanosyn]

>  <BAO Format ID>  (229) 
BAO_0000357

>  <BAO Label>  (229) 
single protein format

>  <Assay Organism>  (229) 
None

>  <Target ChEMBL ID>  (229) 
CHEMBL3717

>  <Target Name>  (229) 
Hepatocyte growth factor receptor

>  <Target Organism>  (229) 
Homo sapiens

>  <Target Type>  (229) 
SINGLE PROTEIN

>  <Document ChEMBL ID>  (229) 
CHEMBL1961873

>  <Source Description>  (229) 
GSK Published Kinase Inhibitor Set

>  <Document Journal>  (229) 
nan

>  <Document Year>  (229) 
nan

>  <Active>  (229) 
0.0

$$$$

     RDKit          2D

 27 30  0  0  0  0  0  0  0  0999 V2000
   -9.1645    1.7722    0.0000 C   0  0  0  0  0  0  0  0  0  0  0  0
   -8.0498    0.7685    0.0000 O   0  0  0  0  0  0  0  0  0  0  0  0
   -6.6232    1.2320    0.0000 C   0  0  0  0  0  0  0  0  0  0  0  0
   -6.3114    2.6992    0.0000 C   0  0  0  0  0  0  0  0  0  0  0  0
   -4.8848    3.1627    0.0000 C   0  0  0  0  0  0  0  0  0  0  0  0
   -3.7701    2.1590    0.0000 C   0  0  0  0  0  0  0  0  0  0  0  0
   -4.0819    0.6918    0.0000 C   0  0  0  0  0  0  0  0  0  0  0  0
   -2.9672   -0.3119    0.0000 N   0  0  0  0  0  0  0  0  0  0  0  0
   -3.1240   -1.8037    0.0000 N   0  0  0  0  0  0  0  0  0  0  0  0
   -1.7537   -2.4138    0.0000 C   0  0  0  0  0  0  0  0  0  0  0  0
   -0.7500   -1.2990    0.0000 C   0  0  0  0  0  0  0  0  0  0  0  0
    0.7500   -1.2990    0.0000 C   0  0  0  0  0  0  0  0  0  0  0  0
    1.5000   -2.5981    0.0000 N   0  0  0  0  0  0  0  0  0  0  0  0
    3.0000   -2.5981    0.0000 N   0  0  0  0  0  0  0  0  0  0  0  0
    3.7500   -3.8971    0.0000 C   0  0  0  0  0  0  0  0  0  0  0  0
    5.2500   -3.8971    0.0000 C   0  0  0  0  0  0  0  0  0  0  0  0
    6.0000   -5.1962    0.0000 C   0  0  0  0  0  0  0  0  0  0  0  0
    7.5000   -5.1962    0.0000 C   0  0  0  0  0  0  0  0  0  0  0  0
    8.2500   -3.8971    0.0000 C   0  0  0  0  0  0  0  0  0  0  0  0
    7.5000   -2.5981    0.0000 C   0  0  0  0  0  0  0  0  0  0  0  0
    8.2500   -1.2990    0.0000 F   0  0  0  0  0  0  0  0  0  0  0  0
    6.0000   -2.5981    0.0000 C   0  0  0  0  0  0  0  0  0  0  0  0
    1.5000    0.0000    0.0000 N   0  0  0  0  0  0  0  0  0  0  0  0
    0.7500    1.2990    0.0000 C   0  0  0  0  0  0  0  0  0  0  0  0
   -0.7500    1.2990    0.0000 N   0  0  0  0  0  0  0  0  0  0  0  0
   -1.5000    0.0000    0.0000 C   0  0  0  0  0  0  0  0  0  0  0  0
   -5.5085    0.2283    0.0000 C   0  0  0  0  0  0  0  0  0  0  0  0
  1  2  1  0
  2  3  1  0
  3  4  2  0
  4  5  1  0
  5  6  2  0
  6  7  1  0
  7  8  1  0
  8  9  1  0
  9 10  2  0
 10 11  1  0
 11 12  2  0
 12 13  1  0
 13 14  1  0
 14 15  2  0
 15 16  1  0
 16 17  2  0
 17 18  1  0
 18 19  2  0
 19 20  1  0
 20 21  1  0
 20 22  2  0
 12 23  1  0
 23 24  2  0
 24 25  1  0
 25 26  2  0
  7 27  2  0
 27  3  1  0
 26  8  1  0
 26 11  1  0
 22 16  1  0
M  END
>  <Compound_ID>  (230) 
CHEMBL69757

>  <Molecule Name>  (230) 
GW817394X

>  <Molecular Weight>  (230) 
362.37

>  <AlogP>  (230) 
3.41

>  <Smiles>  (230) 
COc1cccc(-n2ncc3c(N/N=C/c4cccc(F)c4)ncnc32)c1

>  <Standard Type>  (230) 
Inhibition

>  <Standard Relation>  (230) 
'='

>  <Standard Units>  (230) 
%

>  <Standard Value>  (230) 
7.49

>  <Assay ChEMBL ID>  (230) 
CHEMBL1962142

>  <Assay Description>  (230) 
GSK_PKIS: MET mean inhibition at 0.1 uM [Nanosyn]

>  <BAO Format ID>  (230) 
BAO_0000357

>  <BAO Label>  (230) 
single protein format

>  <Assay Organism>  (230) 
None

>  <Target ChEMBL ID>  (230) 
CHEMBL3717

>  <Target Name>  (230) 
Hepatocyte growth factor receptor

>  <Target Organism>  (230) 
Homo sapiens

>  <Target Type>  (230) 
SINGLE PROTEIN

>  <Document ChEMBL ID>  (230) 
CHEMBL1961873

>  <Source Description>  (230) 
GSK Published Kinase Inhibitor Set

>  <Document Journal>  (230) 
nan

>  <Document Year>  (230) 
nan

>  <Active>  (230) 
0.0

$$$$

     RDKit          2D

 24 26  0  0  0  0  0  0  0  0999 V2000
    4.5000    0.0000    0.0000 N   0  0  0  0  0  0  0  0  0  0  0  0
    3.0000    0.0000    0.0000 S   0  0  0  0  0  0  0  0  0  0  0  0
    3.0000   -1.5000    0.0000 O   0  0  0  0  0  0  0  0  0  0  0  0
    3.0000    1.5000    0.0000 O   0  0  0  0  0  0  0  0  0  0  0  0
    1.5000    0.0000    0.0000 C   0  0  0  0  0  0  0  0  0  0  0  0
    0.7500   -1.2990    0.0000 C   0  0  0  0  0  0  0  0  0  0  0  0
   -0.7500   -1.2990    0.0000 C   0  0  0  0  0  0  0  0  0  0  0  0
   -1.5000    0.0000    0.0000 C   0  0  0  0  0  0  0  0  0  0  0  0
   -3.0000    0.0000    0.0000 N   0  0  0  0  0  0  0  0  0  0  0  0
   -3.7500    1.2990    0.0000 C   0  0  0  0  0  0  0  0  0  0  0  0
   -5.2418    1.4558    0.0000 C   0  0  0  0  0  0  0  0  0  0  0  0
   -5.5537    2.9231    0.0000 C   0  0  0  0  0  0  0  0  0  0  0  0
   -6.9240    3.5332    0.0000 C   0  0  0  0  0  0  0  0  0  0  0  0
   -7.0808    5.0249    0.0000 C   0  0  0  0  0  0  0  0  0  0  0  0
   -8.4511    5.6350    0.0000 C   0  0  0  0  0  0  0  0  0  0  0  0
   -9.6646    4.7534    0.0000 C   0  0  0  0  0  0  0  0  0  0  0  0
  -11.0349    5.3635    0.0000 O   0  0  0  0  0  0  0  0  0  0  0  0
   -9.5078    3.2616    0.0000 C   0  0  0  0  0  0  0  0  0  0  0  0
  -10.7213    2.3799    0.0000 F   0  0  0  0  0  0  0  0  0  0  0  0
   -8.1375    2.6515    0.0000 C   0  0  0  0  0  0  0  0  0  0  0  0
   -4.2546    3.6731    0.0000 N   0  0  0  0  0  0  0  0  0  0  0  0
   -3.1399    2.6694    0.0000 N   0  0  0  0  0  0  0  0  0  0  0  0
   -0.7500    1.2990    0.0000 C   0  0  0  0  0  0  0  0  0  0  0  0
    0.7500    1.2990    0.0000 C   0  0  0  0  0  0  0  0  0  0  0  0
  1  2  1  0
  2  3  2  0
  2  4  2  0
  2  5  1  0
  5  6  2  0
  6  7  1  0
  7  8  2  0
  8  9  1  0
  9 10  1  0
 10 11  2  0
 11 12  1  0
 12 13  1  0
 13 14  2  0
 14 15  1  0
 15 16  2  0
 16 17  1  0
 16 18  1  0
 18 19  1  0
 18 20  2  0
 12 21  2  0
 21 22  1  0
  8 23  1  0
 23 24  2  0
 24  5  1  0
 22 10  1  0
 20 13  1  0
M  END
>  <Compound_ID>  (231) 
CHEMBL103115

>  <Molecule Name>  (231) 
GW831091X

>  <Molecular Weight>  (231) 
348.36

>  <AlogP>  (231) 
2.31

>  <Smiles>  (231) 
NS(=O)(=O)c1ccc(Nc2cc(-c3ccc(O)c(F)c3)n[nH]2)cc1

>  <Standard Type>  (231) 
Inhibition

>  <Standard Relation>  (231) 
'='

>  <Standard Units>  (231) 
%

>  <Standard Value>  (231) 
-2.91

>  <Assay ChEMBL ID>  (231) 
CHEMBL1962143

>  <Assay Description>  (231) 
GSK_PKIS: MET mean inhibition at 1 uM [Nanosyn]

>  <BAO Format ID>  (231) 
BAO_0000357

>  <BAO Label>  (231) 
single protein format

>  <Assay Organism>  (231) 
None

>  <Target ChEMBL ID>  (231) 
CHEMBL3717

>  <Target Name>  (231) 
Hepatocyte growth factor receptor

>  <Target Organism>  (231) 
Homo sapiens

>  <Target Type>  (231) 
SINGLE PROTEIN

>  <Document ChEMBL ID>  (231) 
CHEMBL1961873

>  <Source Description>  (231) 
GSK Published Kinase Inhibitor Set

>  <Document Journal>  (231) 
nan

>  <Document Year>  (231) 
nan

>  <Active>  (231) 
0.0

$$$$

     RDKit          2D

 29 34  0  0  0  0  0  0  0  0999 V2000
    3.7500   -1.2990    0.0000 C   0  0  0  0  0  0  0  0  0  0  0  0
    3.0000    0.0000    0.0000 O   0  0  0  0  0  0  0  0  0  0  0  0
    1.5000    0.0000    0.0000 C   0  0  0  0  0  0  0  0  0  0  0  0
    0.7500   -1.2990    0.0000 C   0  0  0  0  0  0  0  0  0  0  0  0
   -0.7500   -1.2990    0.0000 C   0  0  0  0  0  0  0  0  0  0  0  0
   -1.5000    0.0000    0.0000 C   0  0  0  0  0  0  0  0  0  0  0  0
   -2.9672    0.3119    0.0000 N   0  0  0  0  0  0  0  0  0  0  0  0
   -3.1240    1.8037    0.0000 C   0  0  0  0  0  0  0  0  0  0  0  0
   -4.3375    2.6853    0.0000 C   0  0  0  0  0  0  0  0  0  0  0  0
   -5.8048    2.3735    0.0000 N   0  0  0  0  0  0  0  0  0  0  0  0
   -6.5548    3.6725    0.0000 C   0  0  0  0  0  0  0  0  0  0  0  0
   -8.0220    3.9844    0.0000 C   0  0  0  0  0  0  0  0  0  0  0  0
   -8.4855    5.4110    0.0000 C   0  0  0  0  0  0  0  0  0  0  0  0
   -7.4818    6.5257    0.0000 C   0  0  0  0  0  0  0  0  0  0  0  0
   -7.9453    7.9523    0.0000 O   0  0  0  0  0  0  0  0  0  0  0  0
   -6.9416    9.0670    0.0000 C   0  0  0  0  0  0  0  0  0  0  0  0
   -6.0146    6.2138    0.0000 C   0  0  0  0  0  0  0  0  0  0  0  0
   -5.5511    4.7872    0.0000 C   0  0  0  0  0  0  0  0  0  0  0  0
   -4.1807    4.1771    0.0000 C   0  0  0  0  0  0  0  0  0  0  0  0
   -2.8104    4.7872    0.0000 C   0  0  0  0  0  0  0  0  0  0  0  0
   -1.5969    3.9055    0.0000 C   0  0  0  0  0  0  0  0  0  0  0  0
   -1.7537    2.4138    0.0000 C   0  0  0  0  0  0  0  0  0  0  0  0
   -0.7500    1.2990    0.0000 C   0  0  0  0  0  0  0  0  0  0  0  0
    0.7500    1.2990    0.0000 C   0  0  0  0  0  0  0  0  0  0  0  0
   -0.3834    4.7872    0.0000 C   0  0  0  0  0  0  0  0  0  0  0  0
    1.0432    4.3237    0.0000 O   0  0  0  0  0  0  0  0  0  0  0  0
   -0.8469    6.2138    0.0000 N   0  0  0  0  0  0  0  0  0  0  0  0
   -2.3469    6.2138    0.0000 C   0  0  0  0  0  0  0  0  0  0  0  0
   -3.2286    7.4273    0.0000 O   0  0  0  0  0  0  0  0  0  0  0  0
  1  2  1  0
  2  3  1  0
  3  4  2  0
  4  5  1  0
  5  6  2  0
  6  7  1  0
  7  8  1  0
  8  9  2  0
  9 10  1  0
 10 11  1  0
 11 12  2  0
 12 13  1  0
 13 14  2  0
 14 15  1  0
 15 16  1  0
 14 17  1  0
 17 18  2  0
 18 19  1  0
 19 20  2  0
 20 21  1  0
 21 22  2  0
 22 23  1  0
 23 24  2  0
 21 25  1  0
 25 26  2  0
 25 27  1  0
 27 28  1  0
 28 29  2  0
 24  3  1  0
 23  6  1  0
 22  8  1  0
 19  9  1  0
 28 20  1  0
 18 11  1  0
M  END
>  <Compound_ID>  (232) 
CHEMBL1956068

>  <Molecule Name>  (232) 
GW296115X

>  <Molecular Weight>  (232) 
385.38

>  <AlogP>  (232) 
3.86

>  <Smiles>  (232) 
COc1ccc2[nH]c3c4[nH]c5ccc(OC)cc5c4c4c(c3c2c1)C(=O)NC4=O

>  <Standard Type>  (232) 
Inhibition

>  <Standard Relation>  (232) 
'='

>  <Standard Units>  (232) 
%

>  <Standard Value>  (232) 
19.75

>  <Assay ChEMBL ID>  (232) 
CHEMBL1962143

>  <Assay Description>  (232) 
GSK_PKIS: MET mean inhibition at 1 uM [Nanosyn]

>  <BAO Format ID>  (232) 
BAO_0000357

>  <BAO Label>  (232) 
single protein format

>  <Assay Organism>  (232) 
None

>  <Target ChEMBL ID>  (232) 
CHEMBL3717

>  <Target Name>  (232) 
Hepatocyte growth factor receptor

>  <Target Organism>  (232) 
Homo sapiens

>  <Target Type>  (232) 
SINGLE PROTEIN

>  <Document ChEMBL ID>  (232) 
CHEMBL1961873

>  <Source Description>  (232) 
GSK Published Kinase Inhibitor Set

>  <Document Journal>  (232) 
nan

>  <Document Year>  (232) 
nan

>  <Active>  (232) 
0.0

$$$$

     RDKit          2D

 26 29  0  0  0  0  0  0  0  0999 V2000
   -9.1645    1.7722    0.0000 C   0  0  0  0  0  0  0  0  0  0  0  0
   -8.0498    0.7685    0.0000 O   0  0  0  0  0  0  0  0  0  0  0  0
   -6.6232    1.2320    0.0000 C   0  0  0  0  0  0  0  0  0  0  0  0
   -6.3114    2.6992    0.0000 C   0  0  0  0  0  0  0  0  0  0  0  0
   -4.8848    3.1627    0.0000 C   0  0  0  0  0  0  0  0  0  0  0  0
   -3.7701    2.1590    0.0000 C   0  0  0  0  0  0  0  0  0  0  0  0
   -4.0819    0.6918    0.0000 C   0  0  0  0  0  0  0  0  0  0  0  0
   -2.9672   -0.3119    0.0000 N   0  0  0  0  0  0  0  0  0  0  0  0
   -3.1240   -1.8037    0.0000 N   0  0  0  0  0  0  0  0  0  0  0  0
   -1.7537   -2.4138    0.0000 C   0  0  0  0  0  0  0  0  0  0  0  0
   -0.7500   -1.2990    0.0000 C   0  0  0  0  0  0  0  0  0  0  0  0
    0.7500   -1.2990    0.0000 C   0  0  0  0  0  0  0  0  0  0  0  0
    1.5000   -2.5981    0.0000 N   0  0  0  0  0  0  0  0  0  0  0  0
    3.0000   -2.5981    0.0000 N   0  0  0  0  0  0  0  0  0  0  0  0
    3.7500   -3.8971    0.0000 C   0  0  0  0  0  0  0  0  0  0  0  0
    5.2500   -3.8971    0.0000 C   0  0  0  0  0  0  0  0  0  0  0  0
    6.0000   -5.1962    0.0000 C   0  0  0  0  0  0  0  0  0  0  0  0
    7.5000   -5.1962    0.0000 C   0  0  0  0  0  0  0  0  0  0  0  0
    8.2500   -3.8971    0.0000 N   0  0  0  0  0  0  0  0  0  0  0  0
    7.5000   -2.5981    0.0000 C   0  0  0  0  0  0  0  0  0  0  0  0
    6.0000   -2.5981    0.0000 C   0  0  0  0  0  0  0  0  0  0  0  0
    1.5000    0.0000    0.0000 N   0  0  0  0  0  0  0  0  0  0  0  0
    0.7500    1.2990    0.0000 C   0  0  0  0  0  0  0  0  0  0  0  0
   -0.7500    1.2990    0.0000 N   0  0  0  0  0  0  0  0  0  0  0  0
   -1.5000    0.0000    0.0000 C   0  0  0  0  0  0  0  0  0  0  0  0
   -5.5085    0.2283    0.0000 C   0  0  0  0  0  0  0  0  0  0  0  0
  1  2  1  0
  2  3  1  0
  3  4  2  0
  4  5  1  0
  5  6  2  0
  6  7  1  0
  7  8  1  0
  8  9  1  0
  9 10  2  0
 10 11  1  0
 11 12  2  0
 12 13  1  0
 13 14  1  0
 14 15  2  0
 15 16  1  0
 16 17  2  0
 17 18  1  0
 18 19  2  0
 19 20  1  0
 20 21  2  0
 12 22  1  0
 22 23  2  0
 23 24  1  0
 24 25  2  0
  7 26  2  0
 26  3  1  0
 25  8  1  0
 25 11  1  0
 21 16  1  0
M  END
>  <Compound_ID>  (233) 
CHEMBL306865

>  <Molecule Name>  (233) 
GW784752X

>  <Molecular Weight>  (233) 
345.37

>  <AlogP>  (233) 
2.67

>  <Smiles>  (233) 
COc1cccc(-n2ncc3c(N/N=C/c4ccncc4)ncnc32)c1

>  <Standard Type>  (233) 
Inhibition

>  <Standard Relation>  (233) 
'='

>  <Standard Units>  (233) 
%

>  <Standard Value>  (233) 
18.86

>  <Assay ChEMBL ID>  (233) 
CHEMBL1962142

>  <Assay Description>  (233) 
GSK_PKIS: MET mean inhibition at 0.1 uM [Nanosyn]

>  <BAO Format ID>  (233) 
BAO_0000357

>  <BAO Label>  (233) 
single protein format

>  <Assay Organism>  (233) 
None

>  <Target ChEMBL ID>  (233) 
CHEMBL3717

>  <Target Name>  (233) 
Hepatocyte growth factor receptor

>  <Target Organism>  (233) 
Homo sapiens

>  <Target Type>  (233) 
SINGLE PROTEIN

>  <Document ChEMBL ID>  (233) 
CHEMBL1961873

>  <Source Description>  (233) 
GSK Published Kinase Inhibitor Set

>  <Document Journal>  (233) 
nan

>  <Document Year>  (233) 
nan

>  <Active>  (233) 
0.0

$$$$

     RDKit          2D

 31 34  0  0  0  0  0  0  0  0999 V2000
   -3.7548   -2.1855    0.0000 C   0  0  0  0  0  0  0  0  0  0  0  0
   -2.6401   -3.1891    0.0000 C   0  0  0  0  0  0  0  0  0  0  0  0
   -1.2135   -2.7256    0.0000 N   0  0  0  0  0  0  0  0  0  0  0  0
   -0.0000   -3.6073    0.0000 C   0  0  0  0  0  0  0  0  0  0  0  0
   -0.0000   -5.1073    0.0000 C   0  0  0  0  0  0  0  0  0  0  0  0
    1.2135   -5.9890    0.0000 N   0  0  0  0  0  0  0  0  0  0  0  0
    0.7500   -7.4156    0.0000 O   0  0  0  0  0  0  0  0  0  0  0  0
   -0.7500   -7.4156    0.0000 N   0  0  0  0  0  0  0  0  0  0  0  0
   -1.2135   -5.9890    0.0000 C   0  0  0  0  0  0  0  0  0  0  0  0
   -2.6401   -5.5255    0.0000 N   0  0  0  0  0  0  0  0  0  0  0  0
    1.2135   -2.7256    0.0000 N   0  0  0  0  0  0  0  0  0  0  0  0
    0.7500   -1.2990    0.0000 C   0  0  0  0  0  0  0  0  0  0  0  0
    1.5000    0.0000    0.0000 C   0  0  0  0  0  0  0  0  0  0  0  0
    3.0000    0.0000    0.0000 C   0  0  0  0  0  0  0  0  0  0  0  0
    4.5000    0.0000    0.0000 C   0  0  0  0  0  0  0  0  0  0  0  0
    6.0000    0.0000    0.0000 C   0  0  0  0  0  0  0  0  0  0  0  0
    6.0000   -1.5000    0.0000 C   0  0  0  0  0  0  0  0  0  0  0  0
    6.0000    1.5000    0.0000 C   0  0  0  0  0  0  0  0  0  0  0  0
    7.5000    0.0000    0.0000 O   0  0  0  0  0  0  0  0  0  0  0  0
    0.7500    1.2990    0.0000 N   0  0  0  0  0  0  0  0  0  0  0  0
   -0.7500    1.2990    0.0000 C   0  0  0  0  0  0  0  0  0  0  0  0
   -1.5000    0.0000    0.0000 C   0  0  0  0  0  0  0  0  0  0  0  0
   -3.0000    0.0000    0.0000 O   0  0  0  0  0  0  0  0  0  0  0  0
   -3.7500    1.2990    0.0000 C   0  0  0  0  0  0  0  0  0  0  0  0
   -5.2500    1.2990    0.0000 C   0  0  0  0  0  0  0  0  0  0  0  0
   -6.0000    2.5981    0.0000 C   0  0  0  0  0  0  0  0  0  0  0  0
   -7.5000    2.5981    0.0000 C   0  0  0  0  0  0  0  0  0  0  0  0
   -8.2500    1.2990    0.0000 N   0  0  0  0  0  0  0  0  0  0  0  0
   -7.5000    0.0000    0.0000 C   0  0  0  0  0  0  0  0  0  0  0  0
   -6.0000    0.0000    0.0000 C   0  0  0  0  0  0  0  0  0  0  0  0
   -0.7500   -1.2990    0.0000 C   0  0  0  0  0  0  0  0  0  0  0  0
  1  2  1  0
  2  3  1  0
  3  4  1  0
  4  5  1  0
  5  6  2  0
  6  7  1  0
  7  8  1  0
  8  9  2  0
  9 10  1  0
  4 11  2  0
 11 12  1  0
 12 13  2  0
 13 14  1  0
 14 15  3  0
 15 16  1  0
 16 17  1  0
 16 18  1  0
 16 19  1  0
 13 20  1  0
 20 21  2  0
 21 22  1  0
 22 23  1  0
 23 24  1  0
 24 25  1  0
 25 26  1  0
 26 27  1  0
 27 28  1  0
 28 29  1  0
 29 30  1  0
 22 31  2  0
 31  3  1  0
  9  5  1  0
 31 12  1  0
 30 25  1  0
M  END
>  <Compound_ID>  (234) 
CHEMBL1794065

>  <Molecule Name>  (234) 
GSK-554170A

>  <Molecular Weight>  (234) 
539.52

>  <AlogP>  (234) 
1.58

>  <Smiles>  (234) 
CCn1c(-c2nonc2N)nc2c(C#CC(C)(C)O)ncc(OCC3CCNCC3)c21

>  <Standard Type>  (234) 
Inhibition

>  <Standard Relation>  (234) 
'='

>  <Standard Units>  (234) 
%

>  <Standard Value>  (234) 
2.5

>  <Assay ChEMBL ID>  (234) 
CHEMBL1962143

>  <Assay Description>  (234) 
GSK_PKIS: MET mean inhibition at 1 uM [Nanosyn]

>  <BAO Format ID>  (234) 
BAO_0000357

>  <BAO Label>  (234) 
single protein format

>  <Assay Organism>  (234) 
None

>  <Target ChEMBL ID>  (234) 
CHEMBL3717

>  <Target Name>  (234) 
Hepatocyte growth factor receptor

>  <Target Organism>  (234) 
Homo sapiens

>  <Target Type>  (234) 
SINGLE PROTEIN

>  <Document ChEMBL ID>  (234) 
CHEMBL1961873

>  <Source Description>  (234) 
GSK Published Kinase Inhibitor Set

>  <Document Journal>  (234) 
nan

>  <Document Year>  (234) 
nan

>  <Active>  (234) 
0.0

$$$$

     RDKit          2D

 25 28  0  0  0  0  0  0  0  0999 V2000
    6.7500   -3.8971    0.0000 N   0  0  0  0  0  0  0  0  0  0  0  0
    5.2500   -3.8971    0.0000 S   0  0  0  0  0  0  0  0  0  0  0  0
    5.2500   -5.3971    0.0000 O   0  0  0  0  0  0  0  0  0  0  0  0
    5.2500   -2.3971    0.0000 O   0  0  0  0  0  0  0  0  0  0  0  0
    3.7500   -3.8971    0.0000 C   0  0  0  0  0  0  0  0  0  0  0  0
    3.0000   -5.1962    0.0000 C   0  0  0  0  0  0  0  0  0  0  0  0
    1.5000   -5.1962    0.0000 C   0  0  0  0  0  0  0  0  0  0  0  0
    0.7500   -3.8971    0.0000 C   0  0  0  0  0  0  0  0  0  0  0  0
    1.5000   -2.5981    0.0000 C   0  0  0  0  0  0  0  0  0  0  0  0
    0.7500   -1.2990    0.0000 C   0  0  0  0  0  0  0  0  0  0  0  0
    1.5000    0.0000    0.0000 C   0  0  0  0  0  0  0  0  0  0  0  0
    0.7500    1.2990    0.0000 C   0  0  0  0  0  0  0  0  0  0  0  0
   -0.7500    1.2990    0.0000 C   0  0  0  0  0  0  0  0  0  0  0  0
   -1.7537    2.4138    0.0000 C   0  0  0  0  0  0  0  0  0  0  0  0
   -1.4418    3.8810    0.0000 N   0  0  0  0  0  0  0  0  0  0  0  0
   -2.5565    4.8847    0.0000 C   0  0  0  0  0  0  0  0  0  0  0  0
   -3.9831    4.4211    0.0000 O   0  0  0  0  0  0  0  0  0  0  0  0
   -2.2447    6.3519    0.0000 C   0  0  0  0  0  0  0  0  0  0  0  0
   -2.7082    7.7785    0.0000 C   0  0  0  0  0  0  0  0  0  0  0  0
   -1.2410    7.4666    0.0000 C   0  0  0  0  0  0  0  0  0  0  0  0
   -3.1240    1.8037    0.0000 N   0  0  0  0  0  0  0  0  0  0  0  0
   -2.9672    0.3119    0.0000 N   0  0  0  0  0  0  0  0  0  0  0  0
   -1.5000    0.0000    0.0000 C   0  0  0  0  0  0  0  0  0  0  0  0
   -0.7500   -1.2990    0.0000 C   0  0  0  0  0  0  0  0  0  0  0  0
    3.0000   -2.5981    0.0000 C   0  0  0  0  0  0  0  0  0  0  0  0
  1  2  1  0
  2  3  2  0
  2  4  2  0
  2  5  1  0
  5  6  2  0
  6  7  1  0
  7  8  2  0
  8  9  1  0
  9 10  1  0
 10 11  2  0
 11 12  1  0
 12 13  2  0
 13 14  1  0
 14 15  1  0
 15 16  1  0
 16 17  2  0
 16 18  1  0
 18 19  1  0
 19 20  1  0
 14 21  2  0
 21 22  1  0
 22 23  1  0
 23 24  2  0
  9 25  2  0
 25  5  1  0
 24 10  1  0
 23 13  1  0
 20 18  1  0
M  END
>  <Compound_ID>  (235) 
CHEMBL407113

>  <Molecule Name>  (235) 
nan

>  <Molecular Weight>  (235) 
356.41

>  <AlogP>  (235) 
2.23

>  <Smiles>  (235) 
NS(=O)(=O)c1cccc(-c2ccc3c(NC(=O)C4CC4)n[nH]c3c2)c1

>  <Standard Type>  (235) 
Inhibition

>  <Standard Relation>  (235) 
'='

>  <Standard Units>  (235) 
%

>  <Standard Value>  (235) 
3.16

>  <Assay ChEMBL ID>  (235) 
CHEMBL1962143

>  <Assay Description>  (235) 
GSK_PKIS: MET mean inhibition at 1 uM [Nanosyn]

>  <BAO Format ID>  (235) 
BAO_0000357

>  <BAO Label>  (235) 
single protein format

>  <Assay Organism>  (235) 
None

>  <Target ChEMBL ID>  (235) 
CHEMBL3717

>  <Target Name>  (235) 
Hepatocyte growth factor receptor

>  <Target Organism>  (235) 
Homo sapiens

>  <Target Type>  (235) 
SINGLE PROTEIN

>  <Document ChEMBL ID>  (235) 
CHEMBL1961873

>  <Source Description>  (235) 
GSK Published Kinase Inhibitor Set

>  <Document Journal>  (235) 
nan

>  <Document Year>  (235) 
nan

>  <Active>  (235) 
0.0

$$$$

     RDKit          2D

 22 24  0  0  0  0  0  0  0  0999 V2000
    3.0000    0.0000    0.0000 C   0  0  0  0  0  0  0  0  0  0  0  0
    1.5000    0.0000    0.0000 C   0  0  0  0  0  0  0  0  0  0  0  0
    0.7500   -1.2990    0.0000 C   0  0  0  0  0  0  0  0  0  0  0  0
   -0.7500   -1.2990    0.0000 C   0  0  0  0  0  0  0  0  0  0  0  0
   -1.5000   -2.5981    0.0000 O   0  0  0  0  0  0  0  0  0  0  0  0
   -1.5000    0.0000    0.0000 C   0  0  0  0  0  0  0  0  0  0  0  0
   -0.7500    1.2990    0.0000 C   0  0  0  0  0  0  0  0  0  0  0  0
   -1.5000    2.5981    0.0000 C   0  0  0  0  0  0  0  0  0  0  0  0
    0.7500    1.2990    0.0000 C   0  0  0  0  0  0  0  0  0  0  0  0
    1.5000    2.5981    0.0000 C   0  0  0  0  0  0  0  0  0  0  0  0
    3.0000    2.5981    0.0000 C   0  0  0  0  0  0  0  0  0  0  0  0
    3.7500    3.8971    0.0000 C   0  0  0  0  0  0  0  0  0  0  0  0
    5.2500    3.8971    0.0000 C   0  0  0  0  0  0  0  0  0  0  0  0
    6.0000    5.1962    0.0000 N   0  0  0  0  0  0  0  0  0  0  0  0
    5.2500    6.4952    0.0000 C   0  0  0  0  0  0  0  0  0  0  0  0
    3.7500    6.4952    0.0000 C   0  0  0  0  0  0  0  0  0  0  0  0
    3.0000    7.7942    0.0000 C   0  0  0  0  0  0  0  0  0  0  0  0
    1.5082    7.9510    0.0000 N   0  0  0  0  0  0  0  0  0  0  0  0
    1.1963    9.4182    0.0000 N   0  0  0  0  0  0  0  0  0  0  0  0
    2.4954   10.1682    0.0000 N   0  0  0  0  0  0  0  0  0  0  0  0
    3.6101    9.1645    0.0000 N   0  0  0  0  0  0  0  0  0  0  0  0
    3.0000    5.1962    0.0000 C   0  0  0  0  0  0  0  0  0  0  0  0
  1  2  1  0
  2  3  2  0
  3  4  1  0
  4  5  1  0
  4  6  2  0
  6  7  1  0
  7  8  1  0
  7  9  2  0
  9 10  1  0
 10 11  2  0
 11 12  1  0
 12 13  2  0
 13 14  1  0
 14 15  2  0
 15 16  1  0
 16 17  1  0
 17 18  1  0
 18 19  2  0
 19 20  1  0
 20 21  1  0
 16 22  2  0
  9  2  1  0
 22 12  1  0
 21 17  2  0
M  END
>  <Compound_ID>  (236) 
CHEMBL1909352

>  <Molecule Name>  (236) 
GW441806A

>  <Molecular Weight>  (236) 
329.79

>  <AlogP>  (236) 
2.75

>  <Smiles>  (236) 
Cc1cc(O)cc(C)c1/C=C/c1cncc(-c2nn[nH]n2)c1

>  <Standard Type>  (236) 
Inhibition

>  <Standard Relation>  (236) 
'='

>  <Standard Units>  (236) 
%

>  <Standard Value>  (236) 
8.95

>  <Assay ChEMBL ID>  (236) 
CHEMBL1962143

>  <Assay Description>  (236) 
GSK_PKIS: MET mean inhibition at 1 uM [Nanosyn]

>  <BAO Format ID>  (236) 
BAO_0000357

>  <BAO Label>  (236) 
single protein format

>  <Assay Organism>  (236) 
None

>  <Target ChEMBL ID>  (236) 
CHEMBL3717

>  <Target Name>  (236) 
Hepatocyte growth factor receptor

>  <Target Organism>  (236) 
Homo sapiens

>  <Target Type>  (236) 
SINGLE PROTEIN

>  <Document ChEMBL ID>  (236) 
CHEMBL1961873

>  <Source Description>  (236) 
GSK Published Kinase Inhibitor Set

>  <Document Journal>  (236) 
nan

>  <Document Year>  (236) 
nan

>  <Active>  (236) 
0.0

$$$$

     RDKit          2D

 18 20  0  0  0  0  0  0  0  0999 V2000
   -1.2990  -10.3573    0.0000 C   0  0  0  0  0  0  0  0  0  0  0  0
    0.0000   -9.6073    0.0000 O   0  0  0  0  0  0  0  0  0  0  0  0
    0.0000   -8.1073    0.0000 C   0  0  0  0  0  0  0  0  0  0  0  0
   -1.2990   -7.3573    0.0000 C   0  0  0  0  0  0  0  0  0  0  0  0
   -1.2990   -5.8573    0.0000 C   0  0  0  0  0  0  0  0  0  0  0  0
   -0.0000   -5.1073    0.0000 C   0  0  0  0  0  0  0  0  0  0  0  0
   -0.0000   -3.6073    0.0000 C   0  0  0  0  0  0  0  0  0  0  0  0
    1.2135   -2.7256    0.0000 C   0  0  0  0  0  0  0  0  0  0  0  0
    0.7500   -1.2990    0.0000 C   0  0  0  0  0  0  0  0  0  0  0  0
    1.5000    0.0000    0.0000 C   0  0  0  0  0  0  0  0  0  0  0  0
    3.0000    0.0000    0.0000 N   0  0  0  0  0  0  0  0  0  0  0  0
    0.7500    1.2990    0.0000 N   0  0  0  0  0  0  0  0  0  0  0  0
   -0.7500    1.2990    0.0000 C   0  0  0  0  0  0  0  0  0  0  0  0
   -1.5000    0.0000    0.0000 N   0  0  0  0  0  0  0  0  0  0  0  0
   -0.7500   -1.2990    0.0000 C   0  0  0  0  0  0  0  0  0  0  0  0
   -1.2135   -2.7256    0.0000 O   0  0  0  0  0  0  0  0  0  0  0  0
    1.2990   -5.8573    0.0000 C   0  0  0  0  0  0  0  0  0  0  0  0
    1.2990   -7.3573    0.0000 C   0  0  0  0  0  0  0  0  0  0  0  0
  1  2  1  0
  2  3  1  0
  3  4  2  0
  4  5  1  0
  5  6  2  0
  6  7  1  0
  7  8  2  0
  8  9  1  0
  9 10  2  0
 10 11  1  0
 10 12  1  0
 12 13  2  0
 13 14  1  0
 14 15  2  0
 15 16  1  0
  6 17  1  0
 17 18  2  0
 18  3  1  0
 16  7  1  0
 15  9  1  0
M  END
>  <Compound_ID>  (237) 
CHEMBL373073

>  <Molecule Name>  (237) 
GW642138X

>  <Molecular Weight>  (237) 
241.25

>  <AlogP>  (237) 
2.48

>  <Smiles>  (237) 
COc1ccc(-c2cc3c(N)ncnc3o2)cc1

>  <Standard Type>  (237) 
Inhibition

>  <Standard Relation>  (237) 
'='

>  <Standard Units>  (237) 
%

>  <Standard Value>  (237) 
-2.37

>  <Assay ChEMBL ID>  (237) 
CHEMBL1962142

>  <Assay Description>  (237) 
GSK_PKIS: MET mean inhibition at 0.1 uM [Nanosyn]

>  <BAO Format ID>  (237) 
BAO_0000357

>  <BAO Label>  (237) 
single protein format

>  <Assay Organism>  (237) 
None

>  <Target ChEMBL ID>  (237) 
CHEMBL3717

>  <Target Name>  (237) 
Hepatocyte growth factor receptor

>  <Target Organism>  (237) 
Homo sapiens

>  <Target Type>  (237) 
SINGLE PROTEIN

>  <Document ChEMBL ID>  (237) 
CHEMBL1961873

>  <Source Description>  (237) 
GSK Published Kinase Inhibitor Set

>  <Document Journal>  (237) 
nan

>  <Document Year>  (237) 
nan

>  <Active>  (237) 
0.0

$$$$

     RDKit          2D

 57 64  0  0  0  0  0  0  0  0999 V2000
    3.0000   -5.1962    0.0000 N   0  0  0  0  0  0  0  0  0  0  0  0
    1.5000   -5.1962    0.0000 C   0  0  0  0  0  0  0  0  0  0  0  0
    0.7500   -6.4952    0.0000 C   0  0  0  0  0  0  0  0  0  0  0  0
    1.5000   -7.7942    0.0000 S   0  0  0  0  0  0  0  0  0  0  0  0
    0.2010   -8.5442    0.0000 O   0  0  0  0  0  0  0  0  0  0  0  0
    2.7990   -7.0442    0.0000 O   0  0  0  0  0  0  0  0  0  0  0  0
    2.2500   -9.0933    0.0000 O   0  0  0  0  0  1  0  0  0  0  0  0
   -0.7500   -6.4952    0.0000 C   0  0  0  0  0  0  0  0  0  0  0  0
   -1.5000   -5.1962    0.0000 C   0  0  0  0  0  0  0  0  0  0  0  0
   -3.0000   -5.1962    0.0000 N   0  0  0  0  0  0  0  0  0  0  0  0
   -3.7500   -6.4952    0.0000 C   0  0  0  0  0  0  0  0  0  0  0  0
   -5.2500   -6.4952    0.0000 C   0  0  0  0  0  0  0  0  0  0  0  0
   -6.0000   -7.7942    0.0000 C   0  0  0  0  0  0  0  0  0  0  0  0
   -5.2500   -9.0933    0.0000 C   0  0  0  0  0  0  0  0  0  0  0  0
   -6.0000  -10.3923    0.0000 C   0  0  0  0  0  0  0  0  0  0  0  0
   -7.5000  -10.3923    0.0000 C   0  0  0  0  0  0  0  0  0  0  0  0
   -8.2500   -9.0933    0.0000 C   0  0  0  0  0  0  0  0  0  0  0  0
   -9.7500   -9.0933    0.0000 C   0  0  0  0  0  0  0  0  0  0  0  0
  -10.5000  -10.3923    0.0000 C   0  0  0  0  0  0  0  0  0  0  0  0
  -12.0000  -10.3923    0.0000 N   0  0  0  0  0  0  0  0  0  0  0  0
  -12.7500   -9.0933    0.0000 C   0  0  0  0  0  0  0  0  0  0  0  0
  -12.0000   -7.7942    0.0000 C   0  0  0  0  0  0  0  0  0  0  0  0
  -12.7500   -6.4952    0.0000 C   0  0  0  0  0  0  0  0  0  0  0  0
  -12.0000   -5.1962    0.0000 S   0  0  0  0  0  0  0  0  0  0  0  0
  -10.7010   -5.9462    0.0000 O   0  0  0  0  0  0  0  0  0  0  0  0
  -13.2990   -4.4462    0.0000 O   0  0  0  0  0  0  0  0  0  0  0  0
  -11.2500   -3.8971    0.0000 O   0  0  0  0  0  1  0  0  0  0  0  0
  -14.2500   -6.4952    0.0000 C   0  0  0  0  0  0  0  0  0  0  0  0
  -15.0000   -5.1962    0.0000 N   0  0  0  0  0  0  0  0  0  0  0  0
  -15.0000   -7.7942    0.0000 C   0  0  0  0  0  0  0  0  0  0  0  0
  -14.2500   -9.0933    0.0000 C   0  0  0  0  0  0  0  0  0  0  0  0
  -15.0000  -10.3923    0.0000 C   0  0  0  0  0  0  0  0  0  0  0  0
  -14.2500  -11.6913    0.0000 O   0  0  0  0  0  0  0  0  0  0  0  0
  -16.5000  -10.3923    0.0000 C   0  0  0  0  0  0  0  0  0  0  0  0
  -17.2500  -11.6913    0.0000 C   0  0  0  0  0  0  0  0  0  0  0  0
  -18.7500  -11.6913    0.0000 C   0  0  0  0  0  0  0  0  0  0  0  0
  -19.5000  -10.3923    0.0000 C   0  0  0  0  0  0  0  0  0  0  0  0
  -18.7500   -9.0933    0.0000 C   0  0  0  0  0  0  0  0  0  0  0  0
  -17.2500   -9.0933    0.0000 C   0  0  0  0  0  0  0  0  0  0  0  0
  -16.5000   -7.7942    0.0000 C   0  0  0  0  0  0  0  0  0  0  0  0
  -17.2500   -6.4952    0.0000 O   0  0  0  0  0  0  0  0  0  0  0  0
   -9.7500  -11.6913    0.0000 C   0  0  0  0  0  0  0  0  0  0  0  0
   -8.2500  -11.6913    0.0000 C   0  0  0  0  0  0  0  0  0  0  0  0
   -3.7500   -9.0933    0.0000 C   0  0  0  0  0  0  0  0  0  0  0  0
   -3.0000   -7.7942    0.0000 C   0  0  0  0  0  0  0  0  0  0  0  0
   -0.7500   -3.8971    0.0000 C   0  0  0  0  0  0  0  0  0  0  0  0
    0.7500   -3.8971    0.0000 C   0  0  0  0  0  0  0  0  0  0  0  0
    1.5000   -2.5981    0.0000 C   0  0  0  0  0  0  0  0  0  0  0  0
    3.0000   -2.5981    0.0000 O   0  0  0  0  0  0  0  0  0  0  0  0
    0.7500   -1.2990    0.0000 C   0  0  0  0  0  0  0  0  0  0  0  0
    1.5000    0.0000    0.0000 C   0  0  0  0  0  0  0  0  0  0  0  0
    0.7500    1.2990    0.0000 C   0  0  0  0  0  0  0  0  0  0  0  0
   -0.7500    1.2990    0.0000 C   0  0  0  0  0  0  0  0  0  0  0  0
   -1.5000    0.0000    0.0000 C   0  0  0  0  0  0  0  0  0  0  0  0
   -0.7500   -1.2990    0.0000 C   0  0  0  0  0  0  0  0  0  0  0  0
   -1.5000   -2.5981    0.0000 C   0  0  0  0  0  0  0  0  0  0  0  0
   -3.0000   -2.5981    0.0000 O   0  0  0  0  0  0  0  0  0  0  0  0
  1  2  1  0
  2  3  2  0
  3  4  1  0
  4  5  2  0
  4  6  2  0
  4  7  1  0
  3  8  1  0
  8  9  2  0
  9 10  1  0
 10 11  1  0
 11 12  2  0
 12 13  1  0
 13 14  2  0
 14 15  1  0
 15 16  1  0
 16 17  2  0
 17 18  1  0
 18 19  2  0
 19 20  1  0
 20 21  1  0
 21 22  2  0
 22 23  1  0
 23 24  1  0
 24 25  2  0
 24 26  2  0
 24 27  1  0
 23 28  2  0
 28 29  1  0
 28 30  1  0
 30 31  2  0
 31 32  1  0
 32 33  2  0
 32 34  1  0
 34 35  2  0
 35 36  1  0
 36 37  2  0
 37 38  1  0
 38 39  2  0
 39 40  1  0
 40 41  2  0
 19 42  1  0
 42 43  2  0
 14 44  1  0
 44 45  2  0
  9 46  1  0
 46 47  2  0
 47 48  1  0
 48 49  2  0
 48 50  1  0
 50 51  2  0
 51 52  1  0
 52 53  2  0
 53 54  1  0
 54 55  2  0
 55 56  1  0
 56 57  2  0
 47  2  1  0
 55 50  1  0
 45 11  1  0
 56 46  1  0
 43 16  1  0
 31 21  1  0
 39 34  1  0
 40 30  1  0
M  CHG  2   7  -1  27  -1
M  END
>  <Compound_ID>  (238) 
CHEMBL2337905

>  <Molecule Name>  (238) 
nan

>  <Molecular Weight>  (238) 
844.79

>  <AlogP>  (238) 
5.97

>  <Smiles>  (238) 
Nc1c(S(=O)(=O)[O-])cc(Nc2ccc(Cc3ccc(Nc4cc(S(=O)(=O)[O-])c(N)c5c4C(=O)c4ccccc4C5=O)cc3)cc2)c2c1C(=O)c1ccccc1C2=O

>  <Standard Type>  (238) 
Inhibition

>  <Standard Relation>  (238) 
'='

>  <Standard Units>  (238) 
%

>  <Standard Value>  (238) 
14.6

>  <Assay ChEMBL ID>  (238) 
CHEMBL2340058

>  <Assay Description>  (238) 
Inhibition of c-Met (unknown origin) using Poly(Glu,Tyr) at 4:1 ratio as substrate at 10 uM preincubated with substrate prior to enzyme addition measured after 60 mins by ELISA

>  <BAO Format ID>  (238) 
BAO_0000357

>  <BAO Label>  (238) 
single protein format

>  <Assay Organism>  (238) 
Homo sapiens

>  <Target ChEMBL ID>  (238) 
CHEMBL3717

>  <Target Name>  (238) 
Hepatocyte growth factor receptor

>  <Target Organism>  (238) 
Homo sapiens

>  <Target Type>  (238) 
SINGLE PROTEIN

>  <Document ChEMBL ID>  (238) 
CHEMBL2331125

>  <Source Description>  (238) 
Scientific Literature

>  <Document Journal>  (238) 
ACS Med Chem Lett

>  <Document Year>  (238) 
2013.0

>  <Active>  (238) 
0.0

$$$$

     RDKit          2D

 33 37  0  0  0  0  0  0  0  0999 V2000
   -4.6904   -6.5871    0.0000 C   0  0  0  0  0  0  0  0  0  0  0  0
   -4.3786   -5.1199    0.0000 C   0  0  0  0  0  0  0  0  0  0  0  0
   -2.9520   -4.6564    0.0000 N   0  0  0  0  0  0  0  0  0  0  0  0
   -2.6401   -3.1891    0.0000 C   0  0  0  0  0  0  0  0  0  0  0  0
   -3.7548   -2.1855    0.0000 O   0  0  0  0  0  0  0  0  0  0  0  0
   -1.2135   -2.7256    0.0000 C   0  0  0  0  0  0  0  0  0  0  0  0
   -0.0000   -3.6073    0.0000 C   0  0  0  0  0  0  0  0  0  0  0  0
    1.2135   -2.7256    0.0000 N   0  0  0  0  0  0  0  0  0  0  0  0
    0.7500   -1.2990    0.0000 C   0  0  0  0  0  0  0  0  0  0  0  0
    1.5000    0.0000    0.0000 N   0  0  0  0  0  0  0  0  0  0  0  0
    0.7500    1.2990    0.0000 C   0  0  0  0  0  0  0  0  0  0  0  0
   -0.7500    1.2990    0.0000 C   0  0  0  0  0  0  0  0  0  0  0  0
   -1.5000    2.5981    0.0000 C   0  0  0  0  0  0  0  0  0  0  0  0
   -2.9918    2.7549    0.0000 C   0  0  0  0  0  0  0  0  0  0  0  0
   -3.3037    4.2221    0.0000 N   0  0  0  0  0  0  0  0  0  0  0  0
   -4.6740    4.8322    0.0000 C   0  0  0  0  0  0  0  0  0  0  0  0
   -2.0046    4.9721    0.0000 C   0  0  0  0  0  0  0  0  0  0  0  0
   -1.6927    6.4393    0.0000 C   0  0  0  0  0  0  0  0  0  0  0  0
   -0.2662    6.9028    0.0000 C   0  0  0  0  0  0  0  0  0  0  0  0
    0.0457    8.3701    0.0000 Cl  0  0  0  0  0  0  0  0  0  0  0  0
    0.8486    5.8991    0.0000 C   0  0  0  0  0  0  0  0  0  0  0  0
    0.5367    4.4319    0.0000 C   0  0  0  0  0  0  0  0  0  0  0  0
   -0.8899    3.9684    0.0000 C   0  0  0  0  0  0  0  0  0  0  0  0
   -1.5000    0.0000    0.0000 N   0  0  0  0  0  0  0  0  0  0  0  0
   -0.7500   -1.2990    0.0000 C   0  0  0  0  0  0  0  0  0  0  0  0
   -5.4933   -4.1162    0.0000 C   0  0  0  0  0  0  0  0  0  0  0  0
   -5.1814   -2.6490    0.0000 O   0  0  0  0  0  0  0  0  0  0  0  0
   -6.9199   -4.5797    0.0000 N   0  0  0  0  0  0  0  0  0  0  0  0
   -8.2564   -3.8987    0.0000 C   0  0  0  0  0  0  0  0  0  0  0  0
   -8.9374   -5.2352    0.0000 C   0  0  0  0  0  0  0  0  0  0  0  0
  -10.3639   -5.6988    0.0000 C   0  0  0  0  0  0  0  0  0  0  0  0
  -11.7905   -6.1623    0.0000 N   0  0  0  0  0  0  0  0  0  0  0  0
   -7.6009   -5.9162    0.0000 C   0  0  0  0  0  0  0  0  0  0  0  0
  2  1  1  6
  2  3  1  0
  3  4  1  0
  4  5  2  0
  4  6  1  0
  6  7  2  0
  7  8  1  0
  8  9  1  0
  9 10  2  0
 10 11  1  0
 11 12  2  0
 12 13  1  0
 13 14  2  0
 14 15  1  0
 15 16  1  0
 15 17  1  0
 17 18  2  0
 18 19  1  0
 19 20  1  0
 19 21  2  0
 21 22  1  0
 22 23  2  0
 12 24  1  0
 24 25  2  0
  2 26  1  0
 26 27  2  0
 26 28  1  0
 28 29  1  0
 29 30  1  0
 30 31  1  0
 31 32  3  0
 30 33  1  0
 25  6  1  0
 33 28  1  0
 25  9  1  0
 23 13  1  0
 23 17  1  0
M  END
>  <Compound_ID>  (239) 
CHEMBL2376143

>  <Molecule Name>  (239) 
nan

>  <Molecular Weight>  (239) 
461.91

>  <AlogP>  (239) 
2.87

>  <Smiles>  (239) 
C[C@@H](NC(=O)c1c[nH]c2ncc(-c3cn(C)c4cc(Cl)ccc34)nc12)C(=O)N1CC(C#N)C1

>  <Standard Type>  (239) 
Inhibition

>  <Standard Relation>  (239) 
'='

>  <Standard Units>  (239) 
%

>  <Standard Value>  (239) 
2.0

>  <Assay ChEMBL ID>  (239) 
CHEMBL2378435

>  <Assay Description>  (239) 
Inhibition of MET (unknown origin) at 10 uM relative to control

>  <BAO Format ID>  (239) 
BAO_0000357

>  <BAO Label>  (239) 
single protein format

>  <Assay Organism>  (239) 
Homo sapiens

>  <Target ChEMBL ID>  (239) 
CHEMBL3717

>  <Target Name>  (239) 
Hepatocyte growth factor receptor

>  <Target Organism>  (239) 
Homo sapiens

>  <Target Type>  (239) 
SINGLE PROTEIN

>  <Document ChEMBL ID>  (239) 
CHEMBL2375236

>  <Source Description>  (239) 
Scientific Literature

>  <Document Journal>  (239) 
Bioorg Med Chem Lett

>  <Document Year>  (239) 
2013.0

>  <Active>  (239) 
0.0

$$$$

     RDKit          2D

 30 32  0  0  0  0  0  0  0  0999 V2000
    4.5000   -5.1962    0.0000 C   0  0  0  0  0  0  0  0  0  0  0  0
    3.7500   -3.8971    0.0000 C   0  0  0  0  0  0  0  0  0  0  0  0
    4.5000   -2.5981    0.0000 C   0  0  0  0  0  0  0  0  0  0  0  0
    3.7500   -1.2990    0.0000 P   0  0  0  0  0  0  0  0  0  0  0  0
    2.4510   -2.0490    0.0000 O   0  0  0  0  0  0  0  0  0  0  0  0
    3.0000    0.0000    0.0000 C   0  0  0  0  0  0  0  0  0  0  0  0
    1.5000    0.0000    0.0000 C   0  0  0  0  0  0  0  0  0  0  0  0
    0.7500   -1.2990    0.0000 C   0  0  0  0  0  0  0  0  0  0  0  0
   -0.7500   -1.2990    0.0000 C   0  0  0  0  0  0  0  0  0  0  0  0
   -1.5000    0.0000    0.0000 C   0  0  0  0  0  0  0  0  0  0  0  0
   -0.7500    1.2990    0.0000 C   0  0  0  0  0  0  0  0  0  0  0  0
   -1.5000    2.5981    0.0000 N   0  0  0  0  0  0  0  0  0  0  0  0
   -0.7500    3.8971    0.0000 C   0  0  0  0  0  0  0  0  0  0  0  0
    0.7500    3.8971    0.0000 C   0  0  0  0  0  0  0  0  0  0  0  0
    1.5000    5.1962    0.0000 C   0  0  0  0  0  0  0  0  0  0  0  0
    3.0000    5.1962    0.0000 C   0  0  0  0  0  0  0  0  0  0  0  0
    3.7500    3.8971    0.0000 C   0  0  0  0  0  0  0  0  0  0  0  0
    5.2500    3.8971    0.0000 C   0  0  0  0  0  0  0  0  0  0  0  0
    6.0000    5.1962    0.0000 C   0  0  0  0  0  0  0  0  0  0  0  0
    5.2500    6.4952    0.0000 C   0  0  0  0  0  0  0  0  0  0  0  0
    3.7500    6.4952    0.0000 C   0  0  0  0  0  0  0  0  0  0  0  0
    3.0000    7.7942    0.0000 O   0  0  0  0  0  0  0  0  0  0  0  0
    3.7500    9.0933    0.0000 C   0  0  0  0  0  0  0  0  0  0  0  0
    0.7500    6.4952    0.0000 N   0  0  0  0  0  0  0  0  0  0  0  0
   -0.7500    6.4952    0.0000 C   0  0  0  0  0  0  0  0  0  0  0  0
   -1.5000    5.1962    0.0000 N   0  0  0  0  0  0  0  0  0  0  0  0
    0.7500    1.2990    0.0000 C   0  0  0  0  0  0  0  0  0  0  0  0
    5.0490   -0.5490    0.0000 O   0  0  0  0  0  0  0  0  0  0  0  0
    6.3481   -1.2990    0.0000 C   0  0  0  0  0  0  0  0  0  0  0  0
    7.6471   -0.5490    0.0000 C   0  0  0  0  0  0  0  0  0  0  0  0
  1  2  1  0
  2  3  1  0
  3  4  1  0
  4  5  2  0
  4  6  1  0
  6  7  1  0
  7  8  2  0
  8  9  1  0
  9 10  2  0
 10 11  1  0
 11 12  1  0
 12 13  1  0
 13 14  2  0
 14 15  1  0
 15 16  1  0
 16 17  2  0
 17 18  1  0
 18 19  2  0
 19 20  1  0
 20 21  2  0
 21 22  1  0
 22 23  1  0
 15 24  2  0
 24 25  1  0
 25 26  2  0
 11 27  2  0
  4 28  1  0
 28 29  1  0
 29 30  1  0
 27  7  1  0
 26 13  1  0
 21 16  1  0
M  END
>  <Compound_ID>  (240) 
CHEMBL3264108

>  <Molecule Name>  (240) 
nan

>  <Molecular Weight>  (240) 
425.47

>  <AlogP>  (240) 
6.12

>  <Smiles>  (240) 
CCCP(=O)(Cc1cccc(Nc2cc(-c3ccccc3OC)ncn2)c1)OCC

>  <Standard Type>  (240) 
Inhibition

>  <Standard Relation>  (240) 
'='

>  <Standard Units>  (240) 
%

>  <Standard Value>  (240) 
6.0

>  <Assay ChEMBL ID>  (240) 
CHEMBL3267562

>  <Assay Description>  (240) 
Inhibition of cMET (unknown origin) at 1 uM

>  <BAO Format ID>  (240) 
BAO_0000357

>  <BAO Label>  (240) 
single protein format

>  <Assay Organism>  (240) 
Homo sapiens

>  <Target ChEMBL ID>  (240) 
CHEMBL3717

>  <Target Name>  (240) 
Hepatocyte growth factor receptor

>  <Target Organism>  (240) 
Homo sapiens

>  <Target Type>  (240) 
SINGLE PROTEIN

>  <Document ChEMBL ID>  (240) 
CHEMBL3259517

>  <Source Description>  (240) 
Scientific Literature

>  <Document Journal>  (240) 
J Med Chem

>  <Document Year>  (240) 
2014.0

>  <Active>  (240) 
0.0

$$$$

     RDKit          2D

 27 31  0  0  0  0  0  0  0  0999 V2000
   -0.7500   -6.4952    0.0000 C   0  0  0  0  0  0  0  0  0  0  0  0
   -1.5000   -5.1962    0.0000 C   0  0  0  0  0  0  0  0  0  0  0  0
   -0.7500   -3.8971    0.0000 C   0  0  0  0  0  0  0  0  0  0  0  0
    0.7500   -3.8971    0.0000 C   0  0  0  0  0  0  0  0  0  0  0  0
    1.5000   -2.5981    0.0000 C   0  0  0  0  0  0  0  0  0  0  0  0
    0.7500   -1.2990    0.0000 C   0  0  0  0  0  0  0  0  0  0  0  0
    1.5000    0.0000    0.0000 C   0  0  0  0  0  0  0  0  0  0  0  0
    0.7500    1.2990    0.0000 C   0  0  0  0  0  0  0  0  0  0  0  0
   -0.7500    1.2990    0.0000 C   0  0  0  0  0  0  0  0  0  0  0  0
    0.0000    2.5981    0.0000 C   0  0  0  0  0  0  0  0  0  0  0  0
   -0.7500    3.8971    0.0000 C   0  0  0  0  0  0  0  0  0  0  0  0
   -2.2500    3.8971    0.0000 N   0  0  0  0  0  0  0  0  0  0  0  0
   -3.0000    5.1962    0.0000 C   0  0  0  0  0  0  0  0  0  0  0  0
   -4.5000    5.1962    0.0000 N   0  0  0  0  0  0  0  0  0  0  0  0
   -5.2500    6.4952    0.0000 C   0  0  0  0  0  0  0  0  0  0  0  0
   -4.5000    7.7942    0.0000 N   0  0  0  0  0  0  0  0  0  0  0  0
   -3.0000    7.7942    0.0000 C   0  0  0  0  0  0  0  0  0  0  0  0
   -1.9963    8.9089    0.0000 N   0  0  0  0  0  0  0  0  0  0  0  0
   -0.6260    8.2988    0.0000 C   0  0  0  0  0  0  0  0  0  0  0  0
   -0.7828    6.8071    0.0000 N   0  0  0  0  0  0  0  0  0  0  0  0
   -2.2500    6.4952    0.0000 C   0  0  0  0  0  0  0  0  0  0  0  0
   -3.0000    2.5981    0.0000 C   0  0  0  0  0  0  0  0  0  0  0  0
   -2.2500    1.2990    0.0000 C   0  0  0  0  0  0  0  0  0  0  0  0
   -1.5000    0.0000    0.0000 N   0  0  0  0  0  0  0  0  0  0  0  0
   -0.7500   -1.2990    0.0000 C   0  0  0  0  0  0  0  0  0  0  0  0
    1.5000   -5.1962    0.0000 C   0  0  0  0  0  0  0  0  0  0  0  0
    0.7500   -6.4952    0.0000 C   0  0  0  0  0  0  0  0  0  0  0  0
  1  2  2  0
  2  3  1  0
  3  4  2  0
  4  5  1  0
  5  6  1  0
  6  7  1  0
  7  8  1  0
  8  9  1  0
  9 10  1  0
 10 11  1  0
 11 12  1  0
 12 13  1  0
 13 14  2  0
 14 15  1  0
 15 16  2  0
 16 17  1  0
 17 18  1  0
 18 19  1  0
 19 20  2  0
 20 21  1  0
 12 22  1  0
 22 23  1  0
  9 24  1  0
 24 25  1  0
  4 26  1  0
 26 27  2  0
 27  1  1  0
 25  6  1  0
 23  9  1  0
 21 13  1  0
 21 17  2  0
M  END
>  <Compound_ID>  (241) 
CHEMBL2420901

>  <Molecule Name>  (241) 
nan

>  <Molecular Weight>  (241) 
362.48

>  <AlogP>  (241) 
2.93

>  <Smiles>  (241) 
c1ccc(CC2CCC3(CCN(c4ncnc5[nH]cnc45)CC3)NC2)cc1

>  <Standard Type>  (241) 
Inhibition

>  <Standard Relation>  (241) 
'='

>  <Standard Units>  (241) 
%

>  <Standard Value>  (241) 
4.0

>  <Assay ChEMBL ID>  (241) 
CHEMBL2424318

>  <Assay Description>  (241) 
Inhibition of MET (unknown origin) at 30 uM by microfluidic mobility shift assay relative to control

>  <BAO Format ID>  (241) 
BAO_0000357

>  <BAO Label>  (241) 
single protein format

>  <Assay Organism>  (241) 
Homo sapiens

>  <Target ChEMBL ID>  (241) 
CHEMBL3717

>  <Target Name>  (241) 
Hepatocyte growth factor receptor

>  <Target Organism>  (241) 
Homo sapiens

>  <Target Type>  (241) 
SINGLE PROTEIN

>  <Document ChEMBL ID>  (241) 
CHEMBL2417369

>  <Source Description>  (241) 
Scientific Literature

>  <Document Journal>  (241) 
Bioorg Med Chem

>  <Document Year>  (241) 
2013.0

>  <Active>  (241) 
0.0

$$$$

     RDKit          2D

 23 26  0  0  0  0  0  0  0  0999 V2000
   -4.6740   -7.4303    0.0000 N   0  0  0  0  0  0  0  0  0  0  0  0
   -3.3037   -6.8202    0.0000 C   0  0  0  0  0  0  0  0  0  0  0  0
   -2.0046   -7.5702    0.0000 N   0  0  0  0  0  0  0  0  0  0  0  0
   -0.8899   -6.5665    0.0000 C   0  0  0  0  0  0  0  0  0  0  0  0
    0.5773   -6.8783    0.0000 C   0  0  0  0  0  0  0  0  0  0  0  0
    1.0409   -8.3049    0.0000 C   0  0  0  0  0  0  0  0  0  0  0  0
    2.5081   -8.6168    0.0000 C   0  0  0  0  0  0  0  0  0  0  0  0
    3.5118   -7.5021    0.0000 C   0  0  0  0  0  0  0  0  0  0  0  0
    4.9790   -7.8139    0.0000 F   0  0  0  0  0  0  0  0  0  0  0  0
    3.0482   -6.0755    0.0000 C   0  0  0  0  0  0  0  0  0  0  0  0
    1.5810   -5.7636    0.0000 C   0  0  0  0  0  0  0  0  0  0  0  0
   -1.5000   -5.1962    0.0000 C   0  0  0  0  0  0  0  0  0  0  0  0
   -0.7500   -3.8971    0.0000 C   0  0  0  0  0  0  0  0  0  0  0  0
    0.7500   -3.8971    0.0000 C   0  0  0  0  0  0  0  0  0  0  0  0
    1.5000   -2.5981    0.0000 C   0  0  0  0  0  0  0  0  0  0  0  0
    0.7500   -1.2990    0.0000 C   0  0  0  0  0  0  0  0  0  0  0  0
    1.5000    0.0000    0.0000 N   0  0  0  0  0  0  0  0  0  0  0  0
    0.7500    1.2990    0.0000 C   0  0  0  0  0  0  0  0  0  0  0  0
   -0.7500    1.2990    0.0000 C   0  0  0  0  0  0  0  0  0  0  0  0
   -1.5000    0.0000    0.0000 C   0  0  0  0  0  0  0  0  0  0  0  0
   -0.7500   -1.2990    0.0000 C   0  0  0  0  0  0  0  0  0  0  0  0
   -1.5000   -2.5981    0.0000 N   0  0  0  0  0  0  0  0  0  0  0  0
   -2.9918   -5.3529    0.0000 S   0  0  0  0  0  0  0  0  0  0  0  0
  1  2  1  0
  2  3  2  0
  3  4  1  0
  4  5  1  0
  5  6  2  0
  6  7  1  0
  7  8  2  0
  8  9  1  0
  8 10  1  0
 10 11  2  0
  4 12  2  0
 12 13  1  0
 13 14  2  0
 14 15  1  0
 15 16  2  0
 16 17  1  0
 17 18  2  0
 18 19  1  0
 19 20  2  0
 20 21  1  0
 21 22  2  0
 12 23  1  0
 23  2  1  0
 11  5  1  0
 22 13  1  0
 21 16  1  0
M  END
>  <Compound_ID>  (242) 
CHEMBL361237

>  <Molecule Name>  (242) 
GW785804X

>  <Molecular Weight>  (242) 
322.37

>  <AlogP>  (242) 
4.14

>  <Smiles>  (242) 
Nc1nc(-c2ccc(F)cc2)c(-c2ccc3ncccc3n2)s1

>  <Standard Type>  (242) 
Inhibition

>  <Standard Relation>  (242) 
'='

>  <Standard Units>  (242) 
%

>  <Standard Value>  (242) 
10.08

>  <Assay ChEMBL ID>  (242) 
CHEMBL1962143

>  <Assay Description>  (242) 
GSK_PKIS: MET mean inhibition at 1 uM [Nanosyn]

>  <BAO Format ID>  (242) 
BAO_0000357

>  <BAO Label>  (242) 
single protein format

>  <Assay Organism>  (242) 
None

>  <Target ChEMBL ID>  (242) 
CHEMBL3717

>  <Target Name>  (242) 
Hepatocyte growth factor receptor

>  <Target Organism>  (242) 
Homo sapiens

>  <Target Type>  (242) 
SINGLE PROTEIN

>  <Document ChEMBL ID>  (242) 
CHEMBL1961873

>  <Source Description>  (242) 
GSK Published Kinase Inhibitor Set

>  <Document Journal>  (242) 
nan

>  <Document Year>  (242) 
nan

>  <Active>  (242) 
0.0

$$$$

     RDKit          2D

 20 22  0  0  0  0  0  0  0  0999 V2000
    5.2500   -1.2990    0.0000 C   0  0  0  0  0  0  0  0  0  0  0  0
    3.7500   -1.2990    0.0000 C   0  0  0  0  0  0  0  0  0  0  0  0
    3.0000    0.0000    0.0000 O   0  0  0  0  0  0  0  0  0  0  0  0
    1.5000    0.0000    0.0000 C   0  0  0  0  0  0  0  0  0  0  0  0
    0.7500   -1.2990    0.0000 N   0  0  0  0  0  0  0  0  0  0  0  0
   -0.7500   -1.2990    0.0000 C   0  0  0  0  0  0  0  0  0  0  0  0
   -1.5000    0.0000    0.0000 C   0  0  0  0  0  0  0  0  0  0  0  0
   -0.7500    1.2990    0.0000 C   0  0  0  0  0  0  0  0  0  0  0  0
    0.7500    1.2990    0.0000 C   0  0  0  0  0  0  0  0  0  0  0  0
    1.2135    2.7256    0.0000 N   0  0  0  0  0  0  0  0  0  0  0  0
    0.0000    3.6073    0.0000 C   0  0  0  0  0  0  0  0  0  0  0  0
    0.0000    5.1073    0.0000 C   0  0  0  0  0  0  0  0  0  0  0  0
   -1.2135    5.9890    0.0000 N   0  0  0  0  0  0  0  0  0  0  0  0
   -0.7500    7.4156    0.0000 O   0  0  0  0  0  0  0  0  0  0  0  0
    0.7500    7.4156    0.0000 N   0  0  0  0  0  0  0  0  0  0  0  0
    1.2135    5.9890    0.0000 C   0  0  0  0  0  0  0  0  0  0  0  0
    2.6401    5.5255    0.0000 N   0  0  0  0  0  0  0  0  0  0  0  0
   -1.2135    2.7256    0.0000 N   0  0  0  0  0  0  0  0  0  0  0  0
   -2.6401    3.1891    0.0000 C   0  0  0  0  0  0  0  0  0  0  0  0
   -3.7548    2.1855    0.0000 C   0  0  0  0  0  0  0  0  0  0  0  0
  1  2  1  0
  2  3  1  0
  3  4  1  0
  4  5  2  0
  5  6  1  0
  6  7  2  0
  7  8  1  0
  8  9  2  0
  9 10  1  0
 10 11  2  0
 11 12  1  0
 12 13  2  0
 13 14  1  0
 14 15  1  0
 15 16  2  0
 16 17  1  0
 11 18  1  0
 18 19  1  0
 19 20  1  0
  9  4  1  0
 16 12  1  0
 18  8  1  0
M  END
>  <Compound_ID>  (243) 
CHEMBL188240

>  <Molecule Name>  (243) 
nan

>  <Molecular Weight>  (243) 
274.28

>  <AlogP>  (243) 
1.48

>  <Smiles>  (243) 
CCOc1nccc2c1nc(-c1nonc1N)n2CC

>  <Standard Type>  (243) 
Inhibition

>  <Standard Relation>  (243) 
'='

>  <Standard Units>  (243) 
%

>  <Standard Value>  (243) 
11.2

>  <Assay ChEMBL ID>  (243) 
CHEMBL1962143

>  <Assay Description>  (243) 
GSK_PKIS: MET mean inhibition at 1 uM [Nanosyn]

>  <BAO Format ID>  (243) 
BAO_0000357

>  <BAO Label>  (243) 
single protein format

>  <Assay Organism>  (243) 
None

>  <Target ChEMBL ID>  (243) 
CHEMBL3717

>  <Target Name>  (243) 
Hepatocyte growth factor receptor

>  <Target Organism>  (243) 
Homo sapiens

>  <Target Type>  (243) 
SINGLE PROTEIN

>  <Document ChEMBL ID>  (243) 
CHEMBL1961873

>  <Source Description>  (243) 
GSK Published Kinase Inhibitor Set

>  <Document Journal>  (243) 
nan

>  <Document Year>  (243) 
nan

>  <Active>  (243) 
0.0

$$$$

     RDKit          2D

 26 29  0  0  0  0  0  0  0  0999 V2000
    3.0000    0.0000    0.0000 N   0  0  0  0  0  0  0  0  0  0  0  0
    1.5000    0.0000    0.0000 C   0  0  0  0  0  0  0  0  0  0  0  0
    0.7500   -1.2990    0.0000 N   0  0  0  0  0  0  0  0  0  0  0  0
   -0.7500   -1.2990    0.0000 C   0  0  0  0  0  0  0  0  0  0  0  0
   -1.5000    0.0000    0.0000 C   0  0  0  0  0  0  0  0  0  0  0  0
   -0.7500    1.2990    0.0000 C   0  0  0  0  0  0  0  0  0  0  0  0
   -1.5000    2.5981    0.0000 C   0  0  0  0  0  0  0  0  0  0  0  0
   -2.9918    2.7549    0.0000 C   0  0  0  0  0  0  0  0  0  0  0  0
   -3.9955    1.6402    0.0000 C   0  0  0  0  0  0  0  0  0  0  0  0
   -5.4627    1.9520    0.0000 C   0  0  0  0  0  0  0  0  0  0  0  0
   -6.4664    0.8373    0.0000 C   0  0  0  0  0  0  0  0  0  0  0  0
   -6.0029   -0.5893    0.0000 C   0  0  0  0  0  0  0  0  0  0  0  0
   -7.0066   -1.7040    0.0000 F   0  0  0  0  0  0  0  0  0  0  0  0
   -4.5356   -0.9012    0.0000 C   0  0  0  0  0  0  0  0  0  0  0  0
   -3.5320    0.2136    0.0000 C   0  0  0  0  0  0  0  0  0  0  0  0
   -3.3037    4.2221    0.0000 N   0  0  0  0  0  0  0  0  0  0  0  0
   -2.0046    4.9721    0.0000 C   0  0  0  0  0  0  0  0  0  0  0  0
   -0.8899    3.9684    0.0000 N   0  0  0  0  0  0  0  0  0  0  0  0
    0.5773    4.2803    0.0000 C   0  0  0  0  0  0  0  0  0  0  0  0
    1.5810    3.1655    0.0000 C   0  0  0  0  0  0  0  0  0  0  0  0
    3.0482    3.4774    0.0000 C   0  0  0  0  0  0  0  0  0  0  0  0
    3.5118    4.9040    0.0000 C   0  0  0  0  0  0  0  0  0  0  0  0
    4.9790    5.2159    0.0000 O   0  0  0  0  0  0  0  0  0  0  0  0
    2.5081    6.0187    0.0000 C   0  0  0  0  0  0  0  0  0  0  0  0
    1.0409    5.7068    0.0000 C   0  0  0  0  0  0  0  0  0  0  0  0
    0.7500    1.2990    0.0000 N   0  0  0  0  0  0  0  0  0  0  0  0
  1  2  1  0
  2  3  2  0
  3  4  1  0
  4  5  2  0
  5  6  1  0
  6  7  1  0
  7  8  2  0
  8  9  1  0
  9 10  2  0
 10 11  1  0
 11 12  2  0
 12 13  1  0
 12 14  1  0
 14 15  2  0
  8 16  1  0
 16 17  2  0
 17 18  1  0
 18 19  1  0
 19 20  1  0
 20 21  1  0
 21 22  1  0
 22 23  1  0
 22 24  1  0
 24 25  1  0
  6 26  2  0
 26  2  1  0
 18  7  1  0
 25 19  1  0
 15  9  1  0
M  END
>  <Compound_ID>  (244) 
CHEMBL1888586

>  <Molecule Name>  (244) 
nan

>  <Molecular Weight>  (244) 
353.40

>  <AlogP>  (244) 
3.20

>  <Smiles>  (244) 
Nc1nccc(-c2c(-c3ccc(F)cc3)ncn2C2CCC(O)CC2)n1

>  <Standard Type>  (244) 
Inhibition

>  <Standard Relation>  (244) 
'='

>  <Standard Units>  (244) 
%

>  <Standard Value>  (244) 
0.14

>  <Assay ChEMBL ID>  (244) 
CHEMBL1962142

>  <Assay Description>  (244) 
GSK_PKIS: MET mean inhibition at 0.1 uM [Nanosyn]

>  <BAO Format ID>  (244) 
BAO_0000357

>  <BAO Label>  (244) 
single protein format

>  <Assay Organism>  (244) 
None

>  <Target ChEMBL ID>  (244) 
CHEMBL3717

>  <Target Name>  (244) 
Hepatocyte growth factor receptor

>  <Target Organism>  (244) 
Homo sapiens

>  <Target Type>  (244) 
SINGLE PROTEIN

>  <Document ChEMBL ID>  (244) 
CHEMBL1961873

>  <Source Description>  (244) 
GSK Published Kinase Inhibitor Set

>  <Document Journal>  (244) 
nan

>  <Document Year>  (244) 
nan

>  <Active>  (244) 
0.0

$$$$

     RDKit          2D

 28 31  0  0  0  0  0  0  0  0999 V2000
    6.7500   -6.4952    0.0000 N   0  0  0  0  0  0  0  0  0  0  0  0
    5.2500   -6.4952    0.0000 S   0  0  0  0  0  0  0  0  0  0  0  0
    5.2500   -7.9952    0.0000 O   0  0  0  0  0  0  0  0  0  0  0  0
    5.2500   -4.9952    0.0000 O   0  0  0  0  0  0  0  0  0  0  0  0
    3.7500   -6.4952    0.0000 C   0  0  0  0  0  0  0  0  0  0  0  0
    3.0000   -7.7942    0.0000 C   0  0  0  0  0  0  0  0  0  0  0  0
    1.5000   -7.7942    0.0000 C   0  0  0  0  0  0  0  0  0  0  0  0
    0.7500   -6.4952    0.0000 C   0  0  0  0  0  0  0  0  0  0  0  0
    1.5000   -5.1962    0.0000 C   0  0  0  0  0  0  0  0  0  0  0  0
    0.7500   -3.8971    0.0000 C   0  0  0  0  0  0  0  0  0  0  0  0
    1.5000   -2.5981    0.0000 C   0  0  0  0  0  0  0  0  0  0  0  0
    0.7500   -1.2990    0.0000 C   0  0  0  0  0  0  0  0  0  0  0  0
    1.5000    0.0000    0.0000 C   0  0  0  0  0  0  0  0  0  0  0  0
    0.7500    1.2990    0.0000 C   0  0  0  0  0  0  0  0  0  0  0  0
   -0.7500    1.2990    0.0000 N   0  0  0  0  0  0  0  0  0  0  0  0
   -1.5000    0.0000    0.0000 C   0  0  0  0  0  0  0  0  0  0  0  0
   -0.7500   -1.2990    0.0000 C   0  0  0  0  0  0  0  0  0  0  0  0
   -1.5000   -2.5981    0.0000 C   0  0  0  0  0  0  0  0  0  0  0  0
   -0.7500   -3.8971    0.0000 C   0  0  0  0  0  0  0  0  0  0  0  0
   -1.5000   -5.1962    0.0000 O   0  0  0  0  0  0  0  0  0  0  0  0
   -3.0000   -5.1962    0.0000 C   0  0  0  0  0  0  0  0  0  0  0  0
   -3.7500   -6.4952    0.0000 C   0  0  0  0  0  0  0  0  0  0  0  0
   -5.2500   -6.4952    0.0000 C   0  0  0  0  0  0  0  0  0  0  0  0
   -6.0000   -7.7942    0.0000 C   0  0  0  0  0  0  0  0  0  0  0  0
   -5.2500   -9.0933    0.0000 C   0  0  0  0  0  0  0  0  0  0  0  0
   -3.7500   -9.0933    0.0000 C   0  0  0  0  0  0  0  0  0  0  0  0
   -3.0000   -7.7942    0.0000 C   0  0  0  0  0  0  0  0  0  0  0  0
    3.0000   -5.1962    0.0000 C   0  0  0  0  0  0  0  0  0  0  0  0
  1  2  1  0
  2  3  2  0
  2  4  2  0
  2  5  1  0
  5  6  2  0
  6  7  1  0
  7  8  2  0
  8  9  1  0
  9 10  1  0
 10 11  2  0
 11 12  1  0
 12 13  2  0
 13 14  1  0
 14 15  2  0
 15 16  1  0
 16 17  2  0
 17 18  1  0
 18 19  2  0
 19 20  1  0
 20 21  1  0
 21 22  1  0
 22 23  2  0
 23 24  1  0
 24 25  2  0
 25 26  1  0
 26 27  2  0
  9 28  2  0
 28  5  1  0
 19 10  1  0
 27 22  1  0
 17 12  1  0
M  END
>  <Compound_ID>  (245) 
CHEMBL483747

>  <Molecule Name>  (245) 
GSK-980961A

>  <Molecular Weight>  (245) 
390.46

>  <AlogP>  (245) 
4.13

>  <Smiles>  (245) 
NS(=O)(=O)c1cccc(-c2cc3ccncc3cc2OCc2ccccc2)c1

>  <Standard Type>  (245) 
Inhibition

>  <Standard Relation>  (245) 
'='

>  <Standard Units>  (245) 
%

>  <Standard Value>  (245) 
4.68

>  <Assay ChEMBL ID>  (245) 
CHEMBL1962143

>  <Assay Description>  (245) 
GSK_PKIS: MET mean inhibition at 1 uM [Nanosyn]

>  <BAO Format ID>  (245) 
BAO_0000357

>  <BAO Label>  (245) 
single protein format

>  <Assay Organism>  (245) 
None

>  <Target ChEMBL ID>  (245) 
CHEMBL3717

>  <Target Name>  (245) 
Hepatocyte growth factor receptor

>  <Target Organism>  (245) 
Homo sapiens

>  <Target Type>  (245) 
SINGLE PROTEIN

>  <Document ChEMBL ID>  (245) 
CHEMBL1961873

>  <Source Description>  (245) 
GSK Published Kinase Inhibitor Set

>  <Document Journal>  (245) 
nan

>  <Document Year>  (245) 
nan

>  <Active>  (245) 
0.0

$$$$

     RDKit          2D

 38 42  0  0  0  0  0  0  0  0999 V2000
   -6.2940    7.2357    0.0000 C   0  0  0  0  0  0  0  0  0  0  0  0
   -5.1793    6.2320    0.0000 O   0  0  0  0  0  0  0  0  0  0  0  0
   -3.7527    6.6955    0.0000 C   0  0  0  0  0  0  0  0  0  0  0  0
   -3.4408    8.1628    0.0000 C   0  0  0  0  0  0  0  0  0  0  0  0
   -2.0143    8.6263    0.0000 C   0  0  0  0  0  0  0  0  0  0  0  0
   -1.7024   10.0935    0.0000 N   0  0  0  0  0  0  0  0  0  0  0  0
   -0.2758   10.5570    0.0000 C   0  0  0  0  0  0  0  0  0  0  0  0
    0.0361   12.0242    0.0000 C   0  0  0  0  0  0  0  0  0  0  0  0
   -1.0786   13.0279    0.0000 N   0  0  0  0  0  0  0  0  0  0  0  0
   -0.7668   14.4952    0.0000 C   0  0  0  0  0  0  0  0  0  0  0  0
    0.6598   14.9587    0.0000 C   0  0  0  0  0  0  0  0  0  0  0  0
   -1.8815   15.4989    0.0000 C   0  0  0  0  0  0  0  0  0  0  0  0
   -2.5052   12.5644    0.0000 C   0  0  0  0  0  0  0  0  0  0  0  0
   -2.8171   11.0972    0.0000 C   0  0  0  0  0  0  0  0  0  0  0  0
   -0.8995    7.6226    0.0000 C   0  0  0  0  0  0  0  0  0  0  0  0
   -1.2114    6.1554    0.0000 C   0  0  0  0  0  0  0  0  0  0  0  0
   -2.6380    5.6918    0.0000 C   0  0  0  0  0  0  0  0  0  0  0  0
   -2.9499    4.2246    0.0000 N   0  0  0  0  0  0  0  0  0  0  0  0
   -1.8351    3.2209    0.0000 C   0  0  0  0  0  0  0  0  0  0  0  0
   -0.4086    3.6844    0.0000 N   0  0  0  0  0  0  0  0  0  0  0  0
    0.7062    2.6807    0.0000 C   0  0  0  0  0  0  0  0  0  0  0  0
    2.1328    3.1443    0.0000 N   0  0  0  0  0  0  0  0  0  0  0  0
    2.4446    4.6115    0.0000 C   0  0  0  0  0  0  0  0  0  0  0  0
    1.3299    5.6152    0.0000 C   0  0  0  0  0  0  0  0  0  0  0  0
    1.6418    7.0824    0.0000 C   0  0  0  0  0  0  0  0  0  0  0  0
    3.0684    7.5459    0.0000 C   0  0  0  0  0  0  0  0  0  0  0  0
    4.1831    6.5422    0.0000 C   0  0  0  0  0  0  0  0  0  0  0  0
    5.6097    7.0058    0.0000 F   0  0  0  0  0  0  0  0  0  0  0  0
    3.8712    5.0750    0.0000 C   0  0  0  0  0  0  0  0  0  0  0  0
    4.9859    4.0713    0.0000 C   0  0  0  0  0  0  0  0  0  0  0  0
    4.6741    2.6041    0.0000 O   0  0  0  0  0  0  0  0  0  0  0  0
    6.4125    4.5348    0.0000 O   0  0  0  0  0  0  0  0  0  0  0  0
    0.3943    1.2135    0.0000 C   0  0  0  0  0  0  0  0  0  0  0  0
    1.2760    0.0000    0.0000 C   0  0  0  0  0  0  0  0  0  0  0  0
    0.3943   -1.2135    0.0000 C   0  0  0  0  0  0  0  0  0  0  0  0
   -1.0323   -0.7500    0.0000 N   0  0  0  0  0  0  0  0  0  0  0  0
   -1.0323    0.7500    0.0000 C   0  0  0  0  0  0  0  0  0  0  0  0
   -2.1470    1.7537    0.0000 N   0  0  0  0  0  0  0  0  0  0  0  0
  1  2  1  0
  2  3  1  0
  3  4  2  0
  4  5  1  0
  5  6  1  0
  6  7  1  0
  7  8  1  0
  8  9  1  0
  9 10  1  0
 10 11  1  0
 10 12  1  0
  9 13  1  0
 13 14  1  0
  5 15  2  0
 15 16  1  0
 16 17  2  0
 17 18  1  0
 18 19  1  0
 19 20  2  0
 20 21  1  0
 21 22  1  0
 22 23  1  0
 23 24  2  0
 24 25  1  0
 25 26  2  0
 26 27  1  0
 27 28  1  0
 27 29  2  0
 29 30  1  0
 30 31  2  0
 30 32  1  0
 21 33  2  0
 33 34  1  0
 34 35  2  0
 35 36  1  0
 36 37  1  0
 37 38  2  0
 17  3  1  0
 38 19  1  0
 14  6  1  0
 29 23  1  0
 37 33  1  0
M  END
>  <Compound_ID>  (246) 
CHEMBL514261

>  <Molecule Name>  (246) 
GSK-1819799A

>  <Molecular Weight>  (246) 
519.58

>  <AlogP>  (246) 
4.82

>  <Smiles>  (246) 
COc1cc(N2CCN(C(C)C)CC2)ccc1Nc1nc(Nc2cccc(F)c2C(=O)O)c2cc[nH]c2n1

>  <Standard Type>  (246) 
Inhibition

>  <Standard Relation>  (246) 
'='

>  <Standard Units>  (246) 
%

>  <Standard Value>  (246) 
1.52

>  <Assay ChEMBL ID>  (246) 
CHEMBL1962143

>  <Assay Description>  (246) 
GSK_PKIS: MET mean inhibition at 1 uM [Nanosyn]

>  <BAO Format ID>  (246) 
BAO_0000357

>  <BAO Label>  (246) 
single protein format

>  <Assay Organism>  (246) 
None

>  <Target ChEMBL ID>  (246) 
CHEMBL3717

>  <Target Name>  (246) 
Hepatocyte growth factor receptor

>  <Target Organism>  (246) 
Homo sapiens

>  <Target Type>  (246) 
SINGLE PROTEIN

>  <Document ChEMBL ID>  (246) 
CHEMBL1961873

>  <Source Description>  (246) 
GSK Published Kinase Inhibitor Set

>  <Document Journal>  (246) 
nan

>  <Document Year>  (246) 
nan

>  <Active>  (246) 
0.0

$$$$

     RDKit          2D

 38 43  0  0  0  0  0  0  0  0999 V2000
   -0.7500  -11.6913    0.0000 C   0  0  0  0  0  0  0  0  0  0  0  0
   -1.5000  -10.3923    0.0000 O   0  0  0  0  0  0  0  0  0  0  0  0
   -3.0000  -10.3923    0.0000 C   0  0  0  0  0  0  0  0  0  0  0  0
   -3.7500  -11.6913    0.0000 C   0  0  0  0  0  0  0  0  0  0  0  0
   -5.2500  -11.6913    0.0000 C   0  0  0  0  0  0  0  0  0  0  0  0
   -6.0000  -12.9904    0.0000 N   0  0  0  0  0  0  0  0  0  0  0  0
   -7.5000  -12.9904    0.0000 C   0  0  0  0  0  0  0  0  0  0  0  0
   -8.2500  -14.2894    0.0000 C   0  0  0  0  0  0  0  0  0  0  0  0
   -7.5000  -15.5885    0.0000 N   0  0  0  0  0  0  0  0  0  0  0  0
   -8.2500  -16.8875    0.0000 C   0  0  0  0  0  0  0  0  0  0  0  0
   -9.7500  -16.8875    0.0000 C   0  0  0  0  0  0  0  0  0  0  0  0
   -7.5000  -18.1865    0.0000 C   0  0  0  0  0  0  0  0  0  0  0  0
   -6.0000  -15.5885    0.0000 C   0  0  0  0  0  0  0  0  0  0  0  0
   -5.2500  -14.2894    0.0000 C   0  0  0  0  0  0  0  0  0  0  0  0
   -6.0000  -10.3923    0.0000 C   0  0  0  0  0  0  0  0  0  0  0  0
   -5.2500   -9.0933    0.0000 C   0  0  0  0  0  0  0  0  0  0  0  0
   -3.7500   -9.0933    0.0000 C   0  0  0  0  0  0  0  0  0  0  0  0
   -3.0000   -7.7942    0.0000 N   0  0  0  0  0  0  0  0  0  0  0  0
   -3.7500   -6.4952    0.0000 C   0  0  0  0  0  0  0  0  0  0  0  0
   -3.0000   -5.1962    0.0000 N   0  0  0  0  0  0  0  0  0  0  0  0
   -3.7500   -3.8971    0.0000 C   0  0  0  0  0  0  0  0  0  0  0  0
   -3.0000   -2.5981    0.0000 N   0  0  0  0  0  0  0  0  0  0  0  0
   -1.5000   -2.5981    0.0000 C   0  0  0  0  0  0  0  0  0  0  0  0
   -0.7500   -3.8971    0.0000 C   0  0  0  0  0  0  0  0  0  0  0  0
    0.7500   -3.8971    0.0000 C   0  0  0  0  0  0  0  0  0  0  0  0
    1.5000   -2.5981    0.0000 C   0  0  0  0  0  0  0  0  0  0  0  0
    0.7500   -1.2990    0.0000 C   0  0  0  0  0  0  0  0  0  0  0  0
    1.5000    0.0000    0.0000 N   0  0  0  0  0  0  0  0  0  0  0  0
    0.7500    1.2990    0.0000 C   0  0  0  0  0  0  0  0  0  0  0  0
   -0.7500    1.2990    0.0000 C   0  0  0  0  0  0  0  0  0  0  0  0
   -1.5000    0.0000    0.0000 C   0  0  0  0  0  0  0  0  0  0  0  0
   -0.7500   -1.2990    0.0000 C   0  0  0  0  0  0  0  0  0  0  0  0
   -5.2500   -3.8971    0.0000 C   0  0  0  0  0  0  0  0  0  0  0  0
   -6.2537   -2.7824    0.0000 C   0  0  0  0  0  0  0  0  0  0  0  0
   -7.6240   -3.3925    0.0000 C   0  0  0  0  0  0  0  0  0  0  0  0
   -7.4672   -4.8843    0.0000 N   0  0  0  0  0  0  0  0  0  0  0  0
   -6.0000   -5.1962    0.0000 C   0  0  0  0  0  0  0  0  0  0  0  0
   -5.2500   -6.4952    0.0000 N   0  0  0  0  0  0  0  0  0  0  0  0
  1  2  1  0
  2  3  1  0
  3  4  2  0
  4  5  1  0
  5  6  1  0
  6  7  1  0
  7  8  1  0
  8  9  1  0
  9 10  1  0
 10 11  1  0
 10 12  1  0
  9 13  1  0
 13 14  1  0
  5 15  2  0
 15 16  1  0
 16 17  2  0
 17 18  1  0
 18 19  1  0
 19 20  2  0
 20 21  1  0
 21 22  1  0
 22 23  1  0
 23 24  2  0
 24 25  1  0
 25 26  2  0
 26 27  1  0
 27 28  2  0
 28 29  1  0
 29 30  2  0
 30 31  1  0
 31 32  2  0
 21 33  2  0
 33 34  1  0
 34 35  2  0
 35 36  1  0
 36 37  1  0
 37 38  2  0
 17  3  1  0
 38 19  1  0
 14  6  1  0
 32 23  1  0
 37 33  1  0
 32 27  1  0
M  END
>  <Compound_ID>  (247) 
CHEMBL458438

>  <Molecule Name>  (247) 
GSK-1511931A

>  <Molecular Weight>  (247) 
508.63

>  <AlogP>  (247) 
5.53

>  <Smiles>  (247) 
COc1cc(N2CCN(C(C)C)CC2)ccc1Nc1nc(Nc2cccc3ncccc23)c2cc[nH]c2n1

>  <Standard Type>  (247) 
Inhibition

>  <Standard Relation>  (247) 
'='

>  <Standard Units>  (247) 
%

>  <Standard Value>  (247) 
-2.89

>  <Assay ChEMBL ID>  (247) 
CHEMBL1962142

>  <Assay Description>  (247) 
GSK_PKIS: MET mean inhibition at 0.1 uM [Nanosyn]

>  <BAO Format ID>  (247) 
BAO_0000357

>  <BAO Label>  (247) 
single protein format

>  <Assay Organism>  (247) 
None

>  <Target ChEMBL ID>  (247) 
CHEMBL3717

>  <Target Name>  (247) 
Hepatocyte growth factor receptor

>  <Target Organism>  (247) 
Homo sapiens

>  <Target Type>  (247) 
SINGLE PROTEIN

>  <Document ChEMBL ID>  (247) 
CHEMBL1961873

>  <Source Description>  (247) 
GSK Published Kinase Inhibitor Set

>  <Document Journal>  (247) 
nan

>  <Document Year>  (247) 
nan

>  <Active>  (247) 
0.0

$$$$

     RDKit          2D

 34 38  0  0  0  0  0  0  0  0999 V2000
    3.7500   -1.2990    0.0000 N   0  0  0  0  0  0  0  0  0  0  0  0
    3.0000    0.0000    0.0000 C   0  0  0  0  0  0  0  0  0  0  0  0
    3.7500    1.2990    0.0000 O   0  0  0  0  0  0  0  0  0  0  0  0
    1.5000    0.0000    0.0000 C   0  0  0  0  0  0  0  0  0  0  0  0
    0.7500   -1.2990    0.0000 C   0  0  0  0  0  0  0  0  0  0  0  0
   -0.7500   -1.2990    0.0000 C   0  0  0  0  0  0  0  0  0  0  0  0
   -1.5000    0.0000    0.0000 C   0  0  0  0  0  0  0  0  0  0  0  0
   -3.0000    0.0000    0.0000 O   0  0  0  0  0  0  0  0  0  0  0  0
   -3.7500    1.2990    0.0000 C   0  0  0  0  0  0  0  0  0  0  0  0
   -3.0000    2.5981    0.0000 N   0  0  0  0  0  0  0  0  0  0  0  0
   -3.7500    3.8971    0.0000 C   0  0  0  0  0  0  0  0  0  0  0  0
   -5.2500    3.8971    0.0000 C   0  0  0  0  0  0  0  0  0  0  0  0
   -6.0000    2.5981    0.0000 C   0  0  0  0  0  0  0  0  0  0  0  0
   -7.5000    2.5981    0.0000 C   0  0  0  0  0  0  0  0  0  0  0  0
   -8.3817    1.3846    0.0000 C   0  0  0  0  0  0  0  0  0  0  0  0
   -7.9182   -0.0420    0.0000 C   0  0  0  0  0  0  0  0  0  0  0  0
   -8.9218   -1.1568    0.0000 C   0  0  0  0  0  0  0  0  0  0  0  0
   -8.4583   -2.5833    0.0000 C   0  0  0  0  0  0  0  0  0  0  0  0
   -6.9911   -2.8952    0.0000 C   0  0  0  0  0  0  0  0  0  0  0  0
   -6.5276   -4.3218    0.0000 F   0  0  0  0  0  0  0  0  0  0  0  0
   -5.9874   -1.7805    0.0000 C   0  0  0  0  0  0  0  0  0  0  0  0
   -6.4509   -0.3539    0.0000 C   0  0  0  0  0  0  0  0  0  0  0  0
   -9.8083    1.8481    0.0000 N   0  0  0  0  0  0  0  0  0  0  0  0
   -9.8083    3.3481    0.0000 C   0  0  0  0  0  0  0  0  0  0  0  0
   -8.3817    3.8116    0.0000 N   0  0  0  0  0  0  0  0  0  0  0  0
   -7.9182    5.2382    0.0000 C   0  0  0  0  0  0  0  0  0  0  0  0
   -6.4509    5.5501    0.0000 C   0  0  0  0  0  0  0  0  0  0  0  0
   -5.9874    6.9766    0.0000 C   0  0  0  0  0  0  0  0  0  0  0  0
   -6.9911    8.0914    0.0000 N   0  0  0  0  0  0  0  0  0  0  0  0
   -8.4583    7.7795    0.0000 C   0  0  0  0  0  0  0  0  0  0  0  0
   -8.9218    6.3529    0.0000 C   0  0  0  0  0  0  0  0  0  0  0  0
   -5.2500    1.2990    0.0000 N   0  0  0  0  0  0  0  0  0  0  0  0
   -0.7500    1.2990    0.0000 C   0  0  0  0  0  0  0  0  0  0  0  0
    0.7500    1.2990    0.0000 C   0  0  0  0  0  0  0  0  0  0  0  0
  1  2  1  0
  2  3  2  0
  2  4  1  0
  4  5  2  0
  5  6  1  0
  6  7  2  0
  7  8  1  0
  8  9  1  0
  9 10  2  0
 10 11  1  0
 11 12  2  0
 12 13  1  0
 13 14  1  0
 14 15  2  0
 15 16  1  0
 16 17  2  0
 17 18  1  0
 18 19  2  0
 19 20  1  0
 19 21  1  0
 21 22  2  0
 15 23  1  0
 23 24  2  0
 24 25  1  0
 25 26  1  0
 26 27  1  0
 27 28  1  0
 28 29  1  0
 29 30  1  0
 30 31  1  0
 13 32  2  0
  7 33  1  0
 33 34  2  0
 34  4  1  0
 32  9  1  0
 25 14  1  0
 31 26  1  0
 22 16  1  0
M  END
>  <Compound_ID>  (248) 
CHEMBL275724

>  <Molecule Name>  (248) 
nan

>  <Molecular Weight>  (248) 
458.50

>  <AlogP>  (248) 
3.96

>  <Smiles>  (248) 
NC(=O)c1ccc(Oc2nccc(-c3c(-c4ccc(F)cc4)ncn3C3CCNCC3)n2)cc1

>  <Standard Type>  (248) 
Inhibition

>  <Standard Relation>  (248) 
'='

>  <Standard Units>  (248) 
%

>  <Standard Value>  (248) 
13.22

>  <Assay ChEMBL ID>  (248) 
CHEMBL1962142

>  <Assay Description>  (248) 
GSK_PKIS: MET mean inhibition at 0.1 uM [Nanosyn]

>  <BAO Format ID>  (248) 
BAO_0000357

>  <BAO Label>  (248) 
single protein format

>  <Assay Organism>  (248) 
None

>  <Target ChEMBL ID>  (248) 
CHEMBL3717

>  <Target Name>  (248) 
Hepatocyte growth factor receptor

>  <Target Organism>  (248) 
Homo sapiens

>  <Target Type>  (248) 
SINGLE PROTEIN

>  <Document ChEMBL ID>  (248) 
CHEMBL1961873

>  <Source Description>  (248) 
GSK Published Kinase Inhibitor Set

>  <Document Journal>  (248) 
nan

>  <Document Year>  (248) 
nan

>  <Active>  (248) 
0.0

$$$$

     RDKit          2D

 31 34  0  0  0  0  0  0  0  0999 V2000
    3.7500   -1.2990    0.0000 C   0  0  0  0  0  0  0  0  0  0  0  0
    3.0000    0.0000    0.0000 O   0  0  0  0  0  0  0  0  0  0  0  0
    1.5000    0.0000    0.0000 C   0  0  0  0  0  0  0  0  0  0  0  0
    0.7500   -1.2990    0.0000 C   0  0  0  0  0  0  0  0  0  0  0  0
   -0.7500   -1.2990    0.0000 C   0  0  0  0  0  0  0  0  0  0  0  0
   -1.5000    0.0000    0.0000 C   0  0  0  0  0  0  0  0  0  0  0  0
   -3.0000    0.0000    0.0000 C   0  0  0  0  0  0  0  0  0  0  0  0
   -3.7500    1.2990    0.0000 N   0  0  0  0  0  0  0  0  0  0  0  0
   -5.2500    1.2990    0.0000 C   0  0  0  0  0  0  0  0  0  0  0  0
   -6.0000    0.0000    0.0000 O   0  0  0  0  0  0  0  0  0  0  0  0
   -6.0000    2.5981    0.0000 C   0  0  0  0  0  0  0  0  0  0  0  0
   -5.2500    3.8971    0.0000 C   0  0  0  0  0  0  0  0  0  0  0  0
   -6.0000    5.1962    0.0000 C   0  0  0  0  0  0  0  0  0  0  0  0
   -7.5000    5.1962    0.0000 C   0  0  0  0  0  0  0  0  0  0  0  0
   -8.2500    6.4952    0.0000 C   0  0  0  0  0  0  0  0  0  0  0  0
   -7.5000    7.7942    0.0000 C   0  0  0  0  0  0  0  0  0  0  0  0
   -8.2500    9.0933    0.0000 C   0  0  0  0  0  0  0  0  0  0  0  0
   -7.5000   10.3923    0.0000 C   0  0  0  0  0  0  0  0  0  0  0  0
   -8.1101   11.7626    0.0000 N   0  0  0  0  0  0  0  0  0  0  0  0
   -6.9954   12.7663    0.0000 N   0  0  0  0  0  0  0  0  0  0  0  0
   -5.6963   12.0163    0.0000 C   0  0  0  0  0  0  0  0  0  0  0  0
   -4.3260   12.6264    0.0000 C   0  0  0  0  0  0  0  0  0  0  0  0
   -6.0082   10.5491    0.0000 O   0  0  0  0  0  0  0  0  0  0  0  0
   -9.7500    9.0933    0.0000 C   0  0  0  0  0  0  0  0  0  0  0  0
  -10.5000    7.7942    0.0000 C   0  0  0  0  0  0  0  0  0  0  0  0
   -9.7500    6.4952    0.0000 C   0  0  0  0  0  0  0  0  0  0  0  0
  -10.5000    5.1962    0.0000 C   0  0  0  0  0  0  0  0  0  0  0  0
   -8.2500    3.8971    0.0000 C   0  0  0  0  0  0  0  0  0  0  0  0
   -7.5000    2.5981    0.0000 C   0  0  0  0  0  0  0  0  0  0  0  0
   -0.7500    1.2990    0.0000 C   0  0  0  0  0  0  0  0  0  0  0  0
    0.7500    1.2990    0.0000 C   0  0  0  0  0  0  0  0  0  0  0  0
  1  2  1  0
  2  3  1  0
  3  4  2  0
  4  5  1  0
  5  6  2  0
  6  7  1  0
  7  8  1  0
  8  9  1  0
  9 10  2  0
  9 11  1  0
 11 12  2  0
 12 13  1  0
 13 14  2  0
 14 15  1  0
 15 16  2  0
 16 17  1  0
 17 18  1  0
 18 19  2  0
 19 20  1  0
 20 21  2  0
 21 22  1  0
 21 23  1  0
 17 24  2  0
 24 25  1  0
 25 26  2  0
 26 27  1  0
 14 28  1  0
 28 29  2  0
  6 30  1  0
 30 31  2  0
 31  3  1  0
 29 11  1  0
 26 15  1  0
 23 18  1  0
M  END
>  <Compound_ID>  (249) 
CHEMBL269985

>  <Molecule Name>  (249) 
GW701032X

>  <Molecular Weight>  (249) 
413.48

>  <AlogP>  (249) 
4.96

>  <Smiles>  (249) 
COc1ccc(CNC(=O)c2ccc(-c3cc(-c4nnc(C)o4)ccc3C)cc2)cc1

>  <Standard Type>  (249) 
Inhibition

>  <Standard Relation>  (249) 
'='

>  <Standard Units>  (249) 
%

>  <Standard Value>  (249) 
11.82

>  <Assay ChEMBL ID>  (249) 
CHEMBL1962142

>  <Assay Description>  (249) 
GSK_PKIS: MET mean inhibition at 0.1 uM [Nanosyn]

>  <BAO Format ID>  (249) 
BAO_0000357

>  <BAO Label>  (249) 
single protein format

>  <Assay Organism>  (249) 
None

>  <Target ChEMBL ID>  (249) 
CHEMBL3717

>  <Target Name>  (249) 
Hepatocyte growth factor receptor

>  <Target Organism>  (249) 
Homo sapiens

>  <Target Type>  (249) 
SINGLE PROTEIN

>  <Document ChEMBL ID>  (249) 
CHEMBL1961873

>  <Source Description>  (249) 
GSK Published Kinase Inhibitor Set

>  <Document Journal>  (249) 
nan

>  <Document Year>  (249) 
nan

>  <Active>  (249) 
0.0

$$$$

     RDKit          2D

 30 33  0  0  0  0  0  0  0  0999 V2000
   -9.1645    1.7722    0.0000 C   0  0  0  0  0  0  0  0  0  0  0  0
   -8.0498    0.7685    0.0000 O   0  0  0  0  0  0  0  0  0  0  0  0
   -6.6232    1.2320    0.0000 C   0  0  0  0  0  0  0  0  0  0  0  0
   -6.3114    2.6992    0.0000 C   0  0  0  0  0  0  0  0  0  0  0  0
   -4.8848    3.1627    0.0000 C   0  0  0  0  0  0  0  0  0  0  0  0
   -3.7701    2.1590    0.0000 C   0  0  0  0  0  0  0  0  0  0  0  0
   -4.0819    0.6918    0.0000 C   0  0  0  0  0  0  0  0  0  0  0  0
   -2.9672   -0.3119    0.0000 N   0  0  0  0  0  0  0  0  0  0  0  0
   -3.1240   -1.8037    0.0000 N   0  0  0  0  0  0  0  0  0  0  0  0
   -1.7537   -2.4138    0.0000 C   0  0  0  0  0  0  0  0  0  0  0  0
   -0.7500   -1.2990    0.0000 C   0  0  0  0  0  0  0  0  0  0  0  0
    0.7500   -1.2990    0.0000 C   0  0  0  0  0  0  0  0  0  0  0  0
    1.5000   -2.5981    0.0000 N   0  0  0  0  0  0  0  0  0  0  0  0
    3.0000   -2.5981    0.0000 N   0  0  0  0  0  0  0  0  0  0  0  0
    3.7500   -3.8971    0.0000 C   0  0  0  0  0  0  0  0  0  0  0  0
    5.2500   -3.8971    0.0000 C   0  0  0  0  0  0  0  0  0  0  0  0
    6.0000   -5.1962    0.0000 C   0  0  0  0  0  0  0  0  0  0  0  0
    7.5000   -5.1962    0.0000 C   0  0  0  0  0  0  0  0  0  0  0  0
    8.2500   -3.8971    0.0000 C   0  0  0  0  0  0  0  0  0  0  0  0
    9.7500   -3.8971    0.0000 S   0  0  0  0  0  0  0  0  0  0  0  0
   11.2500   -3.8971    0.0000 C   0  0  0  0  0  0  0  0  0  0  0  0
    9.7500   -2.3971    0.0000 O   0  0  0  0  0  0  0  0  0  0  0  0
    9.7500   -5.3971    0.0000 O   0  0  0  0  0  0  0  0  0  0  0  0
    7.5000   -2.5981    0.0000 C   0  0  0  0  0  0  0  0  0  0  0  0
    6.0000   -2.5981    0.0000 C   0  0  0  0  0  0  0  0  0  0  0  0
    1.5000    0.0000    0.0000 N   0  0  0  0  0  0  0  0  0  0  0  0
    0.7500    1.2990    0.0000 C   0  0  0  0  0  0  0  0  0  0  0  0
   -0.7500    1.2990    0.0000 N   0  0  0  0  0  0  0  0  0  0  0  0
   -1.5000    0.0000    0.0000 C   0  0  0  0  0  0  0  0  0  0  0  0
   -5.5085    0.2283    0.0000 C   0  0  0  0  0  0  0  0  0  0  0  0
  1  2  1  0
  2  3  1  0
  3  4  2  0
  4  5  1  0
  5  6  2  0
  6  7  1  0
  7  8  1  0
  8  9  1  0
  9 10  2  0
 10 11  1  0
 11 12  2  0
 12 13  1  0
 13 14  1  0
 14 15  2  0
 15 16  1  0
 16 17  2  0
 17 18  1  0
 18 19  2  0
 19 20  1  0
 20 21  1  0
 20 22  2  0
 20 23  2  0
 19 24  1  0
 24 25  2  0
 12 26  1  0
 26 27  2  0
 27 28  1  0
 28 29  2  0
  7 30  2  0
 30  3  1  0
 29  8  1  0
 29 11  1  0
 25 16  1  0
M  END
>  <Compound_ID>  (250) 
CHEMBL66292

>  <Molecule Name>  (250) 
PYRAZOLOPYRIMIDINE 2

>  <Molecular Weight>  (250) 
422.47

>  <AlogP>  (250) 
2.67

>  <Smiles>  (250) 
COc1cccc(-n2ncc3c(N/N=C/c4ccc(S(C)(=O)=O)cc4)ncnc32)c1

>  <Standard Type>  (250) 
Inhibition

>  <Standard Relation>  (250) 
'='

>  <Standard Units>  (250) 
%

>  <Standard Value>  (250) 
14.46

>  <Assay ChEMBL ID>  (250) 
CHEMBL1962142

>  <Assay Description>  (250) 
GSK_PKIS: MET mean inhibition at 0.1 uM [Nanosyn]

>  <BAO Format ID>  (250) 
BAO_0000357

>  <BAO Label>  (250) 
single protein format

>  <Assay Organism>  (250) 
None

>  <Target ChEMBL ID>  (250) 
CHEMBL3717

>  <Target Name>  (250) 
Hepatocyte growth factor receptor

>  <Target Organism>  (250) 
Homo sapiens

>  <Target Type>  (250) 
SINGLE PROTEIN

>  <Document ChEMBL ID>  (250) 
CHEMBL1961873

>  <Source Description>  (250) 
GSK Published Kinase Inhibitor Set

>  <Document Journal>  (250) 
nan

>  <Document Year>  (250) 
nan

>  <Active>  (250) 
0.0

$$$$

     RDKit          2D

 30 34  0  0  0  0  0  0  0  0999 V2000
    3.0000    0.0000    0.0000 C   0  0  0  0  0  0  0  0  0  0  0  0
    1.5000    0.0000    0.0000 C   0  0  0  0  0  0  0  0  0  0  0  0
    0.7500   -1.2990    0.0000 C   0  0  0  0  0  0  0  0  0  0  0  0
   -0.7500   -1.2990    0.0000 C   0  0  0  0  0  0  0  0  0  0  0  0
   -1.5000    0.0000    0.0000 C   0  0  0  0  0  0  0  0  0  0  0  0
   -2.9672    0.3119    0.0000 C   0  0  0  0  0  0  0  0  0  0  0  0
   -4.0819   -0.6918    0.0000 C   0  0  0  0  0  0  0  0  0  0  0  0
   -5.5085   -0.2283    0.0000 C   0  0  0  0  0  0  0  0  0  0  0  0
   -6.6232   -1.2320    0.0000 C   0  0  0  0  0  0  0  0  0  0  0  0
   -6.3114   -2.6992    0.0000 N   0  0  0  0  0  0  0  0  0  0  0  0
   -4.8848   -3.1627    0.0000 C   0  0  0  0  0  0  0  0  0  0  0  0
   -4.5729   -4.6300    0.0000 N   0  0  0  0  0  0  0  0  0  0  0  0
   -5.6876   -5.6337    0.0000 C   0  0  0  0  0  0  0  0  0  0  0  0
   -7.1142   -5.1701    0.0000 C   0  0  0  0  0  0  0  0  0  0  0  0
   -8.2289   -6.1738    0.0000 C   0  0  0  0  0  0  0  0  0  0  0  0
   -7.9171   -7.6411    0.0000 C   0  0  0  0  0  0  0  0  0  0  0  0
   -6.4905   -8.1046    0.0000 C   0  0  0  0  0  0  0  0  0  0  0  0
   -5.3758   -7.1009    0.0000 C   0  0  0  0  0  0  0  0  0  0  0  0
   -3.7701   -2.1590    0.0000 N   0  0  0  0  0  0  0  0  0  0  0  0
   -3.1240    1.8037    0.0000 C   0  0  0  0  0  0  0  0  0  0  0  0
   -4.4231    2.5537    0.0000 C   0  0  0  0  0  0  0  0  0  0  0  0
   -4.4231    4.0537    0.0000 C   0  0  0  0  0  0  0  0  0  0  0  0
   -5.7221    4.8037    0.0000 C   0  0  0  0  0  0  0  0  0  0  0  0
   -7.0211    4.0537    0.0000 C   0  0  0  0  0  0  0  0  0  0  0  0
   -8.3202    4.8037    0.0000 F   0  0  0  0  0  0  0  0  0  0  0  0
   -7.0211    2.5537    0.0000 C   0  0  0  0  0  0  0  0  0  0  0  0
   -5.7221    1.8037    0.0000 C   0  0  0  0  0  0  0  0  0  0  0  0
   -1.7537    2.4138    0.0000 N   0  0  0  0  0  0  0  0  0  0  0  0
   -0.7500    1.2990    0.0000 N   0  0  0  0  0  0  0  0  0  0  0  0
    0.7500    1.2990    0.0000 N   0  0  0  0  0  0  0  0  0  0  0  0
  1  2  1  0
  2  3  1  0
  3  4  2  0
  4  5  1  0
  5  6  2  0
  6  7  1  0
  7  8  2  0
  8  9  1  0
  9 10  2  0
 10 11  1  0
 11 12  1  0
 12 13  1  0
 13 14  2  0
 14 15  1  0
 15 16  2  0
 16 17  1  0
 17 18  2  0
 11 19  2  0
  6 20  1  0
 20 21  1  0
 21 22  2  0
 22 23  1  0
 23 24  2  0
 24 25  1  0
 24 26  1  0
 26 27  2  0
 20 28  2  0
 28 29  1  0
 29 30  1  0
 30  2  2  0
 29  5  1  0
 19  7  1  0
 27 21  1  0
 18 13  1  0
M  END
>  <Compound_ID>  (251) 
CHEMBL189459

>  <Molecule Name>  (251) 
GW833373X

>  <Molecular Weight>  (251) 
396.43

>  <AlogP>  (251) 
5.04

>  <Smiles>  (251) 
Cc1ccc2c(-c3ccnc(Nc4ccccc4)n3)c(-c3ccc(F)cc3)nn2n1

>  <Standard Type>  (251) 
Inhibition

>  <Standard Relation>  (251) 
'='

>  <Standard Units>  (251) 
%

>  <Standard Value>  (251) 
1.64

>  <Assay ChEMBL ID>  (251) 
CHEMBL1962142

>  <Assay Description>  (251) 
GSK_PKIS: MET mean inhibition at 0.1 uM [Nanosyn]

>  <BAO Format ID>  (251) 
BAO_0000357

>  <BAO Label>  (251) 
single protein format

>  <Assay Organism>  (251) 
None

>  <Target ChEMBL ID>  (251) 
CHEMBL3717

>  <Target Name>  (251) 
Hepatocyte growth factor receptor

>  <Target Organism>  (251) 
Homo sapiens

>  <Target Type>  (251) 
SINGLE PROTEIN

>  <Document ChEMBL ID>  (251) 
CHEMBL1961873

>  <Source Description>  (251) 
GSK Published Kinase Inhibitor Set

>  <Document Journal>  (251) 
nan

>  <Document Year>  (251) 
nan

>  <Active>  (251) 
0.0

$$$$

     RDKit          2D

 29 32  0  0  0  0  0  0  0  0999 V2000
    3.7500   -1.2990    0.0000 C   0  0  0  0  0  0  0  0  0  0  0  0
    3.0000    0.0000    0.0000 O   0  0  0  0  0  0  0  0  0  0  0  0
    1.5000    0.0000    0.0000 C   0  0  0  0  0  0  0  0  0  0  0  0
    0.7500   -1.2990    0.0000 C   0  0  0  0  0  0  0  0  0  0  0  0
   -0.7500   -1.2990    0.0000 C   0  0  0  0  0  0  0  0  0  0  0  0
   -1.5000    0.0000    0.0000 C   0  0  0  0  0  0  0  0  0  0  0  0
   -2.9672    0.3119    0.0000 C   0  0  0  0  0  0  0  0  0  0  0  0
   -4.0819   -0.6918    0.0000 C   0  0  0  0  0  0  0  0  0  0  0  0
   -5.5085   -0.2283    0.0000 C   0  0  0  0  0  0  0  0  0  0  0  0
   -6.6232   -1.2320    0.0000 C   0  0  0  0  0  0  0  0  0  0  0  0
   -6.3114   -2.6992    0.0000 N   0  0  0  0  0  0  0  0  0  0  0  0
   -4.8848   -3.1627    0.0000 C   0  0  0  0  0  0  0  0  0  0  0  0
   -4.5729   -4.6300    0.0000 N   0  0  0  0  0  0  0  0  0  0  0  0
   -5.6876   -5.6337    0.0000 C   0  0  0  0  0  0  0  0  0  0  0  0
   -7.1142   -5.1701    0.0000 C   0  0  0  0  0  0  0  0  0  0  0  0
   -8.2289   -6.1738    0.0000 C   0  0  0  0  0  0  0  0  0  0  0  0
   -7.9171   -7.6411    0.0000 C   0  0  0  0  0  0  0  0  0  0  0  0
   -6.4905   -8.1046    0.0000 C   0  0  0  0  0  0  0  0  0  0  0  0
   -6.1786   -9.5718    0.0000 O   0  0  0  0  0  0  0  0  0  0  0  0
   -7.2933  -10.5755    0.0000 C   0  0  0  0  0  0  0  0  0  0  0  0
   -8.4081  -11.5792    0.0000 F   0  0  0  0  0  0  0  0  0  0  0  0
   -6.2896  -11.6902    0.0000 F   0  0  0  0  0  0  0  0  0  0  0  0
   -8.2970   -9.4608    0.0000 F   0  0  0  0  0  0  0  0  0  0  0  0
   -5.3758   -7.1009    0.0000 C   0  0  0  0  0  0  0  0  0  0  0  0
   -3.7701   -2.1590    0.0000 N   0  0  0  0  0  0  0  0  0  0  0  0
   -3.1240    1.8037    0.0000 C   0  0  0  0  0  0  0  0  0  0  0  0
   -1.7537    2.4138    0.0000 N   0  0  0  0  0  0  0  0  0  0  0  0
   -0.7500    1.2990    0.0000 N   0  0  0  0  0  0  0  0  0  0  0  0
    0.7500    1.2990    0.0000 N   0  0  0  0  0  0  0  0  0  0  0  0
  1  2  1  0
  2  3  1  0
  3  4  1  0
  4  5  2  0
  5  6  1  0
  6  7  2  0
  7  8  1  0
  8  9  2  0
  9 10  1  0
 10 11  2  0
 11 12  1  0
 12 13  1  0
 13 14  1  0
 14 15  2  0
 15 16  1  0
 16 17  2  0
 17 18  1  0
 18 19  1  0
 19 20  1  0
 20 21  1  0
 20 22  1  0
 20 23  1  0
 18 24  2  0
 12 25  2  0
  7 26  1  0
 26 27  2  0
 27 28  1  0
 28 29  1  0
 29  3  2  0
 28  6  1  0
 25  8  1  0
 24 14  1  0
M  END
>  <Compound_ID>  (252) 
CHEMBL365248

>  <Molecule Name>  (252) 
GW810372X

>  <Molecular Weight>  (252) 
402.34

>  <AlogP>  (252) 
3.84

>  <Smiles>  (252) 
COc1ccc2c(-c3ccnc(Nc4cccc(OC(F)(F)F)c4)n3)cnn2n1

>  <Standard Type>  (252) 
Inhibition

>  <Standard Relation>  (252) 
'='

>  <Standard Units>  (252) 
%

>  <Standard Value>  (252) 
15.69

>  <Assay ChEMBL ID>  (252) 
CHEMBL1962143

>  <Assay Description>  (252) 
GSK_PKIS: MET mean inhibition at 1 uM [Nanosyn]

>  <BAO Format ID>  (252) 
BAO_0000357

>  <BAO Label>  (252) 
single protein format

>  <Assay Organism>  (252) 
None

>  <Target ChEMBL ID>  (252) 
CHEMBL3717

>  <Target Name>  (252) 
Hepatocyte growth factor receptor

>  <Target Organism>  (252) 
Homo sapiens

>  <Target Type>  (252) 
SINGLE PROTEIN

>  <Document ChEMBL ID>  (252) 
CHEMBL1961873

>  <Source Description>  (252) 
GSK Published Kinase Inhibitor Set

>  <Document Journal>  (252) 
nan

>  <Document Year>  (252) 
nan

>  <Active>  (252) 
0.0

$$$$

     RDKit          2D

 24 27  0  0  0  0  0  0  0  0999 V2000
   -5.2046    0.1696    0.0000 N   0  0  0  0  0  0  0  0  0  0  0  0
   -5.6682   -1.2570    0.0000 C   0  0  0  0  0  0  0  0  0  0  0  0
   -6.1317   -2.6836    0.0000 C   0  0  0  0  0  0  0  0  0  0  0  0
   -5.2500   -3.8971    0.0000 C   0  0  0  0  0  0  0  0  0  0  0  0
   -3.7500   -3.8971    0.0000 N   0  0  0  0  0  0  0  0  0  0  0  0
   -3.0000   -2.5981    0.0000 C   0  0  0  0  0  0  0  0  0  0  0  0
   -3.7500   -1.2990    0.0000 O   0  0  0  0  0  0  0  0  0  0  0  0
   -1.5000   -2.5981    0.0000 C   0  0  0  0  0  0  0  0  0  0  0  0
   -0.7500   -3.8971    0.0000 C   0  0  0  0  0  0  0  0  0  0  0  0
    0.7500   -3.8971    0.0000 C   0  0  0  0  0  0  0  0  0  0  0  0
    1.5000   -2.5981    0.0000 C   0  0  0  0  0  0  0  0  0  0  0  0
    0.7500   -1.2990    0.0000 C   0  0  0  0  0  0  0  0  0  0  0  0
    1.5000    0.0000    0.0000 C   0  0  0  0  0  0  0  0  0  0  0  0
    0.7500    1.2990    0.0000 C   0  0  0  0  0  0  0  0  0  0  0  0
   -0.7500    1.2990    0.0000 C   0  0  0  0  0  0  0  0  0  0  0  0
   -1.5000    0.0000    0.0000 C   0  0  0  0  0  0  0  0  0  0  0  0
   -0.7500   -1.2990    0.0000 C   0  0  0  0  0  0  0  0  0  0  0  0
   -6.1317   -5.1106    0.0000 S   0  0  0  0  0  0  0  0  0  0  0  0
   -7.5583   -4.6471    0.0000 C   0  0  0  0  0  0  0  0  0  0  0  0
   -7.5583   -3.1471    0.0000 C   0  0  0  0  0  0  0  0  0  0  0  0
   -8.8573   -2.3971    0.0000 C   0  0  0  0  0  0  0  0  0  0  0  0
  -10.1563   -3.1471    0.0000 C   0  0  0  0  0  0  0  0  0  0  0  0
  -10.1563   -4.6471    0.0000 C   0  0  0  0  0  0  0  0  0  0  0  0
   -8.8573   -5.3971    0.0000 C   0  0  0  0  0  0  0  0  0  0  0  0
  1  2  3  0
  2  3  1  0
  3  4  2  0
  4  5  1  0
  5  6  1  0
  6  7  2  0
  6  8  1  0
  8  9  2  0
  9 10  1  0
 10 11  2  0
 11 12  1  0
 12 13  2  0
 13 14  1  0
 14 15  2  0
 15 16  1  0
 16 17  2  0
  4 18  1  0
 18 19  1  0
 19 20  2  0
 20 21  1  0
 21 22  1  0
 22 23  1  0
 23 24  1  0
 20  3  1  0
 17  8  1  0
 24 19  1  0
 17 12  1  0
M  END
>  <Compound_ID>  (253) 
CHEMBL233001

>  <Molecule Name>  (253) 
GW620972X

>  <Molecular Weight>  (253) 
332.43

>  <AlogP>  (253) 
4.90

>  <Smiles>  (253) 
N#Cc1c(NC(=O)c2cccc3ccccc23)sc2c1CCCC2

>  <Standard Type>  (253) 
Inhibition

>  <Standard Relation>  (253) 
'='

>  <Standard Units>  (253) 
%

>  <Standard Value>  (253) 
3.61

>  <Assay ChEMBL ID>  (253) 
CHEMBL1962142

>  <Assay Description>  (253) 
GSK_PKIS: MET mean inhibition at 0.1 uM [Nanosyn]

>  <BAO Format ID>  (253) 
BAO_0000357

>  <BAO Label>  (253) 
single protein format

>  <Assay Organism>  (253) 
None

>  <Target ChEMBL ID>  (253) 
CHEMBL3717

>  <Target Name>  (253) 
Hepatocyte growth factor receptor

>  <Target Organism>  (253) 
Homo sapiens

>  <Target Type>  (253) 
SINGLE PROTEIN

>  <Document ChEMBL ID>  (253) 
CHEMBL1961873

>  <Source Description>  (253) 
GSK Published Kinase Inhibitor Set

>  <Document Journal>  (253) 
nan

>  <Document Year>  (253) 
nan

>  <Active>  (253) 
0.0

$$$$

     RDKit          2D

 35 39  0  0  0  0  0  0  0  0999 V2000
    3.0000    0.0000    0.0000 C   0  0  0  0  0  0  0  0  0  0  0  0
    1.5000    0.0000    0.0000 C   0  0  0  0  0  0  0  0  0  0  0  0
    0.7500   -1.2990    0.0000 C   0  0  0  0  0  0  0  0  0  0  0  0
   -0.7500   -1.2990    0.0000 C   0  0  0  0  0  0  0  0  0  0  0  0
   -1.5000    0.0000    0.0000 C   0  0  0  0  0  0  0  0  0  0  0  0
   -3.0000    0.0000    0.0000 N   0  0  0  0  0  0  0  0  0  0  0  0
   -3.7500    1.2990    0.0000 C   0  0  0  0  0  0  0  0  0  0  0  0
   -3.0000    2.5981    0.0000 O   0  0  0  0  0  0  0  0  0  0  0  0
   -5.2500    1.2990    0.0000 C   0  0  0  0  0  0  0  0  0  0  0  0
   -6.0000    2.5981    0.0000 C   0  0  0  0  0  0  0  0  0  0  0  0
   -7.5000    2.5981    0.0000 C   0  0  0  0  0  0  0  0  0  0  0  0
   -8.2500    1.2990    0.0000 N   0  0  0  0  0  0  0  0  0  0  0  0
   -7.5000    0.0000    0.0000 C   0  0  0  0  0  0  0  0  0  0  0  0
   -8.2500   -1.2990    0.0000 N   0  0  0  0  0  0  0  0  0  0  0  0
   -9.7500   -1.2990    0.0000 C   0  0  0  0  0  0  0  0  0  0  0  0
  -10.5000   -2.5981    0.0000 C   0  0  0  0  0  0  0  0  0  0  0  0
   -9.7500   -3.8971    0.0000 O   0  0  0  0  0  0  0  0  0  0  0  0
   -8.2500   -3.8971    0.0000 C   0  0  0  0  0  0  0  0  0  0  0  0
   -7.5000   -2.5981    0.0000 C   0  0  0  0  0  0  0  0  0  0  0  0
   -6.0000    0.0000    0.0000 C   0  0  0  0  0  0  0  0  0  0  0  0
   -0.7500    1.2990    0.0000 C   0  0  0  0  0  0  0  0  0  0  0  0
    0.7500    1.2990    0.0000 C   0  0  0  0  0  0  0  0  0  0  0  0
    1.5000    2.5981    0.0000 C   0  0  0  0  0  0  0  0  0  0  0  0
    3.0000    2.5981    0.0000 C   0  0  0  0  0  0  0  0  0  0  0  0
    3.7500    3.8971    0.0000 C   0  0  0  0  0  0  0  0  0  0  0  0
    3.0000    5.1962    0.0000 C   0  0  0  0  0  0  0  0  0  0  0  0
    3.7500    6.4952    0.0000 C   0  0  0  0  0  0  0  0  0  0  0  0
    3.0000    7.7942    0.0000 O   0  0  0  0  0  0  0  0  0  0  0  0
    5.2500    6.4952    0.0000 N   0  0  0  0  0  0  0  0  0  0  0  0
    6.0000    7.7942    0.0000 C   0  0  0  0  0  0  0  0  0  0  0  0
    7.5000    7.7942    0.0000 C   0  0  0  0  0  0  0  0  0  0  0  0
    8.7990    8.5442    0.0000 C   0  0  0  0  0  0  0  0  0  0  0  0
    8.7990    7.0442    0.0000 C   0  0  0  0  0  0  0  0  0  0  0  0
    1.5000    5.1962    0.0000 C   0  0  0  0  0  0  0  0  0  0  0  0
    0.7500    3.8971    0.0000 C   0  0  0  0  0  0  0  0  0  0  0  0
  1  2  1  0
  2  3  2  0
  3  4  1  0
  4  5  2  0
  5  6  1  0
  6  7  1  0
  7  8  2  0
  7  9  1  0
  9 10  2  0
 10 11  1  0
 11 12  2  0
 12 13  1  0
 13 14  1  0
 14 15  1  0
 15 16  1  0
 16 17  1  0
 17 18  1  0
 18 19  1  0
 13 20  2  0
  5 21  1  0
 21 22  2  0
 22 23  1  0
 23 24  2  0
 24 25  1  0
 25 26  2  0
 26 27  1  0
 27 28  2  0
 27 29  1  0
 29 30  1  0
 30 31  1  0
 31 32  1  0
 32 33  1  0
 26 34  1  0
 34 35  2  0
 22  2  1  0
 35 23  1  0
 20  9  1  0
 33 31  1  0
 19 14  1  0
M  END
>  <Compound_ID>  (254) 
CHEMBL476351

>  <Molecule Name>  (254) 
GW775608X

>  <Molecular Weight>  (254) 
470.57

>  <AlogP>  (254) 
4.29

>  <Smiles>  (254) 
Cc1ccc(NC(=O)c2ccnc(N3CCOCC3)c2)cc1-c1ccc(C(=O)NCC2CC2)cc1

>  <Standard Type>  (254) 
Inhibition

>  <Standard Relation>  (254) 
'='

>  <Standard Units>  (254) 
%

>  <Standard Value>  (254) 
4.85

>  <Assay ChEMBL ID>  (254) 
CHEMBL1962142

>  <Assay Description>  (254) 
GSK_PKIS: MET mean inhibition at 0.1 uM [Nanosyn]

>  <BAO Format ID>  (254) 
BAO_0000357

>  <BAO Label>  (254) 
single protein format

>  <Assay Organism>  (254) 
None

>  <Target ChEMBL ID>  (254) 
CHEMBL3717

>  <Target Name>  (254) 
Hepatocyte growth factor receptor

>  <Target Organism>  (254) 
Homo sapiens

>  <Target Type>  (254) 
SINGLE PROTEIN

>  <Document ChEMBL ID>  (254) 
CHEMBL1961873

>  <Source Description>  (254) 
GSK Published Kinase Inhibitor Set

>  <Document Journal>  (254) 
nan

>  <Document Year>  (254) 
nan

>  <Active>  (254) 
0.0

$$$$

     RDKit          2D

 29 32  0  0  0  0  0  0  0  0999 V2000
    3.0000    0.0000    0.0000 C   0  0  0  0  0  0  0  0  0  0  0  0
    1.5000    0.0000    0.0000 N   0  0  0  0  0  0  0  0  0  0  0  0
    0.7500   -1.2990    0.0000 C   0  0  0  0  0  0  0  0  0  0  0  0
   -0.7500   -1.2990    0.0000 C   0  0  0  0  0  0  0  0  0  0  0  0
   -1.5000    0.0000    0.0000 C   0  0  0  0  0  0  0  0  0  0  0  0
   -3.0000    0.0000    0.0000 N   0  0  0  0  0  0  0  0  0  0  0  0
   -3.8817   -1.2135    0.0000 C   0  0  0  0  0  0  0  0  0  0  0  0
   -5.3083   -0.7500    0.0000 N   0  0  0  0  0  0  0  0  0  0  0  0
   -5.3083    0.7500    0.0000 C   0  0  0  0  0  0  0  0  0  0  0  0
   -6.5218    1.6317    0.0000 C   0  0  0  0  0  0  0  0  0  0  0  0
   -6.3650    3.1235    0.0000 C   0  0  0  0  0  0  0  0  0  0  0  0
   -7.5785    4.0051    0.0000 C   0  0  0  0  0  0  0  0  0  0  0  0
   -8.9488    3.3950    0.0000 C   0  0  0  0  0  0  0  0  0  0  0  0
  -10.1624    4.2767    0.0000 F   0  0  0  0  0  0  0  0  0  0  0  0
   -9.1056    1.9033    0.0000 C   0  0  0  0  0  0  0  0  0  0  0  0
   -7.8921    1.0216    0.0000 C   0  0  0  0  0  0  0  0  0  0  0  0
   -3.8817    1.2135    0.0000 C   0  0  0  0  0  0  0  0  0  0  0  0
   -3.4182    2.6401    0.0000 C   0  0  0  0  0  0  0  0  0  0  0  0
   -1.9509    2.9520    0.0000 C   0  0  0  0  0  0  0  0  0  0  0  0
   -1.4874    4.3786    0.0000 C   0  0  0  0  0  0  0  0  0  0  0  0
   -2.4911    5.4933    0.0000 N   0  0  0  0  0  0  0  0  0  0  0  0
   -3.9583    5.1814    0.0000 C   0  0  0  0  0  0  0  0  0  0  0  0
   -4.9620    6.2961    0.0000 N   0  0  0  0  0  0  0  0  0  0  0  0
   -4.4985    7.7227    0.0000 C   0  0  0  0  0  0  0  0  0  0  0  0
   -5.5022    8.8374    0.0000 C   0  0  0  0  0  0  0  0  0  0  0  0
   -5.0387   10.2640    0.0000 O   0  0  0  0  0  0  0  0  0  0  0  0
   -4.4218    3.7548    0.0000 N   0  0  0  0  0  0  0  0  0  0  0  0
   -0.7500    1.2990    0.0000 C   0  0  0  0  0  0  0  0  0  0  0  0
    0.7500    1.2990    0.0000 C   0  0  0  0  0  0  0  0  0  0  0  0
  1  2  1  0
  2  3  1  0
  3  4  1  0
  4  5  1  0
  5  6  1  0
  6  7  1  0
  7  8  2  0
  8  9  1  0
  9 10  1  0
 10 11  2  0
 11 12  1  0
 12 13  2  0
 13 14  1  0
 13 15  1  0
 15 16  2  0
  9 17  2  0
 17 18  1  0
 18 19  2  0
 19 20  1  0
 20 21  2  0
 21 22  1  0
 22 23  1  0
 23 24  1  0
 24 25  1  0
 25 26  1  0
 22 27  2  0
  5 28  1  0
 28 29  1  0
 29  2  1  0
 17  6  1  0
 27 18  1  0
 16 10  1  0
M  END
>  <Compound_ID>  (255) 
CHEMBL330422

>  <Molecule Name>  (255) 
nan

>  <Molecular Weight>  (255) 
396.47

>  <AlogP>  (255) 
2.82

>  <Smiles>  (255) 
CN1CCC(n2cnc(-c3ccc(F)cc3)c2-c2ccnc(NCCO)n2)CC1

>  <Standard Type>  (255) 
Inhibition

>  <Standard Relation>  (255) 
'='

>  <Standard Units>  (255) 
%

>  <Standard Value>  (255) 
0.32

>  <Assay ChEMBL ID>  (255) 
CHEMBL1962142

>  <Assay Description>  (255) 
GSK_PKIS: MET mean inhibition at 0.1 uM [Nanosyn]

>  <BAO Format ID>  (255) 
BAO_0000357

>  <BAO Label>  (255) 
single protein format

>  <Assay Organism>  (255) 
None

>  <Target ChEMBL ID>  (255) 
CHEMBL3717

>  <Target Name>  (255) 
Hepatocyte growth factor receptor

>  <Target Organism>  (255) 
Homo sapiens

>  <Target Type>  (255) 
SINGLE PROTEIN

>  <Document ChEMBL ID>  (255) 
CHEMBL1961873

>  <Source Description>  (255) 
GSK Published Kinase Inhibitor Set

>  <Document Journal>  (255) 
nan

>  <Document Year>  (255) 
nan

>  <Active>  (255) 
0.0

$$$$

     RDKit          2D

 35 39  0  0  0  0  0  0  0  0999 V2000
   -3.9060   19.3525    0.0000 C   0  0  0  0  0  0  0  0  0  0  0  0
   -2.6925   18.4708    0.0000 C   0  0  0  0  0  0  0  0  0  0  0  0
   -2.6925   16.9708    0.0000 C   0  0  0  0  0  0  0  0  0  0  0  0
   -1.2659   16.5073    0.0000 N   0  0  0  0  0  0  0  0  0  0  0  0
   -0.8024   15.0807    0.0000 C   0  0  0  0  0  0  0  0  0  0  0  0
   -1.8060   13.9660    0.0000 C   0  0  0  0  0  0  0  0  0  0  0  0
   -1.3425   12.5394    0.0000 C   0  0  0  0  0  0  0  0  0  0  0  0
   -2.3462   11.4247    0.0000 N   0  0  0  0  0  0  0  0  0  0  0  0
   -1.8827    9.9981    0.0000 C   0  0  0  0  0  0  0  0  0  0  0  0
   -0.4155    9.6862    0.0000 O   0  0  0  0  0  0  0  0  0  0  0  0
   -2.8864    8.8834    0.0000 N   0  0  0  0  0  0  0  0  0  0  0  0
   -2.4229    7.4568    0.0000 C   0  0  0  0  0  0  0  0  0  0  0  0
   -3.4266    6.3421    0.0000 C   0  0  0  0  0  0  0  0  0  0  0  0
   -2.9630    4.9155    0.0000 C   0  0  0  0  0  0  0  0  0  0  0  0
   -1.4958    4.6036    0.0000 C   0  0  0  0  0  0  0  0  0  0  0  0
   -1.0323    3.1771    0.0000 C   0  0  0  0  0  0  0  0  0  0  0  0
    0.3943    2.7135    0.0000 N   0  0  0  0  0  0  0  0  0  0  0  0
    0.3943    1.2135    0.0000 C   0  0  0  0  0  0  0  0  0  0  0  0
    1.2760    0.0000    0.0000 N   0  0  0  0  0  0  0  0  0  0  0  0
    0.3943   -1.2135    0.0000 N   0  0  0  0  0  0  0  0  0  0  0  0
   -1.0323   -0.7500    0.0000 C   0  0  0  0  0  0  0  0  0  0  0  0
   -1.0323    0.7500    0.0000 C   0  0  0  0  0  0  0  0  0  0  0  0
   -1.9140    1.9635    0.0000 N   0  0  0  0  0  0  0  0  0  0  0  0
   -0.4921    5.7184    0.0000 C   0  0  0  0  0  0  0  0  0  0  0  0
    0.9751    5.4065    0.0000 C   0  0  0  0  0  0  0  0  0  0  0  0
   -0.9556    7.1449    0.0000 C   0  0  0  0  0  0  0  0  0  0  0  0
    0.1247   12.2275    0.0000 C   0  0  0  0  0  0  0  0  0  0  0  0
    1.1284   13.3423    0.0000 C   0  0  0  0  0  0  0  0  0  0  0  0
    2.5956   13.0304    0.0000 C   0  0  0  0  0  0  0  0  0  0  0  0
    4.0628   12.7185    0.0000 F   0  0  0  0  0  0  0  0  0  0  0  0
    2.2837   11.5632    0.0000 F   0  0  0  0  0  0  0  0  0  0  0  0
    2.9075   14.4976    0.0000 F   0  0  0  0  0  0  0  0  0  0  0  0
    0.6649   14.7688    0.0000 C   0  0  0  0  0  0  0  0  0  0  0  0
   -0.3842   17.7208    0.0000 C   0  0  0  0  0  0  0  0  0  0  0  0
   -1.2659   18.9343    0.0000 N   0  0  0  0  0  0  0  0  0  0  0  0
  1  2  1  0
  2  3  2  0
  3  4  1  0
  4  5  1  0
  5  6  2  0
  6  7  1  0
  7  8  1  0
  8  9  1  0
  9 10  2  0
  9 11  1  0
 11 12  1  0
 12 13  2  0
 13 14  1  0
 14 15  2  0
 15 16  1  0
 16 17  2  0
 17 18  1  0
 18 19  1  0
 19 20  1  0
 20 21  2  0
 21 22  1  0
 22 23  1  0
 15 24  1  0
 24 25  1  0
 24 26  2  0
  7 27  2  0
 27 28  1  0
 28 29  1  0
 29 30  1  0
 29 31  1  0
 29 32  1  0
 28 33  2  0
  4 34  1  0
 34 35  2  0
 35  2  1  0
 33  5  1  0
 26 12  1  0
 23 16  1  0
 22 18  2  0
M  END
>  <Compound_ID>  (256) 
CHEMBL1084036

>  <Molecule Name>  (256) 
nan

>  <Molecular Weight>  (256) 
480.45

>  <AlogP>  (256) 
5.42

>  <Smiles>  (256) 
Cc1cn(-c2cc(NC(=O)Nc3ccc(-c4nc5[nH]ncc5[nH]4)c(C)c3)cc(C(F)(F)F)c2)cn1

>  <Standard Type>  (256) 
Inhibition

>  <Standard Relation>  (256) 
'='

>  <Standard Units>  (256) 
%

>  <Standard Value>  (256) 
0.0

>  <Assay ChEMBL ID>  (256) 
CHEMBL1119366

>  <Assay Description>  (256) 
Inhibition of human Met

>  <BAO Format ID>  (256) 
BAO_0000357

>  <BAO Label>  (256) 
single protein format

>  <Assay Organism>  (256) 
Homo sapiens

>  <Target ChEMBL ID>  (256) 
CHEMBL3717

>  <Target Name>  (256) 
Hepatocyte growth factor receptor

>  <Target Organism>  (256) 
Homo sapiens

>  <Target Type>  (256) 
SINGLE PROTEIN

>  <Document ChEMBL ID>  (256) 
CHEMBL1155528

>  <Source Description>  (256) 
Scientific Literature

>  <Document Journal>  (256) 
Bioorg Med Chem Lett

>  <Document Year>  (256) 
2010.0

>  <Active>  (256) 
0.0

$$$$

     RDKit          2D

 30 33  0  0  0  0  0  0  0  0999 V2000
   -5.4933   -4.1162    0.0000 O   0  0  0  0  0  0  0  0  0  0  0  0
   -4.3786   -5.1199    0.0000 C   0  0  0  0  0  0  0  0  0  0  0  0
   -2.9520   -4.6564    0.0000 N   0  0  0  0  0  0  0  0  0  0  0  0
   -2.6401   -3.1891    0.0000 N   0  0  0  0  0  0  0  0  0  0  0  0
   -1.2135   -2.7256    0.0000 C   0  0  0  0  0  0  0  0  0  0  0  0
   -0.0000   -3.6073    0.0000 C   0  0  0  0  0  0  0  0  0  0  0  0
    0.0000   -5.1073    0.0000 O   0  0  0  0  0  0  0  0  0  0  0  0
    1.2135   -2.7256    0.0000 N   0  0  0  0  0  0  0  0  0  0  0  0
    2.6401   -3.1891    0.0000 C   0  0  0  0  0  0  0  0  0  0  0  0
    2.9520   -4.6564    0.0000 C   0  0  0  0  0  0  0  0  0  0  0  0
    1.8373   -5.6601    0.0000 C   0  0  0  0  0  0  0  0  0  0  0  0
    2.1491   -7.1273    0.0000 C   0  0  0  0  0  0  0  0  0  0  0  0
    3.5757   -7.5908    0.0000 C   0  0  0  0  0  0  0  0  0  0  0  0
    4.6904   -6.5871    0.0000 C   0  0  0  0  0  0  0  0  0  0  0  0
    4.3786   -5.1199    0.0000 C   0  0  0  0  0  0  0  0  0  0  0  0
    0.7500   -1.2990    0.0000 C   0  0  0  0  0  0  0  0  0  0  0  0
    1.5000    0.0000    0.0000 C   0  0  0  0  0  0  0  0  0  0  0  0
    0.7500    1.2990    0.0000 C   0  0  0  0  0  0  0  0  0  0  0  0
   -0.7500    1.2990    0.0000 C   0  0  0  0  0  0  0  0  0  0  0  0
   -1.5000    0.0000    0.0000 C   0  0  0  0  0  0  0  0  0  0  0  0
   -0.7500   -1.2990    0.0000 C   0  0  0  0  0  0  0  0  0  0  0  0
   -4.6904   -6.5871    0.0000 C   0  0  0  0  0  0  0  0  0  0  0  0
   -6.1170   -7.0506    0.0000 C   0  0  0  0  0  0  0  0  0  0  0  0
   -6.4289   -8.5179    0.0000 C   0  0  0  0  0  0  0  0  0  0  0  0
   -5.3142   -9.5216    0.0000 C   0  0  0  0  0  0  0  0  0  0  0  0
   -5.6260  -10.9888    0.0000 N   0  0  0  0  0  4  0  0  0  0  0  0
   -4.5113  -11.9925    0.0000 O   0  0  0  0  0  0  0  0  0  0  0  0
   -7.0526  -11.4523    0.0000 O   0  0  0  0  0  1  0  0  0  0  0  0
   -3.8876   -9.0580    0.0000 C   0  0  0  0  0  0  0  0  0  0  0  0
   -3.5757   -7.5908    0.0000 C   0  0  0  0  0  0  0  0  0  0  0  0
  1  2  2  0
  2  3  1  0
  3  4  1  0
  4  5  2  0
  5  6  1  0
  6  7  2  0
  6  8  1  0
  8  9  1  0
  9 10  1  0
 10 11  2  0
 11 12  1  0
 12 13  2  0
 13 14  1  0
 14 15  2  0
  8 16  1  0
 16 17  2  0
 17 18  1  0
 18 19  2  0
 19 20  1  0
 20 21  2  0
  2 22  1  0
 22 23  2  0
 23 24  1  0
 24 25  2  0
 25 26  1  0
 26 27  2  0
 26 28  1  0
 25 29  1  0
 29 30  2  0
 21  5  1  0
 30 22  1  0
 15 10  1  0
 21 16  1  0
M  CHG  2  26   1  28  -1
M  END
>  <Compound_ID>  (257) 
CHEMBL1779084

>  <Molecule Name>  (257) 
nan

>  <Molecular Weight>  (257) 
400.39

>  <AlogP>  (257) 
3.28

>  <Smiles>  (257) 
O=C(N/N=C1\C(=O)N(Cc2ccccc2)c2ccccc21)c1ccc([N+](=O)[O-])cc1

>  <Standard Type>  (257) 
Inhibition

>  <Standard Relation>  (257) 
'='

>  <Standard Units>  (257) 
%

>  <Standard Value>  (257) 
3.9

>  <Assay ChEMBL ID>  (257) 
CHEMBL1781430

>  <Assay Description>  (257) 
Inhibition of purified c-Met using poly(glu,tyr) as substrate at 10 uM after 60 mins by ELISA

>  <BAO Format ID>  (257) 
BAO_0000357

>  <BAO Label>  (257) 
single protein format

>  <Assay Organism>  (257) 
None

>  <Target ChEMBL ID>  (257) 
CHEMBL3717

>  <Target Name>  (257) 
Hepatocyte growth factor receptor

>  <Target Organism>  (257) 
Homo sapiens

>  <Target Type>  (257) 
SINGLE PROTEIN

>  <Document ChEMBL ID>  (257) 
CHEMBL1777704

>  <Source Description>  (257) 
Scientific Literature

>  <Document Journal>  (257) 
Bioorg Med Chem Lett

>  <Document Year>  (257) 
2011.0

>  <Active>  (257) 
0.0

$$$$

     RDKit          2D

 40 45  0  0  0  0  0  0  0  0999 V2000
    7.5000   -5.1962    0.0000 O   0  0  0  0  0  0  0  0  0  0  0  0
    8.2500   -3.8971    0.0000 C   0  0  0  0  0  0  0  0  0  0  0  0
    7.5000   -2.5981    0.0000 N   0  0  0  0  0  0  0  0  0  0  0  0
    6.0000   -2.5981    0.0000 C   0  0  0  0  0  0  0  0  0  0  0  0
    5.2500   -1.2990    0.0000 C   0  0  0  0  0  0  0  0  0  0  0  0
    3.7500   -1.2990    0.0000 C   0  0  0  0  0  0  0  0  0  0  0  0
    3.0000   -2.5981    0.0000 C   0  0  0  0  0  0  0  0  0  0  0  0
    1.5000   -2.5981    0.0000 O   0  0  0  0  0  0  0  0  0  0  0  0
    0.7500   -1.2990    0.0000 C   0  0  0  0  0  0  0  0  0  0  0  0
    1.5000    0.0000    0.0000 N   0  0  0  0  0  0  0  0  0  0  0  0
    0.7500    1.2990    0.0000 C   0  0  0  0  0  0  0  0  0  0  0  0
   -0.7500    1.2990    0.0000 N   0  0  0  0  0  0  0  0  0  0  0  0
   -1.5000    0.0000    0.0000 C   0  0  0  0  0  0  0  0  0  0  0  0
   -2.9672   -0.3119    0.0000 S   0  0  0  0  0  0  0  0  0  0  0  0
   -3.1240   -1.8037    0.0000 C   0  0  0  0  0  0  0  0  0  0  0  0
   -4.4231   -2.5537    0.0000 C   0  0  0  0  0  0  0  0  0  0  0  0
   -5.7221   -1.8037    0.0000 C   0  0  0  0  0  0  0  0  0  0  0  0
   -7.0211   -2.5537    0.0000 C   0  0  0  0  0  0  0  0  0  0  0  0
   -7.0211   -4.0537    0.0000 C   0  0  0  0  0  0  0  0  0  0  0  0
   -5.7221   -4.8037    0.0000 C   0  0  0  0  0  0  0  0  0  0  0  0
   -4.4231   -4.0537    0.0000 C   0  0  0  0  0  0  0  0  0  0  0  0
   -1.7537   -2.4138    0.0000 C   0  0  0  0  0  0  0  0  0  0  0  0
   -0.7500   -1.2990    0.0000 C   0  0  0  0  0  0  0  0  0  0  0  0
    3.7500   -3.8971    0.0000 C   0  0  0  0  0  0  0  0  0  0  0  0
    3.0000   -5.1962    0.0000 F   0  0  0  0  0  0  0  0  0  0  0  0
    5.2500   -3.8971    0.0000 C   0  0  0  0  0  0  0  0  0  0  0  0
    9.7500   -3.8971    0.0000 C   0  0  0  0  0  0  0  0  0  0  0  0
   10.5000   -5.1962    0.0000 C   0  0  0  0  0  0  0  0  0  0  0  0
   12.0000   -5.1962    0.0000 C   0  0  0  0  0  0  0  0  0  0  0  0
   12.7500   -3.8971    0.0000 C   0  0  0  0  0  0  0  0  0  0  0  0
   12.0000   -2.5981    0.0000 N   0  0  0  0  0  0  0  0  0  0  0  0
   12.7500   -1.2990    0.0000 C   0  0  0  0  0  0  0  0  0  0  0  0
   14.2500   -1.2990    0.0000 C   0  0  0  0  0  0  0  0  0  0  0  0
   15.0000   -0.0000    0.0000 C   0  0  0  0  0  0  0  0  0  0  0  0
   14.2500    1.2990    0.0000 C   0  0  0  0  0  0  0  0  0  0  0  0
   15.0000    2.5981    0.0000 F   0  0  0  0  0  0  0  0  0  0  0  0
   12.7500    1.2990    0.0000 C   0  0  0  0  0  0  0  0  0  0  0  0
   12.0000   -0.0000    0.0000 C   0  0  0  0  0  0  0  0  0  0  0  0
   10.5000   -2.5981    0.0000 C   0  0  0  0  0  0  0  0  0  0  0  0
    9.7500   -1.2990    0.0000 O   0  0  0  0  0  0  0  0  0  0  0  0
  1  2  2  0
  2  3  1  0
  3  4  1  0
  4  5  2  0
  5  6  1  0
  6  7  2  0
  7  8  1  0
  8  9  1  0
  9 10  2  0
 10 11  1  0
 11 12  2  0
 12 13  1  0
 13 14  1  0
 14 15  1  0
 15 16  1  0
 16 17  2  0
 17 18  1  0
 18 19  2  0
 19 20  1  0
 20 21  2  0
 15 22  2  0
 22 23  1  0
  7 24  1  0
 24 25  1  0
 24 26  2  0
  2 27  1  0
 27 28  2  0
 28 29  1  0
 29 30  2  0
 30 31  1  0
 31 32  1  0
 32 33  2  0
 33 34  1  0
 34 35  2  0
 35 36  1  0
 35 37  1  0
 37 38  2  0
 31 39  1  0
 39 40  2  0
 26  4  1  0
 39 27  1  0
 23  9  1  0
 38 32  1  0
 23 13  2  0
 21 16  1  0
M  END
>  <Compound_ID>  (258) 
CHEMBL1813641

>  <Molecule Name>  (258) 
nan

>  <Molecular Weight>  (258) 
552.56

>  <AlogP>  (258) 
6.83

>  <Smiles>  (258) 
O=C(Nc1ccc(Oc2ncnc3sc(-c4ccccc4)cc23)c(F)c1)c1cccn(-c2ccc(F)cc2)c1=O

>  <Standard Type>  (258) 
Inhibition

>  <Standard Relation>  (258) 
'='

>  <Standard Units>  (258) 
%

>  <Standard Value>  (258) 
10.6

>  <Assay ChEMBL ID>  (258) 
CHEMBL1816160

>  <Assay Description>  (258) 
Inhibition of c-Met at 10 uM after 60 mins by ELISA

>  <BAO Format ID>  (258) 
BAO_0000357

>  <BAO Label>  (258) 
single protein format

>  <Assay Organism>  (258) 
None

>  <Target ChEMBL ID>  (258) 
CHEMBL3717

>  <Target Name>  (258) 
Hepatocyte growth factor receptor

>  <Target Organism>  (258) 
Homo sapiens

>  <Target Type>  (258) 
SINGLE PROTEIN

>  <Document ChEMBL ID>  (258) 
CHEMBL1811756

>  <Source Description>  (258) 
Scientific Literature

>  <Document Journal>  (258) 
Bioorg Med Chem

>  <Document Year>  (258) 
2011.0

>  <Active>  (258) 
0.0

$$$$

     RDKit          2D

 34 38  0  0  0  0  0  0  0  0999 V2000
   -6.2940    7.2357    0.0000 O   0  0  0  0  0  0  0  0  0  0  0  0
   -7.7206    6.7722    0.0000 C   0  0  0  0  0  0  0  0  0  0  0  0
   -8.0325    5.3050    0.0000 N   0  0  0  0  0  0  0  0  0  0  0  0
   -6.9177    4.3013    0.0000 C   0  0  0  0  0  0  0  0  0  0  0  0
   -7.2296    2.8340    0.0000 C   0  0  0  0  0  0  0  0  0  0  0  0
   -6.1149    1.8303    0.0000 C   0  0  0  0  0  0  0  0  0  0  0  0
   -4.6883    2.2939    0.0000 C   0  0  0  0  0  0  0  0  0  0  0  0
   -3.5736    1.2902    0.0000 O   0  0  0  0  0  0  0  0  0  0  0  0
   -2.1470    1.7537    0.0000 C   0  0  0  0  0  0  0  0  0  0  0  0
   -1.8351    3.2209    0.0000 N   0  0  0  0  0  0  0  0  0  0  0  0
   -0.4086    3.6844    0.0000 C   0  0  0  0  0  0  0  0  0  0  0  0
    0.7062    2.6807    0.0000 N   0  0  0  0  0  0  0  0  0  0  0  0
    0.3943    1.2135    0.0000 C   0  0  0  0  0  0  0  0  0  0  0  0
    1.2760    0.0000    0.0000 S   0  0  0  0  0  0  0  0  0  0  0  0
    0.3943   -1.2135    0.0000 C   0  0  0  0  0  0  0  0  0  0  0  0
   -1.0323   -0.7500    0.0000 C   0  0  0  0  0  0  0  0  0  0  0  0
   -1.0323    0.7500    0.0000 C   0  0  0  0  0  0  0  0  0  0  0  0
   -4.3764    3.7611    0.0000 C   0  0  0  0  0  0  0  0  0  0  0  0
   -2.9499    4.2246    0.0000 F   0  0  0  0  0  0  0  0  0  0  0  0
   -5.4912    4.7648    0.0000 C   0  0  0  0  0  0  0  0  0  0  0  0
   -8.8353    7.7759    0.0000 C   0  0  0  0  0  0  0  0  0  0  0  0
   -8.5234    9.2431    0.0000 C   0  0  0  0  0  0  0  0  0  0  0  0
   -9.6382   10.2468    0.0000 C   0  0  0  0  0  0  0  0  0  0  0  0
  -11.0647    9.7833    0.0000 C   0  0  0  0  0  0  0  0  0  0  0  0
  -11.3766    8.3160    0.0000 N   0  0  0  0  0  0  0  0  0  0  0  0
  -12.8032    7.8525    0.0000 C   0  0  0  0  0  0  0  0  0  0  0  0
  -13.9179    8.8562    0.0000 C   0  0  0  0  0  0  0  0  0  0  0  0
  -15.3445    8.3927    0.0000 C   0  0  0  0  0  0  0  0  0  0  0  0
  -15.6564    6.9255    0.0000 C   0  0  0  0  0  0  0  0  0  0  0  0
  -17.0829    6.4619    0.0000 F   0  0  0  0  0  0  0  0  0  0  0  0
  -14.5416    5.9218    0.0000 C   0  0  0  0  0  0  0  0  0  0  0  0
  -13.1151    6.3853    0.0000 C   0  0  0  0  0  0  0  0  0  0  0  0
  -10.2619    7.3123    0.0000 C   0  0  0  0  0  0  0  0  0  0  0  0
  -10.5738    5.8451    0.0000 O   0  0  0  0  0  0  0  0  0  0  0  0
  1  2  2  0
  2  3  1  0
  3  4  1  0
  4  5  2  0
  5  6  1  0
  6  7  2  0
  7  8  1  0
  8  9  1  0
  9 10  2  0
 10 11  1  0
 11 12  2  0
 12 13  1  0
 13 14  1  0
 14 15  1  0
 15 16  2  0
 16 17  1  0
  7 18  1  0
 18 19  1  0
 18 20  2  0
  2 21  1  0
 21 22  2  0
 22 23  1  0
 23 24  2  0
 24 25  1  0
 25 26  1  0
 26 27  2  0
 27 28  1  0
 28 29  2  0
 29 30  1  0
 29 31  1  0
 31 32  2  0
 25 33  1  0
 33 34  2  0
 20  4  1  0
 33 21  1  0
 17  9  1  0
 32 26  1  0
 17 13  2  0
M  END
>  <Compound_ID>  (259) 
CHEMBL1813631

>  <Molecule Name>  (259) 
nan

>  <Molecular Weight>  (259) 
476.46

>  <AlogP>  (259) 
5.17

>  <Smiles>  (259) 
O=C(Nc1ccc(Oc2ncnc3sccc23)c(F)c1)c1cccn(-c2ccc(F)cc2)c1=O

>  <Standard Type>  (259) 
Inhibition

>  <Standard Relation>  (259) 
'='

>  <Standard Units>  (259) 
%

>  <Standard Value>  (259) 
14.3

>  <Assay ChEMBL ID>  (259) 
CHEMBL1816160

>  <Assay Description>  (259) 
Inhibition of c-Met at 10 uM after 60 mins by ELISA

>  <BAO Format ID>  (259) 
BAO_0000357

>  <BAO Label>  (259) 
single protein format

>  <Assay Organism>  (259) 
None

>  <Target ChEMBL ID>  (259) 
CHEMBL3717

>  <Target Name>  (259) 
Hepatocyte growth factor receptor

>  <Target Organism>  (259) 
Homo sapiens

>  <Target Type>  (259) 
SINGLE PROTEIN

>  <Document ChEMBL ID>  (259) 
CHEMBL1811756

>  <Source Description>  (259) 
Scientific Literature

>  <Document Journal>  (259) 
Bioorg Med Chem

>  <Document Year>  (259) 
2011.0

>  <Active>  (259) 
0.0

$$$$

     RDKit          2D

 35 39  0  0  0  0  0  0  0  0999 V2000
    3.7500   -1.2990    0.0000 C   0  0  0  0  0  0  0  0  0  0  0  0
    3.0000    0.0000    0.0000 O   0  0  0  0  0  0  0  0  0  0  0  0
    1.5000    0.0000    0.0000 C   0  0  0  0  0  0  0  0  0  0  0  0
    0.7500   -1.2990    0.0000 C   0  0  0  0  0  0  0  0  0  0  0  0
   -0.7500   -1.2990    0.0000 C   0  0  0  0  0  0  0  0  0  0  0  0
   -1.5000    0.0000    0.0000 C   0  0  0  0  0  0  0  0  0  0  0  0
   -3.0000    0.0000    0.0000 C   0  0  0  0  0  0  0  0  0  0  0  0
   -3.7500    1.2990    0.0000 C   0  0  0  0  0  0  0  0  0  0  0  0
   -5.2500    1.2990    0.0000 C   0  0  0  0  0  0  0  0  0  0  0  0
   -6.1317    0.0855    0.0000 C   0  0  0  0  0  0  0  0  0  0  0  0
   -5.6682   -1.3411    0.0000 C   0  0  0  0  0  0  0  0  0  0  0  0
   -6.6718   -2.4558    0.0000 C   0  0  0  0  0  0  0  0  0  0  0  0
   -6.2083   -3.8824    0.0000 C   0  0  0  0  0  0  0  0  0  0  0  0
   -4.7411   -4.1942    0.0000 N   0  0  0  0  0  0  0  0  0  0  0  0
   -3.7374   -3.0795    0.0000 C   0  0  0  0  0  0  0  0  0  0  0  0
   -4.2009   -1.6529    0.0000 C   0  0  0  0  0  0  0  0  0  0  0  0
   -7.5583    0.5490    0.0000 N   0  0  0  0  0  0  0  0  0  0  0  0
   -7.5583    2.0490    0.0000 C   0  0  0  0  0  0  0  0  0  0  0  0
   -8.7718    2.9307    0.0000 C   0  0  0  0  0  0  0  0  0  0  0  0
   -8.6150    4.4225    0.0000 C   0  0  0  0  0  0  0  0  0  0  0  0
   -9.8285    5.3042    0.0000 C   0  0  0  0  0  0  0  0  0  0  0  0
  -11.1988    4.6941    0.0000 C   0  0  0  0  0  0  0  0  0  0  0  0
  -12.4124    5.5757    0.0000 S   0  0  0  0  0  0  0  0  0  0  0  0
  -13.6259    6.4574    0.0000 C   0  0  0  0  0  0  0  0  0  0  0  0
  -13.2940    4.3622    0.0000 O   0  0  0  0  0  0  0  0  0  0  0  0
  -11.5307    6.7893    0.0000 O   0  0  0  0  0  0  0  0  0  0  0  0
  -11.3556    3.2023    0.0000 C   0  0  0  0  0  0  0  0  0  0  0  0
  -10.1421    2.3206    0.0000 C   0  0  0  0  0  0  0  0  0  0  0  0
  -10.2989    0.8288    0.0000 C   0  0  0  0  0  0  0  0  0  0  0  0
   -6.1317    2.5126    0.0000 N   0  0  0  0  0  0  0  0  0  0  0  0
   -5.6682    3.9391    0.0000 C   0  0  0  0  0  0  0  0  0  0  0  0
   -3.0000    2.5981    0.0000 C   0  0  0  0  0  0  0  0  0  0  0  0
   -1.5000    2.5981    0.0000 C   0  0  0  0  0  0  0  0  0  0  0  0
   -0.7500    1.2990    0.0000 C   0  0  0  0  0  0  0  0  0  0  0  0
    0.7500    1.2990    0.0000 C   0  0  0  0  0  0  0  0  0  0  0  0
  1  2  1  0
  2  3  1  0
  3  4  2  0
  4  5  1  0
  5  6  2  0
  6  7  1  0
  7  8  2  0
  8  9  1  0
  9 10  2  0
 10 11  1  0
 11 12  2  0
 12 13  1  0
 13 14  2  0
 14 15  1  0
 15 16  2  0
 10 17  1  0
 17 18  2  0
 18 19  1  0
 19 20  2  0
 20 21  1  0
 21 22  2  0
 22 23  1  0
 23 24  1  0
 23 25  2  0
 23 26  2  0
 22 27  1  0
 27 28  2  0
 28 29  1  0
 18 30  1  0
 30 31  1  0
  8 32  1  0
 32 33  2  0
 33 34  1  0
 34 35  2  0
 35  3  1  0
 34  6  1  0
 30  9  1  0
 16 11  1  0
 28 19  1  0
M  END
>  <Compound_ID>  (260) 
CHEMBL237571

>  <Molecule Name>  (260) 
nan

>  <Molecular Weight>  (260) 
483.59

>  <AlogP>  (260) 
5.69

>  <Smiles>  (260) 
COc1ccc2cc(-c3c(-c4ccncc4)nc(-c4ccc(S(C)(=O)=O)cc4C)n3C)ccc2c1

>  <Standard Type>  (260) 
Inhibition

>  <Standard Relation>  (260) 
'='

>  <Standard Units>  (260) 
%

>  <Standard Value>  (260) 
2.55

>  <Assay ChEMBL ID>  (260) 
CHEMBL1962142

>  <Assay Description>  (260) 
GSK_PKIS: MET mean inhibition at 0.1 uM [Nanosyn]

>  <BAO Format ID>  (260) 
BAO_0000357

>  <BAO Label>  (260) 
single protein format

>  <Assay Organism>  (260) 
None

>  <Target ChEMBL ID>  (260) 
CHEMBL3717

>  <Target Name>  (260) 
Hepatocyte growth factor receptor

>  <Target Organism>  (260) 
Homo sapiens

>  <Target Type>  (260) 
SINGLE PROTEIN

>  <Document ChEMBL ID>  (260) 
CHEMBL1961873

>  <Source Description>  (260) 
GSK Published Kinase Inhibitor Set

>  <Document Journal>  (260) 
nan

>  <Document Year>  (260) 
nan

>  <Active>  (260) 
0.0

$$$$

     RDKit          2D

 34 39  0  0  0  0  0  0  0  0999 V2000
   -9.5663  -10.9485    0.0000 N   0  0  0  0  0  0  0  0  0  0  0  0
  -10.5700   -9.8338    0.0000 C   0  0  0  0  0  0  0  0  0  0  0  0
   -9.4553   -8.8301    0.0000 C   0  0  0  0  0  0  0  0  0  0  0  0
   -8.0287   -9.2936    0.0000 C   0  0  0  0  0  0  0  0  0  0  0  0
   -6.9140   -8.2899    0.0000 C   0  0  0  0  0  0  0  0  0  0  0  0
   -7.2258   -6.8227    0.0000 C   0  0  0  0  0  0  0  0  0  0  0  0
   -6.1111   -5.8190    0.0000 C   0  0  0  0  0  0  0  0  0  0  0  0
   -4.6845   -6.2825    0.0000 C   0  0  0  0  0  0  0  0  0  0  0  0
   -3.5698   -5.2788    0.0000 N   0  0  0  0  0  0  0  0  0  0  0  0
   -3.8817   -3.8116    0.0000 C   0  0  0  0  0  0  0  0  0  0  0  0
   -3.0000   -2.5981    0.0000 C   0  0  0  0  0  0  0  0  0  0  0  0
   -1.5000   -2.5981    0.0000 C   0  0  0  0  0  0  0  0  0  0  0  0
   -0.7500   -3.8971    0.0000 C   0  0  0  0  0  0  0  0  0  0  0  0
    0.7500   -3.8971    0.0000 C   0  0  0  0  0  0  0  0  0  0  0  0
    1.5000   -2.5981    0.0000 C   0  0  0  0  0  0  0  0  0  0  0  0
    3.0000   -2.5981    0.0000 S   0  0  0  0  0  0  0  0  0  0  0  0
    4.5000   -2.5981    0.0000 N   0  0  0  0  0  0  0  0  0  0  0  0
    3.0000   -4.0981    0.0000 O   0  0  0  0  0  0  0  0  0  0  0  0
    3.0000   -1.0981    0.0000 O   0  0  0  0  0  0  0  0  0  0  0  0
    0.7500   -1.2990    0.0000 C   0  0  0  0  0  0  0  0  0  0  0  0
    1.5000    0.0000    0.0000 C   0  0  0  0  0  0  0  0  0  0  0  0
    0.7500    1.2990    0.0000 C   0  0  0  0  0  0  0  0  0  0  0  0
   -0.7500    1.2990    0.0000 C   0  0  0  0  0  0  0  0  0  0  0  0
   -1.5000    0.0000    0.0000 C   0  0  0  0  0  0  0  0  0  0  0  0
   -0.7500   -1.2990    0.0000 C   0  0  0  0  0  0  0  0  0  0  0  0
   -3.8817   -1.3846    0.0000 C   0  0  0  0  0  0  0  0  0  0  0  0
   -5.3083   -1.8481    0.0000 N   0  0  0  0  0  0  0  0  0  0  0  0
   -5.3083   -3.3481    0.0000 N   0  0  0  0  0  0  0  0  0  0  0  0
   -6.4230   -4.3518    0.0000 C   0  0  0  0  0  0  0  0  0  0  0  0
   -8.6524   -6.3592    0.0000 C   0  0  0  0  0  0  0  0  0  0  0  0
   -9.7671   -7.3629    0.0000 C   0  0  0  0  0  0  0  0  0  0  0  0
  -11.5737   -8.7191    0.0000 C   0  0  0  0  0  0  0  0  0  0  0  0
  -12.6884   -9.7228    0.0000 C   0  0  0  0  0  0  0  0  0  0  0  0
  -11.6847  -10.8375    0.0000 C   0  0  0  0  0  0  0  0  0  0  0  0
  1  2  1  0
  2  3  1  0
  3  4  2  0
  4  5  1  0
  5  6  2  0
  6  7  1  0
  7  8  1  0
  8  9  2  0
  9 10  1  0
 10 11  2  0
 11 12  1  0
 12 13  2  0
 13 14  1  0
 14 15  2  0
 15 16  1  0
 16 17  1  0
 16 18  2  0
 16 19  2  0
 15 20  1  0
 20 21  2  0
 21 22  1  0
 22 23  2  0
 23 24  1  0
 24 25  2  0
 11 26  1  0
 26 27  2  0
 27 28  1  0
 28 29  1  0
  6 30  1  0
 30 31  2  0
  2 32  1  0
 32 33  1  0
 33 34  1  0
 34  2  1  0
 31  3  1  0
 29  7  2  0
 28 10  1  0
 25 12  1  0
 25 20  1  0
M  END
>  <Compound_ID>  (261) 
CHEMBL4278763

>  <Molecule Name>  (261) 
nan

>  <Molecular Weight>  (261) 
469.57

>  <AlogP>  (261) 
4.20

>  <Smiles>  (261) 
NC1(c2ccc(-c3cnc4c(-c5ccc(S(N)(=O)=O)c6ccccc56)cnn4c3)cc2)CCC1

>  <Standard Type>  (261) 
Inhibition

>  <Standard Relation>  (261) 
'='

>  <Standard Units>  (261) 
%

>  <Standard Value>  (261) 
9.0

>  <Assay ChEMBL ID>  (261) 
CHEMBL4263862

>  <Assay Description>  (261) 
Inhibition of MET (unknown origin) at 1 uM relative to control

>  <BAO Format ID>  (261) 
BAO_0000357

>  <BAO Label>  (261) 
single protein format

>  <Assay Organism>  (261) 
Homo sapiens

>  <Target ChEMBL ID>  (261) 
CHEMBL3717

>  <Target Name>  (261) 
Hepatocyte growth factor receptor

>  <Target Organism>  (261) 
Homo sapiens

>  <Target Type>  (261) 
SINGLE PROTEIN

>  <Document ChEMBL ID>  (261) 
CHEMBL4261595

>  <Source Description>  (261) 
Scientific Literature

>  <Document Journal>  (261) 
Bioorg Med Chem Lett

>  <Document Year>  (261) 
2018.0

>  <Active>  (261) 
0.0

$$$$

     RDKit          2D

 20 23  0  0  0  0  0  0  0  0999 V2000
    3.0000   -7.7942    0.0000 C   0  0  0  0  0  0  0  0  0  0  0  0
    2.2500   -6.4952    0.0000 N   0  0  0  0  0  0  0  0  0  0  0  0
    3.0000   -5.1962    0.0000 C   0  0  0  0  0  0  0  0  0  0  0  0
    2.2500   -3.8971    0.0000 N   0  0  0  0  0  0  0  0  0  0  0  0
    3.0000   -2.5981    0.0000 C   0  0  0  0  0  0  0  0  0  0  0  0
    2.2500   -1.2990    0.0000 C   0  0  0  0  0  0  0  0  0  0  0  0
    0.7500   -1.2990    0.0000 C   0  0  0  0  0  0  0  0  0  0  0  0
    1.5000    0.0000    0.0000 C   0  0  0  0  0  0  0  0  0  0  0  0
    0.7500    1.2990    0.0000 C   0  0  0  0  0  0  0  0  0  0  0  0
   -0.7500    1.2990    0.0000 C   0  0  0  0  0  0  0  0  0  0  0  0
   -1.5000    0.0000    0.0000 O   0  0  0  0  0  0  0  0  0  0  0  0
   -0.7500   -1.2990    0.0000 C   0  0  0  0  0  0  0  0  0  0  0  0
   -0.0000   -2.5981    0.0000 C   0  0  0  0  0  0  0  0  0  0  0  0
    0.7500   -3.8971    0.0000 C   0  0  0  0  0  0  0  0  0  0  0  0
    4.5000   -5.1962    0.0000 C   0  0  0  0  0  0  0  0  0  0  0  0
    5.5037   -4.0814    0.0000 N   0  0  0  0  0  0  0  0  0  0  0  0
    6.8740   -4.6915    0.0000 C   0  0  0  0  0  0  0  0  0  0  0  0
    6.7172   -6.1833    0.0000 N   0  0  0  0  0  0  0  0  0  0  0  0
    5.2500   -6.4952    0.0000 C   0  0  0  0  0  0  0  0  0  0  0  0
    4.5000   -7.7942    0.0000 N   0  0  0  0  0  0  0  0  0  0  0  0
  1  2  2  0
  2  3  1  0
  3  4  1  0
  4  5  1  0
  5  6  1  0
  6  7  1  0
  7  8  1  0
  8  9  1  0
  9 10  1  0
 10 11  1  0
 11 12  1  0
  7 13  1  0
 13 14  1  0
  3 15  2  0
 15 16  1  0
 16 17  2  0
 17 18  1  0
 18 19  1  0
 19 20  2  0
 20  1  1  0
 14  4  1  0
 19 15  1  0
 12  7  1  0
M  END
>  <Compound_ID>  (262) 
CHEMBL2420926

>  <Molecule Name>  (262) 
nan

>  <Molecular Weight>  (262) 
273.34

>  <AlogP>  (262) 
1.75

>  <Smiles>  (262) 
c1nc(N2CCC3(CCCOC3)CC2)c2nc[nH]c2n1

>  <Standard Type>  (262) 
Inhibition

>  <Standard Relation>  (262) 
'='

>  <Standard Units>  (262) 
%

>  <Standard Value>  (262) 
4.0

>  <Assay ChEMBL ID>  (262) 
CHEMBL2424318

>  <Assay Description>  (262) 
Inhibition of MET (unknown origin) at 30 uM by microfluidic mobility shift assay relative to control

>  <BAO Format ID>  (262) 
BAO_0000357

>  <BAO Label>  (262) 
single protein format

>  <Assay Organism>  (262) 
Homo sapiens

>  <Target ChEMBL ID>  (262) 
CHEMBL3717

>  <Target Name>  (262) 
Hepatocyte growth factor receptor

>  <Target Organism>  (262) 
Homo sapiens

>  <Target Type>  (262) 
SINGLE PROTEIN

>  <Document ChEMBL ID>  (262) 
CHEMBL2417369

>  <Source Description>  (262) 
Scientific Literature

>  <Document Journal>  (262) 
Bioorg Med Chem

>  <Document Year>  (262) 
2013.0

>  <Active>  (262) 
0.0

$$$$

     RDKit          2D

 23 26  0  0  0  0  0  0  0  0999 V2000
   -3.0000   -4.0981    0.0000 O   0  0  0  0  0  0  0  0  0  0  0  0
   -3.0000   -2.5981    0.0000 S   0  0  0  0  0  0  0  0  0  0  0  0
   -3.0000   -1.0981    0.0000 O   0  0  0  0  0  0  0  0  0  0  0  0
   -1.5000   -2.5981    0.0000 C   0  0  0  0  0  0  0  0  0  0  0  0
   -0.7500   -3.8971    0.0000 C   0  0  0  0  0  0  0  0  0  0  0  0
    0.7500   -3.8971    0.0000 C   0  0  0  0  0  0  0  0  0  0  0  0
    1.5000   -2.5981    0.0000 C   0  0  0  0  0  0  0  0  0  0  0  0
    0.7500   -1.2990    0.0000 C   0  0  0  0  0  0  0  0  0  0  0  0
    1.5000    0.0000    0.0000 C   0  0  0  0  0  0  0  0  0  0  0  0
    0.7500    1.2990    0.0000 N   0  0  0  0  0  0  0  0  0  0  0  0
   -0.7500    1.2990    0.0000 C   0  0  0  0  0  0  0  0  0  0  0  0
   -1.5000    0.0000    0.0000 C   0  0  0  0  0  0  0  0  0  0  0  0
   -0.7500   -1.2990    0.0000 C   0  0  0  0  0  0  0  0  0  0  0  0
   -4.5000   -2.5981    0.0000 N   0  0  0  0  0  0  0  0  0  0  0  0
   -5.2500   -1.2990    0.0000 C   0  0  0  0  0  0  0  0  0  0  0  0
   -6.7500   -1.2990    0.0000 C   0  0  0  0  0  0  0  0  0  0  0  0
   -7.5000   -2.5981    0.0000 C   0  0  0  0  0  0  0  0  0  0  0  0
   -8.3817   -3.8116    0.0000 C   0  0  0  0  0  0  0  0  0  0  0  0
   -9.8083   -3.3481    0.0000 C   0  0  0  0  0  0  0  0  0  0  0  0
   -9.8083   -1.8481    0.0000 N   0  0  0  0  0  0  0  0  0  0  0  0
   -8.3817   -1.3846    0.0000 C   0  0  0  0  0  0  0  0  0  0  0  0
   -6.7500   -3.8971    0.0000 C   0  0  0  0  0  0  0  0  0  0  0  0
   -5.2500   -3.8971    0.0000 C   0  0  0  0  0  0  0  0  0  0  0  0
  1  2  2  0
  2  3  2  0
  2  4  1  0
  4  5  2  0
  5  6  1  0
  6  7  2  0
  7  8  1  0
  8  9  2  0
  9 10  1  0
 10 11  2  0
 11 12  1  0
 12 13  2  0
  2 14  1  0
 14 15  1  0
 15 16  1  0
 16 17  1  0
 17 18  1  0
 18 19  1  0
 19 20  1  0
 20 21  1  0
 17 22  1  0
 22 23  1  0
 13  4  1  0
 23 14  1  0
 13  8  1  0
 21 17  1  0
M  END
>  <Compound_ID>  (263) 
CHEMBL2420920

>  <Molecule Name>  (263) 
nan

>  <Molecular Weight>  (263) 
331.44

>  <AlogP>  (263) 
2.00

>  <Smiles>  (263) 
O=S(=O)(c1cccc2cnccc12)N1CCC2(CCNC2)CC1

>  <Standard Type>  (263) 
Inhibition

>  <Standard Relation>  (263) 
'='

>  <Standard Units>  (263) 
%

>  <Standard Value>  (263) 
7.0

>  <Assay ChEMBL ID>  (263) 
CHEMBL2424318

>  <Assay Description>  (263) 
Inhibition of MET (unknown origin) at 30 uM by microfluidic mobility shift assay relative to control

>  <BAO Format ID>  (263) 
BAO_0000357

>  <BAO Label>  (263) 
single protein format

>  <Assay Organism>  (263) 
Homo sapiens

>  <Target ChEMBL ID>  (263) 
CHEMBL3717

>  <Target Name>  (263) 
Hepatocyte growth factor receptor

>  <Target Organism>  (263) 
Homo sapiens

>  <Target Type>  (263) 
SINGLE PROTEIN

>  <Document ChEMBL ID>  (263) 
CHEMBL2417369

>  <Source Description>  (263) 
Scientific Literature

>  <Document Journal>  (263) 
Bioorg Med Chem

>  <Document Year>  (263) 
2013.0

>  <Active>  (263) 
0.0

$$$$

     RDKit          2D

 26 28  0  0  0  0  0  0  0  0999 V2000
   -5.6260  -10.9888    0.0000 C   0  0  0  0  0  0  0  0  0  0  0  0
   -4.1994  -10.5253    0.0000 O   0  0  0  0  0  0  0  0  0  0  0  0
   -3.8876   -9.0580    0.0000 C   0  0  0  0  0  0  0  0  0  0  0  0
   -5.0023   -8.0543    0.0000 C   0  0  0  0  0  0  0  0  0  0  0  0
   -4.6904   -6.5871    0.0000 C   0  0  0  0  0  0  0  0  0  0  0  0
   -3.2638   -6.1236    0.0000 C   0  0  0  0  0  0  0  0  0  0  0  0
   -2.9520   -4.6564    0.0000 S   0  0  0  0  0  0  0  0  0  0  0  0
   -1.4848   -4.9682    0.0000 O   0  0  0  0  0  0  0  0  0  0  0  0
   -4.4192   -4.3445    0.0000 O   0  0  0  0  0  0  0  0  0  0  0  0
   -2.6401   -3.1891    0.0000 N   0  0  0  0  0  0  0  0  0  0  0  0
   -1.2135   -2.7256    0.0000 C   0  0  0  0  0  0  0  0  0  0  0  0
   -0.0000   -3.6073    0.0000 N   0  0  0  0  0  0  0  0  0  0  0  0
    1.2135   -2.7256    0.0000 N   0  0  0  0  0  0  0  0  0  0  0  0
    2.6401   -3.1891    0.0000 C   0  0  0  0  0  0  0  0  0  0  0  0
    0.7500   -1.2990    0.0000 C   0  0  0  0  0  0  0  0  0  0  0  0
    1.5000    0.0000    0.0000 C   0  0  0  0  0  0  0  0  0  0  0  0
    0.7500    1.2990    0.0000 C   0  0  0  0  0  0  0  0  0  0  0  0
    1.5000    2.5981    0.0000 C   0  0  0  0  0  0  0  0  0  0  0  0
   -0.7500    1.2990    0.0000 N   0  0  0  0  0  0  0  0  0  0  0  0
   -1.5000    0.0000    0.0000 C   0  0  0  0  0  0  0  0  0  0  0  0
   -3.0000    0.0000    0.0000 O   0  0  0  0  0  0  0  0  0  0  0  0
   -0.7500   -1.2990    0.0000 C   0  0  0  0  0  0  0  0  0  0  0  0
   -2.1491   -7.1273    0.0000 C   0  0  0  0  0  0  0  0  0  0  0  0
   -0.7225   -6.6638    0.0000 O   0  0  0  0  0  0  0  0  0  0  0  0
    0.3922   -7.6675    0.0000 C   0  0  0  0  0  0  0  0  0  0  0  0
   -2.4610   -8.5945    0.0000 C   0  0  0  0  0  0  0  0  0  0  0  0
  1  2  1  0
  2  3  1  0
  3  4  2  0
  4  5  1  0
  5  6  2  0
  6  7  1  0
  7  8  2  0
  7  9  2  0
  7 10  1  0
 10 11  1  0
 11 12  2  0
 12 13  1  0
 13 14  1  0
 13 15  1  0
 15 16  1  0
 16 17  2  0
 17 18  1  0
 17 19  1  0
 19 20  1  0
 20 21  2  0
 20 22  1  0
  6 23  1  0
 23 24  1  0
 24 25  1  0
 23 26  2  0
 26  3  1  0
 22 11  1  0
 22 15  2  0
M  END
>  <Compound_ID>  (264) 
CHEMBL1813779

>  <Molecule Name>  (264) 
nan

>  <Molecular Weight>  (264) 
378.41

>  <AlogP>  (264) 
1.39

>  <Smiles>  (264) 
COc1ccc(S(=O)(=O)Nc2nn(C)c3cc(C)[nH]c(=O)c23)c(OC)c1

>  <Standard Type>  (264) 
Inhibition

>  <Standard Relation>  (264) 
'='

>  <Standard Units>  (264) 
%

>  <Standard Value>  (264) 
0.0

>  <Assay ChEMBL ID>  (264) 
CHEMBL1815730

>  <Assay Description>  (264) 
Inhibition of MET at 30 uM by microfluidic mobility shift assay

>  <BAO Format ID>  (264) 
BAO_0000357

>  <BAO Label>  (264) 
single protein format

>  <Assay Organism>  (264) 
None

>  <Target ChEMBL ID>  (264) 
CHEMBL3717

>  <Target Name>  (264) 
Hepatocyte growth factor receptor

>  <Target Organism>  (264) 
Homo sapiens

>  <Target Type>  (264) 
SINGLE PROTEIN

>  <Document ChEMBL ID>  (264) 
CHEMBL1811853

>  <Source Description>  (264) 
Scientific Literature

>  <Document Journal>  (264) 
Bioorg Med Chem

>  <Document Year>  (264) 
2011.0

>  <Active>  (264) 
0.0

$$$$

     RDKit          2D

 34 37  0  0  0  0  0  0  0  0999 V2000
   -2.5981   -8.1073    0.0000 C   0  0  0  0  0  0  0  0  0  0  0  0
   -1.2990   -7.3573    0.0000 O   0  0  0  0  0  0  0  0  0  0  0  0
   -1.2990   -5.8573    0.0000 C   0  0  0  0  0  0  0  0  0  0  0  0
   -2.5981   -5.1073    0.0000 O   0  0  0  0  0  0  0  0  0  0  0  0
   -0.0000   -5.1073    0.0000 N   0  0  0  0  0  0  0  0  0  0  0  0
   -0.0000   -3.6073    0.0000 C   0  0  0  0  0  0  0  0  0  0  0  0
    1.2135   -2.7256    0.0000 N   0  0  0  0  0  0  0  0  0  0  0  0
    0.7500   -1.2990    0.0000 C   0  0  0  0  0  0  0  0  0  0  0  0
    1.5000    0.0000    0.0000 C   0  0  0  0  0  0  0  0  0  0  0  0
    0.7500    1.2990    0.0000 C   0  0  0  0  0  0  0  0  0  0  0  0
    1.5000    2.5981    0.0000 O   0  0  0  0  0  0  0  0  0  0  0  0
    3.0000    2.5981    0.0000 C   0  0  0  0  0  0  0  0  0  0  0  0
    3.7500    1.2990    0.0000 C   0  0  0  0  0  0  0  0  0  0  0  0
    5.2500    1.2990    0.0000 C   0  0  0  0  0  0  0  0  0  0  0  0
    6.0000    2.5981    0.0000 C   0  0  0  0  0  0  0  0  0  0  0  0
    7.5000    2.5981    0.0000 N   0  0  0  0  0  0  0  0  0  0  0  0
    8.2500    1.2990    0.0000 C   0  0  0  0  0  0  0  0  0  0  0  0
    7.5000   -0.0000    0.0000 O   0  0  0  0  0  0  0  0  0  0  0  0
    9.7500    1.2990    0.0000 N   0  0  0  0  0  0  0  0  0  0  0  0
   10.5000   -0.0000    0.0000 C   0  0  0  0  0  0  0  0  0  0  0  0
    9.7500   -1.2990    0.0000 C   0  0  0  0  0  0  0  0  0  0  0  0
   10.5000   -2.5981    0.0000 C   0  0  0  0  0  0  0  0  0  0  0  0
   12.0000   -2.5981    0.0000 C   0  0  0  0  0  0  0  0  0  0  0  0
   12.7500   -1.2990    0.0000 C   0  0  0  0  0  0  0  0  0  0  0  0
   14.2500   -1.2990    0.0000 C   0  0  0  0  0  0  0  0  0  0  0  0
   15.0000   -0.0000    0.0000 O   0  0  0  0  0  0  0  0  0  0  0  0
   15.0000   -2.5981    0.0000 O   0  0  0  0  0  0  0  0  0  0  0  0
   12.0000   -0.0000    0.0000 C   0  0  0  0  0  0  0  0  0  0  0  0
    5.2500    3.8971    0.0000 C   0  0  0  0  0  0  0  0  0  0  0  0
    3.7500    3.8971    0.0000 C   0  0  0  0  0  0  0  0  0  0  0  0
   -0.7500    1.2990    0.0000 C   0  0  0  0  0  0  0  0  0  0  0  0
   -1.5000    0.0000    0.0000 C   0  0  0  0  0  0  0  0  0  0  0  0
   -0.7500   -1.2990    0.0000 C   0  0  0  0  0  0  0  0  0  0  0  0
   -1.2135   -2.7256    0.0000 N   0  0  0  0  0  0  0  0  0  0  0  0
  1  2  1  0
  2  3  1  0
  3  4  2  0
  3  5  1  0
  5  6  1  0
  6  7  2  0
  7  8  1  0
  8  9  2  0
  9 10  1  0
 10 11  1  0
 11 12  1  0
 12 13  2  0
 13 14  1  0
 14 15  2  0
 15 16  1  0
 16 17  1  0
 17 18  2  0
 17 19  1  0
 19 20  1  0
 20 21  2  0
 21 22  1  0
 22 23  2  0
 23 24  1  0
 24 25  1  0
 25 26  2  0
 25 27  1  0
 24 28  2  0
 15 29  1  0
 29 30  2  0
 10 31  2  0
 31 32  1  0
 32 33  2  0
 33 34  1  0
 34  6  1  0
 33  8  1  0
 30 12  1  0
 28 20  1  0
M  END
>  <Compound_ID>  (265) 
CHEMBL1909373

>  <Molecule Name>  (265) 
GW701427A

>  <Molecular Weight>  (265) 
497.90

>  <AlogP>  (265) 
4.88

>  <Smiles>  (265) 
COC(=O)Nc1nc2cc(Oc3ccc(NC(=O)Nc4cccc(C(=O)O)c4)cc3)ccc2[nH]1

>  <Standard Type>  (265) 
Inhibition

>  <Standard Relation>  (265) 
'='

>  <Standard Units>  (265) 
%

>  <Standard Value>  (265) 
11.43

>  <Assay ChEMBL ID>  (265) 
CHEMBL1962143

>  <Assay Description>  (265) 
GSK_PKIS: MET mean inhibition at 1 uM [Nanosyn]

>  <BAO Format ID>  (265) 
BAO_0000357

>  <BAO Label>  (265) 
single protein format

>  <Assay Organism>  (265) 
None

>  <Target ChEMBL ID>  (265) 
CHEMBL3717

>  <Target Name>  (265) 
Hepatocyte growth factor receptor

>  <Target Organism>  (265) 
Homo sapiens

>  <Target Type>  (265) 
SINGLE PROTEIN

>  <Document ChEMBL ID>  (265) 
CHEMBL1961873

>  <Source Description>  (265) 
GSK Published Kinase Inhibitor Set

>  <Document Journal>  (265) 
nan

>  <Document Year>  (265) 
nan

>  <Active>  (265) 
0.0

$$$$

     RDKit          2D

 28 31  0  0  0  0  0  0  0  0999 V2000
    3.0000    0.0000    0.0000 N   0  0  0  0  0  0  0  0  0  0  0  0
    1.5000    0.0000    0.0000 C   0  0  0  0  0  0  0  0  0  0  0  0
    0.7500   -1.2990    0.0000 N   0  0  0  0  0  0  0  0  0  0  0  0
   -0.7500   -1.2990    0.0000 C   0  0  0  0  0  0  0  0  0  0  0  0
   -1.5000    0.0000    0.0000 C   0  0  0  0  0  0  0  0  0  0  0  0
   -0.7500    1.2990    0.0000 C   0  0  0  0  0  0  0  0  0  0  0  0
   -1.5000    2.5981    0.0000 C   0  0  0  0  0  0  0  0  0  0  0  0
   -2.9918    2.7549    0.0000 C   0  0  0  0  0  0  0  0  0  0  0  0
   -3.9955    1.6402    0.0000 C   0  0  0  0  0  0  0  0  0  0  0  0
   -5.4627    1.9520    0.0000 C   0  0  0  0  0  0  0  0  0  0  0  0
   -6.4664    0.8373    0.0000 C   0  0  0  0  0  0  0  0  0  0  0  0
   -6.0029   -0.5893    0.0000 C   0  0  0  0  0  0  0  0  0  0  0  0
   -7.0066   -1.7040    0.0000 F   0  0  0  0  0  0  0  0  0  0  0  0
   -4.5356   -0.9012    0.0000 C   0  0  0  0  0  0  0  0  0  0  0  0
   -3.5320    0.2136    0.0000 C   0  0  0  0  0  0  0  0  0  0  0  0
   -3.3037    4.2221    0.0000 N   0  0  0  0  0  0  0  0  0  0  0  0
   -2.0046    4.9721    0.0000 C   0  0  0  0  0  0  0  0  0  0  0  0
   -0.8899    3.9684    0.0000 N   0  0  0  0  0  0  0  0  0  0  0  0
    0.5773    4.2803    0.0000 C   0  0  0  0  0  0  0  0  0  0  0  0
    1.0409    5.7068    0.0000 C   0  0  0  0  0  0  0  0  0  0  0  0
    2.5081    6.0187    0.0000 C   0  0  0  0  0  0  0  0  0  0  0  0
    2.9716    7.4453    0.0000 N   0  0  0  0  0  0  0  0  0  0  0  0
    4.4388    7.7572    0.0000 C   0  0  0  0  0  0  0  0  0  0  0  0
    4.9023    9.1838    0.0000 C   0  0  0  0  0  0  0  0  0  0  0  0
    3.8986   10.2985    0.0000 O   0  0  0  0  0  0  0  0  0  0  0  0
    2.4314    9.9866    0.0000 C   0  0  0  0  0  0  0  0  0  0  0  0
    1.9679    8.5600    0.0000 C   0  0  0  0  0  0  0  0  0  0  0  0
    0.7500    1.2990    0.0000 N   0  0  0  0  0  0  0  0  0  0  0  0
  1  2  1  0
  2  3  2  0
  3  4  1  0
  4  5  2  0
  5  6  1  0
  6  7  1  0
  7  8  2  0
  8  9  1  0
  9 10  2  0
 10 11  1  0
 11 12  2  0
 12 13  1  0
 12 14  1  0
 14 15  2  0
  8 16  1  0
 16 17  2  0
 17 18  1  0
 18 19  1  0
 19 20  1  0
 20 21  1  0
 21 22  1  0
 22 23  1  0
 23 24  1  0
 24 25  1  0
 25 26  1  0
 26 27  1  0
  6 28  2  0
 28  2  1  0
 18  7  1  0
 27 22  1  0
 15  9  1  0
M  END
>  <Compound_ID>  (266) 
CHEMBL274863

>  <Molecule Name>  (266) 
nan

>  <Molecular Weight>  (266) 
382.44

>  <AlogP>  (266) 
2.45

>  <Smiles>  (266) 
Nc1nccc(-c2c(-c3ccc(F)cc3)ncn2CCCN2CCOCC2)n1

>  <Standard Type>  (266) 
Inhibition

>  <Standard Relation>  (266) 
'='

>  <Standard Units>  (266) 
%

>  <Standard Value>  (266) 
5.4

>  <Assay ChEMBL ID>  (266) 
CHEMBL1962143

>  <Assay Description>  (266) 
GSK_PKIS: MET mean inhibition at 1 uM [Nanosyn]

>  <BAO Format ID>  (266) 
BAO_0000357

>  <BAO Label>  (266) 
single protein format

>  <Assay Organism>  (266) 
None

>  <Target ChEMBL ID>  (266) 
CHEMBL3717

>  <Target Name>  (266) 
Hepatocyte growth factor receptor

>  <Target Organism>  (266) 
Homo sapiens

>  <Target Type>  (266) 
SINGLE PROTEIN

>  <Document ChEMBL ID>  (266) 
CHEMBL1961873

>  <Source Description>  (266) 
GSK Published Kinase Inhibitor Set

>  <Document Journal>  (266) 
nan

>  <Document Year>  (266) 
nan

>  <Active>  (266) 
0.0

$$$$

     RDKit          2D

 32 35  0  0  0  0  0  0  0  0999 V2000
    3.7500   -6.4952    0.0000 C   0  0  0  0  0  0  0  0  0  0  0  0
    3.0000   -5.1962    0.0000 N   0  0  0  0  0  0  0  0  0  0  0  0
    1.5000   -5.1962    0.0000 C   0  0  0  0  0  0  0  0  0  0  0  0
    0.7500   -3.8971    0.0000 C   0  0  0  0  0  0  0  0  0  0  0  0
    1.5000   -2.5981    0.0000 N   0  0  0  0  0  0  0  0  0  0  0  0
    0.7500   -1.2990    0.0000 C   0  0  0  0  0  0  0  0  0  0  0  0
    1.5000    0.0000    0.0000 C   0  0  0  0  0  0  0  0  0  0  0  0
    0.7500    1.2990    0.0000 N   0  0  0  0  0  0  0  0  0  0  0  0
   -0.7500    1.2990    0.0000 C   0  0  0  0  0  0  0  0  0  0  0  0
   -1.5000    2.5981    0.0000 C   0  0  0  0  0  0  0  0  0  0  0  0
   -3.0000    2.5981    0.0000 C   0  0  0  0  0  0  0  0  0  0  0  0
   -3.7500    3.8971    0.0000 N   0  0  0  0  0  0  0  0  0  0  0  0
   -3.0000    5.1962    0.0000 C   0  0  0  0  0  0  0  0  0  0  0  0
   -3.7500    6.4952    0.0000 C   0  0  0  0  0  0  0  0  0  0  0  0
   -3.0000    7.7942    0.0000 C   0  0  0  0  0  0  0  0  0  0  0  0
   -3.7500    9.0933    0.0000 C   0  0  0  0  0  0  0  0  0  0  0  0
   -5.2500    9.0933    0.0000 C   0  0  0  0  0  0  0  0  0  0  0  0
   -6.0000    7.7942    0.0000 C   0  0  0  0  0  0  0  0  0  0  0  0
   -7.5000    7.7942    0.0000 N   0  0  0  0  0  4  0  0  0  0  0  0
   -8.2500    6.4952    0.0000 O   0  0  0  0  0  0  0  0  0  0  0  0
   -8.2500    9.0933    0.0000 O   0  0  0  0  0  1  0  0  0  0  0  0
   -5.2500    6.4952    0.0000 C   0  0  0  0  0  0  0  0  0  0  0  0
   -3.7500    1.2990    0.0000 C   0  0  0  0  0  0  0  0  0  0  0  0
   -3.0000    0.0000    0.0000 C   0  0  0  0  0  0  0  0  0  0  0  0
   -3.7500   -1.2990    0.0000 C   0  0  0  0  0  0  0  0  0  0  0  0
   -4.5000   -2.5981    0.0000 F   0  0  0  0  0  0  0  0  0  0  0  0
   -5.0490   -0.5490    0.0000 F   0  0  0  0  0  0  0  0  0  0  0  0
   -2.4510   -2.0490    0.0000 F   0  0  0  0  0  0  0  0  0  0  0  0
   -1.5000    0.0000    0.0000 C   0  0  0  0  0  0  0  0  0  0  0  0
   -0.7500   -1.2990    0.0000 C   0  0  0  0  0  0  0  0  0  0  0  0
    3.0000   -2.5981    0.0000 C   0  0  0  0  0  0  0  0  0  0  0  0
    3.7500   -3.8971    0.0000 C   0  0  0  0  0  0  0  0  0  0  0  0
  1  2  1  0
  2  3  1  0
  3  4  1  0
  4  5  1  0
  5  6  1  0
  6  7  2  0
  7  8  1  0
  8  9  2  0
  9 10  1  0
 10 11  2  0
 11 12  1  0
 12 13  1  0
 13 14  1  0
 14 15  2  0
 15 16  1  0
 16 17  2  0
 17 18  1  0
 18 19  1  0
 19 20  2  0
 19 21  1  0
 18 22  2  0
 11 23  1  0
 23 24  2  0
 24 25  1  0
 25 26  1  0
 25 27  1  0
 25 28  1  0
 24 29  1  0
 29 30  2  0
  5 31  1  0
 31 32  1  0
 32  2  1  0
 30  6  1  0
 29  9  1  0
 22 14  1  0
M  CHG  2  19   1  21  -1
M  END
>  <Compound_ID>  (267) 
CHEMBL1766547

>  <Molecule Name>  (267) 
nan

>  <Molecular Weight>  (267) 
445.45

>  <AlogP>  (267) 
4.53

>  <Smiles>  (267) 
CN1CCN(c2cnc3cc(NCc4cccc([N+](=O)[O-])c4)cc(C(F)(F)F)c3c2)CC1

>  <Standard Type>  (267) 
Inhibition

>  <Standard Relation>  (267) 
'='

>  <Standard Units>  (267) 
%

>  <Standard Value>  (267) 
8.9

>  <Assay ChEMBL ID>  (267) 
CHEMBL1768669

>  <Assay Description>  (267) 
Inhibition of purified recombinant c-Met at 10 uM after 60 mins by ELISA

>  <BAO Format ID>  (267) 
BAO_0000357

>  <BAO Label>  (267) 
single protein format

>  <Assay Organism>  (267) 
None

>  <Target ChEMBL ID>  (267) 
CHEMBL3717

>  <Target Name>  (267) 
Hepatocyte growth factor receptor

>  <Target Organism>  (267) 
Homo sapiens

>  <Target Type>  (267) 
SINGLE PROTEIN

>  <Document ChEMBL ID>  (267) 
CHEMBL1765011

>  <Source Description>  (267) 
Scientific Literature

>  <Document Journal>  (267) 
J Med Chem

>  <Document Year>  (267) 
2011.0

>  <Active>  (267) 
0.0

$$$$

     RDKit          2D

 23 26  0  0  0  0  0  0  0  0999 V2000
   -5.8875   -6.5486    0.0000 C   0  0  0  0  0  0  0  0  0  0  0  0
   -4.6740   -7.4303    0.0000 C   0  0  0  0  0  0  0  0  0  0  0  0
   -4.8308   -8.9221    0.0000 C   0  0  0  0  0  0  0  0  0  0  0  0
   -3.3037   -6.8202    0.0000 N   0  0  0  0  0  0  0  0  0  0  0  0
   -2.9918   -5.3529    0.0000 N   0  0  0  0  0  0  0  0  0  0  0  0
   -1.5000   -5.1962    0.0000 C   0  0  0  0  0  0  0  0  0  0  0  0
   -0.7500   -3.8971    0.0000 C   0  0  0  0  0  0  0  0  0  0  0  0
    0.7500   -3.8971    0.0000 C   0  0  0  0  0  0  0  0  0  0  0  0
    1.5000   -2.5981    0.0000 C   0  0  0  0  0  0  0  0  0  0  0  0
    0.7500   -1.2990    0.0000 C   0  0  0  0  0  0  0  0  0  0  0  0
    1.5000    0.0000    0.0000 N   0  0  0  0  0  0  0  0  0  0  0  0
    0.7500    1.2990    0.0000 C   0  0  0  0  0  0  0  0  0  0  0  0
   -0.7500    1.2990    0.0000 C   0  0  0  0  0  0  0  0  0  0  0  0
   -1.5000    0.0000    0.0000 C   0  0  0  0  0  0  0  0  0  0  0  0
   -0.7500   -1.2990    0.0000 C   0  0  0  0  0  0  0  0  0  0  0  0
   -1.5000   -2.5981    0.0000 C   0  0  0  0  0  0  0  0  0  0  0  0
   -0.8899   -6.5665    0.0000 C   0  0  0  0  0  0  0  0  0  0  0  0
    0.5367   -7.0300    0.0000 C   0  0  0  0  0  0  0  0  0  0  0  0
    1.6514   -6.0263    0.0000 N   0  0  0  0  0  0  0  0  0  0  0  0
    0.8486   -8.4972    0.0000 N   0  0  0  0  0  0  0  0  0  0  0  0
   -0.2662   -9.5009    0.0000 C   0  0  0  0  0  0  0  0  0  0  0  0
   -1.6927   -9.0374    0.0000 N   0  0  0  0  0  0  0  0  0  0  0  0
   -2.0046   -7.5702    0.0000 C   0  0  0  0  0  0  0  0  0  0  0  0
  1  2  1  0
  2  3  1  0
  2  4  1  0
  4  5  1  0
  5  6  2  0
  6  7  1  0
  7  8  2  0
  8  9  1  0
  9 10  2  0
 10 11  1  0
 11 12  2  0
 12 13  1  0
 13 14  2  0
 14 15  1  0
 15 16  2  0
  6 17  1  0
 17 18  2  0
 18 19  1  0
 18 20  1  0
 20 21  2  0
 21 22  1  0
 22 23  2  0
 23  4  1  0
 16  7  1  0
 23 17  1  0
 15 10  1  0
M  END
>  <Compound_ID>  (268) 
CHEMBL1233882

>  <Molecule Name>  (268) 
nan

>  <Molecular Weight>  (268) 
304.36

>  <AlogP>  (268) 
3.20

>  <Smiles>  (268) 
CC(C)n1nc(-c2ccc3ncccc3c2)c2c(N)ncnc21

>  <Standard Type>  (268) 
Inhibition

>  <Standard Relation>  (268) 
'='

>  <Standard Units>  (268) 
%

>  <Standard Value>  (268) 
4.0

>  <Assay ChEMBL ID>  (268) 
CHEMBL1244220

>  <Assay Description>  (268) 
Inhibition of MET at 1 uM after 60 mins by FRET assay in presence of 10 uM ATP

>  <BAO Format ID>  (268) 
BAO_0000357

>  <BAO Label>  (268) 
single protein format

>  <Assay Organism>  (268) 
None

>  <Target ChEMBL ID>  (268) 
CHEMBL3717

>  <Target Name>  (268) 
Hepatocyte growth factor receptor

>  <Target Organism>  (268) 
Homo sapiens

>  <Target Type>  (268) 
SINGLE PROTEIN

>  <Document ChEMBL ID>  (268) 
CHEMBL1240340

>  <Source Description>  (268) 
Scientific Literature

>  <Document Journal>  (268) 
Nat Chem Biol

>  <Document Year>  (268) 
2008.0

>  <Active>  (268) 
0.0

$$$$

     RDKit          2D

 21 24  0  0  0  0  0  0  0  0999 V2000
    3.0000    0.0000    0.0000 O   0  0  0  0  0  0  0  0  0  0  0  0
    1.5000    0.0000    0.0000 C   0  0  0  0  0  0  0  0  0  0  0  0
    0.7500   -1.2990    0.0000 C   0  0  0  0  0  0  0  0  0  0  0  0
   -0.7500   -1.2990    0.0000 C   0  0  0  0  0  0  0  0  0  0  0  0
   -1.5000    0.0000    0.0000 C   0  0  0  0  0  0  0  0  0  0  0  0
   -2.2500    1.2990    0.0000 C   0  0  0  0  0  0  0  0  0  0  0  0
   -3.7500    1.2990    0.0000 C   0  0  0  0  0  0  0  0  0  0  0  0
   -4.5000   -0.0000    0.0000 N   0  0  0  0  0  0  0  0  0  0  0  0
   -6.0000   -0.0000    0.0000 C   0  0  0  0  0  0  0  0  0  0  0  0
   -6.7500   -1.2990    0.0000 N   0  0  0  0  0  0  0  0  0  0  0  0
   -8.2500   -1.2990    0.0000 C   0  0  0  0  0  0  0  0  0  0  0  0
   -9.0000   -0.0000    0.0000 N   0  0  0  0  0  0  0  0  0  0  0  0
   -8.2500    1.2990    0.0000 C   0  0  0  0  0  0  0  0  0  0  0  0
   -8.7135    2.7256    0.0000 N   0  0  0  0  0  0  0  0  0  0  0  0
   -7.5000    3.6073    0.0000 C   0  0  0  0  0  0  0  0  0  0  0  0
   -6.2865    2.7256    0.0000 N   0  0  0  0  0  0  0  0  0  0  0  0
   -6.7500    1.2990    0.0000 C   0  0  0  0  0  0  0  0  0  0  0  0
   -3.7500   -1.2990    0.0000 C   0  0  0  0  0  0  0  0  0  0  0  0
   -2.2500   -1.2990    0.0000 C   0  0  0  0  0  0  0  0  0  0  0  0
   -0.7500    1.2990    0.0000 N   0  0  0  0  0  0  0  0  0  0  0  0
    0.7500    1.2990    0.0000 C   0  0  0  0  0  0  0  0  0  0  0  0
  1  2  1  0
  2  3  1  0
  3  4  1  0
  4  5  1  0
  5  6  1  0
  6  7  1  0
  7  8  1  0
  8  9  1  0
  9 10  2  0
 10 11  1  0
 11 12  2  0
 12 13  1  0
 13 14  1  0
 14 15  1  0
 15 16  2  0
 16 17  1  0
  8 18  1  0
 18 19  1  0
  5 20  1  0
 20 21  1  0
 21  2  1  0
 19  5  1  0
 17  9  1  0
 17 13  2  0
M  END
>  <Compound_ID>  (269) 
CHEMBL2420927

>  <Molecule Name>  (269) 
nan

>  <Molecular Weight>  (269) 
288.36

>  <AlogP>  (269) 
0.44

>  <Smiles>  (269) 
OC1CCC2(CCN(c3ncnc4[nH]cnc34)CC2)NC1

>  <Standard Type>  (269) 
Inhibition

>  <Standard Relation>  (269) 
'='

>  <Standard Units>  (269) 
%

>  <Standard Value>  (269) 
15.0

>  <Assay ChEMBL ID>  (269) 
CHEMBL2424318

>  <Assay Description>  (269) 
Inhibition of MET (unknown origin) at 30 uM by microfluidic mobility shift assay relative to control

>  <BAO Format ID>  (269) 
BAO_0000357

>  <BAO Label>  (269) 
single protein format

>  <Assay Organism>  (269) 
Homo sapiens

>  <Target ChEMBL ID>  (269) 
CHEMBL3717

>  <Target Name>  (269) 
Hepatocyte growth factor receptor

>  <Target Organism>  (269) 
Homo sapiens

>  <Target Type>  (269) 
SINGLE PROTEIN

>  <Document ChEMBL ID>  (269) 
CHEMBL2417369

>  <Source Description>  (269) 
Scientific Literature

>  <Document Journal>  (269) 
Bioorg Med Chem

>  <Document Year>  (269) 
2013.0

>  <Active>  (269) 
0.0

$$$$

     RDKit          2D

 31 36  0  0  0  0  0  0  0  0999 V2000
   -0.5773   -4.2803    0.0000 C   0  0  0  0  0  0  0  0  0  0  0  0
    0.8899   -3.9684    0.0000 C   0  0  0  0  0  0  0  0  0  0  0  0
    2.0046   -4.9721    0.0000 N   0  0  0  0  0  0  0  0  0  0  0  0
    3.3037   -4.2221    0.0000 N   0  0  0  0  0  0  0  0  0  0  0  0
    2.9918   -2.7549    0.0000 C   0  0  0  0  0  0  0  0  0  0  0  0
    3.9955   -1.6402    0.0000 C   0  0  0  0  0  0  0  0  0  0  0  0
    4.3073   -0.1729    0.0000 C   0  0  0  0  0  0  0  0  0  0  0  0
    5.4221   -1.1766    0.0000 C   0  0  0  0  0  0  0  0  0  0  0  0
    1.5000   -2.5981    0.0000 C   0  0  0  0  0  0  0  0  0  0  0  0
    0.7500   -1.2990    0.0000 C   0  0  0  0  0  0  0  0  0  0  0  0
    1.5000    0.0000    0.0000 C   0  0  0  0  0  0  0  0  0  0  0  0
    0.7500    1.2990    0.0000 C   0  0  0  0  0  0  0  0  0  0  0  0
   -0.7500    1.2990    0.0000 C   0  0  0  0  0  0  0  0  0  0  0  0
   -1.7537    2.4138    0.0000 C   0  0  0  0  0  0  0  0  0  0  0  0
   -1.4418    3.8810    0.0000 C   0  0  0  0  0  0  0  0  0  0  0  0
   -0.0152    4.3445    0.0000 C   0  0  0  0  0  0  0  0  0  0  0  0
    0.2966    5.8117    0.0000 C   0  0  0  0  0  0  0  0  0  0  0  0
   -0.8181    6.8154    0.0000 C   0  0  0  0  0  0  0  0  0  0  0  0
   -0.5062    8.2826    0.0000 N   0  0  0  0  0  0  0  0  0  0  0  0
    0.9204    8.7462    0.0000 C   0  0  0  0  0  0  0  0  0  0  0  0
    1.2322   10.2134    0.0000 C   0  0  0  0  0  0  0  0  0  0  0  0
    0.1175   11.2171    0.0000 N   0  0  0  0  0  0  0  0  0  0  0  0
    0.4294   12.6843    0.0000 C   0  0  0  0  0  0  0  0  0  0  0  0
   -1.3091   10.7536    0.0000 C   0  0  0  0  0  0  0  0  0  0  0  0
   -1.6209    9.2863    0.0000 C   0  0  0  0  0  0  0  0  0  0  0  0
   -2.2447    6.3519    0.0000 N   0  0  0  0  0  0  0  0  0  0  0  0
   -2.5565    4.8847    0.0000 C   0  0  0  0  0  0  0  0  0  0  0  0
   -3.1240    1.8037    0.0000 N   0  0  0  0  0  0  0  0  0  0  0  0
   -2.9672    0.3119    0.0000 N   0  0  0  0  0  0  0  0  0  0  0  0
   -1.5000    0.0000    0.0000 C   0  0  0  0  0  0  0  0  0  0  0  0
   -0.7500   -1.2990    0.0000 C   0  0  0  0  0  0  0  0  0  0  0  0
  1  2  1  0
  2  3  1  0
  3  4  1  0
  4  5  2  0
  5  6  1  0
  6  7  1  0
  7  8  1  0
  5  9  1  0
  9 10  1  0
 10 11  2  0
 11 12  1  0
 12 13  2  0
 13 14  1  0
 14 15  1  0
 15 16  2  0
 16 17  1  0
 17 18  2  0
 18 19  1  0
 19 20  1  0
 20 21  1  0
 21 22  1  0
 22 23  1  0
 22 24  1  0
 24 25  1  0
 18 26  1  0
 26 27  2  0
 14 28  2  0
 28 29  1  0
 29 30  1  0
 30 31  2  0
  9  2  2  0
 31 10  1  0
  8  6  1  0
 30 13  1  0
 27 15  1  0
 25 19  1  0
M  END
>  <Compound_ID>  (270) 
CHEMBL4125807

>  <Molecule Name>  (270) 
nan

>  <Molecular Weight>  (270) 
413.53

>  <AlogP>  (270) 
3.95

>  <Smiles>  (270) 
Cc1[nH]nc(C2CC2)c1-c1ccc2c(-c3ccc(N4CCN(C)CC4)nc3)n[nH]c2c1

>  <Standard Type>  (270) 
Inhibition

>  <Standard Relation>  (270) 
'='

>  <Standard Units>  (270) 
%

>  <Standard Value>  (270) 
2.0

>  <Assay ChEMBL ID>  (270) 
CHEMBL4120520

>  <Assay Description>  (270) 
Inhibition of MET M1250T mutant (unknown origin) at 0.19 uM relative to control

>  <BAO Format ID>  (270) 
BAO_0000357

>  <BAO Label>  (270) 
single protein format

>  <Assay Organism>  (270) 
Homo sapiens

>  <Target ChEMBL ID>  (270) 
CHEMBL3717

>  <Target Name>  (270) 
Hepatocyte growth factor receptor

>  <Target Organism>  (270) 
Homo sapiens

>  <Target Type>  (270) 
SINGLE PROTEIN

>  <Document ChEMBL ID>  (270) 
CHEMBL4118098

>  <Source Description>  (270) 
Scientific Literature

>  <Document Journal>  (270) 
Bioorg Med Chem Lett

>  <Document Year>  (270) 
2017.0

>  <Active>  (270) 
0.0

$$$$

     RDKit          2D

 35 38  0  0  0  0  0  0  0  0999 V2000
    1.3299    5.6152    0.0000 C   0  0  0  0  0  0  0  0  0  0  0  0
   -0.0967    5.1517    0.0000 O   0  0  0  0  0  0  0  0  0  0  0  0
   -0.4086    3.6844    0.0000 C   0  0  0  0  0  0  0  0  0  0  0  0
    0.7062    2.6807    0.0000 C   0  0  0  0  0  0  0  0  0  0  0  0
    0.3943    1.2135    0.0000 C   0  0  0  0  0  0  0  0  0  0  0  0
    1.2760    0.0000    0.0000 N   0  0  0  0  0  0  0  0  0  0  0  0
    0.3943   -1.2135    0.0000 C   0  0  0  0  0  0  0  0  0  0  0  0
   -1.0323   -0.7500    0.0000 N   0  0  0  0  0  0  0  0  0  0  0  0
   -2.2458   -1.6317    0.0000 C   0  0  0  0  0  0  0  0  0  0  0  0
   -2.2458   -3.1317    0.0000 C   0  0  0  0  0  0  0  0  0  0  0  0
   -3.6724   -3.5952    0.0000 C   0  0  0  0  0  0  0  0  0  0  0  0
   -4.1359   -5.0218    0.0000 O   0  0  0  0  0  0  0  0  0  0  0  0
   -5.6031   -5.3337    0.0000 C   0  0  0  0  0  0  0  0  0  0  0  0
   -6.0667   -6.7602    0.0000 C   0  0  0  0  0  0  0  0  0  0  0  0
   -7.5339   -7.0721    0.0000 C   0  0  0  0  0  0  0  0  0  0  0  0
   -7.9974   -8.4987    0.0000 C   0  0  0  0  0  0  0  0  0  0  0  0
   -6.9937   -9.6134    0.0000 C   0  0  0  0  0  0  0  0  0  0  0  0
   -5.5265   -9.3015    0.0000 C   0  0  0  0  0  0  0  0  0  0  0  0
   -5.0630   -7.8750    0.0000 C   0  0  0  0  0  0  0  0  0  0  0  0
   -3.5958   -7.5631    0.0000 C   0  0  0  0  0  0  0  0  0  0  0  0
   -2.1285   -7.2512    0.0000 F   0  0  0  0  0  0  0  0  0  0  0  0
   -3.2839   -9.0303    0.0000 F   0  0  0  0  0  0  0  0  0  0  0  0
   -3.9076   -6.0959    0.0000 F   0  0  0  0  0  0  0  0  0  0  0  0
   -4.5541   -2.3817    0.0000 C   0  0  0  0  0  0  0  0  0  0  0  0
   -6.0541   -2.3817    0.0000 C   0  0  0  0  0  0  0  0  0  0  0  0
   -6.8041   -3.6807    0.0000 O   0  0  0  0  0  0  0  0  0  0  0  0
   -6.8041   -1.0826    0.0000 N   0  0  0  0  0  0  0  0  0  0  0  0
   -8.3041   -1.0826    0.0000 C   0  0  0  0  0  0  0  0  0  0  0  0
   -6.0541    0.2164    0.0000 C   0  0  0  0  0  0  0  0  0  0  0  0
   -3.6724   -1.1682    0.0000 S   0  0  0  0  0  0  0  0  0  0  0  0
   -1.0323    0.7500    0.0000 C   0  0  0  0  0  0  0  0  0  0  0  0
   -2.1470    1.7537    0.0000 C   0  0  0  0  0  0  0  0  0  0  0  0
   -1.8351    3.2209    0.0000 C   0  0  0  0  0  0  0  0  0  0  0  0
   -2.9499    4.2246    0.0000 O   0  0  0  0  0  0  0  0  0  0  0  0
   -4.3764    3.7611    0.0000 C   0  0  0  0  0  0  0  0  0  0  0  0
  1  2  1  0
  2  3  1  0
  3  4  2  0
  4  5  1  0
  5  6  1  0
  6  7  2  0
  7  8  1  0
  8  9  1  0
  9 10  2  0
 10 11  1  0
 11 12  1  0
 12 13  1  0
 13 14  1  0
 14 15  2  0
 15 16  1  0
 16 17  2  0
 17 18  1  0
 18 19  2  0
 19 20  1  0
 20 21  1  0
 20 22  1  0
 20 23  1  0
 11 24  2  0
 24 25  1  0
 25 26  2  0
 25 27  1  0
 27 28  1  0
 27 29  1  0
 24 30  1  0
  8 31  1  0
 31 32  1  0
 32 33  2  0
 33 34  1  0
 34 35  1  0
 33  3  1  0
 31  5  2  0
 30  9  1  0
 19 14  1  0
M  END
>  <Compound_ID>  (271) 
CHEMBL482326

>  <Molecule Name>  (271) 
GSK-1030062A

>  <Molecular Weight>  (271) 
505.52

>  <AlogP>  (271) 
5.40

>  <Smiles>  (271) 
COc1cc2ncn(-c3cc(OCc4ccccc4C(F)(F)F)c(C(=O)N(C)C)s3)c2cc1OC

>  <Standard Type>  (271) 
Inhibition

>  <Standard Relation>  (271) 
'='

>  <Standard Units>  (271) 
%

>  <Standard Value>  (271) 
-4.49

>  <Assay ChEMBL ID>  (271) 
CHEMBL1962143

>  <Assay Description>  (271) 
GSK_PKIS: MET mean inhibition at 1 uM [Nanosyn]

>  <BAO Format ID>  (271) 
BAO_0000357

>  <BAO Label>  (271) 
single protein format

>  <Assay Organism>  (271) 
None

>  <Target ChEMBL ID>  (271) 
CHEMBL3717

>  <Target Name>  (271) 
Hepatocyte growth factor receptor

>  <Target Organism>  (271) 
Homo sapiens

>  <Target Type>  (271) 
SINGLE PROTEIN

>  <Document ChEMBL ID>  (271) 
CHEMBL1961873

>  <Source Description>  (271) 
GSK Published Kinase Inhibitor Set

>  <Document Journal>  (271) 
nan

>  <Document Year>  (271) 
nan

>  <Active>  (271) 
0.0

$$$$

     RDKit          2D

 28 31  0  0  0  0  0  0  0  0999 V2000
   -3.5736    1.2902    0.0000 N   0  0  0  0  0  0  0  0  0  0  0  0
   -2.1470    1.7537    0.0000 C   0  0  0  0  0  0  0  0  0  0  0  0
   -1.8351    3.2209    0.0000 N   0  0  0  0  0  0  0  0  0  0  0  0
   -0.4086    3.6844    0.0000 C   0  0  0  0  0  0  0  0  0  0  0  0
    0.7062    2.6807    0.0000 C   0  0  0  0  0  0  0  0  0  0  0  0
    2.1328    3.1443    0.0000 C   0  0  0  0  0  0  0  0  0  0  0  0
    3.2475    2.1406    0.0000 C   0  0  0  0  0  0  0  0  0  0  0  0
    4.6741    2.6041    0.0000 C   0  0  0  0  0  0  0  0  0  0  0  0
    4.9859    4.0713    0.0000 C   0  0  0  0  0  0  0  0  0  0  0  0
    3.8712    5.0750    0.0000 C   0  0  0  0  0  0  0  0  0  0  0  0
    4.1831    6.5422    0.0000 S   0  0  0  0  0  0  0  0  0  0  0  0
    4.4949    8.0095    0.0000 N   0  0  0  0  0  0  0  0  0  0  0  0
    5.6503    6.2304    0.0000 O   0  0  0  0  0  0  0  0  0  0  0  0
    2.7158    6.8541    0.0000 O   0  0  0  0  0  0  0  0  0  0  0  0
    2.4446    4.6115    0.0000 C   0  0  0  0  0  0  0  0  0  0  0  0
    0.3943    1.2135    0.0000 C   0  0  0  0  0  0  0  0  0  0  0  0
    1.2760    0.0000    0.0000 S   0  0  0  0  0  0  0  0  0  0  0  0
    0.3943   -1.2135    0.0000 C   0  0  0  0  0  0  0  0  0  0  0  0
   -1.0323   -0.7500    0.0000 C   0  0  0  0  0  0  0  0  0  0  0  0
   -2.2458   -1.6317    0.0000 C   0  0  0  0  0  0  0  0  0  0  0  0
   -3.6161   -1.0216    0.0000 C   0  0  0  0  0  0  0  0  0  0  0  0
   -4.8297   -1.9033    0.0000 C   0  0  0  0  0  0  0  0  0  0  0  0
   -4.6729   -3.3950    0.0000 C   0  0  0  0  0  0  0  0  0  0  0  0
   -5.8864   -4.2767    0.0000 F   0  0  0  0  0  0  0  0  0  0  0  0
   -3.3025   -4.0051    0.0000 C   0  0  0  0  0  0  0  0  0  0  0  0
   -3.1458   -5.4969    0.0000 Cl  0  0  0  0  0  0  0  0  0  0  0  0
   -2.0890   -3.1235    0.0000 C   0  0  0  0  0  0  0  0  0  0  0  0
   -1.0323    0.7500    0.0000 C   0  0  0  0  0  0  0  0  0  0  0  0
  1  2  1  0
  2  3  2  0
  3  4  1  0
  4  5  2  0
  5  6  1  0
  6  7  2  0
  7  8  1  0
  8  9  2  0
  9 10  1  0
 10 11  1  0
 11 12  1  0
 11 13  2  0
 11 14  2  0
 10 15  2  0
  5 16  1  0
 16 17  1  0
 17 18  1  0
 18 19  2  0
 19 20  1  0
 20 21  2  0
 21 22  1  0
 22 23  2  0
 23 24  1  0
 23 25  1  0
 25 26  1  0
 25 27  2  0
 19 28  1  0
 28  2  1  0
 15  6  1  0
 28 16  2  0
 27 20  1  0
M  END
>  <Compound_ID>  (272) 
CHEMBL241517

>  <Molecule Name>  (272) 
GW856804X

>  <Molecular Weight>  (272) 
433.92

>  <AlogP>  (272) 
4.65

>  <Smiles>  (272) 
Nc1ncc(-c2cccc(S(N)(=O)=O)c2)c2scc(-c3ccc(F)c(Cl)c3)c12

>  <Standard Type>  (272) 
Inhibition

>  <Standard Relation>  (272) 
'='

>  <Standard Units>  (272) 
%

>  <Standard Value>  (272) 
3.25

>  <Assay ChEMBL ID>  (272) 
CHEMBL1962143

>  <Assay Description>  (272) 
GSK_PKIS: MET mean inhibition at 1 uM [Nanosyn]

>  <BAO Format ID>  (272) 
BAO_0000357

>  <BAO Label>  (272) 
single protein format

>  <Assay Organism>  (272) 
None

>  <Target ChEMBL ID>  (272) 
CHEMBL3717

>  <Target Name>  (272) 
Hepatocyte growth factor receptor

>  <Target Organism>  (272) 
Homo sapiens

>  <Target Type>  (272) 
SINGLE PROTEIN

>  <Document ChEMBL ID>  (272) 
CHEMBL1961873

>  <Source Description>  (272) 
GSK Published Kinase Inhibitor Set

>  <Document Journal>  (272) 
nan

>  <Document Year>  (272) 
nan

>  <Active>  (272) 
0.0

$$$$

     RDKit          2D

 35 39  0  0  0  0  0  0  0  0999 V2000
    5.2500   -1.2990    0.0000 N   0  0  0  0  0  0  0  0  0  0  0  0
    3.7500   -1.2990    0.0000 C   0  0  0  0  0  0  0  0  0  0  0  0
    3.0000   -2.5981    0.0000 O   0  0  0  0  0  0  0  0  0  0  0  0
    3.0000    0.0000    0.0000 C   0  0  0  0  0  0  0  0  0  0  0  0
    1.5000    0.0000    0.0000 C   0  0  0  0  0  0  0  0  0  0  0  0
    0.7500   -1.2990    0.0000 C   0  0  0  0  0  0  0  0  0  0  0  0
   -0.7500   -1.2990    0.0000 C   0  0  0  0  0  0  0  0  0  0  0  0
   -1.5000    0.0000    0.0000 C   0  0  0  0  0  0  0  0  0  0  0  0
   -0.7500    1.2990    0.0000 C   0  0  0  0  0  0  0  0  0  0  0  0
    0.7500    1.2990    0.0000 C   0  0  0  0  0  0  0  0  0  0  0  0
    1.5000    2.5981    0.0000 O   0  0  0  0  0  0  0  0  0  0  0  0
    0.7500    3.8971    0.0000 C   0  0  0  0  0  0  0  0  0  0  0  0
    1.5000    5.1962    0.0000 N   0  0  0  0  0  0  0  0  0  0  0  0
    0.7500    6.4952    0.0000 C   0  0  0  0  0  0  0  0  0  0  0  0
   -0.7500    6.4952    0.0000 C   0  0  0  0  0  0  0  0  0  0  0  0
   -1.5000    5.1962    0.0000 C   0  0  0  0  0  0  0  0  0  0  0  0
   -3.0000    5.1962    0.0000 C   0  0  0  0  0  0  0  0  0  0  0  0
   -3.8817    3.9826    0.0000 C   0  0  0  0  0  0  0  0  0  0  0  0
   -3.4182    2.5560    0.0000 C   0  0  0  0  0  0  0  0  0  0  0  0
   -4.4218    1.4413    0.0000 C   0  0  0  0  0  0  0  0  0  0  0  0
   -3.9583    0.0147    0.0000 C   0  0  0  0  0  0  0  0  0  0  0  0
   -2.4911   -0.2971    0.0000 C   0  0  0  0  0  0  0  0  0  0  0  0
   -2.0276   -1.7237    0.0000 F   0  0  0  0  0  0  0  0  0  0  0  0
   -1.4874    0.8176    0.0000 C   0  0  0  0  0  0  0  0  0  0  0  0
   -1.9509    2.2442    0.0000 C   0  0  0  0  0  0  0  0  0  0  0  0
   -5.3083    4.4462    0.0000 N   0  0  0  0  0  0  0  0  0  0  0  0
   -5.3083    5.9462    0.0000 C   0  0  0  0  0  0  0  0  0  0  0  0
   -3.8817    6.4097    0.0000 N   0  0  0  0  0  0  0  0  0  0  0  0
   -3.4182    7.8363    0.0000 C   0  0  0  0  0  0  0  0  0  0  0  0
   -1.9509    8.1481    0.0000 C   0  0  0  0  0  0  0  0  0  0  0  0
   -1.4874    9.5747    0.0000 C   0  0  0  0  0  0  0  0  0  0  0  0
   -2.4911   10.6894    0.0000 N   0  0  0  0  0  0  0  0  0  0  0  0
   -3.9583   10.3776    0.0000 C   0  0  0  0  0  0  0  0  0  0  0  0
   -4.4218    8.9510    0.0000 C   0  0  0  0  0  0  0  0  0  0  0  0
   -0.7500    3.8971    0.0000 N   0  0  0  0  0  0  0  0  0  0  0  0
  1  2  1  0
  2  3  2  0
  2  4  1  0
  4  5  1  0
  5  6  2  0
  6  7  1  0
  7  8  2  0
  8  9  1  0
  9 10  2  0
 10 11  1  0
 11 12  1  0
 12 13  2  0
 13 14  1  0
 14 15  2  0
 15 16  1  0
 16 17  1  0
 17 18  2  0
 18 19  1  0
 19 20  2  0
 20 21  1  0
 21 22  2  0
 22 23  1  0
 22 24  1  0
 24 25  2  0
 18 26  1  0
 26 27  2  0
 27 28  1  0
 28 29  1  0
 29 30  1  0
 30 31  1  0
 31 32  1  0
 32 33  1  0
 33 34  1  0
 16 35  2  0
 10  5  1  0
 35 12  1  0
 28 17  1  0
 34 29  1  0
 25 19  1  0
M  END
>  <Compound_ID>  (273) 
CHEMBL1785002

>  <Molecule Name>  (273) 
nan

>  <Molecular Weight>  (273) 
472.52

>  <AlogP>  (273) 
3.89

>  <Smiles>  (273) 
NC(=O)Cc1ccccc1Oc1nccc(-c2c(-c3ccc(F)cc3)ncn2C2CCNCC2)n1

>  <Standard Type>  (273) 
Inhibition

>  <Standard Relation>  (273) 
'='

>  <Standard Units>  (273) 
%

>  <Standard Value>  (273) 
2.67

>  <Assay ChEMBL ID>  (273) 
CHEMBL1962142

>  <Assay Description>  (273) 
GSK_PKIS: MET mean inhibition at 0.1 uM [Nanosyn]

>  <BAO Format ID>  (273) 
BAO_0000357

>  <BAO Label>  (273) 
single protein format

>  <Assay Organism>  (273) 
None

>  <Target ChEMBL ID>  (273) 
CHEMBL3717

>  <Target Name>  (273) 
Hepatocyte growth factor receptor

>  <Target Organism>  (273) 
Homo sapiens

>  <Target Type>  (273) 
SINGLE PROTEIN

>  <Document ChEMBL ID>  (273) 
CHEMBL1961873

>  <Source Description>  (273) 
GSK Published Kinase Inhibitor Set

>  <Document Journal>  (273) 
nan

>  <Document Year>  (273) 
nan

>  <Active>  (273) 
0.0

$$$$

     RDKit          2D

 33 37  0  0  0  0  0  0  0  0999 V2000
   -0.0967    5.1517    0.0000 C   0  0  0  0  0  0  0  0  0  0  0  0
   -0.4086    3.6844    0.0000 C   0  0  0  0  0  0  0  0  0  0  0  0
    0.7062    2.6807    0.0000 O   0  0  0  0  0  0  0  0  0  0  0  0
    0.3943    1.2135    0.0000 C   0  0  0  0  0  0  0  0  0  0  0  0
    1.2760    0.0000    0.0000 C   0  0  0  0  0  0  0  0  0  0  0  0
    0.3943   -1.2135    0.0000 C   0  0  0  0  0  0  0  0  0  0  0  0
    0.8578   -2.6401    0.0000 O   0  0  0  0  0  0  0  0  0  0  0  0
   -1.0323   -0.7500    0.0000 O   0  0  0  0  0  0  0  0  0  0  0  0
   -1.0323    0.7500    0.0000 C   0  0  0  0  0  0  0  0  0  0  0  0
   -2.1470    1.7537    0.0000 C   0  0  0  0  0  0  0  0  0  0  0  0
   -1.8351    3.2209    0.0000 C   0  0  0  0  0  0  0  0  0  0  0  0
   -2.9499    4.2246    0.0000 C   0  0  0  0  0  0  0  0  0  0  0  0
   -2.6380    5.6918    0.0000 O   0  0  0  0  0  0  0  0  0  0  0  0
   -4.3764    3.7611    0.0000 C   0  0  0  0  0  0  0  0  0  0  0  0
   -4.6883    2.2939    0.0000 C   0  0  0  0  0  0  0  0  0  0  0  0
   -6.1149    1.8303    0.0000 C   0  0  0  0  0  0  0  0  0  0  0  0
   -7.2296    2.8340    0.0000 C   0  0  0  0  0  0  0  0  0  0  0  0
   -6.9177    4.3013    0.0000 C   0  0  0  0  0  0  0  0  0  0  0  0
   -8.0325    5.3050    0.0000 C   0  0  0  0  0  0  0  0  0  0  0  0
   -7.7206    6.7722    0.0000 C   0  0  0  0  0  0  0  0  0  0  0  0
   -8.8353    7.7759    0.0000 C   0  0  0  0  0  0  0  0  0  0  0  0
   -8.5234    9.2431    0.0000 N   0  0  0  0  0  0  0  0  0  0  0  0
   -7.0969    9.7066    0.0000 C   0  0  0  0  0  0  0  0  0  0  0  0
   -9.6382   10.2468    0.0000 C   0  0  0  0  0  0  0  0  0  0  0  0
  -10.2619    7.3123    0.0000 C   0  0  0  0  0  0  0  0  0  0  0  0
  -11.3766    8.3160    0.0000 O   0  0  0  0  0  0  0  0  0  0  0  0
  -10.5738    5.8451    0.0000 C   0  0  0  0  0  0  0  0  0  0  0  0
  -12.0003    5.3816    0.0000 C   0  0  0  0  0  0  0  0  0  0  0  0
   -9.4590    4.8414    0.0000 O   0  0  0  0  0  0  0  0  0  0  0  0
   -5.4912    4.7648    0.0000 C   0  0  0  0  0  0  0  0  0  0  0  0
   -5.1793    6.2320    0.0000 O   0  0  0  0  0  0  0  0  0  0  0  0
   -3.5736    1.2902    0.0000 C   0  0  0  0  0  0  0  0  0  0  0  0
   -3.8855   -0.1771    0.0000 O   0  0  0  0  0  0  0  0  0  0  0  0
  2  1  1  1
  2  3  1  0
  3  4  1  0
  4  5  1  6
  5  6  1  0
  6  7  2  0
  6  8  1  0
  9  8  1  6
  9 10  1  0
 10 11  2  0
 11 12  1  0
 12 13  2  0
 12 14  1  0
 14 15  2  0
 15 16  1  0
 16 17  2  0
 17 18  1  0
 19 18  1  6
 19 20  1  0
 20 21  1  0
 21 22  1  6
 22 23  1  0
 22 24  1  0
 21 25  1  0
 25 26  1  1
 25 27  1  0
 27 28  1  6
 27 29  1  0
 18 30  2  0
 30 31  1  0
 15 32  1  0
 32 33  2  0
 11  2  1  0
 30 14  1  0
  9  4  1  0
 32 10  1  0
 29 19  1  0
M  END
>  <Compound_ID>  (274) 
CHEMBL2216825

>  <Molecule Name>  (274) 
LACTOQUINOMYCIN

>  <Molecular Weight>  (274) 
457.48

>  <AlogP>  (274) 
1.31

>  <Smiles>  (274) 
C[C@H]1O[C@@H]2CC(=O)O[C@@H]2C2=C1C(=O)c1c(ccc([C@H]3C[C@@H](N(C)C)[C@H](O)[C@@H](C)O3)c1O)C2=O

>  <Standard Type>  (274) 
Inhibition

>  <Standard Relation>  (274) 
'='

>  <Standard Units>  (274) 
%

>  <Standard Value>  (274) 
14.0

>  <Assay ChEMBL ID>  (274) 
CHEMBL1019627

>  <Assay Description>  (274) 
Inhibition of MET at 1 uM

>  <BAO Format ID>  (274) 
BAO_0000357

>  <BAO Label>  (274) 
single protein format

>  <Assay Organism>  (274) 
None

>  <Target ChEMBL ID>  (274) 
CHEMBL3717

>  <Target Name>  (274) 
Hepatocyte growth factor receptor

>  <Target Organism>  (274) 
Homo sapiens

>  <Target Type>  (274) 
SINGLE PROTEIN

>  <Document ChEMBL ID>  (274) 
CHEMBL1153413

>  <Source Description>  (274) 
Scientific Literature

>  <Document Journal>  (274) 
J Med Chem

>  <Document Year>  (274) 
2009.0

>  <Active>  (274) 
0.0

$$$$

     RDKit          2D

 32 35  0  0  0  0  0  0  0  0999 V2000
   -3.0000   -2.5981    0.0000 C   0  0  0  0  0  0  0  0  0  0  0  0
   -1.5000   -2.5981    0.0000 N   0  0  0  0  0  0  0  0  0  0  0  0
   -0.7500   -3.8971    0.0000 C   0  0  0  0  0  0  0  0  0  0  0  0
   -1.5000   -5.1962    0.0000 O   0  0  0  0  0  0  0  0  0  0  0  0
    0.7500   -3.8971    0.0000 C   0  0  0  0  0  0  0  0  0  0  0  0
    1.5000   -5.1962    0.0000 O   0  0  0  0  0  0  0  0  0  0  0  0
    0.7500   -6.4952    0.0000 C   0  0  0  0  0  0  0  0  0  0  0  0
   -0.7500   -6.4952    0.0000 C   0  0  0  0  0  0  0  0  0  0  0  0
   -1.5000   -7.7942    0.0000 C   0  0  0  0  0  0  0  0  0  0  0  0
   -0.7500   -9.0933    0.0000 C   0  0  0  0  0  0  0  0  0  0  0  0
   -1.5000  -10.3923    0.0000 F   0  0  0  0  0  0  0  0  0  0  0  0
    0.7500   -9.0933    0.0000 C   0  0  0  0  0  0  0  0  0  0  0  0
    1.5000   -7.7942    0.0000 C   0  0  0  0  0  0  0  0  0  0  0  0
    3.0000   -7.7942    0.0000 F   0  0  0  0  0  0  0  0  0  0  0  0
    1.5000   -2.5981    0.0000 C   0  0  0  0  0  0  0  0  0  0  0  0
    0.7500   -1.2990    0.0000 C   0  0  0  0  0  0  0  0  0  0  0  0
    1.5000    0.0000    0.0000 C   0  0  0  0  0  0  0  0  0  0  0  0
    0.7500    1.2990    0.0000 N   0  0  0  0  0  0  0  0  0  0  0  0
   -0.7500    1.2990    0.0000 C   0  0  0  0  0  0  0  0  0  0  0  0
   -1.5000    2.5981    0.0000 N   0  0  0  0  0  0  0  0  0  0  0  0
   -0.7500    3.8971    0.0000 C   0  0  0  0  0  0  0  0  0  0  0  0
    0.7500    3.8971    0.0000 C   0  0  0  0  0  0  0  0  0  0  0  0
    1.5000    5.1962    0.0000 C   0  0  0  0  0  0  0  0  0  0  0  0
    0.7500    6.4952    0.0000 N   0  0  0  0  0  0  0  0  0  0  0  0
    1.5000    7.7942    0.0000 S   0  0  0  0  0  0  0  0  0  0  0  0
    2.2500    9.0933    0.0000 C   0  0  0  0  0  0  0  0  0  0  0  0
    0.2010    8.5442    0.0000 O   0  0  0  0  0  0  0  0  0  0  0  0
    2.7990    7.0442    0.0000 O   0  0  0  0  0  0  0  0  0  0  0  0
   -0.7500    6.4952    0.0000 C   0  0  0  0  0  0  0  0  0  0  0  0
   -1.5000    5.1962    0.0000 C   0  0  0  0  0  0  0  0  0  0  0  0
   -1.5000    0.0000    0.0000 N   0  0  0  0  0  0  0  0  0  0  0  0
   -0.7500   -1.2990    0.0000 C   0  0  0  0  0  0  0  0  0  0  0  0
  1  2  1  0
  2  3  1  0
  3  4  2  0
  3  5  1  0
  5  6  1  0
  6  7  1  0
  7  8  2  0
  8  9  1  0
  9 10  2  0
 10 11  1  0
 10 12  1  0
 12 13  2  0
 13 14  1  0
  5 15  2  0
 15 16  1  0
 16 17  2  0
 17 18  1  0
 18 19  2  0
 19 20  1  0
 20 21  1  0
 21 22  1  0
 22 23  1  0
 23 24  1  0
 24 25  1  0
 25 26  1  0
 25 27  2  0
 25 28  2  0
 24 29  1  0
 29 30  1  0
 19 31  1  0
 31 32  2  0
 32  2  1  0
 13  7  1  0
 32 16  1  0
 30 21  1  0
M  END
>  <Compound_ID>  (275) 
CHEMBL3747699

>  <Molecule Name>  (275) 
nan

>  <Molecular Weight>  (275) 
465.48

>  <AlogP>  (275) 
2.23

>  <Smiles>  (275) 
Cn1c(=O)c(Oc2ccc(F)cc2F)cc2cnc(NC3CCN(S(C)(=O)=O)CC3)nc21

>  <Standard Type>  (275) 
Inhibition

>  <Standard Relation>  (275) 
'='

>  <Standard Units>  (275) 
%

>  <Standard Value>  (275) 
0.0

>  <Assay ChEMBL ID>  (275) 
CHEMBL3750644

>  <Assay Description>  (275) 
Inhibition of cMET (unknown origin) at 10 uM

>  <BAO Format ID>  (275) 
BAO_0000357

>  <BAO Label>  (275) 
single protein format

>  <Assay Organism>  (275) 
Homo sapiens

>  <Target ChEMBL ID>  (275) 
CHEMBL3717

>  <Target Name>  (275) 
Hepatocyte growth factor receptor

>  <Target Organism>  (275) 
Homo sapiens

>  <Target Type>  (275) 
SINGLE PROTEIN

>  <Document ChEMBL ID>  (275) 
CHEMBL3745672

>  <Source Description>  (275) 
Scientific Literature

>  <Document Journal>  (275) 
Bioorg Med Chem Lett

>  <Document Year>  (275) 
2016.0

>  <Active>  (275) 
0.0

$$$$

     RDKit          2D

 26 29  0  0  0  0  0  0  0  0999 V2000
   -9.1645    1.7722    0.0000 C   0  0  0  0  0  0  0  0  0  0  0  0
   -8.0498    0.7685    0.0000 O   0  0  0  0  0  0  0  0  0  0  0  0
   -6.6232    1.2320    0.0000 C   0  0  0  0  0  0  0  0  0  0  0  0
   -6.3114    2.6992    0.0000 C   0  0  0  0  0  0  0  0  0  0  0  0
   -4.8848    3.1627    0.0000 C   0  0  0  0  0  0  0  0  0  0  0  0
   -3.7701    2.1590    0.0000 C   0  0  0  0  0  0  0  0  0  0  0  0
   -4.0819    0.6918    0.0000 C   0  0  0  0  0  0  0  0  0  0  0  0
   -2.9672   -0.3119    0.0000 N   0  0  0  0  0  0  0  0  0  0  0  0
   -3.1240   -1.8037    0.0000 C   0  0  0  0  0  0  0  0  0  0  0  0
   -1.7537   -2.4138    0.0000 N   0  0  0  0  0  0  0  0  0  0  0  0
   -0.7500   -1.2990    0.0000 C   0  0  0  0  0  0  0  0  0  0  0  0
    0.7500   -1.2990    0.0000 C   0  0  0  0  0  0  0  0  0  0  0  0
    1.5000   -2.5981    0.0000 N   0  0  0  0  0  0  0  0  0  0  0  0
    3.0000   -2.5981    0.0000 N   0  0  0  0  0  0  0  0  0  0  0  0
    3.7500   -3.8971    0.0000 C   0  0  0  0  0  0  0  0  0  0  0  0
    5.2500   -3.8971    0.0000 C   0  0  0  0  0  0  0  0  0  0  0  0
    6.0000   -5.1962    0.0000 C   0  0  0  0  0  0  0  0  0  0  0  0
    7.5000   -5.1962    0.0000 C   0  0  0  0  0  0  0  0  0  0  0  0
    8.2500   -3.8971    0.0000 N   0  0  0  0  0  0  0  0  0  0  0  0
    7.5000   -2.5981    0.0000 C   0  0  0  0  0  0  0  0  0  0  0  0
    6.0000   -2.5981    0.0000 C   0  0  0  0  0  0  0  0  0  0  0  0
    1.5000    0.0000    0.0000 N   0  0  0  0  0  0  0  0  0  0  0  0
    0.7500    1.2990    0.0000 C   0  0  0  0  0  0  0  0  0  0  0  0
   -0.7500    1.2990    0.0000 N   0  0  0  0  0  0  0  0  0  0  0  0
   -1.5000    0.0000    0.0000 C   0  0  0  0  0  0  0  0  0  0  0  0
   -5.5085    0.2283    0.0000 C   0  0  0  0  0  0  0  0  0  0  0  0
  1  2  1  0
  2  3  1  0
  3  4  2  0
  4  5  1  0
  5  6  2  0
  6  7  1  0
  7  8  1  0
  8  9  1  0
  9 10  2  0
 10 11  1  0
 11 12  2  0
 12 13  1  0
 13 14  1  0
 14 15  2  0
 15 16  1  0
 16 17  2  0
 17 18  1  0
 18 19  2  0
 19 20  1  0
 20 21  2  0
 12 22  1  0
 22 23  2  0
 23 24  1  0
 24 25  2  0
  7 26  2  0
 26  3  1  0
 25  8  1  0
 25 11  1  0
 21 16  1  0
M  END
>  <Compound_ID>  (276) 
CHEMBL204934

>  <Molecule Name>  (276) 
GW813360X

>  <Molecular Weight>  (276) 
345.37

>  <AlogP>  (276) 
2.67

>  <Smiles>  (276) 
COc1cccc(-n2cnc3c(N/N=C/c4ccncc4)ncnc32)c1

>  <Standard Type>  (276) 
Inhibition

>  <Standard Relation>  (276) 
'='

>  <Standard Units>  (276) 
%

>  <Standard Value>  (276) 
0.87

>  <Assay ChEMBL ID>  (276) 
CHEMBL1962142

>  <Assay Description>  (276) 
GSK_PKIS: MET mean inhibition at 0.1 uM [Nanosyn]

>  <BAO Format ID>  (276) 
BAO_0000357

>  <BAO Label>  (276) 
single protein format

>  <Assay Organism>  (276) 
None

>  <Target ChEMBL ID>  (276) 
CHEMBL3717

>  <Target Name>  (276) 
Hepatocyte growth factor receptor

>  <Target Organism>  (276) 
Homo sapiens

>  <Target Type>  (276) 
SINGLE PROTEIN

>  <Document ChEMBL ID>  (276) 
CHEMBL1961873

>  <Source Description>  (276) 
GSK Published Kinase Inhibitor Set

>  <Document Journal>  (276) 
nan

>  <Document Year>  (276) 
nan

>  <Active>  (276) 
0.0

$$$$

     RDKit          2D

 28 30  0  0  0  0  0  0  0  0999 V2000
    6.7500    1.2990    0.0000 C   0  0  0  0  0  0  0  0  0  0  0  0
    5.2500    1.2990    0.0000 C   0  0  0  0  0  0  0  0  0  0  0  0
    4.5000    0.0000    0.0000 N   0  0  0  0  0  0  0  0  0  0  0  0
    5.2500   -1.2990    0.0000 C   0  0  0  0  0  0  0  0  0  0  0  0
    6.7500   -1.2990    0.0000 C   0  0  0  0  0  0  0  0  0  0  0  0
    3.0000    0.0000    0.0000 S   0  0  0  0  0  0  0  0  0  0  0  0
    3.0000   -1.5000    0.0000 O   0  0  0  0  0  0  0  0  0  0  0  0
    3.0000    1.5000    0.0000 O   0  0  0  0  0  0  0  0  0  0  0  0
    1.5000    0.0000    0.0000 C   0  0  0  0  0  0  0  0  0  0  0  0
    0.7500   -1.2990    0.0000 C   0  0  0  0  0  0  0  0  0  0  0  0
   -0.7500   -1.2990    0.0000 C   0  0  0  0  0  0  0  0  0  0  0  0
   -1.5000    0.0000    0.0000 C   0  0  0  0  0  0  0  0  0  0  0  0
   -3.0000    0.0000    0.0000 O   0  0  0  0  0  0  0  0  0  0  0  0
   -3.7500   -1.2990    0.0000 C   0  0  0  0  0  0  0  0  0  0  0  0
   -0.7500    1.2990    0.0000 C   0  0  0  0  0  0  0  0  0  0  0  0
   -1.5000    2.5981    0.0000 N   0  0  0  0  0  0  0  0  0  0  0  0
   -0.7500    3.8971    0.0000 C   0  0  0  0  0  0  0  0  0  0  0  0
   -1.3601    5.2674    0.0000 N   0  0  0  0  0  0  0  0  0  0  0  0
   -0.2454    6.2711    0.0000 C   0  0  0  0  0  0  0  0  0  0  0  0
    1.0537    5.5211    0.0000 C   0  0  0  0  0  0  0  0  0  0  0  0
    2.4240    6.1312    0.0000 C   0  0  0  0  0  0  0  0  0  0  0  0
    3.6375    5.2496    0.0000 C   0  0  0  0  0  0  0  0  0  0  0  0
    5.0078    5.8597    0.0000 C   0  0  0  0  0  0  0  0  0  0  0  0
    5.1646    7.3514    0.0000 C   0  0  0  0  0  0  0  0  0  0  0  0
    3.9511    8.2331    0.0000 C   0  0  0  0  0  0  0  0  0  0  0  0
    2.5808    7.6230    0.0000 C   0  0  0  0  0  0  0  0  0  0  0  0
    0.7418    4.0539    0.0000 O   0  0  0  0  0  0  0  0  0  0  0  0
    0.7500    1.2990    0.0000 C   0  0  0  0  0  0  0  0  0  0  0  0
  1  2  1  0
  2  3  1  0
  3  4  1  0
  4  5  1  0
  3  6  1  0
  6  7  2  0
  6  8  2  0
  6  9  1  0
  9 10  2  0
 10 11  1  0
 11 12  2  0
 12 13  1  0
 13 14  1  0
 12 15  1  0
 15 16  1  0
 16 17  1  0
 17 18  2  0
 18 19  1  0
 19 20  2  0
 20 21  1  0
 21 22  2  0
 22 23  1  0
 23 24  2  0
 24 25  1  0
 25 26  2  0
 20 27  1  0
 15 28  2  0
 28  9  1  0
 27 17  1  0
 26 21  1  0
M  END
>  <Compound_ID>  (277) 
CHEMBL275473

>  <Molecule Name>  (277) 
GW572401X

>  <Molecular Weight>  (277) 
401.49

>  <AlogP>  (277) 
4.12

>  <Smiles>  (277) 
CCN(CC)S(=O)(=O)c1ccc(OC)c(Nc2ncc(-c3ccccc3)o2)c1

>  <Standard Type>  (277) 
Inhibition

>  <Standard Relation>  (277) 
'='

>  <Standard Units>  (277) 
%

>  <Standard Value>  (277) 
3.7

>  <Assay ChEMBL ID>  (277) 
CHEMBL1962142

>  <Assay Description>  (277) 
GSK_PKIS: MET mean inhibition at 0.1 uM [Nanosyn]

>  <BAO Format ID>  (277) 
BAO_0000357

>  <BAO Label>  (277) 
single protein format

>  <Assay Organism>  (277) 
None

>  <Target ChEMBL ID>  (277) 
CHEMBL3717

>  <Target Name>  (277) 
Hepatocyte growth factor receptor

>  <Target Organism>  (277) 
Homo sapiens

>  <Target Type>  (277) 
SINGLE PROTEIN

>  <Document ChEMBL ID>  (277) 
CHEMBL1961873

>  <Source Description>  (277) 
GSK Published Kinase Inhibitor Set

>  <Document Journal>  (277) 
nan

>  <Document Year>  (277) 
nan

>  <Active>  (277) 
0.0

$$$$

     RDKit          2D

 37 42  0  0  0  0  0  0  0  0999 V2000
    3.7500   -1.2990    0.0000 C   0  0  0  0  0  0  0  0  0  0  0  0
    3.0000   -2.5981    0.0000 C   0  0  0  0  0  0  0  0  0  0  0  0
    3.7500   -3.8971    0.0000 C   0  0  0  0  0  0  0  0  0  0  0  0
    3.0000   -5.1962    0.0000 C   0  0  0  0  0  0  0  0  0  0  0  0
    1.5000   -5.1962    0.0000 C   0  0  0  0  0  0  0  0  0  0  0  0
    0.7500   -6.4952    0.0000 C   0  0  0  0  0  0  0  0  0  0  0  0
    1.5000   -7.7942    0.0000 O   0  0  0  0  0  0  0  0  0  0  0  0
   -0.7500   -6.4952    0.0000 N   0  0  0  0  0  0  0  0  0  0  0  0
   -1.5000   -7.7942    0.0000 C   0  0  0  0  0  0  0  0  0  0  0  0
   -3.0000   -7.7942    0.0000 C   0  0  0  0  0  0  0  0  0  0  0  0
   -3.7500   -9.0933    0.0000 C   0  0  0  0  0  0  0  0  0  0  0  0
   -3.0000  -10.3923    0.0000 C   0  0  0  0  0  0  0  0  0  0  0  0
   -1.5000  -10.3923    0.0000 C   0  0  0  0  0  0  0  0  0  0  0  0
   -0.7500  -11.6913    0.0000 C   0  0  0  0  0  0  0  0  0  0  0  0
   -0.0000  -12.9904    0.0000 F   0  0  0  0  0  0  0  0  0  0  0  0
   -2.0490  -12.4413    0.0000 F   0  0  0  0  0  0  0  0  0  0  0  0
    0.5490  -10.9413    0.0000 F   0  0  0  0  0  0  0  0  0  0  0  0
   -0.7500   -9.0933    0.0000 C   0  0  0  0  0  0  0  0  0  0  0  0
    0.7500   -3.8971    0.0000 C   0  0  0  0  0  0  0  0  0  0  0  0
    1.5000   -2.5981    0.0000 C   0  0  0  0  0  0  0  0  0  0  0  0
    0.7500   -1.2990    0.0000 C   0  0  0  0  0  0  0  0  0  0  0  0
    1.5000    0.0000    0.0000 C   0  0  0  0  0  0  0  0  0  0  0  0
    0.7500    1.2990    0.0000 C   0  0  0  0  0  0  0  0  0  0  0  0
   -0.7500    1.2990    0.0000 C   0  0  0  0  0  0  0  0  0  0  0  0
   -1.7537    2.4138    0.0000 C   0  0  0  0  0  0  0  0  0  0  0  0
   -1.4418    3.8810    0.0000 C   0  0  0  0  0  0  0  0  0  0  0  0
   -2.4455    4.9957    0.0000 C   0  0  0  0  0  0  0  0  0  0  0  0
   -1.6955    6.2947    0.0000 N   0  0  0  0  0  0  0  0  0  0  0  0
   -0.2283    5.9829    0.0000 N   0  0  0  0  0  0  0  0  0  0  0  0
    0.8864    6.9866    0.0000 C   0  0  0  0  0  0  0  0  0  0  0  0
    1.3499    8.4131    0.0000 C   0  0  0  0  0  0  0  0  0  0  0  0
    2.3536    7.2984    0.0000 C   0  0  0  0  0  0  0  0  0  0  0  0
   -0.0715    4.4911    0.0000 C   0  0  0  0  0  0  0  0  0  0  0  0
   -3.1240    1.8037    0.0000 N   0  0  0  0  0  0  0  0  0  0  0  0
   -2.9672    0.3119    0.0000 N   0  0  0  0  0  0  0  0  0  0  0  0
   -1.5000    0.0000    0.0000 C   0  0  0  0  0  0  0  0  0  0  0  0
   -0.7500   -1.2990    0.0000 C   0  0  0  0  0  0  0  0  0  0  0  0
  1  2  1  0
  2  3  2  0
  3  4  1  0
  4  5  2  0
  5  6  1  0
  6  7  2  0
  6  8  1  0
  8  9  1  0
  9 10  2  0
 10 11  1  0
 11 12  2  0
 12 13  1  0
 13 14  1  0
 14 15  1  0
 14 16  1  0
 14 17  1  0
 13 18  2  0
  5 19  1  0
 19 20  2  0
 20 21  1  0
 21 22  2  0
 22 23  1  0
 23 24  2  0
 24 25  1  0
 25 26  1  0
 26 27  1  0
 27 28  2  0
 28 29  1  0
 29 30  1  0
 30 31  1  0
 31 32  1  0
 29 33  1  0
 25 34  2  0
 34 35  1  0
 35 36  1  0
 36 37  2  0
 20  2  1  0
 37 21  1  0
 18  9  1  0
 36 24  1  0
 33 26  2  0
 32 30  1  0
M  END
>  <Compound_ID>  (278) 
CHEMBL4534119

>  <Molecule Name>  (278) 
nan

>  <Molecular Weight>  (278) 
501.51

>  <AlogP>  (278) 
7.01

>  <Smiles>  (278) 
Cc1ccc(C(=O)Nc2cccc(C(F)(F)F)c2)cc1-c1ccc2c(-c3cnn(C4CC4)c3)n[nH]c2c1

>  <Standard Type>  (278) 
Inhibition

>  <Standard Relation>  (278) 
'='

>  <Standard Units>  (278) 
%

>  <Standard Value>  (278) 
0.3

>  <Assay ChEMBL ID>  (278) 
CHEMBL4412366

>  <Assay Description>  (278) 
Inhibition of c-Met (unknown origin) at 100 nM relative to control

>  <BAO Format ID>  (278) 
BAO_0000357

>  <BAO Label>  (278) 
single protein format

>  <Assay Organism>  (278) 
Homo sapiens

>  <Target ChEMBL ID>  (278) 
CHEMBL3717

>  <Target Name>  (278) 
Hepatocyte growth factor receptor

>  <Target Organism>  (278) 
Homo sapiens

>  <Target Type>  (278) 
SINGLE PROTEIN

>  <Document ChEMBL ID>  (278) 
CHEMBL4411287

>  <Source Description>  (278) 
Scientific Literature

>  <Document Journal>  (278) 
Eur J Med Chem

>  <Document Year>  (278) 
2019.0

>  <Active>  (278) 
0.0

$$$$

     RDKit          2D

 38 41  0  0  0  0  0  0  0  0999 V2000
   -2.9716   -7.4453    0.0000 C   0  0  0  0  0  0  0  0  0  0  0  0
   -2.5081   -6.0187    0.0000 N   0  0  0  0  0  0  0  0  0  0  0  0
   -3.5118   -4.9040    0.0000 C   0  0  0  0  0  0  0  0  0  0  0  0
   -1.0409   -5.7068    0.0000 C   0  0  0  0  0  0  0  0  0  0  0  0
   -0.5773   -4.2803    0.0000 C   0  0  0  0  0  0  0  0  0  0  0  0
    0.8899   -3.9684    0.0000 N   0  0  0  0  0  0  0  0  0  0  0  0
    2.0046   -4.9721    0.0000 C   0  0  0  0  0  0  0  0  0  0  0  0
    3.3037   -4.2221    0.0000 N   0  0  0  0  0  0  0  0  0  0  0  0
    2.9918   -2.7549    0.0000 N   0  0  0  0  0  0  0  0  0  0  0  0
    1.5000   -2.5981    0.0000 C   0  0  0  0  0  0  0  0  0  0  0  0
    0.7500   -1.2990    0.0000 C   0  0  0  0  0  0  0  0  0  0  0  0
    1.5000    0.0000    0.0000 C   0  0  0  0  0  0  0  0  0  0  0  0
    0.7500    1.2990    0.0000 C   0  0  0  0  0  0  0  0  0  0  0  0
    1.5000    2.5981    0.0000 O   0  0  0  0  0  0  0  0  0  0  0  0
    3.0000    2.5981    0.0000 C   0  0  0  0  0  0  0  0  0  0  0  0
    3.7500    1.2990    0.0000 C   0  0  0  0  0  0  0  0  0  0  0  0
    5.2500    1.2990    0.0000 C   0  0  0  0  0  0  0  0  0  0  0  0
    6.0000    2.5981    0.0000 C   0  0  0  0  0  0  0  0  0  0  0  0
    7.5000    2.5981    0.0000 N   0  0  0  0  0  0  0  0  0  0  0  0
    8.2500    1.2990    0.0000 C   0  0  0  0  0  0  0  0  0  0  0  0
    7.5000   -0.0000    0.0000 O   0  0  0  0  0  0  0  0  0  0  0  0
    9.7500    1.2990    0.0000 N   0  0  0  0  0  0  0  0  0  0  0  0
   10.5000   -0.0000    0.0000 N   0  0  0  0  0  0  0  0  0  0  0  0
   12.0000   -0.0000    0.0000 C   0  0  0  0  0  0  0  0  0  0  0  0
   12.7500   -1.2990    0.0000 C   0  0  0  0  0  0  0  0  0  0  0  0
   12.0000   -2.5981    0.0000 C   0  0  0  0  0  0  0  0  0  0  0  0
   12.7500   -3.8971    0.0000 C   0  0  0  0  0  0  0  0  0  0  0  0
   14.2500   -3.8971    0.0000 C   0  0  0  0  0  0  0  0  0  0  0  0
   15.0000   -2.5981    0.0000 C   0  0  0  0  0  0  0  0  0  0  0  0
   16.5000   -2.5981    0.0000 Cl  0  0  0  0  0  0  0  0  0  0  0  0
   14.2500   -1.2990    0.0000 C   0  0  0  0  0  0  0  0  0  0  0  0
   15.0000    0.0000    0.0000 Cl  0  0  0  0  0  0  0  0  0  0  0  0
    5.2500    3.8971    0.0000 C   0  0  0  0  0  0  0  0  0  0  0  0
    3.7500    3.8971    0.0000 C   0  0  0  0  0  0  0  0  0  0  0  0
    3.0000    5.1962    0.0000 F   0  0  0  0  0  0  0  0  0  0  0  0
   -0.7500    1.2990    0.0000 C   0  0  0  0  0  0  0  0  0  0  0  0
   -1.5000    0.0000    0.0000 C   0  0  0  0  0  0  0  0  0  0  0  0
   -0.7500   -1.2990    0.0000 N   0  0  0  0  0  0  0  0  0  0  0  0
  1  2  1  0
  2  3  1  0
  2  4  1  0
  4  5  1  0
  5  6  1  0
  6  7  1  0
  7  8  2  0
  8  9  1  0
  9 10  2  0
 10 11  1  0
 11 12  2  0
 12 13  1  0
 13 14  1  0
 14 15  1  0
 15 16  2  0
 16 17  1  0
 17 18  2  0
 18 19  1  0
 19 20  1  0
 20 21  2  0
 20 22  1  0
 22 23  1  0
 23 24  2  0
 24 25  1  0
 25 26  2  0
 26 27  1  0
 27 28  2  0
 28 29  1  0
 29 30  1  0
 29 31  2  0
 31 32  1  0
 18 33  1  0
 33 34  2  0
 34 35  1  0
 13 36  2  0
 36 37  1  0
 37 38  2  0
 10  6  1  0
 38 11  1  0
 34 15  1  0
 31 25  1  0
M  END
>  <Compound_ID>  (279) 
CHEMBL3262852

>  <Molecule Name>  (279) 
nan

>  <Molecular Weight>  (279) 
557.42

>  <AlogP>  (279) 
5.30

>  <Smiles>  (279) 
CN(C)CCn1cnnc1-c1cc(Oc2ccc(NC(=O)N/N=C/c3cccc(Cl)c3Cl)cc2F)ccn1

>  <Standard Type>  (279) 
Inhibition

>  <Standard Relation>  (279) 
'='

>  <Standard Units>  (279) 
%

>  <Standard Value>  (279) 
2.2

>  <Assay ChEMBL ID>  (279) 
CHEMBL3271573

>  <Assay Description>  (279) 
Inhibition of c-MET (unknown origin) at 10 uM after 20 mins by HTRF method

>  <BAO Format ID>  (279) 
BAO_0000357

>  <BAO Label>  (279) 
single protein format

>  <Assay Organism>  (279) 
Homo sapiens

>  <Target ChEMBL ID>  (279) 
CHEMBL3717

>  <Target Name>  (279) 
Hepatocyte growth factor receptor

>  <Target Organism>  (279) 
Homo sapiens

>  <Target Type>  (279) 
SINGLE PROTEIN

>  <Document ChEMBL ID>  (279) 
CHEMBL3259649

>  <Source Description>  (279) 
Scientific Literature

>  <Document Journal>  (279) 
Eur J Med Chem

>  <Document Year>  (279) 
2014.0

>  <Active>  (279) 
0.0

$$$$

     RDKit          2D

 23 25  0  0  0  0  0  0  0  0999 V2000
    3.7500   -1.2990    0.0000 N   0  0  0  0  0  0  0  0  0  0  0  0
    3.0000    0.0000    0.0000 C   0  0  0  0  0  0  0  0  0  0  0  0
    3.7500    1.2990    0.0000 O   0  0  0  0  0  0  0  0  0  0  0  0
    1.5000    0.0000    0.0000 C   0  0  0  0  0  0  0  0  0  0  0  0
    0.7500   -1.2990    0.0000 C   0  0  0  0  0  0  0  0  0  0  0  0
   -0.7500   -1.2990    0.0000 C   0  0  0  0  0  0  0  0  0  0  0  0
   -1.5000   -2.5981    0.0000 C   0  0  0  0  0  0  0  0  0  0  0  0
   -3.0000   -2.5981    0.0000 C   0  0  0  0  0  0  0  0  0  0  0  0
   -3.7500   -3.8971    0.0000 C   0  0  0  0  0  0  0  0  0  0  0  0
   -3.0000   -5.1962    0.0000 C   0  0  0  0  0  0  0  0  0  0  0  0
   -3.7500   -6.4952    0.0000 F   0  0  0  0  0  0  0  0  0  0  0  0
   -1.5000   -5.1962    0.0000 C   0  0  0  0  0  0  0  0  0  0  0  0
   -0.7500   -3.8971    0.0000 C   0  0  0  0  0  0  0  0  0  0  0  0
   -1.5000    0.0000    0.0000 C   0  0  0  0  0  0  0  0  0  0  0  0
   -0.7500    1.2990    0.0000 C   0  0  0  0  0  0  0  0  0  0  0  0
   -1.5000    2.5981    0.0000 C   0  0  0  0  0  0  0  0  0  0  0  0
   -0.7500    3.8971    0.0000 C   0  0  0  0  0  0  0  0  0  0  0  0
   -1.5000    5.1962    0.0000 C   0  0  0  0  0  0  0  0  0  0  0  0
   -3.0000    5.1962    0.0000 N   0  0  0  0  0  0  0  0  0  0  0  0
   -3.7500    3.8971    0.0000 C   0  0  0  0  0  0  0  0  0  0  0  0
   -3.0000    2.5981    0.0000 C   0  0  0  0  0  0  0  0  0  0  0  0
    0.7500    1.2990    0.0000 C   0  0  0  0  0  0  0  0  0  0  0  0
    1.5000    2.5981    0.0000 N   0  0  0  0  0  0  0  0  0  0  0  0
  1  2  1  0
  2  3  2  0
  2  4  1  0
  4  5  2  0
  5  6  1  0
  6  7  1  0
  7  8  2  0
  8  9  1  0
  9 10  2  0
 10 11  1  0
 10 12  1  0
 12 13  2  0
  6 14  2  0
 14 15  1  0
 15 16  1  0
 16 17  2  0
 17 18  1  0
 18 19  2  0
 19 20  1  0
 20 21  2  0
 15 22  2  0
 22 23  1  0
 22  4  1  0
 13  7  1  0
 21 16  1  0
M  END
>  <Compound_ID>  (280) 
CHEMBL231623

>  <Molecule Name>  (280) 
GSK-620503A

>  <Molecular Weight>  (280) 
307.33

>  <AlogP>  (280) 
3.24

>  <Smiles>  (280) 
NC(=O)c1cc(-c2ccc(F)cc2)cc(-c2ccncc2)c1N

>  <Standard Type>  (280) 
Inhibition

>  <Standard Relation>  (280) 
'='

>  <Standard Units>  (280) 
%

>  <Standard Value>  (280) 
3.9

>  <Assay ChEMBL ID>  (280) 
CHEMBL1962142

>  <Assay Description>  (280) 
GSK_PKIS: MET mean inhibition at 0.1 uM [Nanosyn]

>  <BAO Format ID>  (280) 
BAO_0000357

>  <BAO Label>  (280) 
single protein format

>  <Assay Organism>  (280) 
None

>  <Target ChEMBL ID>  (280) 
CHEMBL3717

>  <Target Name>  (280) 
Hepatocyte growth factor receptor

>  <Target Organism>  (280) 
Homo sapiens

>  <Target Type>  (280) 
SINGLE PROTEIN

>  <Document ChEMBL ID>  (280) 
CHEMBL1961873

>  <Source Description>  (280) 
GSK Published Kinase Inhibitor Set

>  <Document Journal>  (280) 
nan

>  <Document Year>  (280) 
nan

>  <Active>  (280) 
0.0

$$$$

     RDKit          2D

 27 31  0  0  0  0  0  0  0  0999 V2000
    4.6740   -4.8322    0.0000 C   0  0  0  0  0  0  0  0  0  0  0  0
    3.3037   -4.2221    0.0000 N   0  0  0  0  0  0  0  0  0  0  0  0
    2.9918   -2.7549    0.0000 C   0  0  0  0  0  0  0  0  0  0  0  0
    1.5000   -2.5981    0.0000 C   0  0  0  0  0  0  0  0  0  0  0  0
    0.7500   -1.2990    0.0000 C   0  0  0  0  0  0  0  0  0  0  0  0
    1.5000    0.0000    0.0000 C   0  0  0  0  0  0  0  0  0  0  0  0
    0.7500    1.2990    0.0000 N   0  0  0  0  0  0  0  0  0  0  0  0
   -0.7500    1.2990    0.0000 C   0  0  0  0  0  0  0  0  0  0  0  0
   -1.7537    2.4138    0.0000 N   0  0  0  0  0  0  0  0  0  0  0  0
   -3.1240    1.8037    0.0000 C   0  0  0  0  0  0  0  0  0  0  0  0
   -2.9672    0.3119    0.0000 C   0  0  0  0  0  0  0  0  0  0  0  0
   -4.0819   -0.6918    0.0000 C   0  0  0  0  0  0  0  0  0  0  0  0
   -3.9251   -2.1836    0.0000 C   0  0  0  0  0  0  0  0  0  0  0  0
   -5.2955   -2.7937    0.0000 N   0  0  0  0  0  0  0  0  0  0  0  0
   -6.2992   -1.6790    0.0000 N   0  0  0  0  0  0  0  0  0  0  0  0
   -7.7909   -1.8358    0.0000 C   0  0  0  0  0  0  0  0  0  0  0  0
   -8.6726   -0.6223    0.0000 C   0  0  0  0  0  0  0  0  0  0  0  0
   -8.0625    0.7481    0.0000 C   0  0  0  0  0  0  0  0  0  0  0  0
   -8.9442    1.9616    0.0000 C   0  0  0  0  0  0  0  0  0  0  0  0
  -10.4360    1.8048    0.0000 C   0  0  0  0  0  0  0  0  0  0  0  0
  -11.0461    0.4345    0.0000 C   0  0  0  0  0  0  0  0  0  0  0  0
  -10.1644   -0.7791    0.0000 C   0  0  0  0  0  0  0  0  0  0  0  0
   -5.5492   -0.3800    0.0000 C   0  0  0  0  0  0  0  0  0  0  0  0
   -1.5000    0.0000    0.0000 C   0  0  0  0  0  0  0  0  0  0  0  0
   -0.7500   -1.2990    0.0000 C   0  0  0  0  0  0  0  0  0  0  0  0
    0.8899   -3.9684    0.0000 C   0  0  0  0  0  0  0  0  0  0  0  0
    2.0046   -4.9721    0.0000 N   0  0  0  0  0  0  0  0  0  0  0  0
  1  2  1  0
  2  3  1  0
  3  4  2  0
  4  5  1  0
  5  6  2  0
  6  7  1  0
  7  8  2  0
  8  9  1  0
  9 10  1  0
 10 11  2  0
 11 12  1  0
 12 13  1  0
 13 14  2  0
 14 15  1  0
 15 16  1  0
 16 17  1  0
 17 18  2  0
 18 19  1  0
 19 20  2  0
 20 21  1  0
 21 22  2  0
 15 23  1  0
 11 24  1  0
 24 25  2  0
  4 26  1  0
 26 27  2  0
 27  2  1  0
 25  5  1  0
 24  8  1  0
 23 12  2  0
 22 17  1  0
M  END
>  <Compound_ID>  (281) 
CHEMBL2418750

>  <Molecule Name>  (281) 
nan

>  <Molecular Weight>  (281) 
354.42

>  <AlogP>  (281) 
3.88

>  <Smiles>  (281) 
Cn1cc(-c2cnc3[nH]cc(-c4cnn(Cc5ccccc5)c4)c3c2)cn1

>  <Standard Type>  (281) 
Inhibition

>  <Standard Relation>  (281) 
'='

>  <Standard Units>  (281) 
%

>  <Standard Value>  (281) 
7.0

>  <Assay ChEMBL ID>  (281) 
CHEMBL2423636

>  <Assay Description>  (281) 
Inhibition of c-Met (unknown origin) at 100 nM

>  <BAO Format ID>  (281) 
BAO_0000357

>  <BAO Label>  (281) 
single protein format

>  <Assay Organism>  (281) 
Homo sapiens

>  <Target ChEMBL ID>  (281) 
CHEMBL3717

>  <Target Name>  (281) 
Hepatocyte growth factor receptor

>  <Target Organism>  (281) 
Homo sapiens

>  <Target Type>  (281) 
SINGLE PROTEIN

>  <Document ChEMBL ID>  (281) 
CHEMBL2417505

>  <Source Description>  (281) 
Scientific Literature

>  <Document Journal>  (281) 
Bioorg Med Chem Lett

>  <Document Year>  (281) 
2013.0

>  <Active>  (281) 
0.0

$$$$

     RDKit          2D

 23 25  0  0  0  0  0  0  0  0999 V2000
    3.0000   -0.0000    0.0000 C   0  0  0  0  0  0  0  0  0  0  0  0
    3.7500   -1.2990    0.0000 C   0  0  0  0  0  0  0  0  0  0  0  0
    5.2500   -1.2990    0.0000 C   0  0  0  0  0  0  0  0  0  0  0  0
    6.0000   -2.5981    0.0000 C   0  0  0  0  0  0  0  0  0  0  0  0
    5.2500   -3.8971    0.0000 C   0  0  0  0  0  0  0  0  0  0  0  0
    6.0000   -5.1962    0.0000 O   0  0  0  0  0  0  0  0  0  0  0  0
    3.7500   -3.8971    0.0000 C   0  0  0  0  0  0  0  0  0  0  0  0
    3.0000   -2.5981    0.0000 C   0  0  0  0  0  0  0  0  0  0  0  0
    1.5000   -2.5981    0.0000 N   0  0  0  0  0  0  0  0  0  0  0  0
    0.7500   -1.2990    0.0000 C   0  0  0  0  0  0  0  0  0  0  0  0
    1.5000    0.0000    0.0000 C   0  0  0  0  0  0  0  0  0  0  0  0
    0.7500    1.2990    0.0000 C   0  0  0  0  0  0  0  0  0  0  0  0
   -0.7500    1.2990    0.0000 N   0  0  0  0  0  0  0  0  0  0  0  0
   -1.5000    0.0000    0.0000 C   0  0  0  0  0  0  0  0  0  0  0  0
   -3.0000    0.0000    0.0000 C   0  0  0  0  0  0  0  0  0  0  0  0
   -3.7500   -1.2990    0.0000 C   0  0  0  0  0  0  0  0  0  0  0  0
   -3.0000   -2.5981    0.0000 C   0  0  0  0  0  0  0  0  0  0  0  0
   -3.7500   -3.8971    0.0000 S   0  0  0  0  0  0  0  0  0  0  0  0
   -4.5000   -5.1962    0.0000 C   0  0  0  0  0  0  0  0  0  0  0  0
   -2.4510   -4.6471    0.0000 O   0  0  0  0  0  0  0  0  0  0  0  0
   -5.0490   -3.1471    0.0000 O   0  0  0  0  0  0  0  0  0  0  0  0
   -1.5000   -2.5981    0.0000 C   0  0  0  0  0  0  0  0  0  0  0  0
   -0.7500   -1.2990    0.0000 C   0  0  0  0  0  0  0  0  0  0  0  0
  1  2  1  0
  2  3  2  0
  3  4  1  0
  4  5  2  0
  5  6  1  0
  5  7  1  0
  7  8  2  0
  8  9  1  0
  9 10  1  0
 10 11  2  0
 11 12  1  0
 12 13  2  0
 13 14  1  0
 14 15  2  0
 15 16  1  0
 16 17  2  0
 17 18  1  0
 18 19  1  0
 18 20  2  0
 18 21  2  0
 17 22  1  0
 22 23  2  0
  8  2  1  0
 23 10  1  0
 23 14  1  0
M  END
>  <Compound_ID>  (282) 
CHEMBL237347

>  <Molecule Name>  (282) 
GW559768X

>  <Molecular Weight>  (282) 
328.39

>  <AlogP>  (282) 
3.40

>  <Smiles>  (282) 
Cc1ccc(O)cc1Nc1ccnc2ccc(S(C)(=O)=O)cc12

>  <Standard Type>  (282) 
Inhibition

>  <Standard Relation>  (282) 
'='

>  <Standard Units>  (282) 
%

>  <Standard Value>  (282) 
-0.38

>  <Assay ChEMBL ID>  (282) 
CHEMBL1962143

>  <Assay Description>  (282) 
GSK_PKIS: MET mean inhibition at 1 uM [Nanosyn]

>  <BAO Format ID>  (282) 
BAO_0000357

>  <BAO Label>  (282) 
single protein format

>  <Assay Organism>  (282) 
None

>  <Target ChEMBL ID>  (282) 
CHEMBL3717

>  <Target Name>  (282) 
Hepatocyte growth factor receptor

>  <Target Organism>  (282) 
Homo sapiens

>  <Target Type>  (282) 
SINGLE PROTEIN

>  <Document ChEMBL ID>  (282) 
CHEMBL1961873

>  <Source Description>  (282) 
GSK Published Kinase Inhibitor Set

>  <Document Journal>  (282) 
nan

>  <Document Year>  (282) 
nan

>  <Active>  (282) 
0.0

$$$$

     RDKit          2D

 31 35  0  0  0  0  0  0  0  0999 V2000
    1.5000    0.0000    0.0000 C   0  0  0  0  0  0  0  0  0  0  0  0
    0.7500   -1.2990    0.0000 C   0  0  0  0  0  0  0  0  0  0  0  0
   -0.7500   -1.2990    0.0000 C   0  0  0  0  0  0  0  0  0  0  0  0
   -1.5000    0.0000    0.0000 C   0  0  0  0  0  0  0  0  0  0  0  0
   -3.0000    0.0000    0.0000 C   0  0  0  0  0  0  0  0  0  0  0  0
   -3.8817   -1.2135    0.0000 N   0  0  0  0  0  0  0  0  0  0  0  0
   -5.3083   -0.7500    0.0000 N   0  0  0  0  0  0  0  0  0  0  0  0
   -5.3083    0.7500    0.0000 C   0  0  0  0  0  0  0  0  0  0  0  0
   -3.8817    1.2135    0.0000 C   0  0  0  0  0  0  0  0  0  0  0  0
   -3.4182    2.6401    0.0000 C   0  0  0  0  0  0  0  0  0  0  0  0
   -1.9509    2.9520    0.0000 C   0  0  0  0  0  0  0  0  0  0  0  0
   -1.4874    4.3786    0.0000 C   0  0  0  0  0  0  0  0  0  0  0  0
   -2.4911    5.4933    0.0000 N   0  0  0  0  0  0  0  0  0  0  0  0
   -3.9583    5.1814    0.0000 C   0  0  0  0  0  0  0  0  0  0  0  0
   -4.9620    6.2961    0.0000 C   0  0  0  0  0  0  0  0  0  0  0  0
   -4.4985    7.7227    0.0000 C   0  0  0  0  0  0  0  0  0  0  0  0
   -5.5022    8.8374    0.0000 C   0  0  0  0  0  0  0  0  0  0  0  0
   -6.9694    8.5256    0.0000 C   0  0  0  0  0  0  0  0  0  0  0  0
   -7.9731    9.6403    0.0000 O   0  0  0  0  0  0  0  0  0  0  0  0
   -7.5096   11.0669    0.0000 C   0  0  0  0  0  0  0  0  0  0  0  0
   -8.5133   12.1816    0.0000 C   0  0  0  0  0  0  0  0  0  0  0  0
   -8.0498   13.6082    0.0000 N   0  0  0  0  0  0  0  0  0  0  0  0
   -8.9314   14.8217    0.0000 C   0  0  0  0  0  0  0  0  0  0  0  0
   -8.0498   16.0352    0.0000 C   0  0  0  0  0  0  0  0  0  0  0  0
   -6.6232   15.5717    0.0000 N   0  0  0  0  0  0  0  0  0  0  0  0
   -6.6232   14.0717    0.0000 C   0  0  0  0  0  0  0  0  0  0  0  0
   -7.4329    7.0990    0.0000 C   0  0  0  0  0  0  0  0  0  0  0  0
   -6.4292    5.9843    0.0000 C   0  0  0  0  0  0  0  0  0  0  0  0
   -4.4218    3.7548    0.0000 C   0  0  0  0  0  0  0  0  0  0  0  0
   -0.7500    1.2990    0.0000 N   0  0  0  0  0  0  0  0  0  0  0  0
    0.7500    1.2990    0.0000 C   0  0  0  0  0  0  0  0  0  0  0  0
  1  2  2  0
  2  3  1  0
  3  4  2  0
  4  5  1  0
  5  6  2  0
  6  7  1  0
  7  8  1  0
  8  9  2  0
  9 10  1  0
 10 11  2  0
 11 12  1  0
 12 13  2  0
 13 14  1  0
 14 15  1  0
 15 16  2  0
 16 17  1  0
 17 18  2  0
 18 19  1  0
 19 20  1  0
 20 21  1  0
 21 22  1  0
 22 23  1  0
 23 24  2  0
 24 25  1  0
 25 26  2  0
 18 27  1  0
 27 28  2  0
 14 29  2  0
  4 30  1  0
 30 31  2  0
 31  1  1  0
  9  5  1  0
 29 10  1  0
 28 15  1  0
 26 22  1  0
M  END
>  <Compound_ID>  (283) 
CHEMBL208437

>  <Molecule Name>  (283) 
GW711782X

>  <Molecular Weight>  (283) 
408.47

>  <AlogP>  (283) 
4.48

>  <Smiles>  (283) 
c1ccc(-c2n[nH]cc2-c2ccnc(-c3ccc(OCCn4ccnc4)cc3)c2)nc1

>  <Standard Type>  (283) 
Inhibition

>  <Standard Relation>  (283) 
'='

>  <Standard Units>  (283) 
%

>  <Standard Value>  (283) 
0.98

>  <Assay ChEMBL ID>  (283) 
CHEMBL1962143

>  <Assay Description>  (283) 
GSK_PKIS: MET mean inhibition at 1 uM [Nanosyn]

>  <BAO Format ID>  (283) 
BAO_0000357

>  <BAO Label>  (283) 
single protein format

>  <Assay Organism>  (283) 
None

>  <Target ChEMBL ID>  (283) 
CHEMBL3717

>  <Target Name>  (283) 
Hepatocyte growth factor receptor

>  <Target Organism>  (283) 
Homo sapiens

>  <Target Type>  (283) 
SINGLE PROTEIN

>  <Document ChEMBL ID>  (283) 
CHEMBL1961873

>  <Source Description>  (283) 
GSK Published Kinase Inhibitor Set

>  <Document Journal>  (283) 
nan

>  <Document Year>  (283) 
nan

>  <Active>  (283) 
0.0

$$$$

     RDKit          2D

 27 30  0  0  0  0  0  0  0  0999 V2000
   -2.0143    8.6263    0.0000 C   0  0  0  0  0  0  0  0  0  0  0  0
   -3.4408    8.1628    0.0000 C   0  0  0  0  0  0  0  0  0  0  0  0
   -3.7527    6.6955    0.0000 C   0  0  0  0  0  0  0  0  0  0  0  0
   -2.6380    5.6918    0.0000 C   0  0  0  0  0  0  0  0  0  0  0  0
   -1.2114    6.1554    0.0000 O   0  0  0  0  0  0  0  0  0  0  0  0
   -2.9499    4.2246    0.0000 N   0  0  0  0  0  0  0  0  0  0  0  0
   -1.8351    3.2209    0.0000 C   0  0  0  0  0  0  0  0  0  0  0  0
   -0.4086    3.6844    0.0000 C   0  0  0  0  0  0  0  0  0  0  0  0
    0.7062    2.6807    0.0000 C   0  0  0  0  0  0  0  0  0  0  0  0
    0.3943    1.2135    0.0000 C   0  0  0  0  0  0  0  0  0  0  0  0
    1.2760    0.0000    0.0000 N   0  0  0  0  0  0  0  0  0  0  0  0
    0.3943   -1.2135    0.0000 N   0  0  0  0  0  0  0  0  0  0  0  0
   -1.0323   -0.7500    0.0000 C   0  0  0  0  0  0  0  0  0  0  0  0
   -1.0323    0.7500    0.0000 C   0  0  0  0  0  0  0  0  0  0  0  0
   -2.1470    1.7537    0.0000 C   0  0  0  0  0  0  0  0  0  0  0  0
   -5.1793    6.2320    0.0000 C   0  0  0  0  0  0  0  0  0  0  0  0
   -5.4912    4.7648    0.0000 C   0  0  0  0  0  0  0  0  0  0  0  0
   -6.9177    4.3013    0.0000 C   0  0  0  0  0  0  0  0  0  0  0  0
   -7.2296    2.8340    0.0000 C   0  0  0  0  0  0  0  0  0  0  0  0
   -6.1149    1.8303    0.0000 C   0  0  0  0  0  0  0  0  0  0  0  0
   -6.4268    0.3631    0.0000 F   0  0  0  0  0  0  0  0  0  0  0  0
   -4.6883    2.2939    0.0000 C   0  0  0  0  0  0  0  0  0  0  0  0
   -4.3764    3.7611    0.0000 C   0  0  0  0  0  0  0  0  0  0  0  0
   -6.2940    7.2357    0.0000 N   0  0  0  0  0  0  0  0  0  0  0  0
   -5.9821    8.7029    0.0000 C   0  0  0  0  0  0  0  0  0  0  0  0
   -7.0969    9.7066    0.0000 O   0  0  0  0  0  0  0  0  0  0  0  0
   -4.5556    9.1664    0.0000 N   0  0  0  0  0  0  0  0  0  0  0  0
  1  2  1  0
  2  3  2  0
  3  4  1  0
  4  5  2  0
  4  6  1  0
  6  7  1  0
  7  8  2  0
  8  9  1  0
  9 10  2  0
 10 11  1  0
 11 12  1  0
 12 13  2  0
 13 14  1  0
 14 15  2  0
  3 16  1  0
 16 17  1  0
 17 18  2  0
 18 19  1  0
 19 20  2  0
 20 21  1  0
 20 22  1  0
 22 23  2  0
 16 24  1  0
 24 25  1  0
 25 26  2  0
 25 27  1  0
 27  2  1  0
 15  7  1  0
 23 17  1  0
 14 10  1  0
M  END
>  <Compound_ID>  (284) 
CHEMBL384073

>  <Molecule Name>  (284) 
GSK-180736A

>  <Molecular Weight>  (284) 
365.37

>  <AlogP>  (284) 
2.97

>  <Smiles>  (284) 
CC1=C(C(=O)Nc2ccc3[nH]ncc3c2)C(c2ccc(F)cc2)NC(=O)N1

>  <Standard Type>  (284) 
Inhibition

>  <Standard Relation>  (284) 
'='

>  <Standard Units>  (284) 
%

>  <Standard Value>  (284) 
14.91

>  <Assay ChEMBL ID>  (284) 
CHEMBL1962143

>  <Assay Description>  (284) 
GSK_PKIS: MET mean inhibition at 1 uM [Nanosyn]

>  <BAO Format ID>  (284) 
BAO_0000357

>  <BAO Label>  (284) 
single protein format

>  <Assay Organism>  (284) 
None

>  <Target ChEMBL ID>  (284) 
CHEMBL3717

>  <Target Name>  (284) 
Hepatocyte growth factor receptor

>  <Target Organism>  (284) 
Homo sapiens

>  <Target Type>  (284) 
SINGLE PROTEIN

>  <Document ChEMBL ID>  (284) 
CHEMBL1961873

>  <Source Description>  (284) 
GSK Published Kinase Inhibitor Set

>  <Document Journal>  (284) 
nan

>  <Document Year>  (284) 
nan

>  <Active>  (284) 
0.0

$$$$

     RDKit          2D

 22 24  0  0  0  0  0  0  0  0999 V2000
   -0.7500   -3.8971    0.0000 O   0  0  0  0  0  0  0  0  0  0  0  0
    0.7500   -3.8971    0.0000 C   0  0  0  0  0  0  0  0  0  0  0  0
    1.5000   -2.5981    0.0000 N   0  0  0  0  0  0  0  0  0  0  0  0
    0.7500   -1.2990    0.0000 C   0  0  0  0  0  0  0  0  0  0  0  0
    1.5000    0.0000    0.0000 C   0  0  0  0  0  0  0  0  0  0  0  0
    0.7500    1.2990    0.0000 C   0  0  0  0  0  0  0  0  0  0  0  0
    1.5000    2.5981    0.0000 C   0  0  0  0  0  0  0  0  0  0  0  0
    3.0000    2.5981    0.0000 C   0  0  0  0  0  0  0  0  0  0  0  0
    3.7500    3.8971    0.0000 C   0  0  0  0  0  0  0  0  0  0  0  0
    3.0000    5.1962    0.0000 N   0  0  0  0  0  0  0  0  0  0  0  0
    1.5000    5.1962    0.0000 C   0  0  0  0  0  0  0  0  0  0  0  0
    0.7500    3.8971    0.0000 C   0  0  0  0  0  0  0  0  0  0  0  0
   -0.7500    1.2990    0.0000 C   0  0  0  0  0  0  0  0  0  0  0  0
   -1.5000    0.0000    0.0000 N   0  0  0  0  0  0  0  0  0  0  0  0
   -0.7500   -1.2990    0.0000 C   0  0  0  0  0  0  0  0  0  0  0  0
   -1.5000   -2.5981    0.0000 O   0  0  0  0  0  0  0  0  0  0  0  0
    1.5000   -5.1962    0.0000 C   0  0  0  0  0  0  0  0  0  0  0  0
    0.7500   -6.4952    0.0000 C   0  0  0  0  0  0  0  0  0  0  0  0
    1.5000   -7.7942    0.0000 C   0  0  0  0  0  0  0  0  0  0  0  0
    3.0000   -7.7942    0.0000 C   0  0  0  0  0  0  0  0  0  0  0  0
    3.7500   -6.4952    0.0000 C   0  0  0  0  0  0  0  0  0  0  0  0
    3.0000   -5.1962    0.0000 C   0  0  0  0  0  0  0  0  0  0  0  0
  1  2  2  0
  2  3  1  0
  3  4  1  0
  4  5  2  0
  5  6  1  0
  6  7  1  0
  7  8  2  0
  8  9  1  0
  9 10  2  0
 10 11  1  0
 11 12  2  0
  6 13  2  0
 13 14  1  0
 14 15  1  0
 15 16  2  0
  2 17  1  0
 17 18  2  0
 18 19  1  0
 19 20  2  0
 20 21  1  0
 21 22  2  0
 15  4  1  0
 22 17  1  0
 12  7  1  0
M  END
>  <Compound_ID>  (285) 
CHEMBL1738828

>  <Molecule Name>  (285) 
nan

>  <Molecular Weight>  (285) 
291.31

>  <AlogP>  (285) 
2.69

>  <Smiles>  (285) 
O=C(Nc1cc(-c2ccncc2)c[nH]c1=O)c1ccccc1

>  <Standard Type>  (285) 
Inhibition

>  <Standard Relation>  (285) 
'='

>  <Standard Units>  (285) 
%

>  <Standard Value>  (285) 
9.0

>  <Assay ChEMBL ID>  (285) 
CHEMBL4256682

>  <Assay Description>  (285) 
Inhibition of MET (unknown origin) at 30 uM using peptide as substrate in presence of ATP and MgCl2 by mobility shift assay relative to control

>  <BAO Format ID>  (285) 
BAO_0000357

>  <BAO Label>  (285) 
single protein format

>  <Assay Organism>  (285) 
Homo sapiens

>  <Target ChEMBL ID>  (285) 
CHEMBL3717

>  <Target Name>  (285) 
Hepatocyte growth factor receptor

>  <Target Organism>  (285) 
Homo sapiens

>  <Target Type>  (285) 
SINGLE PROTEIN

>  <Document ChEMBL ID>  (285) 
CHEMBL4251747

>  <Source Description>  (285) 
Scientific Literature

>  <Document Journal>  (285) 
Bioorg Med Chem

>  <Document Year>  (285) 
2018.0

>  <Active>  (285) 
0.0

$$$$

     RDKit          2D

 19 20  0  0  0  0  0  0  0  0999 V2000
   -0.6546  -12.7344    0.0000 N   0  0  0  0  0  0  0  0  0  0  0  0
   -0.8113  -11.2427    0.0000 C   0  0  0  0  0  0  0  0  0  0  0  0
    0.4022  -10.3610    0.0000 C   0  0  0  0  0  0  0  0  0  0  0  0
    0.2454   -8.8692    0.0000 N   0  0  0  0  0  0  0  0  0  0  0  0
   -1.0537   -8.1192    0.0000 C   0  0  0  0  0  0  0  0  0  0  0  0
   -2.4240   -8.7293    0.0000 O   0  0  0  0  0  0  0  0  0  0  0  0
   -0.7418   -6.6520    0.0000 S   0  0  0  0  0  0  0  0  0  0  0  0
    0.7500   -6.4952    0.0000 C   0  0  0  0  0  0  0  0  0  0  0  0
    1.5000   -5.1962    0.0000 C   0  0  0  0  0  0  0  0  0  0  0  0
    0.7500   -3.8971    0.0000 C   0  0  0  0  0  0  0  0  0  0  0  0
    1.5000   -2.5981    0.0000 C   0  0  0  0  0  0  0  0  0  0  0  0
    0.7500   -1.2990    0.0000 C   0  0  0  0  0  0  0  0  0  0  0  0
    1.5000    0.0000    0.0000 C   0  0  0  0  0  0  0  0  0  0  0  0
    0.7500    1.2990    0.0000 C   0  0  0  0  0  0  0  0  0  0  0  0
   -0.7500    1.2990    0.0000 C   0  0  0  0  0  0  0  0  0  0  0  0
   -1.5000    0.0000    0.0000 C   0  0  0  0  0  0  0  0  0  0  0  0
   -0.7500   -1.2990    0.0000 C   0  0  0  0  0  0  0  0  0  0  0  0
    1.3601   -7.8655    0.0000 C   0  0  0  0  0  0  0  0  0  0  0  0
    2.8273   -8.1774    0.0000 O   0  0  0  0  0  0  0  0  0  0  0  0
  1  2  1  0
  2  3  1  0
  3  4  1  0
  4  5  1  0
  5  6  2  0
  5  7  1  0
  7  8  1  0
  8  9  2  0
  9 10  1  0
 10 11  1  0
 11 12  1  0
 12 13  1  0
 13 14  1  0
 14 15  1  0
 15 16  1  0
 16 17  1  0
  8 18  1  0
 18 19  2  0
 18  4  1  0
 17 12  1  0
M  END
>  <Compound_ID>  (286) 
CHEMBL3732044

>  <Molecule Name>  (286) 
nan

>  <Molecular Weight>  (286) 
318.87

>  <AlogP>  (286) 
2.88

>  <Smiles>  (286) 
NCCN1C(=O)S/C(=C\CCC2CCCCC2)C1=O

>  <Standard Type>  (286) 
Inhibition

>  <Standard Relation>  (286) 
'='

>  <Standard Units>  (286) 
%

>  <Standard Value>  (286) 
-1.0

>  <Assay ChEMBL ID>  (286) 
CHEMBL3734488

>  <Assay Description>  (286) 
Inhibition of recombinant human c-MET using fluorescein-labeled peptide as substrate by fluorescence-electrophoretic mobility shift assay

>  <BAO Format ID>  (286) 
BAO_0000357

>  <BAO Label>  (286) 
single protein format

>  <Assay Organism>  (286) 
Homo sapiens

>  <Target ChEMBL ID>  (286) 
CHEMBL3717

>  <Target Name>  (286) 
Hepatocyte growth factor receptor

>  <Target Organism>  (286) 
Homo sapiens

>  <Target Type>  (286) 
SINGLE PROTEIN

>  <Document ChEMBL ID>  (286) 
CHEMBL3727354

>  <Source Description>  (286) 
Patent Bioactivity Data

>  <Document Journal>  (286) 
nan

>  <Document Year>  (286) 
2011.0

>  <Active>  (286) 
0.0

$$$$

     RDKit          2D

 35 38  0  0  0  0  0  0  0  0999 V2000
    5.2500   -1.2990    0.0000 C   0  0  0  0  0  0  0  0  0  0  0  0
    3.7500   -1.2990    0.0000 C   0  0  0  0  0  0  0  0  0  0  0  0
    3.0000   -2.5981    0.0000 O   0  0  0  0  0  0  0  0  0  0  0  0
    3.0000    0.0000    0.0000 N   0  0  0  0  0  0  0  0  0  0  0  0
    1.5000    0.0000    0.0000 C   0  0  0  0  0  0  0  0  0  0  0  0
    0.7500   -1.2990    0.0000 C   0  0  0  0  0  0  0  0  0  0  0  0
   -0.7500   -1.2990    0.0000 C   0  0  0  0  0  0  0  0  0  0  0  0
   -1.5000    0.0000    0.0000 C   0  0  0  0  0  0  0  0  0  0  0  0
   -0.7500    1.2990    0.0000 C   0  0  0  0  0  0  0  0  0  0  0  0
   -1.5000    2.5981    0.0000 C   0  0  0  0  0  0  0  0  0  0  0  0
   -2.2500    3.8971    0.0000 C   0  0  0  0  0  0  0  0  0  0  0  0
   -3.0000    5.1962    0.0000 C   0  0  0  0  0  0  0  0  0  0  0  0
   -2.2500    6.4952    0.0000 C   0  0  0  0  0  0  0  0  0  0  0  0
   -3.0000    7.7942    0.0000 N   0  0  0  0  0  0  0  0  0  0  0  0
   -4.5000    7.7942    0.0000 C   0  0  0  0  0  0  0  0  0  0  0  0
   -5.2500    6.4952    0.0000 N   0  0  0  0  0  0  0  0  0  0  0  0
   -4.5000    5.1962    0.0000 C   0  0  0  0  0  0  0  0  0  0  0  0
   -5.2500    3.8971    0.0000 N   0  0  0  0  0  0  0  0  0  0  0  0
   -6.7500    3.8971    0.0000 C   0  0  0  0  0  0  0  0  0  0  0  0
   -7.5000    5.1962    0.0000 C   0  0  0  0  0  0  0  0  0  0  0  0
   -9.0000    5.1962    0.0000 C   0  0  0  0  0  0  0  0  0  0  0  0
   -9.7500    3.8971    0.0000 C   0  0  0  0  0  0  0  0  0  0  0  0
  -11.2500    3.8971    0.0000 O   0  0  0  0  0  0  0  0  0  0  0  0
  -12.0000    5.1962    0.0000 C   0  0  0  0  0  0  0  0  0  0  0  0
  -13.5000    5.1962    0.0000 C   0  0  0  0  0  0  0  0  0  0  0  0
  -14.2500    6.4952    0.0000 C   0  0  0  0  0  0  0  0  0  0  0  0
  -15.7500    6.4952    0.0000 C   0  0  0  0  0  0  0  0  0  0  0  0
  -16.5000    5.1962    0.0000 C   0  0  0  0  0  0  0  0  0  0  0  0
  -15.7500    3.8971    0.0000 C   0  0  0  0  0  0  0  0  0  0  0  0
  -16.5000    2.5981    0.0000 F   0  0  0  0  0  0  0  0  0  0  0  0
  -14.2500    3.8971    0.0000 C   0  0  0  0  0  0  0  0  0  0  0  0
   -9.0000    2.5981    0.0000 C   0  0  0  0  0  0  0  0  0  0  0  0
   -9.7500    1.2990    0.0000 Cl  0  0  0  0  0  0  0  0  0  0  0  0
   -7.5000    2.5981    0.0000 C   0  0  0  0  0  0  0  0  0  0  0  0
    0.7500    1.2990    0.0000 N   0  0  0  0  0  0  0  0  0  0  0  0
  1  2  1  0
  2  3  2  0
  2  4  1  0
  4  5  1  0
  5  6  2  0
  6  7  1  0
  7  8  2  0
  8  9  1  0
  9 10  1  0
 10 11  3  0
 11 12  1  0
 12 13  2  0
 13 14  1  0
 14 15  2  0
 15 16  1  0
 16 17  2  0
 17 18  1  0
 18 19  1  0
 19 20  2  0
 20 21  1  0
 21 22  2  0
 22 23  1  0
 23 24  1  0
 24 25  1  0
 25 26  2  0
 26 27  1  0
 27 28  2  0
 28 29  1  0
 29 30  1  0
 29 31  2  0
 22 32  1  0
 32 33  1  0
 32 34  2  0
  9 35  2  0
 35  5  1  0
 17 12  1  0
 34 19  1  0
 31 25  1  0
M  END
>  <Compound_ID>  (287) 
CHEMBL205765

>  <Molecule Name>  (287) 
GW794726X

>  <Molecular Weight>  (287) 
487.92

>  <AlogP>  (287) 
5.34

>  <Smiles>  (287) 
CC(=O)Nc1cccc(C#Cc2cncnc2Nc2ccc(OCc3cccc(F)c3)c(Cl)c2)n1

>  <Standard Type>  (287) 
Inhibition

>  <Standard Relation>  (287) 
'='

>  <Standard Units>  (287) 
%

>  <Standard Value>  (287) 
2.91

>  <Assay ChEMBL ID>  (287) 
CHEMBL1962143

>  <Assay Description>  (287) 
GSK_PKIS: MET mean inhibition at 1 uM [Nanosyn]

>  <BAO Format ID>  (287) 
BAO_0000357

>  <BAO Label>  (287) 
single protein format

>  <Assay Organism>  (287) 
None

>  <Target ChEMBL ID>  (287) 
CHEMBL3717

>  <Target Name>  (287) 
Hepatocyte growth factor receptor

>  <Target Organism>  (287) 
Homo sapiens

>  <Target Type>  (287) 
SINGLE PROTEIN

>  <Document ChEMBL ID>  (287) 
CHEMBL1961873

>  <Source Description>  (287) 
GSK Published Kinase Inhibitor Set

>  <Document Journal>  (287) 
nan

>  <Document Year>  (287) 
nan

>  <Active>  (287) 
0.0

$$$$

     RDKit          2D

 29 32  0  0  0  0  0  0  0  0999 V2000
    5.2500   -1.2990    0.0000 C   0  0  0  0  0  0  0  0  0  0  0  0
    3.7500   -1.2990    0.0000 C   0  0  0  0  0  0  0  0  0  0  0  0
    3.0000    0.0000    0.0000 O   0  0  0  0  0  0  0  0  0  0  0  0
    1.5000    0.0000    0.0000 C   0  0  0  0  0  0  0  0  0  0  0  0
    0.7500   -1.2990    0.0000 C   0  0  0  0  0  0  0  0  0  0  0  0
   -0.7500   -1.2990    0.0000 C   0  0  0  0  0  0  0  0  0  0  0  0
   -1.5000    0.0000    0.0000 C   0  0  0  0  0  0  0  0  0  0  0  0
   -2.9672    0.3119    0.0000 C   0  0  0  0  0  0  0  0  0  0  0  0
   -4.0819   -0.6918    0.0000 C   0  0  0  0  0  0  0  0  0  0  0  0
   -5.5085   -0.2283    0.0000 C   0  0  0  0  0  0  0  0  0  0  0  0
   -6.6232   -1.2320    0.0000 C   0  0  0  0  0  0  0  0  0  0  0  0
   -6.3114   -2.6992    0.0000 N   0  0  0  0  0  0  0  0  0  0  0  0
   -4.8848   -3.1627    0.0000 C   0  0  0  0  0  0  0  0  0  0  0  0
   -4.5729   -4.6300    0.0000 N   0  0  0  0  0  0  0  0  0  0  0  0
   -5.6876   -5.6337    0.0000 C   0  0  0  0  0  0  0  0  0  0  0  0
   -7.1142   -5.1701    0.0000 C   0  0  0  0  0  0  0  0  0  0  0  0
   -8.2289   -6.1738    0.0000 C   0  0  0  0  0  0  0  0  0  0  0  0
   -7.9171   -7.6411    0.0000 C   0  0  0  0  0  0  0  0  0  0  0  0
   -6.4905   -8.1046    0.0000 C   0  0  0  0  0  0  0  0  0  0  0  0
   -6.1786   -9.5718    0.0000 C   0  0  0  0  0  0  0  0  0  0  0  0
   -5.8668  -11.0390    0.0000 F   0  0  0  0  0  0  0  0  0  0  0  0
   -7.6458   -9.8837    0.0000 F   0  0  0  0  0  0  0  0  0  0  0  0
   -4.7114   -9.2599    0.0000 F   0  0  0  0  0  0  0  0  0  0  0  0
   -5.3758   -7.1009    0.0000 C   0  0  0  0  0  0  0  0  0  0  0  0
   -3.7701   -2.1590    0.0000 N   0  0  0  0  0  0  0  0  0  0  0  0
   -3.1240    1.8037    0.0000 C   0  0  0  0  0  0  0  0  0  0  0  0
   -1.7537    2.4138    0.0000 N   0  0  0  0  0  0  0  0  0  0  0  0
   -0.7500    1.2990    0.0000 N   0  0  0  0  0  0  0  0  0  0  0  0
    0.7500    1.2990    0.0000 N   0  0  0  0  0  0  0  0  0  0  0  0
  1  2  1  0
  2  3  1  0
  3  4  1  0
  4  5  1  0
  5  6  2  0
  6  7  1  0
  7  8  2  0
  8  9  1  0
  9 10  2  0
 10 11  1  0
 11 12  2  0
 12 13  1  0
 13 14  1  0
 14 15  1  0
 15 16  2  0
 16 17  1  0
 17 18  2  0
 18 19  1  0
 19 20  1  0
 20 21  1  0
 20 22  1  0
 20 23  1  0
 19 24  2  0
 13 25  2  0
  8 26  1  0
 26 27  2  0
 27 28  1  0
 28 29  1  0
 29  4  2  0
 28  7  1  0
 25  9  1  0
 24 15  1  0
M  END
>  <Compound_ID>  (288) 
CHEMBL183993

>  <Molecule Name>  (288) 
GW811761X

>  <Molecular Weight>  (288) 
400.36

>  <AlogP>  (288) 
4.35

>  <Smiles>  (288) 
CCOc1ccc2c(-c3ccnc(Nc4cccc(C(F)(F)F)c4)n3)cnn2n1

>  <Standard Type>  (288) 
Inhibition

>  <Standard Relation>  (288) 
'='

>  <Standard Units>  (288) 
%

>  <Standard Value>  (288) 
3.01

>  <Assay ChEMBL ID>  (288) 
CHEMBL1962142

>  <Assay Description>  (288) 
GSK_PKIS: MET mean inhibition at 0.1 uM [Nanosyn]

>  <BAO Format ID>  (288) 
BAO_0000357

>  <BAO Label>  (288) 
single protein format

>  <Assay Organism>  (288) 
None

>  <Target ChEMBL ID>  (288) 
CHEMBL3717

>  <Target Name>  (288) 
Hepatocyte growth factor receptor

>  <Target Organism>  (288) 
Homo sapiens

>  <Target Type>  (288) 
SINGLE PROTEIN

>  <Document ChEMBL ID>  (288) 
CHEMBL1961873

>  <Source Description>  (288) 
GSK Published Kinase Inhibitor Set

>  <Document Journal>  (288) 
nan

>  <Document Year>  (288) 
nan

>  <Active>  (288) 
0.0

$$$$

     RDKit          2D

 21 24  0  0  0  0  0  0  0  0999 V2000
    1.2990   -5.8573    0.0000 C   0  0  0  0  0  0  0  0  0  0  0  0
   -0.0000   -5.1073    0.0000 C   0  0  0  0  0  0  0  0  0  0  0  0
   -0.0000   -3.6073    0.0000 C   0  0  0  0  0  0  0  0  0  0  0  0
    1.2135   -2.7256    0.0000 N   0  0  0  0  0  0  0  0  0  0  0  0
    0.7500   -1.2990    0.0000 N   0  0  0  0  0  0  0  0  0  0  0  0
    1.5000    0.0000    0.0000 N   0  0  0  0  0  0  0  0  0  0  0  0
    0.7500    1.2990    0.0000 C   0  0  0  0  0  0  0  0  0  0  0  0
   -0.7500    1.2990    0.0000 C   0  0  0  0  0  0  0  0  0  0  0  0
   -1.5000    0.0000    0.0000 C   0  0  0  0  0  0  0  0  0  0  0  0
   -0.7500   -1.2990    0.0000 C   0  0  0  0  0  0  0  0  0  0  0  0
   -1.2135   -2.7256    0.0000 C   0  0  0  0  0  0  0  0  0  0  0  0
   -2.6401   -3.1891    0.0000 C   0  0  0  0  0  0  0  0  0  0  0  0
   -3.7548   -2.1855    0.0000 C   0  0  0  0  0  0  0  0  0  0  0  0
   -5.1814   -2.6490    0.0000 C   0  0  0  0  0  0  0  0  0  0  0  0
   -5.4933   -4.1162    0.0000 N   0  0  0  0  0  0  0  0  0  0  0  0
   -4.3786   -5.1199    0.0000 C   0  0  0  0  0  0  0  0  0  0  0  0
   -4.6904   -6.5871    0.0000 N   0  0  0  0  0  0  0  0  0  0  0  0
   -6.1170   -7.0506    0.0000 C   0  0  0  0  0  0  0  0  0  0  0  0
   -7.1207   -8.1654    0.0000 C   0  0  0  0  0  0  0  0  0  0  0  0
   -7.5842   -6.7388    0.0000 C   0  0  0  0  0  0  0  0  0  0  0  0
   -2.9520   -4.6564    0.0000 N   0  0  0  0  0  0  0  0  0  0  0  0
  1  2  1  0
  2  3  1  0
  3  4  2  0
  4  5  1  0
  5  6  1  0
  6  7  2  0
  7  8  1  0
  8  9  2  0
  9 10  1  0
 10 11  2  0
 11 12  1  0
 12 13  2  0
 13 14  1  0
 14 15  2  0
 15 16  1  0
 16 17  1  0
 17 18  1  0
 18 19  1  0
 19 20  1  0
 16 21  2  0
 11  3  1  0
 21 12  1  0
 10  5  1  0
 20 18  1  0
M  END
>  <Compound_ID>  (289) 
CHEMBL524057

>  <Molecule Name>  (289) 
GW683768X

>  <Molecular Weight>  (289) 
280.34

>  <AlogP>  (289) 
2.32

>  <Smiles>  (289) 
CCc1nn2ncccc2c1-c1ccnc(NC2CC2)n1

>  <Standard Type>  (289) 
Inhibition

>  <Standard Relation>  (289) 
'='

>  <Standard Units>  (289) 
%

>  <Standard Value>  (289) 
6.93

>  <Assay ChEMBL ID>  (289) 
CHEMBL1962142

>  <Assay Description>  (289) 
GSK_PKIS: MET mean inhibition at 0.1 uM [Nanosyn]

>  <BAO Format ID>  (289) 
BAO_0000357

>  <BAO Label>  (289) 
single protein format

>  <Assay Organism>  (289) 
None

>  <Target ChEMBL ID>  (289) 
CHEMBL3717

>  <Target Name>  (289) 
Hepatocyte growth factor receptor

>  <Target Organism>  (289) 
Homo sapiens

>  <Target Type>  (289) 
SINGLE PROTEIN

>  <Document ChEMBL ID>  (289) 
CHEMBL1961873

>  <Source Description>  (289) 
GSK Published Kinase Inhibitor Set

>  <Document Journal>  (289) 
nan

>  <Document Year>  (289) 
nan

>  <Active>  (289) 
0.0

$$$$

     RDKit          2D

 35 39  0  0  0  0  0  0  0  0999 V2000
    3.0000   -1.5000    0.0000 C   0  0  0  0  0  0  0  0  0  0  0  0
    3.0000    0.0000    0.0000 C   0  0  0  0  0  0  0  0  0  0  0  0
    3.0000    1.5000    0.0000 C   0  0  0  0  0  0  0  0  0  0  0  0
    4.5000    0.0000    0.0000 C   0  0  0  0  0  0  0  0  0  0  0  0
    1.5000    0.0000    0.0000 C   0  0  0  0  0  0  0  0  0  0  0  0
    0.7500   -1.2990    0.0000 C   0  0  0  0  0  0  0  0  0  0  0  0
   -0.7500   -1.2990    0.0000 C   0  0  0  0  0  0  0  0  0  0  0  0
   -1.5000    0.0000    0.0000 C   0  0  0  0  0  0  0  0  0  0  0  0
   -3.0000    0.0000    0.0000 O   0  0  0  0  0  0  0  0  0  0  0  0
   -3.7500    1.2990    0.0000 C   0  0  0  0  0  0  0  0  0  0  0  0
   -3.0000    2.5981    0.0000 N   0  0  0  0  0  0  0  0  0  0  0  0
   -3.7500    3.8971    0.0000 C   0  0  0  0  0  0  0  0  0  0  0  0
   -5.2500    3.8971    0.0000 C   0  0  0  0  0  0  0  0  0  0  0  0
   -6.0000    2.5981    0.0000 C   0  0  0  0  0  0  0  0  0  0  0  0
   -7.5000    2.5981    0.0000 C   0  0  0  0  0  0  0  0  0  0  0  0
   -8.3817    1.3846    0.0000 C   0  0  0  0  0  0  0  0  0  0  0  0
   -7.9182   -0.0420    0.0000 C   0  0  0  0  0  0  0  0  0  0  0  0
   -8.9218   -1.1568    0.0000 C   0  0  0  0  0  0  0  0  0  0  0  0
   -8.4583   -2.5833    0.0000 C   0  0  0  0  0  0  0  0  0  0  0  0
   -6.9911   -2.8952    0.0000 C   0  0  0  0  0  0  0  0  0  0  0  0
   -6.5276   -4.3218    0.0000 F   0  0  0  0  0  0  0  0  0  0  0  0
   -5.9874   -1.7805    0.0000 C   0  0  0  0  0  0  0  0  0  0  0  0
   -6.4509   -0.3539    0.0000 C   0  0  0  0  0  0  0  0  0  0  0  0
   -9.8083    1.8481    0.0000 N   0  0  0  0  0  0  0  0  0  0  0  0
   -9.8083    3.3481    0.0000 C   0  0  0  0  0  0  0  0  0  0  0  0
   -8.3817    3.8116    0.0000 N   0  0  0  0  0  0  0  0  0  0  0  0
   -7.9182    5.2382    0.0000 C   0  0  0  0  0  0  0  0  0  0  0  0
   -6.4509    5.5501    0.0000 C   0  0  0  0  0  0  0  0  0  0  0  0
   -5.9874    6.9766    0.0000 C   0  0  0  0  0  0  0  0  0  0  0  0
   -6.9911    8.0914    0.0000 N   0  0  0  0  0  0  0  0  0  0  0  0
   -8.4583    7.7795    0.0000 C   0  0  0  0  0  0  0  0  0  0  0  0
   -8.9218    6.3529    0.0000 C   0  0  0  0  0  0  0  0  0  0  0  0
   -5.2500    1.2990    0.0000 N   0  0  0  0  0  0  0  0  0  0  0  0
   -0.7500    1.2990    0.0000 C   0  0  0  0  0  0  0  0  0  0  0  0
    0.7500    1.2990    0.0000 C   0  0  0  0  0  0  0  0  0  0  0  0
  1  2  1  0
  2  3  1  0
  2  4  1  0
  2  5  1  0
  5  6  2  0
  6  7  1  0
  7  8  2  0
  8  9  1  0
  9 10  1  0
 10 11  2  0
 11 12  1  0
 12 13  2  0
 13 14  1  0
 14 15  1  0
 15 16  2  0
 16 17  1  0
 17 18  2  0
 18 19  1  0
 19 20  2  0
 20 21  1  0
 20 22  1  0
 22 23  2  0
 16 24  1  0
 24 25  2  0
 25 26  1  0
 26 27  1  0
 27 28  1  0
 28 29  1  0
 29 30  1  0
 30 31  1  0
 31 32  1  0
 14 33  2  0
  8 34  1  0
 34 35  2  0
 35  5  1  0
 33 10  1  0
 26 15  1  0
 32 27  1  0
 23 17  1  0
M  END
>  <Compound_ID>  (290) 
CHEMBL275200

>  <Molecule Name>  (290) 
nan

>  <Molecular Weight>  (290) 
471.58

>  <AlogP>  (290) 
6.16

>  <Smiles>  (290) 
CC(C)(C)c1ccc(Oc2nccc(-c3c(-c4ccc(F)cc4)ncn3C3CCNCC3)n2)cc1

>  <Standard Type>  (290) 
Inhibition

>  <Standard Relation>  (290) 
'='

>  <Standard Units>  (290) 
%

>  <Standard Value>  (290) 
7.63

>  <Assay ChEMBL ID>  (290) 
CHEMBL1962143

>  <Assay Description>  (290) 
GSK_PKIS: MET mean inhibition at 1 uM [Nanosyn]

>  <BAO Format ID>  (290) 
BAO_0000357

>  <BAO Label>  (290) 
single protein format

>  <Assay Organism>  (290) 
None

>  <Target ChEMBL ID>  (290) 
CHEMBL3717

>  <Target Name>  (290) 
Hepatocyte growth factor receptor

>  <Target Organism>  (290) 
Homo sapiens

>  <Target Type>  (290) 
SINGLE PROTEIN

>  <Document ChEMBL ID>  (290) 
CHEMBL1961873

>  <Source Description>  (290) 
GSK Published Kinase Inhibitor Set

>  <Document Journal>  (290) 
nan

>  <Document Year>  (290) 
nan

>  <Active>  (290) 
0.0

$$$$

     RDKit          2D

 21 24  0  0  0  0  0  0  0  0999 V2000
    3.3287    1.8373    0.0000 O   0  0  0  0  0  0  0  0  0  0  0  0
    2.3250    2.9520    0.0000 C   0  0  0  0  0  0  0  0  0  0  0  0
    0.8578    2.6401    0.0000 N   0  0  0  0  0  0  0  0  0  0  0  0
    0.3943    1.2135    0.0000 C   0  0  0  0  0  0  0  0  0  0  0  0
    1.2760    0.0000    0.0000 N   0  0  0  0  0  0  0  0  0  0  0  0
    0.3943   -1.2135    0.0000 N   0  0  0  0  0  0  0  0  0  0  0  0
   -1.0323   -0.7500    0.0000 C   0  0  0  0  0  0  0  0  0  0  0  0
   -2.3313   -1.5000    0.0000 N   0  0  0  0  0  0  0  0  0  0  0  0
   -3.6304   -0.7500    0.0000 C   0  0  0  0  0  0  0  0  0  0  0  0
   -4.9294   -1.5000    0.0000 C   0  0  0  0  0  0  0  0  0  0  0  0
   -5.0862   -2.9918    0.0000 C   0  0  0  0  0  0  0  0  0  0  0  0
   -6.5534   -3.3037    0.0000 C   0  0  0  0  0  0  0  0  0  0  0  0
   -7.3034   -2.0046    0.0000 C   0  0  0  0  0  0  0  0  0  0  0  0
   -6.2997   -0.8899    0.0000 O   0  0  0  0  0  0  0  0  0  0  0  0
   -3.6304    0.7500    0.0000 C   0  0  0  0  0  0  0  0  0  0  0  0
   -4.9294    1.5000    0.0000 Br  0  0  0  0  0  0  0  0  0  0  0  0
   -2.3313    1.5000    0.0000 C   0  0  0  0  0  0  0  0  0  0  0  0
   -1.0323    0.7500    0.0000 C   0  0  0  0  0  0  0  0  0  0  0  0
    2.7886    4.3786    0.0000 C   0  0  0  0  0  0  0  0  0  0  0  0
    2.4767    5.8458    0.0000 C   0  0  0  0  0  0  0  0  0  0  0  0
    3.9033    5.3823    0.0000 C   0  0  0  0  0  0  0  0  0  0  0  0
  1  2  2  0
  2  3  1  0
  3  4  1  0
  4  5  2  0
  5  6  1  0
  6  7  1  0
  7  8  2  0
  8  9  1  0
  9 10  1  0
 10 11  2  0
 11 12  1  0
 12 13  2  0
 13 14  1  0
  9 15  2  0
 15 16  1  0
 15 17  1  0
 17 18  2  0
  2 19  1  0
 19 20  1  0
 20 21  1  0
 18  4  1  0
 21 19  1  0
 18  7  1  0
 14 10  1  0
M  END
>  <Compound_ID>  (291) 
CHEMBL408564

>  <Molecule Name>  (291) 
nan

>  <Molecular Weight>  (291) 
347.17

>  <AlogP>  (291) 
3.33

>  <Smiles>  (291) 
O=C(Nc1n[nH]c2nc(-c3ccco3)c(Br)cc12)C1CC1

>  <Standard Type>  (291) 
Inhibition

>  <Standard Relation>  (291) 
'='

>  <Standard Units>  (291) 
%

>  <Standard Value>  (291) 
6.65

>  <Assay ChEMBL ID>  (291) 
CHEMBL1962143

>  <Assay Description>  (291) 
GSK_PKIS: MET mean inhibition at 1 uM [Nanosyn]

>  <BAO Format ID>  (291) 
BAO_0000357

>  <BAO Label>  (291) 
single protein format

>  <Assay Organism>  (291) 
None

>  <Target ChEMBL ID>  (291) 
CHEMBL3717

>  <Target Name>  (291) 
Hepatocyte growth factor receptor

>  <Target Organism>  (291) 
Homo sapiens

>  <Target Type>  (291) 
SINGLE PROTEIN

>  <Document ChEMBL ID>  (291) 
CHEMBL1961873

>  <Source Description>  (291) 
GSK Published Kinase Inhibitor Set

>  <Document Journal>  (291) 
nan

>  <Document Year>  (291) 
nan

>  <Active>  (291) 
0.0

$$$$

     RDKit          2D

 27 30  0  0  0  0  0  0  0  0999 V2000
    3.7500   -1.2990    0.0000 C   0  0  0  0  0  0  0  0  0  0  0  0
    3.0000    0.0000    0.0000 O   0  0  0  0  0  0  0  0  0  0  0  0
    1.5000    0.0000    0.0000 C   0  0  0  0  0  0  0  0  0  0  0  0
    0.7500   -1.2990    0.0000 C   0  0  0  0  0  0  0  0  0  0  0  0
   -0.7500   -1.2990    0.0000 C   0  0  0  0  0  0  0  0  0  0  0  0
   -1.5000    0.0000    0.0000 C   0  0  0  0  0  0  0  0  0  0  0  0
   -3.0000    0.0000    0.0000 N   0  0  0  0  0  0  0  0  0  0  0  0
   -3.7500    1.2990    0.0000 C   0  0  0  0  0  0  0  0  0  0  0  0
   -3.0000    2.5981    0.0000 N   0  0  0  0  0  0  0  0  0  0  0  0
   -1.5000    2.5981    0.0000 C   0  0  0  0  0  0  0  0  0  0  0  0
   -0.7500    3.8971    0.0000 N   0  0  0  0  0  0  0  0  0  0  0  0
   -1.5000    5.1962    0.0000 C   0  0  0  0  0  0  0  0  0  0  0  0
   -0.7500    6.4952    0.0000 C   0  0  0  0  0  0  0  0  0  0  0  0
   -1.5000    7.7942    0.0000 C   0  0  0  0  0  0  0  0  0  0  0  0
   -3.0000    7.7942    0.0000 C   0  0  0  0  0  0  0  0  0  0  0  0
   -3.7500    9.0933    0.0000 O   0  0  0  0  0  0  0  0  0  0  0  0
   -3.0000   10.3923    0.0000 C   0  0  0  0  0  0  0  0  0  0  0  0
   -3.7500   11.6913    0.0000 C   0  0  0  0  0  0  0  0  0  0  0  0
   -3.0000   12.9904    0.0000 C   0  0  0  0  0  0  0  0  0  0  0  0
   -3.7500   14.2894    0.0000 C   0  0  0  0  0  0  0  0  0  0  0  0
   -5.2500   14.2894    0.0000 C   0  0  0  0  0  0  0  0  0  0  0  0
   -6.0000   12.9904    0.0000 C   0  0  0  0  0  0  0  0  0  0  0  0
   -5.2500   11.6913    0.0000 C   0  0  0  0  0  0  0  0  0  0  0  0
   -3.7500    6.4952    0.0000 C   0  0  0  0  0  0  0  0  0  0  0  0
   -3.0000    5.1962    0.0000 C   0  0  0  0  0  0  0  0  0  0  0  0
   -0.7500    1.2990    0.0000 C   0  0  0  0  0  0  0  0  0  0  0  0
    0.7500    1.2990    0.0000 C   0  0  0  0  0  0  0  0  0  0  0  0
  1  2  1  0
  2  3  1  0
  3  4  2  0
  4  5  1  0
  5  6  2  0
  6  7  1  0
  7  8  2  0
  8  9  1  0
  9 10  2  0
 10 11  1  0
 11 12  1  0
 12 13  2  0
 13 14  1  0
 14 15  2  0
 15 16  1  0
 16 17  1  0
 17 18  1  0
 18 19  2  0
 19 20  1  0
 20 21  2  0
 21 22  1  0
 22 23  2  0
 15 24  1  0
 24 25  2  0
 10 26  1  0
 26 27  2  0
 27  3  1  0
 26  6  1  0
 25 12  1  0
 23 18  1  0
M  END
>  <Compound_ID>  (292) 
CHEMBL1909411

>  <Molecule Name>  (292) 
nan

>  <Molecular Weight>  (292) 
393.87

>  <AlogP>  (292) 
4.96

>  <Smiles>  (292) 
COc1ccc2ncnc(Nc3ccc(OCc4ccccc4)cc3)c2c1

>  <Standard Type>  (292) 
Inhibition

>  <Standard Relation>  (292) 
'='

>  <Standard Units>  (292) 
%

>  <Standard Value>  (292) 
-2.88

>  <Assay ChEMBL ID>  (292) 
CHEMBL1962142

>  <Assay Description>  (292) 
GSK_PKIS: MET mean inhibition at 0.1 uM [Nanosyn]

>  <BAO Format ID>  (292) 
BAO_0000357

>  <BAO Label>  (292) 
single protein format

>  <Assay Organism>  (292) 
None

>  <Target ChEMBL ID>  (292) 
CHEMBL3717

>  <Target Name>  (292) 
Hepatocyte growth factor receptor

>  <Target Organism>  (292) 
Homo sapiens

>  <Target Type>  (292) 
SINGLE PROTEIN

>  <Document ChEMBL ID>  (292) 
CHEMBL1961873

>  <Source Description>  (292) 
GSK Published Kinase Inhibitor Set

>  <Document Journal>  (292) 
nan

>  <Document Year>  (292) 
nan

>  <Active>  (292) 
0.0

$$$$

     RDKit          2D

 36 40  0  0  0  0  0  0  0  0999 V2000
   -3.7500   -6.4952    0.0000 C   0  0  0  0  0  0  0  0  0  0  0  0
   -3.0000   -5.1962    0.0000 O   0  0  0  0  0  0  0  0  0  0  0  0
   -1.5000   -5.1962    0.0000 C   0  0  0  0  0  0  0  0  0  0  0  0
   -0.7500   -3.8971    0.0000 C   0  0  0  0  0  0  0  0  0  0  0  0
    0.7500   -3.8971    0.0000 C   0  0  0  0  0  0  0  0  0  0  0  0
    1.5000   -2.5981    0.0000 N   0  0  0  0  0  0  0  0  0  0  0  0
    0.7500   -1.2990    0.0000 C   0  0  0  0  0  0  0  0  0  0  0  0
    1.5000    0.0000    0.0000 N   0  0  0  0  0  0  0  0  0  0  0  0
    0.7500    1.2990    0.0000 C   0  0  0  0  0  0  0  0  0  0  0  0
   -0.7500    1.2990    0.0000 C   0  0  0  0  0  0  0  0  0  0  0  0
   -1.7537    2.4138    0.0000 C   0  0  0  0  0  0  0  0  0  0  0  0
   -1.4418    3.8810    0.0000 C   0  0  0  0  0  0  0  0  0  0  0  0
   -3.1240    1.8037    0.0000 N   0  0  0  0  0  0  0  0  0  0  0  0
   -2.9672    0.3119    0.0000 C   0  0  0  0  0  0  0  0  0  0  0  0
   -4.0819   -0.6918    0.0000 C   0  0  0  0  0  0  0  0  0  0  0  0
   -5.5085   -0.2283    0.0000 C   0  0  0  0  0  0  0  0  0  0  0  0
   -6.6232   -1.2320    0.0000 C   0  0  0  0  0  0  0  0  0  0  0  0
   -6.3114   -2.6992    0.0000 C   0  0  0  0  0  0  0  0  0  0  0  0
   -4.8848   -3.1627    0.0000 C   0  0  0  0  0  0  0  0  0  0  0  0
   -4.5729   -4.6300    0.0000 O   0  0  0  0  0  0  0  0  0  0  0  0
   -5.6876   -5.6337    0.0000 C   0  0  0  0  0  0  0  0  0  0  0  0
   -7.1142   -5.1701    0.0000 C   0  0  0  0  0  0  0  0  0  0  0  0
   -8.2289   -6.1738    0.0000 C   0  0  0  0  0  0  0  0  0  0  0  0
   -7.9171   -7.6411    0.0000 C   0  0  0  0  0  0  0  0  0  0  0  0
   -6.4905   -8.1046    0.0000 C   0  0  0  0  0  0  0  0  0  0  0  0
   -5.3758   -7.1009    0.0000 C   0  0  0  0  0  0  0  0  0  0  0  0
   -3.7701   -2.1590    0.0000 C   0  0  0  0  0  0  0  0  0  0  0  0
   -1.5000    0.0000    0.0000 N   0  0  0  0  0  0  0  0  0  0  0  0
   -0.7500   -1.2990    0.0000 N   0  0  0  0  0  0  0  0  0  0  0  0
    1.5000   -5.1962    0.0000 C   0  0  0  0  0  0  0  0  0  0  0  0
    0.7500   -6.4952    0.0000 C   0  0  0  0  0  0  0  0  0  0  0  0
    1.5000   -7.7942    0.0000 O   0  0  0  0  0  0  0  0  0  0  0  0
    0.7500   -9.0933    0.0000 C   0  0  0  0  0  0  0  0  0  0  0  0
   -0.7500   -6.4952    0.0000 C   0  0  0  0  0  0  0  0  0  0  0  0
   -1.5000   -7.7942    0.0000 O   0  0  0  0  0  0  0  0  0  0  0  0
   -3.0000   -7.7942    0.0000 C   0  0  0  0  0  0  0  0  0  0  0  0
  1  2  1  0
  2  3  1  0
  3  4  2  0
  4  5  1  0
  5  6  1  0
  6  7  1  0
  7  8  1  0
  8  9  2  0
  9 10  1  0
 10 11  2  0
 11 12  1  0
 11 13  1  0
 13 14  2  0
 14 15  1  0
 15 16  2  0
 16 17  1  0
 17 18  2  0
 18 19  1  0
 19 20  1  0
 20 21  1  0
 21 22  2  0
 22 23  1  0
 23 24  2  0
 24 25  1  0
 25 26  2  0
 19 27  2  0
 14 28  1  0
 28 29  1  0
  5 30  2  0
 30 31  1  0
 31 32  1  0
 32 33  1  0
 31 34  2  0
 34 35  1  0
 35 36  1  0
 34  3  1  0
 29  7  2  0
 28 10  1  0
 27 15  1  0
 26 21  1  0
M  END
>  <Compound_ID>  (293) 
CHEMBL519881

>  <Molecule Name>  (293) 
GW861893X

>  <Molecular Weight>  (293) 
483.53

>  <AlogP>  (293) 
5.66

>  <Smiles>  (293) 
COc1cc(Nc2ncc3c(C)nc(-c4cccc(Oc5ccccc5)c4)n3n2)cc(OC)c1OC

>  <Standard Type>  (293) 
Inhibition

>  <Standard Relation>  (293) 
'='

>  <Standard Units>  (293) 
%

>  <Standard Value>  (293) 
-0.18

>  <Assay ChEMBL ID>  (293) 
CHEMBL1962143

>  <Assay Description>  (293) 
GSK_PKIS: MET mean inhibition at 1 uM [Nanosyn]

>  <BAO Format ID>  (293) 
BAO_0000357

>  <BAO Label>  (293) 
single protein format

>  <Assay Organism>  (293) 
None

>  <Target ChEMBL ID>  (293) 
CHEMBL3717

>  <Target Name>  (293) 
Hepatocyte growth factor receptor

>  <Target Organism>  (293) 
Homo sapiens

>  <Target Type>  (293) 
SINGLE PROTEIN

>  <Document ChEMBL ID>  (293) 
CHEMBL1961873

>  <Source Description>  (293) 
GSK Published Kinase Inhibitor Set

>  <Document Journal>  (293) 
nan

>  <Document Year>  (293) 
nan

>  <Active>  (293) 
0.0

$$$$

     RDKit          2D

 31 35  0  0  0  0  0  0  0  0999 V2000
   12.7500   -1.2990    0.0000 F   0  0  0  0  0  0  0  0  0  0  0  0
   12.0000   -2.5981    0.0000 C   0  0  0  0  0  0  0  0  0  0  0  0
   12.7500   -3.8971    0.0000 C   0  0  0  0  0  0  0  0  0  0  0  0
   12.0000   -5.1962    0.0000 C   0  0  0  0  0  0  0  0  0  0  0  0
   10.5000   -5.1962    0.0000 C   0  0  0  0  0  0  0  0  0  0  0  0
    9.7500   -3.8971    0.0000 C   0  0  0  0  0  0  0  0  0  0  0  0
    8.2500   -3.8971    0.0000 C   0  0  0  0  0  0  0  0  0  0  0  0
    7.5000   -2.5981    0.0000 O   0  0  0  0  0  0  0  0  0  0  0  0
    6.0000   -2.5981    0.0000 C   0  0  0  0  0  0  0  0  0  0  0  0
    5.2500   -1.2990    0.0000 C   0  0  0  0  0  0  0  0  0  0  0  0
    3.7500   -1.2990    0.0000 C   0  0  0  0  0  0  0  0  0  0  0  0
    3.0000   -2.5981    0.0000 C   0  0  0  0  0  0  0  0  0  0  0  0
    1.5000   -2.5981    0.0000 N   0  0  0  0  0  0  0  0  0  0  0  0
    0.7500   -1.2990    0.0000 C   0  0  0  0  0  0  0  0  0  0  0  0
    1.5000    0.0000    0.0000 N   0  0  0  0  0  0  0  0  0  0  0  0
    0.7500    1.2990    0.0000 C   0  0  0  0  0  0  0  0  0  0  0  0
   -0.7500    1.2990    0.0000 N   0  0  0  0  0  0  0  0  0  0  0  0
   -1.5000    0.0000    0.0000 C   0  0  0  0  0  0  0  0  0  0  0  0
   -2.9672   -0.3119    0.0000 S   0  0  0  0  0  0  0  0  0  0  0  0
   -3.1240   -1.8037    0.0000 C   0  0  0  0  0  0  0  0  0  0  0  0
   -4.4231   -2.5537    0.0000 C   0  0  0  0  0  0  0  0  0  0  0  0
   -4.5798   -4.0454    0.0000 C   0  0  0  0  0  0  0  0  0  0  0  0
   -6.0471   -4.3573    0.0000 C   0  0  0  0  0  0  0  0  0  0  0  0
   -6.7971   -3.0583    0.0000 C   0  0  0  0  0  0  0  0  0  0  0  0
   -5.7934   -1.9435    0.0000 S   0  0  0  0  0  0  0  0  0  0  0  0
   -1.7537   -2.4138    0.0000 C   0  0  0  0  0  0  0  0  0  0  0  0
   -0.7500   -1.2990    0.0000 C   0  0  0  0  0  0  0  0  0  0  0  0
    3.7500   -3.8971    0.0000 C   0  0  0  0  0  0  0  0  0  0  0  0
    5.2500   -3.8971    0.0000 C   0  0  0  0  0  0  0  0  0  0  0  0
    6.0000   -5.1962    0.0000 Cl  0  0  0  0  0  0  0  0  0  0  0  0
   10.5000   -2.5981    0.0000 C   0  0  0  0  0  0  0  0  0  0  0  0
  1  2  1  0
  2  3  2  0
  3  4  1  0
  4  5  2  0
  5  6  1  0
  6  7  1  0
  7  8  1  0
  8  9  1  0
  9 10  2  0
 10 11  1  0
 11 12  2  0
 12 13  1  0
 13 14  1  0
 14 15  2  0
 15 16  1  0
 16 17  2  0
 17 18  1  0
 18 19  1  0
 19 20  1  0
 20 21  1  0
 21 22  2  0
 22 23  1  0
 23 24  2  0
 24 25  1  0
 20 26  2  0
 26 27  1  0
 12 28  1  0
 28 29  2  0
 29 30  1  0
  6 31  2  0
 31  2  1  0
 29  9  1  0
 27 14  1  0
 27 18  2  0
 25 21  1  0
M  END
>  <Compound_ID>  (294) 
CHEMBL506414

>  <Molecule Name>  (294) 
GW684626B

>  <Molecular Weight>  (294) 
467.98

>  <AlogP>  (294) 
7.53

>  <Smiles>  (294) 
Fc1cccc(COc2ccc(Nc3ncnc4sc(-c5cccs5)cc34)cc2Cl)c1

>  <Standard Type>  (294) 
Inhibition

>  <Standard Relation>  (294) 
'='

>  <Standard Units>  (294) 
%

>  <Standard Value>  (294) 
-1.35

>  <Assay ChEMBL ID>  (294) 
CHEMBL1962142

>  <Assay Description>  (294) 
GSK_PKIS: MET mean inhibition at 0.1 uM [Nanosyn]

>  <BAO Format ID>  (294) 
BAO_0000357

>  <BAO Label>  (294) 
single protein format

>  <Assay Organism>  (294) 
None

>  <Target ChEMBL ID>  (294) 
CHEMBL3717

>  <Target Name>  (294) 
Hepatocyte growth factor receptor

>  <Target Organism>  (294) 
Homo sapiens

>  <Target Type>  (294) 
SINGLE PROTEIN

>  <Document ChEMBL ID>  (294) 
CHEMBL1961873

>  <Source Description>  (294) 
GSK Published Kinase Inhibitor Set

>  <Document Journal>  (294) 
nan

>  <Document Year>  (294) 
nan

>  <Active>  (294) 
0.0

$$$$

     RDKit          2D

 22 24  0  0  0  0  0  0  0  0999 V2000
    4.5000    0.0000    0.0000 N   0  0  0  0  0  0  0  0  0  0  0  0
    3.0000    0.0000    0.0000 S   0  0  0  0  0  0  0  0  0  0  0  0
    3.0000   -1.5000    0.0000 O   0  0  0  0  0  0  0  0  0  0  0  0
    3.0000    1.5000    0.0000 O   0  0  0  0  0  0  0  0  0  0  0  0
    1.5000    0.0000    0.0000 C   0  0  0  0  0  0  0  0  0  0  0  0
    0.7500   -1.2990    0.0000 C   0  0  0  0  0  0  0  0  0  0  0  0
   -0.7500   -1.2990    0.0000 C   0  0  0  0  0  0  0  0  0  0  0  0
   -1.5000    0.0000    0.0000 C   0  0  0  0  0  0  0  0  0  0  0  0
   -3.0000    0.0000    0.0000 N   0  0  0  0  0  0  0  0  0  0  0  0
   -3.7500    1.2990    0.0000 C   0  0  0  0  0  0  0  0  0  0  0  0
   -5.2418    1.4558    0.0000 N   0  0  0  0  0  0  0  0  0  0  0  0
   -5.5537    2.9231    0.0000 C   0  0  0  0  0  0  0  0  0  0  0  0
   -4.2546    3.6731    0.0000 C   0  0  0  0  0  0  0  0  0  0  0  0
   -4.0978    5.1648    0.0000 C   0  0  0  0  0  0  0  0  0  0  0  0
   -2.7275    5.7749    0.0000 C   0  0  0  0  0  0  0  0  0  0  0  0
   -2.5707    7.2667    0.0000 C   0  0  0  0  0  0  0  0  0  0  0  0
   -3.7842    8.1484    0.0000 C   0  0  0  0  0  0  0  0  0  0  0  0
   -5.1546    7.5383    0.0000 C   0  0  0  0  0  0  0  0  0  0  0  0
   -5.3113    6.0465    0.0000 C   0  0  0  0  0  0  0  0  0  0  0  0
   -3.1399    2.6694    0.0000 O   0  0  0  0  0  0  0  0  0  0  0  0
   -0.7500    1.2990    0.0000 C   0  0  0  0  0  0  0  0  0  0  0  0
    0.7500    1.2990    0.0000 C   0  0  0  0  0  0  0  0  0  0  0  0
  1  2  1  0
  2  3  2  0
  2  4  2  0
  2  5  1  0
  5  6  2  0
  6  7  1  0
  7  8  2  0
  8  9  1  0
  9 10  1  0
 10 11  2  0
 11 12  1  0
 12 13  2  0
 13 14  1  0
 14 15  2  0
 15 16  1  0
 16 17  2  0
 17 18  1  0
 18 19  2  0
 13 20  1  0
  8 21  1  0
 21 22  2  0
 22  5  1  0
 20 10  1  0
 19 14  1  0
M  END
>  <Compound_ID>  (295) 
CHEMBL194062

>  <Molecule Name>  (295) 
GW572399X

>  <Molecular Weight>  (295) 
315.35

>  <AlogP>  (295) 
2.73

>  <Smiles>  (295) 
NS(=O)(=O)c1ccc(Nc2ncc(-c3ccccc3)o2)cc1

>  <Standard Type>  (295) 
Inhibition

>  <Standard Relation>  (295) 
'='

>  <Standard Units>  (295) 
%

>  <Standard Value>  (295) 
-0.71

>  <Assay ChEMBL ID>  (295) 
CHEMBL1962143

>  <Assay Description>  (295) 
GSK_PKIS: MET mean inhibition at 1 uM [Nanosyn]

>  <BAO Format ID>  (295) 
BAO_0000357

>  <BAO Label>  (295) 
single protein format

>  <Assay Organism>  (295) 
None

>  <Target ChEMBL ID>  (295) 
CHEMBL3717

>  <Target Name>  (295) 
Hepatocyte growth factor receptor

>  <Target Organism>  (295) 
Homo sapiens

>  <Target Type>  (295) 
SINGLE PROTEIN

>  <Document ChEMBL ID>  (295) 
CHEMBL1961873

>  <Source Description>  (295) 
GSK Published Kinase Inhibitor Set

>  <Document Journal>  (295) 
nan

>  <Document Year>  (295) 
nan

>  <Active>  (295) 
0.0

$$$$

     RDKit          2D

 27 30  0  0  0  0  0  0  0  0999 V2000
    3.0000    0.0000    0.0000 C   0  0  0  0  0  0  0  0  0  0  0  0
    1.5000    0.0000    0.0000 C   0  0  0  0  0  0  0  0  0  0  0  0
    0.7500   -1.2990    0.0000 C   0  0  0  0  0  0  0  0  0  0  0  0
   -0.7500   -1.2990    0.0000 C   0  0  0  0  0  0  0  0  0  0  0  0
   -1.5000   -2.5981    0.0000 C   0  0  0  0  0  0  0  0  0  0  0  0
   -3.0000   -2.5981    0.0000 C   0  0  0  0  0  0  0  0  0  0  0  0
   -3.7500   -3.8971    0.0000 C   0  0  0  0  0  0  0  0  0  0  0  0
   -3.0000   -5.1962    0.0000 C   0  0  0  0  0  0  0  0  0  0  0  0
   -1.5000   -5.1962    0.0000 C   0  0  0  0  0  0  0  0  0  0  0  0
   -0.7500   -3.8971    0.0000 N   0  0  0  0  0  0  0  0  0  0  0  0
   -1.5000    0.0000    0.0000 C   0  0  0  0  0  0  0  0  0  0  0  0
   -0.7500    1.2990    0.0000 C   0  0  0  0  0  0  0  0  0  0  0  0
   -1.5000    2.5981    0.0000 C   0  0  0  0  0  0  0  0  0  0  0  0
    0.7500    1.2990    0.0000 C   0  0  0  0  0  0  0  0  0  0  0  0
    1.5000    2.5981    0.0000 C   0  0  0  0  0  0  0  0  0  0  0  0
    3.0000    2.5981    0.0000 C   0  0  0  0  0  0  0  0  0  0  0  0
    3.7500    3.8971    0.0000 C   0  0  0  0  0  0  0  0  0  0  0  0
    5.2500    3.8971    0.0000 C   0  0  0  0  0  0  0  0  0  0  0  0
    6.0000    5.1962    0.0000 N   0  0  0  0  0  0  0  0  0  0  0  0
    5.2500    6.4952    0.0000 C   0  0  0  0  0  0  0  0  0  0  0  0
    3.7500    6.4952    0.0000 C   0  0  0  0  0  0  0  0  0  0  0  0
    3.0000    7.7942    0.0000 C   0  0  0  0  0  0  0  0  0  0  0  0
    1.5082    7.9510    0.0000 N   0  0  0  0  0  0  0  0  0  0  0  0
    1.1963    9.4182    0.0000 N   0  0  0  0  0  0  0  0  0  0  0  0
    2.4954   10.1682    0.0000 N   0  0  0  0  0  0  0  0  0  0  0  0
    3.6101    9.1645    0.0000 N   0  0  0  0  0  0  0  0  0  0  0  0
    3.0000    5.1962    0.0000 C   0  0  0  0  0  0  0  0  0  0  0  0
  1  2  1  0
  2  3  2  0
  3  4  1  0
  4  5  1  0
  5  6  2  0
  6  7  1  0
  7  8  2  0
  8  9  1  0
  9 10  2  0
  4 11  2  0
 11 12  1  0
 12 13  1  0
 12 14  2  0
 14 15  1  0
 15 16  2  0
 16 17  1  0
 17 18  2  0
 18 19  1  0
 19 20  2  0
 20 21  1  0
 21 22  1  0
 22 23  1  0
 23 24  2  0
 24 25  1  0
 25 26  1  0
 21 27  2  0
 14  2  1  0
 27 17  1  0
 10  5  1  0
 26 22  2  0
M  END
>  <Compound_ID>  (296) 
CHEMBL1909354

>  <Molecule Name>  (296) 
GW459057A

>  <Molecular Weight>  (296) 
390.88

>  <AlogP>  (296) 
4.11

>  <Smiles>  (296) 
Cc1cc(-c2ccccn2)cc(C)c1/C=C/c1cncc(-c2nn[nH]n2)c1

>  <Standard Type>  (296) 
Inhibition

>  <Standard Relation>  (296) 
'='

>  <Standard Units>  (296) 
%

>  <Standard Value>  (296) 
4.32

>  <Assay ChEMBL ID>  (296) 
CHEMBL1962143

>  <Assay Description>  (296) 
GSK_PKIS: MET mean inhibition at 1 uM [Nanosyn]

>  <BAO Format ID>  (296) 
BAO_0000357

>  <BAO Label>  (296) 
single protein format

>  <Assay Organism>  (296) 
None

>  <Target ChEMBL ID>  (296) 
CHEMBL3717

>  <Target Name>  (296) 
Hepatocyte growth factor receptor

>  <Target Organism>  (296) 
Homo sapiens

>  <Target Type>  (296) 
SINGLE PROTEIN

>  <Document ChEMBL ID>  (296) 
CHEMBL1961873

>  <Source Description>  (296) 
GSK Published Kinase Inhibitor Set

>  <Document Journal>  (296) 
nan

>  <Document Year>  (296) 
nan

>  <Active>  (296) 
0.0

$$$$

     RDKit          2D

 34 38  0  0  0  0  0  0  0  0999 V2000
    8.1673  -10.4486    0.0000 C   0  0  0  0  0  0  0  0  0  0  0  0
    7.8555   -8.9814    0.0000 N   0  0  0  0  0  0  0  0  0  0  0  0
    6.4289   -8.5179    0.0000 C   0  0  0  0  0  0  0  0  0  0  0  0
    6.1170   -7.0506    0.0000 C   0  0  0  0  0  0  0  0  0  0  0  0
    7.2317   -6.0469    0.0000 C   0  0  0  0  0  0  0  0  0  0  0  0
    6.9199   -4.5797    0.0000 N   0  0  0  0  0  0  0  0  0  0  0  0
    5.4933   -4.1162    0.0000 C   0  0  0  0  0  0  0  0  0  0  0  0
    5.1814   -2.6490    0.0000 C   0  0  0  0  0  0  0  0  0  0  0  0
    3.7548   -2.1855    0.0000 C   0  0  0  0  0  0  0  0  0  0  0  0
    2.6401   -3.1891    0.0000 C   0  0  0  0  0  0  0  0  0  0  0  0
    1.2135   -2.7256    0.0000 C   0  0  0  0  0  0  0  0  0  0  0  0
   -0.0000   -3.6073    0.0000 N   0  0  0  0  0  0  0  0  0  0  0  0
   -1.2135   -2.7256    0.0000 N   0  0  0  0  0  0  0  0  0  0  0  0
   -0.7500   -1.2990    0.0000 C   0  0  0  0  0  0  0  0  0  0  0  0
    0.7500   -1.2990    0.0000 C   0  0  0  0  0  0  0  0  0  0  0  0
    1.5000    0.0000    0.0000 C   0  0  0  0  0  0  0  0  0  0  0  0
    0.7500    1.2990    0.0000 N   0  0  0  0  0  0  0  0  0  0  0  0
    1.5000    2.5981    0.0000 S   0  0  0  0  0  0  0  0  0  0  0  0
    0.2010    3.3481    0.0000 O   0  0  0  0  0  0  0  0  0  0  0  0
    2.7990    1.8481    0.0000 O   0  0  0  0  0  0  0  0  0  0  0  0
    2.2500    3.8971    0.0000 C   0  0  0  0  0  0  0  0  0  0  0  0
    3.7500    3.8971    0.0000 C   0  0  0  0  0  0  0  0  0  0  0  0
    4.5000    2.5981    0.0000 Cl  0  0  0  0  0  0  0  0  0  0  0  0
    4.5000    5.1962    0.0000 C   0  0  0  0  0  0  0  0  0  0  0  0
    3.7500    6.4952    0.0000 C   0  0  0  0  0  0  0  0  0  0  0  0
    2.2500    6.4952    0.0000 C   0  0  0  0  0  0  0  0  0  0  0  0
    1.5000    5.1962    0.0000 C   0  0  0  0  0  0  0  0  0  0  0  0
    0.0000    5.1962    0.0000 Cl  0  0  0  0  0  0  0  0  0  0  0  0
   -0.7500    1.2990    0.0000 C   0  0  0  0  0  0  0  0  0  0  0  0
   -1.5000    0.0000    0.0000 C   0  0  0  0  0  0  0  0  0  0  0  0
    2.9520   -4.6564    0.0000 C   0  0  0  0  0  0  0  0  0  0  0  0
    4.3786   -5.1199    0.0000 C   0  0  0  0  0  0  0  0  0  0  0  0
    8.6583   -6.5105    0.0000 C   0  0  0  0  0  0  0  0  0  0  0  0
    8.9702   -7.9777    0.0000 C   0  0  0  0  0  0  0  0  0  0  0  0
  1  2  1  0
  2  3  1  0
  3  4  1  0
  4  5  1  0
  5  6  1  0
  6  7  1  0
  7  8  2  0
  8  9  1  0
  9 10  2  0
 10 11  1  0
 11 12  2  0
 12 13  1  0
 13 14  1  0
 14 15  2  0
 15 16  1  0
 16 17  1  0
 17 18  1  0
 18 19  2  0
 18 20  2  0
 18 21  1  0
 21 22  2  0
 22 23  1  0
 22 24  1  0
 24 25  2  0
 25 26  1  0
 26 27  2  0
 27 28  1  0
 17 29  1  0
 29 30  1  0
 10 31  1  0
 31 32  2  0
  5 33  1  0
 33 34  1  0
 34  2  1  0
 32  7  1  0
 15 11  1  0
 27 21  1  0
 30 14  1  0
M  END
>  <Compound_ID>  (297) 
CHEMBL4168618

>  <Molecule Name>  (297) 
nan

>  <Molecular Weight>  (297) 
520.49

>  <AlogP>  (297) 
4.64

>  <Smiles>  (297) 
CN1CCC(Nc2ccc(-c3n[nH]c4c3CN(S(=O)(=O)c3c(Cl)cccc3Cl)CC4)cc2)CC1

>  <Standard Type>  (297) 
Inhibition

>  <Standard Relation>  (297) 
'='

>  <Standard Units>  (297) 
%

>  <Standard Value>  (297) 
7.16

>  <Assay ChEMBL ID>  (297) 
CHEMBL4131872

>  <Assay Description>  (297) 
Inhibition of human GST-tagged c-MET Y1230H mutant at 3 uM preincubated for 20 mins followed by [33P]-ATP addition measured after 2 hrs by Hot-SpotSM kinase assay

>  <BAO Format ID>  (297) 
BAO_0000357

>  <BAO Label>  (297) 
single protein format

>  <Assay Organism>  (297) 
Homo sapiens

>  <Target ChEMBL ID>  (297) 
CHEMBL3717

>  <Target Name>  (297) 
Hepatocyte growth factor receptor

>  <Target Organism>  (297) 
Homo sapiens

>  <Target Type>  (297) 
SINGLE PROTEIN

>  <Document ChEMBL ID>  (297) 
CHEMBL4130362

>  <Source Description>  (297) 
Scientific Literature

>  <Document Journal>  (297) 
Eur J Med Chem

>  <Document Year>  (297) 
2017.0

>  <Active>  (297) 
0.0

$$$$

     RDKit          2D

 31 34  0  0  0  0  0  0  0  0999 V2000
    5.2500   -1.2990    0.0000 C   0  0  0  0  0  0  0  0  0  0  0  0
    3.7500   -1.2990    0.0000 C   0  0  0  0  0  0  0  0  0  0  0  0
    3.0000    0.0000    0.0000 O   0  0  0  0  0  0  0  0  0  0  0  0
    1.5000    0.0000    0.0000 C   0  0  0  0  0  0  0  0  0  0  0  0
    0.7500   -1.2990    0.0000 C   0  0  0  0  0  0  0  0  0  0  0  0
   -0.7500   -1.2990    0.0000 C   0  0  0  0  0  0  0  0  0  0  0  0
   -1.5000    0.0000    0.0000 C   0  0  0  0  0  0  0  0  0  0  0  0
   -2.9672    0.3119    0.0000 C   0  0  0  0  0  0  0  0  0  0  0  0
   -4.0819   -0.6918    0.0000 C   0  0  0  0  0  0  0  0  0  0  0  0
   -5.5085   -0.2283    0.0000 C   0  0  0  0  0  0  0  0  0  0  0  0
   -6.6232   -1.2320    0.0000 C   0  0  0  0  0  0  0  0  0  0  0  0
   -6.3114   -2.6992    0.0000 N   0  0  0  0  0  0  0  0  0  0  0  0
   -4.8848   -3.1627    0.0000 C   0  0  0  0  0  0  0  0  0  0  0  0
   -4.5729   -4.6300    0.0000 N   0  0  0  0  0  0  0  0  0  0  0  0
   -5.6876   -5.6337    0.0000 C   0  0  0  0  0  0  0  0  0  0  0  0
   -7.1142   -5.1701    0.0000 C   0  0  0  0  0  0  0  0  0  0  0  0
   -8.2289   -6.1738    0.0000 C   0  0  0  0  0  0  0  0  0  0  0  0
   -9.6555   -5.7103    0.0000 O   0  0  0  0  0  0  0  0  0  0  0  0
   -9.9674   -4.2431    0.0000 C   0  0  0  0  0  0  0  0  0  0  0  0
   -7.9171   -7.6411    0.0000 C   0  0  0  0  0  0  0  0  0  0  0  0
   -6.4905   -8.1046    0.0000 C   0  0  0  0  0  0  0  0  0  0  0  0
   -6.1786   -9.5718    0.0000 C   0  0  0  0  0  0  0  0  0  0  0  0
   -5.8668  -11.0390    0.0000 F   0  0  0  0  0  0  0  0  0  0  0  0
   -7.6458   -9.8837    0.0000 F   0  0  0  0  0  0  0  0  0  0  0  0
   -4.7114   -9.2599    0.0000 F   0  0  0  0  0  0  0  0  0  0  0  0
   -5.3758   -7.1009    0.0000 C   0  0  0  0  0  0  0  0  0  0  0  0
   -3.7701   -2.1590    0.0000 N   0  0  0  0  0  0  0  0  0  0  0  0
   -3.1240    1.8037    0.0000 C   0  0  0  0  0  0  0  0  0  0  0  0
   -1.7537    2.4138    0.0000 N   0  0  0  0  0  0  0  0  0  0  0  0
   -0.7500    1.2990    0.0000 N   0  0  0  0  0  0  0  0  0  0  0  0
    0.7500    1.2990    0.0000 N   0  0  0  0  0  0  0  0  0  0  0  0
  1  2  1  0
  2  3  1  0
  3  4  1  0
  4  5  1  0
  5  6  2  0
  6  7  1  0
  7  8  2  0
  8  9  1  0
  9 10  2  0
 10 11  1  0
 11 12  2  0
 12 13  1  0
 13 14  1  0
 14 15  1  0
 15 16  2  0
 16 17  1  0
 17 18  1  0
 18 19  1  0
 17 20  2  0
 20 21  1  0
 21 22  1  0
 22 23  1  0
 22 24  1  0
 22 25  1  0
 21 26  2  0
 13 27  2  0
  8 28  1  0
 28 29  2  0
 29 30  1  0
 30 31  1  0
 31  4  2  0
 30  7  1  0
 27  9  1  0
 26 15  1  0
M  END
>  <Compound_ID>  (298) 
CHEMBL188426

>  <Molecule Name>  (298) 
GW807982X

>  <Molecular Weight>  (298) 
430.39

>  <AlogP>  (298) 
4.36

>  <Smiles>  (298) 
CCOc1ccc2c(-c3ccnc(Nc4cc(OC)cc(C(F)(F)F)c4)n3)cnn2n1

>  <Standard Type>  (298) 
Inhibition

>  <Standard Relation>  (298) 
'='

>  <Standard Units>  (298) 
%

>  <Standard Value>  (298) 
5.18

>  <Assay ChEMBL ID>  (298) 
CHEMBL1962143

>  <Assay Description>  (298) 
GSK_PKIS: MET mean inhibition at 1 uM [Nanosyn]

>  <BAO Format ID>  (298) 
BAO_0000357

>  <BAO Label>  (298) 
single protein format

>  <Assay Organism>  (298) 
None

>  <Target ChEMBL ID>  (298) 
CHEMBL3717

>  <Target Name>  (298) 
Hepatocyte growth factor receptor

>  <Target Organism>  (298) 
Homo sapiens

>  <Target Type>  (298) 
SINGLE PROTEIN

>  <Document ChEMBL ID>  (298) 
CHEMBL1961873

>  <Source Description>  (298) 
GSK Published Kinase Inhibitor Set

>  <Document Journal>  (298) 
nan

>  <Document Year>  (298) 
nan

>  <Active>  (298) 
0.0

$$$$

     RDKit          2D

 39 43  0  0  0  0  0  0  0  0999 V2000
   -5.4969  -12.5290    0.0000 C   0  0  0  0  0  0  0  0  0  0  0  0
   -4.0051  -12.6858    0.0000 N   0  0  0  0  0  0  0  0  0  0  0  0
   -3.3950  -14.0561    0.0000 C   0  0  0  0  0  0  0  0  0  0  0  0
   -3.1235  -11.4723    0.0000 C   0  0  0  0  0  0  0  0  0  0  0  0
   -3.7336  -10.1020    0.0000 O   0  0  0  0  0  0  0  0  0  0  0  0
   -1.6317  -11.6291    0.0000 O   0  0  0  0  0  0  0  0  0  0  0  0
   -0.7500  -10.4156    0.0000 C   0  0  0  0  0  0  0  0  0  0  0  0
    0.7500  -10.4156    0.0000 C   0  0  0  0  0  0  0  0  0  0  0  0
    1.2135   -8.9890    0.0000 N   0  0  0  0  0  0  0  0  0  0  0  0
    0.0000   -8.1073    0.0000 C   0  0  0  0  0  0  0  0  0  0  0  0
   -0.0000   -6.6073    0.0000 C   0  0  0  0  0  0  0  0  0  0  0  0
   -0.0000   -5.1073    0.0000 C   0  0  0  0  0  0  0  0  0  0  0  0
   -0.0000   -3.6073    0.0000 C   0  0  0  0  0  0  0  0  0  0  0  0
    1.2135   -2.7256    0.0000 C   0  0  0  0  0  0  0  0  0  0  0  0
    0.7500   -1.2990    0.0000 C   0  0  0  0  0  0  0  0  0  0  0  0
    1.5000    0.0000    0.0000 N   0  0  0  0  0  0  0  0  0  0  0  0
    0.7500    1.2990    0.0000 C   0  0  0  0  0  0  0  0  0  0  0  0
   -0.7500    1.2990    0.0000 N   0  0  0  0  0  0  0  0  0  0  0  0
   -1.5000    0.0000    0.0000 C   0  0  0  0  0  0  0  0  0  0  0  0
   -3.0000    0.0000    0.0000 N   0  0  0  0  0  0  0  0  0  0  0  0
   -3.7500    1.2990    0.0000 C   0  0  0  0  0  0  0  0  0  0  0  0
   -3.0000    2.5981    0.0000 C   0  0  0  0  0  0  0  0  0  0  0  0
   -3.7500    3.8971    0.0000 C   0  0  0  0  0  0  0  0  0  0  0  0
   -5.2500    3.8971    0.0000 C   0  0  0  0  0  0  0  0  0  0  0  0
   -6.0000    5.1962    0.0000 O   0  0  0  0  0  0  0  0  0  0  0  0
   -5.2500    6.4952    0.0000 C   0  0  0  0  0  0  0  0  0  0  0  0
   -6.0000    7.7942    0.0000 C   0  0  0  0  0  0  0  0  0  0  0  0
   -5.2500    9.0933    0.0000 C   0  0  0  0  0  0  0  0  0  0  0  0
   -6.0000   10.3923    0.0000 C   0  0  0  0  0  0  0  0  0  0  0  0
   -7.5000   10.3923    0.0000 C   0  0  0  0  0  0  0  0  0  0  0  0
   -8.2500    9.0933    0.0000 C   0  0  0  0  0  0  0  0  0  0  0  0
   -9.7500    9.0933    0.0000 F   0  0  0  0  0  0  0  0  0  0  0  0
   -7.5000    7.7942    0.0000 C   0  0  0  0  0  0  0  0  0  0  0  0
   -6.0000    2.5981    0.0000 C   0  0  0  0  0  0  0  0  0  0  0  0
   -7.5000    2.5981    0.0000 Cl  0  0  0  0  0  0  0  0  0  0  0  0
   -5.2500    1.2990    0.0000 C   0  0  0  0  0  0  0  0  0  0  0  0
   -0.7500   -1.2990    0.0000 C   0  0  0  0  0  0  0  0  0  0  0  0
   -1.2135   -2.7256    0.0000 S   0  0  0  0  0  0  0  0  0  0  0  0
   -1.2135   -8.9890    0.0000 C   0  0  0  0  0  0  0  0  0  0  0  0
  1  2  1  0
  2  3  1  0
  2  4  1  0
  4  5  2  0
  4  6  1  0
  7  6  1  6
  7  8  1  0
  8  9  1  0
  9 10  1  0
 10 11  1  1
 11 12  3  0
 12 13  1  0
 13 14  2  0
 14 15  1  0
 15 16  2  0
 16 17  1  0
 17 18  2  0
 18 19  1  0
 19 20  1  0
 20 21  1  0
 21 22  2  0
 22 23  1  0
 23 24  2  0
 24 25  1  0
 25 26  1  0
 26 27  1  0
 27 28  2  0
 28 29  1  0
 29 30  2  0
 30 31  1  0
 31 32  1  0
 31 33  2  0
 24 34  1  0
 34 35  1  0
 34 36  2  0
 19 37  2  0
 37 38  1  0
 10 39  1  0
 39  7  1  0
 38 13  1  0
 37 15  1  0
 36 21  1  0
 33 27  1  0
M  END
>  <Compound_ID>  (299) 
CHEMBL517123

>  <Molecule Name>  (299) 
GSK-182497A

>  <Molecular Weight>  (299) 
566.06

>  <AlogP>  (299) 
5.59

>  <Smiles>  (299) 
CN(C)C(=O)O[C@H]1CN[C@H](C#Cc2cc3ncnc(Nc4ccc(OCc5cccc(F)c5)c(Cl)c4)c3s2)C1

>  <Standard Type>  (299) 
Inhibition

>  <Standard Relation>  (299) 
'='

>  <Standard Units>  (299) 
%

>  <Standard Value>  (299) 
1.84

>  <Assay ChEMBL ID>  (299) 
CHEMBL1962142

>  <Assay Description>  (299) 
GSK_PKIS: MET mean inhibition at 0.1 uM [Nanosyn]

>  <BAO Format ID>  (299) 
BAO_0000357

>  <BAO Label>  (299) 
single protein format

>  <Assay Organism>  (299) 
None

>  <Target ChEMBL ID>  (299) 
CHEMBL3717

>  <Target Name>  (299) 
Hepatocyte growth factor receptor

>  <Target Organism>  (299) 
Homo sapiens

>  <Target Type>  (299) 
SINGLE PROTEIN

>  <Document ChEMBL ID>  (299) 
CHEMBL1961873

>  <Source Description>  (299) 
GSK Published Kinase Inhibitor Set

>  <Document Journal>  (299) 
nan

>  <Document Year>  (299) 
nan

>  <Active>  (299) 
0.0

$$$$

     RDKit          2D

 19 22  0  0  0  0  0  0  0  0999 V2000
    3.7856    2.2002    0.0000 C   0  0  0  0  0  0  0  0  0  0  0  0
    2.7820    1.0855    0.0000 N   0  0  0  0  0  0  0  0  0  0  0  0
    3.2455   -0.3411    0.0000 C   0  0  0  0  0  0  0  0  0  0  0  0
    2.2418   -1.4558    0.0000 N   0  0  0  0  0  0  0  0  0  0  0  0
    2.5537   -2.9231    0.0000 C   0  0  0  0  0  0  0  0  0  0  0  0
    1.2546   -3.6731    0.0000 C   0  0  0  0  0  0  0  0  0  0  0  0
    0.1399   -2.6694    0.0000 C   0  0  0  0  0  0  0  0  0  0  0  0
    0.7500   -1.2990    0.0000 C   0  0  0  0  0  0  0  0  0  0  0  0
    1.5000    0.0000    0.0000 C   0  0  0  0  0  0  0  0  0  0  0  0
    0.7500    1.2990    0.0000 C   0  0  0  0  0  0  0  0  0  0  0  0
   -0.7500    1.2990    0.0000 N   0  0  0  0  0  0  0  0  0  0  0  0
   -1.5000    0.0000    0.0000 C   0  0  0  0  0  0  0  0  0  0  0  0
   -0.7500   -1.2990    0.0000 C   0  0  0  0  0  0  0  0  0  0  0  0
    4.7127   -0.6530    0.0000 C   0  0  0  0  0  0  0  0  0  0  0  0
    5.4627   -1.9520    0.0000 N   0  0  0  0  0  0  0  0  0  0  0  0
    6.9299   -1.6402    0.0000 C   0  0  0  0  0  0  0  0  0  0  0  0
    7.0867   -0.1484    0.0000 N   0  0  0  0  0  0  0  0  0  0  0  0
    5.7164    0.4617    0.0000 C   0  0  0  0  0  0  0  0  0  0  0  0
    5.2529    1.8883    0.0000 N   0  0  0  0  0  0  0  0  0  0  0  0
  1  2  2  0
  2  3  1  0
  3  4  1  0
  4  5  1  0
  5  6  1  0
  6  7  1  0
  7  8  1  0
  8  9  1  0
  9 10  1  0
 10 11  1  0
 11 12  1  0
 12 13  1  0
  3 14  2  0
 14 15  1  0
 15 16  2  0
 16 17  1  0
 17 18  1  0
 18 19  2  0
 19  1  1  0
  8  4  1  0
 18 14  1  0
 13  8  1  0
M  END
>  <Compound_ID>  (300) 
CHEMBL2420915

>  <Molecule Name>  (300) 
nan

>  <Molecular Weight>  (300) 
258.33

>  <AlogP>  (300) 
1.08

>  <Smiles>  (300) 
c1nc(N2CCCC23CCNCC3)c2nc[nH]c2n1

>  <Standard Type>  (300) 
Inhibition

>  <Standard Relation>  (300) 
'='

>  <Standard Units>  (300) 
%

>  <Standard Value>  (300) 
4.0

>  <Assay ChEMBL ID>  (300) 
CHEMBL2424318

>  <Assay Description>  (300) 
Inhibition of MET (unknown origin) at 30 uM by microfluidic mobility shift assay relative to control

>  <BAO Format ID>  (300) 
BAO_0000357

>  <BAO Label>  (300) 
single protein format

>  <Assay Organism>  (300) 
Homo sapiens

>  <Target ChEMBL ID>  (300) 
CHEMBL3717

>  <Target Name>  (300) 
Hepatocyte growth factor receptor

>  <Target Organism>  (300) 
Homo sapiens

>  <Target Type>  (300) 
SINGLE PROTEIN

>  <Document ChEMBL ID>  (300) 
CHEMBL2417369

>  <Source Description>  (300) 
Scientific Literature

>  <Document Journal>  (300) 
Bioorg Med Chem

>  <Document Year>  (300) 
2013.0

>  <Active>  (300) 
0.0

$$$$

     RDKit          2D

 20 23  0  0  0  0  0  0  0  0999 V2000
    3.0000   -7.7942    0.0000 C   0  0  0  0  0  0  0  0  0  0  0  0
    2.2500   -6.4952    0.0000 N   0  0  0  0  0  0  0  0  0  0  0  0
    3.0000   -5.1962    0.0000 C   0  0  0  0  0  0  0  0  0  0  0  0
    2.2500   -3.8971    0.0000 N   0  0  0  0  0  0  0  0  0  0  0  0
    3.0000   -2.5981    0.0000 C   0  0  0  0  0  0  0  0  0  0  0  0
    2.2500   -1.2990    0.0000 C   0  0  0  0  0  0  0  0  0  0  0  0
    0.7500   -1.2990    0.0000 C   0  0  0  0  0  0  0  0  0  0  0  0
    1.5000    0.0000    0.0000 C   0  0  0  0  0  0  0  0  0  0  0  0
    0.7500    1.2990    0.0000 C   0  0  0  0  0  0  0  0  0  0  0  0
   -0.7500    1.2990    0.0000 C   0  0  0  0  0  0  0  0  0  0  0  0
   -1.5000    0.0000    0.0000 N   0  0  0  0  0  0  0  0  0  0  0  0
   -0.7500   -1.2990    0.0000 C   0  0  0  0  0  0  0  0  0  0  0  0
   -0.0000   -2.5981    0.0000 C   0  0  0  0  0  0  0  0  0  0  0  0
    0.7500   -3.8971    0.0000 C   0  0  0  0  0  0  0  0  0  0  0  0
    4.5000   -5.1962    0.0000 C   0  0  0  0  0  0  0  0  0  0  0  0
    5.5037   -4.0814    0.0000 N   0  0  0  0  0  0  0  0  0  0  0  0
    6.8740   -4.6915    0.0000 C   0  0  0  0  0  0  0  0  0  0  0  0
    6.7172   -6.1833    0.0000 N   0  0  0  0  0  0  0  0  0  0  0  0
    5.2500   -6.4952    0.0000 C   0  0  0  0  0  0  0  0  0  0  0  0
    4.5000   -7.7942    0.0000 N   0  0  0  0  0  0  0  0  0  0  0  0
  1  2  2  0
  2  3  1  0
  3  4  1  0
  4  5  1  0
  5  6  1  0
  6  7  1  0
  7  8  1  0
  8  9  1  0
  9 10  1  0
 10 11  1  0
 11 12  1  0
  7 13  1  0
 13 14  1  0
  3 15  2  0
 15 16  1  0
 16 17  2  0
 17 18  1  0
 18 19  1  0
 19 20  2  0
 20  1  1  0
 14  4  1  0
 19 15  1  0
 12  7  1  0
M  END
>  <Compound_ID>  (301) 
CHEMBL2420911

>  <Molecule Name>  (301) 
nan

>  <Molecular Weight>  (301) 
272.36

>  <AlogP>  (301) 
1.32

>  <Smiles>  (301) 
c1nc(N2CCC3(CCCNC3)CC2)c2nc[nH]c2n1

>  <Standard Type>  (301) 
Inhibition

>  <Standard Relation>  (301) 
'='

>  <Standard Units>  (301) 
%

>  <Standard Value>  (301) 
18.0

>  <Assay ChEMBL ID>  (301) 
CHEMBL2424318

>  <Assay Description>  (301) 
Inhibition of MET (unknown origin) at 30 uM by microfluidic mobility shift assay relative to control

>  <BAO Format ID>  (301) 
BAO_0000357

>  <BAO Label>  (301) 
single protein format

>  <Assay Organism>  (301) 
Homo sapiens

>  <Target ChEMBL ID>  (301) 
CHEMBL3717

>  <Target Name>  (301) 
Hepatocyte growth factor receptor

>  <Target Organism>  (301) 
Homo sapiens

>  <Target Type>  (301) 
SINGLE PROTEIN

>  <Document ChEMBL ID>  (301) 
CHEMBL2417369

>  <Source Description>  (301) 
Scientific Literature

>  <Document Journal>  (301) 
Bioorg Med Chem

>  <Document Year>  (301) 
2013.0

>  <Active>  (301) 
0.0

$$$$

     RDKit          2D

 23 26  0  0  0  0  0  0  0  0999 V2000
   -7.8175    0.9250    0.0000 N   0  0  0  0  0  0  0  0  0  0  0  0
   -6.4268    0.3631    0.0000 C   0  0  0  0  0  0  0  0  0  0  0  0
   -7.2216   -0.9090    0.0000 C   0  0  0  0  0  0  0  0  0  0  0  0
   -8.7207   -0.8566    0.0000 C   0  0  0  0  0  0  0  0  0  0  0  0
   -9.4249    0.4678    0.0000 C   0  0  0  0  0  0  0  0  0  0  0  0
  -10.9240    0.5202    0.0000 C   0  0  0  0  0  0  0  0  0  0  0  0
  -11.7189   -0.7519    0.0000 C   0  0  0  0  0  0  0  0  0  0  0  0
  -11.0147   -2.0763    0.0000 C   0  0  0  0  0  0  0  0  0  0  0  0
   -9.5156   -2.1287    0.0000 C   0  0  0  0  0  0  0  0  0  0  0  0
   -5.3120   -0.6406    0.0000 C   0  0  0  0  0  0  0  0  0  0  0  0
   -3.8855   -0.1771    0.0000 C   0  0  0  0  0  0  0  0  0  0  0  0
   -3.5736    1.2902    0.0000 N   0  0  0  0  0  0  0  0  0  0  0  0
   -2.1470    1.7537    0.0000 C   0  0  0  0  0  0  0  0  0  0  0  0
   -1.8351    3.2209    0.0000 N   0  0  0  0  0  0  0  0  0  0  0  0
   -0.4086    3.6844    0.0000 C   0  0  0  0  0  0  0  0  0  0  0  0
    0.7062    2.6807    0.0000 N   0  0  0  0  0  0  0  0  0  0  0  0
    0.3943    1.2135    0.0000 C   0  0  0  0  0  0  0  0  0  0  0  0
    1.2760    0.0000    0.0000 N   0  0  0  0  0  0  0  0  0  0  0  0
    0.3943   -1.2135    0.0000 C   0  0  0  0  0  0  0  0  0  0  0  0
   -1.0323   -0.7500    0.0000 N   0  0  0  0  0  0  0  0  0  0  0  0
   -1.0323    0.7500    0.0000 C   0  0  0  0  0  0  0  0  0  0  0  0
   -4.6883    2.2939    0.0000 C   0  0  0  0  0  0  0  0  0  0  0  0
   -6.1149    1.8303    0.0000 C   0  0  0  0  0  0  0  0  0  0  0  0
  1  2  1  0
  2  3  1  0
  3  4  1  0
  4  5  2  0
  5  6  1  0
  6  7  2  0
  7  8  1  0
  8  9  2  0
  2 10  1  0
 10 11  1  0
 11 12  1  0
 12 13  1  0
 13 14  2  0
 14 15  1  0
 15 16  2  0
 16 17  1  0
 17 18  1  0
 18 19  1  0
 19 20  2  0
 20 21  1  0
 12 22  1  0
 22 23  1  0
 23  2  1  0
  9  4  1  0
 21 13  1  0
 21 17  2  0
M  END
>  <Compound_ID>  (302) 
CHEMBL2420908

>  <Molecule Name>  (302) 
nan

>  <Molecular Weight>  (302) 
308.39

>  <AlogP>  (302) 
1.89

>  <Smiles>  (302) 
NC1(Cc2ccccc2)CCN(c2ncnc3[nH]cnc23)CC1

>  <Standard Type>  (302) 
Inhibition

>  <Standard Relation>  (302) 
'='

>  <Standard Units>  (302) 
%

>  <Standard Value>  (302) 
8.0

>  <Assay ChEMBL ID>  (302) 
CHEMBL2424318

>  <Assay Description>  (302) 
Inhibition of MET (unknown origin) at 30 uM by microfluidic mobility shift assay relative to control

>  <BAO Format ID>  (302) 
BAO_0000357

>  <BAO Label>  (302) 
single protein format

>  <Assay Organism>  (302) 
Homo sapiens

>  <Target ChEMBL ID>  (302) 
CHEMBL3717

>  <Target Name>  (302) 
Hepatocyte growth factor receptor

>  <Target Organism>  (302) 
Homo sapiens

>  <Target Type>  (302) 
SINGLE PROTEIN

>  <Document ChEMBL ID>  (302) 
CHEMBL2417369

>  <Source Description>  (302) 
Scientific Literature

>  <Document Journal>  (302) 
Bioorg Med Chem

>  <Document Year>  (302) 
2013.0

>  <Active>  (302) 
0.0

$$$$

     RDKit          2D

 29 33  0  0  0  0  0  0  0  0999 V2000
   -4.4231   -5.1517    0.0000 O   0  0  0  0  0  0  0  0  0  0  0  0
   -3.1240   -4.4017    0.0000 C   0  0  0  0  0  0  0  0  0  0  0  0
   -1.7537   -5.0118    0.0000 N   0  0  0  0  0  0  0  0  0  0  0  0
   -0.7500   -3.8971    0.0000 C   0  0  0  0  0  0  0  0  0  0  0  0
    0.7500   -3.8971    0.0000 N   0  0  0  0  0  0  0  0  0  0  0  0
    1.5000   -2.5981    0.0000 C   0  0  0  0  0  0  0  0  0  0  0  0
    0.7500   -1.2990    0.0000 C   0  0  0  0  0  0  0  0  0  0  0  0
    1.5000    0.0000    0.0000 C   0  0  0  0  0  0  0  0  0  0  0  0
    0.7500    1.2990    0.0000 C   0  0  0  0  0  0  0  0  0  0  0  0
   -0.7500    1.2990    0.0000 C   0  0  0  0  0  0  0  0  0  0  0  0
   -1.5000    2.5981    0.0000 C   0  0  0  0  0  0  0  0  0  0  0  0
   -0.7500    3.8971    0.0000 N   0  0  0  0  0  0  0  0  0  0  0  0
   -1.5000    5.1962    0.0000 C   0  0  0  0  0  0  0  0  0  0  0  0
   -0.7500    6.4952    0.0000 C   0  0  0  0  0  0  0  0  0  0  0  0
   -1.5000    7.7942    0.0000 C   0  0  0  0  0  0  0  0  0  0  0  0
   -3.0000    7.7942    0.0000 O   0  0  0  0  0  0  0  0  0  0  0  0
   -3.7500    6.4952    0.0000 C   0  0  0  0  0  0  0  0  0  0  0  0
   -3.0000    5.1962    0.0000 C   0  0  0  0  0  0  0  0  0  0  0  0
   -1.5000    0.0000    0.0000 N   0  0  0  0  0  0  0  0  0  0  0  0
   -0.7500   -1.2990    0.0000 C   0  0  0  0  0  0  0  0  0  0  0  0
   -1.5000   -2.5981    0.0000 C   0  0  0  0  0  0  0  0  0  0  0  0
   -2.9672   -2.9099    0.0000 N   0  0  0  0  0  0  0  0  0  0  0  0
   -4.0819   -1.9062    0.0000 C   0  0  0  0  0  0  0  0  0  0  0  0
   -5.5085   -2.3698    0.0000 C   0  0  0  0  0  0  0  0  0  0  0  0
   -6.6232   -1.3661    0.0000 C   0  0  0  0  0  0  0  0  0  0  0  0
   -8.0498   -1.8296    0.0000 C   0  0  0  0  0  0  0  0  0  0  0  0
   -8.3617   -3.2968    0.0000 C   0  0  0  0  0  0  0  0  0  0  0  0
   -7.2470   -4.3005    0.0000 C   0  0  0  0  0  0  0  0  0  0  0  0
   -5.8204   -3.8370    0.0000 C   0  0  0  0  0  0  0  0  0  0  0  0
  1  2  2  0
  2  3  1  0
  3  4  1  0
  4  5  2  0
  5  6  1  0
  6  7  2  0
  7  8  1  0
  8  9  2  0
  9 10  1  0
 10 11  1  0
 11 12  1  0
 12 13  1  0
 13 14  1  0
 14 15  1  0
 15 16  1  0
 16 17  1  0
 17 18  1  0
 10 19  2  0
 19 20  1  0
 20 21  2  0
 21 22  1  0
 22 23  1  0
 23 24  1  0
 24 25  2  0
 25 26  1  0
 26 27  2  0
 27 28  1  0
 28 29  2  0
 22  2  1  0
 29 24  1  0
 21  4  1  0
 20  7  1  0
 18 13  1  0
M  END
>  <Compound_ID>  (303) 
CHEMBL3360185

>  <Molecule Name>  (303) 
nan

>  <Molecular Weight>  (303) 
389.46

>  <AlogP>  (303) 
2.59

>  <Smiles>  (303) 
O=c1[nH]c2ncc3ccc(CNC4CCOCC4)nc3c2n1Cc1ccccc1

>  <Standard Type>  (303) 
Inhibition

>  <Standard Relation>  (303) 
'='

>  <Standard Units>  (303) 
%

>  <Standard Value>  (303) 
1.4

>  <Assay ChEMBL ID>  (303) 
CHEMBL3374142

>  <Assay Description>  (303) 
Inhibition of recombinant c-Met (unknown origin) at 10 uM using poly (Glu,Tyr)4:1 substrate incubated for 60 mins by ELISA method

>  <BAO Format ID>  (303) 
BAO_0000357

>  <BAO Label>  (303) 
single protein format

>  <Assay Organism>  (303) 
Homo sapiens

>  <Target ChEMBL ID>  (303) 
CHEMBL3717

>  <Target Name>  (303) 
Hepatocyte growth factor receptor

>  <Target Organism>  (303) 
Homo sapiens

>  <Target Type>  (303) 
SINGLE PROTEIN

>  <Document ChEMBL ID>  (303) 
CHEMBL3352075

>  <Source Description>  (303) 
Scientific Literature

>  <Document Journal>  (303) 
Bioorg Med Chem Lett

>  <Document Year>  (303) 
2015.0

>  <Active>  (303) 
0.0

$$$$

     RDKit          2D

 37 42  0  0  0  0  0  0  0  0999 V2000
   -0.2010   -8.5442    0.0000 C   0  0  0  0  0  0  0  0  0  0  0  0
   -1.5000   -7.7942    0.0000 C   0  0  0  0  0  0  0  0  0  0  0  0
   -2.7990   -7.0442    0.0000 C   0  0  0  0  0  0  0  0  0  0  0  0
   -2.2500   -9.0933    0.0000 O   0  0  0  0  0  0  0  0  0  0  0  0
   -0.7500   -6.4952    0.0000 C   0  0  0  0  0  0  0  0  0  0  0  0
   -1.5000   -5.1962    0.0000 C   0  0  0  0  0  0  0  0  0  0  0  0
   -0.7500   -3.8971    0.0000 C   0  0  0  0  0  0  0  0  0  0  0  0
    0.7500   -3.8971    0.0000 N   0  0  0  0  0  0  0  0  0  0  0  0
    1.5000   -2.5981    0.0000 C   0  0  0  0  0  0  0  0  0  0  0  0
    0.7500   -1.2990    0.0000 C   0  0  0  0  0  0  0  0  0  0  0  0
    1.5000    0.0000    0.0000 C   0  0  0  0  0  0  0  0  0  0  0  0
    0.7500    1.2990    0.0000 C   0  0  0  0  0  0  0  0  0  0  0  0
   -0.7500    1.2990    0.0000 C   0  0  0  0  0  0  0  0  0  0  0  0
   -1.5000    2.5981    0.0000 N   0  0  0  0  0  0  0  0  0  0  0  0
   -3.0000    2.5981    0.0000 C   0  0  0  0  0  0  0  0  0  0  0  0
   -3.7500    3.8971    0.0000 C   0  0  0  0  0  0  0  0  0  0  0  0
   -5.2500    3.8971    0.0000 C   0  0  0  0  0  0  0  0  0  0  0  0
   -6.0000    2.5981    0.0000 F   0  0  0  0  0  0  0  0  0  0  0  0
   -6.0000    5.1962    0.0000 C   0  0  0  0  0  0  0  0  0  0  0  0
   -5.2500    6.4952    0.0000 C   0  0  0  0  0  0  0  0  0  0  0  0
   -3.7500    6.4952    0.0000 C   0  0  0  0  0  0  0  0  0  0  0  0
   -2.7463    7.6099    0.0000 N   0  0  0  0  0  0  0  0  0  0  0  0
   -1.3760    6.9998    0.0000 C   0  0  0  0  0  0  0  0  0  0  0  0
   -1.5328    5.5080    0.0000 C   0  0  0  0  0  0  0  0  0  0  0  0
   -3.0000    5.1962    0.0000 C   0  0  0  0  0  0  0  0  0  0  0  0
   -3.7500    1.2990    0.0000 N   0  0  0  0  0  0  0  0  0  0  0  0
   -3.0000    0.0000    0.0000 C   0  0  0  0  0  0  0  0  0  0  0  0
   -3.7500   -1.2990    0.0000 N   0  0  0  0  0  0  0  0  0  0  0  0
   -5.2500   -1.2990    0.0000 C   0  0  0  0  0  0  0  0  0  0  0  0
   -6.0000   -2.5981    0.0000 C   0  0  0  0  0  0  0  0  0  0  0  0
   -5.2500   -3.8971    0.0000 O   0  0  0  0  0  0  0  0  0  0  0  0
   -3.7500   -3.8971    0.0000 C   0  0  0  0  0  0  0  0  0  0  0  0
   -3.0000   -2.5981    0.0000 C   0  0  0  0  0  0  0  0  0  0  0  0
   -1.5000    0.0000    0.0000 C   0  0  0  0  0  0  0  0  0  0  0  0
   -0.7500   -1.2990    0.0000 N   0  0  0  0  0  0  0  0  0  0  0  0
    1.5000   -5.1962    0.0000 C   0  0  0  0  0  0  0  0  0  0  0  0
    0.7500   -6.4952    0.0000 C   0  0  0  0  0  0  0  0  0  0  0  0
  1  2  1  0
  2  3  1  0
  2  4  1  0
  2  5  1  0
  5  6  1  0
  6  7  1  0
  7  8  1  0
  8  9  1  0
  9 10  1  0
 10 11  2  0
 11 12  1  0
 12 13  2  0
 13 14  1  0
 14 15  2  0
 15 16  1  0
 16 17  2  0
 17 18  1  0
 17 19  1  0
 19 20  2  0
 20 21  1  0
 21 22  1  0
 22 23  1  0
 23 24  2  0
 24 25  1  0
 15 26  1  0
 26 27  2  0
 27 28  1  0
 28 29  1  0
 29 30  1  0
 30 31  1  0
 31 32  1  0
 32 33  1  0
 27 34  1  0
 34 35  2  0
  8 36  1  0
 36 37  1  0
 37  5  1  0
 35 10  1  0
 34 13  1  0
 25 16  1  0
 33 28  1  0
 25 21  2  0
M  END
>  <Compound_ID>  (304) 
CHEMBL2152768

>  <Molecule Name>  (304) 
nan

>  <Molecular Weight>  (304) 
504.61

>  <AlogP>  (304) 
4.13

>  <Smiles>  (304) 
CC(C)(O)C1CCN(Cc2ccc3nc(-c4c(F)ccc5[nH]ccc45)nc(N4CCOCC4)c3n2)CC1

>  <Standard Type>  (304) 
Inhibition

>  <Standard Relation>  (304) 
'='

>  <Standard Units>  (304) 
%

>  <Standard Value>  (304) 
3.7

>  <Assay ChEMBL ID>  (304) 
CHEMBL2157289

>  <Assay Description>  (304) 
Inhibition of Met at 1 uM

>  <BAO Format ID>  (304) 
BAO_0000357

>  <BAO Label>  (304) 
single protein format

>  <Assay Organism>  (304) 
None

>  <Target ChEMBL ID>  (304) 
CHEMBL3717

>  <Target Name>  (304) 
Hepatocyte growth factor receptor

>  <Target Organism>  (304) 
Homo sapiens

>  <Target Type>  (304) 
SINGLE PROTEIN

>  <Document ChEMBL ID>  (304) 
CHEMBL2151019

>  <Source Description>  (304) 
Scientific Literature

>  <Document Journal>  (304) 
Bioorg Med Chem Lett

>  <Document Year>  (304) 
2012.0

>  <Active>  (304) 
0.0

$$$$

     RDKit          2D

 35 40  0  0  0  0  0  0  0  0999 V2000
   -4.7871    3.6718    0.0000 C   0  0  0  0  0  0  0  0  0  0  0  0
   -4.7871    2.1718    0.0000 C   0  0  0  0  0  0  0  0  0  0  0  0
   -6.0006    1.2902    0.0000 N   0  0  0  0  0  0  0  0  0  0  0  0
   -5.5371   -0.1364    0.0000 C   0  0  0  0  0  0  0  0  0  0  0  0
   -6.4188   -1.3499    0.0000 C   0  0  0  0  0  0  0  0  0  0  0  0
   -7.9106   -1.1931    0.0000 C   0  0  0  0  0  0  0  0  0  0  0  0
   -8.7923   -2.4067    0.0000 C   0  0  0  0  0  0  0  0  0  0  0  0
   -8.1821   -3.7770    0.0000 C   0  0  0  0  0  0  0  0  0  0  0  0
   -6.6904   -3.9338    0.0000 C   0  0  0  0  0  0  0  0  0  0  0  0
   -5.8087   -2.7203    0.0000 C   0  0  0  0  0  0  0  0  0  0  0  0
   -4.0371   -0.1364    0.0000 C   0  0  0  0  0  0  0  0  0  0  0  0
   -3.1554   -1.3499    0.0000 C   0  0  0  0  0  0  0  0  0  0  0  0
   -3.7655   -2.7203    0.0000 C   0  0  0  0  0  0  0  0  0  0  0  0
   -2.8839   -3.9338    0.0000 C   0  0  0  0  0  0  0  0  0  0  0  0
   -1.3921   -3.7770    0.0000 C   0  0  0  0  0  0  0  0  0  0  0  0
   -0.7820   -2.4067    0.0000 C   0  0  0  0  0  0  0  0  0  0  0  0
   -1.6637   -1.1931    0.0000 C   0  0  0  0  0  0  0  0  0  0  0  0
   -3.5736    1.2902    0.0000 C   0  0  0  0  0  0  0  0  0  0  0  0
   -2.1470    1.7537    0.0000 C   0  0  0  0  0  0  0  0  0  0  0  0
   -1.8351    3.2209    0.0000 N   0  0  0  0  0  0  0  0  0  0  0  0
   -0.4086    3.6844    0.0000 N   0  0  0  0  0  0  0  0  0  0  0  0
    0.7062    2.6807    0.0000 C   0  0  0  0  0  0  0  0  0  0  0  0
    2.1328    3.1443    0.0000 C   0  0  0  0  0  0  0  0  0  0  0  0
    0.3943    1.2135    0.0000 C   0  0  0  0  0  0  0  0  0  0  0  0
    1.2760    0.0000    0.0000 N   0  0  0  0  0  0  0  0  0  0  0  0
    0.3943   -1.2135    0.0000 N   0  0  0  0  0  0  0  0  0  0  0  0
    0.8578   -2.6401    0.0000 C   0  0  0  0  0  0  0  0  0  0  0  0
   -0.1459   -3.7548    0.0000 C   0  0  0  0  0  0  0  0  0  0  0  0
    0.3177   -5.1814    0.0000 C   0  0  0  0  0  0  0  0  0  0  0  0
    1.7849   -5.4933    0.0000 C   0  0  0  0  0  0  0  0  0  0  0  0
    2.2484   -6.9199    0.0000 Cl  0  0  0  0  0  0  0  0  0  0  0  0
    2.7886   -4.3786    0.0000 C   0  0  0  0  0  0  0  0  0  0  0  0
    2.3250   -2.9520    0.0000 C   0  0  0  0  0  0  0  0  0  0  0  0
   -1.0323   -0.7500    0.0000 C   0  0  0  0  0  0  0  0  0  0  0  0
   -1.0323    0.7500    0.0000 C   0  0  0  0  0  0  0  0  0  0  0  0
  1  2  1  0
  2  3  1  0
  3  4  1  0
  4  5  1  0
  5  6  2  0
  6  7  1  0
  7  8  2  0
  8  9  1  0
  9 10  2  0
  4 11  2  0
 11 12  1  0
 12 13  2  0
 13 14  1  0
 14 15  2  0
 15 16  1  0
 16 17  2  0
 11 18  1  0
 18 19  1  0
 19 20  2  0
 20 21  1  0
 21 22  2  0
 22 23  1  0
 22 24  1  0
 24 25  2  0
 25 26  1  0
 26 27  1  0
 27 28  2  0
 28 29  1  0
 29 30  2  0
 30 31  1  0
 30 32  1  0
 32 33  2  0
 26 34  1  0
 34 35  2  0
 18  2  2  0
 35 19  1  0
 10  5  1  0
 17 12  1  0
 35 24  1  0
 33 27  1  0
M  END
>  <Compound_ID>  (305) 
CHEMBL3741655

>  <Molecule Name>  (305) 
nan

>  <Molecular Weight>  (305) 
475.98

>  <AlogP>  (305) 
7.41

>  <Smiles>  (305) 
Cc1[nH]c(-c2ccccc2)c(-c2ccccc2)c1-c1nnc(C)c2nn(-c3ccc(Cl)cc3)cc12

>  <Standard Type>  (305) 
Inhibition

>  <Standard Relation>  (305) 
'='

>  <Standard Units>  (305) 
%

>  <Standard Value>  (305) 
4.0

>  <Assay ChEMBL ID>  (305) 
CHEMBL3744318

>  <Assay Description>  (305) 
Inhibition of MET (unknown origin) at 30 uM by microfluidic assay relative to control

>  <BAO Format ID>  (305) 
BAO_0000357

>  <BAO Label>  (305) 
single protein format

>  <Assay Organism>  (305) 
Homo sapiens

>  <Target ChEMBL ID>  (305) 
CHEMBL3717

>  <Target Name>  (305) 
Hepatocyte growth factor receptor

>  <Target Organism>  (305) 
Homo sapiens

>  <Target Type>  (305) 
SINGLE PROTEIN

>  <Document ChEMBL ID>  (305) 
CHEMBL3739348

>  <Source Description>  (305) 
Scientific Literature

>  <Document Journal>  (305) 
Medchemcomm

>  <Document Year>  (305) 
2015.0

>  <Active>  (305) 
0.0

$$$$

     RDKit          2D

 29 32  0  0  0  0  0  0  0  0999 V2000
    1.3299    5.6152    0.0000 C   0  0  0  0  0  0  0  0  0  0  0  0
   -0.0967    5.1517    0.0000 O   0  0  0  0  0  0  0  0  0  0  0  0
   -0.4086    3.6844    0.0000 C   0  0  0  0  0  0  0  0  0  0  0  0
    0.7062    2.6807    0.0000 C   0  0  0  0  0  0  0  0  0  0  0  0
    0.3943    1.2135    0.0000 C   0  0  0  0  0  0  0  0  0  0  0  0
    1.2760    0.0000    0.0000 N   0  0  0  0  0  0  0  0  0  0  0  0
    0.3943   -1.2135    0.0000 C   0  0  0  0  0  0  0  0  0  0  0  0
    0.8578   -2.6401    0.0000 C   0  0  0  0  0  0  0  0  0  0  0  0
   -1.0323   -0.7500    0.0000 N   0  0  0  0  0  0  0  0  0  0  0  0
   -1.0323    0.7500    0.0000 C   0  0  0  0  0  0  0  0  0  0  0  0
   -2.1470    1.7537    0.0000 C   0  0  0  0  0  0  0  0  0  0  0  0
   -1.8351    3.2209    0.0000 C   0  0  0  0  0  0  0  0  0  0  0  0
   -2.9499    4.2246    0.0000 C   0  0  0  0  0  0  0  0  0  0  0  0
   -4.3764    3.7611    0.0000 O   0  0  0  0  0  0  0  0  0  0  0  0
   -2.6380    5.6918    0.0000 C   0  0  0  0  0  0  0  0  0  0  0  0
   -1.2114    6.1554    0.0000 C   0  0  0  0  0  0  0  0  0  0  0  0
   -0.8995    7.6226    0.0000 C   0  0  0  0  0  0  0  0  0  0  0  0
   -2.0143    8.6263    0.0000 C   0  0  0  0  0  0  0  0  0  0  0  0
   -1.7024   10.0935    0.0000 N   0  0  0  0  0  0  0  0  0  0  0  0
   -0.2758   10.5570    0.0000 C   0  0  0  0  0  0  0  0  0  0  0  0
    0.8389    9.5533    0.0000 C   0  0  0  0  0  0  0  0  0  0  0  0
    2.2655   10.0169    0.0000 C   0  0  0  0  0  0  0  0  0  0  0  0
    2.5774   11.4841    0.0000 C   0  0  0  0  0  0  0  0  0  0  0  0
    4.0040   11.9476    0.0000 F   0  0  0  0  0  0  0  0  0  0  0  0
    1.4627   12.4878    0.0000 C   0  0  0  0  0  0  0  0  0  0  0  0
    0.0361   12.0242    0.0000 C   0  0  0  0  0  0  0  0  0  0  0  0
   -1.0786   13.0279    0.0000 F   0  0  0  0  0  0  0  0  0  0  0  0
   -3.4408    8.1628    0.0000 C   0  0  0  0  0  0  0  0  0  0  0  0
   -3.7527    6.6955    0.0000 C   0  0  0  0  0  0  0  0  0  0  0  0
  1  2  1  0
  2  3  1  0
  3  4  2  0
  4  5  1  0
  5  6  1  0
  6  7  1  0
  7  8  1  0
  7  9  2  0
  9 10  1  0
 10 11  1  0
 11 12  2  0
 12 13  1  0
 13 14  2  0
 13 15  1  0
 15 16  2  0
 16 17  1  0
 17 18  2  0
 18 19  1  0
 19 20  1  0
 20 21  2  0
 21 22  1  0
 22 23  2  0
 23 24  1  0
 23 25  1  0
 25 26  2  0
 26 27  1  0
 18 28  1  0
 28 29  2  0
 12  3  1  0
 29 15  1  0
 10  5  2  0
 26 20  1  0
M  END
>  <Compound_ID>  (306) 
CHEMBL120067

>  <Molecule Name>  (306) 
nan

>  <Molecular Weight>  (306) 
393.39

>  <AlogP>  (306) 
5.13

>  <Smiles>  (306) 
COc1cc2[nH]c(C)nc2cc1C(=O)c1ccc(Nc2ccc(F)cc2F)cc1

>  <Standard Type>  (306) 
Inhibition

>  <Standard Relation>  (306) 
'='

>  <Standard Units>  (306) 
%

>  <Standard Value>  (306) 
-34.0

>  <Assay ChEMBL ID>  (306) 
CHEMBL711148

>  <Assay Description>  (306) 
Inhibition of human Met proto-oncogene tyrosine kinase at 10 uM

>  <BAO Format ID>  (306) 
BAO_0000357

>  <BAO Label>  (306) 
single protein format

>  <Assay Organism>  (306) 
Homo sapiens

>  <Target ChEMBL ID>  (306) 
CHEMBL3717

>  <Target Name>  (306) 
Hepatocyte growth factor receptor

>  <Target Organism>  (306) 
Homo sapiens

>  <Target Type>  (306) 
SINGLE PROTEIN

>  <Document ChEMBL ID>  (306) 
CHEMBL1147484

>  <Source Description>  (306) 
Scientific Literature

>  <Document Journal>  (306) 
Bioorg Med Chem Lett

>  <Document Year>  (306) 
2004.0

>  <Active>  (306) 
0.0

$$$$

     RDKit          2D

 36 39  0  0  0  0  0  0  0  0999 V2000
    3.0000    0.0000    0.0000 C   0  0  0  0  0  0  0  0  0  0  0  0
    1.5000    0.0000    0.0000 C   0  0  0  0  0  0  0  0  0  0  0  0
    0.7500   -1.2990    0.0000 C   0  0  0  0  0  0  0  0  0  0  0  0
   -0.7500   -1.2990    0.0000 C   0  0  0  0  0  0  0  0  0  0  0  0
   -1.5000    0.0000    0.0000 C   0  0  0  0  0  0  0  0  0  0  0  0
   -3.0000    0.0000    0.0000 N   0  0  0  0  0  0  0  0  0  0  0  0
   -3.7500    1.2990    0.0000 C   0  0  0  0  0  0  0  0  0  0  0  0
   -3.0000    2.5981    0.0000 O   0  0  0  0  0  0  0  0  0  0  0  0
   -5.2500    1.2990    0.0000 C   0  0  0  0  0  0  0  0  0  0  0  0
   -6.0000    2.5981    0.0000 C   0  0  0  0  0  0  0  0  0  0  0  0
   -7.5000    2.5981    0.0000 C   0  0  0  0  0  0  0  0  0  0  0  0
   -8.2500    3.8971    0.0000 N   0  0  0  0  0  0  0  0  0  0  0  0
   -7.5000    5.1962    0.0000 C   0  0  0  0  0  0  0  0  0  0  0  0
   -8.2500    6.4952    0.0000 C   0  0  0  0  0  0  0  0  0  0  0  0
   -9.7500    6.4952    0.0000 N   0  0  0  0  0  0  0  0  0  0  0  0
  -10.5000    7.7942    0.0000 C   0  0  0  0  0  0  0  0  0  0  0  0
  -10.5000    5.1962    0.0000 C   0  0  0  0  0  0  0  0  0  0  0  0
   -9.7500    3.8971    0.0000 C   0  0  0  0  0  0  0  0  0  0  0  0
   -8.2500    1.2990    0.0000 C   0  0  0  0  0  0  0  0  0  0  0  0
   -7.5000    0.0000    0.0000 C   0  0  0  0  0  0  0  0  0  0  0  0
   -8.2500   -1.2990    0.0000 C   0  0  0  0  0  0  0  0  0  0  0  0
   -9.0000   -2.5981    0.0000 F   0  0  0  0  0  0  0  0  0  0  0  0
   -9.5490   -0.5490    0.0000 F   0  0  0  0  0  0  0  0  0  0  0  0
   -6.9510   -2.0490    0.0000 F   0  0  0  0  0  0  0  0  0  0  0  0
   -6.0000    0.0000    0.0000 C   0  0  0  0  0  0  0  0  0  0  0  0
   -0.7500    1.2990    0.0000 C   0  0  0  0  0  0  0  0  0  0  0  0
    0.7500    1.2990    0.0000 C   0  0  0  0  0  0  0  0  0  0  0  0
    1.5000    2.5981    0.0000 N   0  0  0  0  0  0  0  0  0  0  0  0
    0.7500    3.8971    0.0000 C   0  0  0  0  0  0  0  0  0  0  0  0
   -0.7500    3.8971    0.0000 O   0  0  0  0  0  0  0  0  0  0  0  0
    1.5000    5.1962    0.0000 C   0  0  0  0  0  0  0  0  0  0  0  0
    0.8899    6.5665    0.0000 C   0  0  0  0  0  0  0  0  0  0  0  0
    2.0046    7.5702    0.0000 N   0  0  0  0  0  0  0  0  0  0  0  0
    3.3037    6.8202    0.0000 O   0  0  0  0  0  0  0  0  0  0  0  0
    2.9918    5.3529    0.0000 C   0  0  0  0  0  0  0  0  0  0  0  0
    3.9955    4.2382    0.0000 C   0  0  0  0  0  0  0  0  0  0  0  0
  1  2  1  0
  2  3  2  0
  3  4  1  0
  4  5  2  0
  5  6  1  0
  6  7  1  0
  7  8  2  0
  7  9  1  0
  9 10  2  0
 10 11  1  0
 11 12  1  0
 12 13  1  0
 13 14  1  0
 14 15  1  0
 15 16  1  0
 15 17  1  0
 17 18  1  0
 11 19  2  0
 19 20  1  0
 20 21  1  0
 21 22  1  0
 21 23  1  0
 21 24  1  0
 20 25  2  0
  5 26  1  0
 26 27  2  0
 27 28  1  0
 28 29  1  0
 29 30  2  0
 29 31  1  0
 31 32  1  0
 32 33  2  0
 33 34  1  0
 34 35  1  0
 35 36  1  0
 27  2  1  0
 35 31  2  0
 25  9  1  0
 18 12  1  0
M  END
>  <Compound_ID>  (307) 
CHEMBL3616960

>  <Molecule Name>  (307) 
nan

>  <Molecular Weight>  (307) 
501.51

>  <AlogP>  (307) 
4.57

>  <Smiles>  (307) 
Cc1ccc(NC(=O)c2cc(N3CCN(C)CC3)cc(C(F)(F)F)c2)cc1NC(=O)c1cnoc1C

>  <Standard Type>  (307) 
Inhibition

>  <Standard Relation>  (307) 
'='

>  <Standard Units>  (307) 
%

>  <Standard Value>  (307) 
0.0

>  <Assay ChEMBL ID>  (307) 
CHEMBL3619886

>  <Assay Description>  (307) 
Inhibition of c-MET (unknown origin) at 10 uM after 40 mins by scintillation counting analysis

>  <BAO Format ID>  (307) 
BAO_0000357

>  <BAO Label>  (307) 
single protein format

>  <Assay Organism>  (307) 
Homo sapiens

>  <Target ChEMBL ID>  (307) 
CHEMBL3717

>  <Target Name>  (307) 
Hepatocyte growth factor receptor

>  <Target Organism>  (307) 
Homo sapiens

>  <Target Type>  (307) 
SINGLE PROTEIN

>  <Document ChEMBL ID>  (307) 
CHEMBL3616395

>  <Source Description>  (307) 
Scientific Literature

>  <Document Journal>  (307) 
Eur J Med Chem

>  <Document Year>  (307) 
2015.0

>  <Active>  (307) 
0.0

$$$$

     RDKit          2D

 17 19  0  0  0  0  0  0  0  0999 V2000
   -3.7548   -2.1855    0.0000 C   0  0  0  0  0  0  0  0  0  0  0  0
   -2.6401   -3.1891    0.0000 C   0  0  0  0  0  0  0  0  0  0  0  0
   -1.2135   -2.7256    0.0000 N   0  0  0  0  0  0  0  0  0  0  0  0
   -0.0000   -3.6073    0.0000 C   0  0  0  0  0  0  0  0  0  0  0  0
   -0.0000   -5.1073    0.0000 C   0  0  0  0  0  0  0  0  0  0  0  0
    1.2135   -5.9890    0.0000 N   0  0  0  0  0  0  0  0  0  0  0  0
    0.7500   -7.4156    0.0000 O   0  0  0  0  0  0  0  0  0  0  0  0
   -0.7500   -7.4156    0.0000 N   0  0  0  0  0  0  0  0  0  0  0  0
   -1.2135   -5.9890    0.0000 C   0  0  0  0  0  0  0  0  0  0  0  0
   -2.6401   -5.5255    0.0000 N   0  0  0  0  0  0  0  0  0  0  0  0
    1.2135   -2.7256    0.0000 N   0  0  0  0  0  0  0  0  0  0  0  0
    0.7500   -1.2990    0.0000 C   0  0  0  0  0  0  0  0  0  0  0  0
    1.5000    0.0000    0.0000 C   0  0  0  0  0  0  0  0  0  0  0  0
    0.7500    1.2990    0.0000 C   0  0  0  0  0  0  0  0  0  0  0  0
   -0.7500    1.2990    0.0000 N   0  0  0  0  0  0  0  0  0  0  0  0
   -1.5000    0.0000    0.0000 C   0  0  0  0  0  0  0  0  0  0  0  0
   -0.7500   -1.2990    0.0000 C   0  0  0  0  0  0  0  0  0  0  0  0
  1  2  1  0
  2  3  1  0
  3  4  1  0
  4  5  1  0
  5  6  2  0
  6  7  1  0
  7  8  1  0
  8  9  2  0
  9 10  1  0
  4 11  2  0
 11 12  1  0
 12 13  2  0
 13 14  1  0
 14 15  2  0
 15 16  1  0
 16 17  2  0
 17  3  1  0
  9  5  1  0
 17 12  1  0
M  END
>  <Compound_ID>  (308) 
CHEMBL185710

>  <Molecule Name>  (308) 
nan

>  <Molecular Weight>  (308) 
230.23

>  <AlogP>  (308) 
1.08

>  <Smiles>  (308) 
CCn1c(-c2nonc2N)nc2ccncc21

>  <Standard Type>  (308) 
Inhibition

>  <Standard Relation>  (308) 
'='

>  <Standard Units>  (308) 
%

>  <Standard Value>  (308) 
2.41

>  <Assay ChEMBL ID>  (308) 
CHEMBL1962143

>  <Assay Description>  (308) 
GSK_PKIS: MET mean inhibition at 1 uM [Nanosyn]

>  <BAO Format ID>  (308) 
BAO_0000357

>  <BAO Label>  (308) 
single protein format

>  <Assay Organism>  (308) 
None

>  <Target ChEMBL ID>  (308) 
CHEMBL3717

>  <Target Name>  (308) 
Hepatocyte growth factor receptor

>  <Target Organism>  (308) 
Homo sapiens

>  <Target Type>  (308) 
SINGLE PROTEIN

>  <Document ChEMBL ID>  (308) 
CHEMBL1961873

>  <Source Description>  (308) 
GSK Published Kinase Inhibitor Set

>  <Document Journal>  (308) 
nan

>  <Document Year>  (308) 
nan

>  <Active>  (308) 
0.0

$$$$

     RDKit          2D

 26 29  0  0  0  0  0  0  0  0999 V2000
  -11.0821    2.6487    0.0000 N   0  0  0  0  0  0  0  0  0  0  0  0
   -9.9674    1.6450    0.0000 S   0  0  0  0  0  0  0  0  0  0  0  0
   -8.9637    2.7597    0.0000 O   0  0  0  0  0  0  0  0  0  0  0  0
  -10.9711    0.5303    0.0000 O   0  0  0  0  0  0  0  0  0  0  0  0
   -8.8527    0.6413    0.0000 C   0  0  0  0  0  0  0  0  0  0  0  0
   -7.4261    1.1048    0.0000 C   0  0  0  0  0  0  0  0  0  0  0  0
   -6.3114    0.1011    0.0000 C   0  0  0  0  0  0  0  0  0  0  0  0
   -6.6232   -1.3661    0.0000 C   0  0  0  0  0  0  0  0  0  0  0  0
   -5.5085   -2.3698    0.0000 N   0  0  0  0  0  0  0  0  0  0  0  0
   -4.0819   -1.9062    0.0000 N   0  0  0  0  0  0  0  0  0  0  0  0
   -2.9672   -2.9099    0.0000 C   0  0  0  0  0  0  0  0  0  0  0  0
   -3.1240   -4.4017    0.0000 C   0  0  0  0  0  0  0  0  0  0  0  0
   -4.4231   -5.1517    0.0000 O   0  0  0  0  0  0  0  0  0  0  0  0
   -1.7537   -5.0118    0.0000 N   0  0  0  0  0  0  0  0  0  0  0  0
   -0.7500   -3.8971    0.0000 C   0  0  0  0  0  0  0  0  0  0  0  0
    0.7500   -3.8971    0.0000 C   0  0  0  0  0  0  0  0  0  0  0  0
    1.5000   -2.5981    0.0000 C   0  0  0  0  0  0  0  0  0  0  0  0
    0.7500   -1.2990    0.0000 C   0  0  0  0  0  0  0  0  0  0  0  0
    1.5000    0.0000    0.0000 N   0  0  0  0  0  0  0  0  0  0  0  0
    0.7500    1.2990    0.0000 C   0  0  0  0  0  0  0  0  0  0  0  0
   -0.7500    1.2990    0.0000 C   0  0  0  0  0  0  0  0  0  0  0  0
   -1.5000    0.0000    0.0000 C   0  0  0  0  0  0  0  0  0  0  0  0
   -0.7500   -1.2990    0.0000 C   0  0  0  0  0  0  0  0  0  0  0  0
   -1.5000   -2.5981    0.0000 C   0  0  0  0  0  0  0  0  0  0  0  0
   -8.0498   -1.8296    0.0000 C   0  0  0  0  0  0  0  0  0  0  0  0
   -9.1645   -0.8259    0.0000 C   0  0  0  0  0  0  0  0  0  0  0  0
  1  2  1  0
  2  3  2  0
  2  4  2  0
  2  5  1  0
  5  6  2  0
  6  7  1  0
  7  8  2  0
  8  9  1  0
  9 10  1  0
 10 11  2  0
 11 12  1  0
 12 13  2  0
 12 14  1  0
 14 15  1  0
 15 16  2  0
 16 17  1  0
 17 18  2  0
 18 19  1  0
 19 20  2  0
 20 21  1  0
 21 22  2  0
 22 23  1  0
 23 24  2  0
  8 25  1  0
 25 26  2  0
 26  5  1  0
 24 11  1  0
 24 15  1  0
 23 18  1  0
M  END
>  <Compound_ID>  (309) 
CHEMBL409892

>  <Molecule Name>  (309) 
GW305178X

>  <Molecular Weight>  (309) 
367.39

>  <AlogP>  (309) 
1.65

>  <Smiles>  (309) 
NS(=O)(=O)c1ccc(N/N=C2\C(=O)Nc3ccc4ncccc4c32)cc1

>  <Standard Type>  (309) 
Inhibition

>  <Standard Relation>  (309) 
'='

>  <Standard Units>  (309) 
%

>  <Standard Value>  (309) 
19.37

>  <Assay ChEMBL ID>  (309) 
CHEMBL1962143

>  <Assay Description>  (309) 
GSK_PKIS: MET mean inhibition at 1 uM [Nanosyn]

>  <BAO Format ID>  (309) 
BAO_0000357

>  <BAO Label>  (309) 
single protein format

>  <Assay Organism>  (309) 
None

>  <Target ChEMBL ID>  (309) 
CHEMBL3717

>  <Target Name>  (309) 
Hepatocyte growth factor receptor

>  <Target Organism>  (309) 
Homo sapiens

>  <Target Type>  (309) 
SINGLE PROTEIN

>  <Document ChEMBL ID>  (309) 
CHEMBL1961873

>  <Source Description>  (309) 
GSK Published Kinase Inhibitor Set

>  <Document Journal>  (309) 
nan

>  <Document Year>  (309) 
nan

>  <Active>  (309) 
0.0

$$$$

     RDKit          2D

 24 25  0  0  0  0  0  0  0  0999 V2000
    3.0000    0.0000    0.0000 C   0  0  0  0  0  0  0  0  0  0  0  0
    1.5000    0.0000    0.0000 C   0  0  0  0  0  0  0  0  0  0  0  0
    0.7500   -1.2990    0.0000 C   0  0  0  0  0  0  0  0  0  0  0  0
   -0.7500   -1.2990    0.0000 C   0  0  0  0  0  0  0  0  0  0  0  0
   -1.5000   -2.5981    0.0000 O   0  0  0  0  0  0  0  0  0  0  0  0
   -1.5000    0.0000    0.0000 C   0  0  0  0  0  0  0  0  0  0  0  0
   -0.7500    1.2990    0.0000 C   0  0  0  0  0  0  0  0  0  0  0  0
   -1.5000    2.5981    0.0000 C   0  0  0  0  0  0  0  0  0  0  0  0
    0.7500    1.2990    0.0000 C   0  0  0  0  0  0  0  0  0  0  0  0
    1.5000    2.5981    0.0000 C   0  0  0  0  0  0  0  0  0  0  0  0
    3.0000    2.5981    0.0000 C   0  0  0  0  0  0  0  0  0  0  0  0
    3.7500    3.8971    0.0000 C   0  0  0  0  0  0  0  0  0  0  0  0
    5.2500    3.8971    0.0000 C   0  0  0  0  0  0  0  0  0  0  0  0
    6.0000    5.1962    0.0000 N   0  0  0  0  0  0  0  0  0  0  0  0
    5.2500    6.4952    0.0000 C   0  0  0  0  0  0  0  0  0  0  0  0
    3.7500    6.4952    0.0000 C   0  0  0  0  0  0  0  0  0  0  0  0
    3.0000    7.7942    0.0000 C   0  0  0  0  0  0  0  0  0  0  0  0
    1.5000    7.7942    0.0000 O   0  0  0  0  0  0  0  0  0  0  0  0
    3.7500    9.0933    0.0000 O   0  0  0  0  0  0  0  0  0  0  0  0
    3.0000   10.3923    0.0000 C   0  0  0  0  0  0  0  0  0  0  0  0
    4.2990   11.1423    0.0000 C   0  0  0  0  0  0  0  0  0  0  0  0
    1.7010    9.6423    0.0000 C   0  0  0  0  0  0  0  0  0  0  0  0
    2.2500   11.6913    0.0000 C   0  0  0  0  0  0  0  0  0  0  0  0
    3.0000    5.1962    0.0000 C   0  0  0  0  0  0  0  0  0  0  0  0
  1  2  1  0
  2  3  2  0
  3  4  1  0
  4  5  1  0
  4  6  2  0
  6  7  1  0
  7  8  1  0
  7  9  2  0
  9 10  1  0
 10 11  2  0
 11 12  1  0
 12 13  2  0
 13 14  1  0
 14 15  2  0
 15 16  1  0
 16 17  1  0
 17 18  2  0
 17 19  1  0
 19 20  1  0
 20 21  1  0
 20 22  1  0
 20 23  1  0
 16 24  2  0
  9  2  1  0
 24 12  1  0
M  END
>  <Compound_ID>  (310) 
CHEMBL374060

>  <Molecule Name>  (310) 
GW439255X

>  <Molecular Weight>  (310) 
325.41

>  <AlogP>  (310) 
4.53

>  <Smiles>  (310) 
Cc1cc(O)cc(C)c1/C=C/c1cncc(C(=O)OC(C)(C)C)c1

>  <Standard Type>  (310) 
Inhibition

>  <Standard Relation>  (310) 
'='

>  <Standard Units>  (310) 
%

>  <Standard Value>  (310) 
4.92

>  <Assay ChEMBL ID>  (310) 
CHEMBL1962142

>  <Assay Description>  (310) 
GSK_PKIS: MET mean inhibition at 0.1 uM [Nanosyn]

>  <BAO Format ID>  (310) 
BAO_0000357

>  <BAO Label>  (310) 
single protein format

>  <Assay Organism>  (310) 
None

>  <Target ChEMBL ID>  (310) 
CHEMBL3717

>  <Target Name>  (310) 
Hepatocyte growth factor receptor

>  <Target Organism>  (310) 
Homo sapiens

>  <Target Type>  (310) 
SINGLE PROTEIN

>  <Document ChEMBL ID>  (310) 
CHEMBL1961873

>  <Source Description>  (310) 
GSK Published Kinase Inhibitor Set

>  <Document Journal>  (310) 
nan

>  <Document Year>  (310) 
nan

>  <Active>  (310) 
0.0

$$$$

     RDKit          2D

 24 26  0  0  0  0  0  0  0  0999 V2000
   -1.2990  -11.8573    0.0000 C   0  0  0  0  0  0  0  0  0  0  0  0
   -1.2990  -10.3573    0.0000 C   0  0  0  0  0  0  0  0  0  0  0  0
   -2.5981   -9.6073    0.0000 O   0  0  0  0  0  0  0  0  0  0  0  0
    0.0000   -9.6073    0.0000 N   0  0  0  0  0  0  0  0  0  0  0  0
    0.0000   -8.1073    0.0000 C   0  0  0  0  0  0  0  0  0  0  0  0
   -1.2990   -7.3573    0.0000 C   0  0  0  0  0  0  0  0  0  0  0  0
   -1.2990   -5.8573    0.0000 C   0  0  0  0  0  0  0  0  0  0  0  0
   -0.0000   -5.1073    0.0000 C   0  0  0  0  0  0  0  0  0  0  0  0
   -0.0000   -3.6073    0.0000 C   0  0  0  0  0  0  0  0  0  0  0  0
    1.2135   -2.7256    0.0000 C   0  0  0  0  0  0  0  0  0  0  0  0
    0.7500   -1.2990    0.0000 C   0  0  0  0  0  0  0  0  0  0  0  0
    1.5000    0.0000    0.0000 N   0  0  0  0  0  0  0  0  0  0  0  0
    0.7500    1.2990    0.0000 C   0  0  0  0  0  0  0  0  0  0  0  0
   -0.7500    1.2990    0.0000 N   0  0  0  0  0  0  0  0  0  0  0  0
   -1.5000    0.0000    0.0000 C   0  0  0  0  0  0  0  0  0  0  0  0
   -3.0000    0.0000    0.0000 S   0  0  0  0  0  0  0  0  0  0  0  0
   -3.7500    1.2990    0.0000 C   0  0  0  0  0  0  0  0  0  0  0  0
   -5.2500    1.2990    0.0000 C   0  0  0  0  0  0  0  0  0  0  0  0
   -6.0000    0.0000    0.0000 O   0  0  0  0  0  0  0  0  0  0  0  0
   -6.0000    2.5981    0.0000 O   0  0  0  0  0  0  0  0  0  0  0  0
   -0.7500   -1.2990    0.0000 C   0  0  0  0  0  0  0  0  0  0  0  0
   -1.2135   -2.7256    0.0000 S   0  0  0  0  0  0  0  0  0  0  0  0
    1.2990   -5.8573    0.0000 C   0  0  0  0  0  0  0  0  0  0  0  0
    1.2990   -7.3573    0.0000 C   0  0  0  0  0  0  0  0  0  0  0  0
  1  2  1  0
  2  3  2  0
  2  4  1  0
  4  5  1  0
  5  6  2  0
  6  7  1  0
  7  8  2  0
  8  9  1  0
  9 10  2  0
 10 11  1  0
 11 12  2  0
 12 13  1  0
 13 14  2  0
 14 15  1  0
 15 16  1  0
 16 17  1  0
 17 18  1  0
 18 19  2  0
 18 20  1  0
 15 21  2  0
 21 22  1  0
  8 23  1  0
 23 24  2  0
 24  5  1  0
 22  9  1  0
 21 11  1  0
M  END
>  <Compound_ID>  (311) 
CHEMBL1836724

>  <Molecule Name>  (311) 
nan

>  <Molecular Weight>  (311) 
359.43

>  <AlogP>  (311) 
3.49

>  <Smiles>  (311) 
CC(=O)Nc1ccc(-c2cc3ncnc(SCC(=O)O)c3s2)cc1

>  <Standard Type>  (311) 
Inhibition

>  <Standard Relation>  (311) 
'='

>  <Standard Units>  (311) 
%

>  <Standard Value>  (311) 
9.8

>  <Assay ChEMBL ID>  (311) 
CHEMBL1838163

>  <Assay Description>  (311) 
Inhibition of MET at 1 uM

>  <BAO Format ID>  (311) 
BAO_0000357

>  <BAO Label>  (311) 
single protein format

>  <Assay Organism>  (311) 
None

>  <Target ChEMBL ID>  (311) 
CHEMBL3717

>  <Target Name>  (311) 
Hepatocyte growth factor receptor

>  <Target Organism>  (311) 
Homo sapiens

>  <Target Type>  (311) 
SINGLE PROTEIN

>  <Document ChEMBL ID>  (311) 
CHEMBL1833910

>  <Source Description>  (311) 
Scientific Literature

>  <Document Journal>  (311) 
Bioorg Med Chem Lett

>  <Document Year>  (311) 
2011.0

>  <Active>  (311) 
0.0

$$$$

     RDKit          2D

 21 23  0  0  0  0  0  0  0  0999 V2000
   -8.9681    0.9033    0.0000 C   0  0  0  0  0  0  0  0  0  0  0  0
   -7.8533   -0.1004    0.0000 O   0  0  0  0  0  0  0  0  0  0  0  0
   -6.4268    0.3631    0.0000 C   0  0  0  0  0  0  0  0  0  0  0  0
   -6.1149    1.8303    0.0000 C   0  0  0  0  0  0  0  0  0  0  0  0
   -4.6883    2.2939    0.0000 C   0  0  0  0  0  0  0  0  0  0  0  0
   -3.5736    1.2902    0.0000 C   0  0  0  0  0  0  0  0  0  0  0  0
   -2.1470    1.7537    0.0000 C   0  0  0  0  0  0  0  0  0  0  0  0
   -1.8351    3.2209    0.0000 C   0  0  0  0  0  0  0  0  0  0  0  0
   -2.9499    4.2246    0.0000 C   0  0  0  0  0  0  0  0  0  0  0  0
   -0.4086    3.6844    0.0000 N   0  0  0  0  0  0  0  0  0  0  0  0
    0.7062    2.6807    0.0000 C   0  0  0  0  0  0  0  0  0  0  0  0
    2.1328    3.1443    0.0000 O   0  0  0  0  0  0  0  0  0  0  0  0
    0.3943    1.2135    0.0000 C   0  0  0  0  0  0  0  0  0  0  0  0
    1.2760    0.0000    0.0000 C   0  0  0  0  0  0  0  0  0  0  0  0
    2.7760    0.0000    0.0000 N   0  0  0  0  0  0  0  0  0  0  0  0
    0.3943   -1.2135    0.0000 N   0  0  0  0  0  0  0  0  0  0  0  0
   -1.0323   -0.7500    0.0000 N   0  0  0  0  0  0  0  0  0  0  0  0
   -2.2458   -1.6317    0.0000 C   0  0  0  0  0  0  0  0  0  0  0  0
   -1.0323    0.7500    0.0000 C   0  0  0  0  0  0  0  0  0  0  0  0
   -3.8855   -0.1771    0.0000 C   0  0  0  0  0  0  0  0  0  0  0  0
   -5.3120   -0.6406    0.0000 C   0  0  0  0  0  0  0  0  0  0  0  0
  1  2  1  0
  2  3  1  0
  3  4  2  0
  4  5  1  0
  5  6  2  0
  6  7  1  0
  7  8  2  0
  8  9  1  0
  8 10  1  0
 10 11  1  0
 11 12  2  0
 11 13  1  0
 13 14  1  0
 14 15  1  0
 14 16  2  0
 16 17  1  0
 17 18  1  0
 17 19  1  0
  6 20  1  0
 20 21  2  0
 21  3  1  0
 19  7  1  0
 19 13  2  0
M  END
>  <Compound_ID>  (312) 
CHEMBL1813628

>  <Molecule Name>  (312) 
nan

>  <Molecular Weight>  (312) 
284.32

>  <AlogP>  (312) 
1.83

>  <Smiles>  (312) 
COc1ccc(-c2c(C)[nH]c(=O)c3c(N)nn(C)c23)cc1

>  <Standard Type>  (312) 
Inhibition

>  <Standard Relation>  (312) 
'='

>  <Standard Units>  (312) 
%

>  <Standard Value>  (312) 
18.0

>  <Assay ChEMBL ID>  (312) 
CHEMBL1815730

>  <Assay Description>  (312) 
Inhibition of MET at 30 uM by microfluidic mobility shift assay

>  <BAO Format ID>  (312) 
BAO_0000357

>  <BAO Label>  (312) 
single protein format

>  <Assay Organism>  (312) 
None

>  <Target ChEMBL ID>  (312) 
CHEMBL3717

>  <Target Name>  (312) 
Hepatocyte growth factor receptor

>  <Target Organism>  (312) 
Homo sapiens

>  <Target Type>  (312) 
SINGLE PROTEIN

>  <Document ChEMBL ID>  (312) 
CHEMBL1811853

>  <Source Description>  (312) 
Scientific Literature

>  <Document Journal>  (312) 
Bioorg Med Chem

>  <Document Year>  (312) 
2011.0

>  <Active>  (312) 
0.0

$$$$

     RDKit          2D

 18 20  0  0  0  0  0  0  0  0999 V2000
   -2.6401   -3.1891    0.0000 C   0  0  0  0  0  0  0  0  0  0  0  0
   -1.2135   -2.7256    0.0000 N   0  0  0  0  0  0  0  0  0  0  0  0
   -0.0000   -3.6073    0.0000 N   0  0  0  0  0  0  0  0  0  0  0  0
    1.2135   -2.7256    0.0000 C   0  0  0  0  0  0  0  0  0  0  0  0
    2.6401   -3.1891    0.0000 N   0  0  0  0  0  0  0  0  0  0  0  0
    0.7500   -1.2990    0.0000 C   0  0  0  0  0  0  0  0  0  0  0  0
    1.5000    0.0000    0.0000 C   0  0  0  0  0  0  0  0  0  0  0  0
    3.0000    0.0000    0.0000 O   0  0  0  0  0  0  0  0  0  0  0  0
    0.7500    1.2990    0.0000 N   0  0  0  0  0  0  0  0  0  0  0  0
   -0.7500    1.2990    0.0000 C   0  0  0  0  0  0  0  0  0  0  0  0
   -1.5000    2.5981    0.0000 C   0  0  0  0  0  0  0  0  0  0  0  0
   -0.7500    3.8971    0.0000 C   0  0  0  0  0  0  0  0  0  0  0  0
   -1.5000    5.1962    0.0000 C   0  0  0  0  0  0  0  0  0  0  0  0
   -3.0000    5.1962    0.0000 C   0  0  0  0  0  0  0  0  0  0  0  0
   -3.7500    3.8971    0.0000 C   0  0  0  0  0  0  0  0  0  0  0  0
   -3.0000    2.5981    0.0000 C   0  0  0  0  0  0  0  0  0  0  0  0
   -1.5000    0.0000    0.0000 C   0  0  0  0  0  0  0  0  0  0  0  0
   -0.7500   -1.2990    0.0000 C   0  0  0  0  0  0  0  0  0  0  0  0
  1  2  1  0
  2  3  1  0
  3  4  2  0
  4  5  1  0
  4  6  1  0
  6  7  1  0
  7  8  2  0
  7  9  1  0
  9 10  1  0
 10 11  1  0
 11 12  2  0
 12 13  1  0
 13 14  2  0
 14 15  1  0
 15 16  2  0
 10 17  2  0
 17 18  1  0
 18  2  1  0
 18  6  2  0
 16 11  1  0
M  END
>  <Compound_ID>  (313) 
CHEMBL1813621

>  <Molecule Name>  (313) 
nan

>  <Molecular Weight>  (313) 
240.27

>  <AlogP>  (313) 
1.51

>  <Smiles>  (313) 
Cn1nc(N)c2c(=O)[nH]c(-c3ccccc3)cc21

>  <Standard Type>  (313) 
Inhibition

>  <Standard Relation>  (313) 
'='

>  <Standard Units>  (313) 
%

>  <Standard Value>  (313) 
0.0

>  <Assay ChEMBL ID>  (313) 
CHEMBL1815730

>  <Assay Description>  (313) 
Inhibition of MET at 30 uM by microfluidic mobility shift assay

>  <BAO Format ID>  (313) 
BAO_0000357

>  <BAO Label>  (313) 
single protein format

>  <Assay Organism>  (313) 
None

>  <Target ChEMBL ID>  (313) 
CHEMBL3717

>  <Target Name>  (313) 
Hepatocyte growth factor receptor

>  <Target Organism>  (313) 
Homo sapiens

>  <Target Type>  (313) 
SINGLE PROTEIN

>  <Document ChEMBL ID>  (313) 
CHEMBL1811853

>  <Source Description>  (313) 
Scientific Literature

>  <Document Journal>  (313) 
Bioorg Med Chem

>  <Document Year>  (313) 
2011.0

>  <Active>  (313) 
0.0

$$$$

     RDKit          2D

 39 43  0  0  0  0  0  0  0  0999 V2000
   -5.4969  -12.5290    0.0000 C   0  0  0  0  0  0  0  0  0  0  0  0
   -4.0051  -12.6858    0.0000 N   0  0  0  0  0  0  0  0  0  0  0  0
   -3.3950  -14.0561    0.0000 C   0  0  0  0  0  0  0  0  0  0  0  0
   -3.1235  -11.4723    0.0000 C   0  0  0  0  0  0  0  0  0  0  0  0
   -3.7336  -10.1020    0.0000 O   0  0  0  0  0  0  0  0  0  0  0  0
   -1.6317  -11.6291    0.0000 O   0  0  0  0  0  0  0  0  0  0  0  0
   -0.7500  -10.4156    0.0000 C   0  0  0  0  0  0  0  0  0  0  0  0
    0.7500  -10.4156    0.0000 C   0  0  0  0  0  0  0  0  0  0  0  0
    1.2135   -8.9890    0.0000 N   0  0  0  0  0  0  0  0  0  0  0  0
    0.0000   -8.1073    0.0000 C   0  0  0  0  0  0  0  0  0  0  0  0
   -0.0000   -6.6073    0.0000 C   0  0  0  0  0  0  0  0  0  0  0  0
   -0.0000   -5.1073    0.0000 C   0  0  0  0  0  0  0  0  0  0  0  0
   -0.0000   -3.6073    0.0000 C   0  0  0  0  0  0  0  0  0  0  0  0
    1.2135   -2.7256    0.0000 C   0  0  0  0  0  0  0  0  0  0  0  0
    0.7500   -1.2990    0.0000 C   0  0  0  0  0  0  0  0  0  0  0  0
    1.5000    0.0000    0.0000 N   0  0  0  0  0  0  0  0  0  0  0  0
    0.7500    1.2990    0.0000 C   0  0  0  0  0  0  0  0  0  0  0  0
   -0.7500    1.2990    0.0000 N   0  0  0  0  0  0  0  0  0  0  0  0
   -1.5000    0.0000    0.0000 C   0  0  0  0  0  0  0  0  0  0  0  0
   -3.0000    0.0000    0.0000 N   0  0  0  0  0  0  0  0  0  0  0  0
   -3.7500    1.2990    0.0000 C   0  0  0  0  0  0  0  0  0  0  0  0
   -3.0000    2.5981    0.0000 C   0  0  0  0  0  0  0  0  0  0  0  0
   -3.7500    3.8971    0.0000 C   0  0  0  0  0  0  0  0  0  0  0  0
   -5.2500    3.8971    0.0000 C   0  0  0  0  0  0  0  0  0  0  0  0
   -6.0000    5.1962    0.0000 O   0  0  0  0  0  0  0  0  0  0  0  0
   -5.2500    6.4952    0.0000 C   0  0  0  0  0  0  0  0  0  0  0  0
   -6.0000    7.7942    0.0000 C   0  0  0  0  0  0  0  0  0  0  0  0
   -5.2500    9.0933    0.0000 C   0  0  0  0  0  0  0  0  0  0  0  0
   -6.0000   10.3923    0.0000 C   0  0  0  0  0  0  0  0  0  0  0  0
   -7.5000   10.3923    0.0000 C   0  0  0  0  0  0  0  0  0  0  0  0
   -8.2500    9.0933    0.0000 C   0  0  0  0  0  0  0  0  0  0  0  0
   -9.7500    9.0933    0.0000 F   0  0  0  0  0  0  0  0  0  0  0  0
   -7.5000    7.7942    0.0000 C   0  0  0  0  0  0  0  0  0  0  0  0
   -6.0000    2.5981    0.0000 C   0  0  0  0  0  0  0  0  0  0  0  0
   -7.5000    2.5981    0.0000 Cl  0  0  0  0  0  0  0  0  0  0  0  0
   -5.2500    1.2990    0.0000 C   0  0  0  0  0  0  0  0  0  0  0  0
   -0.7500   -1.2990    0.0000 C   0  0  0  0  0  0  0  0  0  0  0  0
   -1.2135   -2.7256    0.0000 S   0  0  0  0  0  0  0  0  0  0  0  0
   -1.2135   -8.9890    0.0000 C   0  0  0  0  0  0  0  0  0  0  0  0
  1  2  1  0
  2  3  1  0
  2  4  1  0
  4  5  2  0
  4  6  1  0
  7  6  1  1
  7  8  1  0
  8  9  1  0
  9 10  1  0
 10 11  1  6
 11 12  3  0
 12 13  1  0
 13 14  2  0
 14 15  1  0
 15 16  2  0
 16 17  1  0
 17 18  2  0
 18 19  1  0
 19 20  1  0
 20 21  1  0
 21 22  2  0
 22 23  1  0
 23 24  2  0
 24 25  1  0
 25 26  1  0
 26 27  1  0
 27 28  2  0
 28 29  1  0
 29 30  2  0
 30 31  1  0
 31 32  1  0
 31 33  2  0
 24 34  1  0
 34 35  1  0
 34 36  2  0
 19 37  2  0
 37 38  1  0
 10 39  1  0
 39  7  1  0
 38 13  1  0
 37 15  1  0
 36 21  1  0
 33 27  1  0
M  END
>  <Compound_ID>  (314) 
CHEMBL466412

>  <Molecule Name>  (314) 
GSK-238063A

>  <Molecular Weight>  (314) 
566.06

>  <AlogP>  (314) 
5.59

>  <Smiles>  (314) 
CN(C)C(=O)O[C@@H]1CN[C@@H](C#Cc2cc3ncnc(Nc4ccc(OCc5cccc(F)c5)c(Cl)c4)c3s2)C1

>  <Standard Type>  (314) 
Inhibition

>  <Standard Relation>  (314) 
'='

>  <Standard Units>  (314) 
%

>  <Standard Value>  (314) 
5.31

>  <Assay ChEMBL ID>  (314) 
CHEMBL1962142

>  <Assay Description>  (314) 
GSK_PKIS: MET mean inhibition at 0.1 uM [Nanosyn]

>  <BAO Format ID>  (314) 
BAO_0000357

>  <BAO Label>  (314) 
single protein format

>  <Assay Organism>  (314) 
None

>  <Target ChEMBL ID>  (314) 
CHEMBL3717

>  <Target Name>  (314) 
Hepatocyte growth factor receptor

>  <Target Organism>  (314) 
Homo sapiens

>  <Target Type>  (314) 
SINGLE PROTEIN

>  <Document ChEMBL ID>  (314) 
CHEMBL1961873

>  <Source Description>  (314) 
GSK Published Kinase Inhibitor Set

>  <Document Journal>  (314) 
nan

>  <Document Year>  (314) 
nan

>  <Active>  (314) 
0.0

$$$$

     RDKit          2D

 30 34  0  0  0  0  0  0  0  0999 V2000
    3.7500   -1.2990    0.0000 C   0  0  0  0  0  0  0  0  0  0  0  0
    3.0000    0.0000    0.0000 N   0  0  0  0  0  0  0  0  0  0  0  0
    3.7500    1.2990    0.0000 C   0  0  0  0  0  0  0  0  0  0  0  0
    1.5000    0.0000    0.0000 C   0  0  0  0  0  0  0  0  0  0  0  0
    0.7500   -1.2990    0.0000 C   0  0  0  0  0  0  0  0  0  0  0  0
   -0.7500   -1.2990    0.0000 C   0  0  0  0  0  0  0  0  0  0  0  0
   -1.5000   -2.5981    0.0000 C   0  0  0  0  0  0  0  0  0  0  0  0
   -0.7500   -3.8971    0.0000 N   0  0  0  0  0  0  0  0  0  0  0  0
   -1.5000   -5.1962    0.0000 C   0  0  0  0  0  0  0  0  0  0  0  0
   -3.0000   -5.1962    0.0000 C   0  0  0  0  0  0  0  0  0  0  0  0
   -3.7500   -6.4952    0.0000 C   0  0  0  0  0  0  0  0  0  0  0  0
   -3.0000   -7.7942    0.0000 C   0  0  0  0  0  0  0  0  0  0  0  0
   -1.5000   -7.7942    0.0000 C   0  0  0  0  0  0  0  0  0  0  0  0
   -1.0365   -9.2208    0.0000 C   0  0  0  0  0  0  0  0  0  0  0  0
   -2.2500  -10.1025    0.0000 N   0  0  0  0  0  0  0  0  0  0  0  0
   -3.4635   -9.2208    0.0000 N   0  0  0  0  0  0  0  0  0  0  0  0
   -4.8901   -9.6843    0.0000 C   0  0  0  0  0  0  0  0  0  0  0  0
   -5.2020  -11.1516    0.0000 C   0  0  0  0  0  0  0  0  0  0  0  0
   -6.6286  -11.6151    0.0000 C   0  0  0  0  0  0  0  0  0  0  0  0
   -6.9404  -13.0823    0.0000 C   0  0  0  0  0  0  0  0  0  0  0  0
   -5.8257  -14.0860    0.0000 C   0  0  0  0  0  0  0  0  0  0  0  0
   -4.3991  -13.6225    0.0000 C   0  0  0  0  0  0  0  0  0  0  0  0
   -4.0873  -12.1553    0.0000 C   0  0  0  0  0  0  0  0  0  0  0  0
   -0.7500   -6.4952    0.0000 C   0  0  0  0  0  0  0  0  0  0  0  0
   -3.0000   -2.5981    0.0000 N   0  0  0  0  0  0  0  0  0  0  0  0
   -3.7500   -1.2990    0.0000 C   0  0  0  0  0  0  0  0  0  0  0  0
   -3.0000    0.0000    0.0000 N   0  0  0  0  0  0  0  0  0  0  0  0
   -1.5000    0.0000    0.0000 C   0  0  0  0  0  0  0  0  0  0  0  0
   -0.7500    1.2990    0.0000 C   0  0  0  0  0  0  0  0  0  0  0  0
    0.7500    1.2990    0.0000 N   0  0  0  0  0  0  0  0  0  0  0  0
  1  2  1  0
  2  3  1  0
  2  4  1  0
  4  5  2  0
  5  6  1  0
  6  7  2  0
  7  8  1  0
  8  9  1  0
  9 10  2  0
 10 11  1  0
 11 12  2  0
 12 13  1  0
 13 14  1  0
 14 15  2  0
 15 16  1  0
 16 17  1  0
 17 18  1  0
 18 19  2  0
 19 20  1  0
 20 21  2  0
 21 22  1  0
 22 23  2  0
 13 24  2  0
  7 25  1  0
 25 26  2  0
 26 27  1  0
 27 28  2  0
 28 29  1  0
 29 30  2  0
 30  4  1  0
 28  6  1  0
 24  9  1  0
 16 12  1  0
 23 18  1  0
M  END
>  <Compound_ID>  (315) 
CHEMBL30432

>  <Molecule Name>  (315) 
GW282974X

>  <Molecular Weight>  (315) 
395.47

>  <AlogP>  (315) 
4.23

>  <Smiles>  (315) 
CN(C)c1cc2c(Nc3ccc4c(cnn4Cc4ccccc4)c3)ncnc2cn1

>  <Standard Type>  (315) 
Inhibition

>  <Standard Relation>  (315) 
'='

>  <Standard Units>  (315) 
%

>  <Standard Value>  (315) 
0.45

>  <Assay ChEMBL ID>  (315) 
CHEMBL1962143

>  <Assay Description>  (315) 
GSK_PKIS: MET mean inhibition at 1 uM [Nanosyn]

>  <BAO Format ID>  (315) 
BAO_0000357

>  <BAO Label>  (315) 
single protein format

>  <Assay Organism>  (315) 
None

>  <Target ChEMBL ID>  (315) 
CHEMBL3717

>  <Target Name>  (315) 
Hepatocyte growth factor receptor

>  <Target Organism>  (315) 
Homo sapiens

>  <Target Type>  (315) 
SINGLE PROTEIN

>  <Document ChEMBL ID>  (315) 
CHEMBL1961873

>  <Source Description>  (315) 
GSK Published Kinase Inhibitor Set

>  <Document Journal>  (315) 
nan

>  <Document Year>  (315) 
nan

>  <Active>  (315) 
0.0

$$$$

     RDKit          2D

 26 27  0  0  0  0  0  0  0  0999 V2000
    3.7500   -1.2990    0.0000 C   0  0  0  0  0  0  0  0  0  0  0  0
    3.0000    0.0000    0.0000 C   0  0  0  0  0  0  0  0  0  0  0  0
    1.5000    0.0000    0.0000 C   0  0  0  0  0  0  0  0  0  0  0  0
    0.7500   -1.2990    0.0000 C   0  0  0  0  0  0  0  0  0  0  0  0
    1.5000   -2.5981    0.0000 O   0  0  0  0  0  0  0  0  0  0  0  0
   -0.7500   -1.2990    0.0000 O   0  0  0  0  0  0  0  0  0  0  0  0
   -1.5000    0.0000    0.0000 C   0  0  0  0  0  0  0  0  0  0  0  0
   -0.7500    1.2990    0.0000 C   0  0  0  0  0  0  0  0  0  0  0  0
   -1.5000    2.5981    0.0000 C   0  0  0  0  0  0  0  0  0  0  0  0
   -0.7500    3.8971    0.0000 O   0  0  0  0  0  0  0  0  0  0  0  0
   -3.0000    2.5981    0.0000 O   0  0  0  0  0  0  0  0  0  0  0  0
   -3.7500    3.8971    0.0000 C   0  0  0  0  0  0  0  0  0  0  0  0
    0.7500    1.2990    0.0000 C   0  0  0  0  0  0  0  0  0  0  0  0
    1.5000    2.5981    0.0000 C   0  0  0  0  0  0  0  0  0  0  0  0
    3.0000    2.5981    0.0000 C   0  0  0  0  0  0  0  0  0  0  0  0
    3.7500    1.2990    0.0000 O   0  0  0  0  0  0  0  0  0  0  0  0
    3.7500    3.8971    0.0000 O   0  0  0  0  0  0  0  0  0  0  0  0
    5.2500    3.8971    0.0000 C   0  0  0  0  0  0  0  0  0  0  0  0
    6.0000    5.1962    0.0000 C   0  0  0  0  0  0  0  0  0  0  0  0
    7.5000    5.1962    0.0000 C   0  0  0  0  0  0  0  0  0  0  0  0
    8.2500    3.8971    0.0000 C   0  0  0  0  0  0  0  0  0  0  0  0
    9.7500    3.8971    0.0000 C   0  0  0  0  0  0  0  0  0  0  0  0
   10.5000    5.1962    0.0000 C   0  0  0  0  0  0  0  0  0  0  0  0
   12.0000    5.1962    0.0000 O   0  0  0  0  0  0  0  0  0  0  0  0
    9.7500    6.4952    0.0000 C   0  0  0  0  0  0  0  0  0  0  0  0
    8.2500    6.4952    0.0000 C   0  0  0  0  0  0  0  0  0  0  0  0
  1  2  2  0
  3  2  1  6
  3  4  1  0
  4  5  1  6
  4  6  1  0
  6  7  1  0
  7  8  2  0
  8  9  1  0
  9 10  2  0
  9 11  1  0
 11 12  1  0
  8 13  1  0
 13 14  1  1
 14 15  1  0
 15 16  2  0
 15 17  1  0
 17 18  1  0
 18 19  1  0
 19 20  1  0
 20 21  2  0
 21 22  1  0
 22 23  2  0
 23 24  1  0
 23 25  1  0
 25 26  2  0
 13  3  1  0
 26 20  1  0
M  END
>  <Compound_ID>  (316) 
CHEMBL2348312

>  <Molecule Name>  (316) 
LIGSTROSIDE AGLYCONE

>  <Molecular Weight>  (316) 
362.38

>  <AlogP>  (316) 
1.69

>  <Smiles>  (316) 
C=C[C@@H]1[C@H](O)OC=C(C(=O)OC)[C@H]1CC(=O)OCCc1ccc(O)cc1

>  <Standard Type>  (316) 
Inhibition

>  <Standard Relation>  (316) 
'='

>  <Standard Units>  (316) 
%

>  <Standard Value>  (316) 
4.2

>  <Assay ChEMBL ID>  (316) 
CHEMBL2350425

>  <Assay Description>  (316) 
Inhibition of c-MET phosphorylation (unknown origin) at 25 uM after 1 hr by Z'-LYTE kinase assay

>  <BAO Format ID>  (316) 
BAO_0000357

>  <BAO Label>  (316) 
single protein format

>  <Assay Organism>  (316) 
Homo sapiens

>  <Target ChEMBL ID>  (316) 
CHEMBL3717

>  <Target Name>  (316) 
Hepatocyte growth factor receptor

>  <Target Organism>  (316) 
Homo sapiens

>  <Target Type>  (316) 
SINGLE PROTEIN

>  <Document ChEMBL ID>  (316) 
CHEMBL2346504

>  <Source Description>  (316) 
Scientific Literature

>  <Document Journal>  (316) 
Bioorg Med Chem

>  <Document Year>  (316) 
2013.0

>  <Active>  (316) 
0.0

$$$$

     RDKit          2D

 16 18  0  0  0  0  0  0  0  0999 V2000
   -2.6401   -3.1891    0.0000 C   0  0  0  0  0  0  0  0  0  0  0  0
   -1.2135   -2.7256    0.0000 N   0  0  0  0  0  0  0  0  0  0  0  0
   -0.0000   -3.6073    0.0000 C   0  0  0  0  0  0  0  0  0  0  0  0
   -0.0000   -5.1073    0.0000 C   0  0  0  0  0  0  0  0  0  0  0  0
    1.2135   -5.9890    0.0000 N   0  0  0  0  0  0  0  0  0  0  0  0
    0.7500   -7.4156    0.0000 O   0  0  0  0  0  0  0  0  0  0  0  0
   -0.7500   -7.4156    0.0000 N   0  0  0  0  0  0  0  0  0  0  0  0
   -1.2135   -5.9890    0.0000 C   0  0  0  0  0  0  0  0  0  0  0  0
   -2.6401   -5.5255    0.0000 N   0  0  0  0  0  0  0  0  0  0  0  0
    1.2135   -2.7256    0.0000 N   0  0  0  0  0  0  0  0  0  0  0  0
    0.7500   -1.2990    0.0000 C   0  0  0  0  0  0  0  0  0  0  0  0
    1.5000    0.0000    0.0000 C   0  0  0  0  0  0  0  0  0  0  0  0
    0.7500    1.2990    0.0000 N   0  0  0  0  0  0  0  0  0  0  0  0
   -0.7500    1.2990    0.0000 C   0  0  0  0  0  0  0  0  0  0  0  0
   -1.5000    0.0000    0.0000 C   0  0  0  0  0  0  0  0  0  0  0  0
   -0.7500   -1.2990    0.0000 C   0  0  0  0  0  0  0  0  0  0  0  0
  1  2  1  0
  2  3  1  0
  3  4  1  0
  4  5  2  0
  5  6  1  0
  6  7  1  0
  7  8  2  0
  8  9  1  0
  3 10  2  0
 10 11  1  0
 11 12  2  0
 12 13  1  0
 13 14  2  0
 14 15  1  0
 15 16  2  0
 16  2  1  0
  8  4  1  0
 16 11  1  0
M  END
>  <Compound_ID>  (317) 
CHEMBL188048

>  <Molecule Name>  (317) 
nan

>  <Molecular Weight>  (317) 
216.20

>  <AlogP>  (317) 
0.60

>  <Smiles>  (317) 
Cn1c(-c2nonc2N)nc2cnccc21

>  <Standard Type>  (317) 
Inhibition

>  <Standard Relation>  (317) 
'='

>  <Standard Units>  (317) 
%

>  <Standard Value>  (317) 
3.78

>  <Assay ChEMBL ID>  (317) 
CHEMBL1962142

>  <Assay Description>  (317) 
GSK_PKIS: MET mean inhibition at 0.1 uM [Nanosyn]

>  <BAO Format ID>  (317) 
BAO_0000357

>  <BAO Label>  (317) 
single protein format

>  <Assay Organism>  (317) 
None

>  <Target ChEMBL ID>  (317) 
CHEMBL3717

>  <Target Name>  (317) 
Hepatocyte growth factor receptor

>  <Target Organism>  (317) 
Homo sapiens

>  <Target Type>  (317) 
SINGLE PROTEIN

>  <Document ChEMBL ID>  (317) 
CHEMBL1961873

>  <Source Description>  (317) 
GSK Published Kinase Inhibitor Set

>  <Document Journal>  (317) 
nan

>  <Document Year>  (317) 
nan

>  <Active>  (317) 
0.0

$$$$

     RDKit          2D

 30 32  0  0  0  0  0  0  0  0999 V2000
    3.0000   -5.1962    0.0000 O   0  0  0  0  0  0  0  0  0  0  0  0
    1.5000   -5.1962    0.0000 C   0  0  0  0  0  0  0  0  0  0  0  0
    0.7500   -3.8971    0.0000 N   0  0  0  0  0  0  0  0  0  0  0  0
    1.5000   -2.5981    0.0000 C   0  0  0  0  0  0  0  0  0  0  0  0
    0.7500   -1.2990    0.0000 C   0  0  0  0  0  0  0  0  0  0  0  0
    1.5000    0.0000    0.0000 C   0  0  0  0  0  0  0  0  0  0  0  0
    0.7500    1.2990    0.0000 C   0  0  0  0  0  0  0  0  0  0  0  0
   -0.7500    1.2990    0.0000 C   0  0  0  0  0  0  0  0  0  0  0  0
   -1.5000    0.0000    0.0000 C   0  0  0  0  0  0  0  0  0  0  0  0
   -0.7500   -1.2990    0.0000 C   0  0  0  0  0  0  0  0  0  0  0  0
    0.7500   -6.4952    0.0000 O   0  0  0  0  0  0  0  0  0  0  0  0
    1.5000   -7.7942    0.0000 C   0  0  0  0  0  0  0  0  0  0  0  0
    0.7500   -9.0933    0.0000 C   0  0  0  0  0  0  0  0  0  0  0  0
    1.5000  -10.3923    0.0000 C   0  0  0  0  0  0  0  0  0  0  0  0
    0.7500  -11.6913    0.0000 C   0  0  0  0  0  0  0  0  0  0  0  0
    1.5000  -12.9904    0.0000 C   0  0  0  0  0  0  0  0  0  0  0  0
    3.0000  -12.9904    0.0000 C   0  0  0  0  0  0  0  0  0  0  0  0
    3.7500  -14.2894    0.0000 O   0  0  0  0  0  0  0  0  0  0  0  0
    3.0000  -15.5885    0.0000 C   0  0  0  0  0  0  0  0  0  0  0  0
    1.5000  -15.5885    0.0000 O   0  0  0  0  0  0  0  0  0  0  0  0
    3.7500  -16.8875    0.0000 N   0  0  0  0  0  0  0  0  0  0  0  0
    3.0000  -18.1865    0.0000 C   0  0  0  0  0  0  0  0  0  0  0  0
    3.7500  -19.4856    0.0000 C   0  0  0  0  0  0  0  0  0  0  0  0
    3.0000  -20.7846    0.0000 C   0  0  0  0  0  0  0  0  0  0  0  0
    3.7500  -22.0836    0.0000 C   0  0  0  0  0  0  0  0  0  0  0  0
    5.2500  -22.0836    0.0000 C   0  0  0  0  0  0  0  0  0  0  0  0
    6.0000  -20.7846    0.0000 C   0  0  0  0  0  0  0  0  0  0  0  0
    5.2500  -19.4856    0.0000 C   0  0  0  0  0  0  0  0  0  0  0  0
    3.7500  -11.6913    0.0000 C   0  0  0  0  0  0  0  0  0  0  0  0
    3.0000  -10.3923    0.0000 C   0  0  0  0  0  0  0  0  0  0  0  0
  1  2  2  0
  2  3  1  0
  3  4  1  0
  4  5  1  0
  5  6  2  0
  6  7  1  0
  7  8  2  0
  8  9  1  0
  9 10  2  0
  2 11  1  0
 11 12  1  0
 12 13  1  0
 13 14  1  0
 14 15  2  0
 15 16  1  0
 16 17  2  0
 17 18  1  0
 18 19  1  0
 19 20  2  0
 19 21  1  0
 21 22  1  0
 22 23  1  0
 23 24  2  0
 24 25  1  0
 25 26  2  0
 26 27  1  0
 27 28  2  0
 17 29  1  0
 29 30  2  0
 10  5  1  0
 30 14  1  0
 28 23  1  0
M  END
>  <Compound_ID>  (318) 
CHEMBL2348311

>  <Molecule Name>  (318) 
nan

>  <Molecular Weight>  (318) 
404.47

>  <AlogP>  (318) 
4.44

>  <Smiles>  (318) 
O=C(NCc1ccccc1)OCCc1ccc(OC(=O)NCc2ccccc2)cc1

>  <Standard Type>  (318) 
Inhibition

>  <Standard Relation>  (318) 
'='

>  <Standard Units>  (318) 
%

>  <Standard Value>  (318) 
0.0

>  <Assay ChEMBL ID>  (318) 
CHEMBL2350425

>  <Assay Description>  (318) 
Inhibition of c-MET phosphorylation (unknown origin) at 25 uM after 1 hr by Z'-LYTE kinase assay

>  <BAO Format ID>  (318) 
BAO_0000357

>  <BAO Label>  (318) 
single protein format

>  <Assay Organism>  (318) 
Homo sapiens

>  <Target ChEMBL ID>  (318) 
CHEMBL3717

>  <Target Name>  (318) 
Hepatocyte growth factor receptor

>  <Target Organism>  (318) 
Homo sapiens

>  <Target Type>  (318) 
SINGLE PROTEIN

>  <Document ChEMBL ID>  (318) 
CHEMBL2346504

>  <Source Description>  (318) 
Scientific Literature

>  <Document Journal>  (318) 
Bioorg Med Chem

>  <Document Year>  (318) 
2013.0

>  <Active>  (318) 
0.0

$$$$

     RDKit          2D

 29 32  0  0  0  0  0  0  0  0999 V2000
    2.6491    0.9642    0.0000 C   0  0  0  0  0  0  0  0  0  0  0  0
    1.5000    0.0000    0.0000 C   0  0  0  0  0  0  0  0  0  0  0  0
    2.6491   -0.9642    0.0000 C   0  0  0  0  0  0  0  0  0  0  0  0
    0.7500   -1.2990    0.0000 C   0  0  0  0  0  0  0  0  0  0  0  0
   -0.7500   -1.2990    0.0000 C   0  0  0  0  0  0  0  0  0  0  0  0
   -1.5000   -2.5981    0.0000 N   0  0  0  0  0  0  0  0  0  0  0  0
   -0.8899   -3.9684    0.0000 C   0  0  0  0  0  0  0  0  0  0  0  0
   -2.0046   -4.9721    0.0000 N   0  0  0  0  0  0  0  0  0  0  0  0
   -3.3037   -4.2221    0.0000 C   0  0  0  0  0  0  0  0  0  0  0  0
   -4.6740   -4.8322    0.0000 C   0  0  0  0  0  0  0  0  0  0  0  0
   -5.8875   -3.9505    0.0000 C   0  0  0  0  0  0  0  0  0  0  0  0
   -7.2578   -4.5606    0.0000 C   0  0  0  0  0  0  0  0  0  0  0  0
   -7.4146   -6.0524    0.0000 C   0  0  0  0  0  0  0  0  0  0  0  0
   -8.7849   -6.6625    0.0000 F   0  0  0  0  0  0  0  0  0  0  0  0
   -6.2011   -6.9341    0.0000 C   0  0  0  0  0  0  0  0  0  0  0  0
   -4.8308   -6.3240    0.0000 C   0  0  0  0  0  0  0  0  0  0  0  0
   -2.9918   -2.7549    0.0000 C   0  0  0  0  0  0  0  0  0  0  0  0
   -3.9955   -1.6402    0.0000 C   0  0  0  0  0  0  0  0  0  0  0  0
   -3.5320   -0.2136    0.0000 C   0  0  0  0  0  0  0  0  0  0  0  0
   -4.5356    0.9012    0.0000 C   0  0  0  0  0  0  0  0  0  0  0  0
   -6.0029    0.5893    0.0000 N   0  0  0  0  0  0  0  0  0  0  0  0
   -6.4664   -0.8373    0.0000 C   0  0  0  0  0  0  0  0  0  0  0  0
   -7.9336   -1.1492    0.0000 N   0  0  0  0  0  0  0  0  0  0  0  0
   -5.4627   -1.9520    0.0000 N   0  0  0  0  0  0  0  0  0  0  0  0
   -1.5000    0.0000    0.0000 C   0  0  0  0  0  0  0  0  0  0  0  0
   -0.7500    1.2990    0.0000 C   0  0  0  0  0  0  0  0  0  0  0  0
   -2.1595    1.8121    0.0000 C   0  0  0  0  0  0  0  0  0  0  0  0
   -0.4895    2.7762    0.0000 C   0  0  0  0  0  0  0  0  0  0  0  0
    0.7500    1.2990    0.0000 N   0  0  0  0  0  0  0  0  0  0  0  0
  1  2  1  0
  2  3  1  0
  2  4  1  0
  4  5  1  0
  5  6  1  0
  6  7  1  0
  7  8  2  0
  8  9  1  0
  9 10  1  0
 10 11  2  0
 11 12  1  0
 12 13  2  0
 13 14  1  0
 13 15  1  0
 15 16  2  0
  9 17  2  0
 17 18  1  0
 18 19  2  0
 19 20  1  0
 20 21  2  0
 21 22  1  0
 22 23  1  0
 22 24  2  0
  5 25  1  0
 25 26  1  0
 26 27  1  0
 26 28  1  0
 26 29  1  0
 29  2  1  0
 17  6  1  0
 24 18  1  0
 16 10  1  0
M  END
>  <Compound_ID>  (319) 
CHEMBL95502

>  <Molecule Name>  (319) 
nan

>  <Molecular Weight>  (319) 
394.50

>  <AlogP>  (319) 
4.21

>  <Smiles>  (319) 
CC1(C)CC(n2cnc(-c3ccc(F)cc3)c2-c2ccnc(N)n2)CC(C)(C)N1

>  <Standard Type>  (319) 
Inhibition

>  <Standard Relation>  (319) 
'='

>  <Standard Units>  (319) 
%

>  <Standard Value>  (319) 
5.56

>  <Assay ChEMBL ID>  (319) 
CHEMBL1962143

>  <Assay Description>  (319) 
GSK_PKIS: MET mean inhibition at 1 uM [Nanosyn]

>  <BAO Format ID>  (319) 
BAO_0000357

>  <BAO Label>  (319) 
single protein format

>  <Assay Organism>  (319) 
None

>  <Target ChEMBL ID>  (319) 
CHEMBL3717

>  <Target Name>  (319) 
Hepatocyte growth factor receptor

>  <Target Organism>  (319) 
Homo sapiens

>  <Target Type>  (319) 
SINGLE PROTEIN

>  <Document ChEMBL ID>  (319) 
CHEMBL1961873

>  <Source Description>  (319) 
GSK Published Kinase Inhibitor Set

>  <Document Journal>  (319) 
nan

>  <Document Year>  (319) 
nan

>  <Active>  (319) 
0.0

$$$$

     RDKit          2D

 32 36  0  0  0  0  0  0  0  0999 V2000
   -1.2990  -10.3573    0.0000 C   0  0  0  0  0  0  0  0  0  0  0  0
    0.0000   -9.6073    0.0000 O   0  0  0  0  0  0  0  0  0  0  0  0
    0.0000   -8.1073    0.0000 C   0  0  0  0  0  0  0  0  0  0  0  0
   -1.2990   -7.3573    0.0000 C   0  0  0  0  0  0  0  0  0  0  0  0
   -1.2990   -5.8573    0.0000 C   0  0  0  0  0  0  0  0  0  0  0  0
   -0.0000   -5.1073    0.0000 C   0  0  0  0  0  0  0  0  0  0  0  0
   -0.0000   -3.6073    0.0000 C   0  0  0  0  0  0  0  0  0  0  0  0
    1.2135   -2.7256    0.0000 N   0  0  0  0  0  0  0  0  0  0  0  0
    0.7500   -1.2990    0.0000 N   0  0  0  0  0  0  0  0  0  0  0  0
    1.5000    0.0000    0.0000 N   0  0  0  0  0  0  0  0  0  0  0  0
    0.7500    1.2990    0.0000 C   0  0  0  0  0  0  0  0  0  0  0  0
   -0.7500    1.2990    0.0000 C   0  0  0  0  0  0  0  0  0  0  0  0
   -1.5000    0.0000    0.0000 C   0  0  0  0  0  0  0  0  0  0  0  0
   -0.7500   -1.2990    0.0000 C   0  0  0  0  0  0  0  0  0  0  0  0
   -1.2135   -2.7256    0.0000 C   0  0  0  0  0  0  0  0  0  0  0  0
   -2.6401   -3.1891    0.0000 C   0  0  0  0  0  0  0  0  0  0  0  0
   -3.7548   -2.1855    0.0000 C   0  0  0  0  0  0  0  0  0  0  0  0
   -5.1814   -2.6490    0.0000 C   0  0  0  0  0  0  0  0  0  0  0  0
   -5.4933   -4.1162    0.0000 N   0  0  0  0  0  0  0  0  0  0  0  0
   -4.3786   -5.1199    0.0000 C   0  0  0  0  0  0  0  0  0  0  0  0
   -4.6904   -6.5871    0.0000 N   0  0  0  0  0  0  0  0  0  0  0  0
   -6.1170   -7.0506    0.0000 C   0  0  0  0  0  0  0  0  0  0  0  0
   -7.2317   -6.0469    0.0000 C   0  0  0  0  0  0  0  0  0  0  0  0
   -8.6583   -6.5105    0.0000 C   0  0  0  0  0  0  0  0  0  0  0  0
   -8.9702   -7.9777    0.0000 C   0  0  0  0  0  0  0  0  0  0  0  0
  -10.3968   -8.4412    0.0000 F   0  0  0  0  0  0  0  0  0  0  0  0
   -7.8555   -8.9814    0.0000 C   0  0  0  0  0  0  0  0  0  0  0  0
   -8.1673  -10.4486    0.0000 F   0  0  0  0  0  0  0  0  0  0  0  0
   -6.4289   -8.5179    0.0000 C   0  0  0  0  0  0  0  0  0  0  0  0
   -2.9520   -4.6564    0.0000 N   0  0  0  0  0  0  0  0  0  0  0  0
    1.2990   -5.8573    0.0000 C   0  0  0  0  0  0  0  0  0  0  0  0
    1.2990   -7.3573    0.0000 C   0  0  0  0  0  0  0  0  0  0  0  0
  1  2  1  0
  2  3  1  0
  3  4  2  0
  4  5  1  0
  5  6  2  0
  6  7  1  0
  7  8  2  0
  8  9  1  0
  9 10  1  0
 10 11  2  0
 11 12  1  0
 12 13  2  0
 13 14  1  0
 14 15  2  0
 15 16  1  0
 16 17  2  0
 17 18  1  0
 18 19  2  0
 19 20  1  0
 20 21  1  0
 21 22  1  0
 22 23  2  0
 23 24  1  0
 24 25  2  0
 25 26  1  0
 25 27  1  0
 27 28  1  0
 27 29  2  0
 20 30  2  0
  6 31  1  0
 31 32  2  0
 32  3  1  0
 15  7  1  0
 30 16  1  0
 14  9  1  0
 29 22  1  0
M  END
>  <Compound_ID>  (320) 
CHEMBL427159

>  <Molecule Name>  (320) 
GW827396X

>  <Molecular Weight>  (320) 
430.42

>  <AlogP>  (320) 
4.88

>  <Smiles>  (320) 
COc1ccc(-c2nn3ncccc3c2-c2ccnc(Nc3ccc(F)c(F)c3)n2)cc1

>  <Standard Type>  (320) 
Inhibition

>  <Standard Relation>  (320) 
'='

>  <Standard Units>  (320) 
%

>  <Standard Value>  (320) 
8.73

>  <Assay ChEMBL ID>  (320) 
CHEMBL1962143

>  <Assay Description>  (320) 
GSK_PKIS: MET mean inhibition at 1 uM [Nanosyn]

>  <BAO Format ID>  (320) 
BAO_0000357

>  <BAO Label>  (320) 
single protein format

>  <Assay Organism>  (320) 
None

>  <Target ChEMBL ID>  (320) 
CHEMBL3717

>  <Target Name>  (320) 
Hepatocyte growth factor receptor

>  <Target Organism>  (320) 
Homo sapiens

>  <Target Type>  (320) 
SINGLE PROTEIN

>  <Document ChEMBL ID>  (320) 
CHEMBL1961873

>  <Source Description>  (320) 
GSK Published Kinase Inhibitor Set

>  <Document Journal>  (320) 
nan

>  <Document Year>  (320) 
nan

>  <Active>  (320) 
0.0

$$$$

     RDKit          2D

 39 44  0  0  0  0  0  0  0  0999 V2000
    5.3011  -10.7993    0.0000 O   0  0  0  0  0  1  0  0  0  0  0  0
    5.1443   -9.3075    0.0000 S   0  0  0  0  0  3  0  0  0  0  0  0
    3.7740   -8.6974    0.0000 C   0  0  0  0  0  0  0  0  0  0  0  0
    3.6172   -7.2057    0.0000 C   0  0  0  0  0  0  0  0  0  0  0  0
    4.8308   -6.3240    0.0000 N   0  0  0  0  0  0  0  0  0  0  0  0
    4.6740   -4.8322    0.0000 C   0  0  0  0  0  0  0  0  0  0  0  0
    3.3037   -4.2221    0.0000 C   0  0  0  0  0  0  0  0  0  0  0  0
    2.0046   -4.9721    0.0000 C   0  0  0  0  0  0  0  0  0  0  0  0
    0.8899   -3.9684    0.0000 C   0  0  0  0  0  0  0  0  0  0  0  0
    1.5000   -2.5981    0.0000 C   0  0  0  0  0  0  0  0  0  0  0  0
    0.7500   -1.2990    0.0000 C   0  0  0  0  0  0  0  0  0  0  0  0
    1.5000    0.0000    0.0000 C   0  0  0  0  0  0  0  0  0  0  0  0
    0.7500    1.2990    0.0000 C   0  0  0  0  0  0  0  0  0  0  0  0
   -0.7500    1.2990    0.0000 C   0  0  0  0  0  0  0  0  0  0  0  0
   -1.5000    2.5981    0.0000 N   0  0  0  0  0  0  0  0  0  0  0  0
   -3.0000    2.5981    0.0000 C   0  0  0  0  0  0  0  0  0  0  0  0
   -3.7500    1.2990    0.0000 N   0  0  0  0  0  0  0  0  0  0  0  0
   -3.0000    0.0000    0.0000 C   0  0  0  0  0  0  0  0  0  0  0  0
   -3.7500   -1.2990    0.0000 N   0  0  0  0  0  0  0  0  0  0  0  0
   -5.2500   -1.2990    0.0000 C   0  0  0  0  0  0  0  0  0  0  0  0
   -6.0000    0.0000    0.0000 C   0  0  0  0  0  0  0  0  0  0  0  0
   -7.5000    0.0000    0.0000 C   0  0  0  0  0  0  0  0  0  0  0  0
   -8.2500   -1.2990    0.0000 C   0  0  0  0  0  0  0  0  0  0  0  0
   -9.7500   -1.2990    0.0000 O   0  0  0  0  0  0  0  0  0  0  0  0
  -10.5000    0.0000    0.0000 C   0  0  0  0  0  0  0  0  0  0  0  0
  -12.0000    0.0000    0.0000 C   0  0  0  0  0  0  0  0  0  0  0  0
  -12.7500    1.2990    0.0000 C   0  0  0  0  0  0  0  0  0  0  0  0
  -14.2500    1.2990    0.0000 C   0  0  0  0  0  0  0  0  0  0  0  0
  -15.0000    0.0000    0.0000 C   0  0  0  0  0  0  0  0  0  0  0  0
  -14.2500   -1.2990    0.0000 C   0  0  0  0  0  0  0  0  0  0  0  0
  -12.7500   -1.2990    0.0000 C   0  0  0  0  0  0  0  0  0  0  0  0
   -7.5000   -2.5981    0.0000 C   0  0  0  0  0  0  0  0  0  0  0  0
   -8.2500   -3.8971    0.0000 Cl  0  0  0  0  0  0  0  0  0  0  0  0
   -6.0000   -2.5981    0.0000 C   0  0  0  0  0  0  0  0  0  0  0  0
   -1.5000    0.0000    0.0000 C   0  0  0  0  0  0  0  0  0  0  0  0
   -0.7500   -1.2990    0.0000 C   0  0  0  0  0  0  0  0  0  0  0  0
    2.9918   -2.7549    0.0000 O   0  0  0  0  0  0  0  0  0  0  0  0
    6.2011   -6.9341    0.0000 C   0  0  0  0  0  0  0  0  0  0  0  0
    6.3579   -8.4259    0.0000 C   0  0  0  0  0  0  0  0  0  0  0  0
  1  2  1  0
  2  3  1  0
  3  4  1  0
  4  5  1  0
  5  6  1  0
  6  7  1  0
  7  8  2  0
  8  9  1  0
  9 10  2  0
 10 11  1  0
 11 12  2  0
 12 13  1  0
 13 14  2  0
 14 15  1  0
 15 16  2  0
 16 17  1  0
 17 18  2  0
 18 19  1  0
 19 20  1  0
 20 21  2  0
 21 22  1  0
 22 23  2  0
 23 24  1  0
 24 25  1  0
 25 26  1  0
 26 27  2  0
 27 28  1  0
 28 29  2  0
 29 30  1  0
 30 31  2  0
 23 32  1  0
 32 33  1  0
 32 34  2  0
 18 35  1  0
 35 36  2  0
 10 37  1  0
  5 38  1  0
 38 39  1  0
 39  2  1  0
 37  7  1  0
 36 11  1  0
 35 14  1  0
 34 20  1  0
 31 26  1  0
M  CHG  2   1  -1   2   1
M  END
>  <Compound_ID>  (321) 
CHEMBL1909393

>  <Molecule Name>  (321) 
GW583373A

>  <Molecular Weight>  (321) 
595.55

>  <AlogP>  (321) 
6.43

>  <Smiles>  (321) 
[O-][S+]1CCN(Cc2ccc(-c3ccc4ncnc(Nc5ccc(OCc6ccccc6)c(Cl)c5)c4c3)o2)CC1

>  <Standard Type>  (321) 
Inhibition

>  <Standard Relation>  (321) 
'='

>  <Standard Units>  (321) 
%

>  <Standard Value>  (321) 
5.04

>  <Assay ChEMBL ID>  (321) 
CHEMBL1962143

>  <Assay Description>  (321) 
GSK_PKIS: MET mean inhibition at 1 uM [Nanosyn]

>  <BAO Format ID>  (321) 
BAO_0000357

>  <BAO Label>  (321) 
single protein format

>  <Assay Organism>  (321) 
None

>  <Target ChEMBL ID>  (321) 
CHEMBL3717

>  <Target Name>  (321) 
Hepatocyte growth factor receptor

>  <Target Organism>  (321) 
Homo sapiens

>  <Target Type>  (321) 
SINGLE PROTEIN

>  <Document ChEMBL ID>  (321) 
CHEMBL1961873

>  <Source Description>  (321) 
GSK Published Kinase Inhibitor Set

>  <Document Journal>  (321) 
nan

>  <Document Year>  (321) 
nan

>  <Active>  (321) 
0.0

$$$$

     RDKit          2D

 28 30  0  0  0  0  0  0  0  0999 V2000
    5.2500    1.2990    0.0000 C   0  0  0  0  0  0  0  0  0  0  0  0
    4.5000    0.0000    0.0000 C   0  0  0  0  0  0  0  0  0  0  0  0
    3.0000    0.0000    0.0000 S   0  0  0  0  0  0  0  0  0  0  0  0
    3.0000    1.5000    0.0000 O   0  0  0  0  0  0  0  0  0  0  0  0
    3.0000   -1.5000    0.0000 O   0  0  0  0  0  0  0  0  0  0  0  0
    1.5000    0.0000    0.0000 C   0  0  0  0  0  0  0  0  0  0  0  0
    0.7500   -1.2990    0.0000 C   0  0  0  0  0  0  0  0  0  0  0  0
   -0.7500   -1.2990    0.0000 C   0  0  0  0  0  0  0  0  0  0  0  0
   -1.5000    0.0000    0.0000 C   0  0  0  0  0  0  0  0  0  0  0  0
   -3.0000    0.0000    0.0000 O   0  0  0  0  0  0  0  0  0  0  0  0
   -3.7500   -1.2990    0.0000 C   0  0  0  0  0  0  0  0  0  0  0  0
   -0.7500    1.2990    0.0000 C   0  0  0  0  0  0  0  0  0  0  0  0
   -1.5000    2.5981    0.0000 N   0  0  0  0  0  0  0  0  0  0  0  0
   -0.7500    3.8971    0.0000 C   0  0  0  0  0  0  0  0  0  0  0  0
   -1.3601    5.2674    0.0000 N   0  0  0  0  0  0  0  0  0  0  0  0
   -0.2454    6.2711    0.0000 C   0  0  0  0  0  0  0  0  0  0  0  0
    1.0537    5.5211    0.0000 C   0  0  0  0  0  0  0  0  0  0  0  0
    2.4240    6.1312    0.0000 C   0  0  0  0  0  0  0  0  0  0  0  0
    3.6375    5.2496    0.0000 C   0  0  0  0  0  0  0  0  0  0  0  0
    5.0078    5.8597    0.0000 C   0  0  0  0  0  0  0  0  0  0  0  0
    5.1646    7.3514    0.0000 C   0  0  0  0  0  0  0  0  0  0  0  0
    3.9511    8.2331    0.0000 C   0  0  0  0  0  0  0  0  0  0  0  0
    4.1079    9.7249    0.0000 C   0  0  0  0  0  0  0  0  0  0  0  0
    5.4782   10.3350    0.0000 C   0  0  0  0  0  0  0  0  0  0  0  0
    2.8943   10.6066    0.0000 O   0  0  0  0  0  0  0  0  0  0  0  0
    2.5808    7.6230    0.0000 C   0  0  0  0  0  0  0  0  0  0  0  0
    0.7418    4.0539    0.0000 O   0  0  0  0  0  0  0  0  0  0  0  0
    0.7500    1.2990    0.0000 C   0  0  0  0  0  0  0  0  0  0  0  0
  1  2  1  0
  2  3  1  0
  3  4  2  0
  3  5  2  0
  3  6  1  0
  6  7  2  0
  7  8  1  0
  8  9  2  0
  9 10  1  0
 10 11  1  0
  9 12  1  0
 12 13  1  0
 13 14  1  0
 14 15  2  0
 15 16  1  0
 16 17  2  0
 17 18  1  0
 18 19  2  0
 19 20  1  0
 20 21  2  0
 21 22  1  0
 22 23  1  0
 23 24  1  0
 23 25  2  0
 22 26  2  0
 17 27  1  0
 12 28  2  0
 28  6  1  0
 27 14  1  0
 26 18  1  0
M  END
>  <Compound_ID>  (322) 
CHEMBL191705

>  <Molecule Name>  (322) 
GW621431X

>  <Molecular Weight>  (322) 
400.46

>  <AlogP>  (322) 
4.09

>  <Smiles>  (322) 
CCS(=O)(=O)c1ccc(OC)c(Nc2ncc(-c3cccc(C(C)=O)c3)o2)c1

>  <Standard Type>  (322) 
Inhibition

>  <Standard Relation>  (322) 
'='

>  <Standard Units>  (322) 
%

>  <Standard Value>  (322) 
1.95

>  <Assay ChEMBL ID>  (322) 
CHEMBL1962142

>  <Assay Description>  (322) 
GSK_PKIS: MET mean inhibition at 0.1 uM [Nanosyn]

>  <BAO Format ID>  (322) 
BAO_0000357

>  <BAO Label>  (322) 
single protein format

>  <Assay Organism>  (322) 
None

>  <Target ChEMBL ID>  (322) 
CHEMBL3717

>  <Target Name>  (322) 
Hepatocyte growth factor receptor

>  <Target Organism>  (322) 
Homo sapiens

>  <Target Type>  (322) 
SINGLE PROTEIN

>  <Document ChEMBL ID>  (322) 
CHEMBL1961873

>  <Source Description>  (322) 
GSK Published Kinase Inhibitor Set

>  <Document Journal>  (322) 
nan

>  <Document Year>  (322) 
nan

>  <Active>  (322) 
0.0

$$$$

     RDKit          2D

 34 39  0  0  0  0  0  0  0  0999 V2000
   -4.7871    3.6718    0.0000 C   0  0  0  0  0  0  0  0  0  0  0  0
   -4.7871    2.1718    0.0000 C   0  0  0  0  0  0  0  0  0  0  0  0
   -6.0006    1.2902    0.0000 N   0  0  0  0  0  0  0  0  0  0  0  0
   -5.5371   -0.1364    0.0000 C   0  0  0  0  0  0  0  0  0  0  0  0
   -6.4188   -1.3499    0.0000 C   0  0  0  0  0  0  0  0  0  0  0  0
   -7.9106   -1.1931    0.0000 C   0  0  0  0  0  0  0  0  0  0  0  0
   -8.7923   -2.4067    0.0000 C   0  0  0  0  0  0  0  0  0  0  0  0
   -8.1821   -3.7770    0.0000 C   0  0  0  0  0  0  0  0  0  0  0  0
   -6.6904   -3.9338    0.0000 C   0  0  0  0  0  0  0  0  0  0  0  0
   -5.8087   -2.7203    0.0000 C   0  0  0  0  0  0  0  0  0  0  0  0
   -4.0371   -0.1364    0.0000 C   0  0  0  0  0  0  0  0  0  0  0  0
   -3.1554   -1.3499    0.0000 C   0  0  0  0  0  0  0  0  0  0  0  0
   -3.7655   -2.7203    0.0000 C   0  0  0  0  0  0  0  0  0  0  0  0
   -2.8839   -3.9338    0.0000 C   0  0  0  0  0  0  0  0  0  0  0  0
   -1.3921   -3.7770    0.0000 C   0  0  0  0  0  0  0  0  0  0  0  0
   -0.7820   -2.4067    0.0000 C   0  0  0  0  0  0  0  0  0  0  0  0
   -1.6637   -1.1931    0.0000 C   0  0  0  0  0  0  0  0  0  0  0  0
   -3.5736    1.2902    0.0000 C   0  0  0  0  0  0  0  0  0  0  0  0
   -2.1470    1.7537    0.0000 C   0  0  0  0  0  0  0  0  0  0  0  0
   -1.8351    3.2209    0.0000 N   0  0  0  0  0  0  0  0  0  0  0  0
   -0.4086    3.6844    0.0000 N   0  0  0  0  0  0  0  0  0  0  0  0
    0.7062    2.6807    0.0000 C   0  0  0  0  0  0  0  0  0  0  0  0
    2.1328    3.1443    0.0000 C   0  0  0  0  0  0  0  0  0  0  0  0
    0.3943    1.2135    0.0000 C   0  0  0  0  0  0  0  0  0  0  0  0
    1.2760    0.0000    0.0000 N   0  0  0  0  0  0  0  0  0  0  0  0
    0.3943   -1.2135    0.0000 N   0  0  0  0  0  0  0  0  0  0  0  0
    0.8578   -2.6401    0.0000 C   0  0  0  0  0  0  0  0  0  0  0  0
   -0.1459   -3.7548    0.0000 C   0  0  0  0  0  0  0  0  0  0  0  0
    0.3177   -5.1814    0.0000 C   0  0  0  0  0  0  0  0  0  0  0  0
    1.7849   -5.4933    0.0000 C   0  0  0  0  0  0  0  0  0  0  0  0
    2.7886   -4.3786    0.0000 C   0  0  0  0  0  0  0  0  0  0  0  0
    2.3250   -2.9520    0.0000 C   0  0  0  0  0  0  0  0  0  0  0  0
   -1.0323   -0.7500    0.0000 C   0  0  0  0  0  0  0  0  0  0  0  0
   -1.0323    0.7500    0.0000 C   0  0  0  0  0  0  0  0  0  0  0  0
  1  2  1  0
  2  3  1  0
  3  4  1  0
  4  5  1  0
  5  6  2  0
  6  7  1  0
  7  8  2  0
  8  9  1  0
  9 10  2  0
  4 11  2  0
 11 12  1  0
 12 13  2  0
 13 14  1  0
 14 15  2  0
 15 16  1  0
 16 17  2  0
 11 18  1  0
 18 19  1  0
 19 20  2  0
 20 21  1  0
 21 22  2  0
 22 23  1  0
 22 24  1  0
 24 25  2  0
 25 26  1  0
 26 27  1  0
 27 28  2  0
 28 29  1  0
 29 30  2  0
 30 31  1  0
 31 32  2  0
 26 33  1  0
 33 34  2  0
 18  2  2  0
 34 19  1  0
 10  5  1  0
 17 12  1  0
 34 24  1  0
 32 27  1  0
M  END
>  <Compound_ID>  (323) 
CHEMBL3740582

>  <Molecule Name>  (323) 
nan

>  <Molecular Weight>  (323) 
441.54

>  <AlogP>  (323) 
6.76

>  <Smiles>  (323) 
Cc1[nH]c(-c2ccccc2)c(-c2ccccc2)c1-c1nnc(C)c2nn(-c3ccccc3)cc12

>  <Standard Type>  (323) 
Inhibition

>  <Standard Relation>  (323) 
'='

>  <Standard Units>  (323) 
%

>  <Standard Value>  (323) 
5.0

>  <Assay ChEMBL ID>  (323) 
CHEMBL3744318

>  <Assay Description>  (323) 
Inhibition of MET (unknown origin) at 30 uM by microfluidic assay relative to control

>  <BAO Format ID>  (323) 
BAO_0000357

>  <BAO Label>  (323) 
single protein format

>  <Assay Organism>  (323) 
Homo sapiens

>  <Target ChEMBL ID>  (323) 
CHEMBL3717

>  <Target Name>  (323) 
Hepatocyte growth factor receptor

>  <Target Organism>  (323) 
Homo sapiens

>  <Target Type>  (323) 
SINGLE PROTEIN

>  <Document ChEMBL ID>  (323) 
CHEMBL3739348

>  <Source Description>  (323) 
Scientific Literature

>  <Document Journal>  (323) 
Medchemcomm

>  <Document Year>  (323) 
2015.0

>  <Active>  (323) 
0.0

$$$$

     RDKit          2D

 25 27  0  0  0  0  0  0  0  0999 V2000
    3.7500   -1.2990    0.0000 C   0  0  0  0  0  0  0  0  0  0  0  0
    3.0000    0.0000    0.0000 C   0  0  0  0  0  0  0  0  0  0  0  0
    3.7500    1.2990    0.0000 C   0  0  0  0  0  0  0  0  0  0  0  0
    1.5000    0.0000    0.0000 C   0  0  0  0  0  0  0  0  0  0  0  0
    0.7500   -1.2990    0.0000 C   0  0  0  0  0  0  0  0  0  0  0  0
   -0.7500   -1.2990    0.0000 C   0  0  0  0  0  0  0  0  0  0  0  0
   -1.5000    0.0000    0.0000 C   0  0  0  0  0  0  0  0  0  0  0  0
   -0.7500    1.2990    0.0000 C   0  0  0  0  0  0  0  0  0  0  0  0
    0.7500    1.2990    0.0000 C   0  0  0  0  0  0  0  0  0  0  0  0
   -1.7537    2.4138    0.0000 N   0  0  0  0  0  0  0  0  0  0  0  0
   -3.1240    1.8037    0.0000 C   0  0  0  0  0  0  0  0  0  0  0  0
   -4.4231    2.5537    0.0000 O   0  0  0  0  0  0  0  0  0  0  0  0
   -2.9672    0.3119    0.0000 C   0  0  0  0  0  0  0  0  0  0  0  0
   -4.0819   -0.6918    0.0000 N   0  0  0  0  0  0  0  0  0  0  0  0
   -3.7701   -2.1590    0.0000 N   0  0  0  0  0  0  0  0  0  0  0  0
   -4.8848   -3.1627    0.0000 C   0  0  0  0  0  0  0  0  0  0  0  0
   -6.3114   -2.6992    0.0000 C   0  0  0  0  0  0  0  0  0  0  0  0
   -7.4261   -3.7029    0.0000 C   0  0  0  0  0  0  0  0  0  0  0  0
   -7.1142   -5.1701    0.0000 C   0  0  0  0  0  0  0  0  0  0  0  0
   -8.2289   -6.1738    0.0000 S   0  0  0  0  0  0  0  0  0  0  0  0
   -9.3437   -7.1775    0.0000 N   0  0  0  0  0  0  0  0  0  0  0  0
   -9.2326   -5.0591    0.0000 O   0  0  0  0  0  0  0  0  0  0  0  0
   -7.2252   -7.2886    0.0000 O   0  0  0  0  0  0  0  0  0  0  0  0
   -5.6876   -5.6337    0.0000 C   0  0  0  0  0  0  0  0  0  0  0  0
   -4.5729   -4.6300    0.0000 C   0  0  0  0  0  0  0  0  0  0  0  0
  1  2  1  0
  2  3  1  0
  2  4  1  0
  4  5  2  0
  5  6  1  0
  6  7  2  0
  7  8  1  0
  8  9  2  0
  8 10  1  0
 10 11  1  0
 11 12  2  0
 11 13  1  0
 13 14  2  0
 14 15  1  0
 15 16  1  0
 16 17  2  0
 17 18  1  0
 18 19  2  0
 19 20  1  0
 20 21  1  0
 20 22  2  0
 20 23  2  0
 19 24  1  0
 24 25  2  0
  9  4  1  0
 25 16  1  0
 13  7  1  0
M  END
>  <Compound_ID>  (324) 
CHEMBL271594

>  <Molecule Name>  (324) 
GW300653X

>  <Molecular Weight>  (324) 
358.42

>  <AlogP>  (324) 
2.23

>  <Smiles>  (324) 
CC(C)c1ccc2c(c1)NC(=O)/C2=N/Nc1ccc(S(N)(=O)=O)cc1

>  <Standard Type>  (324) 
Inhibition

>  <Standard Relation>  (324) 
'='

>  <Standard Units>  (324) 
%

>  <Standard Value>  (324) 
0.7

>  <Assay ChEMBL ID>  (324) 
CHEMBL1962142

>  <Assay Description>  (324) 
GSK_PKIS: MET mean inhibition at 0.1 uM [Nanosyn]

>  <BAO Format ID>  (324) 
BAO_0000357

>  <BAO Label>  (324) 
single protein format

>  <Assay Organism>  (324) 
None

>  <Target ChEMBL ID>  (324) 
CHEMBL3717

>  <Target Name>  (324) 
Hepatocyte growth factor receptor

>  <Target Organism>  (324) 
Homo sapiens

>  <Target Type>  (324) 
SINGLE PROTEIN

>  <Document ChEMBL ID>  (324) 
CHEMBL1961873

>  <Source Description>  (324) 
GSK Published Kinase Inhibitor Set

>  <Document Journal>  (324) 
nan

>  <Document Year>  (324) 
nan

>  <Active>  (324) 
0.0

$$$$

     RDKit          2D

 28 32  0  0  0  0  0  0  0  0999 V2000
   -6.0000   -7.7942    0.0000 Cl  0  0  0  0  0  0  0  0  0  0  0  0
   -5.2500   -6.4952    0.0000 C   0  0  0  0  0  0  0  0  0  0  0  0
   -6.0000   -5.1962    0.0000 C   0  0  0  0  0  0  0  0  0  0  0  0
   -5.2500   -3.8971    0.0000 C   0  0  0  0  0  0  0  0  0  0  0  0
   -3.7500   -3.8971    0.0000 C   0  0  0  0  0  0  0  0  0  0  0  0
   -3.0000   -2.5981    0.0000 N   0  0  0  0  0  0  0  0  0  0  0  0
   -1.5000   -2.5981    0.0000 C   0  0  0  0  0  0  0  0  0  0  0  0
   -0.7500   -3.8971    0.0000 N   0  0  0  0  0  0  0  0  0  0  0  0
    0.7500   -3.8971    0.0000 N   0  0  0  0  0  0  0  0  0  0  0  0
    1.5000   -2.5981    0.0000 C   0  0  0  0  0  0  0  0  0  0  0  0
    3.0000   -2.5981    0.0000 C   0  0  0  0  0  0  0  0  0  0  0  0
    3.7500   -1.2990    0.0000 C   0  0  0  0  0  0  0  0  0  0  0  0
    5.2500   -1.2990    0.0000 C   0  0  0  0  0  0  0  0  0  0  0  0
    6.0000   -2.5981    0.0000 C   0  0  0  0  0  0  0  0  0  0  0  0
    5.2500   -3.8971    0.0000 C   0  0  0  0  0  0  0  0  0  0  0  0
    6.0000   -5.1962    0.0000 C   0  0  0  0  0  0  0  0  0  0  0  0
    5.2500   -6.4952    0.0000 N   0  0  0  0  0  0  0  0  0  0  0  0
    3.7500   -6.4952    0.0000 C   0  0  0  0  0  0  0  0  0  0  0  0
    3.0000   -5.1962    0.0000 C   0  0  0  0  0  0  0  0  0  0  0  0
    3.7500   -3.8971    0.0000 C   0  0  0  0  0  0  0  0  0  0  0  0
    0.7500   -1.2990    0.0000 C   0  0  0  0  0  0  0  0  0  0  0  0
    1.5000    0.0000    0.0000 C   0  0  0  0  0  0  0  0  0  0  0  0
    0.7500    1.2990    0.0000 C   0  0  0  0  0  0  0  0  0  0  0  0
   -0.7500    1.2990    0.0000 C   0  0  0  0  0  0  0  0  0  0  0  0
   -1.5000    0.0000    0.0000 C   0  0  0  0  0  0  0  0  0  0  0  0
   -0.7500   -1.2990    0.0000 C   0  0  0  0  0  0  0  0  0  0  0  0
   -3.0000   -5.1962    0.0000 C   0  0  0  0  0  0  0  0  0  0  0  0
   -3.7500   -6.4952    0.0000 C   0  0  0  0  0  0  0  0  0  0  0  0
  1  2  1  0
  2  3  2  0
  3  4  1  0
  4  5  2  0
  5  6  1  0
  6  7  1  0
  7  8  2  0
  8  9  1  0
  9 10  2  0
 10 11  1  0
 11 12  2  0
 12 13  1  0
 13 14  2  0
 14 15  1  0
 15 16  2  0
 16 17  1  0
 17 18  2  0
 18 19  1  0
 19 20  2  0
 10 21  1  0
 21 22  2  0
 22 23  1  0
 23 24  2  0
 24 25  1  0
 25 26  2  0
  5 27  1  0
 27 28  2  0
 28  2  1  0
 26  7  1  0
 20 11  1  0
 26 21  1  0
 20 15  1  0
M  END
>  <Compound_ID>  (325) 
CHEMBL380316

>  <Molecule Name>  (325) 
nan

>  <Molecular Weight>  (325) 
382.85

>  <AlogP>  (325) 
6.24

>  <Smiles>  (325) 
Clc1ccc(Nc2nnc(-c3cccc4cnccc34)c3ccccc23)cc1

>  <Standard Type>  (325) 
Inhibition

>  <Standard Relation>  (325) 
'='

>  <Standard Units>  (325) 
%

>  <Standard Value>  (325) 
2.0

>  <Assay ChEMBL ID>  (325) 
CHEMBL869533

>  <Assay Description>  (325) 
Inhibition of c-Met at 10 uM

>  <BAO Format ID>  (325) 
BAO_0000357

>  <BAO Label>  (325) 
single protein format

>  <Assay Organism>  (325) 
Homo sapiens

>  <Target ChEMBL ID>  (325) 
CHEMBL3717

>  <Target Name>  (325) 
Hepatocyte growth factor receptor

>  <Target Organism>  (325) 
Homo sapiens

>  <Target Type>  (325) 
SINGLE PROTEIN

>  <Document ChEMBL ID>  (325) 
CHEMBL1146055

>  <Source Description>  (325) 
Scientific Literature

>  <Document Journal>  (325) 
Bioorg Med Chem Lett

>  <Document Year>  (325) 
2006.0

>  <Active>  (325) 
0.0

$$$$

     RDKit          2D

 50 55  0  0  0  0  0  0  0  0999 V2000
   12.7500   -9.0933    0.0000 C   0  0  0  0  0  0  0  0  0  0  0  0
   12.0000   -7.7942    0.0000 C   0  0  0  0  0  0  0  0  0  0  0  0
   10.5000   -7.7942    0.0000 C   0  0  0  0  0  0  0  0  0  0  0  0
    9.7500   -6.4952    0.0000 C   0  0  0  0  0  0  0  0  0  0  0  0
    8.2500   -6.4952    0.0000 N   0  0  0  0  0  0  0  0  0  0  0  0
    7.5000   -5.1962    0.0000 C   0  0  0  0  0  0  0  0  0  0  0  0
    8.2500   -3.8971    0.0000 O   0  0  0  0  0  0  0  0  0  0  0  0
    6.0000   -5.1962    0.0000 N   0  0  0  0  0  0  0  0  0  0  0  0
    5.2500   -6.4952    0.0000 C   0  0  0  0  0  0  0  0  0  0  0  0
    3.7500   -6.4952    0.0000 C   0  0  0  0  0  0  0  0  0  0  0  0
    3.0000   -5.1962    0.0000 C   0  0  0  0  0  0  0  0  0  0  0  0
    1.5000   -5.1962    0.0000 O   0  0  0  0  0  0  0  0  0  0  0  0
    0.7500   -3.8971    0.0000 C   0  0  0  0  0  0  0  0  0  0  0  0
    1.5000   -2.5981    0.0000 C   0  0  0  0  0  0  0  0  0  0  0  0
    0.7500   -1.2990    0.0000 C   0  0  0  0  0  0  0  0  0  0  0  0
    1.5000    0.0000    0.0000 N   0  0  0  0  0  0  0  0  0  0  0  0
    0.7500    1.2990    0.0000 C   0  0  0  0  0  0  0  0  0  0  0  0
   -0.7500    1.2990    0.0000 C   0  0  0  0  0  0  0  0  0  0  0  0
   -1.5000    0.0000    0.0000 C   0  0  0  0  0  0  0  0  0  0  0  0
   -3.0000    0.0000    0.0000 O   0  0  0  0  0  0  0  0  0  0  0  0
   -3.7500    1.2990    0.0000 C   0  0  0  0  0  0  0  0  0  0  0  0
   -3.0000    2.5981    0.0000 C   0  0  0  0  0  0  0  0  0  0  0  0
   -3.7500    3.8971    0.0000 C   0  0  0  0  0  0  0  0  0  0  0  0
   -5.2500    3.8971    0.0000 C   0  0  0  0  0  0  0  0  0  0  0  0
   -6.0000    5.1962    0.0000 N   0  0  0  0  0  0  0  0  0  0  0  0
   -5.2500    6.4952    0.0000 C   0  0  0  0  0  0  0  0  0  0  0  0
   -3.7500    6.4952    0.0000 O   0  0  0  0  0  0  0  0  0  0  0  0
   -6.0000    7.7942    0.0000 N   0  0  0  0  0  0  0  0  0  0  0  0
   -5.2500    9.0933    0.0000 N   0  0  0  0  0  0  0  0  0  0  0  0
   -3.7582    9.2501    0.0000 C   0  0  0  0  0  0  0  0  0  0  0  0
   -2.7545    8.1353    0.0000 O   0  0  0  0  0  0  0  0  0  0  0  0
   -3.4463   10.7173    0.0000 C   0  0  0  0  0  0  0  0  0  0  0  0
   -4.7454   11.4673    0.0000 S   0  0  0  0  0  0  0  0  0  0  0  0
   -5.8601   10.4636    0.0000 C   0  0  0  0  0  0  0  0  0  0  0  0
   -7.3273   10.7755    0.0000 C   0  0  0  0  0  0  0  0  0  0  0  0
   -7.7909   12.2020    0.0000 C   0  0  0  0  0  0  0  0  0  0  0  0
   -9.2581   12.5139    0.0000 C   0  0  0  0  0  0  0  0  0  0  0  0
  -10.2618   11.3992    0.0000 C   0  0  0  0  0  0  0  0  0  0  0  0
  -11.7290   11.7111    0.0000 F   0  0  0  0  0  0  0  0  0  0  0  0
   -9.7982    9.9726    0.0000 C   0  0  0  0  0  0  0  0  0  0  0  0
   -8.3310    9.6607    0.0000 C   0  0  0  0  0  0  0  0  0  0  0  0
   -6.0000    2.5981    0.0000 C   0  0  0  0  0  0  0  0  0  0  0  0
   -5.2500    1.2990    0.0000 C   0  0  0  0  0  0  0  0  0  0  0  0
   -0.7500   -1.2990    0.0000 C   0  0  0  0  0  0  0  0  0  0  0  0
   -1.5000   -2.5981    0.0000 C   0  0  0  0  0  0  0  0  0  0  0  0
   -0.7500   -3.8971    0.0000 C   0  0  0  0  0  0  0  0  0  0  0  0
   -1.5000   -5.1962    0.0000 O   0  0  0  0  0  0  0  0  0  0  0  0
   -3.0000   -5.1962    0.0000 C   0  0  0  0  0  0  0  0  0  0  0  0
    3.7500   -3.8971    0.0000 C   0  0  0  0  0  0  0  0  0  0  0  0
    5.2500   -3.8971    0.0000 C   0  0  0  0  0  0  0  0  0  0  0  0
  1  2  1  0
  2  3  1  0
  3  4  1  0
  4  5  1  0
  5  6  1  0
  6  7  2  0
  6  8  1  0
  8  9  1  0
  9 10  1  0
 10 11  1  0
 11 12  1  0
 12 13  1  0
 13 14  2  0
 14 15  1  0
 15 16  2  0
 16 17  1  0
 17 18  2  0
 18 19  1  0
 19 20  1  0
 20 21  1  0
 21 22  2  0
 22 23  1  0
 23 24  2  0
 24 25  1  0
 25 26  1  0
 26 27  2  0
 26 28  1  0
 28 29  1  0
 29 30  1  0
 30 31  2  0
 30 32  1  0
 32 33  1  0
 33 34  1  0
 34 35  1  0
 35 36  2  0
 36 37  1  0
 37 38  2  0
 38 39  1  0
 38 40  1  0
 40 41  2  0
 24 42  1  0
 42 43  2  0
 19 44  2  0
 44 45  1  0
 45 46  2  0
 46 47  1  0
 47 48  1  0
 11 49  1  0
 49 50  1  0
 50  8  1  0
 46 13  1  0
 44 15  1  0
 43 21  1  0
 34 29  1  0
 41 35  1  0
M  END
>  <Compound_ID>  (326) 
CHEMBL4786951

>  <Molecule Name>  (326) 
nan

>  <Molecular Weight>  (326) 
702.81

>  <AlogP>  (326) 
6.84

>  <Smiles>  (326) 
CCCCNC(=O)N1CCC(Oc2cc3nccc(Oc4ccc(NC(=O)NN5C(=O)CSC5c5ccc(F)cc5)cc4)c3cc2OC)CC1

>  <Standard Type>  (326) 
Inhibition

>  <Standard Relation>  (326) 
'='

>  <Standard Units>  (326) 
%

>  <Standard Value>  (326) 
14.4

>  <Assay ChEMBL ID>  (326) 
CHEMBL4709088

>  <Assay Description>  (326) 
Inhibition of c-Met (unknown origin) at 1 uM using FAM-labelled peptide and ATP incubated for 10 mins by mobility shift assay relative to control

>  <BAO Format ID>  (326) 
BAO_0000357

>  <BAO Label>  (326) 
single protein format

>  <Assay Organism>  (326) 
Homo sapiens

>  <Target ChEMBL ID>  (326) 
CHEMBL3717

>  <Target Name>  (326) 
Hepatocyte growth factor receptor

>  <Target Organism>  (326) 
Homo sapiens

>  <Target Type>  (326) 
SINGLE PROTEIN

>  <Document ChEMBL ID>  (326) 
CHEMBL4706527

>  <Source Description>  (326) 
Scientific Literature

>  <Document Journal>  (326) 
Eur J Med Chem

>  <Document Year>  (326) 
2020.0

>  <Active>  (326) 
0.0

$$$$

     RDKit          2D

 21 23  0  0  0  0  0  0  0  0999 V2000
    3.0000   -1.5000    0.0000 C   0  0  0  0  0  0  0  0  0  0  0  0
    3.0000    0.0000    0.0000 C   0  0  0  0  0  0  0  0  0  0  0  0
    3.0000    1.5000    0.0000 C   0  0  0  0  0  0  0  0  0  0  0  0
    4.5000    0.0000    0.0000 C   0  0  0  0  0  0  0  0  0  0  0  0
    1.5000    0.0000    0.0000 C   0  0  0  0  0  0  0  0  0  0  0  0
    0.7500   -1.2990    0.0000 C   0  0  0  0  0  0  0  0  0  0  0  0
   -0.7500   -1.2990    0.0000 C   0  0  0  0  0  0  0  0  0  0  0  0
   -1.7537   -2.4138    0.0000 N   0  0  0  0  0  0  0  0  0  0  0  0
   -3.1240   -1.8037    0.0000 N   0  0  0  0  0  0  0  0  0  0  0  0
   -4.4231   -2.5537    0.0000 C   0  0  0  0  0  0  0  0  0  0  0  0
   -5.7221   -1.8037    0.0000 C   0  0  0  0  0  0  0  0  0  0  0  0
   -7.0211   -2.5537    0.0000 C   0  0  0  0  0  0  0  0  0  0  0  0
   -7.0211   -4.0537    0.0000 C   0  0  0  0  0  0  0  0  0  0  0  0
   -5.7221   -4.8037    0.0000 C   0  0  0  0  0  0  0  0  0  0  0  0
   -4.4231   -4.0537    0.0000 C   0  0  0  0  0  0  0  0  0  0  0  0
   -2.9672   -0.3119    0.0000 C   0  0  0  0  0  0  0  0  0  0  0  0
   -4.0819    0.6918    0.0000 N   0  0  0  0  0  0  0  0  0  0  0  0
   -1.5000    0.0000    0.0000 C   0  0  0  0  0  0  0  0  0  0  0  0
   -0.7500    1.2990    0.0000 C   0  0  0  0  0  0  0  0  0  0  0  0
   -1.5000    2.5981    0.0000 O   0  0  0  0  0  0  0  0  0  0  0  0
    0.7500    1.2990    0.0000 N   0  0  0  0  0  0  0  0  0  0  0  0
  1  2  1  0
  2  3  1  0
  2  4  1  0
  2  5  1  0
  5  6  2  0
  6  7  1  0
  7  8  2  0
  8  9  1  0
  9 10  1  0
 10 11  2  0
 11 12  1  0
 12 13  2  0
 13 14  1  0
 14 15  2  0
  9 16  1  0
 16 17  1  0
 16 18  2  0
 18 19  1  0
 19 20  2  0
 19 21  1  0
 21  5  1  0
 18  7  1  0
 15 10  1  0
M  END
>  <Compound_ID>  (327) 
CHEMBL1813789

>  <Molecule Name>  (327) 
nan

>  <Molecular Weight>  (327) 
282.35

>  <AlogP>  (327) 
2.59

>  <Smiles>  (327) 
CC(C)(C)c1cc2nn(-c3ccccc3)c(N)c2c(=O)[nH]1

>  <Standard Type>  (327) 
Inhibition

>  <Standard Relation>  (327) 
'='

>  <Standard Units>  (327) 
%

>  <Standard Value>  (327) 
4.0

>  <Assay ChEMBL ID>  (327) 
CHEMBL1815730

>  <Assay Description>  (327) 
Inhibition of MET at 30 uM by microfluidic mobility shift assay

>  <BAO Format ID>  (327) 
BAO_0000357

>  <BAO Label>  (327) 
single protein format

>  <Assay Organism>  (327) 
None

>  <Target ChEMBL ID>  (327) 
CHEMBL3717

>  <Target Name>  (327) 
Hepatocyte growth factor receptor

>  <Target Organism>  (327) 
Homo sapiens

>  <Target Type>  (327) 
SINGLE PROTEIN

>  <Document ChEMBL ID>  (327) 
CHEMBL1811853

>  <Source Description>  (327) 
Scientific Literature

>  <Document Journal>  (327) 
Bioorg Med Chem

>  <Document Year>  (327) 
2011.0

>  <Active>  (327) 
0.0

$$$$

     RDKit          2D

 40 44  0  0  0  0  0  0  0  0999 V2000
    0.9717   16.4259    0.0000 C   0  0  0  0  0  0  0  0  0  0  0  0
    0.6598   14.9587    0.0000 C   0  0  0  0  0  0  0  0  0  0  0  0
    1.7745   13.9550    0.0000 C   0  0  0  0  0  0  0  0  0  0  0  0
    1.4627   12.4878    0.0000 N   0  0  0  0  0  0  0  0  0  0  0  0
    0.0361   12.0242    0.0000 C   0  0  0  0  0  0  0  0  0  0  0  0
   -0.2758   10.5570    0.0000 C   0  0  0  0  0  0  0  0  0  0  0  0
    0.8389    9.5533    0.0000 C   0  0  0  0  0  0  0  0  0  0  0  0
    0.5271    8.0861    0.0000 O   0  0  0  0  0  0  0  0  0  0  0  0
   -0.8995    7.6226    0.0000 C   0  0  0  0  0  0  0  0  0  0  0  0
   -1.2114    6.1554    0.0000 C   0  0  0  0  0  0  0  0  0  0  0  0
   -2.6380    5.6918    0.0000 C   0  0  0  0  0  0  0  0  0  0  0  0
   -2.9499    4.2246    0.0000 N   0  0  0  0  0  0  0  0  0  0  0  0
   -1.8351    3.2209    0.0000 C   0  0  0  0  0  0  0  0  0  0  0  0
   -0.4086    3.6844    0.0000 N   0  0  0  0  0  0  0  0  0  0  0  0
    0.7062    2.6807    0.0000 C   0  0  0  0  0  0  0  0  0  0  0  0
    2.1328    3.1443    0.0000 N   0  0  0  0  0  0  0  0  0  0  0  0
    2.4446    4.6115    0.0000 C   0  0  0  0  0  0  0  0  0  0  0  0
    1.3299    5.6152    0.0000 C   0  0  0  0  0  0  0  0  0  0  0  0
    1.6418    7.0824    0.0000 C   0  0  0  0  0  0  0  0  0  0  0  0
    3.0684    7.5459    0.0000 C   0  0  0  0  0  0  0  0  0  0  0  0
    4.1831    6.5422    0.0000 C   0  0  0  0  0  0  0  0  0  0  0  0
    5.6097    7.0058    0.0000 F   0  0  0  0  0  0  0  0  0  0  0  0
    3.8712    5.0750    0.0000 C   0  0  0  0  0  0  0  0  0  0  0  0
    4.9859    4.0713    0.0000 C   0  0  0  0  0  0  0  0  0  0  0  0
    6.4125    4.5348    0.0000 N   0  0  0  0  0  0  0  0  0  0  0  0
    4.6741    2.6041    0.0000 O   0  0  0  0  0  0  0  0  0  0  0  0
    0.3943    1.2135    0.0000 C   0  0  0  0  0  0  0  0  0  0  0  0
    1.2760    0.0000    0.0000 C   0  0  0  0  0  0  0  0  0  0  0  0
    0.3943   -1.2135    0.0000 C   0  0  0  0  0  0  0  0  0  0  0  0
   -1.0323   -0.7500    0.0000 N   0  0  0  0  0  0  0  0  0  0  0  0
   -1.0323    0.7500    0.0000 C   0  0  0  0  0  0  0  0  0  0  0  0
   -2.1470    1.7537    0.0000 N   0  0  0  0  0  0  0  0  0  0  0  0
   -3.7527    6.6955    0.0000 C   0  0  0  0  0  0  0  0  0  0  0  0
   -5.1793    6.2320    0.0000 O   0  0  0  0  0  0  0  0  0  0  0  0
   -6.2940    7.2357    0.0000 C   0  0  0  0  0  0  0  0  0  0  0  0
   -3.4408    8.1628    0.0000 C   0  0  0  0  0  0  0  0  0  0  0  0
   -2.0143    8.6263    0.0000 C   0  0  0  0  0  0  0  0  0  0  0  0
   -1.7024   10.0935    0.0000 Cl  0  0  0  0  0  0  0  0  0  0  0  0
    2.2655   10.0169    0.0000 C   0  0  0  0  0  0  0  0  0  0  0  0
    2.5774   11.4841    0.0000 C   0  0  0  0  0  0  0  0  0  0  0  0
  1  2  1  0
  2  3  1  0
  3  4  1  0
  4  5  1  0
  5  6  1  0
  6  7  1  0
  7  8  1  0
  8  9  1  0
  9 10  2  0
 10 11  1  0
 11 12  1  0
 12 13  1  0
 13 14  2  0
 14 15  1  0
 15 16  1  0
 16 17  1  0
 17 18  2  0
 18 19  1  0
 19 20  2  0
 20 21  1  0
 21 22  1  0
 21 23  2  0
 23 24  1  0
 24 25  1  0
 24 26  2  0
 15 27  2  0
 27 28  1  0
 28 29  2  0
 29 30  1  0
 30 31  1  0
 31 32  2  0
 11 33  2  0
 33 34  1  0
 34 35  1  0
 33 36  1  0
 36 37  2  0
 37 38  1  0
  7 39  1  0
 39 40  1  0
 40  4  1  0
 37  9  1  0
 32 13  1  0
 23 17  1  0
 31 27  1  0
M  END
>  <Compound_ID>  (328) 
CHEMBL517171

>  <Molecule Name>  (328) 
GSK-1713088A

>  <Molecular Weight>  (328) 
568.05

>  <AlogP>  (328) 
5.60

>  <Smiles>  (328) 
CCCN1CCC(Oc2cc(Nc3nc(Nc4cccc(F)c4C(N)=O)c4cc[nH]c4n3)c(OC)cc2Cl)CC1

>  <Standard Type>  (328) 
Inhibition

>  <Standard Relation>  (328) 
'='

>  <Standard Units>  (328) 
%

>  <Standard Value>  (328) 
-2.15

>  <Assay ChEMBL ID>  (328) 
CHEMBL1962143

>  <Assay Description>  (328) 
GSK_PKIS: MET mean inhibition at 1 uM [Nanosyn]

>  <BAO Format ID>  (328) 
BAO_0000357

>  <BAO Label>  (328) 
single protein format

>  <Assay Organism>  (328) 
None

>  <Target ChEMBL ID>  (328) 
CHEMBL3717

>  <Target Name>  (328) 
Hepatocyte growth factor receptor

>  <Target Organism>  (328) 
Homo sapiens

>  <Target Type>  (328) 
SINGLE PROTEIN

>  <Document ChEMBL ID>  (328) 
CHEMBL1961873

>  <Source Description>  (328) 
GSK Published Kinase Inhibitor Set

>  <Document Journal>  (328) 
nan

>  <Document Year>  (328) 
nan

>  <Active>  (328) 
0.0

$$$$

     RDKit          2D

 30 33  0  0  0  0  0  0  0  0999 V2000
   -3.7548   -2.1855    0.0000 C   0  0  0  0  0  0  0  0  0  0  0  0
   -2.6401   -3.1891    0.0000 C   0  0  0  0  0  0  0  0  0  0  0  0
   -1.2135   -2.7256    0.0000 N   0  0  0  0  0  0  0  0  0  0  0  0
   -0.0000   -3.6073    0.0000 C   0  0  0  0  0  0  0  0  0  0  0  0
   -0.0000   -5.1073    0.0000 C   0  0  0  0  0  0  0  0  0  0  0  0
    1.2135   -5.9890    0.0000 N   0  0  0  0  0  0  0  0  0  0  0  0
    0.7500   -7.4156    0.0000 O   0  0  0  0  0  0  0  0  0  0  0  0
   -0.7500   -7.4156    0.0000 N   0  0  0  0  0  0  0  0  0  0  0  0
   -1.2135   -5.9890    0.0000 C   0  0  0  0  0  0  0  0  0  0  0  0
   -2.6401   -5.5255    0.0000 N   0  0  0  0  0  0  0  0  0  0  0  0
    1.2135   -2.7256    0.0000 N   0  0  0  0  0  0  0  0  0  0  0  0
    0.7500   -1.2990    0.0000 C   0  0  0  0  0  0  0  0  0  0  0  0
    1.5000    0.0000    0.0000 C   0  0  0  0  0  0  0  0  0  0  0  0
    3.0000    0.0000    0.0000 C   0  0  0  0  0  0  0  0  0  0  0  0
    4.5000    0.0000    0.0000 C   0  0  0  0  0  0  0  0  0  0  0  0
    6.0000    0.0000    0.0000 C   0  0  0  0  0  0  0  0  0  0  0  0
    6.0000   -1.5000    0.0000 C   0  0  0  0  0  0  0  0  0  0  0  0
    6.0000    1.5000    0.0000 C   0  0  0  0  0  0  0  0  0  0  0  0
    7.5000    0.0000    0.0000 O   0  0  0  0  0  0  0  0  0  0  0  0
    0.7500    1.2990    0.0000 N   0  0  0  0  0  0  0  0  0  0  0  0
   -0.7500    1.2990    0.0000 C   0  0  0  0  0  0  0  0  0  0  0  0
   -1.5000    0.0000    0.0000 C   0  0  0  0  0  0  0  0  0  0  0  0
   -3.0000    0.0000    0.0000 O   0  0  0  0  0  0  0  0  0  0  0  0
   -3.7500    1.2990    0.0000 C   0  0  0  0  0  0  0  0  0  0  0  0
   -5.2500    1.2990    0.0000 C   0  0  0  0  0  0  0  0  0  0  0  0
   -6.1317    0.0855    0.0000 C   0  0  0  0  0  0  0  0  0  0  0  0
   -7.5583    0.5490    0.0000 C   0  0  0  0  0  0  0  0  0  0  0  0
   -7.5583    2.0490    0.0000 C   0  0  0  0  0  0  0  0  0  0  0  0
   -6.1317    2.5126    0.0000 N   0  0  0  0  0  0  0  0  0  0  0  0
   -0.7500   -1.2990    0.0000 C   0  0  0  0  0  0  0  0  0  0  0  0
  1  2  1  0
  2  3  1  0
  3  4  1  0
  4  5  1  0
  5  6  2  0
  6  7  1  0
  7  8  1  0
  8  9  2  0
  9 10  1  0
  4 11  2  0
 11 12  1  0
 12 13  2  0
 13 14  1  0
 14 15  3  0
 15 16  1  0
 16 17  1  0
 16 18  1  0
 16 19  1  0
 13 20  1  0
 20 21  2  0
 21 22  1  0
 22 23  1  0
 23 24  1  0
 25 24  1  6
 25 26  1  0
 26 27  1  0
 27 28  1  0
 28 29  1  0
 22 30  2  0
 30  3  1  0
  9  5  1  0
 30 12  1  0
 29 25  1  0
M  END
>  <Compound_ID>  (329) 
CHEMBL1909375

>  <Molecule Name>  (329) 
GSK-614526A

>  <Molecular Weight>  (329) 
525.49

>  <AlogP>  (329) 
1.34

>  <Smiles>  (329) 
CCn1c(-c2nonc2N)nc2c(C#CC(C)(C)O)ncc(OC[C@@H]3CCCN3)c21

>  <Standard Type>  (329) 
Inhibition

>  <Standard Relation>  (329) 
'='

>  <Standard Units>  (329) 
%

>  <Standard Value>  (329) 
5.01

>  <Assay ChEMBL ID>  (329) 
CHEMBL1962142

>  <Assay Description>  (329) 
GSK_PKIS: MET mean inhibition at 0.1 uM [Nanosyn]

>  <BAO Format ID>  (329) 
BAO_0000357

>  <BAO Label>  (329) 
single protein format

>  <Assay Organism>  (329) 
None

>  <Target ChEMBL ID>  (329) 
CHEMBL3717

>  <Target Name>  (329) 
Hepatocyte growth factor receptor

>  <Target Organism>  (329) 
Homo sapiens

>  <Target Type>  (329) 
SINGLE PROTEIN

>  <Document ChEMBL ID>  (329) 
CHEMBL1961873

>  <Source Description>  (329) 
GSK Published Kinase Inhibitor Set

>  <Document Journal>  (329) 
nan

>  <Document Year>  (329) 
nan

>  <Active>  (329) 
0.0

$$$$

     RDKit          2D

 20 22  0  0  0  0  0  0  0  0999 V2000
    6.0000   -5.1962    0.0000 C   0  0  0  0  0  0  0  0  0  0  0  0
    5.2500   -3.8971    0.0000 O   0  0  0  0  0  0  0  0  0  0  0  0
    3.7500   -3.8971    0.0000 C   0  0  0  0  0  0  0  0  0  0  0  0
    3.0000   -5.1962    0.0000 C   0  0  0  0  0  0  0  0  0  0  0  0
    1.5000   -5.1962    0.0000 C   0  0  0  0  0  0  0  0  0  0  0  0
    0.7500   -3.8971    0.0000 C   0  0  0  0  0  0  0  0  0  0  0  0
    1.5000   -2.5981    0.0000 C   0  0  0  0  0  0  0  0  0  0  0  0
    0.7500   -1.2990    0.0000 C   0  0  0  0  0  0  0  0  0  0  0  0
    1.5000    0.0000    0.0000 C   0  0  0  0  0  0  0  0  0  0  0  0
    0.7500    1.2990    0.0000 C   0  0  0  0  0  0  0  0  0  0  0  0
   -0.7500    1.2990    0.0000 C   0  0  0  0  0  0  0  0  0  0  0  0
   -1.2135    2.7256    0.0000 C   0  0  0  0  0  0  0  0  0  0  0  0
   -2.6401    3.1891    0.0000 N   0  0  0  0  0  0  0  0  0  0  0  0
   -0.0000    3.6073    0.0000 N   0  0  0  0  0  0  0  0  0  0  0  0
    1.2135    2.7256    0.0000 N   0  0  0  0  0  0  0  0  0  0  0  0
    2.6401    3.1891    0.0000 C   0  0  0  0  0  0  0  0  0  0  0  0
   -1.5000    0.0000    0.0000 C   0  0  0  0  0  0  0  0  0  0  0  0
   -3.0000    0.0000    0.0000 O   0  0  0  0  0  0  0  0  0  0  0  0
   -0.7500   -1.2990    0.0000 N   0  0  0  0  0  0  0  0  0  0  0  0
    3.0000   -2.5981    0.0000 C   0  0  0  0  0  0  0  0  0  0  0  0
  1  2  1  0
  2  3  1  0
  3  4  2  0
  4  5  1  0
  5  6  2  0
  6  7  1  0
  7  8  1  0
  8  9  2  0
  9 10  1  0
 10 11  2  0
 11 12  1  0
 12 13  1  0
 12 14  2  0
 14 15  1  0
 15 16  1  0
 11 17  1  0
 17 18  2  0
 17 19  1  0
  7 20  2  0
 20  3  1  0
 19  8  1  0
 15 10  1  0
M  END
>  <Compound_ID>  (330) 
CHEMBL1813624

>  <Molecule Name>  (330) 
nan

>  <Molecular Weight>  (330) 
270.29

>  <AlogP>  (330) 
1.52

>  <Smiles>  (330) 
COc1cccc(-c2cc3c(c(N)nn3C)c(=O)[nH]2)c1

>  <Standard Type>  (330) 
Inhibition

>  <Standard Relation>  (330) 
'='

>  <Standard Units>  (330) 
%

>  <Standard Value>  (330) 
0.0

>  <Assay ChEMBL ID>  (330) 
CHEMBL1815730

>  <Assay Description>  (330) 
Inhibition of MET at 30 uM by microfluidic mobility shift assay

>  <BAO Format ID>  (330) 
BAO_0000357

>  <BAO Label>  (330) 
single protein format

>  <Assay Organism>  (330) 
None

>  <Target ChEMBL ID>  (330) 
CHEMBL3717

>  <Target Name>  (330) 
Hepatocyte growth factor receptor

>  <Target Organism>  (330) 
Homo sapiens

>  <Target Type>  (330) 
SINGLE PROTEIN

>  <Document ChEMBL ID>  (330) 
CHEMBL1811853

>  <Source Description>  (330) 
Scientific Literature

>  <Document Journal>  (330) 
Bioorg Med Chem

>  <Document Year>  (330) 
2011.0

>  <Active>  (330) 
0.0

$$$$

     RDKit          2D

 22 24  0  0  0  0  0  0  0  0999 V2000
    3.0000    0.0000    0.0000 C   0  0  0  0  0  0  0  0  0  0  0  0
    1.5000    0.0000    0.0000 C   0  0  0  0  0  0  0  0  0  0  0  0
    0.7500   -1.2990    0.0000 C   0  0  0  0  0  0  0  0  0  0  0  0
   -0.7500   -1.2990    0.0000 C   0  0  0  0  0  0  0  0  0  0  0  0
   -1.5000    0.0000    0.0000 C   0  0  0  0  0  0  0  0  0  0  0  0
   -2.9672   -0.3119    0.0000 C   0  0  0  0  0  0  0  0  0  0  0  0
   -4.0819    0.6918    0.0000 N   0  0  0  0  0  0  0  0  0  0  0  0
   -5.5085    0.2283    0.0000 C   0  0  0  0  0  0  0  0  0  0  0  0
   -5.8204   -1.2389    0.0000 O   0  0  0  0  0  0  0  0  0  0  0  0
   -6.6232    1.2320    0.0000 N   0  0  0  0  0  0  0  0  0  0  0  0
   -8.0498    0.7685    0.0000 C   0  0  0  0  0  0  0  0  0  0  0  0
   -9.1645    1.7722    0.0000 C   0  0  0  0  0  0  0  0  0  0  0  0
  -10.5911    1.3086    0.0000 C   0  0  0  0  0  0  0  0  0  0  0  0
  -10.9030   -0.1586    0.0000 C   0  0  0  0  0  0  0  0  0  0  0  0
   -9.7883   -1.1623    0.0000 C   0  0  0  0  0  0  0  0  0  0  0  0
   -8.3617   -0.6987    0.0000 C   0  0  0  0  0  0  0  0  0  0  0  0
   -3.1240   -1.8037    0.0000 N   0  0  0  0  0  0  0  0  0  0  0  0
   -1.7537   -2.4138    0.0000 N   0  0  0  0  0  0  0  0  0  0  0  0
   -1.4418   -3.8810    0.0000 C   0  0  0  0  0  0  0  0  0  0  0  0
   -0.7500    1.2990    0.0000 C   0  0  0  0  0  0  0  0  0  0  0  0
   -1.5000    2.5981    0.0000 O   0  0  0  0  0  0  0  0  0  0  0  0
    0.7500    1.2990    0.0000 N   0  0  0  0  0  0  0  0  0  0  0  0
  1  2  1  0
  2  3  2  0
  3  4  1  0
  4  5  2  0
  5  6  1  0
  6  7  1  0
  7  8  1  0
  8  9  2  0
  8 10  1  0
 10 11  1  0
 11 12  2  0
 12 13  1  0
 13 14  2  0
 14 15  1  0
 15 16  2  0
  6 17  2  0
 17 18  1  0
 18 19  1  0
  5 20  1  0
 20 21  2  0
 20 22  1  0
 22  2  1  0
 18  4  1  0
 16 11  1  0
M  END
>  <Compound_ID>  (331) 
CHEMBL1813630

>  <Molecule Name>  (331) 
nan

>  <Molecular Weight>  (331) 
297.32

>  <AlogP>  (331) 
2.21

>  <Smiles>  (331) 
Cc1cc2c(c(NC(=O)Nc3ccccc3)nn2C)c(=O)[nH]1

>  <Standard Type>  (331) 
Inhibition

>  <Standard Relation>  (331) 
'='

>  <Standard Units>  (331) 
%

>  <Standard Value>  (331) 
13.0

>  <Assay ChEMBL ID>  (331) 
CHEMBL1815730

>  <Assay Description>  (331) 
Inhibition of MET at 30 uM by microfluidic mobility shift assay

>  <BAO Format ID>  (331) 
BAO_0000357

>  <BAO Label>  (331) 
single protein format

>  <Assay Organism>  (331) 
None

>  <Target ChEMBL ID>  (331) 
CHEMBL3717

>  <Target Name>  (331) 
Hepatocyte growth factor receptor

>  <Target Organism>  (331) 
Homo sapiens

>  <Target Type>  (331) 
SINGLE PROTEIN

>  <Document ChEMBL ID>  (331) 
CHEMBL1811853

>  <Source Description>  (331) 
Scientific Literature

>  <Document Journal>  (331) 
Bioorg Med Chem

>  <Document Year>  (331) 
2011.0

>  <Active>  (331) 
0.0

$$$$

     RDKit          2D

 11 12  0  0  0  0  0  0  0  0999 V2000
   -0.0967    5.1517    0.0000 C   0  0  0  0  0  0  0  0  0  0  0  0
   -0.4086    3.6844    0.0000 C   0  0  0  0  0  0  0  0  0  0  0  0
    0.7062    2.6807    0.0000 C   0  0  0  0  0  0  0  0  0  0  0  0
    0.3943    1.2135    0.0000 C   0  0  0  0  0  0  0  0  0  0  0  0
    1.2760    0.0000    0.0000 N   0  0  0  0  0  0  0  0  0  0  0  0
    0.3943   -1.2135    0.0000 N   0  0  0  0  0  0  0  0  0  0  0  0
   -1.0323   -0.7500    0.0000 C   0  0  0  0  0  0  0  0  0  0  0  0
   -1.0323    0.7500    0.0000 C   0  0  0  0  0  0  0  0  0  0  0  0
   -2.1470    1.7537    0.0000 C   0  0  0  0  0  0  0  0  0  0  0  0
   -3.5736    1.2902    0.0000 O   0  0  0  0  0  0  0  0  0  0  0  0
   -1.8351    3.2209    0.0000 N   0  0  0  0  0  0  0  0  0  0  0  0
  1  2  1  0
  2  3  2  0
  3  4  1  0
  4  5  1  0
  5  6  1  0
  6  7  2  0
  7  8  1  0
  8  9  1  0
  9 10  2  0
  9 11  1  0
 11  2  1  0
  8  4  2  0
M  END
>  <Compound_ID>  (332) 
CHEMBL1813804

>  <Molecule Name>  (332) 
nan

>  <Molecular Weight>  (332) 
149.15

>  <AlogP>  (332) 
0.56

>  <Smiles>  (332) 
Cc1cc2[nH]ncc2c(=O)[nH]1

>  <Standard Type>  (332) 
Inhibition

>  <Standard Relation>  (332) 
'='

>  <Standard Units>  (332) 
%

>  <Standard Value>  (332) 
-2.0

>  <Assay ChEMBL ID>  (332) 
CHEMBL1815730

>  <Assay Description>  (332) 
Inhibition of MET at 30 uM by microfluidic mobility shift assay

>  <BAO Format ID>  (332) 
BAO_0000357

>  <BAO Label>  (332) 
single protein format

>  <Assay Organism>  (332) 
None

>  <Target ChEMBL ID>  (332) 
CHEMBL3717

>  <Target Name>  (332) 
Hepatocyte growth factor receptor

>  <Target Organism>  (332) 
Homo sapiens

>  <Target Type>  (332) 
SINGLE PROTEIN

>  <Document ChEMBL ID>  (332) 
CHEMBL1811853

>  <Source Description>  (332) 
Scientific Literature

>  <Document Journal>  (332) 
Bioorg Med Chem

>  <Document Year>  (332) 
2011.0

>  <Active>  (332) 
0.0

$$$$

     RDKit          2D

 29 32  0  0  0  0  0  0  0  0999 V2000
    3.0000    0.0000    0.0000 C   0  0  0  0  0  0  0  0  0  0  0  0
    1.5000    0.0000    0.0000 C   0  0  0  0  0  0  0  0  0  0  0  0
    0.7500   -1.2990    0.0000 C   0  0  0  0  0  0  0  0  0  0  0  0
   -0.7500   -1.2990    0.0000 C   0  0  0  0  0  0  0  0  0  0  0  0
   -1.5000    0.0000    0.0000 C   0  0  0  0  0  0  0  0  0  0  0  0
   -3.0000    0.0000    0.0000 C   0  0  0  0  0  0  0  0  0  0  0  0
   -3.7500   -1.2990    0.0000 O   0  0  0  0  0  0  0  0  0  0  0  0
   -3.7500    1.2990    0.0000 N   0  0  0  0  0  0  0  0  0  0  0  0
   -5.2500    1.2990    0.0000 C   0  0  0  0  0  0  0  0  0  0  0  0
   -6.0000    2.5981    0.0000 C   0  0  0  0  0  0  0  0  0  0  0  0
   -7.5000    2.5981    0.0000 C   0  0  0  0  0  0  0  0  0  0  0  0
   -8.2500    1.2990    0.0000 C   0  0  0  0  0  0  0  0  0  0  0  0
   -7.5000    0.0000    0.0000 C   0  0  0  0  0  0  0  0  0  0  0  0
   -6.0000    0.0000    0.0000 C   0  0  0  0  0  0  0  0  0  0  0  0
   -0.7500    1.2990    0.0000 C   0  0  0  0  0  0  0  0  0  0  0  0
    0.7500    1.2990    0.0000 C   0  0  0  0  0  0  0  0  0  0  0  0
    1.5000    2.5981    0.0000 C   0  0  0  0  0  0  0  0  0  0  0  0
    3.0000    2.5981    0.0000 C   0  0  0  0  0  0  0  0  0  0  0  0
    3.7500    3.8971    0.0000 C   0  0  0  0  0  0  0  0  0  0  0  0
    3.0000    5.1962    0.0000 C   0  0  0  0  0  0  0  0  0  0  0  0
    3.7500    6.4952    0.0000 C   0  0  0  0  0  0  0  0  0  0  0  0
    3.0000    7.7942    0.0000 O   0  0  0  0  0  0  0  0  0  0  0  0
    5.2500    6.4952    0.0000 N   0  0  0  0  0  0  0  0  0  0  0  0
    6.0000    7.7942    0.0000 C   0  0  0  0  0  0  0  0  0  0  0  0
    7.5000    7.7942    0.0000 C   0  0  0  0  0  0  0  0  0  0  0  0
    8.7990    8.5442    0.0000 C   0  0  0  0  0  0  0  0  0  0  0  0
    8.7990    7.0442    0.0000 C   0  0  0  0  0  0  0  0  0  0  0  0
    1.5000    5.1962    0.0000 C   0  0  0  0  0  0  0  0  0  0  0  0
    0.7500    3.8971    0.0000 C   0  0  0  0  0  0  0  0  0  0  0  0
  1  2  1  0
  2  3  2  0
  3  4  1  0
  4  5  2  0
  5  6  1  0
  6  7  2  0
  6  8  1  0
  8  9  1  0
  9 10  1  0
 10 11  1  0
 11 12  1  0
 12 13  1  0
 13 14  1  0
  5 15  1  0
 15 16  2  0
 16 17  1  0
 17 18  2  0
 18 19  1  0
 19 20  2  0
 20 21  1  0
 21 22  2  0
 21 23  1  0
 23 24  1  0
 24 25  1  0
 25 26  1  0
 26 27  1  0
 20 28  1  0
 28 29  2  0
 16  2  1  0
 29 17  1  0
 14  9  1  0
 27 25  1  0
M  END
>  <Compound_ID>  (333) 
CHEMBL477978

>  <Molecule Name>  (333) 
GW782907X

>  <Molecular Weight>  (333) 
390.53

>  <AlogP>  (333) 
4.86

>  <Smiles>  (333) 
Cc1ccc(C(=O)NC2CCCCC2)cc1-c1ccc(C(=O)NCC2CC2)cc1

>  <Standard Type>  (333) 
Inhibition

>  <Standard Relation>  (333) 
'='

>  <Standard Units>  (333) 
%

>  <Standard Value>  (333) 
4.53

>  <Assay ChEMBL ID>  (333) 
CHEMBL1962142

>  <Assay Description>  (333) 
GSK_PKIS: MET mean inhibition at 0.1 uM [Nanosyn]

>  <BAO Format ID>  (333) 
BAO_0000357

>  <BAO Label>  (333) 
single protein format

>  <Assay Organism>  (333) 
None

>  <Target ChEMBL ID>  (333) 
CHEMBL3717

>  <Target Name>  (333) 
Hepatocyte growth factor receptor

>  <Target Organism>  (333) 
Homo sapiens

>  <Target Type>  (333) 
SINGLE PROTEIN

>  <Document ChEMBL ID>  (333) 
CHEMBL1961873

>  <Source Description>  (333) 
GSK Published Kinase Inhibitor Set

>  <Document Journal>  (333) 
nan

>  <Document Year>  (333) 
nan

>  <Active>  (333) 
0.0

$$$$

     RDKit          2D

 31 35  0  0  0  0  0  0  0  0999 V2000
    3.0000   -5.1962    0.0000 C   0  0  0  0  0  0  0  0  0  0  0  0
    1.5000   -5.1962    0.0000 O   0  0  0  0  0  0  0  0  0  0  0  0
    0.7500   -3.8971    0.0000 C   0  0  0  0  0  0  0  0  0  0  0  0
    1.5000   -2.5981    0.0000 C   0  0  0  0  0  0  0  0  0  0  0  0
    0.7500   -1.2990    0.0000 C   0  0  0  0  0  0  0  0  0  0  0  0
    1.5000    0.0000    0.0000 N   0  0  0  0  0  0  0  0  0  0  0  0
    0.7500    1.2990    0.0000 C   0  0  0  0  0  0  0  0  0  0  0  0
   -0.7500    1.2990    0.0000 N   0  0  0  0  0  0  0  0  0  0  0  0
   -1.5000    0.0000    0.0000 C   0  0  0  0  0  0  0  0  0  0  0  0
   -3.0000    0.0000    0.0000 N   0  0  0  0  0  0  0  0  0  0  0  0
   -3.7500    1.2990    0.0000 C   0  0  0  0  0  0  0  0  0  0  0  0
   -3.0000    2.5981    0.0000 C   0  0  0  0  0  0  0  0  0  0  0  0
   -3.7500    3.8971    0.0000 C   0  0  0  0  0  0  0  0  0  0  0  0
   -5.2500    3.8971    0.0000 C   0  0  0  0  0  0  0  0  0  0  0  0
   -6.0000    2.5981    0.0000 C   0  0  0  0  0  0  0  0  0  0  0  0
   -7.4672    2.9099    0.0000 C   0  0  0  0  0  0  0  0  0  0  0  0
   -7.6240    4.4017    0.0000 N   0  0  0  0  0  0  0  0  0  0  0  0
   -6.2537    5.0118    0.0000 N   0  0  0  0  0  0  0  0  0  0  0  0
   -5.9418    6.4791    0.0000 C   0  0  0  0  0  0  0  0  0  0  0  0
   -7.0565    7.4827    0.0000 C   0  0  0  0  0  0  0  0  0  0  0  0
   -6.7447    8.9500    0.0000 C   0  0  0  0  0  0  0  0  0  0  0  0
   -7.8594    9.9537    0.0000 C   0  0  0  0  0  0  0  0  0  0  0  0
   -9.2860    9.4901    0.0000 C   0  0  0  0  0  0  0  0  0  0  0  0
   -9.5978    8.0229    0.0000 C   0  0  0  0  0  0  0  0  0  0  0  0
   -8.4831    7.0192    0.0000 C   0  0  0  0  0  0  0  0  0  0  0  0
   -5.2500    1.2990    0.0000 C   0  0  0  0  0  0  0  0  0  0  0  0
   -0.7500   -1.2990    0.0000 C   0  0  0  0  0  0  0  0  0  0  0  0
   -1.5000   -2.5981    0.0000 C   0  0  0  0  0  0  0  0  0  0  0  0
   -0.7500   -3.8971    0.0000 C   0  0  0  0  0  0  0  0  0  0  0  0
   -1.5000   -5.1962    0.0000 O   0  0  0  0  0  0  0  0  0  0  0  0
   -3.0000   -5.1962    0.0000 C   0  0  0  0  0  0  0  0  0  0  0  0
  1  2  1  0
  2  3  1  0
  3  4  2  0
  4  5  1  0
  5  6  2  0
  6  7  1  0
  7  8  2  0
  8  9  1  0
  9 10  1  0
 10 11  1  0
 11 12  2  0
 12 13  1  0
 13 14  2  0
 14 15  1  0
 15 16  1  0
 16 17  2  0
 17 18  1  0
 18 19  1  0
 19 20  1  0
 20 21  2  0
 21 22  1  0
 22 23  2  0
 23 24  1  0
 24 25  2  0
 15 26  2  0
  9 27  2  0
 27 28  1  0
 28 29  2  0
 29 30  1  0
 30 31  1  0
 29  3  1  0
 27  5  1  0
 26 11  1  0
 18 14  1  0
 25 20  1  0
M  END
>  <Compound_ID>  (334) 
CHEMBL1909380

>  <Molecule Name>  (334) 
GW282449A

>  <Molecular Weight>  (334) 
447.93

>  <AlogP>  (334) 
4.79

>  <Smiles>  (334) 
COc1cc2ncnc(Nc3ccc4c(cnn4Cc4ccccc4)c3)c2cc1OC

>  <Standard Type>  (334) 
Inhibition

>  <Standard Relation>  (334) 
'='

>  <Standard Units>  (334) 
%

>  <Standard Value>  (334) 
4.07

>  <Assay ChEMBL ID>  (334) 
CHEMBL1962143

>  <Assay Description>  (334) 
GSK_PKIS: MET mean inhibition at 1 uM [Nanosyn]

>  <BAO Format ID>  (334) 
BAO_0000357

>  <BAO Label>  (334) 
single protein format

>  <Assay Organism>  (334) 
None

>  <Target ChEMBL ID>  (334) 
CHEMBL3717

>  <Target Name>  (334) 
Hepatocyte growth factor receptor

>  <Target Organism>  (334) 
Homo sapiens

>  <Target Type>  (334) 
SINGLE PROTEIN

>  <Document ChEMBL ID>  (334) 
CHEMBL1961873

>  <Source Description>  (334) 
GSK Published Kinase Inhibitor Set

>  <Document Journal>  (334) 
nan

>  <Document Year>  (334) 
nan

>  <Active>  (334) 
0.0

$$$$

     RDKit          2D

 26 30  0  0  0  0  0  0  0  0999 V2000
    3.0000   -5.1962    0.0000 C   0  0  0  0  0  0  0  0  0  0  0  0
    1.5000   -5.1962    0.0000 C   0  0  0  0  0  0  0  0  0  0  0  0
    0.7500   -3.8971    0.0000 C   0  0  0  0  0  0  0  0  0  0  0  0
    1.5000   -2.5981    0.0000 C   0  0  0  0  0  0  0  0  0  0  0  0
    0.7500   -1.2990    0.0000 C   0  0  0  0  0  0  0  0  0  0  0  0
    1.5000    0.0000    0.0000 C   0  0  0  0  0  0  0  0  0  0  0  0
    0.7500    1.2990    0.0000 C   0  0  0  0  0  0  0  0  0  0  0  0
   -0.7500    1.2990    0.0000 C   0  0  0  0  0  0  0  0  0  0  0  0
    0.0000    2.5981    0.0000 C   0  0  0  0  0  0  0  0  0  0  0  0
   -0.7500    3.8971    0.0000 C   0  0  0  0  0  0  0  0  0  0  0  0
   -2.2500    3.8971    0.0000 N   0  0  0  0  0  0  0  0  0  0  0  0
   -3.0000    5.1962    0.0000 C   0  0  0  0  0  0  0  0  0  0  0  0
   -4.5000    5.1962    0.0000 N   0  0  0  0  0  0  0  0  0  0  0  0
   -5.2500    6.4952    0.0000 C   0  0  0  0  0  0  0  0  0  0  0  0
   -4.5000    7.7942    0.0000 N   0  0  0  0  0  0  0  0  0  0  0  0
   -3.0000    7.7942    0.0000 C   0  0  0  0  0  0  0  0  0  0  0  0
   -1.9963    8.9089    0.0000 N   0  0  0  0  0  0  0  0  0  0  0  0
   -0.6260    8.2988    0.0000 C   0  0  0  0  0  0  0  0  0  0  0  0
   -0.7828    6.8071    0.0000 N   0  0  0  0  0  0  0  0  0  0  0  0
   -2.2500    6.4952    0.0000 C   0  0  0  0  0  0  0  0  0  0  0  0
   -3.0000    2.5981    0.0000 C   0  0  0  0  0  0  0  0  0  0  0  0
   -2.2500    1.2990    0.0000 C   0  0  0  0  0  0  0  0  0  0  0  0
   -1.5000    0.0000    0.0000 N   0  0  0  0  0  0  0  0  0  0  0  0
   -0.7500   -1.2990    0.0000 C   0  0  0  0  0  0  0  0  0  0  0  0
    3.0000   -2.5981    0.0000 C   0  0  0  0  0  0  0  0  0  0  0  0
    3.7500   -3.8971    0.0000 C   0  0  0  0  0  0  0  0  0  0  0  0
  1  2  2  0
  2  3  1  0
  3  4  2  0
  4  5  1  0
  5  6  1  0
  6  7  1  0
  7  8  1  0
  8  9  1  0
  9 10  1  0
 10 11  1  0
 11 12  1  0
 12 13  2  0
 13 14  1  0
 14 15  2  0
 15 16  1  0
 16 17  1  0
 17 18  1  0
 18 19  2  0
 19 20  1  0
 11 21  1  0
 21 22  1  0
  8 23  1  0
 23 24  1  0
  4 25  1  0
 25 26  2  0
 26  1  1  0
 24  5  1  0
 22  8  1  0
 20 12  1  0
 20 16  2  0
M  END
>  <Compound_ID>  (335) 
CHEMBL2420902

>  <Molecule Name>  (335) 
nan

>  <Molecular Weight>  (335) 
348.45

>  <AlogP>  (335) 
2.86

>  <Smiles>  (335) 
c1ccc(C2CCC3(CCN(c4ncnc5[nH]cnc45)CC3)NC2)cc1

>  <Standard Type>  (335) 
Inhibition

>  <Standard Relation>  (335) 
'='

>  <Standard Units>  (335) 
%

>  <Standard Value>  (335) 
9.0

>  <Assay ChEMBL ID>  (335) 
CHEMBL2424318

>  <Assay Description>  (335) 
Inhibition of MET (unknown origin) at 30 uM by microfluidic mobility shift assay relative to control

>  <BAO Format ID>  (335) 
BAO_0000357

>  <BAO Label>  (335) 
single protein format

>  <Assay Organism>  (335) 
Homo sapiens

>  <Target ChEMBL ID>  (335) 
CHEMBL3717

>  <Target Name>  (335) 
Hepatocyte growth factor receptor

>  <Target Organism>  (335) 
Homo sapiens

>  <Target Type>  (335) 
SINGLE PROTEIN

>  <Document ChEMBL ID>  (335) 
CHEMBL2417369

>  <Source Description>  (335) 
Scientific Literature

>  <Document Journal>  (335) 
Bioorg Med Chem

>  <Document Year>  (335) 
2013.0

>  <Active>  (335) 
0.0

$$$$

     RDKit          2D

 28 31  0  0  0  0  0  0  0  0999 V2000
    7.5000   -7.7942    0.0000 C   0  0  0  0  0  0  0  0  0  0  0  0
    8.2500   -6.4952    0.0000 O   0  0  0  0  0  0  0  0  0  0  0  0
    7.5000   -5.1962    0.0000 C   0  0  0  0  0  0  0  0  0  0  0  0
    6.0000   -5.1962    0.0000 C   0  0  0  0  0  0  0  0  0  0  0  0
    5.2500   -3.8971    0.0000 C   0  0  0  0  0  0  0  0  0  0  0  0
    3.7500   -3.8971    0.0000 C   0  0  0  0  0  0  0  0  0  0  0  0
    3.0000   -2.5981    0.0000 N   0  0  0  0  0  0  0  0  0  0  0  0
    1.5000   -2.5981    0.0000 N   0  0  0  0  0  0  0  0  0  0  0  0
    0.7500   -1.2990    0.0000 C   0  0  0  0  0  0  0  0  0  0  0  0
    1.5000    0.0000    0.0000 N   0  0  0  0  0  0  0  0  0  0  0  0
    0.7500    1.2990    0.0000 C   0  0  0  0  0  0  0  0  0  0  0  0
   -0.7500    1.2990    0.0000 N   0  0  0  0  0  0  0  0  0  0  0  0
   -1.5000    0.0000    0.0000 C   0  0  0  0  0  0  0  0  0  0  0  0
   -0.7500   -1.2990    0.0000 C   0  0  0  0  0  0  0  0  0  0  0  0
   -1.7537   -2.4138    0.0000 C   0  0  0  0  0  0  0  0  0  0  0  0
   -3.1240   -1.8037    0.0000 N   0  0  0  0  0  0  0  0  0  0  0  0
   -2.9672   -0.3119    0.0000 N   0  0  0  0  0  0  0  0  0  0  0  0
   -4.0819    0.6918    0.0000 C   0  0  0  0  0  0  0  0  0  0  0  0
   -5.5085    0.2283    0.0000 C   0  0  0  0  0  0  0  0  0  0  0  0
   -6.6232    1.2320    0.0000 C   0  0  0  0  0  0  0  0  0  0  0  0
   -8.0498    0.7685    0.0000 C   0  0  0  0  0  0  0  0  0  0  0  0
   -8.3617   -0.6987    0.0000 C   0  0  0  0  0  0  0  0  0  0  0  0
   -7.2470   -1.7024    0.0000 C   0  0  0  0  0  0  0  0  0  0  0  0
   -5.8204   -1.2389    0.0000 C   0  0  0  0  0  0  0  0  0  0  0  0
    6.0000   -2.5981    0.0000 C   0  0  0  0  0  0  0  0  0  0  0  0
    7.5000   -2.5981    0.0000 C   0  0  0  0  0  0  0  0  0  0  0  0
    8.2500   -3.8971    0.0000 C   0  0  0  0  0  0  0  0  0  0  0  0
    9.7500   -3.8971    0.0000 O   0  0  0  0  0  0  0  0  0  0  0  0
  1  2  1  0
  2  3  1  0
  3  4  2  0
  4  5  1  0
  5  6  1  0
  6  7  2  3
  7  8  1  0
  8  9  1  0
  9 10  2  0
 10 11  1  0
 11 12  2  0
 12 13  1  0
 13 14  2  0
 14 15  1  0
 15 16  2  0
 16 17  1  0
 17 18  1  0
 18 19  1  0
 19 20  2  0
 20 21  1  0
 21 22  2  0
 22 23  1  0
 23 24  2  0
  5 25  2  0
 25 26  1  0
 26 27  2  0
 27 28  1  0
 27  3  1  0
 14  9  1  0
 24 19  1  0
 17 13  1  0
M  END
>  <Compound_ID>  (336) 
CHEMBL1789962

>  <Molecule Name>  (336) 
GW643971X

>  <Molecular Weight>  (336) 
374.40

>  <AlogP>  (336) 
3.03

>  <Smiles>  (336) 
COc1cc(C=NNc2ncnc3c2cnn3Cc2ccccc2)ccc1O

>  <Standard Type>  (336) 
Inhibition

>  <Standard Relation>  (336) 
'='

>  <Standard Units>  (336) 
%

>  <Standard Value>  (336) 
7.19

>  <Assay ChEMBL ID>  (336) 
CHEMBL1962143

>  <Assay Description>  (336) 
GSK_PKIS: MET mean inhibition at 1 uM [Nanosyn]

>  <BAO Format ID>  (336) 
BAO_0000357

>  <BAO Label>  (336) 
single protein format

>  <Assay Organism>  (336) 
None

>  <Target ChEMBL ID>  (336) 
CHEMBL3717

>  <Target Name>  (336) 
Hepatocyte growth factor receptor

>  <Target Organism>  (336) 
Homo sapiens

>  <Target Type>  (336) 
SINGLE PROTEIN

>  <Document ChEMBL ID>  (336) 
CHEMBL1961873

>  <Source Description>  (336) 
GSK Published Kinase Inhibitor Set

>  <Document Journal>  (336) 
nan

>  <Document Year>  (336) 
nan

>  <Active>  (336) 
0.0

$$$$

     RDKit          2D

 20 23  0  0  0  0  0  0  0  0999 V2000
    3.0000   -7.7942    0.0000 C   0  0  0  0  0  0  0  0  0  0  0  0
    2.2500   -6.4952    0.0000 N   0  0  0  0  0  0  0  0  0  0  0  0
    3.0000   -5.1962    0.0000 C   0  0  0  0  0  0  0  0  0  0  0  0
    2.2500   -3.8971    0.0000 N   0  0  0  0  0  0  0  0  0  0  0  0
    3.0000   -2.5981    0.0000 C   0  0  0  0  0  0  0  0  0  0  0  0
    2.2500   -1.2990    0.0000 C   0  0  0  0  0  0  0  0  0  0  0  0
    0.7500   -1.2990    0.0000 C   0  0  0  0  0  0  0  0  0  0  0  0
    1.5000    0.0000    0.0000 C   0  0  0  0  0  0  0  0  0  0  0  0
    0.7500    1.2990    0.0000 C   0  0  0  0  0  0  0  0  0  0  0  0
   -0.7500    1.2990    0.0000 C   0  0  0  0  0  0  0  0  0  0  0  0
   -1.5000    0.0000    0.0000 C   0  0  0  0  0  0  0  0  0  0  0  0
   -0.7500   -1.2990    0.0000 O   0  0  0  0  0  0  0  0  0  0  0  0
   -0.0000   -2.5981    0.0000 C   0  0  0  0  0  0  0  0  0  0  0  0
    0.7500   -3.8971    0.0000 C   0  0  0  0  0  0  0  0  0  0  0  0
    4.5000   -5.1962    0.0000 C   0  0  0  0  0  0  0  0  0  0  0  0
    5.5037   -4.0814    0.0000 N   0  0  0  0  0  0  0  0  0  0  0  0
    6.8740   -4.6915    0.0000 C   0  0  0  0  0  0  0  0  0  0  0  0
    6.7172   -6.1833    0.0000 N   0  0  0  0  0  0  0  0  0  0  0  0
    5.2500   -6.4952    0.0000 C   0  0  0  0  0  0  0  0  0  0  0  0
    4.5000   -7.7942    0.0000 N   0  0  0  0  0  0  0  0  0  0  0  0
  1  2  2  0
  2  3  1  0
  3  4  1  0
  4  5  1  0
  5  6  1  0
  6  7  1  0
  7  8  1  0
  8  9  1  0
  9 10  1  0
 10 11  1  0
 11 12  1  0
  7 13  1  0
 13 14  1  0
  3 15  2  0
 15 16  1  0
 16 17  2  0
 17 18  1  0
 18 19  1  0
 19 20  2  0
 20  1  1  0
 14  4  1  0
 19 15  1  0
 12  7  1  0
M  END
>  <Compound_ID>  (337) 
CHEMBL2420925

>  <Molecule Name>  (337) 
nan

>  <Molecular Weight>  (337) 
273.34

>  <AlogP>  (337) 
1.89

>  <Smiles>  (337) 
c1nc(N2CCC3(CCCCO3)CC2)c2nc[nH]c2n1

>  <Standard Type>  (337) 
Inhibition

>  <Standard Relation>  (337) 
'='

>  <Standard Units>  (337) 
%

>  <Standard Value>  (337) 
5.0

>  <Assay ChEMBL ID>  (337) 
CHEMBL2424318

>  <Assay Description>  (337) 
Inhibition of MET (unknown origin) at 30 uM by microfluidic mobility shift assay relative to control

>  <BAO Format ID>  (337) 
BAO_0000357

>  <BAO Label>  (337) 
single protein format

>  <Assay Organism>  (337) 
Homo sapiens

>  <Target ChEMBL ID>  (337) 
CHEMBL3717

>  <Target Name>  (337) 
Hepatocyte growth factor receptor

>  <Target Organism>  (337) 
Homo sapiens

>  <Target Type>  (337) 
SINGLE PROTEIN

>  <Document ChEMBL ID>  (337) 
CHEMBL2417369

>  <Source Description>  (337) 
Scientific Literature

>  <Document Journal>  (337) 
Bioorg Med Chem

>  <Document Year>  (337) 
2013.0

>  <Active>  (337) 
0.0

$$$$

     RDKit          2D

 28 32  0  0  0  0  0  0  0  0999 V2000
   -1.9091   14.2602    0.0000 O   0  0  0  0  0  0  0  0  0  0  0  0
   -2.7908   13.0467    0.0000 C   0  0  0  0  0  0  0  0  0  0  0  0
   -2.1807   11.6764    0.0000 C   0  0  0  0  0  0  0  0  0  0  0  0
   -0.6889   11.5196    0.0000 C   0  0  0  0  0  0  0  0  0  0  0  0
   -0.0788   10.1493    0.0000 C   0  0  0  0  0  0  0  0  0  0  0  0
   -0.9605    8.9357    0.0000 C   0  0  0  0  0  0  0  0  0  0  0  0
   -0.3504    7.5654    0.0000 C   0  0  0  0  0  0  0  0  0  0  0  0
    1.1168    7.2536    0.0000 N   0  0  0  0  0  0  0  0  0  0  0  0
    1.2736    5.7618    0.0000 C   0  0  0  0  0  0  0  0  0  0  0  0
    2.5727    5.0118    0.0000 C   0  0  0  0  0  0  0  0  0  0  0  0
    2.5727    3.5118    0.0000 C   0  0  0  0  0  0  0  0  0  0  0  0
    3.8717    2.7618    0.0000 C   0  0  0  0  0  0  0  0  0  0  0  0
    5.1707    3.5118    0.0000 C   0  0  0  0  0  0  0  0  0  0  0  0
    5.1707    5.0118    0.0000 C   0  0  0  0  0  0  0  0  0  0  0  0
    3.8717    5.7618    0.0000 N   0  0  0  0  0  0  0  0  0  0  0  0
   -0.0967    5.1517    0.0000 C   0  0  0  0  0  0  0  0  0  0  0  0
   -0.4086    3.6844    0.0000 C   0  0  0  0  0  0  0  0  0  0  0  0
   -1.8351    3.2209    0.0000 C   0  0  0  0  0  0  0  0  0  0  0  0
   -2.1470    1.7537    0.0000 C   0  0  0  0  0  0  0  0  0  0  0  0
   -1.0323    0.7500    0.0000 C   0  0  0  0  0  0  0  0  0  0  0  0
    0.3943    1.2135    0.0000 C   0  0  0  0  0  0  0  0  0  0  0  0
    0.7062    2.6807    0.0000 C   0  0  0  0  0  0  0  0  0  0  0  0
    1.2760    0.0000    0.0000 O   0  0  0  0  0  0  0  0  0  0  0  0
    0.3943   -1.2135    0.0000 C   0  0  0  0  0  0  0  0  0  0  0  0
   -1.0323   -0.7500    0.0000 O   0  0  0  0  0  0  0  0  0  0  0  0
   -1.1004    6.2664    0.0000 N   0  0  0  0  0  0  0  0  0  0  0  0
   -2.4523    9.0925    0.0000 C   0  0  0  0  0  0  0  0  0  0  0  0
   -3.0624   10.4628    0.0000 C   0  0  0  0  0  0  0  0  0  0  0  0
  1  2  1  0
  2  3  1  0
  3  4  2  0
  4  5  1  0
  5  6  2  0
  6  7  1  0
  7  8  2  0
  8  9  1  0
  9 10  1  0
 10 11  2  0
 11 12  1  0
 12 13  2  0
 13 14  1  0
 14 15  2  0
  9 16  2  0
 16 17  1  0
 17 18  2  0
 18 19  1  0
 19 20  2  0
 20 21  1  0
 21 22  2  0
 21 23  1  0
 23 24  1  0
 24 25  1  0
 16 26  1  0
  6 27  1  0
 27 28  2  0
 28  3  1  0
 26  7  1  0
 15 10  1  0
 22 17  1  0
 25 20  1  0
M  END
>  <Compound_ID>  (338) 
CHEMBL267228

>  <Molecule Name>  (338) 
nan

>  <Molecular Weight>  (338) 
371.40

>  <AlogP>  (338) 
4.03

>  <Smiles>  (338) 
OCc1ccc(-c2nc(-c3ccccn3)c(-c3ccc4c(c3)OCO4)[nH]2)cc1

>  <Standard Type>  (338) 
Inhibition

>  <Standard Relation>  (338) 
'='

>  <Standard Units>  (338) 
%

>  <Standard Value>  (338) 
11.67

>  <Assay ChEMBL ID>  (338) 
CHEMBL1962142

>  <Assay Description>  (338) 
GSK_PKIS: MET mean inhibition at 0.1 uM [Nanosyn]

>  <BAO Format ID>  (338) 
BAO_0000357

>  <BAO Label>  (338) 
single protein format

>  <Assay Organism>  (338) 
None

>  <Target ChEMBL ID>  (338) 
CHEMBL3717

>  <Target Name>  (338) 
Hepatocyte growth factor receptor

>  <Target Organism>  (338) 
Homo sapiens

>  <Target Type>  (338) 
SINGLE PROTEIN

>  <Document ChEMBL ID>  (338) 
CHEMBL1961873

>  <Source Description>  (338) 
GSK Published Kinase Inhibitor Set

>  <Document Journal>  (338) 
nan

>  <Document Year>  (338) 
nan

>  <Active>  (338) 
0.0

$$$$

     RDKit          2D

 19 22  0  0  0  0  0  0  0  0999 V2000
    3.7156    7.2317    0.0000 C   0  0  0  0  0  0  0  0  0  0  0  0
    3.2521    5.8051    0.0000 N   0  0  0  0  0  0  0  0  0  0  0  0
    1.7849    5.4933    0.0000 C   0  0  0  0  0  0  0  0  0  0  0  0
    1.3213    4.0667    0.0000 N   0  0  0  0  0  0  0  0  0  0  0  0
   -0.1459    3.7548    0.0000 C   0  0  0  0  0  0  0  0  0  0  0  0
   -0.6094    2.3282    0.0000 C   0  0  0  0  0  0  0  0  0  0  0  0
    0.3943    1.2135    0.0000 C   0  0  0  0  0  0  0  0  0  0  0  0
    1.2760    0.0000    0.0000 C   0  0  0  0  0  0  0  0  0  0  0  0
    0.3943   -1.2135    0.0000 C   0  0  0  0  0  0  0  0  0  0  0  0
   -1.0323   -0.7500    0.0000 C   0  0  0  0  0  0  0  0  0  0  0  0
   -1.0323    0.7500    0.0000 N   0  0  0  0  0  0  0  0  0  0  0  0
    1.8615    1.5254    0.0000 C   0  0  0  0  0  0  0  0  0  0  0  0
    2.3250    2.9520    0.0000 C   0  0  0  0  0  0  0  0  0  0  0  0
    0.7812    6.6080    0.0000 C   0  0  0  0  0  0  0  0  0  0  0  0
   -0.7188    6.6080    0.0000 N   0  0  0  0  0  0  0  0  0  0  0  0
   -1.1823    8.0346    0.0000 C   0  0  0  0  0  0  0  0  0  0  0  0
    0.0312    8.9163    0.0000 N   0  0  0  0  0  0  0  0  0  0  0  0
    1.2447    8.0346    0.0000 C   0  0  0  0  0  0  0  0  0  0  0  0
    2.7119    8.3464    0.0000 N   0  0  0  0  0  0  0  0  0  0  0  0
  1  2  2  0
  2  3  1  0
  3  4  1  0
  4  5  1  0
  5  6  1  0
  6  7  1  0
  7  8  1  0
  8  9  1  0
  9 10  1  0
 10 11  1  0
  7 12  1  0
 12 13  1  0
  3 14  2  0
 14 15  1  0
 15 16  2  0
 16 17  1  0
 17 18  1  0
 18 19  2  0
 19  1  1  0
 13  4  1  0
 18 14  1  0
 11  7  1  0
M  END
>  <Compound_ID>  (339) 
CHEMBL2420910

>  <Molecule Name>  (339) 
nan

>  <Molecular Weight>  (339) 
258.33

>  <AlogP>  (339) 
1.08

>  <Smiles>  (339) 
c1nc(N2CCC3(CCCN3)CC2)c2nc[nH]c2n1

>  <Standard Type>  (339) 
Inhibition

>  <Standard Relation>  (339) 
'='

>  <Standard Units>  (339) 
%

>  <Standard Value>  (339) 
10.0

>  <Assay ChEMBL ID>  (339) 
CHEMBL2424318

>  <Assay Description>  (339) 
Inhibition of MET (unknown origin) at 30 uM by microfluidic mobility shift assay relative to control

>  <BAO Format ID>  (339) 
BAO_0000357

>  <BAO Label>  (339) 
single protein format

>  <Assay Organism>  (339) 
Homo sapiens

>  <Target ChEMBL ID>  (339) 
CHEMBL3717

>  <Target Name>  (339) 
Hepatocyte growth factor receptor

>  <Target Organism>  (339) 
Homo sapiens

>  <Target Type>  (339) 
SINGLE PROTEIN

>  <Document ChEMBL ID>  (339) 
CHEMBL2417369

>  <Source Description>  (339) 
Scientific Literature

>  <Document Journal>  (339) 
Bioorg Med Chem

>  <Document Year>  (339) 
2013.0

>  <Active>  (339) 
0.0

$$$$

     RDKit          2D

 22 25  0  0  0  0  0  0  0  0999 V2000
   -4.6883    2.2939    0.0000 C   0  0  0  0  0  0  0  0  0  0  0  0
   -4.3764    3.7611    0.0000 C   0  0  0  0  0  0  0  0  0  0  0  0
   -5.4912    4.7648    0.0000 C   0  0  0  0  0  0  0  0  0  0  0  0
   -5.1793    6.2320    0.0000 C   0  0  0  0  0  0  0  0  0  0  0  0
   -3.7527    6.6955    0.0000 C   0  0  0  0  0  0  0  0  0  0  0  0
   -3.4408    8.1628    0.0000 C   0  0  0  0  0  0  0  0  0  0  0  0
   -4.5556    9.1664    0.0000 O   0  0  0  0  0  0  0  0  0  0  0  0
   -2.0143    8.6263    0.0000 N   0  0  0  0  0  0  0  0  0  0  0  0
   -1.7024   10.0935    0.0000 C   0  0  0  0  0  0  0  0  0  0  0  0
   -2.1659   11.5201    0.0000 C   0  0  0  0  0  0  0  0  0  0  0  0
   -0.6987   11.2082    0.0000 C   0  0  0  0  0  0  0  0  0  0  0  0
   -2.6380    5.6918    0.0000 C   0  0  0  0  0  0  0  0  0  0  0  0
   -2.9499    4.2246    0.0000 C   0  0  0  0  0  0  0  0  0  0  0  0
   -1.8351    3.2209    0.0000 C   0  0  0  0  0  0  0  0  0  0  0  0
   -0.4086    3.6844    0.0000 C   0  0  0  0  0  0  0  0  0  0  0  0
    0.7062    2.6807    0.0000 C   0  0  0  0  0  0  0  0  0  0  0  0
    0.3943    1.2135    0.0000 C   0  0  0  0  0  0  0  0  0  0  0  0
    1.2760    0.0000    0.0000 N   0  0  0  0  0  0  0  0  0  0  0  0
    0.3943   -1.2135    0.0000 N   0  0  0  0  0  0  0  0  0  0  0  0
   -1.0323   -0.7500    0.0000 C   0  0  0  0  0  0  0  0  0  0  0  0
   -1.0323    0.7500    0.0000 C   0  0  0  0  0  0  0  0  0  0  0  0
   -2.1470    1.7537    0.0000 C   0  0  0  0  0  0  0  0  0  0  0  0
  1  2  1  0
  2  3  2  0
  3  4  1  0
  4  5  2  0
  5  6  1  0
  6  7  2  0
  6  8  1  0
  8  9  1  0
  9 10  1  0
 10 11  1  0
  5 12  1  0
 12 13  2  0
 13 14  1  0
 14 15  2  0
 15 16  1  0
 16 17  2  0
 17 18  1  0
 18 19  1  0
 19 20  2  0
 20 21  1  0
 21 22  2  0
 13  2  1  0
 22 14  1  0
 11  9  1  0
 21 17  1  0
M  END
>  <Compound_ID>  (340) 
CHEMBL495902

>  <Molecule Name>  (340) 
GW820759X

>  <Molecular Weight>  (340) 
291.35

>  <AlogP>  (340) 
3.43

>  <Smiles>  (340) 
Cc1ccc(C(=O)NC2CC2)cc1-c1ccc2[nH]ncc2c1

>  <Standard Type>  (340) 
Inhibition

>  <Standard Relation>  (340) 
'='

>  <Standard Units>  (340) 
%

>  <Standard Value>  (340) 
-1.74

>  <Assay ChEMBL ID>  (340) 
CHEMBL1962143

>  <Assay Description>  (340) 
GSK_PKIS: MET mean inhibition at 1 uM [Nanosyn]

>  <BAO Format ID>  (340) 
BAO_0000357

>  <BAO Label>  (340) 
single protein format

>  <Assay Organism>  (340) 
None

>  <Target ChEMBL ID>  (340) 
CHEMBL3717

>  <Target Name>  (340) 
Hepatocyte growth factor receptor

>  <Target Organism>  (340) 
Homo sapiens

>  <Target Type>  (340) 
SINGLE PROTEIN

>  <Document ChEMBL ID>  (340) 
CHEMBL1961873

>  <Source Description>  (340) 
GSK Published Kinase Inhibitor Set

>  <Document Journal>  (340) 
nan

>  <Document Year>  (340) 
nan

>  <Active>  (340) 
0.0

$$$$

     RDKit          2D

 24 27  0  0  0  0  0  0  0  0999 V2000
    5.2500   -1.2990    0.0000 C   0  0  0  0  0  0  0  0  0  0  0  0
    3.7500   -1.2990    0.0000 O   0  0  0  0  0  0  0  0  0  0  0  0
    3.0000    0.0000    0.0000 C   0  0  0  0  0  0  0  0  0  0  0  0
    3.7500    1.2990    0.0000 O   0  0  0  0  0  0  0  0  0  0  0  0
    1.5000    0.0000    0.0000 C   0  0  0  0  0  0  0  0  0  0  0  0
    0.7500   -1.2990    0.0000 C   0  0  0  0  0  0  0  0  0  0  0  0
   -0.7500   -1.2990    0.0000 C   0  0  0  0  0  0  0  0  0  0  0  0
   -1.5000    0.0000    0.0000 C   0  0  0  0  0  0  0  0  0  0  0  0
   -2.2500    1.2990    0.0000 C   0  0  0  0  0  0  0  0  0  0  0  0
   -3.7500    1.2990    0.0000 C   0  0  0  0  0  0  0  0  0  0  0  0
   -4.5000   -0.0000    0.0000 N   0  0  0  0  0  0  0  0  0  0  0  0
   -6.0000   -0.0000    0.0000 C   0  0  0  0  0  0  0  0  0  0  0  0
   -6.7500   -1.2990    0.0000 N   0  0  0  0  0  0  0  0  0  0  0  0
   -8.2500   -1.2990    0.0000 C   0  0  0  0  0  0  0  0  0  0  0  0
   -9.0000   -0.0000    0.0000 N   0  0  0  0  0  0  0  0  0  0  0  0
   -8.2500    1.2990    0.0000 C   0  0  0  0  0  0  0  0  0  0  0  0
   -8.7135    2.7256    0.0000 N   0  0  0  0  0  0  0  0  0  0  0  0
   -7.5000    3.6073    0.0000 C   0  0  0  0  0  0  0  0  0  0  0  0
   -6.2865    2.7256    0.0000 N   0  0  0  0  0  0  0  0  0  0  0  0
   -6.7500    1.2990    0.0000 C   0  0  0  0  0  0  0  0  0  0  0  0
   -3.7500   -1.2990    0.0000 C   0  0  0  0  0  0  0  0  0  0  0  0
   -2.2500   -1.2990    0.0000 C   0  0  0  0  0  0  0  0  0  0  0  0
   -0.7500    1.2990    0.0000 N   0  0  0  0  0  0  0  0  0  0  0  0
    0.7500    1.2990    0.0000 C   0  0  0  0  0  0  0  0  0  0  0  0
  1  2  1  0
  2  3  1  0
  3  4  2  0
  3  5  1  0
  5  6  1  0
  6  7  1  0
  7  8  1  0
  8  9  1  0
  9 10  1  0
 10 11  1  0
 11 12  1  0
 12 13  2  0
 13 14  1  0
 14 15  2  0
 15 16  1  0
 16 17  1  0
 17 18  1  0
 18 19  2  0
 19 20  1  0
 11 21  1  0
 21 22  1  0
  8 23  1  0
 23 24  1  0
 24  5  1  0
 22  8  1  0
 20 12  1  0
 20 16  2  0
M  END
>  <Compound_ID>  (341) 
CHEMBL2420903

>  <Molecule Name>  (341) 
nan

>  <Molecular Weight>  (341) 
330.39

>  <AlogP>  (341) 
0.86

>  <Smiles>  (341) 
COC(=O)C1CCC2(CCN(c3ncnc4[nH]cnc34)CC2)NC1

>  <Standard Type>  (341) 
Inhibition

>  <Standard Relation>  (341) 
'='

>  <Standard Units>  (341) 
%

>  <Standard Value>  (341) 
11.0

>  <Assay ChEMBL ID>  (341) 
CHEMBL2424318

>  <Assay Description>  (341) 
Inhibition of MET (unknown origin) at 30 uM by microfluidic mobility shift assay relative to control

>  <BAO Format ID>  (341) 
BAO_0000357

>  <BAO Label>  (341) 
single protein format

>  <Assay Organism>  (341) 
Homo sapiens

>  <Target ChEMBL ID>  (341) 
CHEMBL3717

>  <Target Name>  (341) 
Hepatocyte growth factor receptor

>  <Target Organism>  (341) 
Homo sapiens

>  <Target Type>  (341) 
SINGLE PROTEIN

>  <Document ChEMBL ID>  (341) 
CHEMBL2417369

>  <Source Description>  (341) 
Scientific Literature

>  <Document Journal>  (341) 
Bioorg Med Chem

>  <Document Year>  (341) 
2013.0

>  <Active>  (341) 
0.0

$$$$

     RDKit          2D

 32 35  0  0  0  0  0  0  0  0999 V2000
    3.0000   -7.7942    0.0000 C   0  0  0  0  0  0  0  0  0  0  0  0
    3.7500   -6.4952    0.0000 C   0  0  0  0  0  0  0  0  0  0  0  0
    5.2500   -6.4952    0.0000 O   0  0  0  0  0  0  0  0  0  0  0  0
    3.0000   -5.1962    0.0000 N   0  0  0  0  0  0  0  0  0  0  0  0
    1.5000   -5.1962    0.0000 C   0  0  0  0  0  0  0  0  0  0  0  0
    0.7500   -3.8971    0.0000 C   0  0  0  0  0  0  0  0  0  0  0  0
    1.5000   -2.5981    0.0000 N   0  0  0  0  0  0  0  0  0  0  0  0
    0.7500   -1.2990    0.0000 C   0  0  0  0  0  0  0  0  0  0  0  0
    1.5000    0.0000    0.0000 C   0  0  0  0  0  0  0  0  0  0  0  0
    0.7500    1.2990    0.0000 N   0  0  0  0  0  0  0  0  0  0  0  0
   -0.7500    1.2990    0.0000 C   0  0  0  0  0  0  0  0  0  0  0  0
   -1.5000    2.5981    0.0000 C   0  0  0  0  0  0  0  0  0  0  0  0
   -3.0000    2.5981    0.0000 C   0  0  0  0  0  0  0  0  0  0  0  0
   -3.7500    1.2990    0.0000 C   0  0  0  0  0  0  0  0  0  0  0  0
   -3.0000    0.0000    0.0000 C   0  0  0  0  0  0  0  0  0  0  0  0
   -3.7500   -1.2990    0.0000 N   0  0  0  0  0  0  0  0  0  0  0  0
   -5.2500   -1.2990    0.0000 C   0  0  0  0  0  0  0  0  0  0  0  0
   -6.0000    0.0000    0.0000 S   0  0  0  0  0  0  0  0  0  0  0  0
   -6.0000   -2.5981    0.0000 N   0  0  0  0  0  0  0  0  0  0  0  0
   -7.5000   -2.5981    0.0000 C   0  0  0  0  0  0  0  0  0  0  0  0
   -8.2500   -1.2990    0.0000 C   0  0  0  0  0  0  0  0  0  0  0  0
   -9.7500   -1.2990    0.0000 C   0  0  0  0  0  0  0  0  0  0  0  0
  -10.5000   -2.5981    0.0000 C   0  0  0  0  0  0  0  0  0  0  0  0
   -9.7500   -3.8971    0.0000 C   0  0  0  0  0  0  0  0  0  0  0  0
  -10.5000   -5.1962    0.0000 N   0  0  0  0  0  4  0  0  0  0  0  0
   -9.7500   -6.4952    0.0000 O   0  0  0  0  0  0  0  0  0  0  0  0
  -12.0000   -5.1962    0.0000 O   0  0  0  0  0  1  0  0  0  0  0  0
   -8.2500   -3.8971    0.0000 C   0  0  0  0  0  0  0  0  0  0  0  0
   -1.5000    0.0000    0.0000 C   0  0  0  0  0  0  0  0  0  0  0  0
   -0.7500   -1.2990    0.0000 C   0  0  0  0  0  0  0  0  0  0  0  0
    3.0000   -2.5981    0.0000 C   0  0  0  0  0  0  0  0  0  0  0  0
    3.7500   -3.8971    0.0000 C   0  0  0  0  0  0  0  0  0  0  0  0
  1  2  1  0
  2  3  2  0
  2  4  1  0
  4  5  1  0
  5  6  1  0
  6  7  1  0
  7  8  1  0
  8  9  2  0
  9 10  1  0
 10 11  2  0
 11 12  1  0
 12 13  2  0
 13 14  1  0
 14 15  2  0
 15 16  1  0
 16 17  1  0
 17 18  2  0
 17 19  1  0
 19 20  1  0
 20 21  2  0
 21 22  1  0
 22 23  2  0
 23 24  1  0
 24 25  1  0
 25 26  2  0
 25 27  1  0
 24 28  2  0
 15 29  1  0
 29 30  2  0
  7 31  1  0
 31 32  1  0
 32  4  1  0
 30  8  1  0
 29 11  1  0
 28 20  1  0
M  CHG  2  25   1  27  -1
M  END
>  <Compound_ID>  (342) 
CHEMBL1766521

>  <Molecule Name>  (342) 
nan

>  <Molecular Weight>  (342) 
450.52

>  <AlogP>  (342) 
3.62

>  <Smiles>  (342) 
CC(=O)N1CCN(c2cnc3cccc(NC(=S)Nc4cccc([N+](=O)[O-])c4)c3c2)CC1

>  <Standard Type>  (342) 
Inhibition

>  <Standard Relation>  (342) 
'='

>  <Standard Units>  (342) 
%

>  <Standard Value>  (342) 
13.9

>  <Assay ChEMBL ID>  (342) 
CHEMBL1768669

>  <Assay Description>  (342) 
Inhibition of purified recombinant c-Met at 10 uM after 60 mins by ELISA

>  <BAO Format ID>  (342) 
BAO_0000357

>  <BAO Label>  (342) 
single protein format

>  <Assay Organism>  (342) 
None

>  <Target ChEMBL ID>  (342) 
CHEMBL3717

>  <Target Name>  (342) 
Hepatocyte growth factor receptor

>  <Target Organism>  (342) 
Homo sapiens

>  <Target Type>  (342) 
SINGLE PROTEIN

>  <Document ChEMBL ID>  (342) 
CHEMBL1765011

>  <Source Description>  (342) 
Scientific Literature

>  <Document Journal>  (342) 
J Med Chem

>  <Document Year>  (342) 
2011.0

>  <Active>  (342) 
0.0

$$$$

     RDKit          2D

 21 24  0  0  0  0  0  0  0  0999 V2000
    3.0000    0.0000    0.0000 O   0  0  0  0  0  0  0  0  0  0  0  0
    1.5000    0.0000    0.0000 C   0  0  0  0  0  0  0  0  0  0  0  0
    0.7500   -1.2990    0.0000 C   0  0  0  0  0  0  0  0  0  0  0  0
   -0.7500   -1.2990    0.0000 C   0  0  0  0  0  0  0  0  0  0  0  0
   -1.5000    0.0000    0.0000 N   0  0  0  0  0  0  0  0  0  0  0  0
   -0.7500    1.2990    0.0000 C   0  0  0  0  0  0  0  0  0  0  0  0
    0.0000    2.5981    0.0000 C   0  0  0  0  0  0  0  0  0  0  0  0
   -0.7500    3.8971    0.0000 C   0  0  0  0  0  0  0  0  0  0  0  0
   -2.2500    3.8971    0.0000 N   0  0  0  0  0  0  0  0  0  0  0  0
   -3.0000    5.1962    0.0000 C   0  0  0  0  0  0  0  0  0  0  0  0
   -2.2500    6.4952    0.0000 N   0  0  0  0  0  0  0  0  0  0  0  0
   -3.0000    7.7942    0.0000 C   0  0  0  0  0  0  0  0  0  0  0  0
   -4.5000    7.7942    0.0000 N   0  0  0  0  0  0  0  0  0  0  0  0
   -5.2500    6.4952    0.0000 C   0  0  0  0  0  0  0  0  0  0  0  0
   -6.7172    6.1833    0.0000 N   0  0  0  0  0  0  0  0  0  0  0  0
   -6.8740    4.6915    0.0000 C   0  0  0  0  0  0  0  0  0  0  0  0
   -5.5037    4.0814    0.0000 N   0  0  0  0  0  0  0  0  0  0  0  0
   -4.5000    5.1962    0.0000 C   0  0  0  0  0  0  0  0  0  0  0  0
   -3.0000    2.5981    0.0000 C   0  0  0  0  0  0  0  0  0  0  0  0
   -2.2500    1.2990    0.0000 C   0  0  0  0  0  0  0  0  0  0  0  0
    0.7500    1.2990    0.0000 C   0  0  0  0  0  0  0  0  0  0  0  0
  1  2  1  0
  2  3  1  0
  3  4  1  0
  4  5  1  0
  5  6  1  0
  6  7  1  0
  7  8  1  0
  8  9  1  0
  9 10  1  0
 10 11  2  0
 11 12  1  0
 12 13  2  0
 13 14  1  0
 14 15  1  0
 15 16  1  0
 16 17  2  0
 17 18  1  0
  9 19  1  0
 19 20  1  0
  6 21  1  0
 21  2  1  0
 20  6  1  0
 18 10  1  0
 18 14  2  0
M  END
>  <Compound_ID>  (343) 
CHEMBL2420897

>  <Molecule Name>  (343) 
nan

>  <Molecular Weight>  (343) 
288.36

>  <AlogP>  (343) 
0.44

>  <Smiles>  (343) 
OC1CCNC2(CCN(c3ncnc4[nH]cnc34)CC2)C1

>  <Standard Type>  (343) 
Inhibition

>  <Standard Relation>  (343) 
'='

>  <Standard Units>  (343) 
%

>  <Standard Value>  (343) 
17.0

>  <Assay ChEMBL ID>  (343) 
CHEMBL2424318

>  <Assay Description>  (343) 
Inhibition of MET (unknown origin) at 30 uM by microfluidic mobility shift assay relative to control

>  <BAO Format ID>  (343) 
BAO_0000357

>  <BAO Label>  (343) 
single protein format

>  <Assay Organism>  (343) 
Homo sapiens

>  <Target ChEMBL ID>  (343) 
CHEMBL3717

>  <Target Name>  (343) 
Hepatocyte growth factor receptor

>  <Target Organism>  (343) 
Homo sapiens

>  <Target Type>  (343) 
SINGLE PROTEIN

>  <Document ChEMBL ID>  (343) 
CHEMBL2417369

>  <Source Description>  (343) 
Scientific Literature

>  <Document Journal>  (343) 
Bioorg Med Chem

>  <Document Year>  (343) 
2013.0

>  <Active>  (343) 
0.0

$$$$

     RDKit          2D

 39 43  0  0  0  0  0  0  0  0999 V2000
   -8.2322   -0.7949    0.0000 C   0  0  0  0  0  0  0  0  0  0  0  0
   -6.8056   -1.2584    0.0000 C   0  0  0  0  0  0  0  0  0  0  0  0
   -6.4937   -2.7256    0.0000 O   0  0  0  0  0  0  0  0  0  0  0  0
   -5.0672   -3.1891    0.0000 C   0  0  0  0  0  0  0  0  0  0  0  0
   -3.8536   -2.3075    0.0000 C   0  0  0  0  0  0  0  0  0  0  0  0
   -2.6401   -3.1891    0.0000 C   0  0  0  0  0  0  0  0  0  0  0  0
   -1.2135   -2.7256    0.0000 N   0  0  0  0  0  0  0  0  0  0  0  0
   -0.0000   -3.6073    0.0000 C   0  0  0  0  0  0  0  0  0  0  0  0
    1.2135   -2.7256    0.0000 N   0  0  0  0  0  0  0  0  0  0  0  0
    0.7500   -1.2990    0.0000 C   0  0  0  0  0  0  0  0  0  0  0  0
    1.5000    0.0000    0.0000 C   0  0  0  0  0  0  0  0  0  0  0  0
    0.7500    1.2990    0.0000 C   0  0  0  0  0  0  0  0  0  0  0  0
   -0.7500    1.2990    0.0000 C   0  0  0  0  0  0  0  0  0  0  0  0
   -1.5000    2.5981    0.0000 O   0  0  0  0  0  0  0  0  0  0  0  0
   -0.7500    3.8971    0.0000 C   0  0  0  0  0  0  0  0  0  0  0  0
   -1.5000    5.1962    0.0000 C   0  0  0  0  0  0  0  0  0  0  0  0
   -0.7500    6.4952    0.0000 C   0  0  0  0  0  0  0  0  0  0  0  0
   -1.5000    7.7942    0.0000 C   0  0  0  0  0  0  0  0  0  0  0  0
   -3.0000    7.7942    0.0000 N   0  0  0  0  0  0  0  0  0  0  0  0
   -3.7500    9.0933    0.0000 C   0  0  0  0  0  0  0  0  0  0  0  0
   -3.7500    6.4952    0.0000 C   0  0  0  0  0  0  0  0  0  0  0  0
   -3.0000    5.1962    0.0000 C   0  0  0  0  0  0  0  0  0  0  0  0
   -1.5000    0.0000    0.0000 C   0  0  0  0  0  0  0  0  0  0  0  0
   -0.7500   -1.2990    0.0000 C   0  0  0  0  0  0  0  0  0  0  0  0
   -3.1036   -4.6157    0.0000 S   0  0  0  0  0  0  0  0  0  0  0  0
   -4.6036   -4.6157    0.0000 C   0  0  0  0  0  0  0  0  0  0  0  0
   -5.4853   -5.8293    0.0000 C   0  0  0  0  0  0  0  0  0  0  0  0
   -4.8752   -7.1996    0.0000 N   0  0  0  0  0  0  0  0  0  0  0  0
   -6.9771   -5.6725    0.0000 O   0  0  0  0  0  0  0  0  0  0  0  0
   -5.6909   -0.2547    0.0000 C   0  0  0  0  0  0  0  0  0  0  0  0
   -4.2643   -0.7182    0.0000 C   0  0  0  0  0  0  0  0  0  0  0  0
   -3.1496    0.2855    0.0000 C   0  0  0  0  0  0  0  0  0  0  0  0
   -3.4615    1.7527    0.0000 C   0  0  0  0  0  0  0  0  0  0  0  0
   -4.8880    2.2162    0.0000 C   0  0  0  0  0  0  0  0  0  0  0  0
   -6.0028    1.2125    0.0000 C   0  0  0  0  0  0  0  0  0  0  0  0
   -7.4293    1.6760    0.0000 C   0  0  0  0  0  0  0  0  0  0  0  0
   -8.8559    2.1396    0.0000 F   0  0  0  0  0  0  0  0  0  0  0  0
   -6.9658    3.1026    0.0000 F   0  0  0  0  0  0  0  0  0  0  0  0
   -7.8929    0.2495    0.0000 F   0  0  0  0  0  0  0  0  0  0  0  0
  2  1  1  6
  2  3  1  0
  3  4  1  0
  4  5  1  0
  5  6  2  0
  6  7  1  0
  7  8  1  0
  8  9  2  0
  9 10  1  0
 10 11  2  0
 11 12  1  0
 12 13  2  0
 13 14  1  0
 14 15  1  0
 15 16  1  0
 16 17  1  0
 17 18  1  0
 18 19  1  0
 19 20  1  0
 19 21  1  0
 21 22  1  0
 13 23  1  0
 23 24  2  0
  6 25  1  0
 25 26  1  0
 26 27  1  0
 27 28  1  0
 27 29  2  0
  2 30  1  0
 30 31  2  0
 31 32  1  0
 32 33  2  0
 33 34  1  0
 34 35  2  0
 35 36  1  0
 36 37  1  0
 36 38  1  0
 36 39  1  0
 26  4  2  0
 35 30  1  0
 24  7  1  0
 24 10  1  0
 22 16  1  0
M  END
>  <Compound_ID>  (344) 
CHEMBL1794068

>  <Molecule Name>  (344) 
GSK-326090A

>  <Molecular Weight>  (344) 
558.63

>  <AlogP>  (344) 
6.07

>  <Smiles>  (344) 
C[C@@H](Oc1cc(-n2cnc3ccc(OCC4CCN(C)CC4)cc32)sc1C(N)=O)c1ccccc1C(F)(F)F

>  <Standard Type>  (344) 
Inhibition

>  <Standard Relation>  (344) 
'='

>  <Standard Units>  (344) 
%

>  <Standard Value>  (344) 
9.84

>  <Assay ChEMBL ID>  (344) 
CHEMBL1962143

>  <Assay Description>  (344) 
GSK_PKIS: MET mean inhibition at 1 uM [Nanosyn]

>  <BAO Format ID>  (344) 
BAO_0000357

>  <BAO Label>  (344) 
single protein format

>  <Assay Organism>  (344) 
None

>  <Target ChEMBL ID>  (344) 
CHEMBL3717

>  <Target Name>  (344) 
Hepatocyte growth factor receptor

>  <Target Organism>  (344) 
Homo sapiens

>  <Target Type>  (344) 
SINGLE PROTEIN

>  <Document ChEMBL ID>  (344) 
CHEMBL1961873

>  <Source Description>  (344) 
GSK Published Kinase Inhibitor Set

>  <Document Journal>  (344) 
nan

>  <Document Year>  (344) 
nan

>  <Active>  (344) 
0.0

$$$$

     RDKit          2D

 24 27  0  0  0  0  0  0  0  0999 V2000
    3.0000    0.0000    0.0000 F   0  0  0  0  0  0  0  0  0  0  0  0
    1.5000    0.0000    0.0000 C   0  0  0  0  0  0  0  0  0  0  0  0
    0.7500   -1.2990    0.0000 C   0  0  0  0  0  0  0  0  0  0  0  0
   -0.7500   -1.2990    0.0000 C   0  0  0  0  0  0  0  0  0  0  0  0
   -1.5000    0.0000    0.0000 C   0  0  0  0  0  0  0  0  0  0  0  0
   -3.0000    0.0000    0.0000 C   0  0  0  0  0  0  0  0  0  0  0  0
   -3.7500    1.2990    0.0000 C   0  0  0  0  0  0  0  0  0  0  0  0
   -5.2500    1.2990    0.0000 C   0  0  0  0  0  0  0  0  0  0  0  0
   -6.0000    2.5981    0.0000 C   0  0  0  0  0  0  0  0  0  0  0  0
   -7.4918    2.7549    0.0000 C   0  0  0  0  0  0  0  0  0  0  0  0
   -7.8037    4.2221    0.0000 N   0  0  0  0  0  0  0  0  0  0  0  0
   -6.5046    4.9721    0.0000 N   0  0  0  0  0  0  0  0  0  0  0  0
   -5.3899    3.9684    0.0000 C   0  0  0  0  0  0  0  0  0  0  0  0
   -3.9227    4.2803    0.0000 C   0  0  0  0  0  0  0  0  0  0  0  0
   -2.9190    3.1655    0.0000 C   0  0  0  0  0  0  0  0  0  0  0  0
   -1.4518    3.4774    0.0000 C   0  0  0  0  0  0  0  0  0  0  0  0
   -0.9882    4.9040    0.0000 C   0  0  0  0  0  0  0  0  0  0  0  0
   -1.9919    6.0187    0.0000 C   0  0  0  0  0  0  0  0  0  0  0  0
   -3.4591    5.7068    0.0000 N   0  0  0  0  0  0  0  0  0  0  0  0
   -6.0000    0.0000    0.0000 C   0  0  0  0  0  0  0  0  0  0  0  0
   -5.2500   -1.2990    0.0000 C   0  0  0  0  0  0  0  0  0  0  0  0
   -3.7500   -1.2990    0.0000 N   0  0  0  0  0  0  0  0  0  0  0  0
   -0.7500    1.2990    0.0000 C   0  0  0  0  0  0  0  0  0  0  0  0
    0.7500    1.2990    0.0000 C   0  0  0  0  0  0  0  0  0  0  0  0
  1  2  1  0
  2  3  2  0
  3  4  1  0
  4  5  2  0
  5  6  1  0
  6  7  2  0
  7  8  1  0
  8  9  1  0
  9 10  2  0
 10 11  1  0
 11 12  1  0
 12 13  2  0
 13 14  1  0
 14 15  2  0
 15 16  1  0
 16 17  2  0
 17 18  1  0
 18 19  2  0
  8 20  2  0
 20 21  1  0
 21 22  2  0
  5 23  1  0
 23 24  2  0
 24  2  1  0
 22  6  1  0
 13  9  1  0
 19 14  1  0
M  END
>  <Compound_ID>  (345) 
CHEMBL381948

>  <Molecule Name>  (345) 
GW680975X

>  <Molecular Weight>  (345) 
316.34

>  <AlogP>  (345) 
4.34

>  <Smiles>  (345) 
Fc1ccc(-c2cc(-c3c[nH]nc3-c3ccccn3)ccn2)cc1

>  <Standard Type>  (345) 
Inhibition

>  <Standard Relation>  (345) 
'='

>  <Standard Units>  (345) 
%

>  <Standard Value>  (345) 
6.72

>  <Assay ChEMBL ID>  (345) 
CHEMBL1962142

>  <Assay Description>  (345) 
GSK_PKIS: MET mean inhibition at 0.1 uM [Nanosyn]

>  <BAO Format ID>  (345) 
BAO_0000357

>  <BAO Label>  (345) 
single protein format

>  <Assay Organism>  (345) 
None

>  <Target ChEMBL ID>  (345) 
CHEMBL3717

>  <Target Name>  (345) 
Hepatocyte growth factor receptor

>  <Target Organism>  (345) 
Homo sapiens

>  <Target Type>  (345) 
SINGLE PROTEIN

>  <Document ChEMBL ID>  (345) 
CHEMBL1961873

>  <Source Description>  (345) 
GSK Published Kinase Inhibitor Set

>  <Document Journal>  (345) 
nan

>  <Document Year>  (345) 
nan

>  <Active>  (345) 
0.0

$$$$

     RDKit          2D

 43 47  0  0  0  0  0  0  0  0999 V2000
   -6.2940    7.2357    0.0000 C   0  0  0  0  0  0  0  0  0  0  0  0
   -5.1793    6.2320    0.0000 O   0  0  0  0  0  0  0  0  0  0  0  0
   -3.7527    6.6955    0.0000 C   0  0  0  0  0  0  0  0  0  0  0  0
   -3.4408    8.1628    0.0000 C   0  0  0  0  0  0  0  0  0  0  0  0
   -2.0143    8.6263    0.0000 C   0  0  0  0  0  0  0  0  0  0  0  0
   -1.7024   10.0935    0.0000 N   0  0  0  0  0  0  0  0  0  0  0  0
   -0.2758   10.5570    0.0000 C   0  0  0  0  0  0  0  0  0  0  0  0
    0.0361   12.0242    0.0000 C   0  0  0  0  0  0  0  0  0  0  0  0
   -1.0786   13.0279    0.0000 N   0  0  0  0  0  0  0  0  0  0  0  0
   -0.7668   14.4952    0.0000 C   0  0  0  0  0  0  0  0  0  0  0  0
    0.6598   14.9587    0.0000 C   0  0  0  0  0  0  0  0  0  0  0  0
   -1.8815   15.4989    0.0000 C   0  0  0  0  0  0  0  0  0  0  0  0
   -2.5052   12.5644    0.0000 C   0  0  0  0  0  0  0  0  0  0  0  0
   -2.8171   11.0972    0.0000 C   0  0  0  0  0  0  0  0  0  0  0  0
   -0.8995    7.6226    0.0000 C   0  0  0  0  0  0  0  0  0  0  0  0
   -1.2114    6.1554    0.0000 C   0  0  0  0  0  0  0  0  0  0  0  0
   -2.6380    5.6918    0.0000 C   0  0  0  0  0  0  0  0  0  0  0  0
   -2.9499    4.2246    0.0000 N   0  0  0  0  0  0  0  0  0  0  0  0
   -1.8351    3.2209    0.0000 C   0  0  0  0  0  0  0  0  0  0  0  0
   -0.4086    3.6844    0.0000 N   0  0  0  0  0  0  0  0  0  0  0  0
    0.7062    2.6807    0.0000 C   0  0  0  0  0  0  0  0  0  0  0  0
    2.1328    3.1443    0.0000 N   0  0  0  0  0  0  0  0  0  0  0  0
    2.4446    4.6115    0.0000 C   0  0  0  0  0  0  0  0  0  0  0  0
    1.3299    5.6152    0.0000 C   0  0  0  0  0  0  0  0  0  0  0  0
    1.6418    7.0824    0.0000 C   0  0  0  0  0  0  0  0  0  0  0  0
    3.0684    7.5459    0.0000 C   0  0  0  0  0  0  0  0  0  0  0  0
    3.3802    9.0132    0.0000 F   0  0  0  0  0  0  0  0  0  0  0  0
    4.1831    6.5422    0.0000 C   0  0  0  0  0  0  0  0  0  0  0  0
    3.8712    5.0750    0.0000 C   0  0  0  0  0  0  0  0  0  0  0  0
    4.9859    4.0713    0.0000 C   0  0  0  0  0  0  0  0  0  0  0  0
    6.4125    4.5348    0.0000 O   0  0  0  0  0  0  0  0  0  0  0  0
    4.6741    2.6041    0.0000 N   0  0  0  0  0  0  0  0  0  0  0  0
    5.7888    1.6004    0.0000 C   0  0  0  0  0  0  0  0  0  0  0  0
    5.4769    0.1332    0.0000 C   0  0  0  0  0  0  0  0  0  0  0  0
    4.0503   -0.3303    0.0000 O   0  0  0  0  0  0  0  0  0  0  0  0
    6.5916   -0.8705    0.0000 C   0  0  0  0  0  0  0  0  0  0  0  0
    6.2798   -2.3377    0.0000 O   0  0  0  0  0  0  0  0  0  0  0  0
    0.3943    1.2135    0.0000 C   0  0  0  0  0  0  0  0  0  0  0  0
    1.2760    0.0000    0.0000 C   0  0  0  0  0  0  0  0  0  0  0  0
    0.3943   -1.2135    0.0000 C   0  0  0  0  0  0  0  0  0  0  0  0
   -1.0323   -0.7500    0.0000 N   0  0  0  0  0  0  0  0  0  0  0  0
   -1.0323    0.7500    0.0000 C   0  0  0  0  0  0  0  0  0  0  0  0
   -2.1470    1.7537    0.0000 N   0  0  0  0  0  0  0  0  0  0  0  0
  1  2  1  0
  2  3  1  0
  3  4  2  0
  4  5  1  0
  5  6  1  0
  6  7  1  0
  7  8  1  0
  8  9  1  0
  9 10  1  0
 10 11  1  0
 10 12  1  0
  9 13  1  0
 13 14  1  0
  5 15  2  0
 15 16  1  0
 16 17  2  0
 17 18  1  0
 18 19  1  0
 19 20  2  0
 20 21  1  0
 21 22  1  0
 22 23  1  0
 23 24  2  0
 24 25  1  0
 25 26  2  0
 26 27  1  0
 26 28  1  0
 28 29  2  0
 29 30  1  0
 30 31  2  0
 30 32  1  0
 32 33  1  0
 33 34  1  0
 34 35  1  6
 34 36  1  0
 36 37  1  0
 21 38  2  0
 38 39  1  0
 39 40  2  0
 40 41  1  0
 41 42  1  0
 42 43  2  0
 17  3  1  0
 43 19  1  0
 14  6  1  0
 29 23  1  0
 42 38  1  0
M  END
>  <Compound_ID>  (346) 
CHEMBL450071

>  <Molecule Name>  (346) 
GSK-1392956A

>  <Molecular Weight>  (346) 
592.68

>  <AlogP>  (346) 
3.21

>  <Smiles>  (346) 
COc1cc(N2CCN(C(C)C)CC2)ccc1Nc1nc(Nc2ccc(F)cc2C(=O)NC[C@@H](O)CO)c2cc[nH]c2n1

>  <Standard Type>  (346) 
Inhibition

>  <Standard Relation>  (346) 
'='

>  <Standard Units>  (346) 
%

>  <Standard Value>  (346) 
-1.77

>  <Assay ChEMBL ID>  (346) 
CHEMBL1962142

>  <Assay Description>  (346) 
GSK_PKIS: MET mean inhibition at 0.1 uM [Nanosyn]

>  <BAO Format ID>  (346) 
BAO_0000357

>  <BAO Label>  (346) 
single protein format

>  <Assay Organism>  (346) 
None

>  <Target ChEMBL ID>  (346) 
CHEMBL3717

>  <Target Name>  (346) 
Hepatocyte growth factor receptor

>  <Target Organism>  (346) 
Homo sapiens

>  <Target Type>  (346) 
SINGLE PROTEIN

>  <Document ChEMBL ID>  (346) 
CHEMBL1961873

>  <Source Description>  (346) 
GSK Published Kinase Inhibitor Set

>  <Document Journal>  (346) 
nan

>  <Document Year>  (346) 
nan

>  <Active>  (346) 
0.0

$$$$

     RDKit          2D

 26 28  0  0  0  0  0  0  0  0999 V2000
    5.2500    1.2990    0.0000 C   0  0  0  0  0  0  0  0  0  0  0  0
    4.5000    0.0000    0.0000 C   0  0  0  0  0  0  0  0  0  0  0  0
    3.0000    0.0000    0.0000 S   0  0  0  0  0  0  0  0  0  0  0  0
    3.0000    1.5000    0.0000 O   0  0  0  0  0  0  0  0  0  0  0  0
    3.0000   -1.5000    0.0000 O   0  0  0  0  0  0  0  0  0  0  0  0
    1.5000    0.0000    0.0000 C   0  0  0  0  0  0  0  0  0  0  0  0
    0.7500   -1.2990    0.0000 C   0  0  0  0  0  0  0  0  0  0  0  0
   -0.7500   -1.2990    0.0000 C   0  0  0  0  0  0  0  0  0  0  0  0
   -1.5000    0.0000    0.0000 C   0  0  0  0  0  0  0  0  0  0  0  0
   -3.0000    0.0000    0.0000 O   0  0  0  0  0  0  0  0  0  0  0  0
   -3.7500   -1.2990    0.0000 C   0  0  0  0  0  0  0  0  0  0  0  0
   -0.7500    1.2990    0.0000 C   0  0  0  0  0  0  0  0  0  0  0  0
   -1.5000    2.5981    0.0000 N   0  0  0  0  0  0  0  0  0  0  0  0
   -0.7500    3.8971    0.0000 C   0  0  0  0  0  0  0  0  0  0  0  0
   -1.3601    5.2674    0.0000 N   0  0  0  0  0  0  0  0  0  0  0  0
   -0.2454    6.2711    0.0000 C   0  0  0  0  0  0  0  0  0  0  0  0
    1.0537    5.5211    0.0000 C   0  0  0  0  0  0  0  0  0  0  0  0
    2.4240    6.1312    0.0000 C   0  0  0  0  0  0  0  0  0  0  0  0
    3.6375    5.2496    0.0000 C   0  0  0  0  0  0  0  0  0  0  0  0
    5.0078    5.8597    0.0000 C   0  0  0  0  0  0  0  0  0  0  0  0
    5.1646    7.3514    0.0000 C   0  0  0  0  0  0  0  0  0  0  0  0
    3.9511    8.2331    0.0000 C   0  0  0  0  0  0  0  0  0  0  0  0
    2.5808    7.6230    0.0000 C   0  0  0  0  0  0  0  0  0  0  0  0
    1.3672    8.5047    0.0000 Cl  0  0  0  0  0  0  0  0  0  0  0  0
    0.7418    4.0539    0.0000 O   0  0  0  0  0  0  0  0  0  0  0  0
    0.7500    1.2990    0.0000 C   0  0  0  0  0  0  0  0  0  0  0  0
  1  2  1  0
  2  3  1  0
  3  4  2  0
  3  5  2  0
  3  6  1  0
  6  7  2  0
  7  8  1  0
  8  9  2  0
  9 10  1  0
 10 11  1  0
  9 12  1  0
 12 13  1  0
 13 14  1  0
 14 15  2  0
 15 16  1  0
 16 17  2  0
 17 18  1  0
 18 19  2  0
 19 20  1  0
 20 21  2  0
 21 22  1  0
 22 23  2  0
 23 24  1  0
 17 25  1  0
 12 26  2  0
 26  6  1  0
 25 14  1  0
 23 18  1  0
M  END
>  <Compound_ID>  (347) 
CHEMBL179453

>  <Molecule Name>  (347) 
GW622055X

>  <Molecular Weight>  (347) 
392.86

>  <AlogP>  (347) 
4.54

>  <Smiles>  (347) 
CCS(=O)(=O)c1ccc(OC)c(Nc2ncc(-c3ccccc3Cl)o2)c1

>  <Standard Type>  (347) 
Inhibition

>  <Standard Relation>  (347) 
'='

>  <Standard Units>  (347) 
%

>  <Standard Value>  (347) 
3.68

>  <Assay ChEMBL ID>  (347) 
CHEMBL1962143

>  <Assay Description>  (347) 
GSK_PKIS: MET mean inhibition at 1 uM [Nanosyn]

>  <BAO Format ID>  (347) 
BAO_0000357

>  <BAO Label>  (347) 
single protein format

>  <Assay Organism>  (347) 
None

>  <Target ChEMBL ID>  (347) 
CHEMBL3717

>  <Target Name>  (347) 
Hepatocyte growth factor receptor

>  <Target Organism>  (347) 
Homo sapiens

>  <Target Type>  (347) 
SINGLE PROTEIN

>  <Document ChEMBL ID>  (347) 
CHEMBL1961873

>  <Source Description>  (347) 
GSK Published Kinase Inhibitor Set

>  <Document Journal>  (347) 
nan

>  <Document Year>  (347) 
nan

>  <Active>  (347) 
0.0

$$$$

     RDKit          2D

 39 44  0  0  0  0  0  0  0  0999 V2000
   -0.4702  -13.1562    0.0000 O   0  0  0  0  0  0  0  0  0  0  0  0
    1.0216  -12.9994    0.0000 C   0  0  0  0  0  0  0  0  0  0  0  0
    1.6317  -11.6291    0.0000 O   0  0  0  0  0  0  0  0  0  0  0  0
    0.7500  -10.4156    0.0000 C   0  0  0  0  0  0  0  0  0  0  0  0
   -0.7500  -10.4156    0.0000 C   0  0  0  0  0  0  0  0  0  0  0  0
   -1.2135   -8.9890    0.0000 N   0  0  0  0  0  0  0  0  0  0  0  0
    0.0000   -8.1073    0.0000 C   0  0  0  0  0  0  0  0  0  0  0  0
   -0.0000   -6.6073    0.0000 C   0  0  0  0  0  0  0  0  0  0  0  0
   -0.0000   -5.1073    0.0000 C   0  0  0  0  0  0  0  0  0  0  0  0
   -0.0000   -3.6073    0.0000 C   0  0  0  0  0  0  0  0  0  0  0  0
    1.2135   -2.7256    0.0000 C   0  0  0  0  0  0  0  0  0  0  0  0
    0.7500   -1.2990    0.0000 C   0  0  0  0  0  0  0  0  0  0  0  0
    1.5000    0.0000    0.0000 N   0  0  0  0  0  0  0  0  0  0  0  0
    0.7500    1.2990    0.0000 C   0  0  0  0  0  0  0  0  0  0  0  0
   -0.7500    1.2990    0.0000 N   0  0  0  0  0  0  0  0  0  0  0  0
   -1.5000    0.0000    0.0000 C   0  0  0  0  0  0  0  0  0  0  0  0
   -3.0000    0.0000    0.0000 N   0  0  0  0  0  0  0  0  0  0  0  0
   -3.7500    1.2990    0.0000 C   0  0  0  0  0  0  0  0  0  0  0  0
   -3.0000    2.5981    0.0000 C   0  0  0  0  0  0  0  0  0  0  0  0
   -3.7500    3.8971    0.0000 C   0  0  0  0  0  0  0  0  0  0  0  0
   -5.2500    3.8971    0.0000 C   0  0  0  0  0  0  0  0  0  0  0  0
   -6.0000    5.1962    0.0000 C   0  0  0  0  0  0  0  0  0  0  0  0
   -5.2500    6.4952    0.0000 C   0  0  0  0  0  0  0  0  0  0  0  0
   -3.7500    6.4952    0.0000 C   0  0  0  0  0  0  0  0  0  0  0  0
   -3.0000    7.7942    0.0000 C   0  0  0  0  0  0  0  0  0  0  0  0
   -3.7500    9.0933    0.0000 C   0  0  0  0  0  0  0  0  0  0  0  0
   -5.2500    9.0933    0.0000 C   0  0  0  0  0  0  0  0  0  0  0  0
   -6.0000    7.7942    0.0000 C   0  0  0  0  0  0  0  0  0  0  0  0
   -6.0000    2.5981    0.0000 C   0  0  0  0  0  0  0  0  0  0  0  0
   -5.2500    1.2990    0.0000 C   0  0  0  0  0  0  0  0  0  0  0  0
   -0.7500   -1.2990    0.0000 C   0  0  0  0  0  0  0  0  0  0  0  0
   -1.2135   -2.7256    0.0000 S   0  0  0  0  0  0  0  0  0  0  0  0
    1.2135   -8.9890    0.0000 C   0  0  0  0  0  0  0  0  0  0  0  0
    1.9033  -14.2129    0.0000 N   0  0  0  0  0  0  0  0  0  0  0  0
    1.2931  -15.5833    0.0000 C   0  0  0  0  0  0  0  0  0  0  0  0
    2.1748  -16.7968    0.0000 C   0  0  0  0  0  0  0  0  0  0  0  0
    3.6666  -16.6400    0.0000 O   0  0  0  0  0  0  0  0  0  0  0  0
    4.2767  -15.2697    0.0000 C   0  0  0  0  0  0  0  0  0  0  0  0
    3.3950  -14.0561    0.0000 C   0  0  0  0  0  0  0  0  0  0  0  0
  1  2  2  0
  2  3  1  0
  4  3  1  1
  4  5  1  0
  5  6  1  0
  6  7  1  0
  7  8  1  6
  8  9  3  0
  9 10  1  0
 10 11  2  0
 11 12  1  0
 12 13  2  0
 13 14  1  0
 14 15  2  0
 15 16  1  0
 16 17  1  0
 17 18  1  0
 18 19  2  0
 19 20  1  0
 20 21  2  0
 21 22  1  0
 22 23  1  0
 23 24  2  0
 24 25  1  0
 25 26  2  0
 26 27  1  0
 27 28  2  0
 21 29  1  0
 29 30  2  0
 16 31  2  0
 31 32  1  0
  7 33  1  0
  2 34  1  0
 34 35  1  0
 35 36  1  0
 36 37  1  0
 37 38  1  0
 38 39  1  0
 33  4  1  0
 39 34  1  0
 32 10  1  0
 31 12  1  0
 30 18  1  0
 28 23  1  0
M  END
>  <Compound_ID>  (348) 
CHEMBL1909409

>  <Molecule Name>  (348) 
GSK-238583A

>  <Molecular Weight>  (348) 
653.68

>  <AlogP>  (348) 
4.58

>  <Smiles>  (348) 
O=C(O[C@H]1CN[C@H](C#Cc2cc3ncnc(Nc4ccc(Cc5ccccc5)cc4)c3s2)C1)N1CCOCC1

>  <Standard Type>  (348) 
Inhibition

>  <Standard Relation>  (348) 
'='

>  <Standard Units>  (348) 
%

>  <Standard Value>  (348) 
4.56

>  <Assay ChEMBL ID>  (348) 
CHEMBL1962143

>  <Assay Description>  (348) 
GSK_PKIS: MET mean inhibition at 1 uM [Nanosyn]

>  <BAO Format ID>  (348) 
BAO_0000357

>  <BAO Label>  (348) 
single protein format

>  <Assay Organism>  (348) 
None

>  <Target ChEMBL ID>  (348) 
CHEMBL3717

>  <Target Name>  (348) 
Hepatocyte growth factor receptor

>  <Target Organism>  (348) 
Homo sapiens

>  <Target Type>  (348) 
SINGLE PROTEIN

>  <Document ChEMBL ID>  (348) 
CHEMBL1961873

>  <Source Description>  (348) 
GSK Published Kinase Inhibitor Set

>  <Document Journal>  (348) 
nan

>  <Document Year>  (348) 
nan

>  <Active>  (348) 
0.0

$$$$

     RDKit          2D

 40 45  0  0  0  0  0  0  0  0999 V2000
   -7.9106   -1.1931    0.0000 C   0  0  0  0  0  0  0  0  0  0  0  0
   -6.4188   -1.3499    0.0000 C   0  0  0  0  0  0  0  0  0  0  0  0
   -5.5371   -0.1364    0.0000 N   0  0  0  0  0  0  0  0  0  0  0  0
   -4.0371   -0.1364    0.0000 C   0  0  0  0  0  0  0  0  0  0  0  0
   -3.5736    1.2902    0.0000 C   0  0  0  0  0  0  0  0  0  0  0  0
   -2.1470    1.7537    0.0000 C   0  0  0  0  0  0  0  0  0  0  0  0
   -1.8351    3.2209    0.0000 C   0  0  0  0  0  0  0  0  0  0  0  0
   -0.4086    3.6844    0.0000 C   0  0  0  0  0  0  0  0  0  0  0  0
    0.7062    2.6807    0.0000 N   0  0  0  0  0  0  0  0  0  0  0  0
    0.3943    1.2135    0.0000 C   0  0  0  0  0  0  0  0  0  0  0  0
    1.2760    0.0000    0.0000 N   0  0  0  0  0  0  0  0  0  0  0  0
    0.3943   -1.2135    0.0000 C   0  0  0  0  0  0  0  0  0  0  0  0
   -1.0323   -0.7500    0.0000 C   0  0  0  0  0  0  0  0  0  0  0  0
   -1.0323    0.7500    0.0000 C   0  0  0  0  0  0  0  0  0  0  0  0
   -4.7871    2.1718    0.0000 C   0  0  0  0  0  0  0  0  0  0  0  0
   -4.7871    3.6718    0.0000 C   0  0  0  0  0  0  0  0  0  0  0  0
   -3.4881    4.4218    0.0000 C   0  0  0  0  0  0  0  0  0  0  0  0
   -3.4881    5.9218    0.0000 C   0  0  0  0  0  0  0  0  0  0  0  0
   -4.7871    6.6718    0.0000 C   0  0  0  0  0  0  0  0  0  0  0  0
   -6.0862    5.9218    0.0000 C   0  0  0  0  0  0  0  0  0  0  0  0
   -7.3852    6.6718    0.0000 N   0  0  0  0  0  0  0  0  0  0  0  0
   -7.3852    8.1718    0.0000 C   0  0  0  0  0  0  0  0  0  0  0  0
   -6.0862    8.9218    0.0000 O   0  0  0  0  0  0  0  0  0  0  0  0
   -8.6842    8.9218    0.0000 N   0  0  0  0  0  0  0  0  0  0  0  0
   -8.6842   10.4218    0.0000 C   0  0  0  0  0  0  0  0  0  0  0  0
   -7.3852   11.1718    0.0000 C   0  0  0  0  0  0  0  0  0  0  0  0
   -7.3852   12.6718    0.0000 C   0  0  0  0  0  0  0  0  0  0  0  0
   -8.6842   13.4218    0.0000 C   0  0  0  0  0  0  0  0  0  0  0  0
   -8.6842   14.9218    0.0000 O   0  0  0  0  0  0  0  0  0  0  0  0
   -7.3852   15.6718    0.0000 C   0  0  0  0  0  0  0  0  0  0  0  0
   -7.3852   17.1718    0.0000 C   0  0  0  0  0  0  0  0  0  0  0  0
   -6.0862   17.9218    0.0000 C   0  0  0  0  0  0  0  0  0  0  0  0
   -6.0862   19.4218    0.0000 C   0  0  0  0  0  0  0  0  0  0  0  0
   -7.3852   20.1718    0.0000 C   0  0  0  0  0  0  0  0  0  0  0  0
   -8.6842   19.4218    0.0000 C   0  0  0  0  0  0  0  0  0  0  0  0
   -8.6842   17.9218    0.0000 C   0  0  0  0  0  0  0  0  0  0  0  0
   -9.9833   12.6718    0.0000 C   0  0  0  0  0  0  0  0  0  0  0  0
   -9.9833   11.1718    0.0000 C   0  0  0  0  0  0  0  0  0  0  0  0
   -6.0862    4.4218    0.0000 C   0  0  0  0  0  0  0  0  0  0  0  0
   -6.0006    1.2902    0.0000 N   0  0  0  0  0  0  0  0  0  0  0  0
  1  2  1  0
  2  3  1  0
  3  4  1  0
  4  5  2  0
  5  6  1  0
  6  7  2  0
  7  8  1  0
  8  9  2  0
  9 10  1  0
 10 11  1  0
 11 12  1  0
 12 13  2  0
 13 14  1  0
  5 15  1  0
 15 16  1  0
 16 17  2  0
 17 18  1  0
 18 19  2  0
 19 20  1  0
 20 21  1  0
 21 22  1  0
 22 23  2  0
 22 24  1  0
 24 25  1  0
 25 26  2  0
 26 27  1  0
 27 28  2  0
 28 29  1  0
 29 30  1  0
 30 31  1  0
 31 32  2  0
 32 33  1  0
 33 34  2  0
 34 35  1  0
 35 36  2  0
 28 37  1  0
 37 38  2  0
 20 39  2  0
 15 40  2  0
 40  3  1  0
 14  6  1  0
 39 16  1  0
 14 10  2  0
 38 25  1  0
 36 31  1  0
M  END
>  <Compound_ID>  (349) 
CHEMBL505187

>  <Molecule Name>  (349) 
GSK-718429A

>  <Molecular Weight>  (349) 
528.62

>  <AlogP>  (349) 
7.34

>  <Smiles>  (349) 
CCn1cc(-c2ccnc3[nH]ccc23)c(-c2cccc(NC(=O)Nc3ccc(OCc4ccccc4)cc3)c2)n1

>  <Standard Type>  (349) 
Inhibition

>  <Standard Relation>  (349) 
'='

>  <Standard Units>  (349) 
%

>  <Standard Value>  (349) 
9.54

>  <Assay ChEMBL ID>  (349) 
CHEMBL1962142

>  <Assay Description>  (349) 
GSK_PKIS: MET mean inhibition at 0.1 uM [Nanosyn]

>  <BAO Format ID>  (349) 
BAO_0000357

>  <BAO Label>  (349) 
single protein format

>  <Assay Organism>  (349) 
None

>  <Target ChEMBL ID>  (349) 
CHEMBL3717

>  <Target Name>  (349) 
Hepatocyte growth factor receptor

>  <Target Organism>  (349) 
Homo sapiens

>  <Target Type>  (349) 
SINGLE PROTEIN

>  <Document ChEMBL ID>  (349) 
CHEMBL1961873

>  <Source Description>  (349) 
GSK Published Kinase Inhibitor Set

>  <Document Journal>  (349) 
nan

>  <Document Year>  (349) 
nan

>  <Active>  (349) 
0.0

$$$$

     RDKit          2D

 22 25  0  0  0  0  0  0  0  0999 V2000
   -3.7701    2.1590    0.0000 C   0  0  0  0  0  0  0  0  0  0  0  0
   -4.0819    0.6918    0.0000 C   0  0  0  0  0  0  0  0  0  0  0  0
   -2.9672   -0.3119    0.0000 N   0  0  0  0  0  0  0  0  0  0  0  0
   -3.1240   -1.8037    0.0000 C   0  0  0  0  0  0  0  0  0  0  0  0
   -4.4231   -2.5537    0.0000 C   0  0  0  0  0  0  0  0  0  0  0  0
   -4.5798   -4.0454    0.0000 N   0  0  0  0  0  0  0  0  0  0  0  0
   -6.0471   -4.3573    0.0000 O   0  0  0  0  0  0  0  0  0  0  0  0
   -6.7971   -3.0583    0.0000 N   0  0  0  0  0  0  0  0  0  0  0  0
   -5.7934   -1.9435    0.0000 C   0  0  0  0  0  0  0  0  0  0  0  0
   -6.1052   -0.4763    0.0000 N   0  0  0  0  0  0  0  0  0  0  0  0
   -1.7537   -2.4138    0.0000 N   0  0  0  0  0  0  0  0  0  0  0  0
   -0.7500   -1.2990    0.0000 C   0  0  0  0  0  0  0  0  0  0  0  0
    0.7500   -1.2990    0.0000 C   0  0  0  0  0  0  0  0  0  0  0  0
    1.5000   -2.5981    0.0000 N   0  0  0  0  0  0  0  0  0  0  0  0
    2.9918   -2.7549    0.0000 C   0  0  0  0  0  0  0  0  0  0  0  0
    3.3037   -4.2221    0.0000 C   0  0  0  0  0  0  0  0  0  0  0  0
    2.0046   -4.9721    0.0000 C   0  0  0  0  0  0  0  0  0  0  0  0
    0.8899   -3.9684    0.0000 C   0  0  0  0  0  0  0  0  0  0  0  0
    1.5000    0.0000    0.0000 N   0  0  0  0  0  0  0  0  0  0  0  0
    0.7500    1.2990    0.0000 C   0  0  0  0  0  0  0  0  0  0  0  0
   -0.7500    1.2990    0.0000 C   0  0  0  0  0  0  0  0  0  0  0  0
   -1.5000    0.0000    0.0000 C   0  0  0  0  0  0  0  0  0  0  0  0
  1  2  1  0
  2  3  1  0
  3  4  1  0
  4  5  1  0
  5  6  2  0
  6  7  1  0
  7  8  1  0
  8  9  2  0
  9 10  1  0
  4 11  2  0
 11 12  1  0
 12 13  2  0
 13 14  1  0
 14 15  1  0
 15 16  1  0
 16 17  1  0
 17 18  1  0
 13 19  1  0
 19 20  2  0
 20 21  1  0
 21 22  2  0
 22  3  1  0
  9  5  1  0
 22 12  1  0
 18 14  1  0
M  END
>  <Compound_ID>  (350) 
CHEMBL187985

>  <Molecule Name>  (350) 
nan

>  <Molecular Weight>  (350) 
299.34

>  <AlogP>  (350) 
1.68

>  <Smiles>  (350) 
CCn1c(-c2nonc2N)nc2c(N3CCCC3)nccc21

>  <Standard Type>  (350) 
Inhibition

>  <Standard Relation>  (350) 
'='

>  <Standard Units>  (350) 
%

>  <Standard Value>  (350) 
-1.91

>  <Assay ChEMBL ID>  (350) 
CHEMBL1962143

>  <Assay Description>  (350) 
GSK_PKIS: MET mean inhibition at 1 uM [Nanosyn]

>  <BAO Format ID>  (350) 
BAO_0000357

>  <BAO Label>  (350) 
single protein format

>  <Assay Organism>  (350) 
None

>  <Target ChEMBL ID>  (350) 
CHEMBL3717

>  <Target Name>  (350) 
Hepatocyte growth factor receptor

>  <Target Organism>  (350) 
Homo sapiens

>  <Target Type>  (350) 
SINGLE PROTEIN

>  <Document ChEMBL ID>  (350) 
CHEMBL1961873

>  <Source Description>  (350) 
GSK Published Kinase Inhibitor Set

>  <Document Journal>  (350) 
nan

>  <Document Year>  (350) 
nan

>  <Active>  (350) 
0.0

$$$$

     RDKit          2D

 26 29  0  0  0  0  0  0  0  0999 V2000
   -9.1645    1.7722    0.0000 C   0  0  0  0  0  0  0  0  0  0  0  0
   -8.0498    0.7685    0.0000 O   0  0  0  0  0  0  0  0  0  0  0  0
   -6.6232    1.2320    0.0000 C   0  0  0  0  0  0  0  0  0  0  0  0
   -6.3114    2.6992    0.0000 C   0  0  0  0  0  0  0  0  0  0  0  0
   -4.8848    3.1627    0.0000 C   0  0  0  0  0  0  0  0  0  0  0  0
   -3.7701    2.1590    0.0000 C   0  0  0  0  0  0  0  0  0  0  0  0
   -4.0819    0.6918    0.0000 C   0  0  0  0  0  0  0  0  0  0  0  0
   -2.9672   -0.3119    0.0000 C   0  0  0  0  0  0  0  0  0  0  0  0
   -3.1240   -1.8037    0.0000 C   0  0  0  0  0  0  0  0  0  0  0  0
   -1.7537   -2.4138    0.0000 N   0  0  0  0  0  0  0  0  0  0  0  0
   -0.7500   -1.2990    0.0000 C   0  0  0  0  0  0  0  0  0  0  0  0
    0.7500   -1.2990    0.0000 C   0  0  0  0  0  0  0  0  0  0  0  0
    1.5000   -2.5981    0.0000 N   0  0  0  0  0  0  0  0  0  0  0  0
    3.0000   -2.5981    0.0000 N   0  0  0  0  0  0  0  0  0  0  0  0
    3.7500   -3.8971    0.0000 C   0  0  0  0  0  0  0  0  0  0  0  0
    5.2500   -3.8971    0.0000 C   0  0  0  0  0  0  0  0  0  0  0  0
    6.0000   -5.1962    0.0000 C   0  0  0  0  0  0  0  0  0  0  0  0
    7.5000   -5.1962    0.0000 C   0  0  0  0  0  0  0  0  0  0  0  0
    8.2500   -3.8971    0.0000 N   0  0  0  0  0  0  0  0  0  0  0  0
    7.5000   -2.5981    0.0000 C   0  0  0  0  0  0  0  0  0  0  0  0
    6.0000   -2.5981    0.0000 C   0  0  0  0  0  0  0  0  0  0  0  0
    1.5000    0.0000    0.0000 N   0  0  0  0  0  0  0  0  0  0  0  0
    0.7500    1.2990    0.0000 C   0  0  0  0  0  0  0  0  0  0  0  0
   -0.7500    1.2990    0.0000 N   0  0  0  0  0  0  0  0  0  0  0  0
   -1.5000    0.0000    0.0000 C   0  0  0  0  0  0  0  0  0  0  0  0
   -5.5085    0.2283    0.0000 C   0  0  0  0  0  0  0  0  0  0  0  0
  1  2  1  0
  2  3  1  0
  3  4  2  0
  4  5  1  0
  5  6  2  0
  6  7  1  0
  7  8  1  0
  8  9  2  0
  9 10  1  0
 10 11  1  0
 11 12  2  0
 12 13  1  0
 13 14  1  0
 14 15  2  0
 15 16  1  0
 16 17  2  0
 17 18  1  0
 18 19  2  0
 19 20  1  0
 20 21  2  0
 12 22  1  0
 22 23  2  0
 23 24  1  0
 24 25  2  0
  7 26  2  0
 26  3  1  0
 25  8  1  0
 25 11  1  0
 21 16  1  0
M  END
>  <Compound_ID>  (351) 
CHEMBL206010

>  <Molecule Name>  (351) 
GW814408X

>  <Molecular Weight>  (351) 
344.38

>  <AlogP>  (351) 
3.47

>  <Smiles>  (351) 
COc1cccc(-c2c[nH]c3c(N/N=C/c4ccncc4)ncnc23)c1

>  <Standard Type>  (351) 
Inhibition

>  <Standard Relation>  (351) 
'='

>  <Standard Units>  (351) 
%

>  <Standard Value>  (351) 
4.89

>  <Assay ChEMBL ID>  (351) 
CHEMBL1962142

>  <Assay Description>  (351) 
GSK_PKIS: MET mean inhibition at 0.1 uM [Nanosyn]

>  <BAO Format ID>  (351) 
BAO_0000357

>  <BAO Label>  (351) 
single protein format

>  <Assay Organism>  (351) 
None

>  <Target ChEMBL ID>  (351) 
CHEMBL3717

>  <Target Name>  (351) 
Hepatocyte growth factor receptor

>  <Target Organism>  (351) 
Homo sapiens

>  <Target Type>  (351) 
SINGLE PROTEIN

>  <Document ChEMBL ID>  (351) 
CHEMBL1961873

>  <Source Description>  (351) 
GSK Published Kinase Inhibitor Set

>  <Document Journal>  (351) 
nan

>  <Document Year>  (351) 
nan

>  <Active>  (351) 
0.0

$$$$

     RDKit          2D

 31 34  0  0  0  0  0  0  0  0999 V2000
    1.3299    5.6152    0.0000 C   0  0  0  0  0  0  0  0  0  0  0  0
   -0.0967    5.1517    0.0000 O   0  0  0  0  0  0  0  0  0  0  0  0
   -0.4086    3.6844    0.0000 C   0  0  0  0  0  0  0  0  0  0  0  0
    0.7062    2.6807    0.0000 C   0  0  0  0  0  0  0  0  0  0  0  0
    0.3943    1.2135    0.0000 C   0  0  0  0  0  0  0  0  0  0  0  0
    1.2760    0.0000    0.0000 N   0  0  0  0  0  0  0  0  0  0  0  0
    0.3943   -1.2135    0.0000 C   0  0  0  0  0  0  0  0  0  0  0  0
   -1.0323   -0.7500    0.0000 N   0  0  0  0  0  0  0  0  0  0  0  0
   -2.2458   -1.6317    0.0000 C   0  0  0  0  0  0  0  0  0  0  0  0
   -2.2458   -3.1317    0.0000 C   0  0  0  0  0  0  0  0  0  0  0  0
   -3.6724   -3.5952    0.0000 C   0  0  0  0  0  0  0  0  0  0  0  0
   -4.1359   -5.0218    0.0000 O   0  0  0  0  0  0  0  0  0  0  0  0
   -3.1322   -6.1365    0.0000 C   0  0  0  0  0  0  0  0  0  0  0  0
   -3.5958   -7.5631    0.0000 C   0  0  0  0  0  0  0  0  0  0  0  0
   -1.6650   -5.8246    0.0000 C   0  0  0  0  0  0  0  0  0  0  0  0
   -1.2015   -4.3981    0.0000 C   0  0  0  0  0  0  0  0  0  0  0  0
    0.2657   -4.0862    0.0000 C   0  0  0  0  0  0  0  0  0  0  0  0
    1.2694   -5.2009    0.0000 C   0  0  0  0  0  0  0  0  0  0  0  0
    0.8059   -6.6275    0.0000 C   0  0  0  0  0  0  0  0  0  0  0  0
   -0.6613   -6.9394    0.0000 C   0  0  0  0  0  0  0  0  0  0  0  0
   -1.1248   -8.3659    0.0000 Cl  0  0  0  0  0  0  0  0  0  0  0  0
   -4.5541   -2.3817    0.0000 C   0  0  0  0  0  0  0  0  0  0  0  0
   -6.0541   -2.3817    0.0000 C   0  0  0  0  0  0  0  0  0  0  0  0
   -6.8041   -1.0826    0.0000 N   0  0  0  0  0  0  0  0  0  0  0  0
   -6.8041   -3.6807    0.0000 O   0  0  0  0  0  0  0  0  0  0  0  0
   -3.6724   -1.1682    0.0000 S   0  0  0  0  0  0  0  0  0  0  0  0
   -1.0323    0.7500    0.0000 C   0  0  0  0  0  0  0  0  0  0  0  0
   -2.1470    1.7537    0.0000 C   0  0  0  0  0  0  0  0  0  0  0  0
   -1.8351    3.2209    0.0000 C   0  0  0  0  0  0  0  0  0  0  0  0
   -2.9499    4.2246    0.0000 O   0  0  0  0  0  0  0  0  0  0  0  0
   -4.3764    3.7611    0.0000 C   0  0  0  0  0  0  0  0  0  0  0  0
  1  2  1  0
  2  3  1  0
  3  4  2  0
  4  5  1  0
  5  6  1  0
  6  7  2  0
  7  8  1  0
  8  9  1  0
  9 10  2  0
 10 11  1  0
 11 12  1  0
 12 13  1  0
 13 14  1  6
 13 15  1  0
 15 16  2  0
 16 17  1  0
 17 18  2  0
 18 19  1  0
 19 20  2  0
 20 21  1  0
 11 22  2  0
 22 23  1  0
 23 24  1  0
 23 25  2  0
 22 26  1  0
  8 27  1  0
 27 28  1  0
 28 29  2  0
 29 30  1  0
 30 31  1  0
 29  3  1  0
 27  5  2  0
 26  9  1  0
 20 15  1  0
M  END
>  <Compound_ID>  (352) 
CHEMBL521806

>  <Molecule Name>  (352) 
GSK-237700A

>  <Molecular Weight>  (352) 
457.94

>  <AlogP>  (352) 
5.00

>  <Smiles>  (352) 
COc1cc2ncn(-c3cc(O[C@@H](C)c4ccccc4Cl)c(C(N)=O)s3)c2cc1OC

>  <Standard Type>  (352) 
Inhibition

>  <Standard Relation>  (352) 
'='

>  <Standard Units>  (352) 
%

>  <Standard Value>  (352) 
4.76

>  <Assay ChEMBL ID>  (352) 
CHEMBL1962142

>  <Assay Description>  (352) 
GSK_PKIS: MET mean inhibition at 0.1 uM [Nanosyn]

>  <BAO Format ID>  (352) 
BAO_0000357

>  <BAO Label>  (352) 
single protein format

>  <Assay Organism>  (352) 
None

>  <Target ChEMBL ID>  (352) 
CHEMBL3717

>  <Target Name>  (352) 
Hepatocyte growth factor receptor

>  <Target Organism>  (352) 
Homo sapiens

>  <Target Type>  (352) 
SINGLE PROTEIN

>  <Document ChEMBL ID>  (352) 
CHEMBL1961873

>  <Source Description>  (352) 
GSK Published Kinase Inhibitor Set

>  <Document Journal>  (352) 
nan

>  <Document Year>  (352) 
nan

>  <Active>  (352) 
0.0

$$$$

     RDKit          2D

 22 25  0  0  0  0  0  0  0  0999 V2000
   -1.8373   -5.6601    0.0000 O   0  0  0  0  0  0  0  0  0  0  0  0
   -2.9520   -4.6564    0.0000 C   0  0  0  0  0  0  0  0  0  0  0  0
   -2.6401   -3.1891    0.0000 N   0  0  0  0  0  0  0  0  0  0  0  0
   -1.2135   -2.7256    0.0000 C   0  0  0  0  0  0  0  0  0  0  0  0
   -0.0000   -3.6073    0.0000 N   0  0  0  0  0  0  0  0  0  0  0  0
    1.2135   -2.7256    0.0000 N   0  0  0  0  0  0  0  0  0  0  0  0
    0.7500   -1.2990    0.0000 C   0  0  0  0  0  0  0  0  0  0  0  0
    1.5000    0.0000    0.0000 C   0  0  0  0  0  0  0  0  0  0  0  0
    0.7500    1.2990    0.0000 C   0  0  0  0  0  0  0  0  0  0  0  0
    1.5000    2.5981    0.0000 C   0  0  0  0  0  0  0  0  0  0  0  0
    3.0000    2.5981    0.0000 C   0  0  0  0  0  0  0  0  0  0  0  0
    3.7500    3.8971    0.0000 C   0  0  0  0  0  0  0  0  0  0  0  0
    3.0000    5.1962    0.0000 C   0  0  0  0  0  0  0  0  0  0  0  0
    3.7500    6.4952    0.0000 F   0  0  0  0  0  0  0  0  0  0  0  0
    1.5000    5.1962    0.0000 C   0  0  0  0  0  0  0  0  0  0  0  0
    0.7500    3.8971    0.0000 C   0  0  0  0  0  0  0  0  0  0  0  0
   -0.7500    1.2990    0.0000 C   0  0  0  0  0  0  0  0  0  0  0  0
   -1.5000    0.0000    0.0000 C   0  0  0  0  0  0  0  0  0  0  0  0
   -0.7500   -1.2990    0.0000 C   0  0  0  0  0  0  0  0  0  0  0  0
   -4.3786   -5.1199    0.0000 C   0  0  0  0  0  0  0  0  0  0  0  0
   -5.3823   -6.2346    0.0000 C   0  0  0  0  0  0  0  0  0  0  0  0
   -5.8458   -4.8080    0.0000 C   0  0  0  0  0  0  0  0  0  0  0  0
  1  2  2  0
  2  3  1  0
  3  4  1  0
  4  5  2  0
  5  6  1  0
  6  7  1  0
  7  8  2  0
  8  9  1  0
  9 10  1  0
 10 11  2  0
 11 12  1  0
 12 13  2  0
 13 14  1  0
 13 15  1  0
 15 16  2  0
  9 17  2  0
 17 18  1  0
 18 19  2  0
  2 20  1  0
 20 21  1  0
 21 22  1  0
 19  4  1  0
 22 20  1  0
 19  7  1  0
 16 10  1  0
M  END
>  <Compound_ID>  (353) 
CHEMBL419903

>  <Molecule Name>  (353) 
nan

>  <Molecular Weight>  (353) 
295.32

>  <AlogP>  (353) 
3.72

>  <Smiles>  (353) 
O=C(Nc1n[nH]c2cc(-c3ccc(F)cc3)ccc12)C1CC1

>  <Standard Type>  (353) 
Inhibition

>  <Standard Relation>  (353) 
'='

>  <Standard Units>  (353) 
%

>  <Standard Value>  (353) 
0.71

>  <Assay ChEMBL ID>  (353) 
CHEMBL1962143

>  <Assay Description>  (353) 
GSK_PKIS: MET mean inhibition at 1 uM [Nanosyn]

>  <BAO Format ID>  (353) 
BAO_0000357

>  <BAO Label>  (353) 
single protein format

>  <Assay Organism>  (353) 
None

>  <Target ChEMBL ID>  (353) 
CHEMBL3717

>  <Target Name>  (353) 
Hepatocyte growth factor receptor

>  <Target Organism>  (353) 
Homo sapiens

>  <Target Type>  (353) 
SINGLE PROTEIN

>  <Document ChEMBL ID>  (353) 
CHEMBL1961873

>  <Source Description>  (353) 
GSK Published Kinase Inhibitor Set

>  <Document Journal>  (353) 
nan

>  <Document Year>  (353) 
nan

>  <Active>  (353) 
0.0

$$$$

     RDKit          2D

 21 23  0  0  0  0  0  0  0  0999 V2000
   -8.6583   -6.5105    0.0000 O   0  0  0  0  0  0  0  0  0  0  0  0
   -8.3464   -5.0433    0.0000 N   0  0  0  0  0  4  0  0  0  0  0  0
   -9.4612   -4.0396    0.0000 O   0  0  0  0  0  1  0  0  0  0  0  0
   -6.9199   -4.5797    0.0000 C   0  0  0  0  0  0  0  0  0  0  0  0
   -6.6080   -3.1125    0.0000 C   0  0  0  0  0  0  0  0  0  0  0  0
   -5.1814   -2.6490    0.0000 C   0  0  0  0  0  0  0  0  0  0  0  0
   -4.0667   -3.6527    0.0000 C   0  0  0  0  0  0  0  0  0  0  0  0
   -2.6401   -3.1891    0.0000 S   0  0  0  0  0  0  0  0  0  0  0  0
   -3.1036   -1.7626    0.0000 O   0  0  0  0  0  0  0  0  0  0  0  0
   -2.1766   -4.6157    0.0000 O   0  0  0  0  0  0  0  0  0  0  0  0
   -1.2135   -2.7256    0.0000 N   0  0  0  0  0  0  0  0  0  0  0  0
   -0.0000   -3.6073    0.0000 C   0  0  0  0  0  0  0  0  0  0  0  0
    1.2135   -2.7256    0.0000 C   0  0  0  0  0  0  0  0  0  0  0  0
    0.7500   -1.2990    0.0000 C   0  0  0  0  0  0  0  0  0  0  0  0
    1.5000    0.0000    0.0000 N   0  0  0  0  0  0  0  0  0  0  0  0
    0.7500    1.2990    0.0000 C   0  0  0  0  0  0  0  0  0  0  0  0
   -0.7500    1.2990    0.0000 C   0  0  0  0  0  0  0  0  0  0  0  0
   -1.5000    0.0000    0.0000 C   0  0  0  0  0  0  0  0  0  0  0  0
   -0.7500   -1.2990    0.0000 C   0  0  0  0  0  0  0  0  0  0  0  0
   -4.3786   -5.1199    0.0000 C   0  0  0  0  0  0  0  0  0  0  0  0
   -5.8051   -5.5834    0.0000 C   0  0  0  0  0  0  0  0  0  0  0  0
  1  2  2  0
  2  3  1  0
  2  4  1  0
  4  5  2  0
  5  6  1  0
  6  7  2  0
  7  8  1  0
  8  9  2  0
  8 10  2  0
  8 11  1  0
 11 12  1  0
 12 13  2  0
 13 14  1  0
 14 15  2  0
 15 16  1  0
 16 17  2  0
 17 18  1  0
 18 19  2  0
  7 20  1  0
 20 21  2  0
 21  4  1  0
 19 11  1  0
 19 14  1  0
M  CHG  2   2   1   3  -1
M  END
>  <Compound_ID>  (354) 
CHEMBL570767

>  <Molecule Name>  (354) 
nan

>  <Molecular Weight>  (354) 
303.30

>  <AlogP>  (354) 
2.18

>  <Smiles>  (354) 
O=[N+]([O-])c1ccc(S(=O)(=O)n2ccc3ncccc32)cc1

>  <Standard Type>  (354) 
Inhibition

>  <Standard Relation>  (354) 
'='

>  <Standard Units>  (354) 
%

>  <Standard Value>  (354) 
16.0

>  <Assay ChEMBL ID>  (354) 
CHEMBL1062251

>  <Assay Description>  (354) 
Inhibition of human recombinant His-tagged c-Met at 20 uM by TR-FRET assay

>  <BAO Format ID>  (354) 
BAO_0000357

>  <BAO Label>  (354) 
single protein format

>  <Assay Organism>  (354) 
Homo sapiens

>  <Target ChEMBL ID>  (354) 
CHEMBL3717

>  <Target Name>  (354) 
Hepatocyte growth factor receptor

>  <Target Organism>  (354) 
Homo sapiens

>  <Target Type>  (354) 
SINGLE PROTEIN

>  <Document ChEMBL ID>  (354) 
CHEMBL1152913

>  <Source Description>  (354) 
Scientific Literature

>  <Document Journal>  (354) 
Bioorg Med Chem Lett

>  <Document Year>  (354) 
2009.0

>  <Active>  (354) 
0.0

$$$$

     RDKit          2D

 30 33  0  0  0  0  0  0  0  0999 V2000
    1.3299    5.6152    0.0000 C   0  0  0  0  0  0  0  0  0  0  0  0
   -0.0967    5.1517    0.0000 O   0  0  0  0  0  0  0  0  0  0  0  0
   -0.4086    3.6844    0.0000 C   0  0  0  0  0  0  0  0  0  0  0  0
    0.7062    2.6807    0.0000 C   0  0  0  0  0  0  0  0  0  0  0  0
    0.3943    1.2135    0.0000 C   0  0  0  0  0  0  0  0  0  0  0  0
    1.2760    0.0000    0.0000 N   0  0  0  0  0  0  0  0  0  0  0  0
    0.3943   -1.2135    0.0000 C   0  0  0  0  0  0  0  0  0  0  0  0
   -1.0323   -0.7500    0.0000 N   0  0  0  0  0  0  0  0  0  0  0  0
   -2.2458   -1.6317    0.0000 C   0  0  0  0  0  0  0  0  0  0  0  0
   -2.2458   -3.1317    0.0000 C   0  0  0  0  0  0  0  0  0  0  0  0
   -3.6724   -3.5952    0.0000 C   0  0  0  0  0  0  0  0  0  0  0  0
   -4.1359   -5.0218    0.0000 O   0  0  0  0  0  0  0  0  0  0  0  0
   -5.6031   -5.3337    0.0000 C   0  0  0  0  0  0  0  0  0  0  0  0
   -6.0667   -6.7602    0.0000 C   0  0  0  0  0  0  0  0  0  0  0  0
   -7.5339   -7.0721    0.0000 C   0  0  0  0  0  0  0  0  0  0  0  0
   -8.5376   -5.9574    0.0000 C   0  0  0  0  0  0  0  0  0  0  0  0
  -10.0048   -6.2693    0.0000 C   0  0  0  0  0  0  0  0  0  0  0  0
  -10.4683   -7.6958    0.0000 C   0  0  0  0  0  0  0  0  0  0  0  0
   -9.4646   -8.8106    0.0000 C   0  0  0  0  0  0  0  0  0  0  0  0
   -7.9974   -8.4987    0.0000 C   0  0  0  0  0  0  0  0  0  0  0  0
   -4.5541   -2.3817    0.0000 C   0  0  0  0  0  0  0  0  0  0  0  0
   -6.0541   -2.3817    0.0000 C   0  0  0  0  0  0  0  0  0  0  0  0
   -6.8041   -1.0826    0.0000 N   0  0  0  0  0  0  0  0  0  0  0  0
   -6.8041   -3.6807    0.0000 O   0  0  0  0  0  0  0  0  0  0  0  0
   -3.6724   -1.1682    0.0000 S   0  0  0  0  0  0  0  0  0  0  0  0
   -1.0323    0.7500    0.0000 C   0  0  0  0  0  0  0  0  0  0  0  0
   -2.1470    1.7537    0.0000 C   0  0  0  0  0  0  0  0  0  0  0  0
   -1.8351    3.2209    0.0000 C   0  0  0  0  0  0  0  0  0  0  0  0
   -2.9499    4.2246    0.0000 O   0  0  0  0  0  0  0  0  0  0  0  0
   -4.3764    3.7611    0.0000 C   0  0  0  0  0  0  0  0  0  0  0  0
  1  2  1  0
  2  3  1  0
  3  4  2  0
  4  5  1  0
  5  6  1  0
  6  7  2  0
  7  8  1  0
  8  9  1  0
  9 10  2  0
 10 11  1  0
 11 12  1  0
 12 13  1  0
 13 14  1  0
 14 15  1  0
 15 16  2  0
 16 17  1  0
 17 18  2  0
 18 19  1  0
 19 20  2  0
 11 21  2  0
 21 22  1  0
 22 23  1  0
 22 24  2  0
 21 25  1  0
  8 26  1  0
 26 27  1  0
 27 28  2  0
 28 29  1  0
 29 30  1  0
 28  3  1  0
 26  5  2  0
 25  9  1  0
 20 15  1  0
M  END
>  <Compound_ID>  (355) 
CHEMBL473629

>  <Molecule Name>  (355) 
GSK-204925A

>  <Molecular Weight>  (355) 
423.49

>  <AlogP>  (355) 
3.82

>  <Smiles>  (355) 
COc1cc2ncn(-c3cc(OCCc4ccccc4)c(C(N)=O)s3)c2cc1OC

>  <Standard Type>  (355) 
Inhibition

>  <Standard Relation>  (355) 
'='

>  <Standard Units>  (355) 
%

>  <Standard Value>  (355) 
5.5

>  <Assay ChEMBL ID>  (355) 
CHEMBL1962143

>  <Assay Description>  (355) 
GSK_PKIS: MET mean inhibition at 1 uM [Nanosyn]

>  <BAO Format ID>  (355) 
BAO_0000357

>  <BAO Label>  (355) 
single protein format

>  <Assay Organism>  (355) 
None

>  <Target ChEMBL ID>  (355) 
CHEMBL3717

>  <Target Name>  (355) 
Hepatocyte growth factor receptor

>  <Target Organism>  (355) 
Homo sapiens

>  <Target Type>  (355) 
SINGLE PROTEIN

>  <Document ChEMBL ID>  (355) 
CHEMBL1961873

>  <Source Description>  (355) 
GSK Published Kinase Inhibitor Set

>  <Document Journal>  (355) 
nan

>  <Document Year>  (355) 
nan

>  <Active>  (355) 
0.0

$$$$

     RDKit          2D

 37 40  0  0  0  0  0  0  0  0999 V2000
   -2.9716   -7.4453    0.0000 C   0  0  0  0  0  0  0  0  0  0  0  0
   -2.5081   -6.0187    0.0000 N   0  0  0  0  0  0  0  0  0  0  0  0
   -3.5118   -4.9040    0.0000 C   0  0  0  0  0  0  0  0  0  0  0  0
   -1.0409   -5.7068    0.0000 C   0  0  0  0  0  0  0  0  0  0  0  0
   -0.5773   -4.2803    0.0000 C   0  0  0  0  0  0  0  0  0  0  0  0
    0.8899   -3.9684    0.0000 N   0  0  0  0  0  0  0  0  0  0  0  0
    2.0046   -4.9721    0.0000 C   0  0  0  0  0  0  0  0  0  0  0  0
    3.3037   -4.2221    0.0000 N   0  0  0  0  0  0  0  0  0  0  0  0
    2.9918   -2.7549    0.0000 N   0  0  0  0  0  0  0  0  0  0  0  0
    1.5000   -2.5981    0.0000 C   0  0  0  0  0  0  0  0  0  0  0  0
    0.7500   -1.2990    0.0000 C   0  0  0  0  0  0  0  0  0  0  0  0
    1.5000    0.0000    0.0000 C   0  0  0  0  0  0  0  0  0  0  0  0
    0.7500    1.2990    0.0000 C   0  0  0  0  0  0  0  0  0  0  0  0
    1.5000    2.5981    0.0000 O   0  0  0  0  0  0  0  0  0  0  0  0
    3.0000    2.5981    0.0000 C   0  0  0  0  0  0  0  0  0  0  0  0
    3.7500    1.2990    0.0000 C   0  0  0  0  0  0  0  0  0  0  0  0
    5.2500    1.2990    0.0000 C   0  0  0  0  0  0  0  0  0  0  0  0
    6.0000    2.5981    0.0000 C   0  0  0  0  0  0  0  0  0  0  0  0
    7.5000    2.5981    0.0000 N   0  0  0  0  0  0  0  0  0  0  0  0
    8.2500    1.2990    0.0000 C   0  0  0  0  0  0  0  0  0  0  0  0
    7.5000   -0.0000    0.0000 O   0  0  0  0  0  0  0  0  0  0  0  0
    9.7500    1.2990    0.0000 N   0  0  0  0  0  0  0  0  0  0  0  0
   10.5000   -0.0000    0.0000 N   0  0  0  0  0  0  0  0  0  0  0  0
   12.0000   -0.0000    0.0000 C   0  0  0  0  0  0  0  0  0  0  0  0
   12.7500   -1.2990    0.0000 C   0  0  0  0  0  0  0  0  0  0  0  0
   12.0000   -2.5981    0.0000 C   0  0  0  0  0  0  0  0  0  0  0  0
   12.7500   -3.8971    0.0000 C   0  0  0  0  0  0  0  0  0  0  0  0
   14.2500   -3.8971    0.0000 C   0  0  0  0  0  0  0  0  0  0  0  0
   15.0000   -2.5981    0.0000 C   0  0  0  0  0  0  0  0  0  0  0  0
   16.5000   -2.5981    0.0000 Br  0  0  0  0  0  0  0  0  0  0  0  0
   14.2500   -1.2990    0.0000 C   0  0  0  0  0  0  0  0  0  0  0  0
    5.2500    3.8971    0.0000 C   0  0  0  0  0  0  0  0  0  0  0  0
    3.7500    3.8971    0.0000 C   0  0  0  0  0  0  0  0  0  0  0  0
    3.0000    5.1962    0.0000 F   0  0  0  0  0  0  0  0  0  0  0  0
   -0.7500    1.2990    0.0000 C   0  0  0  0  0  0  0  0  0  0  0  0
   -1.5000    0.0000    0.0000 C   0  0  0  0  0  0  0  0  0  0  0  0
   -0.7500   -1.2990    0.0000 N   0  0  0  0  0  0  0  0  0  0  0  0
  1  2  1  0
  2  3  1  0
  2  4  1  0
  4  5  1  0
  5  6  1  0
  6  7  1  0
  7  8  2  0
  8  9  1  0
  9 10  2  0
 10 11  1  0
 11 12  2  0
 12 13  1  0
 13 14  1  0
 14 15  1  0
 15 16  2  0
 16 17  1  0
 17 18  2  0
 18 19  1  0
 19 20  1  0
 20 21  2  0
 20 22  1  0
 22 23  1  0
 23 24  2  0
 24 25  1  0
 25 26  2  0
 26 27  1  0
 27 28  2  0
 28 29  1  0
 29 30  1  0
 29 31  2  0
 18 32  1  0
 32 33  2  0
 33 34  1  0
 13 35  2  0
 35 36  1  0
 36 37  2  0
 10  6  1  0
 37 11  1  0
 33 15  1  0
 31 25  1  0
M  END
>  <Compound_ID>  (356) 
CHEMBL3262848

>  <Molecule Name>  (356) 
nan

>  <Molecular Weight>  (356) 
567.42

>  <AlogP>  (356) 
4.75

>  <Smiles>  (356) 
CN(C)CCn1cnnc1-c1cc(Oc2ccc(NC(=O)N/N=C/c3cccc(Br)c3)cc2F)ccn1

>  <Standard Type>  (356) 
Inhibition

>  <Standard Relation>  (356) 
'='

>  <Standard Units>  (356) 
%

>  <Standard Value>  (356) 
7.8

>  <Assay ChEMBL ID>  (356) 
CHEMBL3271573

>  <Assay Description>  (356) 
Inhibition of c-MET (unknown origin) at 10 uM after 20 mins by HTRF method

>  <BAO Format ID>  (356) 
BAO_0000357

>  <BAO Label>  (356) 
single protein format

>  <Assay Organism>  (356) 
Homo sapiens

>  <Target ChEMBL ID>  (356) 
CHEMBL3717

>  <Target Name>  (356) 
Hepatocyte growth factor receptor

>  <Target Organism>  (356) 
Homo sapiens

>  <Target Type>  (356) 
SINGLE PROTEIN

>  <Document ChEMBL ID>  (356) 
CHEMBL3259649

>  <Source Description>  (356) 
Scientific Literature

>  <Document Journal>  (356) 
Eur J Med Chem

>  <Document Year>  (356) 
2014.0

>  <Active>  (356) 
0.0

$$$$

     RDKit          2D

 38 41  0  0  0  0  0  0  0  0999 V2000
   -2.9716   -7.4453    0.0000 C   0  0  0  0  0  0  0  0  0  0  0  0
   -2.5081   -6.0187    0.0000 N   0  0  0  0  0  0  0  0  0  0  0  0
   -3.5118   -4.9040    0.0000 C   0  0  0  0  0  0  0  0  0  0  0  0
   -1.0409   -5.7068    0.0000 C   0  0  0  0  0  0  0  0  0  0  0  0
   -0.5773   -4.2803    0.0000 C   0  0  0  0  0  0  0  0  0  0  0  0
    0.8899   -3.9684    0.0000 N   0  0  0  0  0  0  0  0  0  0  0  0
    2.0046   -4.9721    0.0000 C   0  0  0  0  0  0  0  0  0  0  0  0
    3.3037   -4.2221    0.0000 N   0  0  0  0  0  0  0  0  0  0  0  0
    2.9918   -2.7549    0.0000 N   0  0  0  0  0  0  0  0  0  0  0  0
    1.5000   -2.5981    0.0000 C   0  0  0  0  0  0  0  0  0  0  0  0
    0.7500   -1.2990    0.0000 C   0  0  0  0  0  0  0  0  0  0  0  0
    1.5000    0.0000    0.0000 C   0  0  0  0  0  0  0  0  0  0  0  0
    0.7500    1.2990    0.0000 C   0  0  0  0  0  0  0  0  0  0  0  0
    1.5000    2.5981    0.0000 O   0  0  0  0  0  0  0  0  0  0  0  0
    3.0000    2.5981    0.0000 C   0  0  0  0  0  0  0  0  0  0  0  0
    3.7500    1.2990    0.0000 C   0  0  0  0  0  0  0  0  0  0  0  0
    5.2500    1.2990    0.0000 C   0  0  0  0  0  0  0  0  0  0  0  0
    6.0000    2.5981    0.0000 C   0  0  0  0  0  0  0  0  0  0  0  0
    7.5000    2.5981    0.0000 N   0  0  0  0  0  0  0  0  0  0  0  0
    8.2500    1.2990    0.0000 C   0  0  0  0  0  0  0  0  0  0  0  0
    7.5000   -0.0000    0.0000 O   0  0  0  0  0  0  0  0  0  0  0  0
    9.7500    1.2990    0.0000 N   0  0  0  0  0  0  0  0  0  0  0  0
   10.5000   -0.0000    0.0000 N   0  0  0  0  0  0  0  0  0  0  0  0
   12.0000   -0.0000    0.0000 C   0  0  0  0  0  0  0  0  0  0  0  0
   12.7500   -1.2990    0.0000 C   0  0  0  0  0  0  0  0  0  0  0  0
   12.0000   -2.5981    0.0000 C   0  0  0  0  0  0  0  0  0  0  0  0
   12.7500   -3.8971    0.0000 C   0  0  0  0  0  0  0  0  0  0  0  0
   14.2500   -3.8971    0.0000 C   0  0  0  0  0  0  0  0  0  0  0  0
   15.0000   -5.1962    0.0000 Cl  0  0  0  0  0  0  0  0  0  0  0  0
   15.0000   -2.5981    0.0000 C   0  0  0  0  0  0  0  0  0  0  0  0
   14.2500   -1.2990    0.0000 C   0  0  0  0  0  0  0  0  0  0  0  0
   15.0000    0.0000    0.0000 Cl  0  0  0  0  0  0  0  0  0  0  0  0
    5.2500    3.8971    0.0000 C   0  0  0  0  0  0  0  0  0  0  0  0
    3.7500    3.8971    0.0000 C   0  0  0  0  0  0  0  0  0  0  0  0
    3.0000    5.1962    0.0000 F   0  0  0  0  0  0  0  0  0  0  0  0
   -0.7500    1.2990    0.0000 C   0  0  0  0  0  0  0  0  0  0  0  0
   -1.5000    0.0000    0.0000 C   0  0  0  0  0  0  0  0  0  0  0  0
   -0.7500   -1.2990    0.0000 N   0  0  0  0  0  0  0  0  0  0  0  0
  1  2  1  0
  2  3  1  0
  2  4  1  0
  4  5  1  0
  5  6  1  0
  6  7  1  0
  7  8  2  0
  8  9  1  0
  9 10  2  0
 10 11  1  0
 11 12  2  0
 12 13  1  0
 13 14  1  0
 14 15  1  0
 15 16  2  0
 16 17  1  0
 17 18  2  0
 18 19  1  0
 19 20  1  0
 20 21  2  0
 20 22  1  0
 22 23  1  0
 23 24  2  0
 24 25  1  0
 25 26  2  0
 26 27  1  0
 27 28  2  0
 28 29  1  0
 28 30  1  0
 30 31  2  0
 31 32  1  0
 18 33  1  0
 33 34  2  0
 34 35  1  0
 13 36  2  0
 36 37  1  0
 37 38  2  0
 10  6  1  0
 38 11  1  0
 34 15  1  0
 31 25  1  0
M  END
>  <Compound_ID>  (357) 
CHEMBL3262853

>  <Molecule Name>  (357) 
nan

>  <Molecular Weight>  (357) 
557.42

>  <AlogP>  (357) 
5.30

>  <Smiles>  (357) 
CN(C)CCn1cnnc1-c1cc(Oc2ccc(NC(=O)N/N=C/c3ccc(Cl)cc3Cl)cc2F)ccn1

>  <Standard Type>  (357) 
Inhibition

>  <Standard Relation>  (357) 
'='

>  <Standard Units>  (357) 
%

>  <Standard Value>  (357) 
3.1

>  <Assay ChEMBL ID>  (357) 
CHEMBL3271573

>  <Assay Description>  (357) 
Inhibition of c-MET (unknown origin) at 10 uM after 20 mins by HTRF method

>  <BAO Format ID>  (357) 
BAO_0000357

>  <BAO Label>  (357) 
single protein format

>  <Assay Organism>  (357) 
Homo sapiens

>  <Target ChEMBL ID>  (357) 
CHEMBL3717

>  <Target Name>  (357) 
Hepatocyte growth factor receptor

>  <Target Organism>  (357) 
Homo sapiens

>  <Target Type>  (357) 
SINGLE PROTEIN

>  <Document ChEMBL ID>  (357) 
CHEMBL3259649

>  <Source Description>  (357) 
Scientific Literature

>  <Document Journal>  (357) 
Eur J Med Chem

>  <Document Year>  (357) 
2014.0

>  <Active>  (357) 
0.0

$$$$

     RDKit          2D

 25 28  0  0  0  0  0  0  0  0999 V2000
    5.2500   -1.2990    0.0000 C   0  0  0  0  0  0  0  0  0  0  0  0
    3.7500   -1.2990    0.0000 N   0  0  0  0  0  0  0  0  0  0  0  0
    3.0000   -2.5981    0.0000 C   0  0  0  0  0  0  0  0  0  0  0  0
    3.0000    0.0000    0.0000 C   0  0  0  0  0  0  0  0  0  0  0  0
    3.7500    1.2990    0.0000 O   0  0  0  0  0  0  0  0  0  0  0  0
    1.5000    0.0000    0.0000 C   0  0  0  0  0  0  0  0  0  0  0  0
    0.7500   -1.2990    0.0000 C   0  0  0  0  0  0  0  0  0  0  0  0
   -0.7500   -1.2990    0.0000 C   0  0  0  0  0  0  0  0  0  0  0  0
   -1.5000    0.0000    0.0000 C   0  0  0  0  0  0  0  0  0  0  0  0
   -2.2500    1.2990    0.0000 C   0  0  0  0  0  0  0  0  0  0  0  0
   -3.7500    1.2990    0.0000 C   0  0  0  0  0  0  0  0  0  0  0  0
   -4.5000   -0.0000    0.0000 N   0  0  0  0  0  0  0  0  0  0  0  0
   -6.0000   -0.0000    0.0000 C   0  0  0  0  0  0  0  0  0  0  0  0
   -6.7500   -1.2990    0.0000 N   0  0  0  0  0  0  0  0  0  0  0  0
   -8.2500   -1.2990    0.0000 C   0  0  0  0  0  0  0  0  0  0  0  0
   -9.0000   -0.0000    0.0000 N   0  0  0  0  0  0  0  0  0  0  0  0
   -8.2500    1.2990    0.0000 C   0  0  0  0  0  0  0  0  0  0  0  0
   -8.7135    2.7256    0.0000 N   0  0  0  0  0  0  0  0  0  0  0  0
   -7.5000    3.6073    0.0000 C   0  0  0  0  0  0  0  0  0  0  0  0
   -6.2865    2.7256    0.0000 N   0  0  0  0  0  0  0  0  0  0  0  0
   -6.7500    1.2990    0.0000 C   0  0  0  0  0  0  0  0  0  0  0  0
   -3.7500   -1.2990    0.0000 C   0  0  0  0  0  0  0  0  0  0  0  0
   -2.2500   -1.2990    0.0000 C   0  0  0  0  0  0  0  0  0  0  0  0
   -0.7500    1.2990    0.0000 N   0  0  0  0  0  0  0  0  0  0  0  0
    0.7500    1.2990    0.0000 C   0  0  0  0  0  0  0  0  0  0  0  0
  1  2  1  0
  2  3  1  0
  2  4  1  0
  4  5  2  0
  4  6  1  0
  6  7  1  0
  7  8  1  0
  8  9  1  0
  9 10  1  0
 10 11  1  0
 11 12  1  0
 12 13  1  0
 13 14  2  0
 14 15  1  0
 15 16  2  0
 16 17  1  0
 17 18  1  0
 18 19  1  0
 19 20  2  0
 20 21  1  0
 12 22  1  0
 22 23  1  0
  9 24  1  0
 24 25  1  0
 25  6  1  0
 23  9  1  0
 21 13  1  0
 21 17  2  0
M  END
>  <Compound_ID>  (358) 
CHEMBL2420906

>  <Molecule Name>  (358) 
nan

>  <Molecular Weight>  (358) 
343.44

>  <AlogP>  (358) 
0.78

>  <Smiles>  (358) 
CN(C)C(=O)C1CCC2(CCN(c3ncnc4[nH]cnc34)CC2)NC1

>  <Standard Type>  (358) 
Inhibition

>  <Standard Relation>  (358) 
'='

>  <Standard Units>  (358) 
%

>  <Standard Value>  (358) 
7.0

>  <Assay ChEMBL ID>  (358) 
CHEMBL2424318

>  <Assay Description>  (358) 
Inhibition of MET (unknown origin) at 30 uM by microfluidic mobility shift assay relative to control

>  <BAO Format ID>  (358) 
BAO_0000357

>  <BAO Label>  (358) 
single protein format

>  <Assay Organism>  (358) 
Homo sapiens

>  <Target ChEMBL ID>  (358) 
CHEMBL3717

>  <Target Name>  (358) 
Hepatocyte growth factor receptor

>  <Target Organism>  (358) 
Homo sapiens

>  <Target Type>  (358) 
SINGLE PROTEIN

>  <Document ChEMBL ID>  (358) 
CHEMBL2417369

>  <Source Description>  (358) 
Scientific Literature

>  <Document Journal>  (358) 
Bioorg Med Chem

>  <Document Year>  (358) 
2013.0

>  <Active>  (358) 
0.0

$$$$

     RDKit          2D

 27 31  0  0  0  0  0  0  0  0999 V2000
   -0.7500   -6.4952    0.0000 C   0  0  0  0  0  0  0  0  0  0  0  0
   -1.5000   -5.1962    0.0000 C   0  0  0  0  0  0  0  0  0  0  0  0
   -0.7500   -3.8971    0.0000 C   0  0  0  0  0  0  0  0  0  0  0  0
    0.7500   -3.8971    0.0000 C   0  0  0  0  0  0  0  0  0  0  0  0
    1.5000   -2.5981    0.0000 C   0  0  0  0  0  0  0  0  0  0  0  0
    0.7500   -1.2990    0.0000 C   0  0  0  0  0  0  0  0  0  0  0  0
    1.5000    0.0000    0.0000 C   0  0  0  0  0  0  0  0  0  0  0  0
    0.7500    1.2990    0.0000 C   0  0  0  0  0  0  0  0  0  0  0  0
   -0.7500    1.2990    0.0000 N   0  0  0  0  0  0  0  0  0  0  0  0
   -1.5000    0.0000    0.0000 C   0  0  0  0  0  0  0  0  0  0  0  0
   -2.2500    1.2990    0.0000 C   0  0  0  0  0  0  0  0  0  0  0  0
   -3.7500    1.2990    0.0000 C   0  0  0  0  0  0  0  0  0  0  0  0
   -4.5000   -0.0000    0.0000 N   0  0  0  0  0  0  0  0  0  0  0  0
   -6.0000   -0.0000    0.0000 C   0  0  0  0  0  0  0  0  0  0  0  0
   -6.7500   -1.2990    0.0000 N   0  0  0  0  0  0  0  0  0  0  0  0
   -8.2500   -1.2990    0.0000 C   0  0  0  0  0  0  0  0  0  0  0  0
   -9.0000   -0.0000    0.0000 N   0  0  0  0  0  0  0  0  0  0  0  0
   -8.2500    1.2990    0.0000 C   0  0  0  0  0  0  0  0  0  0  0  0
   -8.7135    2.7256    0.0000 N   0  0  0  0  0  0  0  0  0  0  0  0
   -7.5000    3.6073    0.0000 C   0  0  0  0  0  0  0  0  0  0  0  0
   -6.2865    2.7256    0.0000 N   0  0  0  0  0  0  0  0  0  0  0  0
   -6.7500    1.2990    0.0000 C   0  0  0  0  0  0  0  0  0  0  0  0
   -3.7500   -1.2990    0.0000 C   0  0  0  0  0  0  0  0  0  0  0  0
   -2.2500   -1.2990    0.0000 C   0  0  0  0  0  0  0  0  0  0  0  0
   -0.7500   -1.2990    0.0000 C   0  0  0  0  0  0  0  0  0  0  0  0
    1.5000   -5.1962    0.0000 C   0  0  0  0  0  0  0  0  0  0  0  0
    0.7500   -6.4952    0.0000 C   0  0  0  0  0  0  0  0  0  0  0  0
  1  2  2  0
  2  3  1  0
  3  4  2  0
  4  5  1  0
  5  6  1  0
  6  7  1  0
  7  8  1  0
  8  9  1  0
  9 10  1  0
 10 11  1  0
 11 12  1  0
 12 13  1  0
 13 14  1  0
 14 15  2  0
 15 16  1  0
 16 17  2  0
 17 18  1  0
 18 19  1  0
 19 20  1  0
 20 21  2  0
 21 22  1  0
 13 23  1  0
 23 24  1  0
 10 25  1  0
  4 26  1  0
 26 27  2  0
 27  1  1  0
 25  6  1  0
 24 10  1  0
 22 14  1  0
 22 18  2  0
M  END
>  <Compound_ID>  (359) 
CHEMBL2420900

>  <Molecule Name>  (359) 
nan

>  <Molecular Weight>  (359) 
362.48

>  <AlogP>  (359) 
2.93

>  <Smiles>  (359) 
c1ccc(CC2CCNC3(CCN(c4ncnc5[nH]cnc45)CC3)C2)cc1

>  <Standard Type>  (359) 
Inhibition

>  <Standard Relation>  (359) 
'='

>  <Standard Units>  (359) 
%

>  <Standard Value>  (359) 
6.0

>  <Assay ChEMBL ID>  (359) 
CHEMBL2424318

>  <Assay Description>  (359) 
Inhibition of MET (unknown origin) at 30 uM by microfluidic mobility shift assay relative to control

>  <BAO Format ID>  (359) 
BAO_0000357

>  <BAO Label>  (359) 
single protein format

>  <Assay Organism>  (359) 
Homo sapiens

>  <Target ChEMBL ID>  (359) 
CHEMBL3717

>  <Target Name>  (359) 
Hepatocyte growth factor receptor

>  <Target Organism>  (359) 
Homo sapiens

>  <Target Type>  (359) 
SINGLE PROTEIN

>  <Document ChEMBL ID>  (359) 
CHEMBL2417369

>  <Source Description>  (359) 
Scientific Literature

>  <Document Journal>  (359) 
Bioorg Med Chem

>  <Document Year>  (359) 
2013.0

>  <Active>  (359) 
0.0

$$$$

     RDKit          2D

 25 28  0  0  0  0  0  0  0  0999 V2000
    2.7990   -1.8481    0.0000 O   0  0  0  0  0  0  0  0  0  0  0  0
    1.5000   -2.5981    0.0000 S   0  0  0  0  0  0  0  0  0  0  0  0
    0.2010   -3.3481    0.0000 O   0  0  0  0  0  0  0  0  0  0  0  0
    2.2500   -3.8971    0.0000 C   0  0  0  0  0  0  0  0  0  0  0  0
    1.5000   -5.1962    0.0000 C   0  0  0  0  0  0  0  0  0  0  0  0
    2.2500   -6.4952    0.0000 C   0  0  0  0  0  0  0  0  0  0  0  0
    3.7500   -6.4952    0.0000 C   0  0  0  0  0  0  0  0  0  0  0  0
    4.5000   -5.1962    0.0000 C   0  0  0  0  0  0  0  0  0  0  0  0
    6.0000   -5.1962    0.0000 C   0  0  0  0  0  0  0  0  0  0  0  0
    6.7500   -3.8971    0.0000 N   0  0  0  0  0  0  0  0  0  0  0  0
    6.0000   -2.5981    0.0000 C   0  0  0  0  0  0  0  0  0  0  0  0
    4.5000   -2.5981    0.0000 C   0  0  0  0  0  0  0  0  0  0  0  0
    3.7500   -3.8971    0.0000 C   0  0  0  0  0  0  0  0  0  0  0  0
    0.7500   -1.2990    0.0000 N   0  0  0  0  0  0  0  0  0  0  0  0
    1.5000    0.0000    0.0000 C   0  0  0  0  0  0  0  0  0  0  0  0
    0.7500    1.2990    0.0000 C   0  0  0  0  0  0  0  0  0  0  0  0
   -0.7500    1.2990    0.0000 C   0  0  0  0  0  0  0  0  0  0  0  0
    0.0000    2.5981    0.0000 C   0  0  0  0  0  0  0  0  0  0  0  0
   -0.7500    3.8971    0.0000 C   0  0  0  0  0  0  0  0  0  0  0  0
   -2.2500    3.8971    0.0000 C   0  0  0  0  0  0  0  0  0  0  0  0
   -3.0000    5.1962    0.0000 O   0  0  0  0  0  0  0  0  0  0  0  0
   -3.0000    2.5981    0.0000 C   0  0  0  0  0  0  0  0  0  0  0  0
   -2.2500    1.2990    0.0000 N   0  0  0  0  0  0  0  0  0  0  0  0
   -1.5000    0.0000    0.0000 C   0  0  0  0  0  0  0  0  0  0  0  0
   -0.7500   -1.2990    0.0000 C   0  0  0  0  0  0  0  0  0  0  0  0
  1  2  2  0
  2  3  2  0
  2  4  1  0
  4  5  2  0
  5  6  1  0
  6  7  2  0
  7  8  1  0
  8  9  2  0
  9 10  1  0
 10 11  2  0
 11 12  1  0
 12 13  2  0
  2 14  1  0
 14 15  1  0
 15 16  1  0
 16 17  1  0
 17 18  1  0
 18 19  1  0
 19 20  1  0
 20 21  1  0
 20 22  1  0
 22 23  1  0
 17 24  1  0
 24 25  1  0
 13  4  1  0
 25 14  1  0
 13  8  1  0
 23 17  1  0
M  END
>  <Compound_ID>  (360) 
CHEMBL2420928

>  <Molecule Name>  (360) 
nan

>  <Molecular Weight>  (360) 
361.47

>  <AlogP>  (360) 
1.50

>  <Smiles>  (360) 
O=S(=O)(c1cccc2cnccc12)N1CCC2(CCC(O)CN2)CC1

>  <Standard Type>  (360) 
Inhibition

>  <Standard Relation>  (360) 
'='

>  <Standard Units>  (360) 
%

>  <Standard Value>  (360) 
13.0

>  <Assay ChEMBL ID>  (360) 
CHEMBL2424318

>  <Assay Description>  (360) 
Inhibition of MET (unknown origin) at 30 uM by microfluidic mobility shift assay relative to control

>  <BAO Format ID>  (360) 
BAO_0000357

>  <BAO Label>  (360) 
single protein format

>  <Assay Organism>  (360) 
Homo sapiens

>  <Target ChEMBL ID>  (360) 
CHEMBL3717

>  <Target Name>  (360) 
Hepatocyte growth factor receptor

>  <Target Organism>  (360) 
Homo sapiens

>  <Target Type>  (360) 
SINGLE PROTEIN

>  <Document ChEMBL ID>  (360) 
CHEMBL2417369

>  <Source Description>  (360) 
Scientific Literature

>  <Document Journal>  (360) 
Bioorg Med Chem

>  <Document Year>  (360) 
2013.0

>  <Active>  (360) 
0.0

$$$$

     RDKit          2D

 33 37  0  0  0  0  0  0  0  0999 V2000
    3.7500   -1.2990    0.0000 C   0  0  0  0  0  0  0  0  0  0  0  0
    3.0000    0.0000    0.0000 O   0  0  0  0  0  0  0  0  0  0  0  0
    1.5000    0.0000    0.0000 C   0  0  0  0  0  0  0  0  0  0  0  0
    0.7500   -1.2990    0.0000 C   0  0  0  0  0  0  0  0  0  0  0  0
   -0.7500   -1.2990    0.0000 C   0  0  0  0  0  0  0  0  0  0  0  0
   -1.5000    0.0000    0.0000 C   0  0  0  0  0  0  0  0  0  0  0  0
   -3.0000    0.0000    0.0000 N   0  0  0  0  0  0  0  0  0  0  0  0
   -3.7500    1.2990    0.0000 C   0  0  0  0  0  0  0  0  0  0  0  0
   -5.2500    1.2990    0.0000 N   0  0  0  0  0  0  0  0  0  0  0  0
   -6.0000    2.5981    0.0000 C   0  0  0  0  0  0  0  0  0  0  0  0
   -7.5000    2.5981    0.0000 N   0  0  0  0  0  0  0  0  0  0  0  0
   -8.2500    3.8971    0.0000 C   0  0  0  0  0  0  0  0  0  0  0  0
   -9.7500    3.8971    0.0000 C   0  0  0  0  0  0  0  0  0  0  0  0
  -10.5000    5.1962    0.0000 C   0  0  0  0  0  0  0  0  0  0  0  0
  -12.0000    5.1962    0.0000 C   0  0  0  0  0  0  0  0  0  0  0  0
  -12.7500    3.8971    0.0000 C   0  0  0  0  0  0  0  0  0  0  0  0
  -14.2500    3.8971    0.0000 C   0  0  0  0  0  0  0  0  0  0  0  0
  -15.0000    5.1962    0.0000 N   0  0  0  0  0  0  0  0  0  0  0  0
  -14.2500    6.4952    0.0000 C   0  0  0  0  0  0  0  0  0  0  0  0
  -15.0000    7.7942    0.0000 C   0  0  0  0  0  0  0  0  0  0  0  0
  -16.5000    7.7942    0.0000 N   0  0  0  0  0  0  0  0  0  0  0  0
  -17.2500    9.0933    0.0000 C   0  0  0  0  0  0  0  0  0  0  0  0
  -17.2500    6.4952    0.0000 C   0  0  0  0  0  0  0  0  0  0  0  0
  -16.5000    5.1962    0.0000 C   0  0  0  0  0  0  0  0  0  0  0  0
  -12.0000    2.5981    0.0000 C   0  0  0  0  0  0  0  0  0  0  0  0
  -10.5000    2.5981    0.0000 C   0  0  0  0  0  0  0  0  0  0  0  0
   -5.2500    3.8971    0.0000 N   0  0  0  0  0  0  0  0  0  0  0  0
   -3.7500    3.8971    0.0000 C   0  0  0  0  0  0  0  0  0  0  0  0
   -3.0000    5.1962    0.0000 O   0  0  0  0  0  0  0  0  0  0  0  0
   -3.0000    2.5981    0.0000 C   0  0  0  0  0  0  0  0  0  0  0  0
   -1.5000    2.5981    0.0000 N   0  0  0  0  0  0  0  0  0  0  0  0
   -0.7500    1.2990    0.0000 C   0  0  0  0  0  0  0  0  0  0  0  0
    0.7500    1.2990    0.0000 C   0  0  0  0  0  0  0  0  0  0  0  0
  1  2  1  0
  2  3  1  0
  3  4  2  0
  4  5  1  0
  5  6  2  0
  6  7  1  0
  7  8  2  0
  8  9  1  0
  9 10  2  0
 10 11  1  0
 11 12  1  0
 12 13  1  0
 13 14  2  0
 14 15  1  0
 15 16  2  0
 16 17  1  0
 17 18  1  0
 18 19  1  0
 19 20  1  0
 20 21  1  0
 21 22  1  0
 21 23  1  0
 23 24  1  0
 16 25  1  0
 25 26  2  0
 10 27  1  0
 27 28  1  0
 28 29  2  0
 28 30  1  0
 30 31  2  0
 31 32  1  0
 32 33  2  0
 33  3  1  0
 32  6  1  0
 30  8  1  0
 26 13  1  0
 24 18  1  0
M  END
>  <Compound_ID>  (361) 
CHEMBL4171939

>  <Molecule Name>  (361) 
nan

>  <Molecular Weight>  (361) 
445.53

>  <AlogP>  (361) 
2.23

>  <Smiles>  (361) 
COc1ccc2nc3nc(NCc4ccc(CN5CCN(C)CC5)cc4)[nH]c(=O)c3nc2c1

>  <Standard Type>  (361) 
Inhibition

>  <Standard Relation>  (361) 
'='

>  <Standard Units>  (361) 
%

>  <Standard Value>  (361) 
2.0

>  <Assay ChEMBL ID>  (361) 
CHEMBL4153883

>  <Assay Description>  (361) 
Inhibition of MET (unknown origin) at 10 uM by [33P]-ATP radiometric assay

>  <BAO Format ID>  (361) 
BAO_0000357

>  <BAO Label>  (361) 
single protein format

>  <Assay Organism>  (361) 
Homo sapiens

>  <Target ChEMBL ID>  (361) 
CHEMBL3717

>  <Target Name>  (361) 
Hepatocyte growth factor receptor

>  <Target Organism>  (361) 
Homo sapiens

>  <Target Type>  (361) 
SINGLE PROTEIN

>  <Document ChEMBL ID>  (361) 
CHEMBL4152228

>  <Source Description>  (361) 
Scientific Literature

>  <Document Journal>  (361) 
Eur J Med Chem

>  <Document Year>  (361) 
2018.0

>  <Active>  (361) 
0.0

$$$$

     RDKit          2D

 28 31  0  0  0  0  0  0  0  0999 V2000
    8.2500   -3.8971    0.0000 C   0  0  0  0  0  0  0  0  0  0  0  0
    7.5000   -2.5981    0.0000 N   0  0  0  0  0  0  0  0  0  0  0  0
    8.2500   -1.2990    0.0000 C   0  0  0  0  0  0  0  0  0  0  0  0
    6.0000   -2.5981    0.0000 C   0  0  0  0  0  0  0  0  0  0  0  0
    5.2500   -3.8971    0.0000 C   0  0  0  0  0  0  0  0  0  0  0  0
    3.7500   -3.8971    0.0000 C   0  0  0  0  0  0  0  0  0  0  0  0
    3.0000   -2.5981    0.0000 C   0  0  0  0  0  0  0  0  0  0  0  0
    1.5000   -2.5981    0.0000 N   0  0  0  0  0  0  0  0  0  0  0  0
    0.7500   -1.2990    0.0000 C   0  0  0  0  0  0  0  0  0  0  0  0
    1.5000    0.0000    0.0000 N   0  0  0  0  0  0  0  0  0  0  0  0
    0.7500    1.2990    0.0000 C   0  0  0  0  0  0  0  0  0  0  0  0
   -0.7500    1.2990    0.0000 N   0  0  0  0  0  0  0  0  0  0  0  0
   -1.5000    0.0000    0.0000 C   0  0  0  0  0  0  0  0  0  0  0  0
   -2.9672   -0.3119    0.0000 N   0  0  0  0  0  0  0  0  0  0  0  0
   -3.1240   -1.8037    0.0000 C   0  0  0  0  0  0  0  0  0  0  0  0
   -1.7537   -2.4138    0.0000 C   0  0  0  0  0  0  0  0  0  0  0  0
   -1.4418   -3.8810    0.0000 C   0  0  0  0  0  0  0  0  0  0  0  0
   -2.5565   -4.8847    0.0000 C   0  0  0  0  0  0  0  0  0  0  0  0
   -2.2447   -6.3519    0.0000 C   0  0  0  0  0  0  0  0  0  0  0  0
   -0.8181   -6.8154    0.0000 C   0  0  0  0  0  0  0  0  0  0  0  0
   -0.5062   -8.2826    0.0000 C   0  0  0  0  0  0  0  0  0  0  0  0
   -1.6209   -9.2863    0.0000 N   0  0  0  0  0  0  0  0  0  0  0  0
    0.9204   -8.7462    0.0000 O   0  0  0  0  0  0  0  0  0  0  0  0
    0.2966   -5.8117    0.0000 C   0  0  0  0  0  0  0  0  0  0  0  0
   -0.0152   -4.3445    0.0000 C   0  0  0  0  0  0  0  0  0  0  0  0
   -0.7500   -1.2990    0.0000 C   0  0  0  0  0  0  0  0  0  0  0  0
    3.7500   -1.2990    0.0000 C   0  0  0  0  0  0  0  0  0  0  0  0
    5.2500   -1.2990    0.0000 C   0  0  0  0  0  0  0  0  0  0  0  0
  1  2  1  0
  2  3  1  0
  4  2  1  1
  4  5  1  0
  5  6  1  0
  6  7  1  0
  7  8  1  6
  8  9  1  0
  9 10  2  0
 10 11  1  0
 11 12  2  0
 12 13  1  0
 13 14  1  0
 14 15  1  0
 15 16  2  0
 17 16  1  6
 17 18  1  0
 18 19  1  0
 19 20  1  0
 20 21  1  1
 21 22  1  0
 21 23  2  0
 20 24  1  0
 24 25  1  0
 16 26  1  0
  7 27  1  0
 27 28  1  0
 28  4  1  0
 26  9  1  0
 26 13  2  0
 25 17  1  0
M  END
>  <Compound_ID>  (362) 
CHEMBL4279192

>  <Molecule Name>  (362) 
nan

>  <Molecular Weight>  (362) 
384.53

>  <AlogP>  (362) 
3.00

>  <Smiles>  (362) 
CN(C)[C@H]1CC[C@H](Nc2ncnc3[nH]cc([C@H]4CC[C@H](C(N)=O)CC4)c23)CC1

>  <Standard Type>  (362) 
Inhibition

>  <Standard Relation>  (362) 
'='

>  <Standard Units>  (362) 
%

>  <Standard Value>  (362) 
4.0

>  <Assay ChEMBL ID>  (362) 
CHEMBL4266589

>  <Assay Description>  (362) 
Inhibition of human MET at 1 uM relative to control

>  <BAO Format ID>  (362) 
BAO_0000357

>  <BAO Label>  (362) 
single protein format

>  <Assay Organism>  (362) 
Homo sapiens

>  <Target ChEMBL ID>  (362) 
CHEMBL3717

>  <Target Name>  (362) 
Hepatocyte growth factor receptor

>  <Target Organism>  (362) 
Homo sapiens

>  <Target Type>  (362) 
SINGLE PROTEIN

>  <Document ChEMBL ID>  (362) 
CHEMBL4265877

>  <Source Description>  (362) 
Scientific Literature

>  <Document Journal>  (362) 
Bioorg Med Chem

>  <Document Year>  (362) 
2018.0

>  <Active>  (362) 
0.0

$$$$

     RDKit          2D

 37 42  0  0  0  0  0  0  0  0999 V2000
   -9.7500   -9.0933    0.0000 C   0  0  0  0  0  0  0  0  0  0  0  0
   -8.2500   -9.0933    0.0000 O   0  0  0  0  0  0  0  0  0  0  0  0
   -7.5000   -7.7942    0.0000 C   0  0  0  0  0  0  0  0  0  0  0  0
   -6.0000   -7.7942    0.0000 C   0  0  0  0  0  0  0  0  0  0  0  0
   -5.2500   -6.4952    0.0000 C   0  0  0  0  0  0  0  0  0  0  0  0
   -6.0000   -5.1962    0.0000 C   0  0  0  0  0  0  0  0  0  0  0  0
   -5.2500   -3.8971    0.0000 C   0  0  0  0  0  0  0  0  0  0  0  0
   -3.7500   -3.8971    0.0000 C   0  0  0  0  0  0  0  0  0  0  0  0
   -3.0000   -2.5981    0.0000 O   0  0  0  0  0  0  0  0  0  0  0  0
   -1.5000   -2.5981    0.0000 C   0  0  0  0  0  0  0  0  0  0  0  0
   -0.7500   -3.8971    0.0000 N   0  0  0  0  0  0  0  0  0  0  0  0
    0.7500   -3.8971    0.0000 C   0  0  0  0  0  0  0  0  0  0  0  0
    1.5000   -2.5981    0.0000 C   0  0  0  0  0  0  0  0  0  0  0  0
    2.9672   -2.9099    0.0000 N   0  0  0  0  0  0  0  0  0  0  0  0
    3.1240   -4.4017    0.0000 C   0  0  0  0  0  0  0  0  0  0  0  0
    4.4231   -5.1517    0.0000 O   0  0  0  0  0  0  0  0  0  0  0  0
    1.7537   -5.0118    0.0000 N   0  0  0  0  0  0  0  0  0  0  0  0
    1.4418   -6.4791    0.0000 C   0  0  0  0  0  0  0  0  0  0  0  0
    0.0152   -6.9426    0.0000 C   0  0  0  0  0  0  0  0  0  0  0  0
   -0.2966   -8.4098    0.0000 C   0  0  0  0  0  0  0  0  0  0  0  0
   -1.7232   -8.8733    0.0000 N   0  0  0  0  0  0  0  0  0  0  0  0
   -2.8379   -7.8696    0.0000 C   0  0  0  0  0  0  0  0  0  0  0  0
   -4.2645   -8.3332    0.0000 C   0  0  0  0  0  0  0  0  0  0  0  0
   -4.5764   -9.8004    0.0000 O   0  0  0  0  0  0  0  0  0  0  0  0
   -3.4617  -10.8041    0.0000 C   0  0  0  0  0  0  0  0  0  0  0  0
   -2.0351  -10.3405    0.0000 C   0  0  0  0  0  0  0  0  0  0  0  0
    0.7500   -1.2990    0.0000 C   0  0  0  0  0  0  0  0  0  0  0  0
    1.5000    0.0000    0.0000 N   0  0  0  0  0  0  0  0  0  0  0  0
    0.7500    1.2990    0.0000 C   0  0  0  0  0  0  0  0  0  0  0  0
   -0.7500    1.2990    0.0000 C   0  0  0  0  0  0  0  0  0  0  0  0
   -1.5000    0.0000    0.0000 C   0  0  0  0  0  0  0  0  0  0  0  0
   -0.7500   -1.2990    0.0000 C   0  0  0  0  0  0  0  0  0  0  0  0
   -6.0000   -2.5981    0.0000 C   0  0  0  0  0  0  0  0  0  0  0  0
   -7.5000   -2.5981    0.0000 C   0  0  0  0  0  0  0  0  0  0  0  0
   -8.2500   -3.8971    0.0000 N   0  0  0  0  0  0  0  0  0  0  0  0
   -7.5000   -5.1962    0.0000 C   0  0  0  0  0  0  0  0  0  0  0  0
   -8.2500   -6.4952    0.0000 C   0  0  0  0  0  0  0  0  0  0  0  0
  1  2  1  0
  2  3  1  0
  3  4  2  0
  4  5  1  0
  5  6  2  0
  6  7  1  0
  7  8  1  0
  8  9  1  0
  9 10  1  0
 10 11  2  0
 11 12  1  0
 12 13  2  0
 13 14  1  0
 14 15  1  0
 15 16  2  0
 15 17  1  0
 17 18  1  0
 18 19  1  0
 19 20  1  0
 20 21  1  0
 21 22  1  0
 22 23  1  0
 23 24  1  0
 24 25  1  0
 25 26  1  0
 13 27  1  0
 27 28  2  0
 28 29  1  0
 29 30  2  0
 30 31  1  0
 31 32  2  0
  7 33  2  0
 33 34  1  0
 34 35  2  0
 35 36  1  0
 36 37  2  0
 37  3  1  0
 36  6  1  0
 32 10  1  0
 17 12  1  0
 26 21  1  0
 32 27  1  0
M  END
>  <Compound_ID>  (363) 
CHEMBL3360177

>  <Molecule Name>  (363) 
nan

>  <Molecular Weight>  (363) 
500.56

>  <AlogP>  (363) 
3.13

>  <Smiles>  (363) 
COc1ccc2c(COc3nc4c([nH]c(=O)n4CCCN4CCOCC4)c4ncccc34)ccnc2c1

>  <Standard Type>  (363) 
Inhibition

>  <Standard Relation>  (363) 
'='

>  <Standard Units>  (363) 
%

>  <Standard Value>  (363) 
19.7

>  <Assay ChEMBL ID>  (363) 
CHEMBL3374142

>  <Assay Description>  (363) 
Inhibition of recombinant c-Met (unknown origin) at 10 uM using poly (Glu,Tyr)4:1 substrate incubated for 60 mins by ELISA method

>  <BAO Format ID>  (363) 
BAO_0000357

>  <BAO Label>  (363) 
single protein format

>  <Assay Organism>  (363) 
Homo sapiens

>  <Target ChEMBL ID>  (363) 
CHEMBL3717

>  <Target Name>  (363) 
Hepatocyte growth factor receptor

>  <Target Organism>  (363) 
Homo sapiens

>  <Target Type>  (363) 
SINGLE PROTEIN

>  <Document ChEMBL ID>  (363) 
CHEMBL3352075

>  <Source Description>  (363) 
Scientific Literature

>  <Document Journal>  (363) 
Bioorg Med Chem Lett

>  <Document Year>  (363) 
2015.0

>  <Active>  (363) 
0.0

$$$$

     RDKit          2D

 37 41  0  0  0  0  0  0  0  0999 V2000
   -3.0000   -5.1962    0.0000 C   0  0  0  0  0  0  0  0  0  0  0  0
   -1.5000   -5.1962    0.0000 O   0  0  0  0  0  0  0  0  0  0  0  0
   -0.7500   -3.8971    0.0000 C   0  0  0  0  0  0  0  0  0  0  0  0
   -1.5000   -2.5981    0.0000 C   0  0  0  0  0  0  0  0  0  0  0  0
   -0.7500   -1.2990    0.0000 C   0  0  0  0  0  0  0  0  0  0  0  0
    0.7500   -1.2990    0.0000 C   0  0  0  0  0  0  0  0  0  0  0  0
    1.5000   -2.5981    0.0000 C   0  0  0  0  0  0  0  0  0  0  0  0
    0.7500   -3.8971    0.0000 C   0  0  0  0  0  0  0  0  0  0  0  0
    1.5000   -5.1962    0.0000 N   0  0  0  0  0  0  0  0  0  0  0  0
    0.7500   -6.4952    0.0000 C   0  0  0  0  0  0  0  0  0  0  0  0
   -0.7500   -6.4952    0.0000 N   0  0  0  0  0  0  0  0  0  0  0  0
   -1.5000   -7.7942    0.0000 C   0  0  0  0  0  0  0  0  0  0  0  0
   -3.0000   -7.7942    0.0000 N   0  0  0  0  0  0  0  0  0  0  0  0
   -3.7500   -9.0933    0.0000 C   0  0  0  0  0  0  0  0  0  0  0  0
   -3.1399  -10.4636    0.0000 C   0  0  0  0  0  0  0  0  0  0  0  0
   -4.2546  -11.4673    0.0000 C   0  0  0  0  0  0  0  0  0  0  0  0
   -5.5537  -10.7173    0.0000 S   0  0  0  0  0  0  0  0  0  0  0  0
   -5.2418   -9.2501    0.0000 C   0  0  0  0  0  0  0  0  0  0  0  0
   -6.2455   -8.1353    0.0000 C   0  0  0  0  0  0  0  0  0  0  0  0
   -7.7127   -8.4472    0.0000 N   0  0  0  0  0  0  0  0  0  0  0  0
   -5.7820   -6.7088    0.0000 O   0  0  0  0  0  0  0  0  0  0  0  0
   -0.7500   -9.0933    0.0000 C   0  0  0  0  0  0  0  0  0  0  0  0
   -1.2135  -10.5199    0.0000 C   0  0  0  0  0  0  0  0  0  0  0  0
   -0.0000  -11.4015    0.0000 C   0  0  0  0  0  0  0  0  0  0  0  0
    1.2135  -10.5199    0.0000 N   0  0  0  0  0  0  0  0  0  0  0  0
    0.7500   -9.0933    0.0000 C   0  0  0  0  0  0  0  0  0  0  0  0
    1.5000   -7.7942    0.0000 N   0  0  0  0  0  0  0  0  0  0  0  0
    1.5000    0.0000    0.0000 N   0  0  0  0  0  0  0  0  0  0  0  0
    3.0000    0.0000    0.0000 C   0  0  0  0  0  0  0  0  0  0  0  0
    3.7500   -1.2990    0.0000 O   0  0  0  0  0  0  0  0  0  0  0  0
    3.7500    1.2990    0.0000 C   0  0  0  0  0  0  0  0  0  0  0  0
    5.2500    1.2990    0.0000 N   0  0  0  0  0  0  0  0  0  0  0  0
    6.0000    2.5981    0.0000 C   0  0  0  0  0  0  0  0  0  0  0  0
    6.0000    0.0000    0.0000 C   0  0  0  0  0  0  0  0  0  0  0  0
    0.7500    1.2990    0.0000 C   0  0  0  0  0  0  0  0  0  0  0  0
   -0.7500    1.2990    0.0000 C   0  0  0  0  0  0  0  0  0  0  0  0
   -1.5000    0.0000    0.0000 C   0  0  0  0  0  0  0  0  0  0  0  0
  1  2  1  0
  2  3  1  0
  3  4  2  0
  4  5  1  0
  5  6  2  0
  6  7  1  0
  7  8  2  0
  8  9  1  0
  9 10  1  0
 10 11  2  0
 11 12  1  0
 12 13  1  0
 13 14  1  0
 14 15  1  0
 15 16  2  0
 16 17  1  0
 17 18  1  0
 18 19  1  0
 19 20  1  0
 19 21  2  0
 12 22  2  0
 22 23  1  0
 23 24  2  0
 24 25  1  0
 25 26  1  0
 26 27  2  0
  6 28  1  0
 28 29  1  0
 29 30  2  0
 29 31  1  0
 31 32  1  0
 32 33  1  0
 32 34  1  0
 28 35  1  0
 35 36  1  0
 36 37  1  0
  8  3  1  0
 27 10  1  0
 37  5  1  0
 18 14  2  0
 26 22  1  0
M  END
>  <Compound_ID>  (364) 
CHEMBL456252

>  <Molecule Name>  (364) 
GSK-2110236A

>  <Molecular Weight>  (364) 
520.62

>  <AlogP>  (364) 
3.45

>  <Smiles>  (364) 
COc1cc2c(cc1Nc1nc(Nc3ccsc3C(N)=O)c3cc[nH]c3n1)N(C(=O)CN(C)C)CCC2

>  <Standard Type>  (364) 
Inhibition

>  <Standard Relation>  (364) 
'='

>  <Standard Units>  (364) 
%

>  <Standard Value>  (364) 
7.29

>  <Assay ChEMBL ID>  (364) 
CHEMBL1962143

>  <Assay Description>  (364) 
GSK_PKIS: MET mean inhibition at 1 uM [Nanosyn]

>  <BAO Format ID>  (364) 
BAO_0000357

>  <BAO Label>  (364) 
single protein format

>  <Assay Organism>  (364) 
None

>  <Target ChEMBL ID>  (364) 
CHEMBL3717

>  <Target Name>  (364) 
Hepatocyte growth factor receptor

>  <Target Organism>  (364) 
Homo sapiens

>  <Target Type>  (364) 
SINGLE PROTEIN

>  <Document ChEMBL ID>  (364) 
CHEMBL1961873

>  <Source Description>  (364) 
GSK Published Kinase Inhibitor Set

>  <Document Journal>  (364) 
nan

>  <Document Year>  (364) 
nan

>  <Active>  (364) 
0.0

$$$$

     RDKit          2D

 28 32  0  0  0  0  0  0  0  0999 V2000
    3.0000   -2.5981    0.0000 O   0  0  0  0  0  0  0  0  0  0  0  0
    1.5000   -2.5981    0.0000 C   0  0  0  0  0  0  0  0  0  0  0  0
    0.7500   -1.2990    0.0000 C   0  0  0  0  0  0  0  0  0  0  0  0
    1.5000    0.0000    0.0000 C   0  0  0  0  0  0  0  0  0  0  0  0
    0.7500    1.2990    0.0000 C   0  0  0  0  0  0  0  0  0  0  0  0
   -0.7500    1.2990    0.0000 C   0  0  0  0  0  0  0  0  0  0  0  0
    0.0000    2.5981    0.0000 C   0  0  0  0  0  0  0  0  0  0  0  0
   -0.7500    3.8971    0.0000 C   0  0  0  0  0  0  0  0  0  0  0  0
   -2.2500    3.8971    0.0000 N   0  0  0  0  0  0  0  0  0  0  0  0
   -3.0000    5.1962    0.0000 C   0  0  0  0  0  0  0  0  0  0  0  0
   -4.5000    5.1962    0.0000 N   0  0  0  0  0  0  0  0  0  0  0  0
   -5.2500    6.4952    0.0000 C   0  0  0  0  0  0  0  0  0  0  0  0
   -4.5000    7.7942    0.0000 N   0  0  0  0  0  0  0  0  0  0  0  0
   -3.0000    7.7942    0.0000 C   0  0  0  0  0  0  0  0  0  0  0  0
   -1.9963    8.9089    0.0000 N   0  0  0  0  0  0  0  0  0  0  0  0
   -0.6260    8.2988    0.0000 C   0  0  0  0  0  0  0  0  0  0  0  0
   -0.7828    6.8071    0.0000 N   0  0  0  0  0  0  0  0  0  0  0  0
   -2.2500    6.4952    0.0000 C   0  0  0  0  0  0  0  0  0  0  0  0
   -3.0000    2.5981    0.0000 C   0  0  0  0  0  0  0  0  0  0  0  0
   -2.2500    1.2990    0.0000 C   0  0  0  0  0  0  0  0  0  0  0  0
   -1.5000    0.0000    0.0000 N   0  0  0  0  0  0  0  0  0  0  0  0
   -0.7500   -1.2990    0.0000 C   0  0  0  0  0  0  0  0  0  0  0  0
    0.7500   -3.8971    0.0000 N   0  0  0  0  0  0  0  0  0  0  0  0
   -0.7500   -3.8971    0.0000 C   0  0  0  0  0  0  0  0  0  0  0  0
   -1.5000   -5.1962    0.0000 C   0  0  0  0  0  0  0  0  0  0  0  0
   -0.7500   -6.4952    0.0000 O   0  0  0  0  0  0  0  0  0  0  0  0
    0.7500   -6.4952    0.0000 C   0  0  0  0  0  0  0  0  0  0  0  0
    1.5000   -5.1962    0.0000 C   0  0  0  0  0  0  0  0  0  0  0  0
  1  2  2  0
  2  3  1  0
  3  4  1  0
  4  5  1  0
  5  6  1  0
  6  7  1  0
  7  8  1  0
  8  9  1  0
  9 10  1  0
 10 11  2  0
 11 12  1  0
 12 13  2  0
 13 14  1  0
 14 15  1  0
 15 16  1  0
 16 17  2  0
 17 18  1  0
  9 19  1  0
 19 20  1  0
  6 21  1  0
 21 22  1  0
  2 23  1  0
 23 24  1  0
 24 25  1  0
 25 26  1  0
 26 27  1  0
 27 28  1  0
 22  3  1  0
 28 23  1  0
 20  6  1  0
 18 10  1  0
 18 14  2  0
M  END
>  <Compound_ID>  (365) 
CHEMBL2420907

>  <Molecule Name>  (365) 
nan

>  <Molecular Weight>  (365) 
385.47

>  <AlogP>  (365) 
0.55

>  <Smiles>  (365) 
O=C(C1CCC2(CCN(c3ncnc4[nH]cnc34)CC2)NC1)N1CCOCC1

>  <Standard Type>  (365) 
Inhibition

>  <Standard Relation>  (365) 
'='

>  <Standard Units>  (365) 
%

>  <Standard Value>  (365) 
8.0

>  <Assay ChEMBL ID>  (365) 
CHEMBL2424318

>  <Assay Description>  (365) 
Inhibition of MET (unknown origin) at 30 uM by microfluidic mobility shift assay relative to control

>  <BAO Format ID>  (365) 
BAO_0000357

>  <BAO Label>  (365) 
single protein format

>  <Assay Organism>  (365) 
Homo sapiens

>  <Target ChEMBL ID>  (365) 
CHEMBL3717

>  <Target Name>  (365) 
Hepatocyte growth factor receptor

>  <Target Organism>  (365) 
Homo sapiens

>  <Target Type>  (365) 
SINGLE PROTEIN

>  <Document ChEMBL ID>  (365) 
CHEMBL2417369

>  <Source Description>  (365) 
Scientific Literature

>  <Document Journal>  (365) 
Bioorg Med Chem

>  <Document Year>  (365) 
2013.0

>  <Active>  (365) 
0.0

$$$$

     RDKit          2D

 12 13  0  0  0  0  0  0  0  0999 V2000
   -0.0967    5.1517    0.0000 C   0  0  0  0  0  0  0  0  0  0  0  0
   -0.4086    3.6844    0.0000 C   0  0  0  0  0  0  0  0  0  0  0  0
    0.7062    2.6807    0.0000 C   0  0  0  0  0  0  0  0  0  0  0  0
    0.3943    1.2135    0.0000 C   0  0  0  0  0  0  0  0  0  0  0  0
    1.2760    0.0000    0.0000 N   0  0  0  0  0  0  0  0  0  0  0  0
    0.3943   -1.2135    0.0000 N   0  0  0  0  0  0  0  0  0  0  0  0
   -1.0323   -0.7500    0.0000 C   0  0  0  0  0  0  0  0  0  0  0  0
   -2.2458   -1.6317    0.0000 N   0  0  0  0  0  0  0  0  0  0  0  0
   -1.0323    0.7500    0.0000 C   0  0  0  0  0  0  0  0  0  0  0  0
   -2.1470    1.7537    0.0000 C   0  0  0  0  0  0  0  0  0  0  0  0
   -3.5736    1.2902    0.0000 O   0  0  0  0  0  0  0  0  0  0  0  0
   -1.8351    3.2209    0.0000 N   0  0  0  0  0  0  0  0  0  0  0  0
  1  2  1  0
  2  3  2  0
  3  4  1  0
  4  5  1  0
  5  6  1  0
  6  7  2  0
  7  8  1  0
  7  9  1  0
  9 10  1  0
 10 11  2  0
 10 12  1  0
 12  2  1  0
  9  4  2  0
M  END
>  <Compound_ID>  (366) 
CHEMBL1813604

>  <Molecule Name>  (366) 
nan

>  <Molecular Weight>  (366) 
164.17

>  <AlogP>  (366) 
0.14

>  <Smiles>  (366) 
Cc1cc2[nH]nc(N)c2c(=O)[nH]1

>  <Standard Type>  (366) 
Inhibition

>  <Standard Relation>  (366) 
'='

>  <Standard Units>  (366) 
%

>  <Standard Value>  (366) 
-8.0

>  <Assay ChEMBL ID>  (366) 
CHEMBL1815730

>  <Assay Description>  (366) 
Inhibition of MET at 30 uM by microfluidic mobility shift assay

>  <BAO Format ID>  (366) 
BAO_0000357

>  <BAO Label>  (366) 
single protein format

>  <Assay Organism>  (366) 
None

>  <Target ChEMBL ID>  (366) 
CHEMBL3717

>  <Target Name>  (366) 
Hepatocyte growth factor receptor

>  <Target Organism>  (366) 
Homo sapiens

>  <Target Type>  (366) 
SINGLE PROTEIN

>  <Document ChEMBL ID>  (366) 
CHEMBL1811853

>  <Source Description>  (366) 
Scientific Literature

>  <Document Journal>  (366) 
Bioorg Med Chem

>  <Document Year>  (366) 
2011.0

>  <Active>  (366) 
0.0

$$$$

     RDKit          2D

 22 24  0  0  0  0  0  0  0  0999 V2000
    3.0847  -11.5290    0.0000 N   0  0  0  0  0  0  0  0  0  0  0  0
    2.7729  -10.0617    0.0000 C   0  0  0  0  0  0  0  0  0  0  0  0
    3.8876   -9.0580    0.0000 C   0  0  0  0  0  0  0  0  0  0  0  0
    3.5757   -7.5908    0.0000 N   0  0  0  0  0  0  0  0  0  0  0  0
    4.6904   -6.5871    0.0000 C   0  0  0  0  0  0  0  0  0  0  0  0
    6.1170   -7.0506    0.0000 O   0  0  0  0  0  0  0  0  0  0  0  0
    4.3786   -5.1199    0.0000 C   0  0  0  0  0  0  0  0  0  0  0  0
    2.9520   -4.6564    0.0000 C   0  0  0  0  0  0  0  0  0  0  0  0
    2.6401   -3.1891    0.0000 C   0  0  0  0  0  0  0  0  0  0  0  0
    1.2135   -2.7256    0.0000 C   0  0  0  0  0  0  0  0  0  0  0  0
   -0.0000   -3.6073    0.0000 S   0  0  0  0  0  0  0  0  0  0  0  0
   -1.2135   -2.7256    0.0000 C   0  0  0  0  0  0  0  0  0  0  0  0
   -0.7500   -1.2990    0.0000 C   0  0  0  0  0  0  0  0  0  0  0  0
    0.7500   -1.2990    0.0000 C   0  0  0  0  0  0  0  0  0  0  0  0
    1.5000    0.0000    0.0000 O   0  0  0  0  0  0  0  0  0  0  0  0
    0.7500    1.2990    0.0000 C   0  0  0  0  0  0  0  0  0  0  0  0
   -0.7500    1.2990    0.0000 C   0  0  0  0  0  0  0  0  0  0  0  0
   -1.5000    0.0000    0.0000 O   0  0  0  0  0  0  0  0  0  0  0  0
    3.7548   -2.1855    0.0000 C   0  0  0  0  0  0  0  0  0  0  0  0
    5.1814   -2.6490    0.0000 N   0  0  0  0  0  0  0  0  0  0  0  0
    5.4933   -4.1162    0.0000 C   0  0  0  0  0  0  0  0  0  0  0  0
    6.9199   -4.5797    0.0000 N   0  0  0  0  0  0  0  0  0  0  0  0
  1  2  1  0
  2  3  1  0
  3  4  1  0
  4  5  1  0
  5  6  2  0
  5  7  1  0
  7  8  2  0
  8  9  1  0
  9 10  1  0
 10 11  1  0
 11 12  1  0
 12 13  2  0
 13 14  1  0
 14 15  1  0
 15 16  1  0
 16 17  1  0
 17 18  1  0
  9 19  2  0
 19 20  1  0
 20 21  2  0
 21 22  1  0
 21  7  1  0
 14 10  2  0
 18 13  1  0
M  END
>  <Compound_ID>  (367) 
CHEMBL599171

>  <Molecule Name>  (367) 
nan

>  <Molecular Weight>  (367) 
320.37

>  <AlogP>  (367) 
0.85

>  <Smiles>  (367) 
NCCNC(=O)c1cc(-c2scc3c2OCCO3)cnc1N

>  <Standard Type>  (367) 
Inhibition

>  <Standard Relation>  (367) 
'='

>  <Standard Units>  (367) 
%

>  <Standard Value>  (367) 
3.0

>  <Assay ChEMBL ID>  (367) 
CHEMBL1069043

>  <Assay Description>  (367) 
Inhibition of MET at 1 uM by microfluidic substrate phosphorylation assay

>  <BAO Format ID>  (367) 
BAO_0000357

>  <BAO Label>  (367) 
single protein format

>  <Assay Organism>  (367) 
None

>  <Target ChEMBL ID>  (367) 
CHEMBL3717

>  <Target Name>  (367) 
Hepatocyte growth factor receptor

>  <Target Organism>  (367) 
Homo sapiens

>  <Target Type>  (367) 
SINGLE PROTEIN

>  <Document ChEMBL ID>  (367) 
CHEMBL1158506

>  <Source Description>  (367) 
Scientific Literature

>  <Document Journal>  (367) 
Bioorg Med Chem

>  <Document Year>  (367) 
2010.0

>  <Active>  (367) 
0.0

$$$$

     RDKit          2D

 24 27  0  0  0  0  0  0  0  0999 V2000
    3.7500   -1.2990    0.0000 C   0  0  0  0  0  0  0  0  0  0  0  0
    3.0000    0.0000    0.0000 O   0  0  0  0  0  0  0  0  0  0  0  0
    1.5000    0.0000    0.0000 C   0  0  0  0  0  0  0  0  0  0  0  0
    0.7500   -1.2990    0.0000 C   0  0  0  0  0  0  0  0  0  0  0  0
   -0.7500   -1.2990    0.0000 C   0  0  0  0  0  0  0  0  0  0  0  0
   -1.5000   -2.5981    0.0000 N   0  0  0  0  0  0  0  0  0  0  0  0
   -3.0000   -2.5981    0.0000 C   0  0  0  0  0  0  0  0  0  0  0  0
   -3.7500   -3.8971    0.0000 C   0  0  0  0  0  0  0  0  0  0  0  0
   -3.1399   -5.2674    0.0000 C   0  0  0  0  0  0  0  0  0  0  0  0
   -4.2546   -6.2711    0.0000 C   0  0  0  0  0  0  0  0  0  0  0  0
   -5.5537   -5.5211    0.0000 C   0  0  0  0  0  0  0  0  0  0  0  0
   -5.2418   -4.0539    0.0000 S   0  0  0  0  0  0  0  0  0  0  0  0
   -3.7500   -1.2990    0.0000 C   0  0  0  0  0  0  0  0  0  0  0  0
   -5.2500   -1.2990    0.0000 C   0  0  0  0  0  0  0  0  0  0  0  0
   -6.1317   -2.5126    0.0000 C   0  0  0  0  0  0  0  0  0  0  0  0
   -7.5583   -2.0490    0.0000 C   0  0  0  0  0  0  0  0  0  0  0  0
   -7.5583   -0.5490    0.0000 C   0  0  0  0  0  0  0  0  0  0  0  0
   -6.1317   -0.0855    0.0000 S   0  0  0  0  0  0  0  0  0  0  0  0
   -3.0000    0.0000    0.0000 N   0  0  0  0  0  0  0  0  0  0  0  0
   -1.5000    0.0000    0.0000 C   0  0  0  0  0  0  0  0  0  0  0  0
   -0.7500    1.2990    0.0000 C   0  0  0  0  0  0  0  0  0  0  0  0
    0.7500    1.2990    0.0000 C   0  0  0  0  0  0  0  0  0  0  0  0
    1.5000    2.5981    0.0000 O   0  0  0  0  0  0  0  0  0  0  0  0
    0.7500    3.8971    0.0000 C   0  0  0  0  0  0  0  0  0  0  0  0
  1  2  1  0
  2  3  1  0
  3  4  2  0
  4  5  1  0
  5  6  2  0
  6  7  1  0
  7  8  1  0
  8  9  2  0
  9 10  1  0
 10 11  2  0
 11 12  1  0
  7 13  2  0
 13 14  1  0
 14 15  2  0
 15 16  1  0
 16 17  2  0
 17 18  1  0
 13 19  1  0
 19 20  2  0
 20 21  1  0
 21 22  2  0
 22 23  1  0
 23 24  1  0
 22  3  1  0
 20  5  1  0
 12  8  1  0
 18 14  1  0
M  END
>  <Compound_ID>  (368) 
CHEMBL373367

>  <Molecule Name>  (368) 
nan

>  <Molecular Weight>  (368) 
354.46

>  <AlogP>  (368) 
5.10

>  <Smiles>  (368) 
COc1cc2nc(-c3cccs3)c(-c3cccs3)nc2cc1OC

>  <Standard Type>  (368) 
Inhibition

>  <Standard Relation>  (368) 
'='

>  <Standard Units>  (368) 
%

>  <Standard Value>  (368) 
-3.0

>  <Assay ChEMBL ID>  (368) 
CHEMBL835467

>  <Assay Description>  (368) 
In vitro percent inhibition of Met proto-oncogene tyrosine kinase at 10 uM concentration of compound dissolved in 100% DMSO using 5''-[gamma-33P]-triphosphate

>  <BAO Format ID>  (368) 
BAO_0000357

>  <BAO Label>  (368) 
single protein format

>  <Assay Organism>  (368) 
None

>  <Target ChEMBL ID>  (368) 
CHEMBL3717

>  <Target Name>  (368) 
Hepatocyte growth factor receptor

>  <Target Organism>  (368) 
Homo sapiens

>  <Target Type>  (368) 
SINGLE PROTEIN

>  <Document ChEMBL ID>  (368) 
CHEMBL1140238

>  <Source Description>  (368) 
Scientific Literature

>  <Document Journal>  (368) 
Bioorg Med Chem Lett

>  <Document Year>  (368) 
2005.0

>  <Active>  (368) 
0.0

$$$$

     RDKit          2D

 31 34  0  0  0  0  0  0  0  0999 V2000
    3.0000   -2.5981    0.0000 O   0  0  0  0  0  0  0  0  0  0  0  0
    1.5000   -2.5981    0.0000 C   0  0  0  0  0  0  0  0  0  0  0  0
    0.7500   -3.8971    0.0000 N   0  0  0  0  0  0  0  0  0  0  0  0
    1.5000   -5.1962    0.0000 C   0  0  0  0  0  0  0  0  0  0  0  0
    3.0000   -5.1962    0.0000 C   0  0  0  0  0  0  0  0  0  0  0  0
    3.7500   -6.4952    0.0000 O   0  0  0  0  0  0  0  0  0  0  0  0
    0.7500   -6.4952    0.0000 C   0  0  0  0  0  0  0  0  0  0  0  0
   -0.7500   -6.4952    0.0000 C   0  0  0  0  0  0  0  0  0  0  0  0
   -1.5000   -7.7942    0.0000 C   0  0  0  0  0  0  0  0  0  0  0  0
   -0.7500   -9.0933    0.0000 C   0  0  0  0  0  0  0  0  0  0  0  0
   -1.5000  -10.3923    0.0000 Cl  0  0  0  0  0  0  0  0  0  0  0  0
    0.7500   -9.0933    0.0000 C   0  0  0  0  0  0  0  0  0  0  0  0
    1.5000  -10.3923    0.0000 F   0  0  0  0  0  0  0  0  0  0  0  0
    1.5000   -7.7942    0.0000 C   0  0  0  0  0  0  0  0  0  0  0  0
    0.7500   -1.2990    0.0000 N   0  0  0  0  0  0  0  0  0  0  0  0
    1.5000    0.0000    0.0000 C   0  0  0  0  0  0  0  0  0  0  0  0
    0.7500    1.2990    0.0000 C   0  0  0  0  0  0  0  0  0  0  0  0
   -0.7500    1.2990    0.0000 C   0  0  0  0  0  0  0  0  0  0  0  0
   -1.5000    2.5981    0.0000 C   0  0  0  0  0  0  0  0  0  0  0  0
   -3.0000    2.5981    0.0000 N   0  0  0  0  0  0  0  0  0  0  0  0
   -3.7500    1.2990    0.0000 C   0  0  0  0  0  0  0  0  0  0  0  0
   -5.2500    1.2990    0.0000 N   0  0  0  0  0  0  0  0  0  0  0  0
   -6.0000    2.5981    0.0000 C   0  0  0  0  0  0  0  0  0  0  0  0
   -5.2500    3.8971    0.0000 C   0  0  0  0  0  0  0  0  0  0  0  0
   -6.0000    5.1962    0.0000 C   0  0  0  0  0  0  0  0  0  0  0  0
   -7.5000    5.1962    0.0000 O   0  0  0  0  0  0  0  0  0  0  0  0
   -8.2500    3.8971    0.0000 C   0  0  0  0  0  0  0  0  0  0  0  0
   -7.5000    2.5981    0.0000 C   0  0  0  0  0  0  0  0  0  0  0  0
   -3.0000    0.0000    0.0000 N   0  0  0  0  0  0  0  0  0  0  0  0
   -1.5000    0.0000    0.0000 C   0  0  0  0  0  0  0  0  0  0  0  0
   -0.7500   -1.2990    0.0000 C   0  0  0  0  0  0  0  0  0  0  0  0
  1  2  2  0
  2  3  1  0
  3  4  1  0
  4  5  1  6
  5  6  1  0
  4  7  1  0
  7  8  2  0
  8  9  1  0
  9 10  2  0
 10 11  1  0
 10 12  1  0
 12 13  1  0
 12 14  2  0
  2 15  1  0
 15 16  1  0
 16 17  1  0
 17 18  1  0
 18 19  2  0
 19 20  1  0
 20 21  2  0
 21 22  1  0
 22 23  1  0
 23 24  1  0
 24 25  1  0
 25 26  1  0
 26 27  1  0
 27 28  1  0
 21 29  1  0
 29 30  2  0
 30 31  1  0
 14  7  1  0
 31 15  1  0
 30 18  1  0
 28 23  1  0
M  END
>  <Compound_ID>  (369) 
CHEMBL3298678

>  <Molecule Name>  (369) 
nan

>  <Molecular Weight>  (369) 
449.91

>  <AlogP>  (369) 
2.66

>  <Smiles>  (369) 
O=C(N[C@H](CO)c1ccc(Cl)c(F)c1)N1CCc2cnc(NC3CCOCC3)nc2C1

>  <Standard Type>  (369) 
Inhibition

>  <Standard Relation>  (369) 
'='

>  <Standard Units>  (369) 
%

>  <Standard Value>  (369) 
9.3

>  <Assay ChEMBL ID>  (369) 
CHEMBL3361528

>  <Assay Description>  (369) 
Inhibition of Met (unknown origin) at 100 nM

>  <BAO Format ID>  (369) 
BAO_0000357

>  <BAO Label>  (369) 
single protein format

>  <Assay Organism>  (369) 
Homo sapiens

>  <Target ChEMBL ID>  (369) 
CHEMBL3717

>  <Target Name>  (369) 
Hepatocyte growth factor receptor

>  <Target Organism>  (369) 
Homo sapiens

>  <Target Type>  (369) 
SINGLE PROTEIN

>  <Document ChEMBL ID>  (369) 
CHEMBL3297705

>  <Source Description>  (369) 
Scientific Literature

>  <Document Journal>  (369) 
Bioorg Med Chem Lett

>  <Document Year>  (369) 
2014.0

>  <Active>  (369) 
0.0

$$$$

     RDKit          2D

 30 33  0  0  0  0  0  0  0  0999 V2000
    1.3299    5.6152    0.0000 C   0  0  0  0  0  0  0  0  0  0  0  0
   -0.0967    5.1517    0.0000 O   0  0  0  0  0  0  0  0  0  0  0  0
   -0.4086    3.6844    0.0000 C   0  0  0  0  0  0  0  0  0  0  0  0
    0.7062    2.6807    0.0000 C   0  0  0  0  0  0  0  0  0  0  0  0
    0.3943    1.2135    0.0000 C   0  0  0  0  0  0  0  0  0  0  0  0
    1.2760    0.0000    0.0000 N   0  0  0  0  0  0  0  0  0  0  0  0
    0.3943   -1.2135    0.0000 C   0  0  0  0  0  0  0  0  0  0  0  0
   -1.0323   -0.7500    0.0000 N   0  0  0  0  0  0  0  0  0  0  0  0
   -2.2458   -1.6317    0.0000 C   0  0  0  0  0  0  0  0  0  0  0  0
   -2.2458   -3.1317    0.0000 C   0  0  0  0  0  0  0  0  0  0  0  0
   -3.6724   -3.5952    0.0000 C   0  0  0  0  0  0  0  0  0  0  0  0
   -4.1359   -5.0218    0.0000 O   0  0  0  0  0  0  0  0  0  0  0  0
   -5.6031   -5.3337    0.0000 C   0  0  0  0  0  0  0  0  0  0  0  0
   -6.0667   -6.7602    0.0000 C   0  0  0  0  0  0  0  0  0  0  0  0
   -7.5339   -7.0721    0.0000 C   0  0  0  0  0  0  0  0  0  0  0  0
   -7.9974   -8.4987    0.0000 C   0  0  0  0  0  0  0  0  0  0  0  0
   -6.9937   -9.6134    0.0000 C   0  0  0  0  0  0  0  0  0  0  0  0
   -5.5265   -9.3015    0.0000 C   0  0  0  0  0  0  0  0  0  0  0  0
   -5.0630   -7.8750    0.0000 C   0  0  0  0  0  0  0  0  0  0  0  0
   -3.5958   -7.5631    0.0000 Cl  0  0  0  0  0  0  0  0  0  0  0  0
   -4.5541   -2.3817    0.0000 C   0  0  0  0  0  0  0  0  0  0  0  0
   -6.0541   -2.3817    0.0000 C   0  0  0  0  0  0  0  0  0  0  0  0
   -6.8041   -1.0826    0.0000 N   0  0  0  0  0  0  0  0  0  0  0  0
   -6.8041   -3.6807    0.0000 O   0  0  0  0  0  0  0  0  0  0  0  0
   -3.6724   -1.1682    0.0000 S   0  0  0  0  0  0  0  0  0  0  0  0
   -1.0323    0.7500    0.0000 C   0  0  0  0  0  0  0  0  0  0  0  0
   -2.1470    1.7537    0.0000 C   0  0  0  0  0  0  0  0  0  0  0  0
   -1.8351    3.2209    0.0000 C   0  0  0  0  0  0  0  0  0  0  0  0
   -2.9499    4.2246    0.0000 O   0  0  0  0  0  0  0  0  0  0  0  0
   -4.3764    3.7611    0.0000 C   0  0  0  0  0  0  0  0  0  0  0  0
  1  2  1  0
  2  3  1  0
  3  4  2  0
  4  5  1  0
  5  6  1  0
  6  7  2  0
  7  8  1  0
  8  9  1  0
  9 10  2  0
 10 11  1  0
 11 12  1  0
 12 13  1  0
 13 14  1  0
 14 15  2  0
 15 16  1  0
 16 17  2  0
 17 18  1  0
 18 19  2  0
 19 20  1  0
 11 21  2  0
 21 22  1  0
 22 23  1  0
 22 24  2  0
 21 25  1  0
  8 26  1  0
 26 27  1  0
 27 28  2  0
 28 29  1  0
 29 30  1  0
 28  3  1  0
 26  5  2  0
 25  9  1  0
 19 14  1  0
M  END
>  <Compound_ID>  (370) 
CHEMBL514162

>  <Molecule Name>  (370) 
GW852849X

>  <Molecular Weight>  (370) 
443.91

>  <AlogP>  (370) 
4.44

>  <Smiles>  (370) 
COc1cc2ncn(-c3cc(OCc4ccccc4Cl)c(C(N)=O)s3)c2cc1OC

>  <Standard Type>  (370) 
Inhibition

>  <Standard Relation>  (370) 
'='

>  <Standard Units>  (370) 
%

>  <Standard Value>  (370) 
-0.6

>  <Assay ChEMBL ID>  (370) 
CHEMBL1962142

>  <Assay Description>  (370) 
GSK_PKIS: MET mean inhibition at 0.1 uM [Nanosyn]

>  <BAO Format ID>  (370) 
BAO_0000357

>  <BAO Label>  (370) 
single protein format

>  <Assay Organism>  (370) 
None

>  <Target ChEMBL ID>  (370) 
CHEMBL3717

>  <Target Name>  (370) 
Hepatocyte growth factor receptor

>  <Target Organism>  (370) 
Homo sapiens

>  <Target Type>  (370) 
SINGLE PROTEIN

>  <Document ChEMBL ID>  (370) 
CHEMBL1961873

>  <Source Description>  (370) 
GSK Published Kinase Inhibitor Set

>  <Document Journal>  (370) 
nan

>  <Document Year>  (370) 
nan

>  <Active>  (370) 
0.0

$$$$

     RDKit          2D

 40 45  0  0  0  0  0  0  0  0999 V2000
    5.3011  -10.7993    0.0000 O   0  0  0  0  0  1  0  0  0  0  0  0
    5.1443   -9.3075    0.0000 S   0  0  0  0  0  3  0  0  0  0  0  0
    3.7740   -8.6974    0.0000 C   0  0  0  0  0  0  0  0  0  0  0  0
    3.6172   -7.2057    0.0000 C   0  0  0  0  0  0  0  0  0  0  0  0
    4.8308   -6.3240    0.0000 N   0  0  0  0  0  0  0  0  0  0  0  0
    4.6740   -4.8322    0.0000 C   0  0  0  0  0  0  0  0  0  0  0  0
    3.3037   -4.2221    0.0000 C   0  0  0  0  0  0  0  0  0  0  0  0
    2.0046   -4.9721    0.0000 C   0  0  0  0  0  0  0  0  0  0  0  0
    0.8899   -3.9684    0.0000 C   0  0  0  0  0  0  0  0  0  0  0  0
    1.5000   -2.5981    0.0000 C   0  0  0  0  0  0  0  0  0  0  0  0
    0.7500   -1.2990    0.0000 C   0  0  0  0  0  0  0  0  0  0  0  0
    1.5000    0.0000    0.0000 C   0  0  0  0  0  0  0  0  0  0  0  0
    0.7500    1.2990    0.0000 C   0  0  0  0  0  0  0  0  0  0  0  0
   -0.7500    1.2990    0.0000 C   0  0  0  0  0  0  0  0  0  0  0  0
   -1.5000    2.5981    0.0000 N   0  0  0  0  0  0  0  0  0  0  0  0
   -3.0000    2.5981    0.0000 C   0  0  0  0  0  0  0  0  0  0  0  0
   -3.7500    1.2990    0.0000 N   0  0  0  0  0  0  0  0  0  0  0  0
   -3.0000    0.0000    0.0000 C   0  0  0  0  0  0  0  0  0  0  0  0
   -3.7500   -1.2990    0.0000 N   0  0  0  0  0  0  0  0  0  0  0  0
   -5.2500   -1.2990    0.0000 C   0  0  0  0  0  0  0  0  0  0  0  0
   -6.0000    0.0000    0.0000 C   0  0  0  0  0  0  0  0  0  0  0  0
   -7.5000    0.0000    0.0000 C   0  0  0  0  0  0  0  0  0  0  0  0
   -8.2500   -1.2990    0.0000 C   0  0  0  0  0  0  0  0  0  0  0  0
   -9.7500   -1.2990    0.0000 O   0  0  0  0  0  0  0  0  0  0  0  0
  -10.5000    0.0000    0.0000 C   0  0  0  0  0  0  0  0  0  0  0  0
  -12.0000    0.0000    0.0000 C   0  0  0  0  0  0  0  0  0  0  0  0
  -12.7500    1.2990    0.0000 C   0  0  0  0  0  0  0  0  0  0  0  0
  -14.2500    1.2990    0.0000 C   0  0  0  0  0  0  0  0  0  0  0  0
  -15.0000    0.0000    0.0000 C   0  0  0  0  0  0  0  0  0  0  0  0
  -14.2500   -1.2990    0.0000 C   0  0  0  0  0  0  0  0  0  0  0  0
  -15.0000   -2.5981    0.0000 F   0  0  0  0  0  0  0  0  0  0  0  0
  -12.7500   -1.2990    0.0000 C   0  0  0  0  0  0  0  0  0  0  0  0
   -7.5000   -2.5981    0.0000 C   0  0  0  0  0  0  0  0  0  0  0  0
   -8.2500   -3.8971    0.0000 Cl  0  0  0  0  0  0  0  0  0  0  0  0
   -6.0000   -2.5981    0.0000 C   0  0  0  0  0  0  0  0  0  0  0  0
   -1.5000    0.0000    0.0000 C   0  0  0  0  0  0  0  0  0  0  0  0
   -0.7500   -1.2990    0.0000 C   0  0  0  0  0  0  0  0  0  0  0  0
    2.9918   -2.7549    0.0000 O   0  0  0  0  0  0  0  0  0  0  0  0
    6.2011   -6.9341    0.0000 C   0  0  0  0  0  0  0  0  0  0  0  0
    6.3579   -8.4259    0.0000 C   0  0  0  0  0  0  0  0  0  0  0  0
  1  2  1  0
  2  3  1  0
  3  4  1  0
  4  5  1  0
  5  6  1  0
  6  7  1  0
  7  8  2  0
  8  9  1  0
  9 10  2  0
 10 11  1  0
 11 12  2  0
 12 13  1  0
 13 14  2  0
 14 15  1  0
 15 16  2  0
 16 17  1  0
 17 18  2  0
 18 19  1  0
 19 20  1  0
 20 21  2  0
 21 22  1  0
 22 23  2  0
 23 24  1  0
 24 25  1  0
 25 26  1  0
 26 27  2  0
 27 28  1  0
 28 29  2  0
 29 30  1  0
 30 31  1  0
 30 32  2  0
 23 33  1  0
 33 34  1  0
 33 35  2  0
 18 36  1  0
 36 37  2  0
 10 38  1  0
  5 39  1  0
 39 40  1  0
 40  2  1  0
 38  7  1  0
 37 11  1  0
 36 14  1  0
 35 20  1  0
 32 26  1  0
M  CHG  2   1  -1   2   1
M  END
>  <Compound_ID>  (371) 
CHEMBL1909390

>  <Molecule Name>  (371) 
GW576609A

>  <Molecular Weight>  (371) 
691.10

>  <AlogP>  (371) 
6.57

>  <Smiles>  (371) 
[O-][S+]1CCN(Cc2ccc(-c3ccc4ncnc(Nc5ccc(OCc6cccc(F)c6)c(Cl)c5)c4c3)o2)CC1

>  <Standard Type>  (371) 
Inhibition

>  <Standard Relation>  (371) 
'='

>  <Standard Units>  (371) 
%

>  <Standard Value>  (371) 
10.63

>  <Assay ChEMBL ID>  (371) 
CHEMBL1962143

>  <Assay Description>  (371) 
GSK_PKIS: MET mean inhibition at 1 uM [Nanosyn]

>  <BAO Format ID>  (371) 
BAO_0000357

>  <BAO Label>  (371) 
single protein format

>  <Assay Organism>  (371) 
None

>  <Target ChEMBL ID>  (371) 
CHEMBL3717

>  <Target Name>  (371) 
Hepatocyte growth factor receptor

>  <Target Organism>  (371) 
Homo sapiens

>  <Target Type>  (371) 
SINGLE PROTEIN

>  <Document ChEMBL ID>  (371) 
CHEMBL1961873

>  <Source Description>  (371) 
GSK Published Kinase Inhibitor Set

>  <Document Journal>  (371) 
nan

>  <Document Year>  (371) 
nan

>  <Active>  (371) 
0.0

$$$$

     RDKit          2D

 35 39  0  0  0  0  0  0  0  0999 V2000
    3.0000    0.0000    0.0000 F   0  0  0  0  0  0  0  0  0  0  0  0
    1.5000    0.0000    0.0000 C   0  0  0  0  0  0  0  0  0  0  0  0
    0.7500   -1.2990    0.0000 C   0  0  0  0  0  0  0  0  0  0  0  0
   -0.7500   -1.2990    0.0000 C   0  0  0  0  0  0  0  0  0  0  0  0
   -1.5000    0.0000    0.0000 C   0  0  0  0  0  0  0  0  0  0  0  0
   -3.0000    0.0000    0.0000 C   0  0  0  0  0  0  0  0  0  0  0  0
   -3.8817   -1.2135    0.0000 N   0  0  0  0  0  0  0  0  0  0  0  0
   -5.3083   -0.7500    0.0000 C   0  0  0  0  0  0  0  0  0  0  0  0
   -5.3083    0.7500    0.0000 N   0  0  0  0  0  0  0  0  0  0  0  0
   -6.5218    1.6317    0.0000 C   0  0  0  0  0  0  0  0  0  0  0  0
   -6.3650    3.1235    0.0000 C   0  0  0  0  0  0  0  0  0  0  0  0
   -7.5785    4.0051    0.0000 C   0  0  0  0  0  0  0  0  0  0  0  0
   -8.9488    3.3950    0.0000 N   0  0  0  0  0  0  0  0  0  0  0  0
   -9.1056    1.9033    0.0000 C   0  0  0  0  0  0  0  0  0  0  0  0
   -7.8921    1.0216    0.0000 C   0  0  0  0  0  0  0  0  0  0  0  0
   -3.8817    1.2135    0.0000 C   0  0  0  0  0  0  0  0  0  0  0  0
   -3.4182    2.6401    0.0000 C   0  0  0  0  0  0  0  0  0  0  0  0
   -1.9509    2.9520    0.0000 C   0  0  0  0  0  0  0  0  0  0  0  0
   -1.4874    4.3786    0.0000 C   0  0  0  0  0  0  0  0  0  0  0  0
   -2.4911    5.4933    0.0000 N   0  0  0  0  0  0  0  0  0  0  0  0
   -3.9583    5.1814    0.0000 C   0  0  0  0  0  0  0  0  0  0  0  0
   -4.9620    6.2961    0.0000 O   0  0  0  0  0  0  0  0  0  0  0  0
   -4.4985    7.7227    0.0000 C   0  0  0  0  0  0  0  0  0  0  0  0
   -3.0313    8.0346    0.0000 C   0  0  0  0  0  0  0  0  0  0  0  0
   -2.5677    9.4612    0.0000 C   0  0  0  0  0  0  0  0  0  0  0  0
   -3.5714   10.5759    0.0000 C   0  0  0  0  0  0  0  0  0  0  0  0
   -5.0387   10.2640    0.0000 C   0  0  0  0  0  0  0  0  0  0  0  0
   -6.0424   11.3787    0.0000 C   0  0  0  0  0  0  0  0  0  0  0  0
   -7.0461   12.4935    0.0000 F   0  0  0  0  0  0  0  0  0  0  0  0
   -4.9276   12.3824    0.0000 F   0  0  0  0  0  0  0  0  0  0  0  0
   -7.1571   10.3750    0.0000 F   0  0  0  0  0  0  0  0  0  0  0  0
   -5.5022    8.8374    0.0000 C   0  0  0  0  0  0  0  0  0  0  0  0
   -4.4218    3.7548    0.0000 N   0  0  0  0  0  0  0  0  0  0  0  0
   -0.7500    1.2990    0.0000 C   0  0  0  0  0  0  0  0  0  0  0  0
    0.7500    1.2990    0.0000 C   0  0  0  0  0  0  0  0  0  0  0  0
  1  2  1  0
  2  3  2  0
  3  4  1  0
  4  5  2  0
  5  6  1  0
  6  7  1  0
  7  8  2  0
  8  9  1  0
  9 10  1  0
 10 11  1  0
 11 12  1  0
 12 13  1  0
 13 14  1  0
 14 15  1  0
  9 16  1  0
 16 17  1  0
 17 18  2  0
 18 19  1  0
 19 20  2  0
 20 21  1  0
 21 22  1  0
 22 23  1  0
 23 24  2  0
 24 25  1  0
 25 26  2  0
 26 27  1  0
 27 28  1  0
 28 29  1  0
 28 30  1  0
 28 31  1  0
 27 32  2  0
 21 33  2  0
  5 34  1  0
 34 35  2  0
 35  2  1  0
 16  6  2  0
 33 17  1  0
 15 10  1  0
 32 23  1  0
M  END
>  <Compound_ID>  (372) 
CHEMBL275666

>  <Molecule Name>  (372) 
nan

>  <Molecular Weight>  (372) 
483.47

>  <AlogP>  (372) 
5.88

>  <Smiles>  (372) 
Fc1ccc(-c2ncn(C3CCNCC3)c2-c2ccnc(Oc3cccc(C(F)(F)F)c3)n2)cc1

>  <Standard Type>  (372) 
Inhibition

>  <Standard Relation>  (372) 
'='

>  <Standard Units>  (372) 
%

>  <Standard Value>  (372) 
6.95

>  <Assay ChEMBL ID>  (372) 
CHEMBL1962143

>  <Assay Description>  (372) 
GSK_PKIS: MET mean inhibition at 1 uM [Nanosyn]

>  <BAO Format ID>  (372) 
BAO_0000357

>  <BAO Label>  (372) 
single protein format

>  <Assay Organism>  (372) 
None

>  <Target ChEMBL ID>  (372) 
CHEMBL3717

>  <Target Name>  (372) 
Hepatocyte growth factor receptor

>  <Target Organism>  (372) 
Homo sapiens

>  <Target Type>  (372) 
SINGLE PROTEIN

>  <Document ChEMBL ID>  (372) 
CHEMBL1961873

>  <Source Description>  (372) 
GSK Published Kinase Inhibitor Set

>  <Document Journal>  (372) 
nan

>  <Document Year>  (372) 
nan

>  <Active>  (372) 
0.0

$$$$

     RDKit          2D

 15 16  0  0  0  0  0  0  0  0999 V2000
    3.7500   -1.2990    0.0000 C   0  0  0  0  0  0  0  0  0  0  0  0
    3.0000    0.0000    0.0000 O   0  0  0  0  0  0  0  0  0  0  0  0
    1.5000    0.0000    0.0000 C   0  0  0  0  0  0  0  0  0  0  0  0
    0.7500   -1.2990    0.0000 N   0  0  0  0  0  0  0  0  0  0  0  0
   -0.7500   -1.2990    0.0000 C   0  0  0  0  0  0  0  0  0  0  0  0
   -1.5000    0.0000    0.0000 C   0  0  0  0  0  0  0  0  0  0  0  0
   -3.0000    0.0000    0.0000 C   0  0  0  0  0  0  0  0  0  0  0  0
   -3.7500    1.2990    0.0000 C   0  0  0  0  0  0  0  0  0  0  0  0
   -5.2500    1.2990    0.0000 C   0  0  0  0  0  0  0  0  0  0  0  0
   -6.0000    0.0000    0.0000 N   0  0  0  0  0  0  0  0  0  0  0  0
   -5.2500   -1.2990    0.0000 C   0  0  0  0  0  0  0  0  0  0  0  0
   -3.7500   -1.2990    0.0000 C   0  0  0  0  0  0  0  0  0  0  0  0
   -0.7500    1.2990    0.0000 C   0  0  0  0  0  0  0  0  0  0  0  0
    0.7500    1.2990    0.0000 C   0  0  0  0  0  0  0  0  0  0  0  0
    1.5000    2.5981    0.0000 N   0  0  0  0  0  0  0  0  0  0  0  0
  1  2  1  0
  2  3  1  0
  3  4  2  0
  4  5  1  0
  5  6  2  0
  6  7  1  0
  7  8  2  0
  8  9  1  0
  9 10  2  0
 10 11  1  0
 11 12  2  0
  6 13  1  0
 13 14  2  0
 14 15  1  0
 14  3  1  0
 12  7  1  0
M  END
>  <Compound_ID>  (373) 
CHEMBL4291350

>  <Molecule Name>  (373) 
nan

>  <Molecular Weight>  (373) 
201.23

>  <AlogP>  (373) 
1.73

>  <Smiles>  (373) 
COc1ncc(-c2ccncc2)cc1N

>  <Standard Type>  (373) 
Inhibition

>  <Standard Relation>  (373) 
'='

>  <Standard Units>  (373) 
%

>  <Standard Value>  (373) 
18.0

>  <Assay ChEMBL ID>  (373) 
CHEMBL4256656

>  <Assay Description>  (373) 
Inhibition of MET (unknown origin) at 100 uM using peptide as substrate in presence of ATP and MgCl2 by mobility shift assay relative to control

>  <BAO Format ID>  (373) 
BAO_0000357

>  <BAO Label>  (373) 
single protein format

>  <Assay Organism>  (373) 
Homo sapiens

>  <Target ChEMBL ID>  (373) 
CHEMBL3717

>  <Target Name>  (373) 
Hepatocyte growth factor receptor

>  <Target Organism>  (373) 
Homo sapiens

>  <Target Type>  (373) 
SINGLE PROTEIN

>  <Document ChEMBL ID>  (373) 
CHEMBL4251747

>  <Source Description>  (373) 
Scientific Literature

>  <Document Journal>  (373) 
Bioorg Med Chem

>  <Document Year>  (373) 
2018.0

>  <Active>  (373) 
0.0

$$$$

     RDKit          2D

 23 26  0  0  0  0  0  0  0  0999 V2000
   -1.8373   -5.6601    0.0000 O   0  0  0  0  0  0  0  0  0  0  0  0
   -2.9520   -4.6564    0.0000 C   0  0  0  0  0  0  0  0  0  0  0  0
   -2.6401   -3.1891    0.0000 N   0  0  0  0  0  0  0  0  0  0  0  0
   -1.2135   -2.7256    0.0000 C   0  0  0  0  0  0  0  0  0  0  0  0
   -0.0000   -3.6073    0.0000 N   0  0  0  0  0  0  0  0  0  0  0  0
    1.2135   -2.7256    0.0000 N   0  0  0  0  0  0  0  0  0  0  0  0
    0.7500   -1.2990    0.0000 C   0  0  0  0  0  0  0  0  0  0  0  0
    1.5000    0.0000    0.0000 C   0  0  0  0  0  0  0  0  0  0  0  0
    0.7500    1.2990    0.0000 C   0  0  0  0  0  0  0  0  0  0  0  0
    1.5000    2.5981    0.0000 C   0  0  0  0  0  0  0  0  0  0  0  0
    3.0000    2.5981    0.0000 C   0  0  0  0  0  0  0  0  0  0  0  0
    3.7500    3.8971    0.0000 C   0  0  0  0  0  0  0  0  0  0  0  0
    5.2500    3.8971    0.0000 F   0  0  0  0  0  0  0  0  0  0  0  0
    3.0000    5.1962    0.0000 C   0  0  0  0  0  0  0  0  0  0  0  0
    1.5000    5.1962    0.0000 C   0  0  0  0  0  0  0  0  0  0  0  0
    0.7500    3.8971    0.0000 C   0  0  0  0  0  0  0  0  0  0  0  0
   -0.7500    3.8971    0.0000 F   0  0  0  0  0  0  0  0  0  0  0  0
   -0.7500    1.2990    0.0000 C   0  0  0  0  0  0  0  0  0  0  0  0
   -1.5000    0.0000    0.0000 C   0  0  0  0  0  0  0  0  0  0  0  0
   -0.7500   -1.2990    0.0000 C   0  0  0  0  0  0  0  0  0  0  0  0
   -4.3786   -5.1199    0.0000 C   0  0  0  0  0  0  0  0  0  0  0  0
   -5.3823   -6.2346    0.0000 C   0  0  0  0  0  0  0  0  0  0  0  0
   -5.8458   -4.8080    0.0000 C   0  0  0  0  0  0  0  0  0  0  0  0
  1  2  2  0
  2  3  1  0
  3  4  1  0
  4  5  2  0
  5  6  1  0
  6  7  1  0
  7  8  2  0
  8  9  1  0
  9 10  1  0
 10 11  2  0
 11 12  1  0
 12 13  1  0
 12 14  2  0
 14 15  1  0
 15 16  2  0
 16 17  1  0
  9 18  2  0
 18 19  1  0
 19 20  2  0
  2 21  1  0
 21 22  1  0
 22 23  1  0
 20  4  1  0
 23 21  1  0
 20  7  1  0
 16 10  1  0
M  END
>  <Compound_ID>  (374) 
CHEMBL261440

>  <Molecule Name>  (374) 
nan

>  <Molecular Weight>  (374) 
313.31

>  <AlogP>  (374) 
3.86

>  <Smiles>  (374) 
O=C(Nc1n[nH]c2cc(-c3cc(F)ccc3F)ccc12)C1CC1

>  <Standard Type>  (374) 
Inhibition

>  <Standard Relation>  (374) 
'='

>  <Standard Units>  (374) 
%

>  <Standard Value>  (374) 
4.36

>  <Assay ChEMBL ID>  (374) 
CHEMBL1962143

>  <Assay Description>  (374) 
GSK_PKIS: MET mean inhibition at 1 uM [Nanosyn]

>  <BAO Format ID>  (374) 
BAO_0000357

>  <BAO Label>  (374) 
single protein format

>  <Assay Organism>  (374) 
None

>  <Target ChEMBL ID>  (374) 
CHEMBL3717

>  <Target Name>  (374) 
Hepatocyte growth factor receptor

>  <Target Organism>  (374) 
Homo sapiens

>  <Target Type>  (374) 
SINGLE PROTEIN

>  <Document ChEMBL ID>  (374) 
CHEMBL1961873

>  <Source Description>  (374) 
GSK Published Kinase Inhibitor Set

>  <Document Journal>  (374) 
nan

>  <Document Year>  (374) 
nan

>  <Active>  (374) 
0.0

$$$$

     RDKit          2D

 14 15  0  0  0  0  0  0  0  0999 V2000
    3.0000    0.0000    0.0000 C   0  0  0  0  0  0  0  0  0  0  0  0
    1.5000    0.0000    0.0000 C   0  0  0  0  0  0  0  0  0  0  0  0
    0.7500   -1.2990    0.0000 N   0  0  0  0  0  0  0  0  0  0  0  0
   -0.7500   -1.2990    0.0000 C   0  0  0  0  0  0  0  0  0  0  0  0
   -1.5000   -2.5981    0.0000 N   0  0  0  0  0  0  0  0  0  0  0  0
   -1.5000    0.0000    0.0000 C   0  0  0  0  0  0  0  0  0  0  0  0
   -3.0000    0.0000    0.0000 C   0  0  0  0  0  0  0  0  0  0  0  0
   -3.7500   -1.2990    0.0000 O   0  0  0  0  0  0  0  0  0  0  0  0
   -3.7500    1.2990    0.0000 N   0  0  0  0  0  0  0  0  0  0  0  0
   -3.0000    2.5981    0.0000 C   0  0  0  0  0  0  0  0  0  0  0  0
   -3.7500    3.8971    0.0000 C   0  0  0  0  0  0  0  0  0  0  0  0
   -1.5000    2.5981    0.0000 C   0  0  0  0  0  0  0  0  0  0  0  0
   -0.7500    1.2990    0.0000 C   0  0  0  0  0  0  0  0  0  0  0  0
    0.7500    1.2990    0.0000 N   0  0  0  0  0  0  0  0  0  0  0  0
  1  2  1  0
  2  3  2  0
  3  4  1  0
  4  5  1  0
  4  6  2  0
  6  7  1  0
  7  8  2  0
  7  9  1  0
  9 10  1  0
 10 11  1  0
 10 12  2  0
 12 13  1  0
 13 14  2  0
 14  2  1  0
 13  6  1  0
M  END
>  <Compound_ID>  (375) 
CHEMBL1813807

>  <Molecule Name>  (375) 
nan

>  <Molecular Weight>  (375) 
190.21

>  <AlogP>  (375) 
0.52

>  <Smiles>  (375) 
Cc1nc(N)c2c(=O)[nH]c(C)cc2n1

>  <Standard Type>  (375) 
Inhibition

>  <Standard Relation>  (375) 
'='

>  <Standard Units>  (375) 
%

>  <Standard Value>  (375) 
-3.0

>  <Assay ChEMBL ID>  (375) 
CHEMBL1815730

>  <Assay Description>  (375) 
Inhibition of MET at 30 uM by microfluidic mobility shift assay

>  <BAO Format ID>  (375) 
BAO_0000357

>  <BAO Label>  (375) 
single protein format

>  <Assay Organism>  (375) 
None

>  <Target ChEMBL ID>  (375) 
CHEMBL3717

>  <Target Name>  (375) 
Hepatocyte growth factor receptor

>  <Target Organism>  (375) 
Homo sapiens

>  <Target Type>  (375) 
SINGLE PROTEIN

>  <Document ChEMBL ID>  (375) 
CHEMBL1811853

>  <Source Description>  (375) 
Scientific Literature

>  <Document Journal>  (375) 
Bioorg Med Chem

>  <Document Year>  (375) 
2011.0

>  <Active>  (375) 
0.0

$$$$

     RDKit          2D

 36 39  0  0  0  0  0  0  0  0999 V2000
    6.0000   -2.5981    0.0000 C   0  0  0  0  0  0  0  0  0  0  0  0
    5.2500   -1.2990    0.0000 C   0  0  0  0  0  0  0  0  0  0  0  0
    6.0000    0.0000    0.0000 O   0  0  0  0  0  0  0  0  0  0  0  0
    3.7500   -1.2990    0.0000 N   0  0  0  0  0  0  0  0  0  0  0  0
    3.0000    0.0000    0.0000 C   0  0  0  0  0  0  0  0  0  0  0  0
    1.5000    0.0000    0.0000 C   0  0  0  0  0  0  0  0  0  0  0  0
    0.7500   -1.2990    0.0000 C   0  0  0  0  0  0  0  0  0  0  0  0
   -0.7500   -1.2990    0.0000 C   0  0  0  0  0  0  0  0  0  0  0  0
   -1.5000    0.0000    0.0000 C   0  0  0  0  0  0  0  0  0  0  0  0
   -0.7500    1.2990    0.0000 C   0  0  0  0  0  0  0  0  0  0  0  0
   -1.5000    2.5981    0.0000 C   0  0  0  0  0  0  0  0  0  0  0  0
   -2.2500    3.8971    0.0000 C   0  0  0  0  0  0  0  0  0  0  0  0
   -3.0000    5.1962    0.0000 C   0  0  0  0  0  0  0  0  0  0  0  0
   -2.2500    6.4952    0.0000 C   0  0  0  0  0  0  0  0  0  0  0  0
   -3.0000    7.7942    0.0000 N   0  0  0  0  0  0  0  0  0  0  0  0
   -4.5000    7.7942    0.0000 C   0  0  0  0  0  0  0  0  0  0  0  0
   -5.2500    6.4952    0.0000 N   0  0  0  0  0  0  0  0  0  0  0  0
   -4.5000    5.1962    0.0000 C   0  0  0  0  0  0  0  0  0  0  0  0
   -5.2500    3.8971    0.0000 N   0  0  0  0  0  0  0  0  0  0  0  0
   -6.7500    3.8971    0.0000 C   0  0  0  0  0  0  0  0  0  0  0  0
   -7.5000    5.1962    0.0000 C   0  0  0  0  0  0  0  0  0  0  0  0
   -9.0000    5.1962    0.0000 C   0  0  0  0  0  0  0  0  0  0  0  0
   -9.7500    3.8971    0.0000 C   0  0  0  0  0  0  0  0  0  0  0  0
  -11.2500    3.8971    0.0000 O   0  0  0  0  0  0  0  0  0  0  0  0
  -12.0000    5.1962    0.0000 C   0  0  0  0  0  0  0  0  0  0  0  0
  -13.5000    5.1962    0.0000 C   0  0  0  0  0  0  0  0  0  0  0  0
  -14.2500    6.4952    0.0000 C   0  0  0  0  0  0  0  0  0  0  0  0
  -15.7500    6.4952    0.0000 C   0  0  0  0  0  0  0  0  0  0  0  0
  -16.5000    5.1962    0.0000 C   0  0  0  0  0  0  0  0  0  0  0  0
  -15.7500    3.8971    0.0000 C   0  0  0  0  0  0  0  0  0  0  0  0
  -16.5000    2.5981    0.0000 F   0  0  0  0  0  0  0  0  0  0  0  0
  -14.2500    3.8971    0.0000 C   0  0  0  0  0  0  0  0  0  0  0  0
   -9.0000    2.5981    0.0000 C   0  0  0  0  0  0  0  0  0  0  0  0
   -9.7500    1.2990    0.0000 Cl  0  0  0  0  0  0  0  0  0  0  0  0
   -7.5000    2.5981    0.0000 C   0  0  0  0  0  0  0  0  0  0  0  0
    0.7500    1.2990    0.0000 C   0  0  0  0  0  0  0  0  0  0  0  0
  1  2  1  0
  2  3  2  0
  2  4  1  0
  4  5  1  0
  5  6  1  0
  6  7  2  0
  7  8  1  0
  8  9  2  0
  9 10  1  0
 10 11  1  0
 11 12  3  0
 12 13  1  0
 13 14  2  0
 14 15  1  0
 15 16  2  0
 16 17  1  0
 17 18  2  0
 18 19  1  0
 19 20  1  0
 20 21  2  0
 21 22  1  0
 22 23  2  0
 23 24  1  0
 24 25  1  0
 25 26  1  0
 26 27  2  0
 27 28  1  0
 28 29  2  0
 29 30  1  0
 30 31  1  0
 30 32  2  0
 23 33  1  0
 33 34  1  0
 33 35  2  0
 10 36  2  0
 36  6  1  0
 18 13  1  0
 35 20  1  0
 32 26  1  0
M  END
>  <Compound_ID>  (376) 
CHEMBL207247

>  <Molecule Name>  (376) 
GW807930X

>  <Molecular Weight>  (376) 
500.96

>  <AlogP>  (376) 
5.63

>  <Smiles>  (376) 
CC(=O)NCc1cccc(C#Cc2cncnc2Nc2ccc(OCc3cccc(F)c3)c(Cl)c2)c1

>  <Standard Type>  (376) 
Inhibition

>  <Standard Relation>  (376) 
'='

>  <Standard Units>  (376) 
%

>  <Standard Value>  (376) 
1.83

>  <Assay ChEMBL ID>  (376) 
CHEMBL1962143

>  <Assay Description>  (376) 
GSK_PKIS: MET mean inhibition at 1 uM [Nanosyn]

>  <BAO Format ID>  (376) 
BAO_0000357

>  <BAO Label>  (376) 
single protein format

>  <Assay Organism>  (376) 
None

>  <Target ChEMBL ID>  (376) 
CHEMBL3717

>  <Target Name>  (376) 
Hepatocyte growth factor receptor

>  <Target Organism>  (376) 
Homo sapiens

>  <Target Type>  (376) 
SINGLE PROTEIN

>  <Document ChEMBL ID>  (376) 
CHEMBL1961873

>  <Source Description>  (376) 
GSK Published Kinase Inhibitor Set

>  <Document Journal>  (376) 
nan

>  <Document Year>  (376) 
nan

>  <Active>  (376) 
0.0

$$$$

     RDKit          2D

 25 27  0  0  0  0  0  0  0  0999 V2000
   -0.1089   10.1536    0.0000 C   0  0  0  0  0  0  0  0  0  0  0  0
   -1.1126   11.2683    0.0000 C   0  0  0  0  0  0  0  0  0  0  0  0
   -2.1163   12.3831    0.0000 C   0  0  0  0  0  0  0  0  0  0  0  0
    0.0021   12.2720    0.0000 C   0  0  0  0  0  0  0  0  0  0  0  0
   -2.2273   10.2646    0.0000 C   0  0  0  0  0  0  0  0  0  0  0  0
   -3.6945   10.5765    0.0000 C   0  0  0  0  0  0  0  0  0  0  0  0
   -4.4445    9.2775    0.0000 C   0  0  0  0  0  0  0  0  0  0  0  0
   -5.9363    9.1207    0.0000 C   0  0  0  0  0  0  0  0  0  0  0  0
   -6.5464    7.7504    0.0000 O   0  0  0  0  0  0  0  0  0  0  0  0
   -6.8180   10.3342    0.0000 O   0  0  0  0  0  0  0  0  0  0  0  0
   -3.4408    8.1628    0.0000 C   0  0  0  0  0  0  0  0  0  0  0  0
   -3.7527    6.6955    0.0000 N   0  0  0  0  0  0  0  0  0  0  0  0
   -2.6380    5.6918    0.0000 C   0  0  0  0  0  0  0  0  0  0  0  0
   -1.2114    6.1554    0.0000 O   0  0  0  0  0  0  0  0  0  0  0  0
   -2.9499    4.2246    0.0000 N   0  0  0  0  0  0  0  0  0  0  0  0
   -1.8351    3.2209    0.0000 C   0  0  0  0  0  0  0  0  0  0  0  0
   -0.4086    3.6844    0.0000 C   0  0  0  0  0  0  0  0  0  0  0  0
    0.7062    2.6807    0.0000 C   0  0  0  0  0  0  0  0  0  0  0  0
    0.3943    1.2135    0.0000 C   0  0  0  0  0  0  0  0  0  0  0  0
    1.2760    0.0000    0.0000 N   0  0  0  0  0  0  0  0  0  0  0  0
    0.3943   -1.2135    0.0000 N   0  0  0  0  0  0  0  0  0  0  0  0
   -1.0323   -0.7500    0.0000 C   0  0  0  0  0  0  0  0  0  0  0  0
   -1.0323    0.7500    0.0000 C   0  0  0  0  0  0  0  0  0  0  0  0
   -2.1470    1.7537    0.0000 C   0  0  0  0  0  0  0  0  0  0  0  0
   -2.0705    8.7729    0.0000 S   0  0  0  0  0  0  0  0  0  0  0  0
  1  2  1  0
  2  3  1  0
  2  4  1  0
  2  5  1  0
  5  6  2  0
  6  7  1  0
  7  8  1  0
  8  9  2  0
  8 10  1  0
  7 11  2  0
 11 12  1  0
 12 13  1  0
 13 14  2  0
 13 15  1  0
 15 16  1  0
 16 17  2  0
 17 18  1  0
 18 19  2  0
 19 20  1  0
 20 21  1  0
 21 22  2  0
 22 23  1  0
 23 24  2  0
 11 25  1  0
 25  5  1  0
 24 16  1  0
 23 19  1  0
M  END
>  <Compound_ID>  (377) 
CHEMBL1641799

>  <Molecule Name>  (377) 
nan

>  <Molecular Weight>  (377) 
358.42

>  <AlogP>  (377) 
4.26

>  <Smiles>  (377) 
CC(C)(C)c1cc(C(=O)O)c(NC(=O)Nc2ccc3[nH]ncc3c2)s1

>  <Standard Type>  (377) 
Inhibition

>  <Standard Relation>  (377) 
'='

>  <Standard Units>  (377) 
%

>  <Standard Value>  (377) 
0.0

>  <Assay ChEMBL ID>  (377) 
CHEMBL1646794

>  <Assay Description>  (377) 
Inhibition of MET at 1 uM

>  <BAO Format ID>  (377) 
BAO_0000357

>  <BAO Label>  (377) 
single protein format

>  <Assay Organism>  (377) 
None

>  <Target ChEMBL ID>  (377) 
CHEMBL3717

>  <Target Name>  (377) 
Hepatocyte growth factor receptor

>  <Target Organism>  (377) 
Homo sapiens

>  <Target Type>  (377) 
SINGLE PROTEIN

>  <Document ChEMBL ID>  (377) 
CHEMBL1641460

>  <Source Description>  (377) 
Scientific Literature

>  <Document Journal>  (377) 
Bioorg Med Chem Lett

>  <Document Year>  (377) 
2011.0

>  <Active>  (377) 
0.0

$$$$

     RDKit          2D

 33 37  0  0  0  0  0  0  0  0999 V2000
    4.5000    0.0000    0.0000 N   0  0  0  0  0  0  0  0  0  0  0  0
    3.0000    0.0000    0.0000 C   0  0  0  0  0  0  0  0  0  0  0  0
    1.5000    0.0000    0.0000 C   0  0  0  0  0  0  0  0  0  0  0  0
    0.7500   -1.2990    0.0000 C   0  0  0  0  0  0  0  0  0  0  0  0
    1.5000   -2.5981    0.0000 C   0  0  0  0  0  0  0  0  0  0  0  0
    0.7500   -3.8971    0.0000 C   0  0  0  0  0  0  0  0  0  0  0  0
    1.5000   -5.1962    0.0000 C   0  0  0  0  0  0  0  0  0  0  0  0
    3.0000   -5.1962    0.0000 C   0  0  0  0  0  0  0  0  0  0  0  0
    3.7500   -3.8971    0.0000 C   0  0  0  0  0  0  0  0  0  0  0  0
    3.0000   -2.5981    0.0000 C   0  0  0  0  0  0  0  0  0  0  0  0
   -0.7500   -1.2990    0.0000 C   0  0  0  0  0  0  0  0  0  0  0  0
   -1.5000    0.0000    0.0000 C   0  0  0  0  0  0  0  0  0  0  0  0
   -3.0000    0.0000    0.0000 C   0  0  0  0  0  0  0  0  0  0  0  0
   -3.7500    1.2990    0.0000 C   0  0  0  0  0  0  0  0  0  0  0  0
   -5.2500    1.2990    0.0000 C   0  0  0  0  0  0  0  0  0  0  0  0
   -6.0000    0.0000    0.0000 C   0  0  0  0  0  0  0  0  0  0  0  0
   -5.2500   -1.2990    0.0000 C   0  0  0  0  0  0  0  0  0  0  0  0
   -3.7500   -1.2990    0.0000 C   0  0  0  0  0  0  0  0  0  0  0  0
   -0.7500    1.2990    0.0000 N   0  0  0  0  0  0  0  0  0  0  0  0
    0.7500    1.2990    0.0000 C   0  0  0  0  0  0  0  0  0  0  0  0
    1.5000    2.5981    0.0000 N   0  0  0  0  0  0  0  0  0  0  0  0
    0.7500    3.8971    0.0000 C   0  0  0  0  0  0  0  0  0  0  0  0
   -0.7418    4.0539    0.0000 S   0  0  0  0  0  0  0  0  0  0  0  0
   -1.0537    5.5211    0.0000 C   0  0  0  0  0  0  0  0  0  0  0  0
    0.2454    6.2711    0.0000 C   0  0  0  0  0  0  0  0  0  0  0  0
    0.4022    7.7629    0.0000 O   0  0  0  0  0  0  0  0  0  0  0  0
    1.3601    5.2674    0.0000 N   0  0  0  0  0  0  0  0  0  0  0  0
    2.8273    5.5793    0.0000 C   0  0  0  0  0  0  0  0  0  0  0  0
    3.8310    4.4646    0.0000 C   0  0  0  0  0  0  0  0  0  0  0  0
    5.2982    4.7765    0.0000 C   0  0  0  0  0  0  0  0  0  0  0  0
    5.7618    6.2030    0.0000 C   0  0  0  0  0  0  0  0  0  0  0  0
    4.7581    7.3178    0.0000 C   0  0  0  0  0  0  0  0  0  0  0  0
    3.2909    7.0059    0.0000 C   0  0  0  0  0  0  0  0  0  0  0  0
  1  2  3  0
  2  3  1  0
  3  4  2  0
  4  5  1  0
  5  6  2  0
  6  7  1  0
  7  8  2  0
  8  9  1  0
  9 10  2  0
  4 11  1  0
 11 12  2  0
 12 13  1  0
 13 14  2  0
 14 15  1  0
 15 16  2  0
 16 17  1  0
 17 18  2  0
 12 19  1  0
 19 20  2  0
 20 21  1  0
 21 22  2  0
 22 23  1  0
 23 24  1  0
 24 25  1  0
 25 26  2  0
 25 27  1  0
 27 28  1  0
 28 29  2  0
 29 30  1  0
 30 31  2  0
 31 32  1  0
 32 33  2  0
 20  3  1  0
 27 22  1  0
 33 28  1  0
 10  5  1  0
 18 13  1  0
M  END
>  <Compound_ID>  (378) 
CHEMBL3408391

>  <Molecule Name>  (378) 
nan

>  <Molecular Weight>  (378) 
446.54

>  <AlogP>  (378) 
6.05

>  <Smiles>  (378) 
N#Cc1c(-c2ccccc2)cc(-c2ccccc2)nc1/N=C1\SCC(=O)N1c1ccccc1

>  <Standard Type>  (378) 
Inhibition

>  <Standard Relation>  (378) 
'='

>  <Standard Units>  (378) 
%

>  <Standard Value>  (378) 
8.0

>  <Assay ChEMBL ID>  (378) 
CHEMBL3413727

>  <Assay Description>  (378) 
Inhibition of MET (unknown origin) assessed as inhibition of peptide phosphorylation at 30 uM by based microfluidic mobility shift assay

>  <BAO Format ID>  (378) 
BAO_0000357

>  <BAO Label>  (378) 
single protein format

>  <Assay Organism>  (378) 
Homo sapiens

>  <Target ChEMBL ID>  (378) 
CHEMBL3717

>  <Target Name>  (378) 
Hepatocyte growth factor receptor

>  <Target Organism>  (378) 
Homo sapiens

>  <Target Type>  (378) 
SINGLE PROTEIN

>  <Document ChEMBL ID>  (378) 
CHEMBL3407353

>  <Source Description>  (378) 
Scientific Literature

>  <Document Journal>  (378) 
Eur J Med Chem

>  <Document Year>  (378) 
2015.0

>  <Active>  (378) 
0.0

$$$$

     RDKit          2D

 26 29  0  0  0  0  0  0  0  0999 V2000
    4.6740   -4.8322    0.0000 C   0  0  0  0  0  0  0  0  0  0  0  0
    3.3037   -4.2221    0.0000 N   0  0  0  0  0  0  0  0  0  0  0  0
    2.9918   -2.7549    0.0000 C   0  0  0  0  0  0  0  0  0  0  0  0
    1.5000   -2.5981    0.0000 C   0  0  0  0  0  0  0  0  0  0  0  0
    0.7500   -1.2990    0.0000 C   0  0  0  0  0  0  0  0  0  0  0  0
    1.5000    0.0000    0.0000 C   0  0  0  0  0  0  0  0  0  0  0  0
    0.7500    1.2990    0.0000 N   0  0  0  0  0  0  0  0  0  0  0  0
   -0.7500    1.2990    0.0000 C   0  0  0  0  0  0  0  0  0  0  0  0
   -1.5000    2.5981    0.0000 C   0  0  0  0  0  0  0  0  0  0  0  0
   -3.0000    2.5981    0.0000 C   0  0  0  0  0  0  0  0  0  0  0  0
   -3.7500    1.2990    0.0000 C   0  0  0  0  0  0  0  0  0  0  0  0
   -5.2500    1.2990    0.0000 N   0  0  0  0  0  0  0  0  0  0  0  0
   -6.0000    2.5981    0.0000 C   0  0  0  0  0  0  0  0  0  0  0  0
   -5.2500    3.8971    0.0000 O   0  0  0  0  0  0  0  0  0  0  0  0
   -7.5000    2.5981    0.0000 C   0  0  0  0  0  0  0  0  0  0  0  0
   -8.2500    3.8971    0.0000 C   0  0  0  0  0  0  0  0  0  0  0  0
   -9.7500    3.8971    0.0000 C   0  0  0  0  0  0  0  0  0  0  0  0
  -10.5000    2.5981    0.0000 C   0  0  0  0  0  0  0  0  0  0  0  0
  -12.0000    2.5981    0.0000 F   0  0  0  0  0  0  0  0  0  0  0  0
   -9.7500    1.2990    0.0000 C   0  0  0  0  0  0  0  0  0  0  0  0
   -8.2500    1.2990    0.0000 C   0  0  0  0  0  0  0  0  0  0  0  0
   -3.0000    0.0000    0.0000 N   0  0  0  0  0  0  0  0  0  0  0  0
   -1.5000    0.0000    0.0000 C   0  0  0  0  0  0  0  0  0  0  0  0
   -0.7500   -1.2990    0.0000 C   0  0  0  0  0  0  0  0  0  0  0  0
    0.8899   -3.9684    0.0000 C   0  0  0  0  0  0  0  0  0  0  0  0
    2.0046   -4.9721    0.0000 N   0  0  0  0  0  0  0  0  0  0  0  0
  1  2  1  0
  2  3  1  0
  3  4  2  0
  4  5  1  0
  5  6  2  0
  6  7  1  0
  7  8  2  0
  8  9  1  0
  9 10  2  0
 10 11  1  0
 11 12  1  0
 12 13  1  0
 13 14  2  0
 13 15  1  0
 15 16  2  0
 16 17  1  0
 17 18  2  0
 18 19  1  0
 18 20  1  0
 20 21  2  0
 11 22  2  0
 22 23  1  0
 23 24  2  0
  4 25  1  0
 25 26  2  0
 26  2  1  0
 24  5  1  0
 23  8  1  0
 21 15  1  0
M  END
>  <Compound_ID>  (379) 
CHEMBL3600418

>  <Molecule Name>  (379) 
nan

>  <Molecular Weight>  (379) 
347.35

>  <AlogP>  (379) 
3.42

>  <Smiles>  (379) 
Cn1cc(-c2cnc3ccc(NC(=O)c4ccc(F)cc4)nc3c2)cn1

>  <Standard Type>  (379) 
Inhibition

>  <Standard Relation>  (379) 
'='

>  <Standard Units>  (379) 
%

>  <Standard Value>  (379) 
17.6

>  <Assay ChEMBL ID>  (379) 
CHEMBL3602584

>  <Assay Description>  (379) 
Inhibition of c-Met (unknown origin) at 10 uM

>  <BAO Format ID>  (379) 
BAO_0000357

>  <BAO Label>  (379) 
single protein format

>  <Assay Organism>  (379) 
Homo sapiens

>  <Target ChEMBL ID>  (379) 
CHEMBL3717

>  <Target Name>  (379) 
Hepatocyte growth factor receptor

>  <Target Organism>  (379) 
Homo sapiens

>  <Target Type>  (379) 
SINGLE PROTEIN

>  <Document ChEMBL ID>  (379) 
CHEMBL3600358

>  <Source Description>  (379) 
Scientific Literature

>  <Document Journal>  (379) 
Bioorg Med Chem Lett

>  <Document Year>  (379) 
2015.0

>  <Active>  (379) 
0.0

$$$$

     RDKit          2D

 38 43  0  0  0  0  0  0  0  0999 V2000
    4.5000    0.0000    0.0000 N   0  0  0  0  0  0  0  0  0  0  0  0
    3.0000    0.0000    0.0000 C   0  0  0  0  0  0  0  0  0  0  0  0
    1.5000    0.0000    0.0000 C   0  0  0  0  0  0  0  0  0  0  0  0
    0.7500   -1.2990    0.0000 C   0  0  0  0  0  0  0  0  0  0  0  0
    1.5000   -2.5981    0.0000 C   0  0  0  0  0  0  0  0  0  0  0  0
    0.7500   -3.8971    0.0000 C   0  0  0  0  0  0  0  0  0  0  0  0
    1.5000   -5.1962    0.0000 C   0  0  0  0  0  0  0  0  0  0  0  0
    3.0000   -5.1962    0.0000 C   0  0  0  0  0  0  0  0  0  0  0  0
    3.7500   -3.8971    0.0000 C   0  0  0  0  0  0  0  0  0  0  0  0
    3.0000   -2.5981    0.0000 C   0  0  0  0  0  0  0  0  0  0  0  0
   -0.7500   -1.2990    0.0000 C   0  0  0  0  0  0  0  0  0  0  0  0
   -1.5000    0.0000    0.0000 C   0  0  0  0  0  0  0  0  0  0  0  0
   -3.0000    0.0000    0.0000 C   0  0  0  0  0  0  0  0  0  0  0  0
   -3.7500    1.2990    0.0000 C   0  0  0  0  0  0  0  0  0  0  0  0
   -5.2500    1.2990    0.0000 C   0  0  0  0  0  0  0  0  0  0  0  0
   -6.0000    0.0000    0.0000 C   0  0  0  0  0  0  0  0  0  0  0  0
   -5.2500   -1.2990    0.0000 C   0  0  0  0  0  0  0  0  0  0  0  0
   -3.7500   -1.2990    0.0000 C   0  0  0  0  0  0  0  0  0  0  0  0
   -0.7500    1.2990    0.0000 N   0  0  0  0  0  0  0  0  0  0  0  0
    0.7500    1.2990    0.0000 C   0  0  0  0  0  0  0  0  0  0  0  0
    1.5000    2.5981    0.0000 N   0  0  0  0  0  0  0  0  0  0  0  0
    0.7500    3.8971    0.0000 C   0  0  0  0  0  0  0  0  0  0  0  0
   -0.7418    4.0539    0.0000 S   0  0  0  0  0  0  0  0  0  0  0  0
   -1.0537    5.5211    0.0000 C   0  0  0  0  0  0  0  0  0  0  0  0
   -2.4240    6.1312    0.0000 C   0  0  0  0  0  0  0  0  0  0  0  0
   -2.5808    7.6230    0.0000 C   0  0  0  0  0  0  0  0  0  0  0  0
   -3.9511    8.2331    0.0000 C   0  0  0  0  0  0  0  0  0  0  0  0
   -5.1646    7.3514    0.0000 C   0  0  0  0  0  0  0  0  0  0  0  0
   -5.0078    5.8597    0.0000 C   0  0  0  0  0  0  0  0  0  0  0  0
   -3.6375    5.2496    0.0000 C   0  0  0  0  0  0  0  0  0  0  0  0
    0.2454    6.2711    0.0000 N   0  0  0  0  0  0  0  0  0  0  0  0
    1.3601    5.2674    0.0000 N   0  0  0  0  0  0  0  0  0  0  0  0
    2.8273    5.5793    0.0000 C   0  0  0  0  0  0  0  0  0  0  0  0
    3.8310    4.4646    0.0000 C   0  0  0  0  0  0  0  0  0  0  0  0
    5.2982    4.7765    0.0000 C   0  0  0  0  0  0  0  0  0  0  0  0
    5.7618    6.2030    0.0000 C   0  0  0  0  0  0  0  0  0  0  0  0
    4.7581    7.3178    0.0000 C   0  0  0  0  0  0  0  0  0  0  0  0
    3.2909    7.0059    0.0000 C   0  0  0  0  0  0  0  0  0  0  0  0
  1  2  3  0
  2  3  1  0
  3  4  2  0
  4  5  1  0
  5  6  2  0
  6  7  1  0
  7  8  2  0
  8  9  1  0
  9 10  2  0
  4 11  1  0
 11 12  2  0
 12 13  1  0
 13 14  2  0
 14 15  1  0
 15 16  2  0
 16 17  1  0
 17 18  2  0
 12 19  1  0
 19 20  2  0
 20 21  1  0
 21 22  2  0
 22 23  1  0
 23 24  1  0
 24 25  1  0
 25 26  2  0
 26 27  1  0
 27 28  2  0
 28 29  1  0
 29 30  2  0
 24 31  2  0
 31 32  1  0
 32 33  1  0
 33 34  2  0
 34 35  1  0
 35 36  2  0
 36 37  1  0
 37 38  2  0
 20  3  1  0
 32 22  1  0
 38 33  1  0
 10  5  1  0
 18 13  1  0
 30 25  1  0
M  END
>  <Compound_ID>  (380) 
CHEMBL3408382

>  <Molecule Name>  (380) 
nan

>  <Molecular Weight>  (380) 
507.62

>  <AlogP>  (380) 
7.43

>  <Smiles>  (380) 
N#Cc1c(-c2ccccc2)cc(-c2ccccc2)nc1/N=c1\sc(-c2ccccc2)nn1-c1ccccc1

>  <Standard Type>  (380) 
Inhibition

>  <Standard Relation>  (380) 
'='

>  <Standard Units>  (380) 
%

>  <Standard Value>  (380) 
4.0

>  <Assay ChEMBL ID>  (380) 
CHEMBL3413727

>  <Assay Description>  (380) 
Inhibition of MET (unknown origin) assessed as inhibition of peptide phosphorylation at 30 uM by based microfluidic mobility shift assay

>  <BAO Format ID>  (380) 
BAO_0000357

>  <BAO Label>  (380) 
single protein format

>  <Assay Organism>  (380) 
Homo sapiens

>  <Target ChEMBL ID>  (380) 
CHEMBL3717

>  <Target Name>  (380) 
Hepatocyte growth factor receptor

>  <Target Organism>  (380) 
Homo sapiens

>  <Target Type>  (380) 
SINGLE PROTEIN

>  <Document ChEMBL ID>  (380) 
CHEMBL3407353

>  <Source Description>  (380) 
Scientific Literature

>  <Document Journal>  (380) 
Eur J Med Chem

>  <Document Year>  (380) 
2015.0

>  <Active>  (380) 
0.0

$$$$

     RDKit          2D

 25 28  0  0  0  0  0  0  0  0999 V2000
    3.0000   -0.0000    0.0000 C   0  0  0  0  0  0  0  0  0  0  0  0
    3.7500   -1.2990    0.0000 C   0  0  0  0  0  0  0  0  0  0  0  0
    5.2500   -1.2990    0.0000 C   0  0  0  0  0  0  0  0  0  0  0  0
    6.0000   -2.5981    0.0000 C   0  0  0  0  0  0  0  0  0  0  0  0
    5.2500   -3.8971    0.0000 C   0  0  0  0  0  0  0  0  0  0  0  0
    6.0000   -5.1962    0.0000 O   0  0  0  0  0  0  0  0  0  0  0  0
    3.7500   -3.8971    0.0000 C   0  0  0  0  0  0  0  0  0  0  0  0
    3.0000   -2.5981    0.0000 C   0  0  0  0  0  0  0  0  0  0  0  0
    1.5000   -2.5981    0.0000 N   0  0  0  0  0  0  0  0  0  0  0  0
    0.7500   -1.2990    0.0000 C   0  0  0  0  0  0  0  0  0  0  0  0
    1.5000    0.0000    0.0000 C   0  0  0  0  0  0  0  0  0  0  0  0
    0.7500    1.2990    0.0000 C   0  0  0  0  0  0  0  0  0  0  0  0
   -0.7500    1.2990    0.0000 N   0  0  0  0  0  0  0  0  0  0  0  0
   -1.5000    0.0000    0.0000 C   0  0  0  0  0  0  0  0  0  0  0  0
   -3.0000    0.0000    0.0000 C   0  0  0  0  0  0  0  0  0  0  0  0
   -3.7500   -1.2990    0.0000 C   0  0  0  0  0  0  0  0  0  0  0  0
   -5.2500   -1.2990    0.0000 C   0  0  0  0  0  0  0  0  0  0  0  0
   -6.0000    0.0000    0.0000 C   0  0  0  0  0  0  0  0  0  0  0  0
   -7.5000    0.0000    0.0000 C   0  0  0  0  0  0  0  0  0  0  0  0
   -8.2500   -1.2990    0.0000 C   0  0  0  0  0  0  0  0  0  0  0  0
   -7.5000   -2.5981    0.0000 C   0  0  0  0  0  0  0  0  0  0  0  0
   -6.0000   -2.5981    0.0000 N   0  0  0  0  0  0  0  0  0  0  0  0
   -3.0000   -2.5981    0.0000 C   0  0  0  0  0  0  0  0  0  0  0  0
   -1.5000   -2.5981    0.0000 C   0  0  0  0  0  0  0  0  0  0  0  0
   -0.7500   -1.2990    0.0000 C   0  0  0  0  0  0  0  0  0  0  0  0
  1  2  1  0
  2  3  2  0
  3  4  1  0
  4  5  2  0
  5  6  1  0
  5  7  1  0
  7  8  2  0
  8  9  1  0
  9 10  1  0
 10 11  2  0
 11 12  1  0
 12 13  2  0
 13 14  1  0
 14 15  2  0
 15 16  1  0
 16 17  1  0
 17 18  2  0
 18 19  1  0
 19 20  2  0
 20 21  1  0
 21 22  2  0
 16 23  2  0
 23 24  1  0
 24 25  2  0
  8  2  1  0
 25 10  1  0
 25 14  1  0
 22 17  1  0
M  END
>  <Compound_ID>  (381) 
CHEMBL581096

>  <Molecule Name>  (381) 
GW440139A

>  <Molecular Weight>  (381) 
363.85

>  <AlogP>  (381) 
5.05

>  <Smiles>  (381) 
Cc1ccc(O)cc1Nc1ccnc2cc(-c3ccccn3)ccc12

>  <Standard Type>  (381) 
Inhibition

>  <Standard Relation>  (381) 
'='

>  <Standard Units>  (381) 
%

>  <Standard Value>  (381) 
11.73

>  <Assay ChEMBL ID>  (381) 
CHEMBL1962142

>  <Assay Description>  (381) 
GSK_PKIS: MET mean inhibition at 0.1 uM [Nanosyn]

>  <BAO Format ID>  (381) 
BAO_0000357

>  <BAO Label>  (381) 
single protein format

>  <Assay Organism>  (381) 
None

>  <Target ChEMBL ID>  (381) 
CHEMBL3717

>  <Target Name>  (381) 
Hepatocyte growth factor receptor

>  <Target Organism>  (381) 
Homo sapiens

>  <Target Type>  (381) 
SINGLE PROTEIN

>  <Document ChEMBL ID>  (381) 
CHEMBL1961873

>  <Source Description>  (381) 
GSK Published Kinase Inhibitor Set

>  <Document Journal>  (381) 
nan

>  <Document Year>  (381) 
nan

>  <Active>  (381) 
0.0

$$$$

     RDKit          2D

 36 39  0  0  0  0  0  0  0  0999 V2000
   -2.5981   -8.1073    0.0000 C   0  0  0  0  0  0  0  0  0  0  0  0
   -1.2990   -7.3573    0.0000 O   0  0  0  0  0  0  0  0  0  0  0  0
   -1.2990   -5.8573    0.0000 C   0  0  0  0  0  0  0  0  0  0  0  0
   -2.5981   -5.1073    0.0000 O   0  0  0  0  0  0  0  0  0  0  0  0
   -0.0000   -5.1073    0.0000 N   0  0  0  0  0  0  0  0  0  0  0  0
   -0.0000   -3.6073    0.0000 C   0  0  0  0  0  0  0  0  0  0  0  0
    1.2135   -2.7256    0.0000 N   0  0  0  0  0  0  0  0  0  0  0  0
    0.7500   -1.2990    0.0000 C   0  0  0  0  0  0  0  0  0  0  0  0
    1.5000    0.0000    0.0000 C   0  0  0  0  0  0  0  0  0  0  0  0
    0.7500    1.2990    0.0000 C   0  0  0  0  0  0  0  0  0  0  0  0
   -0.7500    1.2990    0.0000 C   0  0  0  0  0  0  0  0  0  0  0  0
   -1.5000    2.5981    0.0000 S   0  0  0  0  0  0  0  0  0  0  0  0
   -0.7500    3.8971    0.0000 C   0  0  0  0  0  0  0  0  0  0  0  0
    0.7500    3.8971    0.0000 C   0  0  0  0  0  0  0  0  0  0  0  0
    1.5000    5.1962    0.0000 C   0  0  0  0  0  0  0  0  0  0  0  0
    0.7500    6.4952    0.0000 C   0  0  0  0  0  0  0  0  0  0  0  0
    1.5000    7.7942    0.0000 N   0  0  0  0  0  0  0  0  0  0  0  0
    3.0000    7.7942    0.0000 C   0  0  0  0  0  0  0  0  0  0  0  0
    3.7500    6.4952    0.0000 O   0  0  0  0  0  0  0  0  0  0  0  0
    3.7500    9.0933    0.0000 N   0  0  0  0  0  0  0  0  0  0  0  0
    5.2500    9.0933    0.0000 C   0  0  0  0  0  0  0  0  0  0  0  0
    6.0000    7.7942    0.0000 C   0  0  0  0  0  0  0  0  0  0  0  0
    7.5000    7.7942    0.0000 C   0  0  0  0  0  0  0  0  0  0  0  0
    8.2500    6.4952    0.0000 C   0  0  0  0  0  0  0  0  0  0  0  0
    9.0000    5.1962    0.0000 F   0  0  0  0  0  0  0  0  0  0  0  0
    6.9510    5.7452    0.0000 F   0  0  0  0  0  0  0  0  0  0  0  0
    9.5490    7.2452    0.0000 F   0  0  0  0  0  0  0  0  0  0  0  0
    8.2500    9.0933    0.0000 C   0  0  0  0  0  0  0  0  0  0  0  0
    7.5000   10.3923    0.0000 C   0  0  0  0  0  0  0  0  0  0  0  0
    6.0000   10.3923    0.0000 C   0  0  0  0  0  0  0  0  0  0  0  0
    5.2500   11.6913    0.0000 F   0  0  0  0  0  0  0  0  0  0  0  0
   -0.7500    6.4952    0.0000 C   0  0  0  0  0  0  0  0  0  0  0  0
   -1.5000    5.1962    0.0000 C   0  0  0  0  0  0  0  0  0  0  0  0
   -1.5000    0.0000    0.0000 C   0  0  0  0  0  0  0  0  0  0  0  0
   -0.7500   -1.2990    0.0000 C   0  0  0  0  0  0  0  0  0  0  0  0
   -1.2135   -2.7256    0.0000 N   0  0  0  0  0  0  0  0  0  0  0  0
  1  2  1  0
  2  3  1  0
  3  4  2  0
  3  5  1  0
  5  6  1  0
  6  7  2  0
  7  8  1  0
  8  9  2  0
  9 10  1  0
 10 11  2  0
 11 12  1  0
 12 13  1  0
 13 14  2  0
 14 15  1  0
 15 16  2  0
 16 17  1  0
 17 18  1  0
 18 19  2  0
 18 20  1  0
 20 21  1  0
 21 22  2  0
 22 23  1  0
 23 24  1  0
 24 25  1  0
 24 26  1  0
 24 27  1  0
 23 28  2  0
 28 29  1  0
 29 30  2  0
 30 31  1  0
 16 32  1  0
 32 33  2  0
 11 34  1  0
 34 35  2  0
 35 36  1  0
 36  6  1  0
 35  8  1  0
 33 13  1  0
 30 21  1  0
M  END
>  <Compound_ID>  (382) 
CHEMBL1909365

>  <Molecule Name>  (382) 
GW607049C

>  <Molecular Weight>  (382) 
617.56

>  <AlogP>  (382) 
6.69

>  <Smiles>  (382) 
COC(=O)Nc1nc2ccc(Sc3ccc(NC(=O)Nc4cc(C(F)(F)F)ccc4F)cc3)cc2[nH]1

>  <Standard Type>  (382) 
Inhibition

>  <Standard Relation>  (382) 
'='

>  <Standard Units>  (382) 
%

>  <Standard Value>  (382) 
1.57

>  <Assay ChEMBL ID>  (382) 
CHEMBL1962142

>  <Assay Description>  (382) 
GSK_PKIS: MET mean inhibition at 0.1 uM [Nanosyn]

>  <BAO Format ID>  (382) 
BAO_0000357

>  <BAO Label>  (382) 
single protein format

>  <Assay Organism>  (382) 
None

>  <Target ChEMBL ID>  (382) 
CHEMBL3717

>  <Target Name>  (382) 
Hepatocyte growth factor receptor

>  <Target Organism>  (382) 
Homo sapiens

>  <Target Type>  (382) 
SINGLE PROTEIN

>  <Document ChEMBL ID>  (382) 
CHEMBL1961873

>  <Source Description>  (382) 
GSK Published Kinase Inhibitor Set

>  <Document Journal>  (382) 
nan

>  <Document Year>  (382) 
nan

>  <Active>  (382) 
0.0

$$$$

     RDKit          2D

 25 28  0  0  0  0  0  0  0  0999 V2000
   11.0669    0.9023    0.0000 N   0  0  0  0  0  0  0  0  0  0  0  0
    9.6403    1.3658    0.0000 C   0  0  0  0  0  0  0  0  0  0  0  0
    9.3284    2.8330    0.0000 O   0  0  0  0  0  0  0  0  0  0  0  0
    8.5256    0.3621    0.0000 C   0  0  0  0  0  0  0  0  0  0  0  0
    8.8374   -1.1051    0.0000 C   0  0  0  0  0  0  0  0  0  0  0  0
    7.7227   -2.1088    0.0000 C   0  0  0  0  0  0  0  0  0  0  0  0
    6.2961   -1.6453    0.0000 C   0  0  0  0  0  0  0  0  0  0  0  0
    5.1814   -2.6490    0.0000 C   0  0  0  0  0  0  0  0  0  0  0  0
    3.7548   -2.1855    0.0000 C   0  0  0  0  0  0  0  0  0  0  0  0
    2.6401   -3.1891    0.0000 C   0  0  0  0  0  0  0  0  0  0  0  0
    1.2135   -2.7256    0.0000 C   0  0  0  0  0  0  0  0  0  0  0  0
   -0.0000   -3.6073    0.0000 S   0  0  0  0  0  0  0  0  0  0  0  0
   -1.2135   -2.7256    0.0000 C   0  0  0  0  0  0  0  0  0  0  0  0
   -0.7500   -1.2990    0.0000 C   0  0  0  0  0  0  0  0  0  0  0  0
    0.7500   -1.2990    0.0000 C   0  0  0  0  0  0  0  0  0  0  0  0
    1.5000    0.0000    0.0000 O   0  0  0  0  0  0  0  0  0  0  0  0
    0.7500    1.2990    0.0000 C   0  0  0  0  0  0  0  0  0  0  0  0
   -0.7500    1.2990    0.0000 C   0  0  0  0  0  0  0  0  0  0  0  0
   -1.5000    0.0000    0.0000 O   0  0  0  0  0  0  0  0  0  0  0  0
    2.9520   -4.6564    0.0000 C   0  0  0  0  0  0  0  0  0  0  0  0
    4.3786   -5.1199    0.0000 N   0  0  0  0  0  0  0  0  0  0  0  0
    5.4933   -4.1162    0.0000 C   0  0  0  0  0  0  0  0  0  0  0  0
    6.9199   -4.5797    0.0000 N   0  0  0  0  0  0  0  0  0  0  0  0
    5.9843   -0.1781    0.0000 C   0  0  0  0  0  0  0  0  0  0  0  0
    7.0990    0.8256    0.0000 C   0  0  0  0  0  0  0  0  0  0  0  0
  1  2  1  0
  2  3  2  0
  2  4  1  0
  4  5  2  0
  5  6  1  0
  6  7  2  0
  7  8  1  0
  8  9  2  0
  9 10  1  0
 10 11  1  0
 11 12  1  0
 12 13  1  0
 13 14  2  0
 14 15  1  0
 15 16  1  0
 16 17  1  0
 17 18  1  0
 18 19  1  0
 10 20  2  0
 20 21  1  0
 21 22  2  0
 22 23  1  0
  7 24  1  0
 24 25  2  0
 25  4  1  0
 22  8  1  0
 15 11  2  0
 19 14  1  0
M  END
>  <Compound_ID>  (383) 
CHEMBL602931

>  <Molecule Name>  (383) 
nan

>  <Molecular Weight>  (383) 
353.40

>  <AlogP>  (383) 
2.93

>  <Smiles>  (383) 
NC(=O)c1ccc(-c2cc(-c3scc4c3OCCO4)cnc2N)cc1

>  <Standard Type>  (383) 
Inhibition

>  <Standard Relation>  (383) 
'='

>  <Standard Units>  (383) 
%

>  <Standard Value>  (383) 
19.0

>  <Assay ChEMBL ID>  (383) 
CHEMBL1069043

>  <Assay Description>  (383) 
Inhibition of MET at 1 uM by microfluidic substrate phosphorylation assay

>  <BAO Format ID>  (383) 
BAO_0000357

>  <BAO Label>  (383) 
single protein format

>  <Assay Organism>  (383) 
None

>  <Target ChEMBL ID>  (383) 
CHEMBL3717

>  <Target Name>  (383) 
Hepatocyte growth factor receptor

>  <Target Organism>  (383) 
Homo sapiens

>  <Target Type>  (383) 
SINGLE PROTEIN

>  <Document ChEMBL ID>  (383) 
CHEMBL1158506

>  <Source Description>  (383) 
Scientific Literature

>  <Document Journal>  (383) 
Bioorg Med Chem

>  <Document Year>  (383) 
2010.0

>  <Active>  (383) 
0.0

$$$$

     RDKit          2D

 22 25  0  0  0  0  0  0  0  0999 V2000
    0.0000   -9.6073    0.0000 F   0  0  0  0  0  0  0  0  0  0  0  0
    0.0000   -8.1073    0.0000 C   0  0  0  0  0  0  0  0  0  0  0  0
   -1.2990   -7.3573    0.0000 C   0  0  0  0  0  0  0  0  0  0  0  0
   -1.2990   -5.8573    0.0000 C   0  0  0  0  0  0  0  0  0  0  0  0
   -0.0000   -5.1073    0.0000 C   0  0  0  0  0  0  0  0  0  0  0  0
   -0.0000   -3.6073    0.0000 C   0  0  0  0  0  0  0  0  0  0  0  0
    1.2135   -2.7256    0.0000 N   0  0  0  0  0  0  0  0  0  0  0  0
    0.7500   -1.2990    0.0000 N   0  0  0  0  0  0  0  0  0  0  0  0
    1.5000    0.0000    0.0000 C   0  0  0  0  0  0  0  0  0  0  0  0
    0.7500    1.2990    0.0000 C   0  0  0  0  0  0  0  0  0  0  0  0
   -0.7500    1.2990    0.0000 C   0  0  0  0  0  0  0  0  0  0  0  0
   -1.5000    0.0000    0.0000 C   0  0  0  0  0  0  0  0  0  0  0  0
   -0.7500   -1.2990    0.0000 C   0  0  0  0  0  0  0  0  0  0  0  0
   -1.2135   -2.7256    0.0000 C   0  0  0  0  0  0  0  0  0  0  0  0
   -2.6401   -3.1891    0.0000 C   0  0  0  0  0  0  0  0  0  0  0  0
   -3.7548   -2.1855    0.0000 C   0  0  0  0  0  0  0  0  0  0  0  0
   -5.1814   -2.6490    0.0000 C   0  0  0  0  0  0  0  0  0  0  0  0
   -5.4933   -4.1162    0.0000 N   0  0  0  0  0  0  0  0  0  0  0  0
   -4.3786   -5.1199    0.0000 C   0  0  0  0  0  0  0  0  0  0  0  0
   -2.9520   -4.6564    0.0000 C   0  0  0  0  0  0  0  0  0  0  0  0
    1.2990   -5.8573    0.0000 C   0  0  0  0  0  0  0  0  0  0  0  0
    1.2990   -7.3573    0.0000 C   0  0  0  0  0  0  0  0  0  0  0  0
  1  2  1  0
  2  3  2  0
  3  4  1  0
  4  5  2  0
  5  6  1  0
  6  7  2  0
  7  8  1  0
  8  9  1  0
  9 10  2  0
 10 11  1  0
 11 12  2  0
 12 13  1  0
 13 14  2  0
 14 15  1  0
 15 16  2  0
 16 17  1  0
 17 18  2  0
 18 19  1  0
 19 20  2  0
  5 21  1  0
 21 22  2  0
 22  2  1  0
 14  6  1  0
 20 15  1  0
 13  8  1  0
M  END
>  <Compound_ID>  (384) 
CHEMBL485745

>  <Molecule Name>  (384) 
GW434756X

>  <Molecular Weight>  (384) 
289.31

>  <AlogP>  (384) 
4.20

>  <Smiles>  (384) 
Fc1ccc(-c2nn3ccccc3c2-c2ccncc2)cc1

>  <Standard Type>  (384) 
Inhibition

>  <Standard Relation>  (384) 
'='

>  <Standard Units>  (384) 
%

>  <Standard Value>  (384) 
-1.86

>  <Assay ChEMBL ID>  (384) 
CHEMBL1962142

>  <Assay Description>  (384) 
GSK_PKIS: MET mean inhibition at 0.1 uM [Nanosyn]

>  <BAO Format ID>  (384) 
BAO_0000357

>  <BAO Label>  (384) 
single protein format

>  <Assay Organism>  (384) 
None

>  <Target ChEMBL ID>  (384) 
CHEMBL3717

>  <Target Name>  (384) 
Hepatocyte growth factor receptor

>  <Target Organism>  (384) 
Homo sapiens

>  <Target Type>  (384) 
SINGLE PROTEIN

>  <Document ChEMBL ID>  (384) 
CHEMBL1961873

>  <Source Description>  (384) 
GSK Published Kinase Inhibitor Set

>  <Document Journal>  (384) 
nan

>  <Document Year>  (384) 
nan

>  <Active>  (384) 
0.0

$$$$

     RDKit          2D

 38 42  0  0  0  0  0  0  0  0999 V2000
    6.3579   -8.4259    0.0000 C   0  0  0  0  0  0  0  0  0  0  0  0
    6.2011   -6.9341    0.0000 C   0  0  0  0  0  0  0  0  0  0  0  0
    4.8308   -6.3240    0.0000 O   0  0  0  0  0  0  0  0  0  0  0  0
    4.6740   -4.8322    0.0000 C   0  0  0  0  0  0  0  0  0  0  0  0
    5.8875   -3.9505    0.0000 O   0  0  0  0  0  0  0  0  0  0  0  0
    3.3037   -4.2221    0.0000 C   0  0  0  0  0  0  0  0  0  0  0  0
    2.9918   -2.7549    0.0000 N   0  0  0  0  0  0  0  0  0  0  0  0
    1.5000   -2.5981    0.0000 N   0  0  0  0  0  0  0  0  0  0  0  0
    0.7500   -1.2990    0.0000 C   0  0  0  0  0  0  0  0  0  0  0  0
    1.5000    0.0000    0.0000 C   0  0  0  0  0  0  0  0  0  0  0  0
    0.7500    1.2990    0.0000 C   0  0  0  0  0  0  0  0  0  0  0  0
   -0.7500    1.2990    0.0000 C   0  0  0  0  0  0  0  0  0  0  0  0
   -1.5000    2.5981    0.0000 Cl  0  0  0  0  0  0  0  0  0  0  0  0
   -1.5000    0.0000    0.0000 C   0  0  0  0  0  0  0  0  0  0  0  0
   -0.7500   -1.2990    0.0000 C   0  0  0  0  0  0  0  0  0  0  0  0
    0.8899   -3.9684    0.0000 C   0  0  0  0  0  0  0  0  0  0  0  0
   -0.5773   -4.2803    0.0000 N   0  0  0  0  0  0  0  0  0  0  0  0
   -1.0409   -5.7068    0.0000 C   0  0  0  0  0  0  0  0  0  0  0  0
   -2.5081   -6.0187    0.0000 N   0  0  0  0  0  0  0  0  0  0  0  0
   -2.9716   -7.4453    0.0000 C   0  0  0  0  0  0  0  0  0  0  0  0
   -4.4388   -7.7572    0.0000 C   0  0  0  0  0  0  0  0  0  0  0  0
   -5.4425   -6.6424    0.0000 C   0  0  0  0  0  0  0  0  0  0  0  0
   -6.9097   -6.9543    0.0000 C   0  0  0  0  0  0  0  0  0  0  0  0
   -7.3733   -8.3809    0.0000 C   0  0  0  0  0  0  0  0  0  0  0  0
   -6.3696   -9.4956    0.0000 C   0  0  0  0  0  0  0  0  0  0  0  0
   -4.9023   -9.1838    0.0000 C   0  0  0  0  0  0  0  0  0  0  0  0
   -1.9679   -8.5600    0.0000 C   0  0  0  0  0  0  0  0  0  0  0  0
   -0.5007   -8.2481    0.0000 C   0  0  0  0  0  0  0  0  0  0  0  0
    0.5030   -9.3629    0.0000 C   0  0  0  0  0  0  0  0  0  0  0  0
    0.0395  -10.7895    0.0000 C   0  0  0  0  0  0  0  0  0  0  0  0
    1.0432  -11.9042    0.0000 C   0  0  0  0  0  0  0  0  0  0  0  0
    2.5104  -11.5923    0.0000 C   0  0  0  0  0  0  0  0  0  0  0  0
    2.9739  -10.1657    0.0000 C   0  0  0  0  0  0  0  0  0  0  0  0
    1.9702   -9.0510    0.0000 C   0  0  0  0  0  0  0  0  0  0  0  0
   -0.0372   -6.8216    0.0000 C   0  0  0  0  0  0  0  0  0  0  0  0
    1.4301   -6.5097    0.0000 C   0  0  0  0  0  0  0  0  0  0  0  0
    2.8973   -6.1978    0.0000 N   0  0  0  0  0  0  0  0  0  0  0  0
    2.0046   -4.9721    0.0000 S   0  0  0  0  0  0  0  0  0  0  0  0
  1  2  1  0
  2  3  1  0
  3  4  1  0
  4  5  2  0
  4  6  1  0
  6  7  2  0
  7  8  1  0
  8  9  1  0
  9 10  2  0
 10 11  1  0
 11 12  2  0
 12 13  1  0
 12 14  1  0
 14 15  2  0
  8 16  1  0
 16 17  2  0
 17 18  1  0
 18 19  2  0
 19 20  1  0
 20 21  1  0
 21 22  2  0
 22 23  1  0
 23 24  2  0
 24 25  1  0
 25 26  2  0
 20 27  2  0
 27 28  1  0
 28 29  1  0
 29 30  2  0
 30 31  1  0
 31 32  2  0
 32 33  1  0
 33 34  2  0
 28 35  2  0
 35 36  1  0
 36 37  3  0
 16 38  1  0
 38  6  1  0
 15  9  1  0
 35 18  1  0
 26 21  1  0
 34 29  1  0
M  END
>  <Compound_ID>  (385) 
CHEMBL3408389

>  <Molecule Name>  (385) 
nan

>  <Molecular Weight>  (385) 
538.03

>  <AlogP>  (385) 
6.60

>  <Smiles>  (385) 
CCOC(=O)c1nn(-c2ccc(Cl)cc2)/c(=N/c2nc(-c3ccccc3)cc(-c3ccccc3)c2C#N)s1

>  <Standard Type>  (385) 
Inhibition

>  <Standard Relation>  (385) 
'='

>  <Standard Units>  (385) 
%

>  <Standard Value>  (385) 
12.0

>  <Assay ChEMBL ID>  (385) 
CHEMBL3413727

>  <Assay Description>  (385) 
Inhibition of MET (unknown origin) assessed as inhibition of peptide phosphorylation at 30 uM by based microfluidic mobility shift assay

>  <BAO Format ID>  (385) 
BAO_0000357

>  <BAO Label>  (385) 
single protein format

>  <Assay Organism>  (385) 
Homo sapiens

>  <Target ChEMBL ID>  (385) 
CHEMBL3717

>  <Target Name>  (385) 
Hepatocyte growth factor receptor

>  <Target Organism>  (385) 
Homo sapiens

>  <Target Type>  (385) 
SINGLE PROTEIN

>  <Document ChEMBL ID>  (385) 
CHEMBL3407353

>  <Source Description>  (385) 
Scientific Literature

>  <Document Journal>  (385) 
Eur J Med Chem

>  <Document Year>  (385) 
2015.0

>  <Active>  (385) 
0.0

$$$$

     RDKit          2D

 26 30  0  0  0  0  0  0  0  0999 V2000
   -4.6845  -11.4787    0.0000 C   0  0  0  0  0  0  0  0  0  0  0  0
   -6.1111  -11.0151    0.0000 C   0  0  0  0  0  0  0  0  0  0  0  0
   -6.4230   -9.5479    0.0000 N   0  0  0  0  0  0  0  0  0  0  0  0
   -5.3083   -8.5442    0.0000 N   0  0  0  0  0  0  0  0  0  0  0  0
   -5.3083   -7.0442    0.0000 N   0  0  0  0  0  0  0  0  0  0  0  0
   -3.8817   -6.5807    0.0000 C   0  0  0  0  0  0  0  0  0  0  0  0
   -3.0000   -7.7942    0.0000 C   0  0  0  0  0  0  0  0  0  0  0  0
   -1.5000   -7.7942    0.0000 C   0  0  0  0  0  0  0  0  0  0  0  0
   -0.7500   -9.0933    0.0000 C   0  0  0  0  0  0  0  0  0  0  0  0
    0.7500   -9.0933    0.0000 C   0  0  0  0  0  0  0  0  0  0  0  0
    1.5000   -7.7942    0.0000 N   0  0  0  0  0  0  0  0  0  0  0  0
    0.7500   -6.4952    0.0000 C   0  0  0  0  0  0  0  0  0  0  0  0
    1.5000   -5.1962    0.0000 N   0  0  0  0  0  0  0  0  0  0  0  0
    0.7500   -3.8971    0.0000 C   0  0  0  0  0  0  0  0  0  0  0  0
   -0.7500   -3.8971    0.0000 C   0  0  0  0  0  0  0  0  0  0  0  0
   -1.5000   -2.5981    0.0000 C   0  0  0  0  0  0  0  0  0  0  0  0
   -0.7500   -1.2990    0.0000 C   0  0  0  0  0  0  0  0  0  0  0  0
    0.7500   -1.2990    0.0000 C   0  0  0  0  0  0  0  0  0  0  0  0
    1.5000   -2.5981    0.0000 C   0  0  0  0  0  0  0  0  0  0  0  0
    1.5000    0.0000    0.0000 O   0  0  0  0  0  0  0  0  0  0  0  0
    0.7500    1.2990    0.0000 C   0  0  0  0  0  0  0  0  0  0  0  0
   -0.7500    1.2990    0.0000 C   0  0  0  0  0  0  0  0  0  0  0  0
   -1.5000    0.0000    0.0000 O   0  0  0  0  0  0  0  0  0  0  0  0
   -0.7500   -6.4952    0.0000 N   0  0  0  0  0  0  0  0  0  0  0  0
   -3.8817   -9.0078    0.0000 C   0  0  0  0  0  0  0  0  0  0  0  0
   -3.5698  -10.4750    0.0000 C   0  0  0  0  0  0  0  0  0  0  0  0
  1  2  1  0
  2  3  2  0
  3  4  1  0
  4  5  1  0
  5  6  2  0
  6  7  1  0
  7  8  1  0
  8  9  2  0
  9 10  1  0
 10 11  2  0
 11 12  1  0
 12 13  1  0
 13 14  1  0
 14 15  2  0
 15 16  1  0
 16 17  2  0
 17 18  1  0
 18 19  2  0
 18 20  1  0
 20 21  1  0
 21 22  1  0
 22 23  1  0
 12 24  2  0
  7 25  2  0
 25 26  1  0
 26  1  2  0
 25  4  1  0
 24  8  1  0
 19 14  1  0
 23 17  1  0
M  END
>  <Compound_ID>  (386) 
CHEMBL361894

>  <Molecule Name>  (386) 
GW806290X

>  <Molecular Weight>  (386) 
346.35

>  <AlogP>  (386) 
2.70

>  <Smiles>  (386) 
c1cnn2ncc(-c3ccnc(Nc4ccc5c(c4)OCCO5)n3)c2c1

>  <Standard Type>  (386) 
Inhibition

>  <Standard Relation>  (386) 
'='

>  <Standard Units>  (386) 
%

>  <Standard Value>  (386) 
3.78

>  <Assay ChEMBL ID>  (386) 
CHEMBL1962142

>  <Assay Description>  (386) 
GSK_PKIS: MET mean inhibition at 0.1 uM [Nanosyn]

>  <BAO Format ID>  (386) 
BAO_0000357

>  <BAO Label>  (386) 
single protein format

>  <Assay Organism>  (386) 
None

>  <Target ChEMBL ID>  (386) 
CHEMBL3717

>  <Target Name>  (386) 
Hepatocyte growth factor receptor

>  <Target Organism>  (386) 
Homo sapiens

>  <Target Type>  (386) 
SINGLE PROTEIN

>  <Document ChEMBL ID>  (386) 
CHEMBL1961873

>  <Source Description>  (386) 
GSK Published Kinase Inhibitor Set

>  <Document Journal>  (386) 
nan

>  <Document Year>  (386) 
nan

>  <Active>  (386) 
0.0

$$$$

     RDKit          2D

 23 25  0  0  0  0  0  0  0  0999 V2000
    3.0000    0.0000    0.0000 C   0  0  0  0  0  0  0  0  0  0  0  0
    1.5000    0.0000    0.0000 C   0  0  0  0  0  0  0  0  0  0  0  0
    0.7500   -1.2990    0.0000 C   0  0  0  0  0  0  0  0  0  0  0  0
   -0.7500   -1.2990    0.0000 C   0  0  0  0  0  0  0  0  0  0  0  0
   -1.5000    0.0000    0.0000 C   0  0  0  0  0  0  0  0  0  0  0  0
   -0.7500    1.2990    0.0000 C   0  0  0  0  0  0  0  0  0  0  0  0
    0.7500    1.2990    0.0000 C   0  0  0  0  0  0  0  0  0  0  0  0
    1.2135    2.7256    0.0000 N   0  0  0  0  0  0  0  0  0  0  0  0
    0.0000    3.6073    0.0000 C   0  0  0  0  0  0  0  0  0  0  0  0
    0.0000    5.1073    0.0000 O   0  0  0  0  0  0  0  0  0  0  0  0
   -1.2135    2.7256    0.0000 C   0  0  0  0  0  0  0  0  0  0  0  0
   -2.6401    3.1891    0.0000 N   0  0  0  0  0  0  0  0  0  0  0  0
   -2.9520    4.6564    0.0000 N   0  0  0  0  0  0  0  0  0  0  0  0
   -4.3786    5.1199    0.0000 C   0  0  0  0  0  0  0  0  0  0  0  0
   -4.6904    6.5871    0.0000 C   0  0  0  0  0  0  0  0  0  0  0  0
   -6.1170    7.0506    0.0000 C   0  0  0  0  0  0  0  0  0  0  0  0
   -7.2317    6.0469    0.0000 C   0  0  0  0  0  0  0  0  0  0  0  0
   -8.6583    6.5105    0.0000 S   0  0  0  0  0  0  0  0  0  0  0  0
  -10.0849    6.9740    0.0000 N   0  0  0  0  0  0  0  0  0  0  0  0
   -8.1948    7.9371    0.0000 O   0  0  0  0  0  0  0  0  0  0  0  0
   -9.1218    5.0839    0.0000 O   0  0  0  0  0  0  0  0  0  0  0  0
   -6.9199    4.5797    0.0000 C   0  0  0  0  0  0  0  0  0  0  0  0
   -5.4933    4.1162    0.0000 C   0  0  0  0  0  0  0  0  0  0  0  0
  1  2  1  0
  2  3  2  0
  3  4  1  0
  4  5  2  0
  5  6  1  0
  6  7  2  0
  7  8  1  0
  8  9  1  0
  9 10  2  0
  9 11  1  0
 11 12  2  0
 12 13  1  0
 13 14  1  0
 14 15  2  0
 15 16  1  0
 16 17  2  0
 17 18  1  0
 18 19  1  0
 18 20  2  0
 18 21  2  0
 17 22  1  0
 22 23  2  0
  7  2  1  0
 23 14  1  0
 11  6  1  0
M  END
>  <Compound_ID>  (387) 
CHEMBL1909398

>  <Molecule Name>  (387) 
GW282536X

>  <Molecular Weight>  (387) 
330.37

>  <AlogP>  (387) 
1.41

>  <Smiles>  (387) 
Cc1cccc2c1NC(=O)/C2=N\Nc1ccc(S(N)(=O)=O)cc1

>  <Standard Type>  (387) 
Inhibition

>  <Standard Relation>  (387) 
'='

>  <Standard Units>  (387) 
%

>  <Standard Value>  (387) 
-0.51

>  <Assay ChEMBL ID>  (387) 
CHEMBL1962143

>  <Assay Description>  (387) 
GSK_PKIS: MET mean inhibition at 1 uM [Nanosyn]

>  <BAO Format ID>  (387) 
BAO_0000357

>  <BAO Label>  (387) 
single protein format

>  <Assay Organism>  (387) 
None

>  <Target ChEMBL ID>  (387) 
CHEMBL3717

>  <Target Name>  (387) 
Hepatocyte growth factor receptor

>  <Target Organism>  (387) 
Homo sapiens

>  <Target Type>  (387) 
SINGLE PROTEIN

>  <Document ChEMBL ID>  (387) 
CHEMBL1961873

>  <Source Description>  (387) 
GSK Published Kinase Inhibitor Set

>  <Document Journal>  (387) 
nan

>  <Document Year>  (387) 
nan

>  <Active>  (387) 
0.0

$$$$

     RDKit          2D

 32 35  0  0  0  0  0  0  0  0999 V2000
  -10.0849   -6.9740    0.0000 N   0  0  0  0  0  0  0  0  0  0  0  0
   -8.6583   -6.5105    0.0000 S   0  0  0  0  0  0  0  0  0  0  0  0
   -9.1218   -5.0839    0.0000 O   0  0  0  0  0  0  0  0  0  0  0  0
   -8.1948   -7.9371    0.0000 O   0  0  0  0  0  0  0  0  0  0  0  0
   -7.2317   -6.0469    0.0000 C   0  0  0  0  0  0  0  0  0  0  0  0
   -6.9199   -4.5797    0.0000 C   0  0  0  0  0  0  0  0  0  0  0  0
   -5.4933   -4.1162    0.0000 C   0  0  0  0  0  0  0  0  0  0  0  0
   -4.3786   -5.1199    0.0000 C   0  0  0  0  0  0  0  0  0  0  0  0
   -2.9520   -4.6564    0.0000 N   0  0  0  0  0  0  0  0  0  0  0  0
   -2.6401   -3.1891    0.0000 N   0  0  0  0  0  0  0  0  0  0  0  0
   -1.2135   -2.7256    0.0000 C   0  0  0  0  0  0  0  0  0  0  0  0
   -0.0000   -3.6073    0.0000 C   0  0  0  0  0  0  0  0  0  0  0  0
    0.0000   -5.1073    0.0000 O   0  0  0  0  0  0  0  0  0  0  0  0
    1.2135   -2.7256    0.0000 N   0  0  0  0  0  0  0  0  0  0  0  0
    0.7500   -1.2990    0.0000 C   0  0  0  0  0  0  0  0  0  0  0  0
    1.5000    0.0000    0.0000 C   0  0  0  0  0  0  0  0  0  0  0  0
    0.7500    1.2990    0.0000 C   0  0  0  0  0  0  0  0  0  0  0  0
   -0.7500    1.2990    0.0000 C   0  0  0  0  0  0  0  0  0  0  0  0
   -1.5000    2.5981    0.0000 C   0  0  0  0  0  0  0  0  0  0  0  0
   -3.0000    2.5981    0.0000 O   0  0  0  0  0  0  0  0  0  0  0  0
   -0.7500    3.8971    0.0000 N   0  0  0  0  0  0  0  0  0  0  0  0
   -1.5000    5.1962    0.0000 C   0  0  0  0  0  0  0  0  0  0  0  0
   -0.7500    6.4952    0.0000 C   0  0  0  0  0  0  0  0  0  0  0  0
    0.7500    6.4952    0.0000 C   0  0  0  0  0  0  0  0  0  0  0  0
    1.5000    7.7942    0.0000 C   0  0  0  0  0  0  0  0  0  0  0  0
    0.7500    9.0933    0.0000 N   0  0  0  0  0  0  0  0  0  0  0  0
   -0.7500    9.0933    0.0000 C   0  0  0  0  0  0  0  0  0  0  0  0
   -1.5000    7.7942    0.0000 C   0  0  0  0  0  0  0  0  0  0  0  0
   -1.5000    0.0000    0.0000 C   0  0  0  0  0  0  0  0  0  0  0  0
   -0.7500   -1.2990    0.0000 C   0  0  0  0  0  0  0  0  0  0  0  0
   -4.6904   -6.5871    0.0000 C   0  0  0  0  0  0  0  0  0  0  0  0
   -6.1170   -7.0506    0.0000 C   0  0  0  0  0  0  0  0  0  0  0  0
  1  2  1  0
  2  3  2  0
  2  4  2  0
  2  5  1  0
  5  6  2  0
  6  7  1  0
  7  8  2  0
  8  9  1  0
  9 10  1  0
 10 11  2  0
 11 12  1  0
 12 13  2  0
 12 14  1  0
 14 15  1  0
 15 16  2  0
 16 17  1  0
 17 18  2  0
 18 19  1  0
 19 20  2  0
 19 21  1  0
 21 22  1  0
 22 23  1  0
 23 24  2  0
 24 25  1  0
 25 26  2  0
 26 27  1  0
 27 28  2  0
 18 29  1  0
 29 30  2  0
  8 31  1  0
 31 32  2  0
 32  5  1  0
 30 11  1  0
 30 15  1  0
 28 23  1  0
M  END
>  <Compound_ID>  (388) 
CHEMBL272165

>  <Molecule Name>  (388) 
GW300657X

>  <Molecular Weight>  (388) 
450.48

>  <AlogP>  (388) 
1.43

>  <Smiles>  (388) 
NS(=O)(=O)c1ccc(N/N=C2\C(=O)Nc3ccc(C(=O)NCc4ccncc4)cc32)cc1

>  <Standard Type>  (388) 
Inhibition

>  <Standard Relation>  (388) 
'='

>  <Standard Units>  (388) 
%

>  <Standard Value>  (388) 
5.14

>  <Assay ChEMBL ID>  (388) 
CHEMBL1962142

>  <Assay Description>  (388) 
GSK_PKIS: MET mean inhibition at 0.1 uM [Nanosyn]

>  <BAO Format ID>  (388) 
BAO_0000357

>  <BAO Label>  (388) 
single protein format

>  <Assay Organism>  (388) 
None

>  <Target ChEMBL ID>  (388) 
CHEMBL3717

>  <Target Name>  (388) 
Hepatocyte growth factor receptor

>  <Target Organism>  (388) 
Homo sapiens

>  <Target Type>  (388) 
SINGLE PROTEIN

>  <Document ChEMBL ID>  (388) 
CHEMBL1961873

>  <Source Description>  (388) 
GSK Published Kinase Inhibitor Set

>  <Document Journal>  (388) 
nan

>  <Document Year>  (388) 
nan

>  <Active>  (388) 
0.0

$$$$

     RDKit          2D

 25 28  0  0  0  0  0  0  0  0999 V2000
    1.5000    0.0000    0.0000 C   0  0  0  0  0  0  0  0  0  0  0  0
    0.7500   -1.2990    0.0000 C   0  0  0  0  0  0  0  0  0  0  0  0
   -0.7500   -1.2990    0.0000 N   0  0  0  0  0  0  0  0  0  0  0  0
   -1.5000    0.0000    0.0000 N   0  0  0  0  0  0  0  0  0  0  0  0
   -2.9672    0.3119    0.0000 N   0  0  0  0  0  0  0  0  0  0  0  0
   -3.1240    1.8037    0.0000 C   0  0  0  0  0  0  0  0  0  0  0  0
   -1.7537    2.4138    0.0000 C   0  0  0  0  0  0  0  0  0  0  0  0
   -1.4418    3.8810    0.0000 C   0  0  0  0  0  0  0  0  0  0  0  0
   -0.0152    4.3445    0.0000 C   0  0  0  0  0  0  0  0  0  0  0  0
    0.2966    5.8117    0.0000 C   0  0  0  0  0  0  0  0  0  0  0  0
   -0.8181    6.8154    0.0000 N   0  0  0  0  0  0  0  0  0  0  0  0
   -2.2447    6.3519    0.0000 C   0  0  0  0  0  0  0  0  0  0  0  0
   -3.3594    7.3556    0.0000 N   0  0  0  0  0  0  0  0  0  0  0  0
   -3.0475    8.8228    0.0000 C   0  0  0  0  0  0  0  0  0  0  0  0
   -4.1622    9.8265    0.0000 C   0  0  0  0  0  0  0  0  0  0  0  0
   -3.8504   11.2937    0.0000 C   0  0  0  0  0  0  0  0  0  0  0  0
   -4.9651   12.2974    0.0000 N   0  0  0  0  0  0  0  0  0  0  0  0
   -4.6532   13.7646    0.0000 C   0  0  0  0  0  0  0  0  0  0  0  0
   -5.7679   14.7683    0.0000 C   0  0  0  0  0  0  0  0  0  0  0  0
   -7.1945   14.3048    0.0000 O   0  0  0  0  0  0  0  0  0  0  0  0
   -7.5064   12.8376    0.0000 C   0  0  0  0  0  0  0  0  0  0  0  0
   -6.3917   11.8339    0.0000 C   0  0  0  0  0  0  0  0  0  0  0  0
   -2.5565    4.8847    0.0000 N   0  0  0  0  0  0  0  0  0  0  0  0
   -0.7500    1.2990    0.0000 C   0  0  0  0  0  0  0  0  0  0  0  0
    0.7500    1.2990    0.0000 C   0  0  0  0  0  0  0  0  0  0  0  0
  1  2  1  0
  2  3  2  0
  3  4  1  0
  4  5  1  0
  5  6  2  0
  6  7  1  0
  7  8  1  0
  8  9  2  0
  9 10  1  0
 10 11  2  0
 11 12  1  0
 12 13  1  0
 13 14  1  0
 14 15  1  0
 15 16  1  0
 16 17  1  0
 17 18  1  0
 18 19  1  0
 19 20  1  0
 20 21  1  0
 21 22  1  0
 12 23  2  0
  7 24  2  0
 24 25  1  0
 25  1  2  0
 24  4  1  0
 23  8  1  0
 22 17  1  0
M  END
>  <Compound_ID>  (389) 
CHEMBL524901

>  <Molecule Name>  (389) 
GW683109X

>  <Molecular Weight>  (389) 
339.40

>  <AlogP>  (389) 
1.32

>  <Smiles>  (389) 
c1cnn2ncc(-c3ccnc(NCCCN4CCOCC4)n3)c2c1

>  <Standard Type>  (389) 
Inhibition

>  <Standard Relation>  (389) 
'='

>  <Standard Units>  (389) 
%

>  <Standard Value>  (389) 
-0.1

>  <Assay ChEMBL ID>  (389) 
CHEMBL1962142

>  <Assay Description>  (389) 
GSK_PKIS: MET mean inhibition at 0.1 uM [Nanosyn]

>  <BAO Format ID>  (389) 
BAO_0000357

>  <BAO Label>  (389) 
single protein format

>  <Assay Organism>  (389) 
None

>  <Target ChEMBL ID>  (389) 
CHEMBL3717

>  <Target Name>  (389) 
Hepatocyte growth factor receptor

>  <Target Organism>  (389) 
Homo sapiens

>  <Target Type>  (389) 
SINGLE PROTEIN

>  <Document ChEMBL ID>  (389) 
CHEMBL1961873

>  <Source Description>  (389) 
GSK Published Kinase Inhibitor Set

>  <Document Journal>  (389) 
nan

>  <Document Year>  (389) 
nan

>  <Active>  (389) 
0.0

$$$$

     RDKit          2D

 36 40  0  0  0  0  0  0  0  0999 V2000
   -2.2631  -13.4903    0.0000 O   0  0  0  0  0  0  0  0  0  0  0  0
   -1.0496  -14.3720    0.0000 C   0  0  0  0  0  0  0  0  0  0  0  0
   -1.2064  -15.8638    0.0000 O   0  0  0  0  0  0  0  0  0  0  0  0
    0.3207  -13.7619    0.0000 C   0  0  0  0  0  0  0  0  0  0  0  0
    0.4775  -12.2701    0.0000 C   0  0  0  0  0  0  0  0  0  0  0  0
    1.8478  -11.6600    0.0000 C   0  0  0  0  0  0  0  0  0  0  0  0
    2.0046  -10.1682    0.0000 C   0  0  0  0  0  0  0  0  0  0  0  0
    3.3037   -9.4182    0.0000 C   0  0  0  0  0  0  0  0  0  0  0  0
    2.9918   -7.9510    0.0000 C   0  0  0  0  0  0  0  0  0  0  0  0
    1.5000   -7.7942    0.0000 C   0  0  0  0  0  0  0  0  0  0  0  0
    0.7500   -6.4952    0.0000 C   0  0  0  0  0  0  0  0  0  0  0  0
    1.5000   -5.1962    0.0000 N   0  0  0  0  0  0  0  0  0  0  0  0
    0.7500   -3.8971    0.0000 C   0  0  0  0  0  0  0  0  0  0  0  0
    1.5000   -2.5981    0.0000 C   0  0  0  0  0  0  0  0  0  0  0  0
    0.7500   -1.2990    0.0000 C   0  0  0  0  0  0  0  0  0  0  0  0
    1.5000    0.0000    0.0000 C   0  0  0  0  0  0  0  0  0  0  0  0
    0.7500    1.2990    0.0000 C   0  0  0  0  0  0  0  0  0  0  0  0
   -0.7500    1.2990    0.0000 C   0  0  0  0  0  0  0  0  0  0  0  0
   -1.5000    0.0000    0.0000 C   0  0  0  0  0  0  0  0  0  0  0  0
   -0.7500   -1.2990    0.0000 C   0  0  0  0  0  0  0  0  0  0  0  0
   -1.5000   -2.5981    0.0000 C   0  0  0  0  0  0  0  0  0  0  0  0
   -0.7500   -3.8971    0.0000 C   0  0  0  0  0  0  0  0  0  0  0  0
   -1.5000   -5.1962    0.0000 N   0  0  0  0  0  0  0  0  0  0  0  0
   -0.7500   -6.4952    0.0000 C   0  0  0  0  0  0  0  0  0  0  0  0
   -1.5000   -7.7942    0.0000 C   0  0  0  0  0  0  0  0  0  0  0  0
   -0.8899   -9.1645    0.0000 C   0  0  0  0  0  0  0  0  0  0  0  0
   -2.0046  -10.1682    0.0000 C   0  0  0  0  0  0  0  0  0  0  0  0
   -3.3037   -9.4182    0.0000 C   0  0  0  0  0  0  0  0  0  0  0  0
   -4.6740  -10.0283    0.0000 C   0  0  0  0  0  0  0  0  0  0  0  0
   -5.8875   -9.1467    0.0000 C   0  0  0  0  0  0  0  0  0  0  0  0
   -7.2578   -9.7568    0.0000 C   0  0  0  0  0  0  0  0  0  0  0  0
   -8.4713   -8.8751    0.0000 C   0  0  0  0  0  0  0  0  0  0  0  0
   -8.3145   -7.3833    0.0000 O   0  0  0  0  0  0  0  0  0  0  0  0
   -9.8417   -9.4852    0.0000 O   0  0  0  0  0  0  0  0  0  0  0  0
   -2.9918   -7.9510    0.0000 S   0  0  0  0  0  0  0  0  0  0  0  0
    0.8899   -9.1645    0.0000 S   0  0  0  0  0  0  0  0  0  0  0  0
  1  2  2  0
  2  3  1  0
  2  4  1  0
  4  5  1  0
  5  6  1  0
  6  7  1  0
  7  8  2  0
  8  9  1  0
  9 10  2  0
 10 11  1  0
 11 12  2  0
 12 13  1  0
 13 14  2  0
 14 15  1  0
 15 16  2  0
 16 17  1  0
 17 18  2  0
 18 19  1  0
 19 20  2  0
 20 21  1  0
 21 22  2  0
 22 23  1  0
 23 24  2  0
 24 25  1  0
 25 26  2  0
 26 27  1  0
 27 28  2  0
 28 29  1  0
 29 30  1  0
 30 31  1  0
 31 32  1  0
 32 33  2  0
 32 34  1  0
 28 35  1  0
 10 36  1  0
 36  7  1  0
 24 11  1  0
 35 25  1  0
 22 13  1  0
 20 15  1  0
M  END
>  <Compound_ID>  (390) 
CHEMBL190057

>  <Molecule Name>  (390) 
nan

>  <Molecular Weight>  (390) 
516.64

>  <AlogP>  (390) 
7.05

>  <Smiles>  (390) 
O=C(O)CCCc1ccc(-c2nc3cc4ccccc4cc3nc2-c2ccc(CCCC(=O)O)s2)s1

>  <Standard Type>  (390) 
Inhibition

>  <Standard Relation>  (390) 
'='

>  <Standard Units>  (390) 
%

>  <Standard Value>  (390) 
7.0

>  <Assay ChEMBL ID>  (390) 
CHEMBL835467

>  <Assay Description>  (390) 
In vitro percent inhibition of Met proto-oncogene tyrosine kinase at 10 uM concentration of compound dissolved in 100% DMSO using 5''-[gamma-33P]-triphosphate

>  <BAO Format ID>  (390) 
BAO_0000357

>  <BAO Label>  (390) 
single protein format

>  <Assay Organism>  (390) 
None

>  <Target ChEMBL ID>  (390) 
CHEMBL3717

>  <Target Name>  (390) 
Hepatocyte growth factor receptor

>  <Target Organism>  (390) 
Homo sapiens

>  <Target Type>  (390) 
SINGLE PROTEIN

>  <Document ChEMBL ID>  (390) 
CHEMBL1140238

>  <Source Description>  (390) 
Scientific Literature

>  <Document Journal>  (390) 
Bioorg Med Chem Lett

>  <Document Year>  (390) 
2005.0

>  <Active>  (390) 
0.0

$$$$

     RDKit          2D

 21 23  0  0  0  0  0  0  0  0999 V2000
   -6.2940    7.2357    0.0000 C   0  0  0  0  0  0  0  0  0  0  0  0
   -7.7206    6.7722    0.0000 O   0  0  0  0  0  0  0  0  0  0  0  0
   -8.0325    5.3050    0.0000 C   0  0  0  0  0  0  0  0  0  0  0  0
   -6.9177    4.3013    0.0000 C   0  0  0  0  0  0  0  0  0  0  0  0
   -7.2296    2.8340    0.0000 C   0  0  0  0  0  0  0  0  0  0  0  0
   -6.1149    1.8303    0.0000 C   0  0  0  0  0  0  0  0  0  0  0  0
   -4.6883    2.2939    0.0000 N   0  0  0  0  0  0  0  0  0  0  0  0
   -3.5736    1.2902    0.0000 N   0  0  0  0  0  0  0  0  0  0  0  0
   -2.1470    1.7537    0.0000 C   0  0  0  0  0  0  0  0  0  0  0  0
   -1.8351    3.2209    0.0000 N   0  0  0  0  0  0  0  0  0  0  0  0
   -0.4086    3.6844    0.0000 C   0  0  0  0  0  0  0  0  0  0  0  0
    0.7062    2.6807    0.0000 N   0  0  0  0  0  0  0  0  0  0  0  0
    0.3943    1.2135    0.0000 C   0  0  0  0  0  0  0  0  0  0  0  0
    1.2760    0.0000    0.0000 N   0  0  0  0  0  0  0  0  0  0  0  0
    0.3943   -1.2135    0.0000 N   0  0  0  0  0  0  0  0  0  0  0  0
   -1.0323   -0.7500    0.0000 C   0  0  0  0  0  0  0  0  0  0  0  0
   -1.0323    0.7500    0.0000 C   0  0  0  0  0  0  0  0  0  0  0  0
   -8.6562    2.3705    0.0000 C   0  0  0  0  0  0  0  0  0  0  0  0
   -9.7709    3.3742    0.0000 C   0  0  0  0  0  0  0  0  0  0  0  0
   -9.4590    4.8414    0.0000 C   0  0  0  0  0  0  0  0  0  0  0  0
  -10.5738    5.8451    0.0000 O   0  0  0  0  0  0  0  0  0  0  0  0
  1  2  1  0
  2  3  1  0
  3  4  2  0
  4  5  1  0
  5  6  1  0
  6  7  2  0
  7  8  1  0
  8  9  1  0
  9 10  2  0
 10 11  1  0
 11 12  2  0
 12 13  1  0
 13 14  1  0
 14 15  1  0
 15 16  2  0
 16 17  1  0
  5 18  2  0
 18 19  1  0
 19 20  2  0
 20 21  1  0
 20  3  1  0
 17  9  1  0
 17 13  2  0
M  END
>  <Compound_ID>  (391) 
CHEMBL66004

>  <Molecule Name>  (391) 
GW578748X

>  <Molecular Weight>  (391) 
284.28

>  <AlogP>  (391) 
1.51

>  <Smiles>  (391) 
COc1cc(/C=N/Nc2ncnc3[nH]ncc23)ccc1O

>  <Standard Type>  (391) 
Inhibition

>  <Standard Relation>  (391) 
'='

>  <Standard Units>  (391) 
%

>  <Standard Value>  (391) 
1.87

>  <Assay ChEMBL ID>  (391) 
CHEMBL1962142

>  <Assay Description>  (391) 
GSK_PKIS: MET mean inhibition at 0.1 uM [Nanosyn]

>  <BAO Format ID>  (391) 
BAO_0000357

>  <BAO Label>  (391) 
single protein format

>  <Assay Organism>  (391) 
None

>  <Target ChEMBL ID>  (391) 
CHEMBL3717

>  <Target Name>  (391) 
Hepatocyte growth factor receptor

>  <Target Organism>  (391) 
Homo sapiens

>  <Target Type>  (391) 
SINGLE PROTEIN

>  <Document ChEMBL ID>  (391) 
CHEMBL1961873

>  <Source Description>  (391) 
GSK Published Kinase Inhibitor Set

>  <Document Journal>  (391) 
nan

>  <Document Year>  (391) 
nan

>  <Active>  (391) 
0.0

$$$$

     RDKit          2D

 30 33  0  0  0  0  0  0  0  0999 V2000
   -6.9771   -5.6725    0.0000 N   0  0  0  0  0  0  0  0  0  0  0  0
   -5.4853   -5.8293    0.0000 C   0  0  0  0  0  0  0  0  0  0  0  0
   -4.8752   -7.1996    0.0000 O   0  0  0  0  0  0  0  0  0  0  0  0
   -4.6036   -4.6157    0.0000 C   0  0  0  0  0  0  0  0  0  0  0  0
   -3.1036   -4.6157    0.0000 S   0  0  0  0  0  0  0  0  0  0  0  0
   -2.6401   -3.1891    0.0000 C   0  0  0  0  0  0  0  0  0  0  0  0
   -1.2135   -2.7256    0.0000 N   0  0  0  0  0  0  0  0  0  0  0  0
   -0.0000   -3.6073    0.0000 C   0  0  0  0  0  0  0  0  0  0  0  0
    1.2135   -2.7256    0.0000 N   0  0  0  0  0  0  0  0  0  0  0  0
    0.7500   -1.2990    0.0000 C   0  0  0  0  0  0  0  0  0  0  0  0
    1.5000    0.0000    0.0000 C   0  0  0  0  0  0  0  0  0  0  0  0
    0.7500    1.2990    0.0000 C   0  0  0  0  0  0  0  0  0  0  0  0
   -0.7500    1.2990    0.0000 C   0  0  0  0  0  0  0  0  0  0  0  0
   -1.5000    2.5981    0.0000 C   0  0  0  0  0  0  0  0  0  0  0  0
   -2.2500    3.8971    0.0000 F   0  0  0  0  0  0  0  0  0  0  0  0
   -0.2010    3.3481    0.0000 F   0  0  0  0  0  0  0  0  0  0  0  0
   -2.7990    1.8481    0.0000 F   0  0  0  0  0  0  0  0  0  0  0  0
   -1.5000    0.0000    0.0000 C   0  0  0  0  0  0  0  0  0  0  0  0
   -0.7500   -1.2990    0.0000 C   0  0  0  0  0  0  0  0  0  0  0  0
   -3.8536   -2.3075    0.0000 C   0  0  0  0  0  0  0  0  0  0  0  0
   -5.0672   -3.1891    0.0000 C   0  0  0  0  0  0  0  0  0  0  0  0
   -6.4937   -2.7256    0.0000 O   0  0  0  0  0  0  0  0  0  0  0  0
   -6.8056   -1.2584    0.0000 C   0  0  0  0  0  0  0  0  0  0  0  0
   -8.2322   -0.7949    0.0000 C   0  0  0  0  0  0  0  0  0  0  0  0
   -8.5441    0.6723    0.0000 C   0  0  0  0  0  0  0  0  0  0  0  0
   -9.9707    1.1359    0.0000 C   0  0  0  0  0  0  0  0  0  0  0  0
  -11.0854    0.1322    0.0000 C   0  0  0  0  0  0  0  0  0  0  0  0
  -10.7735   -1.3350    0.0000 C   0  0  0  0  0  0  0  0  0  0  0  0
   -9.3469   -1.7986    0.0000 C   0  0  0  0  0  0  0  0  0  0  0  0
   -9.0350   -3.2658    0.0000 Br  0  0  0  0  0  0  0  0  0  0  0  0
  1  2  1  0
  2  3  2  0
  2  4  1  0
  4  5  1  0
  5  6  1  0
  6  7  1  0
  7  8  1  0
  8  9  2  0
  9 10  1  0
 10 11  2  0
 11 12  1  0
 12 13  2  0
 13 14  1  0
 14 15  1  0
 14 16  1  0
 14 17  1  0
 13 18  1  0
 18 19  2  0
  6 20  2  0
 20 21  1  0
 21 22  1  0
 22 23  1  0
 23 24  1  0
 24 25  2  0
 25 26  1  0
 26 27  2  0
 27 28  1  0
 28 29  2  0
 29 30  1  0
 21  4  2  0
 29 24  1  0
 19  7  1  0
 19 10  1  0
M  END
>  <Compound_ID>  (392) 
CHEMBL481510

>  <Molecule Name>  (392) 
GW853606X

>  <Molecular Weight>  (392) 
496.31

>  <AlogP>  (392) 
5.55

>  <Smiles>  (392) 
NC(=O)c1sc(-n2cnc3ccc(C(F)(F)F)cc32)cc1OCc1ccccc1Br

>  <Standard Type>  (392) 
Inhibition

>  <Standard Relation>  (392) 
'='

>  <Standard Units>  (392) 
%

>  <Standard Value>  (392) 
3.13

>  <Assay ChEMBL ID>  (392) 
CHEMBL1962142

>  <Assay Description>  (392) 
GSK_PKIS: MET mean inhibition at 0.1 uM [Nanosyn]

>  <BAO Format ID>  (392) 
BAO_0000357

>  <BAO Label>  (392) 
single protein format

>  <Assay Organism>  (392) 
None

>  <Target ChEMBL ID>  (392) 
CHEMBL3717

>  <Target Name>  (392) 
Hepatocyte growth factor receptor

>  <Target Organism>  (392) 
Homo sapiens

>  <Target Type>  (392) 
SINGLE PROTEIN

>  <Document ChEMBL ID>  (392) 
CHEMBL1961873

>  <Source Description>  (392) 
GSK Published Kinase Inhibitor Set

>  <Document Journal>  (392) 
nan

>  <Document Year>  (392) 
nan

>  <Active>  (392) 
0.0

$$$$

     RDKit          2D

 27 30  0  0  0  0  0  0  0  0999 V2000
    3.7500   -3.8971    0.0000 C   0  0  0  0  0  0  0  0  0  0  0  0
    3.0000   -2.5981    0.0000 C   0  0  0  0  0  0  0  0  0  0  0  0
    1.5000   -2.5981    0.0000 N   0  0  0  0  0  0  0  0  0  0  0  0
    0.7500   -1.2990    0.0000 C   0  0  0  0  0  0  0  0  0  0  0  0
    1.5000    0.0000    0.0000 N   0  0  0  0  0  0  0  0  0  0  0  0
    0.7500    1.2990    0.0000 C   0  0  0  0  0  0  0  0  0  0  0  0
   -0.7500    1.2990    0.0000 N   0  0  0  0  0  0  0  0  0  0  0  0
   -1.5000    0.0000    0.0000 C   0  0  0  0  0  0  0  0  0  0  0  0
   -2.9672   -0.3119    0.0000 S   0  0  0  0  0  0  0  0  0  0  0  0
   -3.1240   -1.8037    0.0000 C   0  0  0  0  0  0  0  0  0  0  0  0
   -4.4231   -2.5537    0.0000 C   0  0  0  0  0  0  0  0  0  0  0  0
   -5.7221   -1.8037    0.0000 C   0  0  0  0  0  0  0  0  0  0  0  0
   -7.0211   -2.5537    0.0000 C   0  0  0  0  0  0  0  0  0  0  0  0
   -7.0211   -4.0537    0.0000 C   0  0  0  0  0  0  0  0  0  0  0  0
   -5.7221   -4.8037    0.0000 C   0  0  0  0  0  0  0  0  0  0  0  0
   -4.4231   -4.0537    0.0000 C   0  0  0  0  0  0  0  0  0  0  0  0
   -3.1240   -4.8037    0.0000 C   0  0  0  0  0  0  0  0  0  0  0  0
   -3.1240   -6.3037    0.0000 N   0  0  0  0  0  0  0  0  0  0  0  0
   -1.8250   -4.0537    0.0000 O   0  0  0  0  0  0  0  0  0  0  0  0
   -1.7537   -2.4138    0.0000 C   0  0  0  0  0  0  0  0  0  0  0  0
   -0.7500   -1.2990    0.0000 C   0  0  0  0  0  0  0  0  0  0  0  0
    3.7500   -1.2990    0.0000 C   0  0  0  0  0  0  0  0  0  0  0  0
    5.2500   -1.2990    0.0000 C   0  0  0  0  0  0  0  0  0  0  0  0
    6.0000   -0.0000    0.0000 C   0  0  0  0  0  0  0  0  0  0  0  0
    5.2500    1.2990    0.0000 C   0  0  0  0  0  0  0  0  0  0  0  0
    3.7500    1.2990    0.0000 C   0  0  0  0  0  0  0  0  0  0  0  0
    3.0000   -0.0000    0.0000 C   0  0  0  0  0  0  0  0  0  0  0  0
  2  1  1  1
  2  3  1  0
  3  4  1  0
  4  5  2  0
  5  6  1  0
  6  7  2  0
  7  8  1  0
  8  9  1  0
  9 10  1  0
 10 11  1  0
 11 12  2  0
 12 13  1  0
 13 14  2  0
 14 15  1  0
 15 16  2  0
 16 17  1  0
 17 18  1  0
 17 19  2  0
 10 20  2  0
 20 21  1  0
  2 22  1  0
 22 23  2  0
 23 24  1  0
 24 25  2  0
 25 26  1  0
 26 27  2  0
 21  4  1  0
 27 22  1  0
 21  8  2  0
 16 11  1  0
M  END
>  <Compound_ID>  (393) 
CHEMBL3759085

>  <Molecule Name>  (393) 
nan

>  <Molecular Weight>  (393) 
374.47

>  <AlogP>  (393) 
4.63

>  <Smiles>  (393) 
C[C@@H](Nc1ncnc2sc(-c3ccccc3C(N)=O)cc12)c1ccccc1

>  <Standard Type>  (393) 
Inhibition

>  <Standard Relation>  (393) 
'='

>  <Standard Units>  (393) 
%

>  <Standard Value>  (393) 
-13.0

>  <Assay ChEMBL ID>  (393) 
CHEMBL3761591

>  <Assay Description>  (393) 
Inhibition of MET (unknown origin) at 500 nM

>  <BAO Format ID>  (393) 
BAO_0000357

>  <BAO Label>  (393) 
single protein format

>  <Assay Organism>  (393) 
Homo sapiens

>  <Target ChEMBL ID>  (393) 
CHEMBL3717

>  <Target Name>  (393) 
Hepatocyte growth factor receptor

>  <Target Organism>  (393) 
Homo sapiens

>  <Target Type>  (393) 
SINGLE PROTEIN

>  <Document ChEMBL ID>  (393) 
CHEMBL3758163

>  <Source Description>  (393) 
Scientific Literature

>  <Document Journal>  (393) 
Eur J Med Chem

>  <Document Year>  (393) 
2016.0

>  <Active>  (393) 
0.0

$$$$

     RDKit          2D

 38 42  0  0  0  0  0  0  0  0999 V2000
   -8.2500   -1.2990    0.0000 C   0  0  0  0  0  0  0  0  0  0  0  0
   -7.5000   -2.5981    0.0000 O   0  0  0  0  0  0  0  0  0  0  0  0
   -6.0000   -2.5981    0.0000 C   0  0  0  0  0  0  0  0  0  0  0  0
   -5.2500   -1.2990    0.0000 C   0  0  0  0  0  0  0  0  0  0  0  0
   -3.7500   -1.2990    0.0000 C   0  0  0  0  0  0  0  0  0  0  0  0
   -3.0000   -2.5981    0.0000 C   0  0  0  0  0  0  0  0  0  0  0  0
   -1.5000   -2.5981    0.0000 N   0  0  0  0  0  0  0  0  0  0  0  0
   -0.7500   -3.8971    0.0000 C   0  0  0  0  0  0  0  0  0  0  0  0
   -1.5000   -5.1962    0.0000 O   0  0  0  0  0  0  0  0  0  0  0  0
    0.7500   -3.8971    0.0000 C   0  0  0  0  0  0  0  0  0  0  0  0
    1.5000   -2.5981    0.0000 O   0  0  0  0  0  0  0  0  0  0  0  0
    0.7500   -1.2990    0.0000 C   0  0  0  0  0  0  0  0  0  0  0  0
    1.5000    0.0000    0.0000 C   0  0  0  0  0  0  0  0  0  0  0  0
    0.7500    1.2990    0.0000 C   0  0  0  0  0  0  0  0  0  0  0  0
   -0.7500    1.2990    0.0000 C   0  0  0  0  0  0  0  0  0  0  0  0
   -1.5000    2.5981    0.0000 C   0  0  0  0  0  0  0  0  0  0  0  0
   -0.7500    3.8971    0.0000 C   0  0  0  0  0  0  0  0  0  0  0  0
   -1.5000    5.1962    0.0000 N   0  0  0  0  0  0  0  0  0  0  0  0
   -3.0000    5.1962    0.0000 C   0  0  0  0  0  0  0  0  0  0  0  0
   -3.7500    6.4952    0.0000 O   0  0  0  0  0  0  0  0  0  0  0  0
   -3.0000    7.7942    0.0000 C   0  0  0  0  0  0  0  0  0  0  0  0
   -3.7500    3.8971    0.0000 C   0  0  0  0  0  0  0  0  0  0  0  0
   -5.2500    3.8971    0.0000 N   0  0  0  0  0  0  0  0  0  0  0  0
   -6.0000    5.1962    0.0000 S   0  0  0  0  0  0  0  0  0  0  0  0
   -4.7010    5.9462    0.0000 O   0  0  0  0  0  0  0  0  0  0  0  0
   -7.2990    4.4462    0.0000 O   0  0  0  0  0  0  0  0  0  0  0  0
   -6.7500    6.4952    0.0000 C   0  0  0  0  0  0  0  0  0  0  0  0
   -8.2500    6.4952    0.0000 C   0  0  0  0  0  0  0  0  0  0  0  0
   -9.0000    7.7942    0.0000 C   0  0  0  0  0  0  0  0  0  0  0  0
   -8.2500    9.0933    0.0000 C   0  0  0  0  0  0  0  0  0  0  0  0
   -9.0000   10.3923    0.0000 F   0  0  0  0  0  0  0  0  0  0  0  0
   -6.7500    9.0933    0.0000 C   0  0  0  0  0  0  0  0  0  0  0  0
   -6.0000    7.7942    0.0000 C   0  0  0  0  0  0  0  0  0  0  0  0
   -3.0000    2.5981    0.0000 C   0  0  0  0  0  0  0  0  0  0  0  0
   -1.5000    0.0000    0.0000 C   0  0  0  0  0  0  0  0  0  0  0  0
   -0.7500   -1.2990    0.0000 C   0  0  0  0  0  0  0  0  0  0  0  0
   -3.7500   -3.8971    0.0000 C   0  0  0  0  0  0  0  0  0  0  0  0
   -5.2500   -3.8971    0.0000 C   0  0  0  0  0  0  0  0  0  0  0  0
  1  2  1  0
  2  3  1  0
  3  4  2  0
  4  5  1  0
  5  6  2  0
  6  7  1  0
  7  8  1  0
  8  9  2  0
  8 10  1  0
 10 11  1  0
 11 12  1  0
 12 13  2  0
 13 14  1  0
 14 15  2  0
 15 16  1  0
 16 17  2  0
 17 18  1  0
 18 19  2  0
 19 20  1  0
 20 21  1  0
 19 22  1  0
 22 23  1  0
 23 24  1  0
 24 25  2  0
 24 26  2  0
 24 27  1  0
 27 28  2  0
 28 29  1  0
 29 30  2  0
 30 31  1  0
 30 32  1  0
 32 33  2  0
 22 34  2  0
 15 35  1  0
 35 36  2  0
  6 37  1  0
 37 38  2  0
 38  3  1  0
 36  7  1  0
 36 12  1  0
 34 16  1  0
 33 27  1  0
M  END
>  <Compound_ID>  (394) 
CHEMBL4528675

>  <Molecule Name>  (394) 
nan

>  <Molecular Weight>  (394) 
535.55

>  <AlogP>  (394) 
4.76

>  <Smiles>  (394) 
COc1ccc(N2C(=O)COc3ccc(-c4cnc(OC)c(NS(=O)(=O)c5ccc(F)cc5)c4)cc32)cc1

>  <Standard Type>  (394) 
Inhibition

>  <Standard Relation>  (394) 
'='

>  <Standard Units>  (394) 
%

>  <Standard Value>  (394) 
-7.9

>  <Assay ChEMBL ID>  (394) 
CHEMBL4366305

>  <Assay Description>  (394) 
Inhibition of human c-MET at 100 nM using KKKSPGEYVNIEFG as substrate by [gamma-33P]-ATP assay

>  <BAO Format ID>  (394) 
BAO_0000357

>  <BAO Label>  (394) 
single protein format

>  <Assay Organism>  (394) 
Homo sapiens

>  <Target ChEMBL ID>  (394) 
CHEMBL3717

>  <Target Name>  (394) 
Hepatocyte growth factor receptor

>  <Target Organism>  (394) 
Homo sapiens

>  <Target Type>  (394) 
SINGLE PROTEIN

>  <Document ChEMBL ID>  (394) 
CHEMBL4364276

>  <Source Description>  (394) 
Scientific Literature

>  <Document Journal>  (394) 
Eur J Med Chem

>  <Document Year>  (394) 
2019.0

>  <Active>  (394) 
0.0

$$$$

     RDKit          2D

 21 24  0  0  0  0  0  0  0  0999 V2000
   -3.3454    4.1950    0.0000 C   0  0  0  0  0  0  0  0  0  0  0  0
   -2.4102    3.0223    0.0000 N   0  0  0  0  0  0  0  0  0  0  0  0
   -2.8093    1.5763    0.0000 N   0  0  0  0  0  0  0  0  0  0  0  0
   -1.5574    0.7500    0.0000 C   0  0  0  0  0  0  0  0  0  0  0  0
   -0.3846    1.6852    0.0000 C   0  0  0  0  0  0  0  0  0  0  0  0
    1.0777    1.3515    0.0000 C   0  0  0  0  0  0  0  0  0  0  0  0
    2.0317    2.5098    0.0000 N   0  0  0  0  0  0  0  0  0  0  0  0
    1.5469    3.9293    0.0000 C   0  0  0  0  0  0  0  0  0  0  0  0
    2.5338    5.0589    0.0000 C   0  0  0  0  0  0  0  0  0  0  0  0
    4.0056    4.7690    0.0000 C   0  0  0  0  0  0  0  0  0  0  0  0
    4.9925    5.8986    0.0000 C   0  0  0  0  0  0  0  0  0  0  0  0
    4.5076    7.3181    0.0000 C   0  0  0  0  0  0  0  0  0  0  0  0
    3.0359    7.6080    0.0000 C   0  0  0  0  0  0  0  0  0  0  0  0
    2.0490    6.4784    0.0000 C   0  0  0  0  0  0  0  0  0  0  0  0
    0.0752    4.2192    0.0000 C   0  0  0  0  0  0  0  0  0  0  0  0
   -0.9117    3.0896    0.0000 C   0  0  0  0  0  0  0  0  0  0  0  0
    1.7286    0.0000    0.0000 N   0  0  0  0  0  0  0  0  0  0  0  0
    1.0777   -1.3515    0.0000 C   0  0  0  0  0  0  0  0  0  0  0  0
   -0.3846   -1.6852    0.0000 C   0  0  0  0  0  0  0  0  0  0  0  0
   -0.7184   -3.1476    0.0000 O   0  0  0  0  0  0  0  0  0  0  0  0
   -1.5574   -0.7500    0.0000 N   0  0  0  0  0  0  0  0  0  0  0  0
  1  2  1  0
  2  3  1  0
  3  4  2  0
  4  5  1  0
  5  6  2  0
  6  7  1  0
  7  8  2  0
  8  9  1  0
  9 10  2  0
 10 11  1  0
 11 12  2  0
 12 13  1  0
 13 14  2  0
  8 15  1  0
 15 16  2  0
  6 17  1  0
 17 18  1  0
 18 19  1  0
 19 20  2  0
 19 21  1  0
 16  2  1  0
 21  4  1  0
 16  5  1  0
 14  9  1  0
M  END
>  <Compound_ID>  (395) 
CHEMBL1813799

>  <Molecule Name>  (395) 
nan

>  <Molecular Weight>  (395) 
279.30

>  <AlogP>  (395) 
2.00

>  <Smiles>  (395) 
Cn1nc2c3c(nc(-c4ccccc4)cc31)NCC(=O)N2

>  <Standard Type>  (395) 
Inhibition

>  <Standard Relation>  (395) 
'='

>  <Standard Units>  (395) 
%

>  <Standard Value>  (395) 
10.0

>  <Assay ChEMBL ID>  (395) 
CHEMBL1815730

>  <Assay Description>  (395) 
Inhibition of MET at 30 uM by microfluidic mobility shift assay

>  <BAO Format ID>  (395) 
BAO_0000357

>  <BAO Label>  (395) 
single protein format

>  <Assay Organism>  (395) 
None

>  <Target ChEMBL ID>  (395) 
CHEMBL3717

>  <Target Name>  (395) 
Hepatocyte growth factor receptor

>  <Target Organism>  (395) 
Homo sapiens

>  <Target Type>  (395) 
SINGLE PROTEIN

>  <Document ChEMBL ID>  (395) 
CHEMBL1811853

>  <Source Description>  (395) 
Scientific Literature

>  <Document Journal>  (395) 
Bioorg Med Chem

>  <Document Year>  (395) 
2011.0

>  <Active>  (395) 
0.0

$$$$

     RDKit          2D

 17 19  0  0  0  0  0  0  0  0999 V2000
    2.7760    0.0000    0.0000 N   0  0  0  0  0  0  0  0  0  0  0  0
    1.2760    0.0000    0.0000 C   0  0  0  0  0  0  0  0  0  0  0  0
    0.3943    1.2135    0.0000 N   0  0  0  0  0  0  0  0  0  0  0  0
   -1.0323    0.7500    0.0000 N   0  0  0  0  0  0  0  0  0  0  0  0
   -1.0323   -0.7500    0.0000 C   0  0  0  0  0  0  0  0  0  0  0  0
   -2.1470   -1.7537    0.0000 C   0  0  0  0  0  0  0  0  0  0  0  0
   -1.8351   -3.2209    0.0000 C   0  0  0  0  0  0  0  0  0  0  0  0
   -2.9499   -4.2246    0.0000 C   0  0  0  0  0  0  0  0  0  0  0  0
   -4.3764   -3.7611    0.0000 C   0  0  0  0  0  0  0  0  0  0  0  0
   -5.4912   -4.7648    0.0000 C   0  0  0  0  0  0  0  0  0  0  0  0
   -5.1793   -6.2320    0.0000 C   0  0  0  0  0  0  0  0  0  0  0  0
   -3.7527   -6.6955    0.0000 N   0  0  0  0  0  0  0  0  0  0  0  0
   -2.6380   -5.6918    0.0000 C   0  0  0  0  0  0  0  0  0  0  0  0
   -0.4086   -3.6844    0.0000 N   0  0  0  0  0  0  0  0  0  0  0  0
    0.7062   -2.6807    0.0000 C   0  0  0  0  0  0  0  0  0  0  0  0
    2.1328   -3.1443    0.0000 O   0  0  0  0  0  0  0  0  0  0  0  0
    0.3943   -1.2135    0.0000 C   0  0  0  0  0  0  0  0  0  0  0  0
  1  2  1  0
  2  3  2  0
  3  4  1  0
  4  5  1  0
  5  6  1  0
  6  7  2  0
  7  8  1  0
  8  9  2  0
  9 10  1  0
 10 11  2  0
 11 12  1  0
 12 13  2  0
  7 14  1  0
 14 15  1  0
 15 16  2  0
 15 17  1  0
 17  2  1  0
 17  5  2  0
 13  8  1  0
M  END
>  <Compound_ID>  (396) 
CHEMBL1813606

>  <Molecule Name>  (396) 
nan

>  <Molecular Weight>  (396) 
227.23

>  <AlogP>  (396) 
0.90

>  <Smiles>  (396) 
Nc1n[nH]c2cc(-c3cccnc3)[nH]c(=O)c12

>  <Standard Type>  (396) 
Inhibition

>  <Standard Relation>  (396) 
'='

>  <Standard Units>  (396) 
%

>  <Standard Value>  (396) 
6.0

>  <Assay ChEMBL ID>  (396) 
CHEMBL1815730

>  <Assay Description>  (396) 
Inhibition of MET at 30 uM by microfluidic mobility shift assay

>  <BAO Format ID>  (396) 
BAO_0000357

>  <BAO Label>  (396) 
single protein format

>  <Assay Organism>  (396) 
None

>  <Target ChEMBL ID>  (396) 
CHEMBL3717

>  <Target Name>  (396) 
Hepatocyte growth factor receptor

>  <Target Organism>  (396) 
Homo sapiens

>  <Target Type>  (396) 
SINGLE PROTEIN

>  <Document ChEMBL ID>  (396) 
CHEMBL1811853

>  <Source Description>  (396) 
Scientific Literature

>  <Document Journal>  (396) 
Bioorg Med Chem

>  <Document Year>  (396) 
2011.0

>  <Active>  (396) 
0.0

$$$$

     RDKit          2D

 19 21  0  0  0  0  0  0  0  0999 V2000
    2.2655   10.0169    0.0000 C   0  0  0  0  0  0  0  0  0  0  0  0
    0.8389    9.5533    0.0000 O   0  0  0  0  0  0  0  0  0  0  0  0
    0.5271    8.0861    0.0000 C   0  0  0  0  0  0  0  0  0  0  0  0
    1.6418    7.0824    0.0000 C   0  0  0  0  0  0  0  0  0  0  0  0
    1.3299    5.6152    0.0000 C   0  0  0  0  0  0  0  0  0  0  0  0
   -0.0967    5.1517    0.0000 C   0  0  0  0  0  0  0  0  0  0  0  0
   -0.4086    3.6844    0.0000 C   0  0  0  0  0  0  0  0  0  0  0  0
    0.7062    2.6807    0.0000 C   0  0  0  0  0  0  0  0  0  0  0  0
    0.3943    1.2135    0.0000 C   0  0  0  0  0  0  0  0  0  0  0  0
    1.2760    0.0000    0.0000 N   0  0  0  0  0  0  0  0  0  0  0  0
    0.3943   -1.2135    0.0000 N   0  0  0  0  0  0  0  0  0  0  0  0
   -1.0323   -0.7500    0.0000 C   0  0  0  0  0  0  0  0  0  0  0  0
   -2.2458   -1.6317    0.0000 N   0  0  0  0  0  0  0  0  0  0  0  0
   -1.0323    0.7500    0.0000 C   0  0  0  0  0  0  0  0  0  0  0  0
   -2.1470    1.7537    0.0000 C   0  0  0  0  0  0  0  0  0  0  0  0
   -3.5736    1.2902    0.0000 O   0  0  0  0  0  0  0  0  0  0  0  0
   -1.8351    3.2209    0.0000 N   0  0  0  0  0  0  0  0  0  0  0  0
   -1.2114    6.1554    0.0000 C   0  0  0  0  0  0  0  0  0  0  0  0
   -0.8995    7.6226    0.0000 C   0  0  0  0  0  0  0  0  0  0  0  0
  1  2  1  0
  2  3  1  0
  3  4  2  0
  4  5  1  0
  5  6  2  0
  6  7  1  0
  7  8  2  0
  8  9  1  0
  9 10  1  0
 10 11  1  0
 11 12  2  0
 12 13  1  0
 12 14  1  0
 14 15  1  0
 15 16  2  0
 15 17  1  0
  6 18  1  0
 18 19  2  0
 19  3  1  0
 17  7  1  0
 14  9  2  0
M  END
>  <Compound_ID>  (397) 
CHEMBL1813610

>  <Molecule Name>  (397) 
nan

>  <Molecular Weight>  (397) 
256.26

>  <AlogP>  (397) 
1.51

>  <Smiles>  (397) 
COc1ccc(-c2cc3[nH]nc(N)c3c(=O)[nH]2)cc1

>  <Standard Type>  (397) 
Inhibition

>  <Standard Relation>  (397) 
'='

>  <Standard Units>  (397) 
%

>  <Standard Value>  (397) 
-4.0

>  <Assay ChEMBL ID>  (397) 
CHEMBL1815730

>  <Assay Description>  (397) 
Inhibition of MET at 30 uM by microfluidic mobility shift assay

>  <BAO Format ID>  (397) 
BAO_0000357

>  <BAO Label>  (397) 
single protein format

>  <Assay Organism>  (397) 
None

>  <Target ChEMBL ID>  (397) 
CHEMBL3717

>  <Target Name>  (397) 
Hepatocyte growth factor receptor

>  <Target Organism>  (397) 
Homo sapiens

>  <Target Type>  (397) 
SINGLE PROTEIN

>  <Document ChEMBL ID>  (397) 
CHEMBL1811853

>  <Source Description>  (397) 
Scientific Literature

>  <Document Journal>  (397) 
Bioorg Med Chem

>  <Document Year>  (397) 
2011.0

>  <Active>  (397) 
0.0

$$$$

     RDKit          2D

 15 16  0  0  0  0  0  0  0  0999 V2000
    1.3705    4.8398    0.0000 C   0  0  0  0  0  0  0  0  0  0  0  0
   -0.0967    5.1517    0.0000 C   0  0  0  0  0  0  0  0  0  0  0  0
   -1.5639    5.4635    0.0000 C   0  0  0  0  0  0  0  0  0  0  0  0
    0.2152    6.6189    0.0000 C   0  0  0  0  0  0  0  0  0  0  0  0
   -0.4086    3.6844    0.0000 C   0  0  0  0  0  0  0  0  0  0  0  0
    0.7062    2.6807    0.0000 C   0  0  0  0  0  0  0  0  0  0  0  0
    0.3943    1.2135    0.0000 C   0  0  0  0  0  0  0  0  0  0  0  0
    1.2760    0.0000    0.0000 N   0  0  0  0  0  0  0  0  0  0  0  0
    0.3943   -1.2135    0.0000 N   0  0  0  0  0  0  0  0  0  0  0  0
   -1.0323   -0.7500    0.0000 C   0  0  0  0  0  0  0  0  0  0  0  0
   -2.2458   -1.6317    0.0000 N   0  0  0  0  0  0  0  0  0  0  0  0
   -1.0323    0.7500    0.0000 C   0  0  0  0  0  0  0  0  0  0  0  0
   -2.1470    1.7537    0.0000 C   0  0  0  0  0  0  0  0  0  0  0  0
   -3.5736    1.2902    0.0000 O   0  0  0  0  0  0  0  0  0  0  0  0
   -1.8351    3.2209    0.0000 N   0  0  0  0  0  0  0  0  0  0  0  0
  1  2  1  0
  2  3  1  0
  2  4  1  0
  2  5  1  0
  5  6  2  0
  6  7  1  0
  7  8  1  0
  8  9  1  0
  9 10  2  0
 10 11  1  0
 10 12  1  0
 12 13  1  0
 13 14  2  0
 13 15  1  0
 15  5  1  0
 12  7  2  0
M  END
>  <Compound_ID>  (398) 
CHEMBL1813613

>  <Molecule Name>  (398) 
nan

>  <Molecular Weight>  (398) 
206.25

>  <AlogP>  (398) 
1.13

>  <Smiles>  (398) 
CC(C)(C)c1cc2[nH]nc(N)c2c(=O)[nH]1

>  <Standard Type>  (398) 
Inhibition

>  <Standard Relation>  (398) 
'='

>  <Standard Units>  (398) 
%

>  <Standard Value>  (398) 
-2.0

>  <Assay ChEMBL ID>  (398) 
CHEMBL1815730

>  <Assay Description>  (398) 
Inhibition of MET at 30 uM by microfluidic mobility shift assay

>  <BAO Format ID>  (398) 
BAO_0000357

>  <BAO Label>  (398) 
single protein format

>  <Assay Organism>  (398) 
None

>  <Target ChEMBL ID>  (398) 
CHEMBL3717

>  <Target Name>  (398) 
Hepatocyte growth factor receptor

>  <Target Organism>  (398) 
Homo sapiens

>  <Target Type>  (398) 
SINGLE PROTEIN

>  <Document ChEMBL ID>  (398) 
CHEMBL1811853

>  <Source Description>  (398) 
Scientific Literature

>  <Document Journal>  (398) 
Bioorg Med Chem

>  <Document Year>  (398) 
2011.0

>  <Active>  (398) 
0.0

$$$$

     RDKit          2D

 15 17  0  0  0  0  0  0  0  0999 V2000
   -1.4418   -6.4791    0.0000 N   0  0  0  0  0  0  0  0  0  0  0  0
   -1.7537   -5.0118    0.0000 C   0  0  0  0  0  0  0  0  0  0  0  0
   -3.1240   -4.4017    0.0000 N   0  0  0  0  0  0  0  0  0  0  0  0
   -2.9672   -2.9099    0.0000 N   0  0  0  0  0  0  0  0  0  0  0  0
   -1.5000   -2.5981    0.0000 C   0  0  0  0  0  0  0  0  0  0  0  0
   -0.7500   -1.2990    0.0000 C   0  0  0  0  0  0  0  0  0  0  0  0
    0.7500   -1.2990    0.0000 C   0  0  0  0  0  0  0  0  0  0  0  0
    1.5000   -2.5981    0.0000 N   0  0  0  0  0  0  0  0  0  0  0  0
    0.7500   -3.8971    0.0000 C   0  0  0  0  0  0  0  0  0  0  0  0
    1.5000   -5.1962    0.0000 O   0  0  0  0  0  0  0  0  0  0  0  0
   -0.7500   -3.8971    0.0000 C   0  0  0  0  0  0  0  0  0  0  0  0
    1.5000    0.0000    0.0000 C   0  0  0  0  0  0  0  0  0  0  0  0
    0.7500    1.2990    0.0000 C   0  0  0  0  0  0  0  0  0  0  0  0
   -0.7500    1.2990    0.0000 C   0  0  0  0  0  0  0  0  0  0  0  0
   -1.5000    0.0000    0.0000 C   0  0  0  0  0  0  0  0  0  0  0  0
  1  2  1  0
  2  3  2  0
  3  4  1  0
  4  5  1  0
  5  6  1  0
  6  7  2  0
  7  8  1  0
  8  9  1  0
  9 10  2  0
  9 11  1  0
  7 12  1  0
 12 13  1  0
 13 14  1  0
 14 15  1  0
 11  2  1  0
 11  5  2  0
 15  6  1  0
M  END
>  <Compound_ID>  (399) 
CHEMBL1813617

>  <Molecule Name>  (399) 
nan

>  <Molecular Weight>  (399) 
204.23

>  <AlogP>  (399) 
0.71

>  <Smiles>  (399) 
Nc1n[nH]c2c3c([nH]c(=O)c12)CCCC3

>  <Standard Type>  (399) 
Inhibition

>  <Standard Relation>  (399) 
'='

>  <Standard Units>  (399) 
%

>  <Standard Value>  (399) 
-8.0

>  <Assay ChEMBL ID>  (399) 
CHEMBL1815730

>  <Assay Description>  (399) 
Inhibition of MET at 30 uM by microfluidic mobility shift assay

>  <BAO Format ID>  (399) 
BAO_0000357

>  <BAO Label>  (399) 
single protein format

>  <Assay Organism>  (399) 
None

>  <Target ChEMBL ID>  (399) 
CHEMBL3717

>  <Target Name>  (399) 
Hepatocyte growth factor receptor

>  <Target Organism>  (399) 
Homo sapiens

>  <Target Type>  (399) 
SINGLE PROTEIN

>  <Document ChEMBL ID>  (399) 
CHEMBL1811853

>  <Source Description>  (399) 
Scientific Literature

>  <Document Journal>  (399) 
Bioorg Med Chem

>  <Document Year>  (399) 
2011.0

>  <Active>  (399) 
0.0

$$$$

     RDKit          2D

 32 36  0  0  0  0  0  0  0  0999 V2000
    3.0000    0.0000    0.0000 C   0  0  0  0  0  0  0  0  0  0  0  0
    1.5000    0.0000    0.0000 N   0  0  0  0  0  0  0  0  0  0  0  0
    0.7500   -1.2990    0.0000 C   0  0  0  0  0  0  0  0  0  0  0  0
   -0.7500   -1.2990    0.0000 C   0  0  0  0  0  0  0  0  0  0  0  0
   -1.5000    0.0000    0.0000 C   0  0  0  0  0  0  0  0  0  0  0  0
   -3.0000    0.0000    0.0000 N   0  0  0  0  0  0  0  0  0  0  0  0
   -3.8817   -1.2135    0.0000 C   0  0  0  0  0  0  0  0  0  0  0  0
   -5.3083   -0.7500    0.0000 N   0  0  0  0  0  0  0  0  0  0  0  0
   -5.3083    0.7500    0.0000 C   0  0  0  0  0  0  0  0  0  0  0  0
   -6.5218    1.6317    0.0000 C   0  0  0  0  0  0  0  0  0  0  0  0
   -6.3650    3.1235    0.0000 C   0  0  0  0  0  0  0  0  0  0  0  0
   -7.5785    4.0051    0.0000 C   0  0  0  0  0  0  0  0  0  0  0  0
   -8.9488    3.3950    0.0000 C   0  0  0  0  0  0  0  0  0  0  0  0
  -10.1624    4.2767    0.0000 F   0  0  0  0  0  0  0  0  0  0  0  0
   -9.1056    1.9033    0.0000 C   0  0  0  0  0  0  0  0  0  0  0  0
   -7.8921    1.0216    0.0000 C   0  0  0  0  0  0  0  0  0  0  0  0
   -3.8817    1.2135    0.0000 C   0  0  0  0  0  0  0  0  0  0  0  0
   -3.4182    2.6401    0.0000 C   0  0  0  0  0  0  0  0  0  0  0  0
   -1.9509    2.9520    0.0000 C   0  0  0  0  0  0  0  0  0  0  0  0
   -1.4874    4.3786    0.0000 C   0  0  0  0  0  0  0  0  0  0  0  0
   -2.4911    5.4933    0.0000 N   0  0  0  0  0  0  0  0  0  0  0  0
   -3.9583    5.1814    0.0000 C   0  0  0  0  0  0  0  0  0  0  0  0
   -4.9620    6.2961    0.0000 N   0  0  0  0  0  0  0  0  0  0  0  0
   -4.4985    7.7227    0.0000 C   0  0  0  0  0  0  0  0  0  0  0  0
   -3.0313    8.0346    0.0000 C   0  0  0  0  0  0  0  0  0  0  0  0
   -2.5677    9.4612    0.0000 C   0  0  0  0  0  0  0  0  0  0  0  0
   -3.5714   10.5759    0.0000 C   0  0  0  0  0  0  0  0  0  0  0  0
   -5.0387   10.2640    0.0000 C   0  0  0  0  0  0  0  0  0  0  0  0
   -5.5022    8.8374    0.0000 C   0  0  0  0  0  0  0  0  0  0  0  0
   -4.4218    3.7548    0.0000 N   0  0  0  0  0  0  0  0  0  0  0  0
   -0.7500    1.2990    0.0000 C   0  0  0  0  0  0  0  0  0  0  0  0
    0.7500    1.2990    0.0000 C   0  0  0  0  0  0  0  0  0  0  0  0
  1  2  1  0
  2  3  1  0
  3  4  1  0
  4  5  1  0
  5  6  1  0
  6  7  1  0
  7  8  2  0
  8  9  1  0
  9 10  1  0
 10 11  2  0
 11 12  1  0
 12 13  2  0
 13 14  1  0
 13 15  1  0
 15 16  2  0
  9 17  2  0
 17 18  1  0
 18 19  2  0
 19 20  1  0
 20 21  2  0
 21 22  1  0
 22 23  1  0
 23 24  1  0
 24 25  2  0
 25 26  1  0
 26 27  2  0
 27 28  1  0
 28 29  2  0
 22 30  2  0
  5 31  1  0
 31 32  1  0
 32  2  1  0
 17  6  1  0
 30 18  1  0
 16 10  1  0
 29 24  1  0
M  END
>  <Compound_ID>  (400) 
CHEMBL318892

>  <Molecule Name>  (400) 
nan

>  <Molecular Weight>  (400) 
428.52

>  <AlogP>  (400) 
5.16

>  <Smiles>  (400) 
CN1CCC(n2cnc(-c3ccc(F)cc3)c2-c2ccnc(Nc3ccccc3)n2)CC1

>  <Standard Type>  (400) 
Inhibition

>  <Standard Relation>  (400) 
'='

>  <Standard Units>  (400) 
%

>  <Standard Value>  (400) 
-0.26

>  <Assay ChEMBL ID>  (400) 
CHEMBL1962142

>  <Assay Description>  (400) 
GSK_PKIS: MET mean inhibition at 0.1 uM [Nanosyn]

>  <BAO Format ID>  (400) 
BAO_0000357

>  <BAO Label>  (400) 
single protein format

>  <Assay Organism>  (400) 
None

>  <Target ChEMBL ID>  (400) 
CHEMBL3717

>  <Target Name>  (400) 
Hepatocyte growth factor receptor

>  <Target Organism>  (400) 
Homo sapiens

>  <Target Type>  (400) 
SINGLE PROTEIN

>  <Document ChEMBL ID>  (400) 
CHEMBL1961873

>  <Source Description>  (400) 
GSK Published Kinase Inhibitor Set

>  <Document Journal>  (400) 
nan

>  <Document Year>  (400) 
nan

>  <Active>  (400) 
0.0

$$$$

     RDKit          2D

 26 29  0  0  0  0  0  0  0  0999 V2000
    3.7500   -1.2990    0.0000 C   0  0  0  0  0  0  0  0  0  0  0  0
    3.0000    0.0000    0.0000 C   0  0  0  0  0  0  0  0  0  0  0  0
    3.7500    1.2990    0.0000 C   0  0  0  0  0  0  0  0  0  0  0  0
    1.5000    0.0000    0.0000 C   0  0  0  0  0  0  0  0  0  0  0  0
    0.7500   -1.2990    0.0000 C   0  0  0  0  0  0  0  0  0  0  0  0
   -0.7500   -1.2990    0.0000 C   0  0  0  0  0  0  0  0  0  0  0  0
   -1.5000    0.0000    0.0000 C   0  0  0  0  0  0  0  0  0  0  0  0
   -3.0000    0.0000    0.0000 C   0  0  0  0  0  0  0  0  0  0  0  0
   -3.7500    1.2990    0.0000 C   0  0  0  0  0  0  0  0  0  0  0  0
   -5.2500    1.2990    0.0000 C   0  0  0  0  0  0  0  0  0  0  0  0
   -6.0000    2.5981    0.0000 C   0  0  0  0  0  0  0  0  0  0  0  0
   -7.4918    2.7549    0.0000 C   0  0  0  0  0  0  0  0  0  0  0  0
   -7.8037    4.2221    0.0000 N   0  0  0  0  0  0  0  0  0  0  0  0
   -6.5046    4.9721    0.0000 N   0  0  0  0  0  0  0  0  0  0  0  0
   -5.3899    3.9684    0.0000 C   0  0  0  0  0  0  0  0  0  0  0  0
   -3.9227    4.2803    0.0000 C   0  0  0  0  0  0  0  0  0  0  0  0
   -2.9190    3.1655    0.0000 C   0  0  0  0  0  0  0  0  0  0  0  0
   -1.4518    3.4774    0.0000 C   0  0  0  0  0  0  0  0  0  0  0  0
   -0.9882    4.9040    0.0000 C   0  0  0  0  0  0  0  0  0  0  0  0
   -1.9919    6.0187    0.0000 C   0  0  0  0  0  0  0  0  0  0  0  0
   -3.4591    5.7068    0.0000 N   0  0  0  0  0  0  0  0  0  0  0  0
   -6.0000    0.0000    0.0000 C   0  0  0  0  0  0  0  0  0  0  0  0
   -5.2500   -1.2990    0.0000 C   0  0  0  0  0  0  0  0  0  0  0  0
   -3.7500   -1.2990    0.0000 N   0  0  0  0  0  0  0  0  0  0  0  0
   -0.7500    1.2990    0.0000 C   0  0  0  0  0  0  0  0  0  0  0  0
    0.7500    1.2990    0.0000 C   0  0  0  0  0  0  0  0  0  0  0  0
  1  2  1  0
  2  3  1  0
  2  4  1  0
  4  5  2  0
  5  6  1  0
  6  7  2  0
  7  8  1  0
  8  9  2  0
  9 10  1  0
 10 11  1  0
 11 12  2  0
 12 13  1  0
 13 14  1  0
 14 15  2  0
 15 16  1  0
 16 17  2  0
 17 18  1  0
 18 19  2  0
 19 20  1  0
 20 21  2  0
 10 22  2  0
 22 23  1  0
 23 24  2  0
  7 25  1  0
 25 26  2  0
 26  4  1  0
 24  8  1  0
 15 11  1  0
 21 16  1  0
M  END
>  <Compound_ID>  (401) 
CHEMBL206544

>  <Molecule Name>  (401) 
GW682841X

>  <Molecular Weight>  (401) 
340.43

>  <AlogP>  (401) 
5.32

>  <Smiles>  (401) 
CC(C)c1ccc(-c2cc(-c3c[nH]nc3-c3ccccn3)ccn2)cc1

>  <Standard Type>  (401) 
Inhibition

>  <Standard Relation>  (401) 
'='

>  <Standard Units>  (401) 
%

>  <Standard Value>  (401) 
-1.81

>  <Assay ChEMBL ID>  (401) 
CHEMBL1962142

>  <Assay Description>  (401) 
GSK_PKIS: MET mean inhibition at 0.1 uM [Nanosyn]

>  <BAO Format ID>  (401) 
BAO_0000357

>  <BAO Label>  (401) 
single protein format

>  <Assay Organism>  (401) 
None

>  <Target ChEMBL ID>  (401) 
CHEMBL3717

>  <Target Name>  (401) 
Hepatocyte growth factor receptor

>  <Target Organism>  (401) 
Homo sapiens

>  <Target Type>  (401) 
SINGLE PROTEIN

>  <Document ChEMBL ID>  (401) 
CHEMBL1961873

>  <Source Description>  (401) 
GSK Published Kinase Inhibitor Set

>  <Document Journal>  (401) 
nan

>  <Document Year>  (401) 
nan

>  <Active>  (401) 
0.0

$$$$

     RDKit          2D

 34 38  0  0  0  0  0  0  0  0999 V2000
   -4.6904   -6.5871    0.0000 C   0  0  0  0  0  0  0  0  0  0  0  0
   -4.3786   -5.1199    0.0000 C   0  0  0  0  0  0  0  0  0  0  0  0
   -2.9520   -4.6564    0.0000 N   0  0  0  0  0  0  0  0  0  0  0  0
   -2.6401   -3.1891    0.0000 C   0  0  0  0  0  0  0  0  0  0  0  0
   -3.7548   -2.1855    0.0000 O   0  0  0  0  0  0  0  0  0  0  0  0
   -1.2135   -2.7256    0.0000 C   0  0  0  0  0  0  0  0  0  0  0  0
   -0.0000   -3.6073    0.0000 C   0  0  0  0  0  0  0  0  0  0  0  0
    1.2135   -2.7256    0.0000 N   0  0  0  0  0  0  0  0  0  0  0  0
    0.7500   -1.2990    0.0000 C   0  0  0  0  0  0  0  0  0  0  0  0
    1.5000    0.0000    0.0000 N   0  0  0  0  0  0  0  0  0  0  0  0
    0.7500    1.2990    0.0000 C   0  0  0  0  0  0  0  0  0  0  0  0
   -0.7500    1.2990    0.0000 C   0  0  0  0  0  0  0  0  0  0  0  0
   -1.5000    2.5981    0.0000 C   0  0  0  0  0  0  0  0  0  0  0  0
   -2.9918    2.7549    0.0000 N   0  0  0  0  0  0  0  0  0  0  0  0
   -3.3037    4.2221    0.0000 N   0  0  0  0  0  0  0  0  0  0  0  0
   -4.6740    4.8322    0.0000 C   0  0  0  0  0  0  0  0  0  0  0  0
   -2.0046    4.9721    0.0000 C   0  0  0  0  0  0  0  0  0  0  0  0
   -1.6927    6.4393    0.0000 C   0  0  0  0  0  0  0  0  0  0  0  0
   -0.2662    6.9028    0.0000 C   0  0  0  0  0  0  0  0  0  0  0  0
    0.0457    8.3701    0.0000 Cl  0  0  0  0  0  0  0  0  0  0  0  0
    0.8486    5.8991    0.0000 C   0  0  0  0  0  0  0  0  0  0  0  0
    0.5367    4.4319    0.0000 C   0  0  0  0  0  0  0  0  0  0  0  0
    1.6514    3.4282    0.0000 F   0  0  0  0  0  0  0  0  0  0  0  0
   -0.8899    3.9684    0.0000 C   0  0  0  0  0  0  0  0  0  0  0  0
   -1.5000    0.0000    0.0000 N   0  0  0  0  0  0  0  0  0  0  0  0
   -0.7500   -1.2990    0.0000 C   0  0  0  0  0  0  0  0  0  0  0  0
   -5.4933   -4.1162    0.0000 C   0  0  0  0  0  0  0  0  0  0  0  0
   -5.1814   -2.6490    0.0000 O   0  0  0  0  0  0  0  0  0  0  0  0
   -6.9199   -4.5797    0.0000 N   0  0  0  0  0  0  0  0  0  0  0  0
   -8.2564   -3.8987    0.0000 C   0  0  0  0  0  0  0  0  0  0  0  0
   -8.9374   -5.2352    0.0000 C   0  0  0  0  0  0  0  0  0  0  0  0
  -10.3639   -5.6988    0.0000 C   0  0  0  0  0  0  0  0  0  0  0  0
  -11.7905   -6.1623    0.0000 N   0  0  0  0  0  0  0  0  0  0  0  0
   -7.6009   -5.9162    0.0000 C   0  0  0  0  0  0  0  0  0  0  0  0
  2  1  1  6
  2  3  1  0
  3  4  1  0
  4  5  2  0
  4  6  1  0
  6  7  2  0
  7  8  1  0
  8  9  1  0
  9 10  2  0
 10 11  1  0
 11 12  2  0
 12 13  1  0
 13 14  2  0
 14 15  1  0
 15 16  1  0
 15 17  1  0
 17 18  2  0
 18 19  1  0
 19 20  1  0
 19 21  2  0
 21 22  1  0
 22 23  1  0
 22 24  2  0
 12 25  1  0
 25 26  2  0
  2 27  1  0
 27 28  2  0
 27 29  1  0
 29 30  1  0
 30 31  1  0
 31 32  1  0
 32 33  3  0
 31 34  1  0
 26  6  1  0
 34 29  1  0
 26  9  1  0
 24 13  1  0
 24 17  1  0
M  END
>  <Compound_ID>  (402) 
CHEMBL2376152

>  <Molecule Name>  (402) 
nan

>  <Molecular Weight>  (402) 
480.89

>  <AlogP>  (402) 
2.40

>  <Smiles>  (402) 
C[C@@H](NC(=O)c1c[nH]c2ncc(-c3nn(C)c4cc(Cl)cc(F)c34)nc12)C(=O)N1CC(C#N)C1

>  <Standard Type>  (402) 
Inhibition

>  <Standard Relation>  (402) 
'='

>  <Standard Units>  (402) 
%

>  <Standard Value>  (402) 
-3.0

>  <Assay ChEMBL ID>  (402) 
CHEMBL2378435

>  <Assay Description>  (402) 
Inhibition of MET (unknown origin) at 10 uM relative to control

>  <BAO Format ID>  (402) 
BAO_0000357

>  <BAO Label>  (402) 
single protein format

>  <Assay Organism>  (402) 
Homo sapiens

>  <Target ChEMBL ID>  (402) 
CHEMBL3717

>  <Target Name>  (402) 
Hepatocyte growth factor receptor

>  <Target Organism>  (402) 
Homo sapiens

>  <Target Type>  (402) 
SINGLE PROTEIN

>  <Document ChEMBL ID>  (402) 
CHEMBL2375236

>  <Source Description>  (402) 
Scientific Literature

>  <Document Journal>  (402) 
Bioorg Med Chem Lett

>  <Document Year>  (402) 
2013.0

>  <Active>  (402) 
0.0

$$$$

     RDKit          2D

 36 40  0  0  0  0  0  0  0  0999 V2000
   -3.7548   -2.1855    0.0000 C   0  0  0  0  0  0  0  0  0  0  0  0
   -2.6401   -3.1891    0.0000 C   0  0  0  0  0  0  0  0  0  0  0  0
   -1.2135   -2.7256    0.0000 N   0  0  0  0  0  0  0  0  0  0  0  0
   -0.0000   -3.6073    0.0000 C   0  0  0  0  0  0  0  0  0  0  0  0
   -0.0000   -5.1073    0.0000 C   0  0  0  0  0  0  0  0  0  0  0  0
    1.2135   -5.9890    0.0000 N   0  0  0  0  0  0  0  0  0  0  0  0
    0.7500   -7.4156    0.0000 O   0  0  0  0  0  0  0  0  0  0  0  0
   -0.7500   -7.4156    0.0000 N   0  0  0  0  0  0  0  0  0  0  0  0
   -1.2135   -5.9890    0.0000 C   0  0  0  0  0  0  0  0  0  0  0  0
   -2.6401   -5.5255    0.0000 N   0  0  0  0  0  0  0  0  0  0  0  0
    1.2135   -2.7256    0.0000 N   0  0  0  0  0  0  0  0  0  0  0  0
    0.7500   -1.2990    0.0000 C   0  0  0  0  0  0  0  0  0  0  0  0
    1.5000    0.0000    0.0000 C   0  0  0  0  0  0  0  0  0  0  0  0
    0.7500    1.2990    0.0000 N   0  0  0  0  0  0  0  0  0  0  0  0
   -0.7500    1.2990    0.0000 C   0  0  0  0  0  0  0  0  0  0  0  0
   -1.5000    2.5981    0.0000 O   0  0  0  0  0  0  0  0  0  0  0  0
   -0.7500    3.8971    0.0000 C   0  0  0  0  0  0  0  0  0  0  0  0
    0.7500    3.8971    0.0000 C   0  0  0  0  0  0  0  0  0  0  0  0
    1.5000    5.1962    0.0000 C   0  0  0  0  0  0  0  0  0  0  0  0
    0.7500    6.4952    0.0000 C   0  0  0  0  0  0  0  0  0  0  0  0
   -0.7500    6.4952    0.0000 C   0  0  0  0  0  0  0  0  0  0  0  0
   -1.5000    7.7942    0.0000 N   0  0  0  0  0  0  0  0  0  0  0  0
   -0.7500    9.0933    0.0000 C   0  0  0  0  0  0  0  0  0  0  0  0
    0.7500    9.0933    0.0000 O   0  0  0  0  0  0  0  0  0  0  0  0
   -1.5000   10.3923    0.0000 C   0  0  0  0  0  0  0  0  0  0  0  0
   -0.7500   11.6913    0.0000 C   0  0  0  0  0  0  0  0  0  0  0  0
   -1.5000   12.9904    0.0000 C   0  0  0  0  0  0  0  0  0  0  0  0
   -3.0000   12.9904    0.0000 C   0  0  0  0  0  0  0  0  0  0  0  0
   -3.7500   14.2894    0.0000 N   0  0  0  0  0  0  0  0  0  0  0  0
   -3.0000   15.5885    0.0000 C   0  0  0  0  0  0  0  0  0  0  0  0
   -5.2500   14.2894    0.0000 C   0  0  0  0  0  0  0  0  0  0  0  0
   -3.7500   11.6913    0.0000 C   0  0  0  0  0  0  0  0  0  0  0  0
   -3.0000   10.3923    0.0000 C   0  0  0  0  0  0  0  0  0  0  0  0
   -1.5000    5.1962    0.0000 C   0  0  0  0  0  0  0  0  0  0  0  0
   -1.5000    0.0000    0.0000 C   0  0  0  0  0  0  0  0  0  0  0  0
   -0.7500   -1.2990    0.0000 C   0  0  0  0  0  0  0  0  0  0  0  0
  1  2  1  0
  2  3  1  0
  3  4  1  0
  4  5  1  0
  5  6  2  0
  6  7  1  0
  7  8  1  0
  8  9  2  0
  9 10  1  0
  4 11  2  0
 11 12  1  0
 12 13  2  0
 13 14  1  0
 14 15  2  0
 15 16  1  0
 16 17  1  0
 17 18  2  0
 18 19  1  0
 19 20  2  0
 20 21  1  0
 21 22  1  0
 22 23  1  0
 23 24  2  0
 23 25  1  0
 25 26  2  0
 26 27  1  0
 27 28  2  0
 28 29  1  0
 29 30  1  0
 29 31  1  0
 28 32  1  0
 32 33  2  0
 21 34  2  0
 15 35  1  0
 35 36  2  0
 36  3  1  0
  9  5  1  0
 36 12  1  0
 34 17  1  0
 33 25  1  0
M  END
>  <Compound_ID>  (403) 
CHEMBL220465

>  <Molecule Name>  (403) 
GSK-248233A

>  <Molecular Weight>  (403) 
484.52

>  <AlogP>  (403) 
4.19

>  <Smiles>  (403) 
CCn1c(-c2nonc2N)nc2cnc(Oc3cccc(NC(=O)c4ccc(N(C)C)cc4)c3)cc21

>  <Standard Type>  (403) 
Inhibition

>  <Standard Relation>  (403) 
'='

>  <Standard Units>  (403) 
%

>  <Standard Value>  (403) 
-1.57

>  <Assay ChEMBL ID>  (403) 
CHEMBL1962142

>  <Assay Description>  (403) 
GSK_PKIS: MET mean inhibition at 0.1 uM [Nanosyn]

>  <BAO Format ID>  (403) 
BAO_0000357

>  <BAO Label>  (403) 
single protein format

>  <Assay Organism>  (403) 
None

>  <Target ChEMBL ID>  (403) 
CHEMBL3717

>  <Target Name>  (403) 
Hepatocyte growth factor receptor

>  <Target Organism>  (403) 
Homo sapiens

>  <Target Type>  (403) 
SINGLE PROTEIN

>  <Document ChEMBL ID>  (403) 
CHEMBL1961873

>  <Source Description>  (403) 
GSK Published Kinase Inhibitor Set

>  <Document Journal>  (403) 
nan

>  <Document Year>  (403) 
nan

>  <Active>  (403) 
0.0

$$$$

     RDKit          2D

 30 34  0  0  0  0  0  0  0  0999 V2000
   12.7500   -3.8971    0.0000 C   0  0  0  0  0  0  0  0  0  0  0  0
   12.0000   -5.1962    0.0000 C   0  0  0  0  0  0  0  0  0  0  0  0
   10.5000   -5.1962    0.0000 C   0  0  0  0  0  0  0  0  0  0  0  0
    9.7500   -3.8971    0.0000 C   0  0  0  0  0  0  0  0  0  0  0  0
    8.2500   -3.8971    0.0000 C   0  0  0  0  0  0  0  0  0  0  0  0
    7.5000   -2.5981    0.0000 O   0  0  0  0  0  0  0  0  0  0  0  0
    6.0000   -2.5981    0.0000 C   0  0  0  0  0  0  0  0  0  0  0  0
    5.2500   -1.2990    0.0000 C   0  0  0  0  0  0  0  0  0  0  0  0
    3.7500   -1.2990    0.0000 C   0  0  0  0  0  0  0  0  0  0  0  0
    3.0000   -2.5981    0.0000 C   0  0  0  0  0  0  0  0  0  0  0  0
    1.5000   -2.5981    0.0000 N   0  0  0  0  0  0  0  0  0  0  0  0
    0.7500   -1.2990    0.0000 C   0  0  0  0  0  0  0  0  0  0  0  0
    1.5000    0.0000    0.0000 N   0  0  0  0  0  0  0  0  0  0  0  0
    0.7500    1.2990    0.0000 C   0  0  0  0  0  0  0  0  0  0  0  0
   -0.7500    1.2990    0.0000 N   0  0  0  0  0  0  0  0  0  0  0  0
   -1.5000    0.0000    0.0000 C   0  0  0  0  0  0  0  0  0  0  0  0
   -3.0000    0.0000    0.0000 C   0  0  0  0  0  0  0  0  0  0  0  0
   -3.7500   -1.2990    0.0000 C   0  0  0  0  0  0  0  0  0  0  0  0
   -3.0000   -2.5981    0.0000 C   0  0  0  0  0  0  0  0  0  0  0  0
   -3.7500   -3.8971    0.0000 C   0  0  0  0  0  0  0  0  0  0  0  0
   -3.1399   -5.2674    0.0000 C   0  0  0  0  0  0  0  0  0  0  0  0
   -4.2546   -6.2711    0.0000 C   0  0  0  0  0  0  0  0  0  0  0  0
   -5.5537   -5.5211    0.0000 C   0  0  0  0  0  0  0  0  0  0  0  0
   -5.2418   -4.0539    0.0000 O   0  0  0  0  0  0  0  0  0  0  0  0
   -1.5000   -2.5981    0.0000 C   0  0  0  0  0  0  0  0  0  0  0  0
   -0.7500   -1.2990    0.0000 C   0  0  0  0  0  0  0  0  0  0  0  0
    3.7500   -3.8971    0.0000 C   0  0  0  0  0  0  0  0  0  0  0  0
    5.2500   -3.8971    0.0000 C   0  0  0  0  0  0  0  0  0  0  0  0
   10.5000   -2.5981    0.0000 C   0  0  0  0  0  0  0  0  0  0  0  0
   12.0000   -2.5981    0.0000 C   0  0  0  0  0  0  0  0  0  0  0  0
  1  2  2  0
  2  3  1  0
  3  4  2  0
  4  5  1  0
  5  6  1  0
  6  7  1  0
  7  8  2  0
  8  9  1  0
  9 10  2  0
 10 11  1  0
 11 12  1  0
 12 13  2  0
 13 14  1  0
 14 15  2  0
 15 16  1  0
 16 17  2  0
 17 18  1  0
 18 19  2  0
 19 20  1  0
 20 21  2  0
 21 22  1  0
 22 23  2  0
 23 24  1  0
 19 25  1  0
 25 26  2  0
 10 27  1  0
 27 28  2  0
  4 29  1  0
 29 30  2  0
 30  1  1  0
 28  7  1  0
 26 12  1  0
 26 16  1  0
 24 20  1  0
M  END
>  <Compound_ID>  (404) 
CHEMBL215993

>  <Molecule Name>  (404) 
GW284372X

>  <Molecular Weight>  (404) 
393.45

>  <AlogP>  (404) 
6.21

>  <Smiles>  (404) 
c1ccc(COc2ccc(Nc3ncnc4ccc(-c5ccco5)cc34)cc2)cc1

>  <Standard Type>  (404) 
Inhibition

>  <Standard Relation>  (404) 
'='

>  <Standard Units>  (404) 
%

>  <Standard Value>  (404) 
2.85

>  <Assay ChEMBL ID>  (404) 
CHEMBL1962143

>  <Assay Description>  (404) 
GSK_PKIS: MET mean inhibition at 1 uM [Nanosyn]

>  <BAO Format ID>  (404) 
BAO_0000357

>  <BAO Label>  (404) 
single protein format

>  <Assay Organism>  (404) 
None

>  <Target ChEMBL ID>  (404) 
CHEMBL3717

>  <Target Name>  (404) 
Hepatocyte growth factor receptor

>  <Target Organism>  (404) 
Homo sapiens

>  <Target Type>  (404) 
SINGLE PROTEIN

>  <Document ChEMBL ID>  (404) 
CHEMBL1961873

>  <Source Description>  (404) 
GSK Published Kinase Inhibitor Set

>  <Document Journal>  (404) 
nan

>  <Document Year>  (404) 
nan

>  <Active>  (404) 
0.0

$$$$

     RDKit          2D

 34 37  0  0  0  0  0  0  0  0999 V2000
    0.9345    9.0350    0.0000 C   0  0  0  0  0  0  0  0  0  0  0  0
    1.3980    7.6085    0.0000 N   0  0  0  0  0  0  0  0  0  0  0  0
    0.3943    6.4937    0.0000 C   0  0  0  0  0  0  0  0  0  0  0  0
   -1.0729    6.8056    0.0000 O   0  0  0  0  0  0  0  0  0  0  0  0
    0.8578    5.0672    0.0000 C   0  0  0  0  0  0  0  0  0  0  0  0
   -0.0239    3.8536    0.0000 S   0  0  0  0  0  0  0  0  0  0  0  0
    0.8578    2.6401    0.0000 C   0  0  0  0  0  0  0  0  0  0  0  0
    0.3943    1.2135    0.0000 N   0  0  0  0  0  0  0  0  0  0  0  0
    1.2760    0.0000    0.0000 C   0  0  0  0  0  0  0  0  0  0  0  0
    0.3943   -1.2135    0.0000 N   0  0  0  0  0  0  0  0  0  0  0  0
   -1.0323   -0.7500    0.0000 C   0  0  0  0  0  0  0  0  0  0  0  0
   -2.3313   -1.5000    0.0000 C   0  0  0  0  0  0  0  0  0  0  0  0
   -3.6304   -0.7500    0.0000 C   0  0  0  0  0  0  0  0  0  0  0  0
   -4.9294   -1.5000    0.0000 O   0  0  0  0  0  0  0  0  0  0  0  0
   -6.2284   -0.7500    0.0000 C   0  0  0  0  0  0  0  0  0  0  0  0
   -3.6304    0.7500    0.0000 C   0  0  0  0  0  0  0  0  0  0  0  0
   -4.9294    1.5000    0.0000 O   0  0  0  0  0  0  0  0  0  0  0  0
   -4.9294    3.0000    0.0000 C   0  0  0  0  0  0  0  0  0  0  0  0
   -2.3313    1.5000    0.0000 C   0  0  0  0  0  0  0  0  0  0  0  0
   -1.0323    0.7500    0.0000 C   0  0  0  0  0  0  0  0  0  0  0  0
    2.2844    3.1036    0.0000 C   0  0  0  0  0  0  0  0  0  0  0  0
    2.2844    4.6036    0.0000 C   0  0  0  0  0  0  0  0  0  0  0  0
    3.4979    5.4853    0.0000 O   0  0  0  0  0  0  0  0  0  0  0  0
    4.8683    4.8752    0.0000 C   0  0  0  0  0  0  0  0  0  0  0  0
    6.0818    5.7569    0.0000 C   0  0  0  0  0  0  0  0  0  0  0  0
    7.4521    5.1468    0.0000 C   0  0  0  0  0  0  0  0  0  0  0  0
    8.6656    6.0285    0.0000 C   0  0  0  0  0  0  0  0  0  0  0  0
    8.5088    7.5202    0.0000 C   0  0  0  0  0  0  0  0  0  0  0  0
    7.1385    8.1303    0.0000 C   0  0  0  0  0  0  0  0  0  0  0  0
    5.9250    7.2487    0.0000 C   0  0  0  0  0  0  0  0  0  0  0  0
    4.5547    7.8588    0.0000 C   0  0  0  0  0  0  0  0  0  0  0  0
    3.1843    8.4689    0.0000 F   0  0  0  0  0  0  0  0  0  0  0  0
    5.1648    9.2291    0.0000 F   0  0  0  0  0  0  0  0  0  0  0  0
    3.9446    6.4885    0.0000 F   0  0  0  0  0  0  0  0  0  0  0  0
  1  2  1  0
  2  3  1  0
  3  4  2  0
  3  5  1  0
  5  6  1  0
  6  7  1  0
  7  8  1  0
  8  9  1  0
  9 10  2  0
 10 11  1  0
 11 12  2  0
 12 13  1  0
 13 14  1  0
 14 15  1  0
 13 16  2  0
 16 17  1  0
 17 18  1  0
 16 19  1  0
 19 20  2  0
  7 21  2  0
 21 22  1  0
 22 23  1  0
 23 24  1  0
 24 25  1  0
 25 26  2  0
 26 27  1  0
 27 28  2  0
 28 29  1  0
 29 30  2  0
 30 31  1  0
 31 32  1  0
 31 33  1  0
 31 34  1  0
 22  5  2  0
 30 25  1  0
 20  8  1  0
 20 11  1  0
M  END
>  <Compound_ID>  (405) 
CHEMBL518968

>  <Molecule Name>  (405) 
GSK-1030061A

>  <Molecular Weight>  (405) 
491.49

>  <AlogP>  (405) 
5.06

>  <Smiles>  (405) 
CNC(=O)c1sc(-n2cnc3cc(OC)c(OC)cc32)cc1OCc1ccccc1C(F)(F)F

>  <Standard Type>  (405) 
Inhibition

>  <Standard Relation>  (405) 
'='

>  <Standard Units>  (405) 
%

>  <Standard Value>  (405) 
3.89

>  <Assay ChEMBL ID>  (405) 
CHEMBL1962143

>  <Assay Description>  (405) 
GSK_PKIS: MET mean inhibition at 1 uM [Nanosyn]

>  <BAO Format ID>  (405) 
BAO_0000357

>  <BAO Label>  (405) 
single protein format

>  <Assay Organism>  (405) 
None

>  <Target ChEMBL ID>  (405) 
CHEMBL3717

>  <Target Name>  (405) 
Hepatocyte growth factor receptor

>  <Target Organism>  (405) 
Homo sapiens

>  <Target Type>  (405) 
SINGLE PROTEIN

>  <Document ChEMBL ID>  (405) 
CHEMBL1961873

>  <Source Description>  (405) 
GSK Published Kinase Inhibitor Set

>  <Document Journal>  (405) 
nan

>  <Document Year>  (405) 
nan

>  <Active>  (405) 
0.0

$$$$

     RDKit          2D

 23 24  0  0  0  0  0  0  0  0999 V2000
    3.7500   -1.2990    0.0000 C   0  0  0  0  0  0  0  0  0  0  0  0
    3.0000    0.0000    0.0000 O   0  0  0  0  0  0  0  0  0  0  0  0
    1.5000    0.0000    0.0000 C   0  0  0  0  0  0  0  0  0  0  0  0
    0.7500   -1.2990    0.0000 C   0  0  0  0  0  0  0  0  0  0  0  0
   -0.7500   -1.2990    0.0000 C   0  0  0  0  0  0  0  0  0  0  0  0
   -1.5000   -2.5981    0.0000 C   0  0  0  0  0  0  0  0  0  0  0  0
   -0.7500   -3.8971    0.0000 O   0  0  0  0  0  0  0  0  0  0  0  0
   -3.0000   -2.5981    0.0000 O   0  0  0  0  0  0  0  0  0  0  0  0
   -3.7500   -3.8971    0.0000 C   0  0  0  0  0  0  0  0  0  0  0  0
   -5.2500   -3.8971    0.0000 C   0  0  0  0  0  0  0  0  0  0  0  0
   -6.0000   -5.1962    0.0000 C   0  0  0  0  0  0  0  0  0  0  0  0
   -7.5000   -5.1962    0.0000 C   0  0  0  0  0  0  0  0  0  0  0  0
   -8.2500   -6.4952    0.0000 C   0  0  0  0  0  0  0  0  0  0  0  0
   -7.5000   -7.7942    0.0000 C   0  0  0  0  0  0  0  0  0  0  0  0
   -8.2500   -9.0933    0.0000 O   0  0  0  0  0  0  0  0  0  0  0  0
   -6.0000   -7.7942    0.0000 C   0  0  0  0  0  0  0  0  0  0  0  0
   -5.2500   -6.4952    0.0000 C   0  0  0  0  0  0  0  0  0  0  0  0
   -1.5000    0.0000    0.0000 C   0  0  0  0  0  0  0  0  0  0  0  0
   -0.7500    1.2990    0.0000 C   0  0  0  0  0  0  0  0  0  0  0  0
   -1.5000    2.5981    0.0000 O   0  0  0  0  0  0  0  0  0  0  0  0
   -3.0000    2.5981    0.0000 C   0  0  0  0  0  0  0  0  0  0  0  0
    0.7500    1.2990    0.0000 C   0  0  0  0  0  0  0  0  0  0  0  0
    1.5000    2.5981    0.0000 O   0  0  0  0  0  0  0  0  0  0  0  0
  1  2  1  0
  2  3  1  0
  3  4  2  0
  4  5  1  0
  5  6  1  0
  6  7  2  0
  6  8  1  0
  8  9  1  0
  9 10  1  0
 10 11  1  0
 11 12  2  0
 12 13  1  0
 13 14  2  0
 14 15  1  0
 14 16  1  0
 16 17  2  0
  5 18  2  0
 18 19  1  0
 19 20  1  0
 20 21  1  0
 19 22  2  0
 22 23  1  0
 22  3  1  0
 17 11  1  0
M  END
>  <Compound_ID>  (406) 
CHEMBL2348313

>  <Molecule Name>  (406) 
TYROSOL SYRINGATE

>  <Molecular Weight>  (406) 
318.33

>  <AlogP>  (406) 
2.51

>  <Smiles>  (406) 
COc1cc(C(=O)OCCc2ccc(O)cc2)cc(OC)c1O

>  <Standard Type>  (406) 
Inhibition

>  <Standard Relation>  (406) 
'='

>  <Standard Units>  (406) 
%

>  <Standard Value>  (406) 
6.4

>  <Assay ChEMBL ID>  (406) 
CHEMBL2350425

>  <Assay Description>  (406) 
Inhibition of c-MET phosphorylation (unknown origin) at 25 uM after 1 hr by Z'-LYTE kinase assay

>  <BAO Format ID>  (406) 
BAO_0000357

>  <BAO Label>  (406) 
single protein format

>  <Assay Organism>  (406) 
Homo sapiens

>  <Target ChEMBL ID>  (406) 
CHEMBL3717

>  <Target Name>  (406) 
Hepatocyte growth factor receptor

>  <Target Organism>  (406) 
Homo sapiens

>  <Target Type>  (406) 
SINGLE PROTEIN

>  <Document ChEMBL ID>  (406) 
CHEMBL2346504

>  <Source Description>  (406) 
Scientific Literature

>  <Document Journal>  (406) 
Bioorg Med Chem

>  <Document Year>  (406) 
2013.0

>  <Active>  (406) 
0.0

$$$$

     RDKit          2D

 23 25  0  0  0  0  0  0  0  0999 V2000
  -10.0849   -6.9740    0.0000 N   0  0  0  0  0  0  0  0  0  0  0  0
   -8.6583   -6.5105    0.0000 S   0  0  0  0  0  0  0  0  0  0  0  0
   -9.1218   -5.0839    0.0000 O   0  0  0  0  0  0  0  0  0  0  0  0
   -8.1948   -7.9371    0.0000 O   0  0  0  0  0  0  0  0  0  0  0  0
   -7.2317   -6.0469    0.0000 C   0  0  0  0  0  0  0  0  0  0  0  0
   -6.9199   -4.5797    0.0000 C   0  0  0  0  0  0  0  0  0  0  0  0
   -5.4933   -4.1162    0.0000 C   0  0  0  0  0  0  0  0  0  0  0  0
   -4.3786   -5.1199    0.0000 C   0  0  0  0  0  0  0  0  0  0  0  0
   -2.9520   -4.6564    0.0000 N   0  0  0  0  0  0  0  0  0  0  0  0
   -2.6401   -3.1891    0.0000 N   0  0  0  0  0  0  0  0  0  0  0  0
   -1.2135   -2.7256    0.0000 C   0  0  0  0  0  0  0  0  0  0  0  0
   -0.0000   -3.6073    0.0000 C   0  0  0  0  0  0  0  0  0  0  0  0
    0.0000   -5.1073    0.0000 O   0  0  0  0  0  0  0  0  0  0  0  0
    1.2135   -2.7256    0.0000 N   0  0  0  0  0  0  0  0  0  0  0  0
    0.7500   -1.2990    0.0000 C   0  0  0  0  0  0  0  0  0  0  0  0
    1.5000    0.0000    0.0000 C   0  0  0  0  0  0  0  0  0  0  0  0
    0.7500    1.2990    0.0000 C   0  0  0  0  0  0  0  0  0  0  0  0
   -0.7500    1.2990    0.0000 C   0  0  0  0  0  0  0  0  0  0  0  0
   -1.5000    2.5981    0.0000 Cl  0  0  0  0  0  0  0  0  0  0  0  0
   -1.5000    0.0000    0.0000 C   0  0  0  0  0  0  0  0  0  0  0  0
   -0.7500   -1.2990    0.0000 C   0  0  0  0  0  0  0  0  0  0  0  0
   -4.6904   -6.5871    0.0000 C   0  0  0  0  0  0  0  0  0  0  0  0
   -6.1170   -7.0506    0.0000 C   0  0  0  0  0  0  0  0  0  0  0  0
  1  2  1  0
  2  3  2  0
  2  4  2  0
  2  5  1  0
  5  6  2  0
  6  7  1  0
  7  8  2  0
  8  9  1  0
  9 10  1  0
 10 11  2  0
 11 12  1  0
 12 13  2  0
 12 14  1  0
 14 15  1  0
 15 16  2  0
 16 17  1  0
 17 18  2  0
 18 19  1  0
 18 20  1  0
 20 21  2  0
  8 22  1  0
 22 23  2  0
 23  5  1  0
 21 11  1  0
 21 15  1  0
M  END
>  <Compound_ID>  (407) 
CHEMBL270054

>  <Molecule Name>  (407) 
GW280670X

>  <Molecular Weight>  (407) 
350.79

>  <AlogP>  (407) 
1.76

>  <Smiles>  (407) 
NS(=O)(=O)c1ccc(N/N=C2\C(=O)Nc3ccc(Cl)cc32)cc1

>  <Standard Type>  (407) 
Inhibition

>  <Standard Relation>  (407) 
'='

>  <Standard Units>  (407) 
%

>  <Standard Value>  (407) 
7.96

>  <Assay ChEMBL ID>  (407) 
CHEMBL1962142

>  <Assay Description>  (407) 
GSK_PKIS: MET mean inhibition at 0.1 uM [Nanosyn]

>  <BAO Format ID>  (407) 
BAO_0000357

>  <BAO Label>  (407) 
single protein format

>  <Assay Organism>  (407) 
None

>  <Target ChEMBL ID>  (407) 
CHEMBL3717

>  <Target Name>  (407) 
Hepatocyte growth factor receptor

>  <Target Organism>  (407) 
Homo sapiens

>  <Target Type>  (407) 
SINGLE PROTEIN

>  <Document ChEMBL ID>  (407) 
CHEMBL1961873

>  <Source Description>  (407) 
GSK Published Kinase Inhibitor Set

>  <Document Journal>  (407) 
nan

>  <Document Year>  (407) 
nan

>  <Active>  (407) 
0.0

$$$$

     RDKit          2D

 24 27  0  0  0  0  0  0  0  0999 V2000
   -2.5546    4.4425    0.0000 C   0  0  0  0  0  0  0  0  0  0  0  0
   -3.8536    3.6925    0.0000 O   0  0  0  0  0  0  0  0  0  0  0  0
   -3.8536    2.1925    0.0000 C   0  0  0  0  0  0  0  0  0  0  0  0
   -2.5546    1.4425    0.0000 C   0  0  0  0  0  0  0  0  0  0  0  0
   -2.5546   -0.0575    0.0000 C   0  0  0  0  0  0  0  0  0  0  0  0
   -3.8536   -0.8075    0.0000 C   0  0  0  0  0  0  0  0  0  0  0  0
   -3.8536   -2.3075    0.0000 C   0  0  0  0  0  0  0  0  0  0  0  0
   -2.6401   -3.1891    0.0000 C   0  0  0  0  0  0  0  0  0  0  0  0
   -1.2135   -2.7256    0.0000 N   0  0  0  0  0  0  0  0  0  0  0  0
   -0.0000   -3.6073    0.0000 C   0  0  0  0  0  0  0  0  0  0  0  0
    1.2135   -2.7256    0.0000 C   0  0  0  0  0  0  0  0  0  0  0  0
    0.7500   -1.2990    0.0000 C   0  0  0  0  0  0  0  0  0  0  0  0
    1.5000    0.0000    0.0000 C   0  0  0  0  0  0  0  0  0  0  0  0
    0.7500    1.2990    0.0000 C   0  0  0  0  0  0  0  0  0  0  0  0
   -0.7500    1.2990    0.0000 C   0  0  0  0  0  0  0  0  0  0  0  0
   -1.5000    0.0000    0.0000 C   0  0  0  0  0  0  0  0  0  0  0  0
   -0.7500   -1.2990    0.0000 C   0  0  0  0  0  0  0  0  0  0  0  0
   -3.1036   -4.6157    0.0000 C   0  0  0  0  0  0  0  0  0  0  0  0
   -2.2220   -5.8293    0.0000 O   0  0  0  0  0  0  0  0  0  0  0  0
   -4.6036   -4.6157    0.0000 N   0  0  0  0  0  0  0  0  0  0  0  0
   -5.0672   -3.1891    0.0000 C   0  0  0  0  0  0  0  0  0  0  0  0
   -6.4937   -2.7256    0.0000 O   0  0  0  0  0  0  0  0  0  0  0  0
   -5.1527   -0.0575    0.0000 C   0  0  0  0  0  0  0  0  0  0  0  0
   -5.1527    1.4425    0.0000 C   0  0  0  0  0  0  0  0  0  0  0  0
  1  2  1  0
  2  3  1  0
  3  4  2  0
  4  5  1  0
  5  6  2  0
  6  7  1  0
  7  8  2  0
  8  9  1  0
  9 10  1  0
 10 11  1  0
 11 12  1  0
 12 13  2  0
 13 14  1  0
 14 15  2  0
 15 16  1  0
 16 17  2  0
  8 18  1  0
 18 19  2  0
 18 20  1  0
 20 21  1  0
 21 22  2  0
  6 23  1  0
 23 24  2  0
 24  3  1  0
 21  7  1  0
 17  9  1  0
 17 12  1  0
M  END
>  <Compound_ID>  (408) 
CHEMBL347580

>  <Molecule Name>  (408) 
nan

>  <Molecular Weight>  (408) 
320.35

>  <AlogP>  (408) 
2.13

>  <Smiles>  (408) 
COc1ccc(C2=C(N3CCc4ccccc43)C(=O)NC2=O)cc1

>  <Standard Type>  (408) 
Inhibition

>  <Standard Relation>  (408) 
'='

>  <Standard Units>  (408) 
%

>  <Standard Value>  (408) 
7.87

>  <Assay ChEMBL ID>  (408) 
CHEMBL1962143

>  <Assay Description>  (408) 
GSK_PKIS: MET mean inhibition at 1 uM [Nanosyn]

>  <BAO Format ID>  (408) 
BAO_0000357

>  <BAO Label>  (408) 
single protein format

>  <Assay Organism>  (408) 
None

>  <Target ChEMBL ID>  (408) 
CHEMBL3717

>  <Target Name>  (408) 
Hepatocyte growth factor receptor

>  <Target Organism>  (408) 
Homo sapiens

>  <Target Type>  (408) 
SINGLE PROTEIN

>  <Document ChEMBL ID>  (408) 
CHEMBL1961873

>  <Source Description>  (408) 
GSK Published Kinase Inhibitor Set

>  <Document Journal>  (408) 
nan

>  <Document Year>  (408) 
nan

>  <Active>  (408) 
0.0

$$$$

     RDKit          2D

 22 23  0  0  0  0  0  0  0  0999 V2000
    3.0000    0.0000    0.0000 C   0  0  0  0  0  0  0  0  0  0  0  0
    1.5000    0.0000    0.0000 C   0  0  0  0  0  0  0  0  0  0  0  0
    0.7500   -1.2990    0.0000 C   0  0  0  0  0  0  0  0  0  0  0  0
   -0.7500   -1.2990    0.0000 C   0  0  0  0  0  0  0  0  0  0  0  0
   -1.5000   -2.5981    0.0000 O   0  0  0  0  0  0  0  0  0  0  0  0
   -1.5000    0.0000    0.0000 C   0  0  0  0  0  0  0  0  0  0  0  0
   -0.7500    1.2990    0.0000 C   0  0  0  0  0  0  0  0  0  0  0  0
   -1.5000    2.5981    0.0000 C   0  0  0  0  0  0  0  0  0  0  0  0
    0.7500    1.2990    0.0000 C   0  0  0  0  0  0  0  0  0  0  0  0
    1.5000    2.5981    0.0000 C   0  0  0  0  0  0  0  0  0  0  0  0
    3.0000    2.5981    0.0000 C   0  0  0  0  0  0  0  0  0  0  0  0
    3.7500    3.8971    0.0000 C   0  0  0  0  0  0  0  0  0  0  0  0
    5.2500    3.8971    0.0000 C   0  0  0  0  0  0  0  0  0  0  0  0
    6.0000    5.1962    0.0000 N   0  0  0  0  0  0  0  0  0  0  0  0
    5.2500    6.4952    0.0000 C   0  0  0  0  0  0  0  0  0  0  0  0
    3.7500    6.4952    0.0000 C   0  0  0  0  0  0  0  0  0  0  0  0
    3.0000    7.7942    0.0000 C   0  0  0  0  0  0  0  0  0  0  0  0
    1.5000    7.7942    0.0000 O   0  0  0  0  0  0  0  0  0  0  0  0
    3.7500    9.0933    0.0000 N   0  0  0  0  0  0  0  0  0  0  0  0
    3.0000   10.3923    0.0000 C   0  0  0  0  0  0  0  0  0  0  0  0
    5.2500    9.0933    0.0000 C   0  0  0  0  0  0  0  0  0  0  0  0
    3.0000    5.1962    0.0000 C   0  0  0  0  0  0  0  0  0  0  0  0
  1  2  1  0
  2  3  2  0
  3  4  1  0
  4  5  1  0
  4  6  2  0
  6  7  1  0
  7  8  1  0
  7  9  2  0
  9 10  1  0
 10 11  2  0
 11 12  1  0
 12 13  2  0
 13 14  1  0
 14 15  2  0
 15 16  1  0
 16 17  1  0
 17 18  2  0
 17 19  1  0
 19 20  1  0
 19 21  1  0
 16 22  2  0
  9  2  1  0
 22 12  1  0
M  END
>  <Compound_ID>  (409) 
CHEMBL220244

>  <Molecule Name>  (409) 
GW427984X

>  <Molecular Weight>  (409) 
296.37

>  <AlogP>  (409) 
3.28

>  <Smiles>  (409) 
Cc1cc(O)cc(C)c1/C=C/c1cncc(C(=O)N(C)C)c1

>  <Standard Type>  (409) 
Inhibition

>  <Standard Relation>  (409) 
'='

>  <Standard Units>  (409) 
%

>  <Standard Value>  (409) 
10.9

>  <Assay ChEMBL ID>  (409) 
CHEMBL1962143

>  <Assay Description>  (409) 
GSK_PKIS: MET mean inhibition at 1 uM [Nanosyn]

>  <BAO Format ID>  (409) 
BAO_0000357

>  <BAO Label>  (409) 
single protein format

>  <Assay Organism>  (409) 
None

>  <Target ChEMBL ID>  (409) 
CHEMBL3717

>  <Target Name>  (409) 
Hepatocyte growth factor receptor

>  <Target Organism>  (409) 
Homo sapiens

>  <Target Type>  (409) 
SINGLE PROTEIN

>  <Document ChEMBL ID>  (409) 
CHEMBL1961873

>  <Source Description>  (409) 
GSK Published Kinase Inhibitor Set

>  <Document Journal>  (409) 
nan

>  <Document Year>  (409) 
nan

>  <Active>  (409) 
0.0

$$$$

     RDKit          2D

 23 24  0  0  0  0  0  0  0  0999 V2000
    3.0000    0.0000    0.0000 C   0  0  0  0  0  0  0  0  0  0  0  0
    1.5000    0.0000    0.0000 C   0  0  0  0  0  0  0  0  0  0  0  0
    0.7500   -1.2990    0.0000 C   0  0  0  0  0  0  0  0  0  0  0  0
   -0.7500   -1.2990    0.0000 C   0  0  0  0  0  0  0  0  0  0  0  0
   -1.5000    0.0000    0.0000 C   0  0  0  0  0  0  0  0  0  0  0  0
   -3.0000    0.0000    0.0000 S   0  0  0  0  0  0  0  0  0  0  0  0
   -3.0000    1.5000    0.0000 O   0  0  0  0  0  0  0  0  0  0  0  0
   -3.0000   -1.5000    0.0000 O   0  0  0  0  0  0  0  0  0  0  0  0
   -4.5000    0.0000    0.0000 N   0  0  0  0  0  0  0  0  0  0  0  0
   -5.2500   -1.2990    0.0000 C   0  0  0  0  0  0  0  0  0  0  0  0
   -4.5000   -2.5981    0.0000 O   0  0  0  0  0  0  0  0  0  0  0  0
   -6.7500   -1.2990    0.0000 O   0  0  0  0  0  0  0  0  0  0  0  0
   -7.5000   -2.5981    0.0000 C   0  0  0  0  0  0  0  0  0  0  0  0
   -9.0000   -2.5981    0.0000 C   0  0  0  0  0  0  0  0  0  0  0  0
   -9.7500   -3.8971    0.0000 C   0  0  0  0  0  0  0  0  0  0  0  0
  -11.2500   -3.8971    0.0000 C   0  0  0  0  0  0  0  0  0  0  0  0
  -12.0000   -5.1962    0.0000 C   0  0  0  0  0  0  0  0  0  0  0  0
  -11.2500   -6.4952    0.0000 C   0  0  0  0  0  0  0  0  0  0  0  0
  -12.0000   -7.7942    0.0000 O   0  0  0  0  0  0  0  0  0  0  0  0
   -9.7500   -6.4952    0.0000 C   0  0  0  0  0  0  0  0  0  0  0  0
   -9.0000   -5.1962    0.0000 C   0  0  0  0  0  0  0  0  0  0  0  0
   -0.7500    1.2990    0.0000 C   0  0  0  0  0  0  0  0  0  0  0  0
    0.7500    1.2990    0.0000 C   0  0  0  0  0  0  0  0  0  0  0  0
  1  2  1  0
  2  3  2  0
  3  4  1  0
  4  5  2  0
  5  6  1  0
  6  7  2  0
  6  8  2  0
  6  9  1  0
  9 10  1  0
 10 11  2  0
 10 12  1  0
 12 13  1  0
 13 14  1  0
 14 15  1  0
 15 16  2  0
 16 17  1  0
 17 18  2  0
 18 19  1  0
 18 20  1  0
 20 21  2  0
  5 22  1  0
 22 23  2  0
 23  2  1  0
 21 15  1  0
M  END
>  <Compound_ID>  (410) 
CHEMBL2348310

>  <Molecule Name>  (410) 
4-HYDROXYPHENETHYL TOSYLCARBAMATE

>  <Molecular Weight>  (410) 
335.38

>  <AlogP>  (410) 
2.36

>  <Smiles>  (410) 
Cc1ccc(S(=O)(=O)NC(=O)OCCc2ccc(O)cc2)cc1

>  <Standard Type>  (410) 
Inhibition

>  <Standard Relation>  (410) 
'='

>  <Standard Units>  (410) 
%

>  <Standard Value>  (410) 
0.0

>  <Assay ChEMBL ID>  (410) 
CHEMBL2350425

>  <Assay Description>  (410) 
Inhibition of c-MET phosphorylation (unknown origin) at 25 uM after 1 hr by Z'-LYTE kinase assay

>  <BAO Format ID>  (410) 
BAO_0000357

>  <BAO Label>  (410) 
single protein format

>  <Assay Organism>  (410) 
Homo sapiens

>  <Target ChEMBL ID>  (410) 
CHEMBL3717

>  <Target Name>  (410) 
Hepatocyte growth factor receptor

>  <Target Organism>  (410) 
Homo sapiens

>  <Target Type>  (410) 
SINGLE PROTEIN

>  <Document ChEMBL ID>  (410) 
CHEMBL2346504

>  <Source Description>  (410) 
Scientific Literature

>  <Document Journal>  (410) 
Bioorg Med Chem

>  <Document Year>  (410) 
2013.0

>  <Active>  (410) 
0.0

$$$$

     RDKit          2D

 20 22  0  0  0  0  0  0  0  0999 V2000
    1.8478   -6.4639    0.0000 O   0  0  0  0  0  0  0  0  0  0  0  0
    2.0046   -4.9721    0.0000 C   0  0  0  0  0  0  0  0  0  0  0  0
    3.3037   -4.2221    0.0000 N   0  0  0  0  0  0  0  0  0  0  0  0
    2.9918   -2.7549    0.0000 C   0  0  0  0  0  0  0  0  0  0  0  0
    3.9955   -1.6402    0.0000 O   0  0  0  0  0  0  0  0  0  0  0  0
    1.5000   -2.5981    0.0000 C   0  0  0  0  0  0  0  0  0  0  0  0
    0.7500   -1.2990    0.0000 C   0  0  0  0  0  0  0  0  0  0  0  0
    1.5000    0.0000    0.0000 C   0  0  0  0  0  0  0  0  0  0  0  0
    0.7500    1.2990    0.0000 C   0  0  0  0  0  0  0  0  0  0  0  0
   -0.7500    1.2990    0.0000 C   0  0  0  0  0  0  0  0  0  0  0  0
   -1.5000    0.0000    0.0000 C   0  0  0  0  0  0  0  0  0  0  0  0
   -0.7500   -1.2990    0.0000 C   0  0  0  0  0  0  0  0  0  0  0  0
    0.8899   -3.9684    0.0000 C   0  0  0  0  0  0  0  0  0  0  0  0
   -0.5773   -4.2803    0.0000 N   0  0  0  0  0  0  0  0  0  0  0  0
   -1.0409   -5.7068    0.0000 C   0  0  0  0  0  0  0  0  0  0  0  0
   -2.5081   -6.0187    0.0000 C   0  0  0  0  0  0  0  0  0  0  0  0
   -2.9716   -7.4453    0.0000 C   0  0  0  0  0  0  0  0  0  0  0  0
   -1.9679   -8.5600    0.0000 C   0  0  0  0  0  0  0  0  0  0  0  0
   -0.5007   -8.2481    0.0000 C   0  0  0  0  0  0  0  0  0  0  0  0
   -0.0372   -6.8216    0.0000 C   0  0  0  0  0  0  0  0  0  0  0  0
  1  2  2  0
  2  3  1  0
  3  4  1  0
  4  5  2  0
  4  6  1  0
  6  7  1  0
  7  8  2  0
  8  9  1  0
  9 10  2  0
 10 11  1  0
 11 12  2  0
  6 13  2  0
 13 14  1  0
 14 15  1  0
 15 16  2  0
 16 17  1  0
 17 18  2  0
 18 19  1  0
 19 20  2  0
 13  2  1  0
 20 15  1  0
 12  7  1  0
M  END
>  <Compound_ID>  (411) 
CHEMBL346551

>  <Molecule Name>  (411) 
nan

>  <Molecular Weight>  (411) 
264.28

>  <AlogP>  (411) 
2.17

>  <Smiles>  (411) 
O=C1NC(=O)C(c2ccccc2)=C1Nc1ccccc1

>  <Standard Type>  (411) 
Inhibition

>  <Standard Relation>  (411) 
'='

>  <Standard Units>  (411) 
%

>  <Standard Value>  (411) 
7.96

>  <Assay ChEMBL ID>  (411) 
CHEMBL1962143

>  <Assay Description>  (411) 
GSK_PKIS: MET mean inhibition at 1 uM [Nanosyn]

>  <BAO Format ID>  (411) 
BAO_0000357

>  <BAO Label>  (411) 
single protein format

>  <Assay Organism>  (411) 
None

>  <Target ChEMBL ID>  (411) 
CHEMBL3717

>  <Target Name>  (411) 
Hepatocyte growth factor receptor

>  <Target Organism>  (411) 
Homo sapiens

>  <Target Type>  (411) 
SINGLE PROTEIN

>  <Document ChEMBL ID>  (411) 
CHEMBL1961873

>  <Source Description>  (411) 
GSK Published Kinase Inhibitor Set

>  <Document Journal>  (411) 
nan

>  <Document Year>  (411) 
nan

>  <Active>  (411) 
0.0

$$$$

     RDKit          2D

 39 43  0  0  0  0  0  0  0  0999 V2000
   -6.3786  -13.7426    0.0000 C   0  0  0  0  0  0  0  0  0  0  0  0
   -5.4969  -12.5290    0.0000 C   0  0  0  0  0  0  0  0  0  0  0  0
   -4.0051  -12.6858    0.0000 N   0  0  0  0  0  0  0  0  0  0  0  0
   -3.1235  -11.4723    0.0000 C   0  0  0  0  0  0  0  0  0  0  0  0
   -3.7336  -10.1020    0.0000 O   0  0  0  0  0  0  0  0  0  0  0  0
   -1.6317  -11.6291    0.0000 O   0  0  0  0  0  0  0  0  0  0  0  0
   -0.7500  -10.4156    0.0000 C   0  0  0  0  0  0  0  0  0  0  0  0
    0.7500  -10.4156    0.0000 C   0  0  0  0  0  0  0  0  0  0  0  0
    1.2135   -8.9890    0.0000 N   0  0  0  0  0  0  0  0  0  0  0  0
    0.0000   -8.1073    0.0000 C   0  0  0  0  0  0  0  0  0  0  0  0
   -0.0000   -6.6073    0.0000 C   0  0  0  0  0  0  0  0  0  0  0  0
   -0.0000   -5.1073    0.0000 C   0  0  0  0  0  0  0  0  0  0  0  0
   -0.0000   -3.6073    0.0000 C   0  0  0  0  0  0  0  0  0  0  0  0
    1.2135   -2.7256    0.0000 C   0  0  0  0  0  0  0  0  0  0  0  0
    0.7500   -1.2990    0.0000 C   0  0  0  0  0  0  0  0  0  0  0  0
    1.5000    0.0000    0.0000 N   0  0  0  0  0  0  0  0  0  0  0  0
    0.7500    1.2990    0.0000 C   0  0  0  0  0  0  0  0  0  0  0  0
   -0.7500    1.2990    0.0000 N   0  0  0  0  0  0  0  0  0  0  0  0
   -1.5000    0.0000    0.0000 C   0  0  0  0  0  0  0  0  0  0  0  0
   -3.0000    0.0000    0.0000 N   0  0  0  0  0  0  0  0  0  0  0  0
   -3.7500    1.2990    0.0000 C   0  0  0  0  0  0  0  0  0  0  0  0
   -3.0000    2.5981    0.0000 C   0  0  0  0  0  0  0  0  0  0  0  0
   -3.7500    3.8971    0.0000 C   0  0  0  0  0  0  0  0  0  0  0  0
   -5.2500    3.8971    0.0000 C   0  0  0  0  0  0  0  0  0  0  0  0
   -6.0000    5.1962    0.0000 O   0  0  0  0  0  0  0  0  0  0  0  0
   -5.2500    6.4952    0.0000 C   0  0  0  0  0  0  0  0  0  0  0  0
   -6.0000    7.7942    0.0000 C   0  0  0  0  0  0  0  0  0  0  0  0
   -5.2500    9.0933    0.0000 C   0  0  0  0  0  0  0  0  0  0  0  0
   -6.0000   10.3923    0.0000 C   0  0  0  0  0  0  0  0  0  0  0  0
   -7.5000   10.3923    0.0000 C   0  0  0  0  0  0  0  0  0  0  0  0
   -8.2500    9.0933    0.0000 C   0  0  0  0  0  0  0  0  0  0  0  0
   -9.7500    9.0933    0.0000 F   0  0  0  0  0  0  0  0  0  0  0  0
   -7.5000    7.7942    0.0000 C   0  0  0  0  0  0  0  0  0  0  0  0
   -6.0000    2.5981    0.0000 C   0  0  0  0  0  0  0  0  0  0  0  0
   -7.5000    2.5981    0.0000 Cl  0  0  0  0  0  0  0  0  0  0  0  0
   -5.2500    1.2990    0.0000 C   0  0  0  0  0  0  0  0  0  0  0  0
   -0.7500   -1.2990    0.0000 C   0  0  0  0  0  0  0  0  0  0  0  0
   -1.2135   -2.7256    0.0000 S   0  0  0  0  0  0  0  0  0  0  0  0
   -1.2135   -8.9890    0.0000 C   0  0  0  0  0  0  0  0  0  0  0  0
  1  2  1  0
  2  3  1  0
  3  4  1  0
  4  5  2  0
  4  6  1  0
  7  6  1  6
  7  8  1  0
  8  9  1  0
  9 10  1  0
 10 11  1  1
 11 12  3  0
 12 13  1  0
 13 14  2  0
 14 15  1  0
 15 16  2  0
 16 17  1  0
 17 18  2  0
 18 19  1  0
 19 20  1  0
 20 21  1  0
 21 22  2  0
 22 23  1  0
 23 24  2  0
 24 25  1  0
 25 26  1  0
 26 27  1  0
 27 28  2  0
 28 29  1  0
 29 30  2  0
 30 31  1  0
 31 32  1  0
 31 33  2  0
 24 34  1  0
 34 35  1  0
 34 36  2  0
 19 37  2  0
 37 38  1  0
 10 39  1  0
 39  7  1  0
 38 13  1  0
 37 15  1  0
 36 21  1  0
 33 27  1  0
M  END
>  <Compound_ID>  (412) 
CHEMBL512076

>  <Molecule Name>  (412) 
GSK-192082A

>  <Molecular Weight>  (412) 
566.06

>  <AlogP>  (412) 
5.63

>  <Smiles>  (412) 
CCNC(=O)O[C@H]1CN[C@H](C#Cc2cc3ncnc(Nc4ccc(OCc5cccc(F)c5)c(Cl)c4)c3s2)C1

>  <Standard Type>  (412) 
Inhibition

>  <Standard Relation>  (412) 
'='

>  <Standard Units>  (412) 
%

>  <Standard Value>  (412) 
1.15

>  <Assay ChEMBL ID>  (412) 
CHEMBL1962143

>  <Assay Description>  (412) 
GSK_PKIS: MET mean inhibition at 1 uM [Nanosyn]

>  <BAO Format ID>  (412) 
BAO_0000357

>  <BAO Label>  (412) 
single protein format

>  <Assay Organism>  (412) 
None

>  <Target ChEMBL ID>  (412) 
CHEMBL3717

>  <Target Name>  (412) 
Hepatocyte growth factor receptor

>  <Target Organism>  (412) 
Homo sapiens

>  <Target Type>  (412) 
SINGLE PROTEIN

>  <Document ChEMBL ID>  (412) 
CHEMBL1961873

>  <Source Description>  (412) 
GSK Published Kinase Inhibitor Set

>  <Document Journal>  (412) 
nan

>  <Document Year>  (412) 
nan

>  <Active>  (412) 
0.0

$$$$

     RDKit          2D

 17 18  0  0  0  0  0  0  0  0999 V2000
    3.7500   -1.2990    0.0000 C   0  0  0  0  0  0  0  0  0  0  0  0
    3.0000    0.0000    0.0000 O   0  0  0  0  0  0  0  0  0  0  0  0
    1.5000    0.0000    0.0000 C   0  0  0  0  0  0  0  0  0  0  0  0
    0.7500   -1.2990    0.0000 C   0  0  0  0  0  0  0  0  0  0  0  0
   -0.7500   -1.2990    0.0000 C   0  0  0  0  0  0  0  0  0  0  0  0
   -1.5000    0.0000    0.0000 C   0  0  0  0  0  0  0  0  0  0  0  0
   -3.0000    0.0000    0.0000 C   0  0  0  0  0  0  0  0  0  0  0  0
   -3.7500    1.2990    0.0000 C   0  0  0  0  0  0  0  0  0  0  0  0
   -5.2500    1.2990    0.0000 C   0  0  0  0  0  0  0  0  0  0  0  0
   -6.0000    0.0000    0.0000 N   0  0  0  0  0  0  0  0  0  0  0  0
   -5.2500   -1.2990    0.0000 C   0  0  0  0  0  0  0  0  0  0  0  0
   -3.7500   -1.2990    0.0000 C   0  0  0  0  0  0  0  0  0  0  0  0
   -0.7500    1.2990    0.0000 C   0  0  0  0  0  0  0  0  0  0  0  0
    0.7500    1.2990    0.0000 C   0  0  0  0  0  0  0  0  0  0  0  0
    1.5000    2.5981    0.0000 C   0  0  0  0  0  0  0  0  0  0  0  0
    3.0000    2.5981    0.0000 N   0  0  0  0  0  0  0  0  0  0  0  0
    0.7500    3.8971    0.0000 O   0  0  0  0  0  0  0  0  0  0  0  0
  1  2  1  0
  2  3  1  0
  3  4  2  0
  4  5  1  0
  5  6  2  0
  6  7  1  0
  7  8  2  0
  8  9  1  0
  9 10  2  0
 10 11  1  0
 11 12  2  0
  6 13  1  0
 13 14  2  0
 14 15  1  0
 15 16  1  0
 15 17  2  0
 14  3  1  0
 12  7  1  0
M  END
>  <Compound_ID>  (413) 
CHEMBL231013

>  <Molecule Name>  (413) 
GSK-605714A

>  <Molecular Weight>  (413) 
228.25

>  <AlogP>  (413) 
1.86

>  <Smiles>  (413) 
COc1ccc(-c2ccncc2)cc1C(N)=O

>  <Standard Type>  (413) 
Inhibition

>  <Standard Relation>  (413) 
'='

>  <Standard Units>  (413) 
%

>  <Standard Value>  (413) 
3.93

>  <Assay ChEMBL ID>  (413) 
CHEMBL1962142

>  <Assay Description>  (413) 
GSK_PKIS: MET mean inhibition at 0.1 uM [Nanosyn]

>  <BAO Format ID>  (413) 
BAO_0000357

>  <BAO Label>  (413) 
single protein format

>  <Assay Organism>  (413) 
None

>  <Target ChEMBL ID>  (413) 
CHEMBL3717

>  <Target Name>  (413) 
Hepatocyte growth factor receptor

>  <Target Organism>  (413) 
Homo sapiens

>  <Target Type>  (413) 
SINGLE PROTEIN

>  <Document ChEMBL ID>  (413) 
CHEMBL1961873

>  <Source Description>  (413) 
GSK Published Kinase Inhibitor Set

>  <Document Journal>  (413) 
nan

>  <Document Year>  (413) 
nan

>  <Active>  (413) 
0.0

$$$$

     RDKit          2D

 30 33  0  0  0  0  0  0  0  0999 V2000
    1.8478   -6.4639    0.0000 C   0  0  0  0  0  0  0  0  0  0  0  0
    2.0046   -4.9721    0.0000 C   0  0  0  0  0  0  0  0  0  0  0  0
    3.3037   -4.2221    0.0000 N   0  0  0  0  0  0  0  0  0  0  0  0
    2.9918   -2.7549    0.0000 N   0  0  0  0  0  0  0  0  0  0  0  0
    1.5000   -2.5981    0.0000 C   0  0  0  0  0  0  0  0  0  0  0  0
    0.7500   -1.2990    0.0000 C   0  0  0  0  0  0  0  0  0  0  0  0
    1.5000    0.0000    0.0000 C   0  0  0  0  0  0  0  0  0  0  0  0
    0.7500    1.2990    0.0000 C   0  0  0  0  0  0  0  0  0  0  0  0
   -0.7500    1.2990    0.0000 C   0  0  0  0  0  0  0  0  0  0  0  0
   -1.5000    2.5981    0.0000 C   0  0  0  0  0  0  0  0  0  0  0  0
   -1.5000    0.0000    0.0000 C   0  0  0  0  0  0  0  0  0  0  0  0
   -3.0000    0.0000    0.0000 C   0  0  0  0  0  0  0  0  0  0  0  0
   -3.7500    1.2990    0.0000 C   0  0  0  0  0  0  0  0  0  0  0  0
   -5.2500    1.2990    0.0000 C   0  0  0  0  0  0  0  0  0  0  0  0
   -6.0000    0.0000    0.0000 C   0  0  0  0  0  0  0  0  0  0  0  0
   -7.5000    0.0000    0.0000 C   0  0  0  0  0  0  0  0  0  0  0  0
   -8.2500   -1.2990    0.0000 O   0  0  0  0  0  0  0  0  0  0  0  0
   -8.2500    1.2990    0.0000 N   0  0  0  0  0  0  0  0  0  0  0  0
   -9.7500    1.2990    0.0000 C   0  0  0  0  0  0  0  0  0  0  0  0
  -10.5000    2.5981    0.0000 C   0  0  0  0  0  0  0  0  0  0  0  0
   -9.7500    3.8971    0.0000 C   0  0  0  0  0  0  0  0  0  0  0  0
  -10.5000    5.1962    0.0000 C   0  0  0  0  0  0  0  0  0  0  0  0
  -12.0000    5.1962    0.0000 C   0  0  0  0  0  0  0  0  0  0  0  0
  -12.7500    6.4952    0.0000 Cl  0  0  0  0  0  0  0  0  0  0  0  0
  -12.7500    3.8971    0.0000 C   0  0  0  0  0  0  0  0  0  0  0  0
  -12.0000    2.5981    0.0000 C   0  0  0  0  0  0  0  0  0  0  0  0
   -5.2500   -1.2990    0.0000 C   0  0  0  0  0  0  0  0  0  0  0  0
   -3.7500   -1.2990    0.0000 C   0  0  0  0  0  0  0  0  0  0  0  0
   -0.7500   -1.2990    0.0000 C   0  0  0  0  0  0  0  0  0  0  0  0
    0.8899   -3.9684    0.0000 O   0  0  0  0  0  0  0  0  0  0  0  0
  1  2  1  0
  2  3  2  0
  3  4  1  0
  4  5  2  0
  5  6  1  0
  6  7  2  0
  7  8  1  0
  8  9  2  0
  9 10  1  0
  9 11  1  0
 11 12  1  0
 12 13  2  0
 13 14  1  0
 14 15  2  0
 15 16  1  0
 16 17  2  0
 16 18  1  0
 18 19  1  0
 19 20  1  0
 20 21  2  0
 21 22  1  0
 22 23  2  0
 23 24  1  0
 23 25  1  0
 25 26  2  0
 15 27  1  0
 27 28  2  0
 11 29  2  0
  5 30  1  0
 30  2  1  0
 29  6  1  0
 28 12  1  0
 26 20  1  0
M  END
>  <Compound_ID>  (414) 
CHEMBL402108

>  <Molecule Name>  (414) 
GW708893X

>  <Molecular Weight>  (414) 
417.90

>  <AlogP>  (414) 
5.60

>  <Smiles>  (414) 
Cc1nnc(-c2ccc(C)c(-c3ccc(C(=O)NCc4ccc(Cl)cc4)cc3)c2)o1

>  <Standard Type>  (414) 
Inhibition

>  <Standard Relation>  (414) 
'='

>  <Standard Units>  (414) 
%

>  <Standard Value>  (414) 
4.09

>  <Assay ChEMBL ID>  (414) 
CHEMBL1962142

>  <Assay Description>  (414) 
GSK_PKIS: MET mean inhibition at 0.1 uM [Nanosyn]

>  <BAO Format ID>  (414) 
BAO_0000357

>  <BAO Label>  (414) 
single protein format

>  <Assay Organism>  (414) 
None

>  <Target ChEMBL ID>  (414) 
CHEMBL3717

>  <Target Name>  (414) 
Hepatocyte growth factor receptor

>  <Target Organism>  (414) 
Homo sapiens

>  <Target Type>  (414) 
SINGLE PROTEIN

>  <Document ChEMBL ID>  (414) 
CHEMBL1961873

>  <Source Description>  (414) 
GSK Published Kinase Inhibitor Set

>  <Document Journal>  (414) 
nan

>  <Document Year>  (414) 
nan

>  <Active>  (414) 
0.0

$$$$

     RDKit          2D

 38 41  0  0  0  0  0  0  0  0999 V2000
   -2.5981   -8.1073    0.0000 C   0  0  0  0  0  0  0  0  0  0  0  0
   -1.2990   -7.3573    0.0000 O   0  0  0  0  0  0  0  0  0  0  0  0
   -1.2990   -5.8573    0.0000 C   0  0  0  0  0  0  0  0  0  0  0  0
   -2.5981   -5.1073    0.0000 O   0  0  0  0  0  0  0  0  0  0  0  0
   -0.0000   -5.1073    0.0000 N   0  0  0  0  0  0  0  0  0  0  0  0
   -0.0000   -3.6073    0.0000 C   0  0  0  0  0  0  0  0  0  0  0  0
    1.2135   -2.7256    0.0000 N   0  0  0  0  0  0  0  0  0  0  0  0
    0.7500   -1.2990    0.0000 C   0  0  0  0  0  0  0  0  0  0  0  0
    1.5000    0.0000    0.0000 C   0  0  0  0  0  0  0  0  0  0  0  0
    0.7500    1.2990    0.0000 C   0  0  0  0  0  0  0  0  0  0  0  0
   -0.7500    1.2990    0.0000 C   0  0  0  0  0  0  0  0  0  0  0  0
   -1.5000    2.5981    0.0000 S   0  0  0  0  0  0  0  0  0  0  0  0
   -2.7990    1.8481    0.0000 O   0  0  0  0  0  0  0  0  0  0  0  0
   -0.2010    3.3481    0.0000 O   0  0  0  0  0  0  0  0  0  0  0  0
   -2.2500    3.8971    0.0000 C   0  0  0  0  0  0  0  0  0  0  0  0
   -1.5000    5.1962    0.0000 C   0  0  0  0  0  0  0  0  0  0  0  0
   -2.2500    6.4952    0.0000 C   0  0  0  0  0  0  0  0  0  0  0  0
   -3.7500    6.4952    0.0000 C   0  0  0  0  0  0  0  0  0  0  0  0
   -4.5000    7.7942    0.0000 N   0  0  0  0  0  0  0  0  0  0  0  0
   -3.7500    9.0933    0.0000 C   0  0  0  0  0  0  0  0  0  0  0  0
   -2.2500    9.0933    0.0000 O   0  0  0  0  0  0  0  0  0  0  0  0
   -4.5000   10.3923    0.0000 N   0  0  0  0  0  0  0  0  0  0  0  0
   -3.7500   11.6913    0.0000 C   0  0  0  0  0  0  0  0  0  0  0  0
   -2.2500   11.6913    0.0000 C   0  0  0  0  0  0  0  0  0  0  0  0
   -1.5000   12.9904    0.0000 C   0  0  0  0  0  0  0  0  0  0  0  0
    0.0000   12.9904    0.0000 C   0  0  0  0  0  0  0  0  0  0  0  0
    1.5000   12.9904    0.0000 F   0  0  0  0  0  0  0  0  0  0  0  0
    0.0000   11.4904    0.0000 F   0  0  0  0  0  0  0  0  0  0  0  0
   -0.0000   14.4904    0.0000 F   0  0  0  0  0  0  0  0  0  0  0  0
   -2.2500   14.2894    0.0000 C   0  0  0  0  0  0  0  0  0  0  0  0
   -3.7500   14.2894    0.0000 C   0  0  0  0  0  0  0  0  0  0  0  0
   -4.5000   12.9904    0.0000 C   0  0  0  0  0  0  0  0  0  0  0  0
   -6.0000   12.9904    0.0000 F   0  0  0  0  0  0  0  0  0  0  0  0
   -4.5000    5.1962    0.0000 C   0  0  0  0  0  0  0  0  0  0  0  0
   -3.7500    3.8971    0.0000 C   0  0  0  0  0  0  0  0  0  0  0  0
   -1.5000    0.0000    0.0000 C   0  0  0  0  0  0  0  0  0  0  0  0
   -0.7500   -1.2990    0.0000 C   0  0  0  0  0  0  0  0  0  0  0  0
   -1.2135   -2.7256    0.0000 N   0  0  0  0  0  0  0  0  0  0  0  0
  1  2  1  0
  2  3  1  0
  3  4  2  0
  3  5  1  0
  5  6  1  0
  6  7  2  0
  7  8  1  0
  8  9  2  0
  9 10  1  0
 10 11  2  0
 11 12  1  0
 12 13  2  0
 12 14  2  0
 12 15  1  0
 15 16  2  0
 16 17  1  0
 17 18  2  0
 18 19  1  0
 19 20  1  0
 20 21  2  0
 20 22  1  0
 22 23  1  0
 23 24  2  0
 24 25  1  0
 25 26  1  0
 26 27  1  0
 26 28  1  0
 26 29  1  0
 25 30  2  0
 30 31  1  0
 31 32  2  0
 32 33  1  0
 18 34  1  0
 34 35  2  0
 11 36  1  0
 36 37  2  0
 37 38  1  0
 38  6  1  0
 37  8  1  0
 35 15  1  0
 32 23  1  0
M  END
>  <Compound_ID>  (415) 
CHEMBL1909367

>  <Molecule Name>  (415) 
GW680908A

>  <Molecular Weight>  (415) 
587.94

>  <AlogP>  (415) 
5.38

>  <Smiles>  (415) 
COC(=O)Nc1nc2ccc(S(=O)(=O)c3ccc(NC(=O)Nc4cc(C(F)(F)F)ccc4F)cc3)cc2[nH]1

>  <Standard Type>  (415) 
Inhibition

>  <Standard Relation>  (415) 
'='

>  <Standard Units>  (415) 
%

>  <Standard Value>  (415) 
-2.38

>  <Assay ChEMBL ID>  (415) 
CHEMBL1962142

>  <Assay Description>  (415) 
GSK_PKIS: MET mean inhibition at 0.1 uM [Nanosyn]

>  <BAO Format ID>  (415) 
BAO_0000357

>  <BAO Label>  (415) 
single protein format

>  <Assay Organism>  (415) 
None

>  <Target ChEMBL ID>  (415) 
CHEMBL3717

>  <Target Name>  (415) 
Hepatocyte growth factor receptor

>  <Target Organism>  (415) 
Homo sapiens

>  <Target Type>  (415) 
SINGLE PROTEIN

>  <Document ChEMBL ID>  (415) 
CHEMBL1961873

>  <Source Description>  (415) 
GSK Published Kinase Inhibitor Set

>  <Document Journal>  (415) 
nan

>  <Document Year>  (415) 
nan

>  <Active>  (415) 
0.0

$$$$

     RDKit          2D

 21 23  0  0  0  0  0  0  0  0999 V2000
   -4.3786   -5.1199    0.0000 C   0  0  0  0  0  0  0  0  0  0  0  0
   -2.9520   -4.6564    0.0000 C   0  0  0  0  0  0  0  0  0  0  0  0
   -1.8373   -5.6601    0.0000 O   0  0  0  0  0  0  0  0  0  0  0  0
   -2.6401   -3.1891    0.0000 N   0  0  0  0  0  0  0  0  0  0  0  0
   -1.2135   -2.7256    0.0000 C   0  0  0  0  0  0  0  0  0  0  0  0
   -0.0000   -3.6073    0.0000 N   0  0  0  0  0  0  0  0  0  0  0  0
    1.2135   -2.7256    0.0000 N   0  0  0  0  0  0  0  0  0  0  0  0
    2.6401   -3.1891    0.0000 C   0  0  0  0  0  0  0  0  0  0  0  0
    0.7500   -1.2990    0.0000 C   0  0  0  0  0  0  0  0  0  0  0  0
    1.5000    0.0000    0.0000 C   0  0  0  0  0  0  0  0  0  0  0  0
    0.7500    1.2990    0.0000 C   0  0  0  0  0  0  0  0  0  0  0  0
    1.5000    2.5981    0.0000 C   0  0  0  0  0  0  0  0  0  0  0  0
    3.0000    2.5981    0.0000 C   0  0  0  0  0  0  0  0  0  0  0  0
    3.7500    3.8971    0.0000 C   0  0  0  0  0  0  0  0  0  0  0  0
    3.0000    5.1962    0.0000 C   0  0  0  0  0  0  0  0  0  0  0  0
    1.5000    5.1962    0.0000 C   0  0  0  0  0  0  0  0  0  0  0  0
    0.7500    3.8971    0.0000 C   0  0  0  0  0  0  0  0  0  0  0  0
   -0.7500    1.2990    0.0000 N   0  0  0  0  0  0  0  0  0  0  0  0
   -1.5000    0.0000    0.0000 C   0  0  0  0  0  0  0  0  0  0  0  0
   -3.0000    0.0000    0.0000 O   0  0  0  0  0  0  0  0  0  0  0  0
   -0.7500   -1.2990    0.0000 C   0  0  0  0  0  0  0  0  0  0  0  0
  1  2  1  0
  2  3  2  0
  2  4  1  0
  4  5  1  0
  5  6  2  0
  6  7  1  0
  7  8  1  0
  7  9  1  0
  9 10  1  0
 10 11  2  0
 11 12  1  0
 12 13  2  0
 13 14  1  0
 14 15  2  0
 15 16  1  0
 16 17  2  0
 11 18  1  0
 18 19  1  0
 19 20  2  0
 19 21  1  0
 21  5  1  0
 21  9  2  0
 17 12  1  0
M  END
>  <Compound_ID>  (416) 
CHEMBL1813777

>  <Molecule Name>  (416) 
nan

>  <Molecular Weight>  (416) 
282.30

>  <AlogP>  (416) 
1.89

>  <Smiles>  (416) 
CC(=O)Nc1nn(C)c2cc(-c3ccccc3)[nH]c(=O)c12

>  <Standard Type>  (416) 
Inhibition

>  <Standard Relation>  (416) 
'='

>  <Standard Units>  (416) 
%

>  <Standard Value>  (416) 
16.0

>  <Assay ChEMBL ID>  (416) 
CHEMBL1815730

>  <Assay Description>  (416) 
Inhibition of MET at 30 uM by microfluidic mobility shift assay

>  <BAO Format ID>  (416) 
BAO_0000357

>  <BAO Label>  (416) 
single protein format

>  <Assay Organism>  (416) 
None

>  <Target ChEMBL ID>  (416) 
CHEMBL3717

>  <Target Name>  (416) 
Hepatocyte growth factor receptor

>  <Target Organism>  (416) 
Homo sapiens

>  <Target Type>  (416) 
SINGLE PROTEIN

>  <Document ChEMBL ID>  (416) 
CHEMBL1811853

>  <Source Description>  (416) 
Scientific Literature

>  <Document Journal>  (416) 
Bioorg Med Chem

>  <Document Year>  (416) 
2011.0

>  <Active>  (416) 
0.0

$$$$

     RDKit          2D

 27 30  0  0  0  0  0  0  0  0999 V2000
   -9.1645    1.7722    0.0000 C   0  0  0  0  0  0  0  0  0  0  0  0
   -8.0498    0.7685    0.0000 O   0  0  0  0  0  0  0  0  0  0  0  0
   -6.6232    1.2320    0.0000 C   0  0  0  0  0  0  0  0  0  0  0  0
   -6.3114    2.6992    0.0000 C   0  0  0  0  0  0  0  0  0  0  0  0
   -4.8848    3.1627    0.0000 C   0  0  0  0  0  0  0  0  0  0  0  0
   -3.7701    2.1590    0.0000 C   0  0  0  0  0  0  0  0  0  0  0  0
   -4.0819    0.6918    0.0000 C   0  0  0  0  0  0  0  0  0  0  0  0
   -2.9672   -0.3119    0.0000 N   0  0  0  0  0  0  0  0  0  0  0  0
   -3.1240   -1.8037    0.0000 N   0  0  0  0  0  0  0  0  0  0  0  0
   -1.7537   -2.4138    0.0000 C   0  0  0  0  0  0  0  0  0  0  0  0
   -0.7500   -1.2990    0.0000 C   0  0  0  0  0  0  0  0  0  0  0  0
    0.7500   -1.2990    0.0000 C   0  0  0  0  0  0  0  0  0  0  0  0
    1.5000   -2.5981    0.0000 N   0  0  0  0  0  0  0  0  0  0  0  0
    3.0000   -2.5981    0.0000 N   0  0  0  0  0  0  0  0  0  0  0  0
    3.7500   -3.8971    0.0000 C   0  0  0  0  0  0  0  0  0  0  0  0
    5.2500   -3.8971    0.0000 C   0  0  0  0  0  0  0  0  0  0  0  0
    6.0000   -5.1962    0.0000 C   0  0  0  0  0  0  0  0  0  0  0  0
    7.5000   -5.1962    0.0000 C   0  0  0  0  0  0  0  0  0  0  0  0
    8.2500   -3.8971    0.0000 C   0  0  0  0  0  0  0  0  0  0  0  0
    9.7500   -3.8971    0.0000 C   0  0  0  0  0  0  0  0  0  0  0  0
    7.5000   -2.5981    0.0000 C   0  0  0  0  0  0  0  0  0  0  0  0
    6.0000   -2.5981    0.0000 C   0  0  0  0  0  0  0  0  0  0  0  0
    1.5000    0.0000    0.0000 N   0  0  0  0  0  0  0  0  0  0  0  0
    0.7500    1.2990    0.0000 C   0  0  0  0  0  0  0  0  0  0  0  0
   -0.7500    1.2990    0.0000 N   0  0  0  0  0  0  0  0  0  0  0  0
   -1.5000    0.0000    0.0000 C   0  0  0  0  0  0  0  0  0  0  0  0
   -5.5085    0.2283    0.0000 C   0  0  0  0  0  0  0  0  0  0  0  0
  1  2  1  0
  2  3  1  0
  3  4  2  0
  4  5  1  0
  5  6  2  0
  6  7  1  0
  7  8  1  0
  8  9  1  0
  9 10  2  0
 10 11  1  0
 11 12  2  0
 12 13  1  0
 13 14  1  0
 14 15  2  0
 15 16  1  0
 16 17  2  0
 17 18  1  0
 18 19  2  0
 19 20  1  0
 19 21  1  0
 21 22  2  0
 12 23  1  0
 23 24  2  0
 24 25  1  0
 25 26  2  0
  7 27  2  0
 27  3  1  0
 26  8  1  0
 26 11  1  0
 22 16  1  0
M  END
>  <Compound_ID>  (417) 
CHEMBL303687

>  <Molecule Name>  (417) 
GW829877X

>  <Molecular Weight>  (417) 
358.41

>  <AlogP>  (417) 
3.58

>  <Smiles>  (417) 
COc1cccc(-n2ncc3c(N/N=C/c4ccc(C)cc4)ncnc32)c1

>  <Standard Type>  (417) 
Inhibition

>  <Standard Relation>  (417) 
'='

>  <Standard Units>  (417) 
%

>  <Standard Value>  (417) 
-2.1

>  <Assay ChEMBL ID>  (417) 
CHEMBL1962142

>  <Assay Description>  (417) 
GSK_PKIS: MET mean inhibition at 0.1 uM [Nanosyn]

>  <BAO Format ID>  (417) 
BAO_0000357

>  <BAO Label>  (417) 
single protein format

>  <Assay Organism>  (417) 
None

>  <Target ChEMBL ID>  (417) 
CHEMBL3717

>  <Target Name>  (417) 
Hepatocyte growth factor receptor

>  <Target Organism>  (417) 
Homo sapiens

>  <Target Type>  (417) 
SINGLE PROTEIN

>  <Document ChEMBL ID>  (417) 
CHEMBL1961873

>  <Source Description>  (417) 
GSK Published Kinase Inhibitor Set

>  <Document Journal>  (417) 
nan

>  <Document Year>  (417) 
nan

>  <Active>  (417) 
0.0

$$$$

     RDKit          2D

 24 27  0  0  0  0  0  0  0  0999 V2000
    3.0000    0.0000    0.0000 O   0  0  0  0  0  0  0  0  0  0  0  0
    1.5000    0.0000    0.0000 C   0  0  0  0  0  0  0  0  0  0  0  0
    0.7500   -1.2990    0.0000 C   0  0  0  0  0  0  0  0  0  0  0  0
   -0.7500   -1.2990    0.0000 C   0  0  0  0  0  0  0  0  0  0  0  0
   -1.5000    0.0000    0.0000 C   0  0  0  0  0  0  0  0  0  0  0  0
   -0.7500    1.2990    0.0000 C   0  0  0  0  0  0  0  0  0  0  0  0
   -1.5000    2.5981    0.0000 C   0  0  0  0  0  0  0  0  0  0  0  0
   -2.9918    2.7549    0.0000 N   0  0  0  0  0  0  0  0  0  0  0  0
   -3.3037    4.2221    0.0000 C   0  0  0  0  0  0  0  0  0  0  0  0
   -4.6740    4.8322    0.0000 C   0  0  0  0  0  0  0  0  0  0  0  0
   -4.8308    6.3240    0.0000 C   0  0  0  0  0  0  0  0  0  0  0  0
   -6.2011    6.9341    0.0000 C   0  0  0  0  0  0  0  0  0  0  0  0
   -7.4146    6.0524    0.0000 C   0  0  0  0  0  0  0  0  0  0  0  0
   -7.2578    4.5606    0.0000 C   0  0  0  0  0  0  0  0  0  0  0  0
   -5.8875    3.9505    0.0000 C   0  0  0  0  0  0  0  0  0  0  0  0
   -2.0046    4.9721    0.0000 N   0  0  0  0  0  0  0  0  0  0  0  0
   -0.8899    3.9684    0.0000 C   0  0  0  0  0  0  0  0  0  0  0  0
    0.5773    4.2803    0.0000 C   0  0  0  0  0  0  0  0  0  0  0  0
    1.5810    3.1655    0.0000 C   0  0  0  0  0  0  0  0  0  0  0  0
    3.0482    3.4774    0.0000 C   0  0  0  0  0  0  0  0  0  0  0  0
    3.5118    4.9040    0.0000 N   0  0  0  0  0  0  0  0  0  0  0  0
    2.5081    6.0187    0.0000 C   0  0  0  0  0  0  0  0  0  0  0  0
    1.0409    5.7068    0.0000 C   0  0  0  0  0  0  0  0  0  0  0  0
    0.7500    1.2990    0.0000 C   0  0  0  0  0  0  0  0  0  0  0  0
  1  2  1  0
  2  3  2  0
  3  4  1  0
  4  5  2  0
  5  6  1  0
  6  7  1  0
  7  8  1  0
  8  9  2  0
  9 10  1  0
 10 11  2  0
 11 12  1  0
 12 13  2  0
 13 14  1  0
 14 15  2  0
  9 16  1  0
 16 17  1  0
 17 18  1  0
 18 19  2  0
 19 20  1  0
 20 21  2  0
 21 22  1  0
 22 23  2  0
  6 24  2  0
 24  2  1  0
 17  7  2  0
 23 18  1  0
 15 10  1  0
M  END
>  <Compound_ID>  (418) 
CHEMBL1909413

>  <Molecule Name>  (418) 
nan

>  <Molecular Weight>  (418) 
349.82

>  <AlogP>  (418) 
4.51

>  <Smiles>  (418) 
Oc1cccc(-c2nc(-c3ccccc3)[nH]c2-c2ccncc2)c1

>  <Standard Type>  (418) 
Inhibition

>  <Standard Relation>  (418) 
'='

>  <Standard Units>  (418) 
%

>  <Standard Value>  (418) 
6.73

>  <Assay ChEMBL ID>  (418) 
CHEMBL1962142

>  <Assay Description>  (418) 
GSK_PKIS: MET mean inhibition at 0.1 uM [Nanosyn]

>  <BAO Format ID>  (418) 
BAO_0000357

>  <BAO Label>  (418) 
single protein format

>  <Assay Organism>  (418) 
None

>  <Target ChEMBL ID>  (418) 
CHEMBL3717

>  <Target Name>  (418) 
Hepatocyte growth factor receptor

>  <Target Organism>  (418) 
Homo sapiens

>  <Target Type>  (418) 
SINGLE PROTEIN

>  <Document ChEMBL ID>  (418) 
CHEMBL1961873

>  <Source Description>  (418) 
GSK Published Kinase Inhibitor Set

>  <Document Journal>  (418) 
nan

>  <Document Year>  (418) 
nan

>  <Active>  (418) 
0.0

$$$$

     RDKit          2D

 26 29  0  0  0  0  0  0  0  0999 V2000
    4.6740   -4.8322    0.0000 N   0  0  0  0  0  0  0  0  0  0  0  0
    3.3037   -4.2221    0.0000 C   0  0  0  0  0  0  0  0  0  0  0  0
    2.9918   -2.7549    0.0000 N   0  0  0  0  0  0  0  0  0  0  0  0
    1.5000   -2.5981    0.0000 C   0  0  0  0  0  0  0  0  0  0  0  0
    0.7500   -1.2990    0.0000 C   0  0  0  0  0  0  0  0  0  0  0  0
    1.5000    0.0000    0.0000 C   0  0  0  0  0  0  0  0  0  0  0  0
    0.7500    1.2990    0.0000 C   0  0  0  0  0  0  0  0  0  0  0  0
   -0.7500    1.2990    0.0000 C   0  0  0  0  0  0  0  0  0  0  0  0
   -1.5000    0.0000    0.0000 C   0  0  0  0  0  0  0  0  0  0  0  0
   -0.7500   -1.2990    0.0000 C   0  0  0  0  0  0  0  0  0  0  0  0
   -2.9672    0.3119    0.0000 C   0  0  0  0  0  0  0  0  0  0  0  0
   -4.0819   -0.6918    0.0000 C   0  0  0  0  0  0  0  0  0  0  0  0
   -5.5085   -0.2283    0.0000 C   0  0  0  0  0  0  0  0  0  0  0  0
   -5.8204    1.2389    0.0000 C   0  0  0  0  0  0  0  0  0  0  0  0
   -7.2470    1.7024    0.0000 C   0  0  0  0  0  0  0  0  0  0  0  0
   -7.5588    3.1697    0.0000 Br  0  0  0  0  0  0  0  0  0  0  0  0
   -8.3617    0.6987    0.0000 C   0  0  0  0  0  0  0  0  0  0  0  0
   -9.7883    1.1623    0.0000 O   0  0  0  0  0  0  0  0  0  0  0  0
   -8.0498   -0.7685    0.0000 C   0  0  0  0  0  0  0  0  0  0  0  0
   -9.1645   -1.7722    0.0000 Br  0  0  0  0  0  0  0  0  0  0  0  0
   -6.6232   -1.2320    0.0000 C   0  0  0  0  0  0  0  0  0  0  0  0
   -3.1240    1.8037    0.0000 C   0  0  0  0  0  0  0  0  0  0  0  0
   -4.4231    2.5537    0.0000 O   0  0  0  0  0  0  0  0  0  0  0  0
   -1.7537    2.4138    0.0000 N   0  0  0  0  0  0  0  0  0  0  0  0
    0.8899   -3.9684    0.0000 C   0  0  0  0  0  0  0  0  0  0  0  0
    2.0046   -4.9721    0.0000 S   0  0  0  0  0  0  0  0  0  0  0  0
  1  2  1  0
  2  3  2  0
  3  4  1  0
  4  5  1  0
  5  6  2  0
  6  7  1  0
  7  8  2  0
  8  9  1  0
  9 10  2  0
  9 11  1  0
 11 12  2  3
 12 13  1  0
 13 14  2  0
 14 15  1  0
 15 16  1  0
 15 17  2  0
 17 18  1  0
 17 19  1  0
 19 20  1  0
 19 21  2  0
 11 22  1  0
 22 23  2  0
 22 24  1  0
  4 25  2  0
 25 26  1  0
 26  2  1  0
 10  5  1  0
 21 13  1  0
 24  8  1  0
M  END
>  <Compound_ID>  (419) 
CHEMBL1794053

>  <Molecule Name>  (419) 
GW407323A

>  <Molecular Weight>  (419) 
529.64

>  <AlogP>  (419) 
5.12

>  <Smiles>  (419) 
Nc1nc(-c2ccc3c(c2)C(=Cc2cc(Br)c(O)c(Br)c2)C(=O)N3)cs1

>  <Standard Type>  (419) 
Inhibition

>  <Standard Relation>  (419) 
'='

>  <Standard Units>  (419) 
%

>  <Standard Value>  (419) 
1.02

>  <Assay ChEMBL ID>  (419) 
CHEMBL1962142

>  <Assay Description>  (419) 
GSK_PKIS: MET mean inhibition at 0.1 uM [Nanosyn]

>  <BAO Format ID>  (419) 
BAO_0000357

>  <BAO Label>  (419) 
single protein format

>  <Assay Organism>  (419) 
None

>  <Target ChEMBL ID>  (419) 
CHEMBL3717

>  <Target Name>  (419) 
Hepatocyte growth factor receptor

>  <Target Organism>  (419) 
Homo sapiens

>  <Target Type>  (419) 
SINGLE PROTEIN

>  <Document ChEMBL ID>  (419) 
CHEMBL1961873

>  <Source Description>  (419) 
GSK Published Kinase Inhibitor Set

>  <Document Journal>  (419) 
nan

>  <Document Year>  (419) 
nan

>  <Active>  (419) 
0.0

$$$$

     RDKit          2D

 36 41  0  0  0  0  0  0  0  0999 V2000
   -5.9657   -0.3834    0.0000 F   0  0  0  0  0  0  0  0  0  0  0  0
   -4.9620   -1.4981    0.0000 C   0  0  0  0  0  0  0  0  0  0  0  0
   -6.0767   -2.5018    0.0000 F   0  0  0  0  0  0  0  0  0  0  0  0
   -3.8473   -0.4944    0.0000 F   0  0  0  0  0  0  0  0  0  0  0  0
   -3.9583   -2.6128    0.0000 C   0  0  0  0  0  0  0  0  0  0  0  0
   -2.4911   -2.3009    0.0000 C   0  0  0  0  0  0  0  0  0  0  0  0
   -1.4874   -3.4157    0.0000 C   0  0  0  0  0  0  0  0  0  0  0  0
   -1.9509   -4.8423    0.0000 C   0  0  0  0  0  0  0  0  0  0  0  0
   -3.4182   -5.1541    0.0000 C   0  0  0  0  0  0  0  0  0  0  0  0
   -3.8817   -6.5807    0.0000 C   0  0  0  0  0  0  0  0  0  0  0  0
   -5.3083   -7.0442    0.0000 N   0  0  0  0  0  0  0  0  0  0  0  0
   -5.3083   -8.5442    0.0000 N   0  0  0  0  0  0  0  0  0  0  0  0
   -6.4230   -9.5479    0.0000 N   0  0  0  0  0  0  0  0  0  0  0  0
   -6.1111  -11.0151    0.0000 C   0  0  0  0  0  0  0  0  0  0  0  0
   -4.6845  -11.4787    0.0000 C   0  0  0  0  0  0  0  0  0  0  0  0
   -3.5698  -10.4750    0.0000 C   0  0  0  0  0  0  0  0  0  0  0  0
   -3.8817   -9.0078    0.0000 C   0  0  0  0  0  0  0  0  0  0  0  0
   -3.0000   -7.7942    0.0000 C   0  0  0  0  0  0  0  0  0  0  0  0
   -1.5000   -7.7942    0.0000 C   0  0  0  0  0  0  0  0  0  0  0  0
   -0.7500   -9.0933    0.0000 C   0  0  0  0  0  0  0  0  0  0  0  0
    0.7500   -9.0933    0.0000 C   0  0  0  0  0  0  0  0  0  0  0  0
    1.5000   -7.7942    0.0000 N   0  0  0  0  0  0  0  0  0  0  0  0
    0.7500   -6.4952    0.0000 C   0  0  0  0  0  0  0  0  0  0  0  0
    1.5000   -5.1962    0.0000 N   0  0  0  0  0  0  0  0  0  0  0  0
    0.7500   -3.8971    0.0000 C   0  0  0  0  0  0  0  0  0  0  0  0
   -0.7500   -3.8971    0.0000 C   0  0  0  0  0  0  0  0  0  0  0  0
   -1.5000   -2.5981    0.0000 C   0  0  0  0  0  0  0  0  0  0  0  0
   -0.7500   -1.2990    0.0000 C   0  0  0  0  0  0  0  0  0  0  0  0
    0.7500   -1.2990    0.0000 C   0  0  0  0  0  0  0  0  0  0  0  0
    1.5000   -2.5981    0.0000 C   0  0  0  0  0  0  0  0  0  0  0  0
    1.5000    0.0000    0.0000 O   0  0  0  0  0  0  0  0  0  0  0  0
    0.7500    1.2990    0.0000 C   0  0  0  0  0  0  0  0  0  0  0  0
   -0.7500    1.2990    0.0000 C   0  0  0  0  0  0  0  0  0  0  0  0
   -1.5000    0.0000    0.0000 O   0  0  0  0  0  0  0  0  0  0  0  0
   -0.7500   -6.4952    0.0000 N   0  0  0  0  0  0  0  0  0  0  0  0
   -4.4218   -4.0394    0.0000 C   0  0  0  0  0  0  0  0  0  0  0  0
  1  2  1  0
  2  3  1  0
  2  4  1  0
  2  5  1  0
  5  6  2  0
  6  7  1  0
  7  8  2  0
  8  9  1  0
  9 10  1  0
 10 11  2  0
 11 12  1  0
 12 13  1  0
 13 14  2  0
 14 15  1  0
 15 16  2  0
 16 17  1  0
 17 18  2  0
 18 19  1  0
 19 20  2  0
 20 21  1  0
 21 22  2  0
 22 23  1  0
 23 24  1  0
 24 25  1  0
 25 26  2  0
 26 27  1  0
 27 28  2  0
 28 29  1  0
 29 30  2  0
 29 31  1  0
 31 32  1  0
 32 33  1  0
 33 34  1  0
 23 35  2  0
  9 36  2  0
 36  5  1  0
 18 10  1  0
 35 19  1  0
 17 12  1  0
 30 25  1  0
 34 28  1  0
M  END
>  <Compound_ID>  (420) 
CHEMBL362155

>  <Molecule Name>  (420) 
GW827102X

>  <Molecular Weight>  (420) 
490.45

>  <AlogP>  (420) 
5.39

>  <Smiles>  (420) 
FC(F)(F)c1cccc(-c2nn3ncccc3c2-c2ccnc(Nc3ccc4c(c3)OCCO4)n2)c1

>  <Standard Type>  (420) 
Inhibition

>  <Standard Relation>  (420) 
'='

>  <Standard Units>  (420) 
%

>  <Standard Value>  (420) 
7.83

>  <Assay ChEMBL ID>  (420) 
CHEMBL1962142

>  <Assay Description>  (420) 
GSK_PKIS: MET mean inhibition at 0.1 uM [Nanosyn]

>  <BAO Format ID>  (420) 
BAO_0000357

>  <BAO Label>  (420) 
single protein format

>  <Assay Organism>  (420) 
None

>  <Target ChEMBL ID>  (420) 
CHEMBL3717

>  <Target Name>  (420) 
Hepatocyte growth factor receptor

>  <Target Organism>  (420) 
Homo sapiens

>  <Target Type>  (420) 
SINGLE PROTEIN

>  <Document ChEMBL ID>  (420) 
CHEMBL1961873

>  <Source Description>  (420) 
GSK Published Kinase Inhibitor Set

>  <Document Journal>  (420) 
nan

>  <Document Year>  (420) 
nan

>  <Active>  (420) 
0.0

$$$$

     RDKit          2D

 34 38  0  0  0  0  0  0  0  0999 V2000
    3.0000    0.0000    0.0000 C   0  0  0  0  0  0  0  0  0  0  0  0
    1.5000    0.0000    0.0000 C   0  0  0  0  0  0  0  0  0  0  0  0
    0.7500   -1.2990    0.0000 C   0  0  0  0  0  0  0  0  0  0  0  0
   -0.7500   -1.2990    0.0000 C   0  0  0  0  0  0  0  0  0  0  0  0
   -1.5000    0.0000    0.0000 C   0  0  0  0  0  0  0  0  0  0  0  0
   -3.0000    0.0000    0.0000 N   0  0  0  0  0  0  0  0  0  0  0  0
   -3.7500    1.2990    0.0000 C   0  0  0  0  0  0  0  0  0  0  0  0
   -3.0000    2.5981    0.0000 O   0  0  0  0  0  0  0  0  0  0  0  0
   -5.2500    1.2990    0.0000 C   0  0  0  0  0  0  0  0  0  0  0  0
   -6.0000    2.5981    0.0000 C   0  0  0  0  0  0  0  0  0  0  0  0
   -7.5000    2.5981    0.0000 C   0  0  0  0  0  0  0  0  0  0  0  0
   -8.2500    1.2990    0.0000 N   0  0  0  0  0  0  0  0  0  0  0  0
   -7.5000    0.0000    0.0000 C   0  0  0  0  0  0  0  0  0  0  0  0
   -8.2500   -1.2990    0.0000 N   0  0  0  0  0  0  0  0  0  0  0  0
   -7.6399   -2.6694    0.0000 C   0  0  0  0  0  0  0  0  0  0  0  0
   -8.7546   -3.6731    0.0000 C   0  0  0  0  0  0  0  0  0  0  0  0
  -10.0537   -2.9231    0.0000 C   0  0  0  0  0  0  0  0  0  0  0  0
   -9.7418   -1.4558    0.0000 C   0  0  0  0  0  0  0  0  0  0  0  0
   -6.0000    0.0000    0.0000 C   0  0  0  0  0  0  0  0  0  0  0  0
   -0.7500    1.2990    0.0000 C   0  0  0  0  0  0  0  0  0  0  0  0
    0.7500    1.2990    0.0000 C   0  0  0  0  0  0  0  0  0  0  0  0
    1.5000    2.5981    0.0000 C   0  0  0  0  0  0  0  0  0  0  0  0
    3.0000    2.5981    0.0000 C   0  0  0  0  0  0  0  0  0  0  0  0
    3.7500    3.8971    0.0000 C   0  0  0  0  0  0  0  0  0  0  0  0
    3.0000    5.1962    0.0000 C   0  0  0  0  0  0  0  0  0  0  0  0
    3.7500    6.4952    0.0000 C   0  0  0  0  0  0  0  0  0  0  0  0
    3.0000    7.7942    0.0000 O   0  0  0  0  0  0  0  0  0  0  0  0
    5.2500    6.4952    0.0000 N   0  0  0  0  0  0  0  0  0  0  0  0
    6.0000    7.7942    0.0000 C   0  0  0  0  0  0  0  0  0  0  0  0
    7.5000    7.7942    0.0000 C   0  0  0  0  0  0  0  0  0  0  0  0
    8.7990    8.5442    0.0000 C   0  0  0  0  0  0  0  0  0  0  0  0
    8.7990    7.0442    0.0000 C   0  0  0  0  0  0  0  0  0  0  0  0
    1.5000    5.1962    0.0000 C   0  0  0  0  0  0  0  0  0  0  0  0
    0.7500    3.8971    0.0000 C   0  0  0  0  0  0  0  0  0  0  0  0
  1  2  1  0
  2  3  2  0
  3  4  1  0
  4  5  2  0
  5  6  1  0
  6  7  1  0
  7  8  2  0
  7  9  1  0
  9 10  2  0
 10 11  1  0
 11 12  2  0
 12 13  1  0
 13 14  1  0
 14 15  1  0
 15 16  1  0
 16 17  1  0
 17 18  1  0
 13 19  2  0
  5 20  1  0
 20 21  2  0
 21 22  1  0
 22 23  2  0
 23 24  1  0
 24 25  2  0
 25 26  1  0
 26 27  2  0
 26 28  1  0
 28 29  1  0
 29 30  1  0
 30 31  1  0
 31 32  1  0
 25 33  1  0
 33 34  2  0
 21  2  1  0
 34 22  1  0
 19  9  1  0
 32 30  1  0
 18 14  1  0
M  END
>  <Compound_ID>  (421) 
CHEMBL477182

>  <Molecule Name>  (421) 
GW769076X

>  <Molecular Weight>  (421) 
454.57

>  <AlogP>  (421) 
5.05

>  <Smiles>  (421) 
Cc1ccc(NC(=O)c2ccnc(N3CCCC3)c2)cc1-c1ccc(C(=O)NCC2CC2)cc1

>  <Standard Type>  (421) 
Inhibition

>  <Standard Relation>  (421) 
'='

>  <Standard Units>  (421) 
%

>  <Standard Value>  (421) 
9.41

>  <Assay ChEMBL ID>  (421) 
CHEMBL1962142

>  <Assay Description>  (421) 
GSK_PKIS: MET mean inhibition at 0.1 uM [Nanosyn]

>  <BAO Format ID>  (421) 
BAO_0000357

>  <BAO Label>  (421) 
single protein format

>  <Assay Organism>  (421) 
None

>  <Target ChEMBL ID>  (421) 
CHEMBL3717

>  <Target Name>  (421) 
Hepatocyte growth factor receptor

>  <Target Organism>  (421) 
Homo sapiens

>  <Target Type>  (421) 
SINGLE PROTEIN

>  <Document ChEMBL ID>  (421) 
CHEMBL1961873

>  <Source Description>  (421) 
GSK Published Kinase Inhibitor Set

>  <Document Journal>  (421) 
nan

>  <Document Year>  (421) 
nan

>  <Active>  (421) 
0.0

$$$$

     RDKit          2D

 39 43  0  0  0  0  0  0  0  0999 V2000
    2.8629   12.5431    0.0000 C   0  0  0  0  0  0  0  0  0  0  0  0
    4.2962   12.9852    0.0000 C   0  0  0  0  0  0  0  0  0  0  0  0
    4.6300   14.4476    0.0000 C   0  0  0  0  0  0  0  0  0  0  0  0
    5.3958   11.9650    0.0000 S   0  0  0  0  0  0  0  0  0  0  0  0
    4.3756   10.8654    0.0000 O   0  0  0  0  0  0  0  0  0  0  0  0
    6.4161   13.0645    0.0000 O   0  0  0  0  0  0  0  0  0  0  0  0
    6.4954   10.9447    0.0000 C   0  0  0  0  0  0  0  0  0  0  0  0
    7.9288   11.3868    0.0000 C   0  0  0  0  0  0  0  0  0  0  0  0
    9.0283   10.3666    0.0000 C   0  0  0  0  0  0  0  0  0  0  0  0
    8.6945    8.9042    0.0000 C   0  0  0  0  0  0  0  0  0  0  0  0
    7.2612    8.4620    0.0000 C   0  0  0  0  0  0  0  0  0  0  0  0
    6.1616    9.4823    0.0000 C   0  0  0  0  0  0  0  0  0  0  0  0
    4.7283    9.0402    0.0000 N   0  0  0  0  0  0  0  0  0  0  0  0
    4.3945    7.5778    0.0000 C   0  0  0  0  0  0  0  0  0  0  0  0
    2.9611    7.1357    0.0000 N   0  0  0  0  0  0  0  0  0  0  0  0
    2.6273    5.6733    0.0000 C   0  0  0  0  0  0  0  0  0  0  0  0
    1.1940    5.2311    0.0000 N   0  0  0  0  0  0  0  0  0  0  0  0
    0.8602    3.7687    0.0000 C   0  0  0  0  0  0  0  0  0  0  0  0
   -0.5191    3.1792    0.0000 N   0  0  0  0  0  0  0  0  0  0  0  0
   -0.3846    1.6852    0.0000 C   0  0  0  0  0  0  0  0  0  0  0  0
    1.0777    1.3515    0.0000 C   0  0  0  0  0  0  0  0  0  0  0  0
    1.8471    2.6391    0.0000 S   0  0  0  0  0  0  0  0  0  0  0  0
    1.7286    0.0000    0.0000 C   0  0  0  0  0  0  0  0  0  0  0  0
    1.0777   -1.3515    0.0000 C   0  0  0  0  0  0  0  0  0  0  0  0
   -0.3846   -1.6852    0.0000 N   0  0  0  0  0  0  0  0  0  0  0  0
   -0.7184   -3.1476    0.0000 C   0  0  0  0  0  0  0  0  0  0  0  0
    0.3812   -4.1679    0.0000 O   0  0  0  0  0  0  0  0  0  0  0  0
   -2.1518   -3.5898    0.0000 C   0  0  0  0  0  0  0  0  0  0  0  0
   -3.2514   -2.5695    0.0000 C   0  0  0  0  0  0  0  0  0  0  0  0
   -4.6847   -3.0116    0.0000 C   0  0  0  0  0  0  0  0  0  0  0  0
   -5.0185   -4.4740    0.0000 O   0  0  0  0  0  0  0  0  0  0  0  0
   -3.9189   -5.4943    0.0000 C   0  0  0  0  0  0  0  0  0  0  0  0
   -2.4856   -5.0522    0.0000 C   0  0  0  0  0  0  0  0  0  0  0  0
   -1.5574   -0.7500    0.0000 C   0  0  0  0  0  0  0  0  0  0  0  0
   -1.5574    0.7500    0.0000 C   0  0  0  0  0  0  0  0  0  0  0  0
    3.7269    4.6530    0.0000 N   0  0  0  0  0  0  0  0  0  0  0  0
    5.1603    5.0951    0.0000 C   0  0  0  0  0  0  0  0  0  0  0  0
    5.4940    6.5575    0.0000 C   0  0  0  0  0  0  0  0  0  0  0  0
    6.9274    6.9997    0.0000 Cl  0  0  0  0  0  0  0  0  0  0  0  0
  1  2  1  0
  2  3  1  0
  2  4  1  0
  4  5  2  0
  4  6  2  0
  4  7  1  0
  7  8  2  0
  8  9  1  0
  9 10  2  0
 10 11  1  0
 11 12  2  0
 12 13  1  0
 13 14  1  0
 14 15  2  0
 15 16  1  0
 16 17  1  0
 17 18  1  0
 18 19  2  0
 19 20  1  0
 20 21  2  0
 21 22  1  0
 21 23  1  0
 23 24  1  0
 24 25  1  0
 25 26  1  0
 26 27  2  0
 26 28  1  0
 28 29  1  0
 29 30  1  0
 30 31  1  0
 31 32  1  0
 32 33  1  0
 25 34  1  0
 34 35  1  0
 16 36  2  0
 36 37  1  0
 37 38  2  0
 38 39  1  0
 12  7  1  0
 38 14  1  0
 22 18  1  0
 33 28  1  0
 35 20  1  0
M  END
>  <Compound_ID>  (422) 
CHEMBL3330859

>  <Molecule Name>  (422) 
nan

>  <Molecular Weight>  (422) 
591.16

>  <AlogP>  (422) 
4.61

>  <Smiles>  (422) 
CC(C)S(=O)(=O)c1ccccc1Nc1nc(Nc2nc3c(s2)CCN(C(=O)C2CCOCC2)CC3)ncc1Cl

>  <Standard Type>  (422) 
Inhibition

>  <Standard Relation>  (422) 
'='

>  <Standard Units>  (422) 
%

>  <Standard Value>  (422) 
4.9

>  <Assay ChEMBL ID>  (422) 
CHEMBL3383507

>  <Assay Description>  (422) 
Inhibition of purified c-MET (unknown origin) at 1 uM after 60 mins by ELISA kinase assay

>  <BAO Format ID>  (422) 
BAO_0000357

>  <BAO Label>  (422) 
single protein format

>  <Assay Organism>  (422) 
Homo sapiens

>  <Target ChEMBL ID>  (422) 
CHEMBL3717

>  <Target Name>  (422) 
Hepatocyte growth factor receptor

>  <Target Organism>  (422) 
Homo sapiens

>  <Target Type>  (422) 
SINGLE PROTEIN

>  <Document ChEMBL ID>  (422) 
CHEMBL3352334

>  <Source Description>  (422) 
Scientific Literature

>  <Document Journal>  (422) 
Eur J Med Chem

>  <Document Year>  (422) 
2014.0

>  <Active>  (422) 
0.0

$$$$

     RDKit          2D

 30 34  0  0  0  0  0  0  0  0999 V2000
    3.7500   -1.2990    0.0000 C   0  0  0  0  0  0  0  0  0  0  0  0
    3.0000    0.0000    0.0000 N   0  0  0  0  0  0  0  0  0  0  0  0
    3.7500    1.2990    0.0000 C   0  0  0  0  0  0  0  0  0  0  0  0
    1.5000    0.0000    0.0000 C   0  0  0  0  0  0  0  0  0  0  0  0
    0.7500   -1.2990    0.0000 C   0  0  0  0  0  0  0  0  0  0  0  0
   -0.7500   -1.2990    0.0000 C   0  0  0  0  0  0  0  0  0  0  0  0
   -1.5000   -2.5981    0.0000 C   0  0  0  0  0  0  0  0  0  0  0  0
   -0.7500   -3.8971    0.0000 N   0  0  0  0  0  0  0  0  0  0  0  0
   -1.5000   -5.1962    0.0000 C   0  0  0  0  0  0  0  0  0  0  0  0
   -3.0000   -5.1962    0.0000 C   0  0  0  0  0  0  0  0  0  0  0  0
   -3.7500   -6.4952    0.0000 C   0  0  0  0  0  0  0  0  0  0  0  0
   -3.0000   -7.7942    0.0000 C   0  0  0  0  0  0  0  0  0  0  0  0
   -3.4635   -9.2208    0.0000 N   0  0  0  0  0  0  0  0  0  0  0  0
   -2.2500  -10.1025    0.0000 C   0  0  0  0  0  0  0  0  0  0  0  0
   -2.2500  -11.6025    0.0000 C   0  0  0  0  0  0  0  0  0  0  0  0
   -3.5490  -12.3525    0.0000 C   0  0  0  0  0  0  0  0  0  0  0  0
   -4.8481  -11.6025    0.0000 C   0  0  0  0  0  0  0  0  0  0  0  0
   -6.1471  -12.3525    0.0000 C   0  0  0  0  0  0  0  0  0  0  0  0
   -6.1471  -13.8525    0.0000 C   0  0  0  0  0  0  0  0  0  0  0  0
   -4.8481  -14.6025    0.0000 C   0  0  0  0  0  0  0  0  0  0  0  0
   -3.5490  -13.8525    0.0000 C   0  0  0  0  0  0  0  0  0  0  0  0
   -1.0365   -9.2208    0.0000 N   0  0  0  0  0  0  0  0  0  0  0  0
   -1.5000   -7.7942    0.0000 C   0  0  0  0  0  0  0  0  0  0  0  0
   -0.7500   -6.4952    0.0000 C   0  0  0  0  0  0  0  0  0  0  0  0
   -3.0000   -2.5981    0.0000 N   0  0  0  0  0  0  0  0  0  0  0  0
   -3.7500   -1.2990    0.0000 C   0  0  0  0  0  0  0  0  0  0  0  0
   -3.0000    0.0000    0.0000 N   0  0  0  0  0  0  0  0  0  0  0  0
   -1.5000    0.0000    0.0000 C   0  0  0  0  0  0  0  0  0  0  0  0
   -0.7500    1.2990    0.0000 C   0  0  0  0  0  0  0  0  0  0  0  0
    0.7500    1.2990    0.0000 N   0  0  0  0  0  0  0  0  0  0  0  0
  1  2  1  0
  2  3  1  0
  2  4  1  0
  4  5  2  0
  5  6  1  0
  6  7  2  0
  7  8  1  0
  8  9  1  0
  9 10  2  0
 10 11  1  0
 11 12  2  0
 12 13  1  0
 13 14  2  0
 14 15  1  0
 15 16  1  0
 16 17  2  0
 17 18  1  0
 18 19  2  0
 19 20  1  0
 20 21  2  0
 14 22  1  0
 22 23  1  0
 23 24  2  0
  7 25  1  0
 25 26  2  0
 26 27  1  0
 27 28  2  0
 28 29  1  0
 29 30  2  0
 30  4  1  0
 28  6  1  0
 24  9  1  0
 23 12  1  0
 21 16  1  0
M  END
>  <Compound_ID>  (423) 
CHEMBL531804

>  <Molecule Name>  (423) 
GW301888X

>  <Molecular Weight>  (423) 
395.47

>  <AlogP>  (423) 
4.30

>  <Smiles>  (423) 
CN(C)c1cc2c(Nc3ccc4nc(Cc5ccccc5)[nH]c4c3)ncnc2cn1

>  <Standard Type>  (423) 
Inhibition

>  <Standard Relation>  (423) 
'='

>  <Standard Units>  (423) 
%

>  <Standard Value>  (423) 
0.15

>  <Assay ChEMBL ID>  (423) 
CHEMBL1962142

>  <Assay Description>  (423) 
GSK_PKIS: MET mean inhibition at 0.1 uM [Nanosyn]

>  <BAO Format ID>  (423) 
BAO_0000357

>  <BAO Label>  (423) 
single protein format

>  <Assay Organism>  (423) 
None

>  <Target ChEMBL ID>  (423) 
CHEMBL3717

>  <Target Name>  (423) 
Hepatocyte growth factor receptor

>  <Target Organism>  (423) 
Homo sapiens

>  <Target Type>  (423) 
SINGLE PROTEIN

>  <Document ChEMBL ID>  (423) 
CHEMBL1961873

>  <Source Description>  (423) 
GSK Published Kinase Inhibitor Set

>  <Document Journal>  (423) 
nan

>  <Document Year>  (423) 
nan

>  <Active>  (423) 
0.0

$$$$

     RDKit          2D

 40 45  0  0  0  0  0  0  0  0999 V2000
    4.6740   -4.8322    0.0000 C   0  0  0  0  0  0  0  0  0  0  0  0
    3.3037   -4.2221    0.0000 C   0  0  0  0  0  0  0  0  0  0  0  0
    2.9918   -2.7549    0.0000 N   0  0  0  0  0  0  0  0  0  0  0  0
    1.5000   -2.5981    0.0000 C   0  0  0  0  0  0  0  0  0  0  0  0
    0.7500   -1.2990    0.0000 C   0  0  0  0  0  0  0  0  0  0  0  0
    1.5000    0.0000    0.0000 C   0  0  0  0  0  0  0  0  0  0  0  0
    0.7500    1.2990    0.0000 C   0  0  0  0  0  0  0  0  0  0  0  0
   -0.7500    1.2990    0.0000 C   0  0  0  0  0  0  0  0  0  0  0  0
   -1.5000    0.0000    0.0000 C   0  0  0  0  0  0  0  0  0  0  0  0
   -0.7500   -1.2990    0.0000 C   0  0  0  0  0  0  0  0  0  0  0  0
    0.8899   -3.9684    0.0000 C   0  0  0  0  0  0  0  0  0  0  0  0
   -0.5773   -4.2803    0.0000 C   0  0  0  0  0  0  0  0  0  0  0  0
   -1.5810   -3.1655    0.0000 C   0  0  0  0  0  0  0  0  0  0  0  0
   -3.0482   -3.4774    0.0000 C   0  0  0  0  0  0  0  0  0  0  0  0
   -3.5118   -4.9040    0.0000 C   0  0  0  0  0  0  0  0  0  0  0  0
   -2.5081   -6.0187    0.0000 C   0  0  0  0  0  0  0  0  0  0  0  0
   -1.0409   -5.7068    0.0000 C   0  0  0  0  0  0  0  0  0  0  0  0
    2.0046   -4.9721    0.0000 C   0  0  0  0  0  0  0  0  0  0  0  0
    1.8478   -6.4639    0.0000 C   0  0  0  0  0  0  0  0  0  0  0  0
    0.4775   -7.0740    0.0000 O   0  0  0  0  0  0  0  0  0  0  0  0
    3.0613   -7.3456    0.0000 C   0  0  0  0  0  0  0  0  0  0  0  0
    4.4879   -6.8820    0.0000 C   0  0  0  0  0  0  0  0  0  0  0  0
    5.3696   -8.0956    0.0000 N   0  0  0  0  0  0  0  0  0  0  0  0
    6.8696   -8.0956    0.0000 C   0  0  0  0  0  0  0  0  0  0  0  0
    7.6196   -9.3946    0.0000 C   0  0  0  0  0  0  0  0  0  0  0  0
    9.1196   -9.3946    0.0000 C   0  0  0  0  0  0  0  0  0  0  0  0
    9.8696   -8.0956    0.0000 C   0  0  0  0  0  0  0  0  0  0  0  0
    9.1196   -6.7965    0.0000 C   0  0  0  0  0  0  0  0  0  0  0  0
    7.6196   -6.7965    0.0000 C   0  0  0  0  0  0  0  0  0  0  0  0
    4.4879   -9.3091    0.0000 N   0  0  0  0  0  0  0  0  0  0  0  0
    3.0613   -8.8456    0.0000 C   0  0  0  0  0  0  0  0  0  0  0  0
    1.8478   -9.7272    0.0000 C   0  0  0  0  0  0  0  0  0  0  0  0
    0.4775   -9.1171    0.0000 O   0  0  0  0  0  0  0  0  0  0  0  0
    2.0046  -11.2190    0.0000 N   0  0  0  0  0  0  0  0  0  0  0  0
    0.7911  -12.1007    0.0000 C   0  0  0  0  0  0  0  0  0  0  0  0
   -0.5792  -11.4906    0.0000 C   0  0  0  0  0  0  0  0  0  0  0  0
   -1.7928  -12.3723    0.0000 C   0  0  0  0  0  0  0  0  0  0  0  0
   -1.6360  -13.8640    0.0000 C   0  0  0  0  0  0  0  0  0  0  0  0
   -0.2656  -14.4742    0.0000 C   0  0  0  0  0  0  0  0  0  0  0  0
    0.9479  -13.5925    0.0000 C   0  0  0  0  0  0  0  0  0  0  0  0
  1  2  1  0
  2  3  1  0
  3  4  1  0
  4  5  1  0
  5  6  2  0
  6  7  1  0
  7  8  2  0
  8  9  1  0
  9 10  2  0
  4 11  2  0
 11 12  1  0
 12 13  2  0
 13 14  1  0
 14 15  2  0
 15 16  1  0
 16 17  2  0
 11 18  1  0
 18 19  1  0
 19 20  2  0
 19 21  1  0
 21 22  2  0
 22 23  1  0
 23 24  1  0
 24 25  2  0
 25 26  1  0
 26 27  2  0
 27 28  1  0
 28 29  2  0
 23 30  1  0
 30 31  2  0
 31 32  1  0
 32 33  2  0
 32 34  1  0
 34 35  1  0
 35 36  2  0
 36 37  1  0
 37 38  2  0
 38 39  1  0
 39 40  2  0
 18  2  2  0
 31 21  1  0
 40 35  1  0
 10  5  1  0
 17 12  1  0
 29 24  1  0
M  END
>  <Compound_ID>  (424) 
CHEMBL3740930

>  <Molecule Name>  (424) 
nan

>  <Molecular Weight>  (424) 
522.61

>  <AlogP>  (424) 
7.33

>  <Smiles>  (424) 
Cc1[nH]c(-c2ccccc2)c(-c2ccccc2)c1C(=O)c1cn(-c2ccccc2)nc1C(=O)Nc1ccccc1

>  <Standard Type>  (424) 
Inhibition

>  <Standard Relation>  (424) 
'='

>  <Standard Units>  (424) 
%

>  <Standard Value>  (424) 
3.0

>  <Assay ChEMBL ID>  (424) 
CHEMBL3744318

>  <Assay Description>  (424) 
Inhibition of MET (unknown origin) at 30 uM by microfluidic assay relative to control

>  <BAO Format ID>  (424) 
BAO_0000357

>  <BAO Label>  (424) 
single protein format

>  <Assay Organism>  (424) 
Homo sapiens

>  <Target ChEMBL ID>  (424) 
CHEMBL3717

>  <Target Name>  (424) 
Hepatocyte growth factor receptor

>  <Target Organism>  (424) 
Homo sapiens

>  <Target Type>  (424) 
SINGLE PROTEIN

>  <Document ChEMBL ID>  (424) 
CHEMBL3739348

>  <Source Description>  (424) 
Scientific Literature

>  <Document Journal>  (424) 
Medchemcomm

>  <Document Year>  (424) 
2015.0

>  <Active>  (424) 
0.0

$$$$

     RDKit          2D

 27 31  0  0  0  0  0  0  0  0999 V2000
    2.3907    1.0037    0.0000 C   0  0  0  0  0  0  0  0  0  0  0  0
    1.2760    0.0000    0.0000 C   0  0  0  0  0  0  0  0  0  0  0  0
    2.3907   -1.0037    0.0000 C   0  0  0  0  0  0  0  0  0  0  0  0
    0.3943    1.2135    0.0000 O   0  0  0  0  0  0  0  0  0  0  0  0
   -1.0323    0.7500    0.0000 C   0  0  0  0  0  0  0  0  0  0  0  0
   -1.0323   -0.7500    0.0000 C   0  0  0  0  0  0  0  0  0  0  0  0
   -2.1470   -1.7537    0.0000 C   0  0  0  0  0  0  0  0  0  0  0  0
   -3.5736   -1.2902    0.0000 N   0  0  0  0  0  0  0  0  0  0  0  0
   -4.6883   -2.2939    0.0000 C   0  0  0  0  0  0  0  0  0  0  0  0
   -4.5315   -3.7856    0.0000 N   0  0  0  0  0  0  0  0  0  0  0  0
   -5.9018   -4.3958    0.0000 N   0  0  0  0  0  0  0  0  0  0  0  0
   -6.9055   -3.2810    0.0000 C   0  0  0  0  0  0  0  0  0  0  0  0
   -8.4055   -3.2810    0.0000 C   0  0  0  0  0  0  0  0  0  0  0  0
   -9.1555   -4.5801    0.0000 Cl  0  0  0  0  0  0  0  0  0  0  0  0
   -9.1555   -1.9820    0.0000 C   0  0  0  0  0  0  0  0  0  0  0  0
   -8.4055   -0.6830    0.0000 C   0  0  0  0  0  0  0  0  0  0  0  0
   -6.9055   -0.6830    0.0000 C   0  0  0  0  0  0  0  0  0  0  0  0
   -6.1555   -1.9820    0.0000 C   0  0  0  0  0  0  0  0  0  0  0  0
   -1.8351   -3.2209    0.0000 N   0  0  0  0  0  0  0  0  0  0  0  0
   -0.4086   -3.6844    0.0000 C   0  0  0  0  0  0  0  0  0  0  0  0
   -0.0967   -5.1517    0.0000 C   0  0  0  0  0  0  0  0  0  0  0  0
    1.2736   -5.7618    0.0000 C   0  0  0  0  0  0  0  0  0  0  0  0
    1.1168   -7.2536    0.0000 N   0  0  0  0  0  0  0  0  0  0  0  0
   -0.3504   -7.5654    0.0000 N   0  0  0  0  0  0  0  0  0  0  0  0
   -1.1004   -6.2664    0.0000 C   0  0  0  0  0  0  0  0  0  0  0  0
    0.7062   -2.6807    0.0000 N   0  0  0  0  0  0  0  0  0  0  0  0
    0.3943   -1.2135    0.0000 C   0  0  0  0  0  0  0  0  0  0  0  0
  1  2  1  0
  2  3  1  0
  2  4  1  0
  4  5  1  0
  5  6  1  0
  6  7  2  0
  7  8  1  0
  8  9  1  0
  9 10  2  0
 10 11  1  0
 11 12  1  0
 12 13  2  0
 13 14  1  0
 13 15  1  0
 15 16  2  0
 16 17  1  0
 17 18  2  0
  7 19  1  0
 19 20  2  0
 20 21  1  0
 21 22  1  0
 22 23  2  0
 23 24  1  0
 24 25  1  0
 20 26  1  0
 26 27  2  0
 27  2  1  0
 27  6  1  0
 18  9  1  0
 25 21  2  0
 18 12  1  0
M  END
>  <Compound_ID>  (425) 
CHEMBL3758602

>  <Molecule Name>  (425) 
nan

>  <Molecular Weight>  (425) 
381.83

>  <AlogP>  (425) 
3.91

>  <Smiles>  (425) 
CC1(C)OCc2c(Nc3n[nH]c4c(Cl)cccc34)nc(-c3cn[nH]c3)nc21

>  <Standard Type>  (425) 
Inhibition

>  <Standard Relation>  (425) 
'='

>  <Standard Units>  (425) 
%

>  <Standard Value>  (425) 
7.7

>  <Assay ChEMBL ID>  (425) 
CHEMBL3760656

>  <Assay Description>  (425) 
Inhibition of MET (unknown origin) at 100 nM

>  <BAO Format ID>  (425) 
BAO_0000357

>  <BAO Label>  (425) 
single protein format

>  <Assay Organism>  (425) 
Homo sapiens

>  <Target ChEMBL ID>  (425) 
CHEMBL3717

>  <Target Name>  (425) 
Hepatocyte growth factor receptor

>  <Target Organism>  (425) 
Homo sapiens

>  <Target Type>  (425) 
SINGLE PROTEIN

>  <Document ChEMBL ID>  (425) 
CHEMBL3758169

>  <Source Description>  (425) 
Scientific Literature

>  <Document Journal>  (425) 
Bioorg Med Chem Lett

>  <Document Year>  (425) 
2016.0

>  <Active>  (425) 
0.0

$$$$

     RDKit          2D

 26 29  0  0  0  0  0  0  0  0999 V2000
    3.0000    0.0000    0.0000 C   0  0  0  0  0  0  0  0  0  0  0  0
    1.5000    0.0000    0.0000 N   0  0  0  0  0  0  0  0  0  0  0  0
    0.7500   -1.2990    0.0000 C   0  0  0  0  0  0  0  0  0  0  0  0
   -0.7500   -1.2990    0.0000 C   0  0  0  0  0  0  0  0  0  0  0  0
   -1.5000    0.0000    0.0000 C   0  0  0  0  0  0  0  0  0  0  0  0
   -3.0000    0.0000    0.0000 N   0  0  0  0  0  0  0  0  0  0  0  0
   -3.8817   -1.2135    0.0000 C   0  0  0  0  0  0  0  0  0  0  0  0
   -5.3083   -0.7500    0.0000 N   0  0  0  0  0  0  0  0  0  0  0  0
   -5.3083    0.7500    0.0000 C   0  0  0  0  0  0  0  0  0  0  0  0
   -6.5218    1.6317    0.0000 C   0  0  0  0  0  0  0  0  0  0  0  0
   -6.3650    3.1235    0.0000 C   0  0  0  0  0  0  0  0  0  0  0  0
   -7.5785    4.0051    0.0000 C   0  0  0  0  0  0  0  0  0  0  0  0
   -8.9488    3.3950    0.0000 C   0  0  0  0  0  0  0  0  0  0  0  0
  -10.1624    4.2767    0.0000 F   0  0  0  0  0  0  0  0  0  0  0  0
   -9.1056    1.9033    0.0000 C   0  0  0  0  0  0  0  0  0  0  0  0
   -7.8921    1.0216    0.0000 C   0  0  0  0  0  0  0  0  0  0  0  0
   -3.8817    1.2135    0.0000 C   0  0  0  0  0  0  0  0  0  0  0  0
   -3.4182    2.6401    0.0000 C   0  0  0  0  0  0  0  0  0  0  0  0
   -1.9509    2.9520    0.0000 C   0  0  0  0  0  0  0  0  0  0  0  0
   -1.4874    4.3786    0.0000 C   0  0  0  0  0  0  0  0  0  0  0  0
   -2.4911    5.4933    0.0000 N   0  0  0  0  0  0  0  0  0  0  0  0
   -3.9583    5.1814    0.0000 C   0  0  0  0  0  0  0  0  0  0  0  0
   -4.9620    6.2961    0.0000 N   0  0  0  0  0  0  0  0  0  0  0  0
   -4.4218    3.7548    0.0000 N   0  0  0  0  0  0  0  0  0  0  0  0
   -0.7500    1.2990    0.0000 C   0  0  0  0  0  0  0  0  0  0  0  0
    0.7500    1.2990    0.0000 C   0  0  0  0  0  0  0  0  0  0  0  0
  1  2  1  0
  2  3  1  0
  3  4  1  0
  4  5  1  0
  5  6  1  0
  6  7  1  0
  7  8  2  0
  8  9  1  0
  9 10  1  0
 10 11  2  0
 11 12  1  0
 12 13  2  0
 13 14  1  0
 13 15  1  0
 15 16  2  0
  9 17  2  0
 17 18  1  0
 18 19  2  0
 19 20  1  0
 20 21  2  0
 21 22  1  0
 22 23  1  0
 22 24  2  0
  5 25  1  0
 25 26  1  0
 26  2  1  0
 17  6  1  0
 24 18  1  0
 16 10  1  0
M  END
>  <Compound_ID>  (426) 
CHEMBL95207

>  <Molecule Name>  (426) 
nan

>  <Molecular Weight>  (426) 
352.42

>  <AlogP>  (426) 
3.00

>  <Smiles>  (426) 
CN1CCC(n2cnc(-c3ccc(F)cc3)c2-c2ccnc(N)n2)CC1

>  <Standard Type>  (426) 
Inhibition

>  <Standard Relation>  (426) 
'='

>  <Standard Units>  (426) 
%

>  <Standard Value>  (426) 
2.36

>  <Assay ChEMBL ID>  (426) 
CHEMBL1962142

>  <Assay Description>  (426) 
GSK_PKIS: MET mean inhibition at 0.1 uM [Nanosyn]

>  <BAO Format ID>  (426) 
BAO_0000357

>  <BAO Label>  (426) 
single protein format

>  <Assay Organism>  (426) 
None

>  <Target ChEMBL ID>  (426) 
CHEMBL3717

>  <Target Name>  (426) 
Hepatocyte growth factor receptor

>  <Target Organism>  (426) 
Homo sapiens

>  <Target Type>  (426) 
SINGLE PROTEIN

>  <Document ChEMBL ID>  (426) 
CHEMBL1961873

>  <Source Description>  (426) 
GSK Published Kinase Inhibitor Set

>  <Document Journal>  (426) 
nan

>  <Document Year>  (426) 
nan

>  <Active>  (426) 
0.0

$$$$

     RDKit          2D

 23 26  0  0  0  0  0  0  0  0999 V2000
   -6.4937   -2.7256    0.0000 O   0  0  0  0  0  0  0  0  0  0  0  0
   -5.0672   -3.1891    0.0000 C   0  0  0  0  0  0  0  0  0  0  0  0
   -4.6036   -4.6157    0.0000 N   0  0  0  0  0  0  0  0  0  0  0  0
   -3.1036   -4.6157    0.0000 C   0  0  0  0  0  0  0  0  0  0  0  0
   -2.2220   -5.8293    0.0000 O   0  0  0  0  0  0  0  0  0  0  0  0
   -2.6401   -3.1891    0.0000 C   0  0  0  0  0  0  0  0  0  0  0  0
   -1.2135   -2.7256    0.0000 N   0  0  0  0  0  0  0  0  0  0  0  0
   -0.0000   -3.6073    0.0000 C   0  0  0  0  0  0  0  0  0  0  0  0
    1.2135   -2.7256    0.0000 C   0  0  0  0  0  0  0  0  0  0  0  0
    0.7500   -1.2990    0.0000 C   0  0  0  0  0  0  0  0  0  0  0  0
    1.5000    0.0000    0.0000 C   0  0  0  0  0  0  0  0  0  0  0  0
    0.7500    1.2990    0.0000 C   0  0  0  0  0  0  0  0  0  0  0  0
   -0.7500    1.2990    0.0000 C   0  0  0  0  0  0  0  0  0  0  0  0
   -1.5000    0.0000    0.0000 C   0  0  0  0  0  0  0  0  0  0  0  0
   -0.7500   -1.2990    0.0000 C   0  0  0  0  0  0  0  0  0  0  0  0
   -3.8536   -2.3075    0.0000 C   0  0  0  0  0  0  0  0  0  0  0  0
   -3.8536   -0.8075    0.0000 C   0  0  0  0  0  0  0  0  0  0  0  0
   -2.5546   -0.0575    0.0000 C   0  0  0  0  0  0  0  0  0  0  0  0
   -2.5546    1.4425    0.0000 C   0  0  0  0  0  0  0  0  0  0  0  0
   -3.8536    2.1925    0.0000 C   0  0  0  0  0  0  0  0  0  0  0  0
   -3.8536    3.6925    0.0000 Cl  0  0  0  0  0  0  0  0  0  0  0  0
   -5.1527    1.4425    0.0000 C   0  0  0  0  0  0  0  0  0  0  0  0
   -5.1527   -0.0575    0.0000 C   0  0  0  0  0  0  0  0  0  0  0  0
  1  2  2  0
  2  3  1  0
  3  4  1  0
  4  5  2  0
  4  6  1  0
  6  7  1  0
  7  8  1  0
  8  9  1  0
  9 10  1  0
 10 11  2  0
 11 12  1  0
 12 13  2  0
 13 14  1  0
 14 15  2  0
  6 16  2  0
 16 17  1  0
 17 18  2  0
 18 19  1  0
 19 20  2  0
 20 21  1  0
 20 22  1  0
 22 23  2  0
 16  2  1  0
 23 17  1  0
 15  7  1  0
 15 10  1  0
M  END
>  <Compound_ID>  (427) 
CHEMBL156524

>  <Molecule Name>  (427) 
nan

>  <Molecular Weight>  (427) 
324.77

>  <AlogP>  (427) 
2.77

>  <Smiles>  (427) 
O=C1NC(=O)C(N2CCc3ccccc32)=C1c1ccc(Cl)cc1

>  <Standard Type>  (427) 
Inhibition

>  <Standard Relation>  (427) 
'='

>  <Standard Units>  (427) 
%

>  <Standard Value>  (427) 
7.33

>  <Assay ChEMBL ID>  (427) 
CHEMBL1962143

>  <Assay Description>  (427) 
GSK_PKIS: MET mean inhibition at 1 uM [Nanosyn]

>  <BAO Format ID>  (427) 
BAO_0000357

>  <BAO Label>  (427) 
single protein format

>  <Assay Organism>  (427) 
None

>  <Target ChEMBL ID>  (427) 
CHEMBL3717

>  <Target Name>  (427) 
Hepatocyte growth factor receptor

>  <Target Organism>  (427) 
Homo sapiens

>  <Target Type>  (427) 
SINGLE PROTEIN

>  <Document ChEMBL ID>  (427) 
CHEMBL1961873

>  <Source Description>  (427) 
GSK Published Kinase Inhibitor Set

>  <Document Journal>  (427) 
nan

>  <Document Year>  (427) 
nan

>  <Active>  (427) 
0.0

$$$$

     RDKit          2D

 28 31  0  0  0  0  0  0  0  0999 V2000
   -4.3786   -5.1199    0.0000 C   0  0  0  0  0  0  0  0  0  0  0  0
   -2.9520   -4.6564    0.0000 C   0  0  0  0  0  0  0  0  0  0  0  0
   -1.8373   -5.6601    0.0000 O   0  0  0  0  0  0  0  0  0  0  0  0
   -2.6401   -3.1891    0.0000 N   0  0  0  0  0  0  0  0  0  0  0  0
   -1.2135   -2.7256    0.0000 C   0  0  0  0  0  0  0  0  0  0  0  0
   -0.0000   -3.6073    0.0000 N   0  0  0  0  0  0  0  0  0  0  0  0
    1.2135   -2.7256    0.0000 N   0  0  0  0  0  0  0  0  0  0  0  0
    2.6401   -3.1891    0.0000 C   0  0  0  0  0  0  0  0  0  0  0  0
    0.7500   -1.2990    0.0000 C   0  0  0  0  0  0  0  0  0  0  0  0
    1.5000    0.0000    0.0000 C   0  0  0  0  0  0  0  0  0  0  0  0
    0.7500    1.2990    0.0000 C   0  0  0  0  0  0  0  0  0  0  0  0
    1.5000    2.5981    0.0000 C   0  0  0  0  0  0  0  0  0  0  0  0
    3.0000    2.5981    0.0000 C   0  0  0  0  0  0  0  0  0  0  0  0
    3.7500    3.8971    0.0000 C   0  0  0  0  0  0  0  0  0  0  0  0
    3.0000    5.1962    0.0000 C   0  0  0  0  0  0  0  0  0  0  0  0
    3.7500    6.4952    0.0000 N   0  0  0  0  0  0  0  0  0  0  0  0
    5.2500    6.4952    0.0000 C   0  0  0  0  0  0  0  0  0  0  0  0
    6.0000    7.7942    0.0000 C   0  0  0  0  0  0  0  0  0  0  0  0
    5.2500    9.0933    0.0000 N   0  0  0  0  0  0  0  0  0  0  0  0
    6.0000   10.3923    0.0000 C   0  0  0  0  0  0  0  0  0  0  0  0
    3.7500    9.0933    0.0000 C   0  0  0  0  0  0  0  0  0  0  0  0
    3.0000    7.7942    0.0000 C   0  0  0  0  0  0  0  0  0  0  0  0
    1.5000    5.1962    0.0000 C   0  0  0  0  0  0  0  0  0  0  0  0
    0.7500    3.8971    0.0000 C   0  0  0  0  0  0  0  0  0  0  0  0
   -0.7500    1.2990    0.0000 N   0  0  0  0  0  0  0  0  0  0  0  0
   -1.5000    0.0000    0.0000 C   0  0  0  0  0  0  0  0  0  0  0  0
   -3.0000    0.0000    0.0000 O   0  0  0  0  0  0  0  0  0  0  0  0
   -0.7500   -1.2990    0.0000 C   0  0  0  0  0  0  0  0  0  0  0  0
  1  2  1  0
  2  3  2  0
  2  4  1  0
  4  5  1  0
  5  6  2  0
  6  7  1  0
  7  8  1  0
  7  9  1  0
  9 10  1  0
 10 11  2  0
 11 12  1  0
 12 13  2  0
 13 14  1  0
 14 15  2  0
 15 16  1  0
 16 17  1  0
 17 18  1  0
 18 19  1  0
 19 20  1  0
 19 21  1  0
 21 22  1  0
 15 23  1  0
 23 24  2  0
 11 25  1  0
 25 26  1  0
 26 27  2  0
 26 28  1  0
 28  5  1  0
 28  9  2  0
 24 12  1  0
 22 16  1  0
M  END
>  <Compound_ID>  (428) 
CHEMBL1813780

>  <Molecule Name>  (428) 
nan

>  <Molecular Weight>  (428) 
380.45

>  <AlogP>  (428) 
1.64

>  <Smiles>  (428) 
CC(=O)Nc1nn(C)c2cc(-c3ccc(N4CCN(C)CC4)cc3)[nH]c(=O)c12

>  <Standard Type>  (428) 
Inhibition

>  <Standard Relation>  (428) 
'='

>  <Standard Units>  (428) 
%

>  <Standard Value>  (428) 
-2.0

>  <Assay ChEMBL ID>  (428) 
CHEMBL1815730

>  <Assay Description>  (428) 
Inhibition of MET at 30 uM by microfluidic mobility shift assay

>  <BAO Format ID>  (428) 
BAO_0000357

>  <BAO Label>  (428) 
single protein format

>  <Assay Organism>  (428) 
None

>  <Target ChEMBL ID>  (428) 
CHEMBL3717

>  <Target Name>  (428) 
Hepatocyte growth factor receptor

>  <Target Organism>  (428) 
Homo sapiens

>  <Target Type>  (428) 
SINGLE PROTEIN

>  <Document ChEMBL ID>  (428) 
CHEMBL1811853

>  <Source Description>  (428) 
Scientific Literature

>  <Document Journal>  (428) 
Bioorg Med Chem

>  <Document Year>  (428) 
2011.0

>  <Active>  (428) 
0.0

$$$$

     RDKit          2D

 30 34  0  0  0  0  0  0  0  0999 V2000
   -5.2500   -6.4952    0.0000 C   0  0  0  0  0  0  0  0  0  0  0  0
   -3.7500   -6.4952    0.0000 C   0  0  0  0  0  0  0  0  0  0  0  0
   -3.0000   -5.1962    0.0000 C   0  0  0  0  0  0  0  0  0  0  0  0
   -3.7500   -3.8971    0.0000 C   0  0  0  0  0  0  0  0  0  0  0  0
   -3.0000   -2.5981    0.0000 O   0  0  0  0  0  0  0  0  0  0  0  0
   -5.2500   -3.8971    0.0000 N   0  0  0  0  0  0  0  0  0  0  0  0
   -6.0000   -2.5981    0.0000 C   0  0  0  0  0  0  0  0  0  0  0  0
   -5.2500   -1.2990    0.0000 C   0  0  0  0  0  0  0  0  0  0  0  0
   -6.0000   -0.0000    0.0000 C   0  0  0  0  0  0  0  0  0  0  0  0
   -7.5000   -0.0000    0.0000 C   0  0  0  0  0  0  0  0  0  0  0  0
   -8.5037    1.1147    0.0000 N   0  0  0  0  0  0  0  0  0  0  0  0
   -9.8740    0.5046    0.0000 N   0  0  0  0  0  0  0  0  0  0  0  0
   -9.7172   -0.9872    0.0000 C   0  0  0  0  0  0  0  0  0  0  0  0
   -8.2500   -1.2990    0.0000 C   0  0  0  0  0  0  0  0  0  0  0  0
   -7.5000   -2.5981    0.0000 C   0  0  0  0  0  0  0  0  0  0  0  0
   -1.5000   -5.1962    0.0000 C   0  0  0  0  0  0  0  0  0  0  0  0
   -0.7500   -3.8971    0.0000 C   0  0  0  0  0  0  0  0  0  0  0  0
    0.7500   -3.8971    0.0000 C   0  0  0  0  0  0  0  0  0  0  0  0
    1.5000   -2.5981    0.0000 C   0  0  0  0  0  0  0  0  0  0  0  0
    0.7500   -1.2990    0.0000 C   0  0  0  0  0  0  0  0  0  0  0  0
    1.5000    0.0000    0.0000 C   0  0  0  0  0  0  0  0  0  0  0  0
    0.7500    1.2990    0.0000 C   0  0  0  0  0  0  0  0  0  0  0  0
   -0.7500    1.2990    0.0000 C   0  0  0  0  0  0  0  0  0  0  0  0
   -1.5000    0.0000    0.0000 C   0  0  0  0  0  0  0  0  0  0  0  0
   -0.7500   -1.2990    0.0000 C   0  0  0  0  0  0  0  0  0  0  0  0
   -1.5000   -2.5981    0.0000 C   0  0  0  0  0  0  0  0  0  0  0  0
   -0.7500   -6.4952    0.0000 C   0  0  0  0  0  0  0  0  0  0  0  0
   -1.5000   -7.7942    0.0000 C   0  0  0  0  0  0  0  0  0  0  0  0
   -0.7500   -9.0933    0.0000 O   0  0  0  0  0  0  0  0  0  0  0  0
   -3.0000   -7.7942    0.0000 N   0  0  0  0  0  0  0  0  0  0  0  0
  1  2  1  0
  2  3  2  0
  3  4  1  0
  4  5  2  0
  4  6  1  0
  6  7  1  0
  7  8  2  0
  8  9  1  0
  9 10  2  0
 10 11  1  0
 11 12  1  0
 12 13  2  0
 13 14  1  0
 14 15  2  0
  3 16  1  0
 16 17  1  0
 17 18  2  0
 18 19  1  0
 19 20  2  0
 20 21  1  0
 21 22  2  0
 22 23  1  0
 23 24  2  0
 24 25  1  0
 25 26  2  0
 16 27  1  0
 27 28  1  0
 28 29  2  0
 28 30  1  0
 30  2  1  0
 15  7  1  0
 26 17  1  0
 14 10  1  0
 25 20  1  0
M  END
>  <Compound_ID>  (429) 
CHEMBL441702

>  <Molecule Name>  (429) 
GSK-270822A

>  <Molecular Weight>  (429) 
396.45

>  <AlogP>  (429) 
4.23

>  <Smiles>  (429) 
CC1=C(C(=O)Nc2ccc3[nH]ncc3c2)C(c2ccc3ccccc3c2)CC(=O)N1

>  <Standard Type>  (429) 
Inhibition

>  <Standard Relation>  (429) 
'='

>  <Standard Units>  (429) 
%

>  <Standard Value>  (429) 
8.81

>  <Assay ChEMBL ID>  (429) 
CHEMBL1962142

>  <Assay Description>  (429) 
GSK_PKIS: MET mean inhibition at 0.1 uM [Nanosyn]

>  <BAO Format ID>  (429) 
BAO_0000357

>  <BAO Label>  (429) 
single protein format

>  <Assay Organism>  (429) 
None

>  <Target ChEMBL ID>  (429) 
CHEMBL3717

>  <Target Name>  (429) 
Hepatocyte growth factor receptor

>  <Target Organism>  (429) 
Homo sapiens

>  <Target Type>  (429) 
SINGLE PROTEIN

>  <Document ChEMBL ID>  (429) 
CHEMBL1961873

>  <Source Description>  (429) 
GSK Published Kinase Inhibitor Set

>  <Document Journal>  (429) 
nan

>  <Document Year>  (429) 
nan

>  <Active>  (429) 
0.0

$$$$

     RDKit          2D

 23 26  0  0  0  0  0  0  0  0999 V2000
    2.7760    0.0000    0.0000 N   0  0  0  0  0  0  0  0  0  0  0  0
    1.2760    0.0000    0.0000 C   0  0  0  0  0  0  0  0  0  0  0  0
    0.3943    1.2135    0.0000 N   0  0  0  0  0  0  0  0  0  0  0  0
   -1.0323    0.7500    0.0000 N   0  0  0  0  0  0  0  0  0  0  0  0
   -1.0323   -0.7500    0.0000 C   0  0  0  0  0  0  0  0  0  0  0  0
   -2.1470   -1.7537    0.0000 C   0  0  0  0  0  0  0  0  0  0  0  0
   -1.8351   -3.2209    0.0000 C   0  0  0  0  0  0  0  0  0  0  0  0
   -2.9499   -4.2246    0.0000 C   0  0  0  0  0  0  0  0  0  0  0  0
   -4.3764   -3.7611    0.0000 C   0  0  0  0  0  0  0  0  0  0  0  0
   -5.4912   -4.7648    0.0000 C   0  0  0  0  0  0  0  0  0  0  0  0
   -5.1793   -6.2320    0.0000 C   0  0  0  0  0  0  0  0  0  0  0  0
   -6.2940   -7.2357    0.0000 N   0  0  0  0  0  0  0  0  0  0  0  0
   -7.7206   -6.7722    0.0000 C   0  0  0  0  0  0  0  0  0  0  0  0
   -8.8353   -7.7759    0.0000 C   0  0  0  0  0  0  0  0  0  0  0  0
   -8.5234   -9.2431    0.0000 O   0  0  0  0  0  0  0  0  0  0  0  0
   -7.0969   -9.7066    0.0000 C   0  0  0  0  0  0  0  0  0  0  0  0
   -5.9821   -8.7029    0.0000 C   0  0  0  0  0  0  0  0  0  0  0  0
   -3.7527   -6.6955    0.0000 C   0  0  0  0  0  0  0  0  0  0  0  0
   -2.6380   -5.6918    0.0000 C   0  0  0  0  0  0  0  0  0  0  0  0
   -0.4086   -3.6844    0.0000 N   0  0  0  0  0  0  0  0  0  0  0  0
    0.7062   -2.6807    0.0000 C   0  0  0  0  0  0  0  0  0  0  0  0
    2.1328   -3.1443    0.0000 O   0  0  0  0  0  0  0  0  0  0  0  0
    0.3943   -1.2135    0.0000 C   0  0  0  0  0  0  0  0  0  0  0  0
  1  2  1  0
  2  3  2  0
  3  4  1  0
  4  5  1  0
  5  6  1  0
  6  7  2  0
  7  8  1  0
  8  9  2  0
  9 10  1  0
 10 11  2  0
 11 12  1  0
 12 13  1  0
 13 14  1  0
 14 15  1  0
 15 16  1  0
 16 17  1  0
 11 18  1  0
 18 19  2  0
  7 20  1  0
 20 21  1  0
 21 22  2  0
 21 23  1  0
 23  2  1  0
 23  5  2  0
 19  8  1  0
 17 12  1  0
M  END
>  <Compound_ID>  (430) 
CHEMBL1813614

>  <Molecule Name>  (430) 
nan

>  <Molecular Weight>  (430) 
311.35

>  <AlogP>  (430) 
1.34

>  <Smiles>  (430) 
Nc1n[nH]c2cc(-c3ccc(N4CCOCC4)cc3)[nH]c(=O)c12

>  <Standard Type>  (430) 
Inhibition

>  <Standard Relation>  (430) 
'='

>  <Standard Units>  (430) 
%

>  <Standard Value>  (430) 
-1.0

>  <Assay ChEMBL ID>  (430) 
CHEMBL1815730

>  <Assay Description>  (430) 
Inhibition of MET at 30 uM by microfluidic mobility shift assay

>  <BAO Format ID>  (430) 
BAO_0000357

>  <BAO Label>  (430) 
single protein format

>  <Assay Organism>  (430) 
None

>  <Target ChEMBL ID>  (430) 
CHEMBL3717

>  <Target Name>  (430) 
Hepatocyte growth factor receptor

>  <Target Organism>  (430) 
Homo sapiens

>  <Target Type>  (430) 
SINGLE PROTEIN

>  <Document ChEMBL ID>  (430) 
CHEMBL1811853

>  <Source Description>  (430) 
Scientific Literature

>  <Document Journal>  (430) 
Bioorg Med Chem

>  <Document Year>  (430) 
2011.0

>  <Active>  (430) 
0.0

$$$$

     RDKit          2D

 33 37  0  0  0  0  0  0  0  0999 V2000
    3.7500   -1.2990    0.0000 C   0  0  0  0  0  0  0  0  0  0  0  0
    3.0000    0.0000    0.0000 O   0  0  0  0  0  0  0  0  0  0  0  0
    1.5000    0.0000    0.0000 C   0  0  0  0  0  0  0  0  0  0  0  0
    0.7500   -1.2990    0.0000 C   0  0  0  0  0  0  0  0  0  0  0  0
   -0.7500   -1.2990    0.0000 C   0  0  0  0  0  0  0  0  0  0  0  0
   -1.5000    0.0000    0.0000 C   0  0  0  0  0  0  0  0  0  0  0  0
   -3.0000    0.0000    0.0000 C   0  0  0  0  0  0  0  0  0  0  0  0
   -3.7500    1.2990    0.0000 C   0  0  0  0  0  0  0  0  0  0  0  0
   -5.2500    1.2990    0.0000 C   0  0  0  0  0  0  0  0  0  0  0  0
   -6.1317    0.0855    0.0000 C   0  0  0  0  0  0  0  0  0  0  0  0
   -5.6682   -1.3411    0.0000 C   0  0  0  0  0  0  0  0  0  0  0  0
   -6.6718   -2.4558    0.0000 C   0  0  0  0  0  0  0  0  0  0  0  0
   -6.2083   -3.8824    0.0000 C   0  0  0  0  0  0  0  0  0  0  0  0
   -4.7411   -4.1942    0.0000 N   0  0  0  0  0  0  0  0  0  0  0  0
   -3.7374   -3.0795    0.0000 C   0  0  0  0  0  0  0  0  0  0  0  0
   -4.2009   -1.6529    0.0000 C   0  0  0  0  0  0  0  0  0  0  0  0
   -7.5583    0.5490    0.0000 N   0  0  0  0  0  0  0  0  0  0  0  0
   -7.5583    2.0490    0.0000 C   0  0  0  0  0  0  0  0  0  0  0  0
   -8.7718    2.9307    0.0000 C   0  0  0  0  0  0  0  0  0  0  0  0
   -8.6150    4.4225    0.0000 C   0  0  0  0  0  0  0  0  0  0  0  0
   -9.8285    5.3042    0.0000 C   0  0  0  0  0  0  0  0  0  0  0  0
  -11.1988    4.6941    0.0000 C   0  0  0  0  0  0  0  0  0  0  0  0
  -12.4124    5.5757    0.0000 S   0  0  0  0  0  3  0  0  0  0  0  0
  -12.2556    7.0675    0.0000 C   0  0  0  0  0  0  0  0  0  0  0  0
  -13.7827    4.9656    0.0000 O   0  0  0  0  0  1  0  0  0  0  0  0
  -11.3556    3.2023    0.0000 C   0  0  0  0  0  0  0  0  0  0  0  0
  -10.1421    2.3206    0.0000 C   0  0  0  0  0  0  0  0  0  0  0  0
   -6.1317    2.5126    0.0000 N   0  0  0  0  0  0  0  0  0  0  0  0
   -5.6682    3.9391    0.0000 C   0  0  0  0  0  0  0  0  0  0  0  0
   -3.0000    2.5981    0.0000 C   0  0  0  0  0  0  0  0  0  0  0  0
   -1.5000    2.5981    0.0000 C   0  0  0  0  0  0  0  0  0  0  0  0
   -0.7500    1.2990    0.0000 C   0  0  0  0  0  0  0  0  0  0  0  0
    0.7500    1.2990    0.0000 C   0  0  0  0  0  0  0  0  0  0  0  0
  1  2  1  0
  2  3  1  0
  3  4  2  0
  4  5  1  0
  5  6  2  0
  6  7  1  0
  7  8  2  0
  8  9  1  0
  9 10  2  0
 10 11  1  0
 11 12  2  0
 12 13  1  0
 13 14  2  0
 14 15  1  0
 15 16  2  0
 10 17  1  0
 17 18  2  0
 18 19  1  0
 19 20  2  0
 20 21  1  0
 21 22  2  0
 22 23  1  0
 23 24  1  0
 23 25  1  0
 22 26  1  0
 26 27  2  0
 18 28  1  0
 28 29  1  0
  8 30  1  0
 30 31  2  0
 31 32  1  0
 32 33  2  0
 33  3  1  0
 32  6  1  0
 28  9  1  0
 16 11  1  0
 27 19  1  0
M  CHG  2  23   1  25  -1
M  END
>  <Compound_ID>  (431) 
CHEMBL399410

>  <Molecule Name>  (431) 
nan

>  <Molecular Weight>  (431) 
453.57

>  <AlogP>  (431) 
5.72

>  <Smiles>  (431) 
COc1ccc2cc(-c3c(-c4ccncc4)nc(-c4ccc([S+](C)[O-])cc4)n3C)ccc2c1

>  <Standard Type>  (431) 
Inhibition

>  <Standard Relation>  (431) 
'='

>  <Standard Units>  (431) 
%

>  <Standard Value>  (431) 
4.07

>  <Assay ChEMBL ID>  (431) 
CHEMBL1962142

>  <Assay Description>  (431) 
GSK_PKIS: MET mean inhibition at 0.1 uM [Nanosyn]

>  <BAO Format ID>  (431) 
BAO_0000357

>  <BAO Label>  (431) 
single protein format

>  <Assay Organism>  (431) 
None

>  <Target ChEMBL ID>  (431) 
CHEMBL3717

>  <Target Name>  (431) 
Hepatocyte growth factor receptor

>  <Target Organism>  (431) 
Homo sapiens

>  <Target Type>  (431) 
SINGLE PROTEIN

>  <Document ChEMBL ID>  (431) 
CHEMBL1961873

>  <Source Description>  (431) 
GSK Published Kinase Inhibitor Set

>  <Document Journal>  (431) 
nan

>  <Document Year>  (431) 
nan

>  <Active>  (431) 
0.0

$$$$

     RDKit          2D

 35 39  0  0  0  0  0  0  0  0999 V2000
    3.9478   -4.3407    0.0000 C   0  0  0  0  0  0  0  0  0  0  0  0
    4.9515   -5.4554    0.0000 C   0  0  0  0  0  0  0  0  0  0  0  0
    6.4187   -5.1436    0.0000 O   0  0  0  0  0  0  0  0  0  0  0  0
    4.4879   -6.8820    0.0000 C   0  0  0  0  0  0  0  0  0  0  0  0
    5.3696   -8.0956    0.0000 N   0  0  0  0  0  0  0  0  0  0  0  0
    4.4879   -9.3091    0.0000 N   0  0  0  0  0  0  0  0  0  0  0  0
    4.9515  -10.7357    0.0000 C   0  0  0  0  0  0  0  0  0  0  0  0
    6.4187  -11.0475    0.0000 C   0  0  0  0  0  0  0  0  0  0  0  0
    6.8822  -12.4741    0.0000 C   0  0  0  0  0  0  0  0  0  0  0  0
    5.8785  -13.5888    0.0000 C   0  0  0  0  0  0  0  0  0  0  0  0
    6.3420  -15.0154    0.0000 C   0  0  0  0  0  0  0  0  0  0  0  0
    4.4113  -13.2770    0.0000 C   0  0  0  0  0  0  0  0  0  0  0  0
    3.9478  -11.8504    0.0000 C   0  0  0  0  0  0  0  0  0  0  0  0
    3.0613   -8.8456    0.0000 C   0  0  0  0  0  0  0  0  0  0  0  0
    3.0613   -7.3456    0.0000 C   0  0  0  0  0  0  0  0  0  0  0  0
    1.8478   -6.4639    0.0000 C   0  0  0  0  0  0  0  0  0  0  0  0
    2.0046   -4.9721    0.0000 O   0  0  0  0  0  0  0  0  0  0  0  0
    0.4775   -7.0740    0.0000 C   0  0  0  0  0  0  0  0  0  0  0  0
    0.1656   -8.5412    0.0000 C   0  0  0  0  0  0  0  0  0  0  0  0
    1.1693   -9.6559    0.0000 C   0  0  0  0  0  0  0  0  0  0  0  0
   -1.3261   -8.6980    0.0000 N   0  0  0  0  0  0  0  0  0  0  0  0
   -1.9363   -7.3277    0.0000 C   0  0  0  0  0  0  0  0  0  0  0  0
   -3.4035   -7.0158    0.0000 C   0  0  0  0  0  0  0  0  0  0  0  0
   -3.8670   -5.5892    0.0000 C   0  0  0  0  0  0  0  0  0  0  0  0
   -5.3342   -5.2774    0.0000 C   0  0  0  0  0  0  0  0  0  0  0  0
   -6.3379   -6.3921    0.0000 C   0  0  0  0  0  0  0  0  0  0  0  0
   -5.8744   -7.8187    0.0000 C   0  0  0  0  0  0  0  0  0  0  0  0
   -4.4072   -8.1305    0.0000 C   0  0  0  0  0  0  0  0  0  0  0  0
   -0.8215   -6.3240    0.0000 C   0  0  0  0  0  0  0  0  0  0  0  0
   -0.9783   -4.8322    0.0000 C   0  0  0  0  0  0  0  0  0  0  0  0
   -2.3486   -4.2221    0.0000 C   0  0  0  0  0  0  0  0  0  0  0  0
   -2.5054   -2.7303    0.0000 C   0  0  0  0  0  0  0  0  0  0  0  0
   -1.2919   -1.8486    0.0000 C   0  0  0  0  0  0  0  0  0  0  0  0
    0.0784   -2.4587    0.0000 C   0  0  0  0  0  0  0  0  0  0  0  0
    0.2352   -3.9505    0.0000 C   0  0  0  0  0  0  0  0  0  0  0  0
  1  2  1  0
  2  3  2  0
  2  4  1  0
  4  5  2  0
  5  6  1  0
  6  7  1  0
  7  8  2  0
  8  9  1  0
  9 10  2  0
 10 11  1  0
 10 12  1  0
 12 13  2  0
  6 14  1  0
 14 15  2  0
 15 16  1  0
 16 17  2  0
 16 18  1  0
 18 19  2  0
 19 20  1  0
 19 21  1  0
 21 22  1  0
 22 23  1  0
 23 24  2  0
 24 25  1  0
 25 26  2  0
 26 27  1  0
 27 28  2  0
 22 29  2  0
 29 30  1  0
 30 31  2  0
 31 32  1  0
 32 33  2  0
 33 34  1  0
 34 35  2  0
 15  4  1  0
 29 18  1  0
 35 30  1  0
 13  7  1  0
 28 23  1  0
M  END
>  <Compound_ID>  (432) 
CHEMBL3740247

>  <Molecule Name>  (432) 
nan

>  <Molecular Weight>  (432) 
459.55

>  <AlogP>  (432) 
6.58

>  <Smiles>  (432) 
CC(=O)c1nn(-c2ccc(C)cc2)cc1C(=O)c1c(C)[nH]c(-c2ccccc2)c1-c1ccccc1

>  <Standard Type>  (432) 
Inhibition

>  <Standard Relation>  (432) 
'='

>  <Standard Units>  (432) 
%

>  <Standard Value>  (432) 
2.0

>  <Assay ChEMBL ID>  (432) 
CHEMBL3744318

>  <Assay Description>  (432) 
Inhibition of MET (unknown origin) at 30 uM by microfluidic assay relative to control

>  <BAO Format ID>  (432) 
BAO_0000357

>  <BAO Label>  (432) 
single protein format

>  <Assay Organism>  (432) 
Homo sapiens

>  <Target ChEMBL ID>  (432) 
CHEMBL3717

>  <Target Name>  (432) 
Hepatocyte growth factor receptor

>  <Target Organism>  (432) 
Homo sapiens

>  <Target Type>  (432) 
SINGLE PROTEIN

>  <Document ChEMBL ID>  (432) 
CHEMBL3739348

>  <Source Description>  (432) 
Scientific Literature

>  <Document Journal>  (432) 
Medchemcomm

>  <Document Year>  (432) 
2015.0

>  <Active>  (432) 
0.0

$$$$

     RDKit          2D

 26 28  0  0  0  0  0  0  0  0999 V2000
   -3.7500   -1.2990    0.0000 C   0  0  0  0  0  0  0  0  0  0  0  0
   -3.0000   -2.5981    0.0000 C   0  0  0  0  0  0  0  0  0  0  0  0
   -1.5000   -2.5981    0.0000 N   0  0  0  0  0  0  0  0  0  0  0  0
   -0.7500   -3.8971    0.0000 C   0  0  0  0  0  0  0  0  0  0  0  0
   -1.5000   -5.1962    0.0000 C   0  0  0  0  0  0  0  0  0  0  0  0
   -0.7500   -6.4952    0.0000 O   0  0  0  0  0  0  0  0  0  0  0  0
   -3.0000   -5.1962    0.0000 O   0  0  0  0  0  0  0  0  0  0  0  0
   -3.7500   -6.4952    0.0000 C   0  0  0  0  0  0  0  0  0  0  0  0
   -5.2500   -6.4952    0.0000 C   0  0  0  0  0  0  0  0  0  0  0  0
   -6.0000   -7.7942    0.0000 C   0  0  0  0  0  0  0  0  0  0  0  0
   -7.5000   -7.7942    0.0000 C   0  0  0  0  0  0  0  0  0  0  0  0
   -8.2500   -9.0933    0.0000 C   0  0  0  0  0  0  0  0  0  0  0  0
   -7.5000  -10.3923    0.0000 C   0  0  0  0  0  0  0  0  0  0  0  0
   -8.2500  -11.6913    0.0000 O   0  0  0  0  0  0  0  0  0  0  0  0
   -6.0000  -10.3923    0.0000 C   0  0  0  0  0  0  0  0  0  0  0  0
   -5.2500   -9.0933    0.0000 C   0  0  0  0  0  0  0  0  0  0  0  0
    0.7500   -3.8971    0.0000 C   0  0  0  0  0  0  0  0  0  0  0  0
    1.5000   -2.5981    0.0000 C   0  0  0  0  0  0  0  0  0  0  0  0
    3.0000   -2.5981    0.0000 O   0  0  0  0  0  0  0  0  0  0  0  0
    0.7500   -1.2990    0.0000 C   0  0  0  0  0  0  0  0  0  0  0  0
    1.5000    0.0000    0.0000 C   0  0  0  0  0  0  0  0  0  0  0  0
    0.7500    1.2990    0.0000 C   0  0  0  0  0  0  0  0  0  0  0  0
   -0.7500    1.2990    0.0000 C   0  0  0  0  0  0  0  0  0  0  0  0
   -1.5000    2.5981    0.0000 C   0  0  0  0  0  0  0  0  0  0  0  0
   -1.5000    0.0000    0.0000 N   0  0  0  0  0  0  0  0  0  0  0  0
   -0.7500   -1.2990    0.0000 C   0  0  0  0  0  0  0  0  0  0  0  0
  1  2  1  0
  2  3  1  0
  3  4  1  0
  4  5  1  0
  5  6  2  0
  5  7  1  0
  7  8  1  0
  8  9  1  0
  9 10  1  0
 10 11  2  0
 11 12  1  0
 12 13  2  0
 13 14  1  0
 13 15  1  0
 15 16  2  0
  4 17  2  0
 17 18  1  0
 18 19  2  0
 18 20  1  0
 20 21  2  0
 21 22  1  0
 22 23  2  0
 23 24  1  0
 23 25  1  0
 25 26  2  0
 26  3  1  0
 16 10  1  0
 26 20  1  0
M  END
>  <Compound_ID>  (433) 
CHEMBL2348319

>  <Molecule Name>  (433) 
TYROSOL NALIDIXATE

>  <Molecular Weight>  (433) 
352.39

>  <AlogP>  (433) 
2.83

>  <Smiles>  (433) 
CCn1c(C(=O)OCCc2ccc(O)cc2)cc(=O)c2ccc(C)nc21

>  <Standard Type>  (433) 
Inhibition

>  <Standard Relation>  (433) 
'='

>  <Standard Units>  (433) 
%

>  <Standard Value>  (433) 
0.0

>  <Assay ChEMBL ID>  (433) 
CHEMBL2350425

>  <Assay Description>  (433) 
Inhibition of c-MET phosphorylation (unknown origin) at 25 uM after 1 hr by Z'-LYTE kinase assay

>  <BAO Format ID>  (433) 
BAO_0000357

>  <BAO Label>  (433) 
single protein format

>  <Assay Organism>  (433) 
Homo sapiens

>  <Target ChEMBL ID>  (433) 
CHEMBL3717

>  <Target Name>  (433) 
Hepatocyte growth factor receptor

>  <Target Organism>  (433) 
Homo sapiens

>  <Target Type>  (433) 
SINGLE PROTEIN

>  <Document ChEMBL ID>  (433) 
CHEMBL2346504

>  <Source Description>  (433) 
Scientific Literature

>  <Document Journal>  (433) 
Bioorg Med Chem

>  <Document Year>  (433) 
2013.0

>  <Active>  (433) 
0.0

$$$$

     RDKit          2D

 24 27  0  0  0  0  0  0  0  0999 V2000
  -10.4431    3.8367    0.0000 Cl  0  0  0  0  0  0  0  0  0  0  0  0
   -9.3284    2.8330    0.0000 C   0  0  0  0  0  0  0  0  0  0  0  0
   -7.9018    3.2966    0.0000 C   0  0  0  0  0  0  0  0  0  0  0  0
   -6.7871    2.2929    0.0000 C   0  0  0  0  0  0  0  0  0  0  0  0
   -7.0990    0.8256    0.0000 C   0  0  0  0  0  0  0  0  0  0  0  0
   -5.9843   -0.1781    0.0000 C   0  0  0  0  0  0  0  0  0  0  0  0
   -6.2961   -1.6453    0.0000 N   0  0  0  0  0  0  0  0  0  0  0  0
   -5.1814   -2.6490    0.0000 C   0  0  0  0  0  0  0  0  0  0  0  0
   -5.4933   -4.1162    0.0000 N   0  0  0  0  0  0  0  0  0  0  0  0
   -4.3786   -5.1199    0.0000 C   0  0  0  0  0  0  0  0  0  0  0  0
   -2.9520   -4.6564    0.0000 C   0  0  0  0  0  0  0  0  0  0  0  0
   -2.6401   -3.1891    0.0000 C   0  0  0  0  0  0  0  0  0  0  0  0
   -1.2135   -2.7256    0.0000 C   0  0  0  0  0  0  0  0  0  0  0  0
   -0.0000   -3.6073    0.0000 C   0  0  0  0  0  0  0  0  0  0  0  0
    1.2135   -2.7256    0.0000 N   0  0  0  0  0  0  0  0  0  0  0  0
    0.7500   -1.2990    0.0000 N   0  0  0  0  0  0  0  0  0  0  0  0
    1.5000    0.0000    0.0000 N   0  0  0  0  0  0  0  0  0  0  0  0
    0.7500    1.2990    0.0000 C   0  0  0  0  0  0  0  0  0  0  0  0
   -0.7500    1.2990    0.0000 C   0  0  0  0  0  0  0  0  0  0  0  0
   -1.5000    0.0000    0.0000 C   0  0  0  0  0  0  0  0  0  0  0  0
   -0.7500   -1.2990    0.0000 C   0  0  0  0  0  0  0  0  0  0  0  0
   -3.7548   -2.1855    0.0000 N   0  0  0  0  0  0  0  0  0  0  0  0
   -8.5256    0.3621    0.0000 C   0  0  0  0  0  0  0  0  0  0  0  0
   -9.6403    1.3658    0.0000 C   0  0  0  0  0  0  0  0  0  0  0  0
  1  2  1  0
  2  3  2  0
  3  4  1  0
  4  5  2  0
  5  6  1  0
  6  7  1  0
  7  8  1  0
  8  9  2  0
  9 10  1  0
 10 11  2  0
 11 12  1  0
 12 13  1  0
 13 14  1  0
 14 15  2  0
 15 16  1  0
 16 17  1  0
 17 18  2  0
 18 19  1  0
 19 20  2  0
 20 21  1  0
 12 22  2  0
  5 23  1  0
 23 24  2  0
 24  2  1  0
 22  8  1  0
 21 13  2  0
 21 16  1  0
M  END
>  <Compound_ID>  (434) 
CHEMBL513330

>  <Molecule Name>  (434) 
GW781673X

>  <Molecular Weight>  (434) 
336.79

>  <AlogP>  (434) 
3.45

>  <Smiles>  (434) 
Clc1ccc(CNc2nccc(-c3cnn4ncccc34)n2)cc1

>  <Standard Type>  (434) 
Inhibition

>  <Standard Relation>  (434) 
'='

>  <Standard Units>  (434) 
%

>  <Standard Value>  (434) 
2.02

>  <Assay ChEMBL ID>  (434) 
CHEMBL1962142

>  <Assay Description>  (434) 
GSK_PKIS: MET mean inhibition at 0.1 uM [Nanosyn]

>  <BAO Format ID>  (434) 
BAO_0000357

>  <BAO Label>  (434) 
single protein format

>  <Assay Organism>  (434) 
None

>  <Target ChEMBL ID>  (434) 
CHEMBL3717

>  <Target Name>  (434) 
Hepatocyte growth factor receptor

>  <Target Organism>  (434) 
Homo sapiens

>  <Target Type>  (434) 
SINGLE PROTEIN

>  <Document ChEMBL ID>  (434) 
CHEMBL1961873

>  <Source Description>  (434) 
GSK Published Kinase Inhibitor Set

>  <Document Journal>  (434) 
nan

>  <Document Year>  (434) 
nan

>  <Active>  (434) 
0.0

$$$$

     RDKit          2D

 20 23  0  0  0  0  0  0  0  0999 V2000
   -0.0000   -5.1073    0.0000 O   0  0  0  0  0  0  0  0  0  0  0  0
   -0.0000   -3.6073    0.0000 C   0  0  0  0  0  0  0  0  0  0  0  0
    1.2135   -2.7256    0.0000 N   0  0  0  0  0  0  0  0  0  0  0  0
    0.7500   -1.2990    0.0000 C   0  0  0  0  0  0  0  0  0  0  0  0
    1.5000    0.0000    0.0000 C   0  0  0  0  0  0  0  0  0  0  0  0
    0.7500    1.2990    0.0000 C   0  0  0  0  0  0  0  0  0  0  0  0
   -0.7500    1.2990    0.0000 C   0  0  0  0  0  0  0  0  0  0  0  0
   -1.5000    0.0000    0.0000 C   0  0  0  0  0  0  0  0  0  0  0  0
   -0.7500   -1.2990    0.0000 C   0  0  0  0  0  0  0  0  0  0  0  0
   -1.2135   -2.7256    0.0000 C   0  0  0  0  0  0  0  0  0  0  0  0
   -2.6401   -3.1891    0.0000 C   0  0  0  0  0  0  0  0  0  0  0  0
   -3.8536   -2.3075    0.0000 C   0  0  0  0  0  0  0  0  0  0  0  0
   -5.0672   -3.1891    0.0000 C   0  0  0  0  0  0  0  0  0  0  0  0
   -4.6036   -4.6157    0.0000 C   0  0  0  0  0  0  0  0  0  0  0  0
   -5.3536   -5.9148    0.0000 C   0  0  0  0  0  0  0  0  0  0  0  0
   -4.6036   -7.2138    0.0000 C   0  0  0  0  0  0  0  0  0  0  0  0
   -5.3536   -8.5128    0.0000 O   0  0  0  0  0  0  0  0  0  0  0  0
   -3.1036   -7.2138    0.0000 C   0  0  0  0  0  0  0  0  0  0  0  0
   -2.3536   -5.9148    0.0000 C   0  0  0  0  0  0  0  0  0  0  0  0
   -3.1036   -4.6157    0.0000 C   0  0  0  0  0  0  0  0  0  0  0  0
  1  2  2  0
  2  3  1  0
  3  4  1  0
  4  5  2  0
  5  6  1  0
  6  7  2  0
  7  8  1  0
  8  9  2  0
  9 10  1  0
 10 11  2  0
 11 12  1  0
 12 13  1  0
 13 14  1  0
 14 15  2  0
 15 16  1  0
 16 17  1  0
 16 18  2  0
 18 19  1  0
 19 20  2  0
 10  2  1  0
 20 11  1  0
  9  4  1  0
 20 14  1  0
M  END
>  <Compound_ID>  (435) 
CHEMBL175321

>  <Molecule Name>  (435) 
nan

>  <Molecular Weight>  (435) 
263.30

>  <AlogP>  (435) 
3.20

>  <Smiles>  (435) 
O=C1Nc2ccccc2/C1=C1\CCc2cc(O)ccc21

>  <Standard Type>  (435) 
Inhibition

>  <Standard Relation>  (435) 
'='

>  <Standard Units>  (435) 
%

>  <Standard Value>  (435) 
6.45

>  <Assay ChEMBL ID>  (435) 
CHEMBL1962142

>  <Assay Description>  (435) 
GSK_PKIS: MET mean inhibition at 0.1 uM [Nanosyn]

>  <BAO Format ID>  (435) 
BAO_0000357

>  <BAO Label>  (435) 
single protein format

>  <Assay Organism>  (435) 
None

>  <Target ChEMBL ID>  (435) 
CHEMBL3717

>  <Target Name>  (435) 
Hepatocyte growth factor receptor

>  <Target Organism>  (435) 
Homo sapiens

>  <Target Type>  (435) 
SINGLE PROTEIN

>  <Document ChEMBL ID>  (435) 
CHEMBL1961873

>  <Source Description>  (435) 
GSK Published Kinase Inhibitor Set

>  <Document Journal>  (435) 
nan

>  <Document Year>  (435) 
nan

>  <Active>  (435) 
0.0

$$$$

     RDKit          2D

 24 27  0  0  0  0  0  0  0  0999 V2000
   -9.0165    4.3002    0.0000 N   0  0  0  0  0  0  0  0  0  0  0  0
   -7.9018    3.2966    0.0000 C   0  0  0  0  0  0  0  0  0  0  0  0
   -6.7871    2.2929    0.0000 C   0  0  0  0  0  0  0  0  0  0  0  0
   -5.3605    2.7564    0.0000 C   0  0  0  0  0  0  0  0  0  0  0  0
   -4.2458    1.7527    0.0000 C   0  0  0  0  0  0  0  0  0  0  0  0
   -4.5577    0.2855    0.0000 C   0  0  0  0  0  0  0  0  0  0  0  0
   -5.9843   -0.1781    0.0000 C   0  0  0  0  0  0  0  0  0  0  0  0
   -6.2961   -1.6453    0.0000 N   0  0  0  0  0  0  0  0  0  0  0  0
   -5.1814   -2.6490    0.0000 C   0  0  0  0  0  0  0  0  0  0  0  0
   -5.4933   -4.1162    0.0000 N   0  0  0  0  0  0  0  0  0  0  0  0
   -4.3786   -5.1199    0.0000 C   0  0  0  0  0  0  0  0  0  0  0  0
   -2.9520   -4.6564    0.0000 C   0  0  0  0  0  0  0  0  0  0  0  0
   -2.6401   -3.1891    0.0000 C   0  0  0  0  0  0  0  0  0  0  0  0
   -1.2135   -2.7256    0.0000 C   0  0  0  0  0  0  0  0  0  0  0  0
   -0.0000   -3.6073    0.0000 C   0  0  0  0  0  0  0  0  0  0  0  0
    1.2135   -2.7256    0.0000 N   0  0  0  0  0  0  0  0  0  0  0  0
    0.7500   -1.2990    0.0000 N   0  0  0  0  0  0  0  0  0  0  0  0
    1.5000    0.0000    0.0000 N   0  0  0  0  0  0  0  0  0  0  0  0
    0.7500    1.2990    0.0000 C   0  0  0  0  0  0  0  0  0  0  0  0
   -0.7500    1.2990    0.0000 C   0  0  0  0  0  0  0  0  0  0  0  0
   -1.5000    0.0000    0.0000 C   0  0  0  0  0  0  0  0  0  0  0  0
   -0.7500   -1.2990    0.0000 C   0  0  0  0  0  0  0  0  0  0  0  0
   -3.7548   -2.1855    0.0000 N   0  0  0  0  0  0  0  0  0  0  0  0
   -7.0990    0.8256    0.0000 C   0  0  0  0  0  0  0  0  0  0  0  0
  1  2  3  0
  2  3  1  0
  3  4  2  0
  4  5  1  0
  5  6  2  0
  6  7  1  0
  7  8  1  0
  8  9  1  0
  9 10  2  0
 10 11  1  0
 11 12  2  0
 12 13  1  0
 13 14  1  0
 14 15  1  0
 15 16  2  0
 16 17  1  0
 17 18  1  0
 18 19  2  0
 19 20  1  0
 20 21  2  0
 21 22  1  0
 13 23  2  0
  7 24  2  0
 24  3  1  0
 23  9  1  0
 22 14  2  0
 22 17  1  0
M  END
>  <Compound_ID>  (436) 
CHEMBL495696

>  <Molecule Name>  (436) 
GW778894X

>  <Molecular Weight>  (436) 
313.32

>  <AlogP>  (436) 
2.80

>  <Smiles>  (436) 
N#Cc1cccc(Nc2nccc(-c3cnn4ncccc34)n2)c1

>  <Standard Type>  (436) 
Inhibition

>  <Standard Relation>  (436) 
'='

>  <Standard Units>  (436) 
%

>  <Standard Value>  (436) 
17.31

>  <Assay ChEMBL ID>  (436) 
CHEMBL1962143

>  <Assay Description>  (436) 
GSK_PKIS: MET mean inhibition at 1 uM [Nanosyn]

>  <BAO Format ID>  (436) 
BAO_0000357

>  <BAO Label>  (436) 
single protein format

>  <Assay Organism>  (436) 
None

>  <Target ChEMBL ID>  (436) 
CHEMBL3717

>  <Target Name>  (436) 
Hepatocyte growth factor receptor

>  <Target Organism>  (436) 
Homo sapiens

>  <Target Type>  (436) 
SINGLE PROTEIN

>  <Document ChEMBL ID>  (436) 
CHEMBL1961873

>  <Source Description>  (436) 
GSK Published Kinase Inhibitor Set

>  <Document Journal>  (436) 
nan

>  <Document Year>  (436) 
nan

>  <Active>  (436) 
0.0

$$$$

     RDKit          2D

 35 39  0  0  0  0  0  0  0  0999 V2000
   -8.2500   -9.0933    0.0000 C   0  0  0  0  0  0  0  0  0  0  0  0
   -6.7500   -9.0933    0.0000 O   0  0  0  0  0  0  0  0  0  0  0  0
   -6.0000   -7.7942    0.0000 C   0  0  0  0  0  0  0  0  0  0  0  0
   -6.7500   -6.4952    0.0000 C   0  0  0  0  0  0  0  0  0  0  0  0
   -6.0000   -5.1962    0.0000 C   0  0  0  0  0  0  0  0  0  0  0  0
   -4.5000   -5.1962    0.0000 C   0  0  0  0  0  0  0  0  0  0  0  0
   -3.7500   -3.8971    0.0000 S   0  0  0  0  0  0  0  0  0  0  0  0
   -2.4510   -4.6471    0.0000 O   0  0  0  0  0  0  0  0  0  0  0  0
   -5.0490   -3.1471    0.0000 O   0  0  0  0  0  0  0  0  0  0  0  0
   -3.0000   -2.5981    0.0000 N   0  0  0  0  0  0  0  0  0  0  0  0
   -1.5000   -2.5981    0.0000 C   0  0  0  0  0  0  0  0  0  0  0  0
   -0.7500   -3.8971    0.0000 C   0  0  0  0  0  0  0  0  0  0  0  0
    0.7500   -3.8971    0.0000 C   0  0  0  0  0  0  0  0  0  0  0  0
    1.5000   -5.1962    0.0000 S   0  0  0  0  0  0  0  0  0  0  0  0
    0.7500   -6.4952    0.0000 C   0  0  0  0  0  0  0  0  0  0  0  0
   -0.7500   -6.4952    0.0000 N   0  0  0  0  0  0  0  0  0  0  0  0
   -1.5000   -7.7942    0.0000 C   0  0  0  0  0  0  0  0  0  0  0  0
   -0.7500   -9.0933    0.0000 N   0  0  0  0  0  0  0  0  0  0  0  0
    0.7500   -9.0933    0.0000 C   0  0  0  0  0  0  0  0  0  0  0  0
    1.7537  -10.2080    0.0000 N   0  0  0  0  0  0  0  0  0  0  0  0
    3.1240   -9.5979    0.0000 C   0  0  0  0  0  0  0  0  0  0  0  0
    2.9672   -8.1061    0.0000 N   0  0  0  0  0  0  0  0  0  0  0  0
    1.5000   -7.7942    0.0000 C   0  0  0  0  0  0  0  0  0  0  0  0
    1.5000   -2.5981    0.0000 C   0  0  0  0  0  0  0  0  0  0  0  0
    3.0000   -2.5981    0.0000 O   0  0  0  0  0  0  0  0  0  0  0  0
    0.7500   -1.2990    0.0000 C   0  0  0  0  0  0  0  0  0  0  0  0
    1.5000    0.0000    0.0000 C   0  0  0  0  0  0  0  0  0  0  0  0
    0.7500    1.2990    0.0000 C   0  0  0  0  0  0  0  0  0  0  0  0
   -0.7500    1.2990    0.0000 C   0  0  0  0  0  0  0  0  0  0  0  0
   -1.5000    0.0000    0.0000 C   0  0  0  0  0  0  0  0  0  0  0  0
   -0.7500   -1.2990    0.0000 C   0  0  0  0  0  0  0  0  0  0  0  0
   -3.7500   -6.4952    0.0000 C   0  0  0  0  0  0  0  0  0  0  0  0
   -4.5000   -7.7942    0.0000 C   0  0  0  0  0  0  0  0  0  0  0  0
   -3.7500   -9.0933    0.0000 O   0  0  0  0  0  0  0  0  0  0  0  0
   -4.5000  -10.3923    0.0000 C   0  0  0  0  0  0  0  0  0  0  0  0
  1  2  1  0
  2  3  1  0
  3  4  2  0
  4  5  1  0
  5  6  2  0
  6  7  1  0
  7  8  2  0
  7  9  2  0
  7 10  1  0
 10 11  1  0
 11 12  2  0
 12 13  1  0
 13 14  1  0
 14 15  1  0
 15 16  2  0
 16 17  1  0
 17 18  2  0
 18 19  1  0
 19 20  1  0
 20 21  2  0
 21 22  1  0
 22 23  1  0
 13 24  2  0
 24 25  1  0
 24 26  1  0
 26 27  2  0
 27 28  1  0
 28 29  2  0
 29 30  1  0
 30 31  2  0
  6 32  1  0
 32 33  2  0
 33 34  1  0
 34 35  1  0
 33  3  1  0
 31 11  1  0
 23 15  1  0
 31 26  1  0
 23 19  2  0
M  END
>  <Compound_ID>  (437) 
CHEMBL3113284

>  <Molecule Name>  (437) 
nan

>  <Molecular Weight>  (437) 
509.57

>  <AlogP>  (437) 
4.18

>  <Smiles>  (437) 
COc1ccc(S(=O)(=O)Nc2cc(Sc3ncnc4nc[nH]c34)c(O)c3ccccc23)cc1OC

>  <Standard Type>  (437) 
Inhibition

>  <Standard Relation>  (437) 
'='

>  <Standard Units>  (437) 
%

>  <Standard Value>  (437) 
13.7

>  <Assay ChEMBL ID>  (437) 
CHEMBL3117705

>  <Assay Description>  (437) 
Inhibition of c-MET (unknown origin) at 10 uM after 30 mins relative to control

>  <BAO Format ID>  (437) 
BAO_0000357

>  <BAO Label>  (437) 
single protein format

>  <Assay Organism>  (437) 
Homo sapiens

>  <Target ChEMBL ID>  (437) 
CHEMBL3717

>  <Target Name>  (437) 
Hepatocyte growth factor receptor

>  <Target Organism>  (437) 
Homo sapiens

>  <Target Type>  (437) 
SINGLE PROTEIN

>  <Document ChEMBL ID>  (437) 
CHEMBL3112530

>  <Source Description>  (437) 
Scientific Literature

>  <Document Journal>  (437) 
Bioorg Med Chem

>  <Document Year>  (437) 
2014.0

>  <Active>  (437) 
0.0

$$$$

     RDKit          2D

 24 26  0  0  0  0  0  0  0  0999 V2000
    3.7500   -1.2990    0.0000 C   0  0  0  0  0  0  0  0  0  0  0  0
    3.0000    0.0000    0.0000 O   0  0  0  0  0  0  0  0  0  0  0  0
    1.5000    0.0000    0.0000 C   0  0  0  0  0  0  0  0  0  0  0  0
    0.7500   -1.2990    0.0000 C   0  0  0  0  0  0  0  0  0  0  0  0
   -0.7500   -1.2990    0.0000 C   0  0  0  0  0  0  0  0  0  0  0  0
   -1.5000   -2.5981    0.0000 N   0  0  0  0  0  0  0  0  0  0  0  0
   -3.0000   -2.5981    0.0000 C   0  0  0  0  0  0  0  0  0  0  0  0
   -3.8817   -3.8116    0.0000 N   0  0  0  0  0  0  0  0  0  0  0  0
   -5.3083   -3.3481    0.0000 C   0  0  0  0  0  0  0  0  0  0  0  0
   -5.3083   -1.8481    0.0000 C   0  0  0  0  0  0  0  0  0  0  0  0
   -6.5218   -0.9664    0.0000 C   0  0  0  0  0  0  0  0  0  0  0  0
   -6.3650    0.5254    0.0000 C   0  0  0  0  0  0  0  0  0  0  0  0
   -7.5785    1.4071    0.0000 C   0  0  0  0  0  0  0  0  0  0  0  0
   -8.9488    0.7970    0.0000 C   0  0  0  0  0  0  0  0  0  0  0  0
   -9.1056   -0.6948    0.0000 C   0  0  0  0  0  0  0  0  0  0  0  0
   -7.8921   -1.5765    0.0000 C   0  0  0  0  0  0  0  0  0  0  0  0
   -3.8817   -1.3846    0.0000 O   0  0  0  0  0  0  0  0  0  0  0  0
   -1.5000    0.0000    0.0000 C   0  0  0  0  0  0  0  0  0  0  0  0
   -0.7500    1.2990    0.0000 C   0  0  0  0  0  0  0  0  0  0  0  0
   -1.5000    2.5981    0.0000 O   0  0  0  0  0  0  0  0  0  0  0  0
   -0.7500    3.8971    0.0000 C   0  0  0  0  0  0  0  0  0  0  0  0
    0.7500    1.2990    0.0000 C   0  0  0  0  0  0  0  0  0  0  0  0
    1.5000    2.5981    0.0000 O   0  0  0  0  0  0  0  0  0  0  0  0
    3.0000    2.5981    0.0000 C   0  0  0  0  0  0  0  0  0  0  0  0
  1  2  1  0
  2  3  1  0
  3  4  2  0
  4  5  1  0
  5  6  1  0
  6  7  1  0
  7  8  2  0
  8  9  1  0
  9 10  2  0
 10 11  1  0
 11 12  2  0
 12 13  1  0
 13 14  2  0
 14 15  1  0
 15 16  2  0
 10 17  1  0
  5 18  2  0
 18 19  1  0
 19 20  1  0
 20 21  1  0
 19 22  2  0
 22 23  1  0
 23 24  1  0
 22  3  1  0
 17  7  1  0
 16 11  1  0
M  END
>  <Compound_ID>  (438) 
CHEMBL443563

>  <Molecule Name>  (438) 
GW627512B

>  <Molecular Weight>  (438) 
326.35

>  <AlogP>  (438) 
4.11

>  <Smiles>  (438) 
COc1cc(Nc2ncc(-c3ccccc3)o2)cc(OC)c1OC

>  <Standard Type>  (438) 
Inhibition

>  <Standard Relation>  (438) 
'='

>  <Standard Units>  (438) 
%

>  <Standard Value>  (438) 
2.13

>  <Assay ChEMBL ID>  (438) 
CHEMBL1962143

>  <Assay Description>  (438) 
GSK_PKIS: MET mean inhibition at 1 uM [Nanosyn]

>  <BAO Format ID>  (438) 
BAO_0000357

>  <BAO Label>  (438) 
single protein format

>  <Assay Organism>  (438) 
None

>  <Target ChEMBL ID>  (438) 
CHEMBL3717

>  <Target Name>  (438) 
Hepatocyte growth factor receptor

>  <Target Organism>  (438) 
Homo sapiens

>  <Target Type>  (438) 
SINGLE PROTEIN

>  <Document ChEMBL ID>  (438) 
CHEMBL1961873

>  <Source Description>  (438) 
GSK Published Kinase Inhibitor Set

>  <Document Journal>  (438) 
nan

>  <Document Year>  (438) 
nan

>  <Active>  (438) 
0.0

$$$$

     RDKit          2D

 27 29  0  0  0  0  0  0  0  0999 V2000
    1.5000   -5.1962    0.0000 C   0  0  0  0  0  0  0  0  0  0  0  0
    0.7500   -3.8971    0.0000 N   0  0  0  0  0  0  0  0  0  0  0  0
    1.5000   -2.5981    0.0000 C   0  0  0  0  0  0  0  0  0  0  0  0
    3.0000   -2.5981    0.0000 C   0  0  0  0  0  0  0  0  0  0  0  0
    3.7500   -1.2990    0.0000 C   0  0  0  0  0  0  0  0  0  0  0  0
    3.0000   -0.0000    0.0000 F   0  0  0  0  0  0  0  0  0  0  0  0
    5.2500   -1.2990    0.0000 C   0  0  0  0  0  0  0  0  0  0  0  0
    6.0000   -2.5981    0.0000 C   0  0  0  0  0  0  0  0  0  0  0  0
    5.2500   -3.8971    0.0000 C   0  0  0  0  0  0  0  0  0  0  0  0
    6.0000   -5.1962    0.0000 F   0  0  0  0  0  0  0  0  0  0  0  0
    3.7500   -3.8971    0.0000 C   0  0  0  0  0  0  0  0  0  0  0  0
    3.0000   -5.1962    0.0000 Cl  0  0  0  0  0  0  0  0  0  0  0  0
   -0.7500   -3.8971    0.0000 C   0  0  0  0  0  0  0  0  0  0  0  0
   -1.5000   -2.5981    0.0000 O   0  0  0  0  0  0  0  0  0  0  0  0
   -1.5000   -5.1962    0.0000 C   0  0  0  0  0  0  0  0  0  0  0  0
   -3.0000   -5.1962    0.0000 C   0  0  0  0  0  0  0  0  0  0  0  0
   -3.7500   -6.4952    0.0000 C   0  0  0  0  0  0  0  0  0  0  0  0
   -5.2500   -6.4952    0.0000 C   0  0  0  0  0  0  0  0  0  0  0  0
   -6.1317   -7.7087    0.0000 C   0  0  0  0  0  0  0  0  0  0  0  0
   -7.5583   -7.2452    0.0000 N   0  0  0  0  0  0  0  0  0  0  0  0
   -7.5583   -5.7452    0.0000 N   0  0  0  0  0  0  0  0  0  0  0  0
   -8.7718   -4.8635    0.0000 C   0  0  0  0  0  0  0  0  0  0  0  0
   -6.1317   -5.2817    0.0000 C   0  0  0  0  0  0  0  0  0  0  0  0
   -3.0000   -7.7942    0.0000 C   0  0  0  0  0  0  0  0  0  0  0  0
   -1.5000   -7.7942    0.0000 N   0  0  0  0  0  0  0  0  0  0  0  0
   -0.7500   -6.4952    0.0000 C   0  0  0  0  0  0  0  0  0  0  0  0
    0.7500   -6.4952    0.0000 N   0  0  0  0  0  0  0  0  0  0  0  0
  1  2  1  0
  2  3  1  0
  3  4  1  0
  4  5  2  0
  5  6  1  0
  5  7  1  0
  7  8  2  0
  8  9  1  0
  9 10  1  0
  9 11  2  0
 11 12  1  0
  2 13  1  0
 13 14  2  0
 13 15  1  0
 15 16  2  0
 16 17  1  0
 17 18  1  0
 18 19  1  0
 19 20  2  0
 20 21  1  0
 21 22  1  0
 21 23  1  0
 17 24  2  0
 24 25  1  0
 25 26  2  0
 26 27  1  0
 11  4  1  0
 26 15  1  0
 23 18  2  0
M  END
>  <Compound_ID>  (439) 
CHEMBL2071446

>  <Molecule Name>  (439) 
nan

>  <Molecular Weight>  (439) 
391.81

>  <AlogP>  (439) 
3.27

>  <Smiles>  (439) 
CN(Cc1c(F)ccc(F)c1Cl)C(=O)c1cc(-c2cnn(C)c2)cnc1N

>  <Standard Type>  (439) 
Inhibition

>  <Standard Relation>  (439) 
'='

>  <Standard Units>  (439) 
%

>  <Standard Value>  (439) 
18.1

>  <Assay ChEMBL ID>  (439) 
CHEMBL2072591

>  <Assay Description>  (439) 
Inhibition of c-Met at 1 uM incubated for 60 mins by spectrophotometry

>  <BAO Format ID>  (439) 
BAO_0000357

>  <BAO Label>  (439) 
single protein format

>  <Assay Organism>  (439) 
Homo sapiens

>  <Target ChEMBL ID>  (439) 
CHEMBL3717

>  <Target Name>  (439) 
Hepatocyte growth factor receptor

>  <Target Organism>  (439) 
Homo sapiens

>  <Target Type>  (439) 
SINGLE PROTEIN

>  <Document ChEMBL ID>  (439) 
CHEMBL2069216

>  <Source Description>  (439) 
Scientific Literature

>  <Document Journal>  (439) 
Bioorg Med Chem

>  <Document Year>  (439) 
2012.0

>  <Active>  (439) 
0.0

$$$$

     RDKit          2D

 27 30  0  0  0  0  0  0  0  0999 V2000
   -8.6491   -1.6339    0.0000 N   0  0  0  0  0  0  0  0  0  0  0  0
   -7.5000   -2.5981    0.0000 C   0  0  0  0  0  0  0  0  0  0  0  0
   -8.6491   -3.5623    0.0000 C   0  0  0  0  0  0  0  0  0  0  0  0
  -10.0586   -3.0492    0.0000 C   0  0  0  0  0  0  0  0  0  0  0  0
  -10.3191   -1.5720    0.0000 C   0  0  0  0  0  0  0  0  0  0  0  0
  -11.7286   -1.0590    0.0000 C   0  0  0  0  0  0  0  0  0  0  0  0
  -12.8777   -2.0232    0.0000 C   0  0  0  0  0  0  0  0  0  0  0  0
  -12.6172   -3.5004    0.0000 C   0  0  0  0  0  0  0  0  0  0  0  0
  -11.2077   -4.0134    0.0000 C   0  0  0  0  0  0  0  0  0  0  0  0
   -6.7500   -3.8971    0.0000 C   0  0  0  0  0  0  0  0  0  0  0  0
   -5.2500   -3.8971    0.0000 C   0  0  0  0  0  0  0  0  0  0  0  0
   -4.5000   -2.5981    0.0000 N   0  0  0  0  0  0  0  0  0  0  0  0
   -3.0000   -2.5981    0.0000 S   0  0  0  0  0  0  0  0  0  0  0  0
   -3.0000   -4.0981    0.0000 O   0  0  0  0  0  0  0  0  0  0  0  0
   -3.0000   -1.0981    0.0000 O   0  0  0  0  0  0  0  0  0  0  0  0
   -1.5000   -2.5981    0.0000 C   0  0  0  0  0  0  0  0  0  0  0  0
   -0.7500   -3.8971    0.0000 C   0  0  0  0  0  0  0  0  0  0  0  0
    0.7500   -3.8971    0.0000 C   0  0  0  0  0  0  0  0  0  0  0  0
    1.5000   -2.5981    0.0000 C   0  0  0  0  0  0  0  0  0  0  0  0
    0.7500   -1.2990    0.0000 C   0  0  0  0  0  0  0  0  0  0  0  0
    1.5000    0.0000    0.0000 C   0  0  0  0  0  0  0  0  0  0  0  0
    0.7500    1.2990    0.0000 N   0  0  0  0  0  0  0  0  0  0  0  0
   -0.7500    1.2990    0.0000 C   0  0  0  0  0  0  0  0  0  0  0  0
   -1.5000    0.0000    0.0000 C   0  0  0  0  0  0  0  0  0  0  0  0
   -0.7500   -1.2990    0.0000 C   0  0  0  0  0  0  0  0  0  0  0  0
   -5.2500   -1.2990    0.0000 C   0  0  0  0  0  0  0  0  0  0  0  0
   -6.7500   -1.2990    0.0000 C   0  0  0  0  0  0  0  0  0  0  0  0
  1  2  1  0
  2  3  1  0
  3  4  1  0
  4  5  2  0
  5  6  1  0
  6  7  2  0
  7  8  1  0
  8  9  2  0
  2 10  1  0
 10 11  1  0
 11 12  1  0
 12 13  1  0
 13 14  2  0
 13 15  2  0
 13 16  1  0
 16 17  2  0
 17 18  1  0
 18 19  2  0
 19 20  1  0
 20 21  2  0
 21 22  1  0
 22 23  2  0
 23 24  1  0
 24 25  2  0
 12 26  1  0
 26 27  1  0
 27  2  1  0
  9  4  1  0
 25 16  1  0
 25 20  1  0
M  END
>  <Compound_ID>  (440) 
CHEMBL2420916

>  <Molecule Name>  (440) 
nan

>  <Molecular Weight>  (440) 
381.50

>  <AlogP>  (440) 
2.96

>  <Smiles>  (440) 
NC1(Cc2ccccc2)CCN(S(=O)(=O)c2cccc3cnccc23)CC1

>  <Standard Type>  (440) 
Inhibition

>  <Standard Relation>  (440) 
'='

>  <Standard Units>  (440) 
%

>  <Standard Value>  (440) 
7.0

>  <Assay ChEMBL ID>  (440) 
CHEMBL2424318

>  <Assay Description>  (440) 
Inhibition of MET (unknown origin) at 30 uM by microfluidic mobility shift assay relative to control

>  <BAO Format ID>  (440) 
BAO_0000357

>  <BAO Label>  (440) 
single protein format

>  <Assay Organism>  (440) 
Homo sapiens

>  <Target ChEMBL ID>  (440) 
CHEMBL3717

>  <Target Name>  (440) 
Hepatocyte growth factor receptor

>  <Target Organism>  (440) 
Homo sapiens

>  <Target Type>  (440) 
SINGLE PROTEIN

>  <Document ChEMBL ID>  (440) 
CHEMBL2417369

>  <Source Description>  (440) 
Scientific Literature

>  <Document Journal>  (440) 
Bioorg Med Chem

>  <Document Year>  (440) 
2013.0

>  <Active>  (440) 
0.0

$$$$

     RDKit          2D

 33 37  0  0  0  0  0  0  0  0999 V2000
    3.0000    0.0000    0.0000 F   0  0  0  0  0  0  0  0  0  0  0  0
    1.5000    0.0000    0.0000 C   0  0  0  0  0  0  0  0  0  0  0  0
    0.7500   -1.2990    0.0000 C   0  0  0  0  0  0  0  0  0  0  0  0
   -0.7500   -1.2990    0.0000 C   0  0  0  0  0  0  0  0  0  0  0  0
   -1.5000    0.0000    0.0000 C   0  0  0  0  0  0  0  0  0  0  0  0
   -3.0000    0.0000    0.0000 C   0  0  0  0  0  0  0  0  0  0  0  0
   -3.8817   -1.2135    0.0000 N   0  0  0  0  0  0  0  0  0  0  0  0
   -5.3083   -0.7500    0.0000 C   0  0  0  0  0  0  0  0  0  0  0  0
   -5.3083    0.7500    0.0000 N   0  0  0  0  0  0  0  0  0  0  0  0
   -6.5218    1.6317    0.0000 C   0  0  0  0  0  0  0  0  0  0  0  0
   -6.3650    3.1235    0.0000 C   0  0  0  0  0  0  0  0  0  0  0  0
   -7.5785    4.0051    0.0000 C   0  0  0  0  0  0  0  0  0  0  0  0
   -8.9488    3.3950    0.0000 N   0  0  0  0  0  0  0  0  0  0  0  0
   -9.1056    1.9033    0.0000 C   0  0  0  0  0  0  0  0  0  0  0  0
   -7.8921    1.0216    0.0000 C   0  0  0  0  0  0  0  0  0  0  0  0
   -3.8817    1.2135    0.0000 C   0  0  0  0  0  0  0  0  0  0  0  0
   -3.4182    2.6401    0.0000 C   0  0  0  0  0  0  0  0  0  0  0  0
   -1.9509    2.9520    0.0000 C   0  0  0  0  0  0  0  0  0  0  0  0
   -1.4874    4.3786    0.0000 C   0  0  0  0  0  0  0  0  0  0  0  0
   -2.4911    5.4933    0.0000 N   0  0  0  0  0  0  0  0  0  0  0  0
   -3.9583    5.1814    0.0000 C   0  0  0  0  0  0  0  0  0  0  0  0
   -4.9620    6.2961    0.0000 O   0  0  0  0  0  0  0  0  0  0  0  0
   -4.4985    7.7227    0.0000 C   0  0  0  0  0  0  0  0  0  0  0  0
   -3.0313    8.0346    0.0000 C   0  0  0  0  0  0  0  0  0  0  0  0
   -2.5677    9.4612    0.0000 C   0  0  0  0  0  0  0  0  0  0  0  0
   -3.5714   10.5759    0.0000 C   0  0  0  0  0  0  0  0  0  0  0  0
   -3.1079   12.0025    0.0000 F   0  0  0  0  0  0  0  0  0  0  0  0
   -5.0387   10.2640    0.0000 C   0  0  0  0  0  0  0  0  0  0  0  0
   -6.0424   11.3787    0.0000 F   0  0  0  0  0  0  0  0  0  0  0  0
   -5.5022    8.8374    0.0000 C   0  0  0  0  0  0  0  0  0  0  0  0
   -4.4218    3.7548    0.0000 N   0  0  0  0  0  0  0  0  0  0  0  0
   -0.7500    1.2990    0.0000 C   0  0  0  0  0  0  0  0  0  0  0  0
    0.7500    1.2990    0.0000 C   0  0  0  0  0  0  0  0  0  0  0  0
  1  2  1  0
  2  3  2  0
  3  4  1  0
  4  5  2  0
  5  6  1  0
  6  7  1  0
  7  8  2  0
  8  9  1  0
  9 10  1  0
 10 11  1  0
 11 12  1  0
 12 13  1  0
 13 14  1  0
 14 15  1  0
  9 16  1  0
 16 17  1  0
 17 18  2  0
 18 19  1  0
 19 20  2  0
 20 21  1  0
 21 22  1  0
 22 23  1  0
 23 24  2  0
 24 25  1  0
 25 26  2  0
 26 27  1  0
 26 28  1  0
 28 29  1  0
 28 30  2  0
 21 31  2  0
  5 32  1  0
 32 33  2  0
 33  2  1  0
 16  6  2  0
 31 17  1  0
 15 10  1  0
 30 23  1  0
M  END
>  <Compound_ID>  (441) 
CHEMBL1785004

>  <Molecule Name>  (441) 
nan

>  <Molecular Weight>  (441) 
451.45

>  <AlogP>  (441) 
5.14

>  <Smiles>  (441) 
Fc1ccc(-c2ncn(C3CCNCC3)c2-c2ccnc(Oc3ccc(F)c(F)c3)n2)cc1

>  <Standard Type>  (441) 
Inhibition

>  <Standard Relation>  (441) 
'='

>  <Standard Units>  (441) 
%

>  <Standard Value>  (441) 
4.17

>  <Assay ChEMBL ID>  (441) 
CHEMBL1962143

>  <Assay Description>  (441) 
GSK_PKIS: MET mean inhibition at 1 uM [Nanosyn]

>  <BAO Format ID>  (441) 
BAO_0000357

>  <BAO Label>  (441) 
single protein format

>  <Assay Organism>  (441) 
None

>  <Target ChEMBL ID>  (441) 
CHEMBL3717

>  <Target Name>  (441) 
Hepatocyte growth factor receptor

>  <Target Organism>  (441) 
Homo sapiens

>  <Target Type>  (441) 
SINGLE PROTEIN

>  <Document ChEMBL ID>  (441) 
CHEMBL1961873

>  <Source Description>  (441) 
GSK Published Kinase Inhibitor Set

>  <Document Journal>  (441) 
nan

>  <Document Year>  (441) 
nan

>  <Active>  (441) 
0.0

$$$$

     RDKit          2D

 42 48  0  0  0  0  0  0  0  0999 V2000
   -0.4702  -13.1562    0.0000 O   0  0  0  0  0  0  0  0  0  0  0  0
    1.0216  -12.9994    0.0000 C   0  0  0  0  0  0  0  0  0  0  0  0
    1.6317  -11.6291    0.0000 O   0  0  0  0  0  0  0  0  0  0  0  0
    0.7500  -10.4156    0.0000 C   0  0  0  0  0  0  0  0  0  0  0  0
   -0.7500  -10.4156    0.0000 C   0  0  0  0  0  0  0  0  0  0  0  0
   -1.2135   -8.9890    0.0000 N   0  0  0  0  0  0  0  0  0  0  0  0
    0.0000   -8.1073    0.0000 C   0  0  0  0  0  0  0  0  0  0  0  0
   -0.0000   -6.6073    0.0000 C   0  0  0  0  0  0  0  0  0  0  0  0
   -0.0000   -5.1073    0.0000 C   0  0  0  0  0  0  0  0  0  0  0  0
   -0.0000   -3.6073    0.0000 C   0  0  0  0  0  0  0  0  0  0  0  0
    1.2135   -2.7256    0.0000 C   0  0  0  0  0  0  0  0  0  0  0  0
    0.7500   -1.2990    0.0000 C   0  0  0  0  0  0  0  0  0  0  0  0
    1.5000    0.0000    0.0000 N   0  0  0  0  0  0  0  0  0  0  0  0
    0.7500    1.2990    0.0000 C   0  0  0  0  0  0  0  0  0  0  0  0
   -0.7500    1.2990    0.0000 N   0  0  0  0  0  0  0  0  0  0  0  0
   -1.5000    0.0000    0.0000 C   0  0  0  0  0  0  0  0  0  0  0  0
   -3.0000    0.0000    0.0000 N   0  0  0  0  0  0  0  0  0  0  0  0
   -3.7500    1.2990    0.0000 C   0  0  0  0  0  0  0  0  0  0  0  0
   -3.0000    2.5981    0.0000 C   0  0  0  0  0  0  0  0  0  0  0  0
   -3.7500    3.8971    0.0000 C   0  0  0  0  0  0  0  0  0  0  0  0
   -5.2500    3.8971    0.0000 C   0  0  0  0  0  0  0  0  0  0  0  0
   -6.0000    2.5981    0.0000 C   0  0  0  0  0  0  0  0  0  0  0  0
   -7.4672    2.9099    0.0000 C   0  0  0  0  0  0  0  0  0  0  0  0
   -7.6240    4.4017    0.0000 N   0  0  0  0  0  0  0  0  0  0  0  0
   -6.2537    5.0118    0.0000 N   0  0  0  0  0  0  0  0  0  0  0  0
   -5.9418    6.4791    0.0000 C   0  0  0  0  0  0  0  0  0  0  0  0
   -7.0565    7.4827    0.0000 C   0  0  0  0  0  0  0  0  0  0  0  0
   -6.7447    8.9500    0.0000 C   0  0  0  0  0  0  0  0  0  0  0  0
   -7.8594    9.9537    0.0000 C   0  0  0  0  0  0  0  0  0  0  0  0
   -9.2860    9.4901    0.0000 C   0  0  0  0  0  0  0  0  0  0  0  0
   -9.5978    8.0229    0.0000 C   0  0  0  0  0  0  0  0  0  0  0  0
   -8.4831    7.0192    0.0000 C   0  0  0  0  0  0  0  0  0  0  0  0
   -5.2500    1.2990    0.0000 C   0  0  0  0  0  0  0  0  0  0  0  0
   -0.7500   -1.2990    0.0000 C   0  0  0  0  0  0  0  0  0  0  0  0
   -1.2135   -2.7256    0.0000 S   0  0  0  0  0  0  0  0  0  0  0  0
    1.2135   -8.9890    0.0000 C   0  0  0  0  0  0  0  0  0  0  0  0
    1.9033  -14.2129    0.0000 N   0  0  0  0  0  0  0  0  0  0  0  0
    1.2931  -15.5833    0.0000 C   0  0  0  0  0  0  0  0  0  0  0  0
    2.1748  -16.7968    0.0000 C   0  0  0  0  0  0  0  0  0  0  0  0
    3.6666  -16.6400    0.0000 O   0  0  0  0  0  0  0  0  0  0  0  0
    4.2767  -15.2697    0.0000 C   0  0  0  0  0  0  0  0  0  0  0  0
    3.3950  -14.0561    0.0000 C   0  0  0  0  0  0  0  0  0  0  0  0
  1  2  2  0
  2  3  1  0
  4  3  1  1
  4  5  1  0
  5  6  1  0
  6  7  1  0
  7  8  1  6
  8  9  3  0
  9 10  1  0
 10 11  2  0
 11 12  1  0
 12 13  2  0
 13 14  1  0
 14 15  2  0
 15 16  1  0
 16 17  1  0
 17 18  1  0
 18 19  2  0
 19 20  1  0
 20 21  2  0
 21 22  1  0
 22 23  1  0
 23 24  2  0
 24 25  1  0
 25 26  1  0
 26 27  1  0
 27 28  2  0
 28 29  1  0
 29 30  2  0
 30 31  1  0
 31 32  2  0
 22 33  2  0
 16 34  2  0
 34 35  1  0
  7 36  1  0
  2 37  1  0
 37 38  1  0
 38 39  1  0
 39 40  1  0
 40 41  1  0
 41 42  1  0
 36  4  1  0
 42 37  1  0
 35 10  1  0
 34 12  1  0
 33 18  1  0
 25 21  1  0
 32 27  1  0
M  END
>  <Compound_ID>  (442) 
CHEMBL1909408

>  <Molecule Name>  (442) 
GSK-200398A

>  <Molecular Weight>  (442) 
616.15

>  <AlogP>  (442) 
4.38

>  <Smiles>  (442) 
O=C(O[C@H]1CN[C@H](C#Cc2cc3ncnc(Nc4ccc5c(cnn5Cc5ccccc5)c4)c3s2)C1)N1CCOCC1

>  <Standard Type>  (442) 
Inhibition

>  <Standard Relation>  (442) 
'='

>  <Standard Units>  (442) 
%

>  <Standard Value>  (442) 
1.77

>  <Assay ChEMBL ID>  (442) 
CHEMBL1962143

>  <Assay Description>  (442) 
GSK_PKIS: MET mean inhibition at 1 uM [Nanosyn]

>  <BAO Format ID>  (442) 
BAO_0000357

>  <BAO Label>  (442) 
single protein format

>  <Assay Organism>  (442) 
None

>  <Target ChEMBL ID>  (442) 
CHEMBL3717

>  <Target Name>  (442) 
Hepatocyte growth factor receptor

>  <Target Organism>  (442) 
Homo sapiens

>  <Target Type>  (442) 
SINGLE PROTEIN

>  <Document ChEMBL ID>  (442) 
CHEMBL1961873

>  <Source Description>  (442) 
GSK Published Kinase Inhibitor Set

>  <Document Journal>  (442) 
nan

>  <Document Year>  (442) 
nan

>  <Active>  (442) 
0.0

$$$$

     RDKit          2D

 23 26  0  0  0  0  0  0  0  0999 V2000
    3.7500    1.2990    0.0000 O   0  0  0  0  0  0  0  0  0  0  0  0
    3.0000    0.0000    0.0000 C   0  0  0  0  0  0  0  0  0  0  0  0
    3.7500   -1.2990    0.0000 O   0  0  0  0  0  0  0  0  0  0  0  0
    1.5000    0.0000    0.0000 C   0  0  0  0  0  0  0  0  0  0  0  0
    0.7500   -1.2990    0.0000 C   0  0  0  0  0  0  0  0  0  0  0  0
   -0.7500   -1.2990    0.0000 C   0  0  0  0  0  0  0  0  0  0  0  0
   -1.5000    0.0000    0.0000 C   0  0  0  0  0  0  0  0  0  0  0  0
   -2.2500    1.2990    0.0000 C   0  0  0  0  0  0  0  0  0  0  0  0
   -3.7500    1.2990    0.0000 C   0  0  0  0  0  0  0  0  0  0  0  0
   -4.5000   -0.0000    0.0000 N   0  0  0  0  0  0  0  0  0  0  0  0
   -6.0000   -0.0000    0.0000 C   0  0  0  0  0  0  0  0  0  0  0  0
   -6.7500   -1.2990    0.0000 N   0  0  0  0  0  0  0  0  0  0  0  0
   -8.2500   -1.2990    0.0000 C   0  0  0  0  0  0  0  0  0  0  0  0
   -9.0000   -0.0000    0.0000 N   0  0  0  0  0  0  0  0  0  0  0  0
   -8.2500    1.2990    0.0000 C   0  0  0  0  0  0  0  0  0  0  0  0
   -8.7135    2.7256    0.0000 N   0  0  0  0  0  0  0  0  0  0  0  0
   -7.5000    3.6073    0.0000 C   0  0  0  0  0  0  0  0  0  0  0  0
   -6.2865    2.7256    0.0000 N   0  0  0  0  0  0  0  0  0  0  0  0
   -6.7500    1.2990    0.0000 C   0  0  0  0  0  0  0  0  0  0  0  0
   -3.7500   -1.2990    0.0000 C   0  0  0  0  0  0  0  0  0  0  0  0
   -2.2500   -1.2990    0.0000 C   0  0  0  0  0  0  0  0  0  0  0  0
   -0.7500    1.2990    0.0000 N   0  0  0  0  0  0  0  0  0  0  0  0
    0.7500    1.2990    0.0000 C   0  0  0  0  0  0  0  0  0  0  0  0
  1  2  2  0
  2  3  1  0
  2  4  1  0
  4  5  1  0
  5  6  1  0
  6  7  1  0
  7  8  1  0
  8  9  1  0
  9 10  1  0
 10 11  1  0
 11 12  2  0
 12 13  1  0
 13 14  2  0
 14 15  1  0
 15 16  1  0
 16 17  1  0
 17 18  2  0
 18 19  1  0
 10 20  1  0
 20 21  1  0
  7 22  1  0
 22 23  1  0
 23  4  1  0
 21  7  1  0
 19 11  1  0
 19 15  2  0
M  END
>  <Compound_ID>  (443) 
CHEMBL2420904

>  <Molecule Name>  (443) 
nan

>  <Molecular Weight>  (443) 
316.37

>  <AlogP>  (443) 
0.78

>  <Smiles>  (443) 
O=C(O)C1CCC2(CCN(c3ncnc4[nH]cnc34)CC2)NC1

>  <Standard Type>  (443) 
Inhibition

>  <Standard Relation>  (443) 
'='

>  <Standard Units>  (443) 
%

>  <Standard Value>  (443) 
0.0

>  <Assay ChEMBL ID>  (443) 
CHEMBL2424318

>  <Assay Description>  (443) 
Inhibition of MET (unknown origin) at 30 uM by microfluidic mobility shift assay relative to control

>  <BAO Format ID>  (443) 
BAO_0000357

>  <BAO Label>  (443) 
single protein format

>  <Assay Organism>  (443) 
Homo sapiens

>  <Target ChEMBL ID>  (443) 
CHEMBL3717

>  <Target Name>  (443) 
Hepatocyte growth factor receptor

>  <Target Organism>  (443) 
Homo sapiens

>  <Target Type>  (443) 
SINGLE PROTEIN

>  <Document ChEMBL ID>  (443) 
CHEMBL2417369

>  <Source Description>  (443) 
Scientific Literature

>  <Document Journal>  (443) 
Bioorg Med Chem

>  <Document Year>  (443) 
2013.0

>  <Active>  (443) 
0.0

$$$$

     RDKit          2D

 26 29  0  0  0  0  0  0  0  0999 V2000
   -5.8204   -1.2389    0.0000 Cl  0  0  0  0  0  0  0  0  0  0  0  0
   -5.5085    0.2283    0.0000 C   0  0  0  0  0  0  0  0  0  0  0  0
   -4.0819    0.6918    0.0000 C   0  0  0  0  0  0  0  0  0  0  0  0
   -2.9672   -0.3119    0.0000 N   0  0  0  0  0  0  0  0  0  0  0  0
   -3.1240   -1.8037    0.0000 N   0  0  0  0  0  0  0  0  0  0  0  0
   -1.7537   -2.4138    0.0000 C   0  0  0  0  0  0  0  0  0  0  0  0
   -0.7500   -1.2990    0.0000 C   0  0  0  0  0  0  0  0  0  0  0  0
    0.7500   -1.2990    0.0000 C   0  0  0  0  0  0  0  0  0  0  0  0
    1.5000   -2.5981    0.0000 N   0  0  0  0  0  0  0  0  0  0  0  0
    3.0000   -2.5981    0.0000 C   0  0  0  0  0  0  0  0  0  0  0  0
    3.7500   -3.8971    0.0000 C   0  0  0  0  0  0  0  0  0  0  0  0
    3.0000   -5.1962    0.0000 C   0  0  0  0  0  0  0  0  0  0  0  0
    3.7500   -6.4952    0.0000 C   0  0  0  0  0  0  0  0  0  0  0  0
    5.2500   -6.4952    0.0000 C   0  0  0  0  0  0  0  0  0  0  0  0
    6.0000   -5.1962    0.0000 C   0  0  0  0  0  0  0  0  0  0  0  0
    5.2500   -3.8971    0.0000 C   0  0  0  0  0  0  0  0  0  0  0  0
    1.5000    0.0000    0.0000 N   0  0  0  0  0  0  0  0  0  0  0  0
    0.7500    1.2990    0.0000 C   0  0  0  0  0  0  0  0  0  0  0  0
   -0.7500    1.2990    0.0000 N   0  0  0  0  0  0  0  0  0  0  0  0
   -1.5000    0.0000    0.0000 C   0  0  0  0  0  0  0  0  0  0  0  0
   -6.6232    1.2320    0.0000 C   0  0  0  0  0  0  0  0  0  0  0  0
   -6.3114    2.6992    0.0000 C   0  0  0  0  0  0  0  0  0  0  0  0
   -7.4261    3.7029    0.0000 C   0  0  0  0  0  0  0  0  0  0  0  0
   -8.8527    3.2394    0.0000 C   0  0  0  0  0  0  0  0  0  0  0  0
   -9.1645    1.7722    0.0000 C   0  0  0  0  0  0  0  0  0  0  0  0
   -8.0498    0.7685    0.0000 C   0  0  0  0  0  0  0  0  0  0  0  0
  1  2  1  0
  2  3  1  0
  3  4  1  0
  4  5  1  0
  5  6  2  0
  6  7  1  0
  7  8  2  0
  8  9  1  0
  9 10  1  0
 10 11  1  0
 11 12  2  0
 12 13  1  0
 13 14  2  0
 14 15  1  0
 15 16  2  0
  8 17  1  0
 17 18  2  0
 18 19  1  0
 19 20  2  0
  2 21  1  0
 21 22  2  0
 22 23  1  0
 23 24  2  0
 24 25  1  0
 25 26  2  0
 20  4  1  0
 26 21  1  0
 20  7  1  0
 16 11  1  0
M  END
>  <Compound_ID>  (444) 
CHEMBL411043

>  <Molecule Name>  (444) 
nan

>  <Molecular Weight>  (444) 
363.85

>  <AlogP>  (444) 
4.42

>  <Smiles>  (444) 
ClC(Cn1ncc2c(NCc3ccccc3)ncnc21)c1ccccc1

>  <Standard Type>  (444) 
Inhibition

>  <Standard Relation>  (444) 
'='

>  <Standard Units>  (444) 
%

>  <Standard Value>  (444) 
10.0

>  <Assay ChEMBL ID>  (444) 
CHEMBL2073081

>  <Assay Description>  (444) 
Inhibition of Met at 10 uM

>  <BAO Format ID>  (444) 
BAO_0000357

>  <BAO Label>  (444) 
single protein format

>  <Assay Organism>  (444) 
Homo sapiens

>  <Target ChEMBL ID>  (444) 
CHEMBL3717

>  <Target Name>  (444) 
Hepatocyte growth factor receptor

>  <Target Organism>  (444) 
Homo sapiens

>  <Target Type>  (444) 
SINGLE PROTEIN

>  <Document ChEMBL ID>  (444) 
CHEMBL2069178

>  <Source Description>  (444) 
Scientific Literature

>  <Document Journal>  (444) 
Bioorg Med Chem Lett

>  <Document Year>  (444) 
2012.0

>  <Active>  (444) 
0.0

$$$$

     RDKit          2D

 43 47  0  0  0  0  0  0  0  0999 V2000
   -1.2064  -10.6676    0.0000 C   0  0  0  0  0  0  0  0  0  0  0  0
   -1.0496   -9.1759    0.0000 C   0  0  0  0  0  0  0  0  0  0  0  0
    0.3207   -8.5658    0.0000 C   0  0  0  0  0  0  0  0  0  0  0  0
    0.4775   -7.0740    0.0000 N   0  0  0  0  0  0  0  0  0  0  0  0
   -0.7360   -6.1923    0.0000 C   0  0  0  0  0  0  0  0  0  0  0  0
   -2.1063   -6.8024    0.0000 C   0  0  0  0  0  0  0  0  0  0  0  0
   -3.3199   -5.9207    0.0000 S   0  0  0  0  0  0  0  0  0  0  0  0
   -4.5334   -5.0390    0.0000 C   0  0  0  0  0  0  0  0  0  0  0  0
   -2.4382   -4.7072    0.0000 O   0  0  0  0  0  0  0  0  0  0  0  0
   -4.2015   -7.1343    0.0000 O   0  0  0  0  0  0  0  0  0  0  0  0
    1.8478   -6.4639    0.0000 C   0  0  0  0  0  0  0  0  0  0  0  0
    2.0046   -4.9721    0.0000 C   0  0  0  0  0  0  0  0  0  0  0  0
    3.3037   -4.2221    0.0000 C   0  0  0  0  0  0  0  0  0  0  0  0
    2.9918   -2.7549    0.0000 C   0  0  0  0  0  0  0  0  0  0  0  0
    1.5000   -2.5981    0.0000 C   0  0  0  0  0  0  0  0  0  0  0  0
    0.7500   -1.2990    0.0000 C   0  0  0  0  0  0  0  0  0  0  0  0
    1.5000    0.0000    0.0000 C   0  0  0  0  0  0  0  0  0  0  0  0
    0.7500    1.2990    0.0000 C   0  0  0  0  0  0  0  0  0  0  0  0
   -0.7500    1.2990    0.0000 C   0  0  0  0  0  0  0  0  0  0  0  0
   -1.5000    2.5981    0.0000 N   0  0  0  0  0  0  0  0  0  0  0  0
   -3.0000    2.5981    0.0000 C   0  0  0  0  0  0  0  0  0  0  0  0
   -3.7500    1.2990    0.0000 N   0  0  0  0  0  0  0  0  0  0  0  0
   -3.0000    0.0000    0.0000 C   0  0  0  0  0  0  0  0  0  0  0  0
   -3.7500   -1.2990    0.0000 N   0  0  0  0  0  0  0  0  0  0  0  0
   -5.2500   -1.2990    0.0000 C   0  0  0  0  0  0  0  0  0  0  0  0
   -6.0000    0.0000    0.0000 C   0  0  0  0  0  0  0  0  0  0  0  0
   -7.5000    0.0000    0.0000 C   0  0  0  0  0  0  0  0  0  0  0  0
   -8.2500   -1.2990    0.0000 C   0  0  0  0  0  0  0  0  0  0  0  0
   -9.7500   -1.2990    0.0000 O   0  0  0  0  0  0  0  0  0  0  0  0
  -10.5000    0.0000    0.0000 C   0  0  0  0  0  0  0  0  0  0  0  0
  -12.0000    0.0000    0.0000 C   0  0  0  0  0  0  0  0  0  0  0  0
  -12.7500    1.2990    0.0000 C   0  0  0  0  0  0  0  0  0  0  0  0
  -14.2500    1.2990    0.0000 C   0  0  0  0  0  0  0  0  0  0  0  0
  -15.0000    0.0000    0.0000 C   0  0  0  0  0  0  0  0  0  0  0  0
  -14.2500   -1.2990    0.0000 C   0  0  0  0  0  0  0  0  0  0  0  0
  -15.0000   -2.5981    0.0000 F   0  0  0  0  0  0  0  0  0  0  0  0
  -12.7500   -1.2990    0.0000 C   0  0  0  0  0  0  0  0  0  0  0  0
   -7.5000   -2.5981    0.0000 C   0  0  0  0  0  0  0  0  0  0  0  0
   -8.2500   -3.8971    0.0000 Cl  0  0  0  0  0  0  0  0  0  0  0  0
   -6.0000   -2.5981    0.0000 C   0  0  0  0  0  0  0  0  0  0  0  0
   -1.5000    0.0000    0.0000 C   0  0  0  0  0  0  0  0  0  0  0  0
   -0.7500   -1.2990    0.0000 C   0  0  0  0  0  0  0  0  0  0  0  0
    0.8899   -3.9684    0.0000 O   0  0  0  0  0  0  0  0  0  0  0  0
  1  2  1  0
  2  3  1  0
  3  4  1  0
  4  5  1  0
  5  6  1  0
  6  7  1  0
  7  8  1  0
  7  9  2  0
  7 10  2  0
  4 11  1  0
 11 12  1  0
 12 13  2  0
 13 14  1  0
 14 15  2  0
 15 16  1  0
 16 17  2  0
 17 18  1  0
 18 19  2  0
 19 20  1  0
 20 21  2  0
 21 22  1  0
 22 23  2  0
 23 24  1  0
 24 25  1  0
 25 26  2  0
 26 27  1  0
 27 28  2  0
 28 29  1  0
 29 30  1  0
 30 31  1  0
 31 32  2  0
 32 33  1  0
 33 34  2  0
 34 35  1  0
 35 36  1  0
 35 37  2  0
 28 38  1  0
 38 39  1  0
 38 40  2  0
 23 41  1  0
 41 42  2  0
 15 43  1  0
 43 12  1  0
 42 16  1  0
 41 19  1  0
 40 25  1  0
 37 31  1  0
M  END
>  <Compound_ID>  (445) 
CHEMBL1909394

>  <Molecule Name>  (445) 
GW621823A

>  <Molecular Weight>  (445) 
659.61

>  <AlogP>  (445) 
7.26

>  <Smiles>  (445) 
CCCN(CCS(C)(=O)=O)Cc1ccc(-c2ccc3ncnc(Nc4ccc(OCc5cccc(F)c5)c(Cl)c4)c3c2)o1

>  <Standard Type>  (445) 
Inhibition

>  <Standard Relation>  (445) 
'='

>  <Standard Units>  (445) 
%

>  <Standard Value>  (445) 
2.91

>  <Assay ChEMBL ID>  (445) 
CHEMBL1962142

>  <Assay Description>  (445) 
GSK_PKIS: MET mean inhibition at 0.1 uM [Nanosyn]

>  <BAO Format ID>  (445) 
BAO_0000357

>  <BAO Label>  (445) 
single protein format

>  <Assay Organism>  (445) 
None

>  <Target ChEMBL ID>  (445) 
CHEMBL3717

>  <Target Name>  (445) 
Hepatocyte growth factor receptor

>  <Target Organism>  (445) 
Homo sapiens

>  <Target Type>  (445) 
SINGLE PROTEIN

>  <Document ChEMBL ID>  (445) 
CHEMBL1961873

>  <Source Description>  (445) 
GSK Published Kinase Inhibitor Set

>  <Document Journal>  (445) 
nan

>  <Document Year>  (445) 
nan

>  <Active>  (445) 
0.0

$$$$

     RDKit          2D

 42 46  0  0  0  0  0  0  0  0999 V2000
   -1.3632  -12.1594    0.0000 C   0  0  0  0  0  0  0  0  0  0  0  0
   -1.2064  -10.6676    0.0000 S   0  0  0  0  0  0  0  0  0  0  0  0
    0.2854  -10.8244    0.0000 O   0  0  0  0  0  0  0  0  0  0  0  0
   -2.6982  -10.5109    0.0000 O   0  0  0  0  0  0  0  0  0  0  0  0
   -1.0496   -9.1759    0.0000 C   0  0  0  0  0  0  0  0  0  0  0  0
    0.3207   -8.5658    0.0000 C   0  0  0  0  0  0  0  0  0  0  0  0
    0.4775   -7.0740    0.0000 N   0  0  0  0  0  0  0  0  0  0  0  0
    1.8478   -6.4639    0.0000 C   0  0  0  0  0  0  0  0  0  0  0  0
    2.0046   -4.9721    0.0000 C   0  0  0  0  0  0  0  0  0  0  0  0
    3.3037   -4.2221    0.0000 C   0  0  0  0  0  0  0  0  0  0  0  0
    2.9918   -2.7549    0.0000 C   0  0  0  0  0  0  0  0  0  0  0  0
    1.5000   -2.5981    0.0000 C   0  0  0  0  0  0  0  0  0  0  0  0
    0.7500   -1.2990    0.0000 C   0  0  0  0  0  0  0  0  0  0  0  0
    1.5000    0.0000    0.0000 C   0  0  0  0  0  0  0  0  0  0  0  0
    0.7500    1.2990    0.0000 C   0  0  0  0  0  0  0  0  0  0  0  0
   -0.7500    1.2990    0.0000 C   0  0  0  0  0  0  0  0  0  0  0  0
   -1.5000    2.5981    0.0000 N   0  0  0  0  0  0  0  0  0  0  0  0
   -3.0000    2.5981    0.0000 C   0  0  0  0  0  0  0  0  0  0  0  0
   -3.7500    1.2990    0.0000 N   0  0  0  0  0  0  0  0  0  0  0  0
   -3.0000    0.0000    0.0000 C   0  0  0  0  0  0  0  0  0  0  0  0
   -3.7500   -1.2990    0.0000 N   0  0  0  0  0  0  0  0  0  0  0  0
   -5.2500   -1.2990    0.0000 C   0  0  0  0  0  0  0  0  0  0  0  0
   -6.0000    0.0000    0.0000 C   0  0  0  0  0  0  0  0  0  0  0  0
   -7.5000    0.0000    0.0000 C   0  0  0  0  0  0  0  0  0  0  0  0
   -8.2500   -1.2990    0.0000 C   0  0  0  0  0  0  0  0  0  0  0  0
   -9.7500   -1.2990    0.0000 O   0  0  0  0  0  0  0  0  0  0  0  0
  -10.5000    0.0000    0.0000 C   0  0  0  0  0  0  0  0  0  0  0  0
  -12.0000    0.0000    0.0000 C   0  0  0  0  0  0  0  0  0  0  0  0
  -12.7500    1.2990    0.0000 C   0  0  0  0  0  0  0  0  0  0  0  0
  -14.2500    1.2990    0.0000 C   0  0  0  0  0  0  0  0  0  0  0  0
  -15.0000    0.0000    0.0000 C   0  0  0  0  0  0  0  0  0  0  0  0
  -14.2500   -1.2990    0.0000 C   0  0  0  0  0  0  0  0  0  0  0  0
  -12.7500   -1.2990    0.0000 C   0  0  0  0  0  0  0  0  0  0  0  0
   -7.5000   -2.5981    0.0000 C   0  0  0  0  0  0  0  0  0  0  0  0
   -8.2500   -3.8971    0.0000 C   0  0  0  0  0  0  0  0  0  0  0  0
   -9.0000   -5.1962    0.0000 F   0  0  0  0  0  0  0  0  0  0  0  0
   -6.9510   -4.6471    0.0000 F   0  0  0  0  0  0  0  0  0  0  0  0
   -9.5490   -3.1471    0.0000 F   0  0  0  0  0  0  0  0  0  0  0  0
   -6.0000   -2.5981    0.0000 C   0  0  0  0  0  0  0  0  0  0  0  0
   -1.5000    0.0000    0.0000 C   0  0  0  0  0  0  0  0  0  0  0  0
   -0.7500   -1.2990    0.0000 C   0  0  0  0  0  0  0  0  0  0  0  0
    0.8899   -3.9684    0.0000 O   0  0  0  0  0  0  0  0  0  0  0  0
  1  2  1  0
  2  3  2  0
  2  4  2  0
  2  5  1  0
  5  6  1  0
  6  7  1  0
  7  8  1  0
  8  9  1  0
  9 10  2  0
 10 11  1  0
 11 12  2  0
 12 13  1  0
 13 14  2  0
 14 15  1  0
 15 16  2  0
 16 17  1  0
 17 18  2  0
 18 19  1  0
 19 20  2  0
 20 21  1  0
 21 22  1  0
 22 23  2  0
 23 24  1  0
 24 25  2  0
 25 26  1  0
 26 27  1  0
 27 28  1  0
 28 29  2  0
 29 30  1  0
 30 31  2  0
 31 32  1  0
 32 33  2  0
 25 34  1  0
 34 35  1  0
 35 36  1  0
 35 37  1  0
 35 38  1  0
 34 39  2  0
 20 40  1  0
 40 41  2  0
 12 42  1  0
 42  9  1  0
 41 13  1  0
 40 16  1  0
 39 22  1  0
 33 28  1  0
M  END
>  <Compound_ID>  (446) 
CHEMBL1909389

>  <Molecule Name>  (446) 
GW574782A

>  <Molecular Weight>  (446) 
633.09

>  <AlogP>  (446) 
6.37

>  <Smiles>  (446) 
CS(=O)(=O)CCNCc1ccc(-c2ccc3ncnc(Nc4ccc(OCc5ccccc5)c(C(F)(F)F)c4)c3c2)o1

>  <Standard Type>  (446) 
Inhibition

>  <Standard Relation>  (446) 
'='

>  <Standard Units>  (446) 
%

>  <Standard Value>  (446) 
0.49

>  <Assay ChEMBL ID>  (446) 
CHEMBL1962142

>  <Assay Description>  (446) 
GSK_PKIS: MET mean inhibition at 0.1 uM [Nanosyn]

>  <BAO Format ID>  (446) 
BAO_0000357

>  <BAO Label>  (446) 
single protein format

>  <Assay Organism>  (446) 
None

>  <Target ChEMBL ID>  (446) 
CHEMBL3717

>  <Target Name>  (446) 
Hepatocyte growth factor receptor

>  <Target Organism>  (446) 
Homo sapiens

>  <Target Type>  (446) 
SINGLE PROTEIN

>  <Document ChEMBL ID>  (446) 
CHEMBL1961873

>  <Source Description>  (446) 
GSK Published Kinase Inhibitor Set

>  <Document Journal>  (446) 
nan

>  <Document Year>  (446) 
nan

>  <Active>  (446) 
0.0

$$$$

     RDKit          2D

 25 27  0  0  0  0  0  0  0  0999 V2000
    3.0000    0.0000    0.0000 C   0  0  0  0  0  0  0  0  0  0  0  0
    1.5000    0.0000    0.0000 C   0  0  0  0  0  0  0  0  0  0  0  0
    0.7500   -1.2990    0.0000 C   0  0  0  0  0  0  0  0  0  0  0  0
   -0.7500   -1.2990    0.0000 C   0  0  0  0  0  0  0  0  0  0  0  0
   -1.5000    0.0000    0.0000 C   0  0  0  0  0  0  0  0  0  0  0  0
   -3.0000    0.0000    0.0000 N   0  0  0  0  0  0  0  0  0  0  0  0
   -3.7500    1.2990    0.0000 C   0  0  0  0  0  0  0  0  0  0  0  0
   -3.0000    2.5981    0.0000 C   0  0  0  0  0  0  0  0  0  0  0  0
   -3.7500    3.8971    0.0000 C   0  0  0  0  0  0  0  0  0  0  0  0
   -5.2500    3.8971    0.0000 N   0  0  0  0  0  0  0  0  0  0  0  0
   -6.0000    2.5981    0.0000 C   0  0  0  0  0  0  0  0  0  0  0  0
   -7.5000    2.5981    0.0000 N   0  0  0  0  0  0  0  0  0  0  0  0
   -8.2500    3.8971    0.0000 C   0  0  0  0  0  0  0  0  0  0  0  0
   -7.5000    5.1962    0.0000 C   0  0  0  0  0  0  0  0  0  0  0  0
   -8.2500    6.4952    0.0000 C   0  0  0  0  0  0  0  0  0  0  0  0
   -9.7500    6.4952    0.0000 C   0  0  0  0  0  0  0  0  0  0  0  0
  -10.5000    5.1962    0.0000 C   0  0  0  0  0  0  0  0  0  0  0  0
  -12.0000    5.1962    0.0000 C   0  0  0  0  0  0  0  0  0  0  0  0
  -12.7500    6.4952    0.0000 N   0  0  0  0  0  0  0  0  0  0  0  0
  -12.7500    3.8971    0.0000 O   0  0  0  0  0  0  0  0  0  0  0  0
   -9.7500    3.8971    0.0000 C   0  0  0  0  0  0  0  0  0  0  0  0
   -5.2500    1.2990    0.0000 N   0  0  0  0  0  0  0  0  0  0  0  0
   -0.7500    1.2990    0.0000 C   0  0  0  0  0  0  0  0  0  0  0  0
    0.7500    1.2990    0.0000 C   0  0  0  0  0  0  0  0  0  0  0  0
    1.5000    2.5981    0.0000 O   0  0  0  0  0  0  0  0  0  0  0  0
  1  2  1  0
  2  3  2  0
  3  4  1  0
  4  5  2  0
  5  6  1  0
  6  7  1  0
  7  8  2  0
  8  9  1  0
  9 10  2  0
 10 11  1  0
 11 12  1  0
 12 13  1  0
 13 14  2  0
 14 15  1  0
 15 16  2  0
 16 17  1  0
 17 18  1  0
 18 19  1  0
 18 20  2  0
 17 21  2  0
 11 22  2  0
  5 23  1  0
 23 24  2  0
 24 25  1  0
 24  2  1  0
 22  7  1  0
 21 13  1  0
M  END
>  <Compound_ID>  (447) 
CHEMBL1909381

>  <Molecule Name>  (447) 
GW575808A

>  <Molecular Weight>  (447) 
371.83

>  <AlogP>  (447) 
3.08

>  <Smiles>  (447) 
Cc1ccc(Nc2ccnc(Nc3cccc(C(N)=O)c3)n2)cc1O

>  <Standard Type>  (447) 
Inhibition

>  <Standard Relation>  (447) 
'='

>  <Standard Units>  (447) 
%

>  <Standard Value>  (447) 
6.87

>  <Assay ChEMBL ID>  (447) 
CHEMBL1962143

>  <Assay Description>  (447) 
GSK_PKIS: MET mean inhibition at 1 uM [Nanosyn]

>  <BAO Format ID>  (447) 
BAO_0000357

>  <BAO Label>  (447) 
single protein format

>  <Assay Organism>  (447) 
None

>  <Target ChEMBL ID>  (447) 
CHEMBL3717

>  <Target Name>  (447) 
Hepatocyte growth factor receptor

>  <Target Organism>  (447) 
Homo sapiens

>  <Target Type>  (447) 
SINGLE PROTEIN

>  <Document ChEMBL ID>  (447) 
CHEMBL1961873

>  <Source Description>  (447) 
GSK Published Kinase Inhibitor Set

>  <Document Journal>  (447) 
nan

>  <Document Year>  (447) 
nan

>  <Active>  (447) 
0.0

$$$$

     RDKit          2D

 35 38  0  0  0  0  0  0  0  0999 V2000
    5.2500   -1.2990    0.0000 C   0  0  0  0  0  0  0  0  0  0  0  0
    3.7500   -1.2990    0.0000 C   0  0  0  0  0  0  0  0  0  0  0  0
    3.0000   -2.5981    0.0000 O   0  0  0  0  0  0  0  0  0  0  0  0
    3.0000    0.0000    0.0000 N   0  0  0  0  0  0  0  0  0  0  0  0
    1.5000    0.0000    0.0000 C   0  0  0  0  0  0  0  0  0  0  0  0
    0.7500   -1.2990    0.0000 C   0  0  0  0  0  0  0  0  0  0  0  0
   -0.7500   -1.2990    0.0000 C   0  0  0  0  0  0  0  0  0  0  0  0
   -1.5000    0.0000    0.0000 C   0  0  0  0  0  0  0  0  0  0  0  0
   -0.7500    1.2990    0.0000 C   0  0  0  0  0  0  0  0  0  0  0  0
   -1.5000    2.5981    0.0000 C   0  0  0  0  0  0  0  0  0  0  0  0
   -2.2500    3.8971    0.0000 C   0  0  0  0  0  0  0  0  0  0  0  0
   -3.0000    5.1962    0.0000 C   0  0  0  0  0  0  0  0  0  0  0  0
   -2.2500    6.4952    0.0000 C   0  0  0  0  0  0  0  0  0  0  0  0
   -3.0000    7.7942    0.0000 N   0  0  0  0  0  0  0  0  0  0  0  0
   -4.5000    7.7942    0.0000 C   0  0  0  0  0  0  0  0  0  0  0  0
   -5.2500    6.4952    0.0000 N   0  0  0  0  0  0  0  0  0  0  0  0
   -4.5000    5.1962    0.0000 C   0  0  0  0  0  0  0  0  0  0  0  0
   -5.2500    3.8971    0.0000 N   0  0  0  0  0  0  0  0  0  0  0  0
   -6.7500    3.8971    0.0000 C   0  0  0  0  0  0  0  0  0  0  0  0
   -7.5000    5.1962    0.0000 C   0  0  0  0  0  0  0  0  0  0  0  0
   -9.0000    5.1962    0.0000 C   0  0  0  0  0  0  0  0  0  0  0  0
   -9.7500    3.8971    0.0000 C   0  0  0  0  0  0  0  0  0  0  0  0
  -11.2500    3.8971    0.0000 O   0  0  0  0  0  0  0  0  0  0  0  0
  -12.0000    5.1962    0.0000 C   0  0  0  0  0  0  0  0  0  0  0  0
  -13.5000    5.1962    0.0000 C   0  0  0  0  0  0  0  0  0  0  0  0
  -14.2500    6.4952    0.0000 C   0  0  0  0  0  0  0  0  0  0  0  0
  -15.7500    6.4952    0.0000 C   0  0  0  0  0  0  0  0  0  0  0  0
  -16.5000    5.1962    0.0000 C   0  0  0  0  0  0  0  0  0  0  0  0
  -15.7500    3.8971    0.0000 C   0  0  0  0  0  0  0  0  0  0  0  0
  -16.5000    2.5981    0.0000 F   0  0  0  0  0  0  0  0  0  0  0  0
  -14.2500    3.8971    0.0000 C   0  0  0  0  0  0  0  0  0  0  0  0
   -9.0000    2.5981    0.0000 C   0  0  0  0  0  0  0  0  0  0  0  0
   -9.7500    1.2990    0.0000 Cl  0  0  0  0  0  0  0  0  0  0  0  0
   -7.5000    2.5981    0.0000 C   0  0  0  0  0  0  0  0  0  0  0  0
    0.7500    1.2990    0.0000 C   0  0  0  0  0  0  0  0  0  0  0  0
  1  2  1  0
  2  3  2  0
  2  4  1  0
  4  5  1  0
  5  6  2  0
  6  7  1  0
  7  8  2  0
  8  9  1  0
  9 10  1  0
 10 11  3  0
 11 12  1  0
 12 13  2  0
 13 14  1  0
 14 15  2  0
 15 16  1  0
 16 17  2  0
 17 18  1  0
 18 19  1  0
 19 20  2  0
 20 21  1  0
 21 22  2  0
 22 23  1  0
 23 24  1  0
 24 25  1  0
 25 26  2  0
 26 27  1  0
 27 28  2  0
 28 29  1  0
 29 30  1  0
 29 31  2  0
 22 32  1  0
 32 33  1  0
 32 34  2  0
  9 35  2  0
 35  5  1  0
 17 12  1  0
 34 19  1  0
 31 25  1  0
M  END
>  <Compound_ID>  (448) 
CHEMBL205798

>  <Molecule Name>  (448) 
GW703087X

>  <Molecular Weight>  (448) 
486.93

>  <AlogP>  (448) 
5.95

>  <Smiles>  (448) 
CC(=O)Nc1cccc(C#Cc2cncnc2Nc2ccc(OCc3cccc(F)c3)c(Cl)c2)c1

>  <Standard Type>  (448) 
Inhibition

>  <Standard Relation>  (448) 
'='

>  <Standard Units>  (448) 
%

>  <Standard Value>  (448) 
4.11

>  <Assay ChEMBL ID>  (448) 
CHEMBL1962142

>  <Assay Description>  (448) 
GSK_PKIS: MET mean inhibition at 0.1 uM [Nanosyn]

>  <BAO Format ID>  (448) 
BAO_0000357

>  <BAO Label>  (448) 
single protein format

>  <Assay Organism>  (448) 
None

>  <Target ChEMBL ID>  (448) 
CHEMBL3717

>  <Target Name>  (448) 
Hepatocyte growth factor receptor

>  <Target Organism>  (448) 
Homo sapiens

>  <Target Type>  (448) 
SINGLE PROTEIN

>  <Document ChEMBL ID>  (448) 
CHEMBL1961873

>  <Source Description>  (448) 
GSK Published Kinase Inhibitor Set

>  <Document Journal>  (448) 
nan

>  <Document Year>  (448) 
nan

>  <Active>  (448) 
0.0

$$$$

     RDKit          2D

 33 37  0  0  0  0  0  0  0  0999 V2000
    3.0000    0.0000    0.0000 C   0  0  0  0  0  0  0  0  0  0  0  0
    1.5000    0.0000    0.0000 C   0  0  0  0  0  0  0  0  0  0  0  0
    0.7500   -1.2990    0.0000 C   0  0  0  0  0  0  0  0  0  0  0  0
   -0.7500   -1.2990    0.0000 C   0  0  0  0  0  0  0  0  0  0  0  0
   -1.5000    0.0000    0.0000 C   0  0  0  0  0  0  0  0  0  0  0  0
   -2.9672    0.3119    0.0000 C   0  0  0  0  0  0  0  0  0  0  0  0
   -4.0819   -0.6918    0.0000 C   0  0  0  0  0  0  0  0  0  0  0  0
   -5.5085   -0.2283    0.0000 C   0  0  0  0  0  0  0  0  0  0  0  0
   -6.6232   -1.2320    0.0000 C   0  0  0  0  0  0  0  0  0  0  0  0
   -6.3114   -2.6992    0.0000 N   0  0  0  0  0  0  0  0  0  0  0  0
   -4.8848   -3.1627    0.0000 C   0  0  0  0  0  0  0  0  0  0  0  0
   -4.5729   -4.6300    0.0000 N   0  0  0  0  0  0  0  0  0  0  0  0
   -5.6876   -5.6337    0.0000 C   0  0  0  0  0  0  0  0  0  0  0  0
   -7.1142   -5.1701    0.0000 C   0  0  0  0  0  0  0  0  0  0  0  0
   -8.2289   -6.1738    0.0000 C   0  0  0  0  0  0  0  0  0  0  0  0
   -7.9171   -7.6411    0.0000 C   0  0  0  0  0  0  0  0  0  0  0  0
   -6.4905   -8.1046    0.0000 C   0  0  0  0  0  0  0  0  0  0  0  0
   -6.1786   -9.5718    0.0000 C   0  0  0  0  0  0  0  0  0  0  0  0
   -5.8668  -11.0390    0.0000 F   0  0  0  0  0  0  0  0  0  0  0  0
   -7.6458   -9.8837    0.0000 F   0  0  0  0  0  0  0  0  0  0  0  0
   -4.7114   -9.2599    0.0000 F   0  0  0  0  0  0  0  0  0  0  0  0
   -5.3758   -7.1009    0.0000 C   0  0  0  0  0  0  0  0  0  0  0  0
   -3.7701   -2.1590    0.0000 N   0  0  0  0  0  0  0  0  0  0  0  0
   -3.1240    1.8037    0.0000 C   0  0  0  0  0  0  0  0  0  0  0  0
   -4.4231    2.5537    0.0000 C   0  0  0  0  0  0  0  0  0  0  0  0
   -4.4231    4.0537    0.0000 C   0  0  0  0  0  0  0  0  0  0  0  0
   -5.7221    4.8037    0.0000 C   0  0  0  0  0  0  0  0  0  0  0  0
   -7.0211    4.0537    0.0000 C   0  0  0  0  0  0  0  0  0  0  0  0
   -7.0211    2.5537    0.0000 C   0  0  0  0  0  0  0  0  0  0  0  0
   -5.7221    1.8037    0.0000 C   0  0  0  0  0  0  0  0  0  0  0  0
   -1.7537    2.4138    0.0000 N   0  0  0  0  0  0  0  0  0  0  0  0
   -0.7500    1.2990    0.0000 N   0  0  0  0  0  0  0  0  0  0  0  0
    0.7500    1.2990    0.0000 N   0  0  0  0  0  0  0  0  0  0  0  0
  1  2  1  0
  2  3  1  0
  3  4  2  0
  4  5  1  0
  5  6  2  0
  6  7  1  0
  7  8  2  0
  8  9  1  0
  9 10  2  0
 10 11  1  0
 11 12  1  0
 12 13  1  0
 13 14  2  0
 14 15  1  0
 15 16  2  0
 16 17  1  0
 17 18  1  0
 18 19  1  0
 18 20  1  0
 18 21  1  0
 17 22  2  0
 11 23  2  0
  6 24  1  0
 24 25  1  0
 25 26  2  0
 26 27  1  0
 27 28  2  0
 28 29  1  0
 29 30  2  0
 24 31  2  0
 31 32  1  0
 32 33  1  0
 33  2  2  0
 32  5  1  0
 23  7  1  0
 30 25  1  0
 22 13  1  0
M  END
>  <Compound_ID>  (449) 
CHEMBL434729

>  <Molecule Name>  (449) 
GW829906X

>  <Molecular Weight>  (449) 
446.44

>  <AlogP>  (449) 
5.92

>  <Smiles>  (449) 
Cc1ccc2c(-c3ccnc(Nc4cccc(C(F)(F)F)c4)n3)c(-c3ccccc3)nn2n1

>  <Standard Type>  (449) 
Inhibition

>  <Standard Relation>  (449) 
'='

>  <Standard Units>  (449) 
%

>  <Standard Value>  (449) 
10.42

>  <Assay ChEMBL ID>  (449) 
CHEMBL1962143

>  <Assay Description>  (449) 
GSK_PKIS: MET mean inhibition at 1 uM [Nanosyn]

>  <BAO Format ID>  (449) 
BAO_0000357

>  <BAO Label>  (449) 
single protein format

>  <Assay Organism>  (449) 
None

>  <Target ChEMBL ID>  (449) 
CHEMBL3717

>  <Target Name>  (449) 
Hepatocyte growth factor receptor

>  <Target Organism>  (449) 
Homo sapiens

>  <Target Type>  (449) 
SINGLE PROTEIN

>  <Document ChEMBL ID>  (449) 
CHEMBL1961873

>  <Source Description>  (449) 
GSK Published Kinase Inhibitor Set

>  <Document Journal>  (449) 
nan

>  <Document Year>  (449) 
nan

>  <Active>  (449) 
0.0

$$$$

     RDKit          2D

 26 28  0  0  0  0  0  0  0  0999 V2000
    5.2500   -1.2990    0.0000 C   0  0  0  0  0  0  0  0  0  0  0  0
    3.7500   -1.2990    0.0000 C   0  0  0  0  0  0  0  0  0  0  0  0
    3.0000   -2.5981    0.0000 C   0  0  0  0  0  0  0  0  0  0  0  0
    3.0000    0.0000    0.0000 C   0  0  0  0  0  0  0  0  0  0  0  0
    1.5000    0.0000    0.0000 C   0  0  0  0  0  0  0  0  0  0  0  0
    0.7500   -1.2990    0.0000 C   0  0  0  0  0  0  0  0  0  0  0  0
   -0.7500   -1.2990    0.0000 C   0  0  0  0  0  0  0  0  0  0  0  0
   -1.5000    0.0000    0.0000 C   0  0  0  0  0  0  0  0  0  0  0  0
   -0.7500    1.2990    0.0000 C   0  0  0  0  0  0  0  0  0  0  0  0
    0.7500    1.2990    0.0000 C   0  0  0  0  0  0  0  0  0  0  0  0
    1.2135    2.7256    0.0000 C   0  0  0  0  0  0  0  0  0  0  0  0
    2.6401    3.1891    0.0000 N   0  0  0  0  0  0  0  0  0  0  0  0
    2.9520    4.6564    0.0000 N   0  0  0  0  0  0  0  0  0  0  0  0
    4.3786    5.1199    0.0000 C   0  0  0  0  0  0  0  0  0  0  0  0
    5.4933    4.1162    0.0000 C   0  0  0  0  0  0  0  0  0  0  0  0
    6.9199    4.5797    0.0000 C   0  0  0  0  0  0  0  0  0  0  0  0
    7.2317    6.0469    0.0000 C   0  0  0  0  0  0  0  0  0  0  0  0
    8.6583    6.5105    0.0000 S   0  0  0  0  0  0  0  0  0  0  0  0
   10.0849    6.9740    0.0000 N   0  0  0  0  0  0  0  0  0  0  0  0
    9.1218    5.0839    0.0000 O   0  0  0  0  0  0  0  0  0  0  0  0
    8.1948    7.9371    0.0000 O   0  0  0  0  0  0  0  0  0  0  0  0
    6.1170    7.0506    0.0000 C   0  0  0  0  0  0  0  0  0  0  0  0
    4.6904    6.5871    0.0000 C   0  0  0  0  0  0  0  0  0  0  0  0
   -0.0000    3.6073    0.0000 C   0  0  0  0  0  0  0  0  0  0  0  0
   -0.0000    5.1073    0.0000 O   0  0  0  0  0  0  0  0  0  0  0  0
   -1.2135    2.7256    0.0000 N   0  0  0  0  0  0  0  0  0  0  0  0
  1  2  1  0
  2  3  1  0
  2  4  2  0
  4  5  1  0
  5  6  2  0
  6  7  1  0
  7  8  2  0
  8  9  1  0
  9 10  2  0
 10 11  1  0
 11 12  2  0
 12 13  1  0
 13 14  1  0
 14 15  2  0
 15 16  1  0
 16 17  2  0
 17 18  1  0
 18 19  1  0
 18 20  2  0
 18 21  2  0
 17 22  1  0
 22 23  2  0
 11 24  1  0
 24 25  2  0
 24 26  1  0
 10  5  1  0
 23 14  1  0
 26  9  1  0
M  END
>  <Compound_ID>  (450) 
CHEMBL270544

>  <Molecule Name>  (450) 
GW396574X

>  <Molecular Weight>  (450) 
370.43

>  <AlogP>  (450) 
2.53

>  <Smiles>  (450) 
CC(C)=Cc1cccc2c1/C(=N/Nc1ccc(S(N)(=O)=O)cc1)C(=O)N2

>  <Standard Type>  (450) 
Inhibition

>  <Standard Relation>  (450) 
'='

>  <Standard Units>  (450) 
%

>  <Standard Value>  (450) 
19.63

>  <Assay ChEMBL ID>  (450) 
CHEMBL1962143

>  <Assay Description>  (450) 
GSK_PKIS: MET mean inhibition at 1 uM [Nanosyn]

>  <BAO Format ID>  (450) 
BAO_0000357

>  <BAO Label>  (450) 
single protein format

>  <Assay Organism>  (450) 
None

>  <Target ChEMBL ID>  (450) 
CHEMBL3717

>  <Target Name>  (450) 
Hepatocyte growth factor receptor

>  <Target Organism>  (450) 
Homo sapiens

>  <Target Type>  (450) 
SINGLE PROTEIN

>  <Document ChEMBL ID>  (450) 
CHEMBL1961873

>  <Source Description>  (450) 
GSK Published Kinase Inhibitor Set

>  <Document Journal>  (450) 
nan

>  <Document Year>  (450) 
nan

>  <Active>  (450) 
0.0

$$$$

     RDKit          2D

 25 27  0  0  0  0  0  0  0  0999 V2000
    1.8478   -6.4639    0.0000 O   0  0  0  0  0  0  0  0  0  0  0  0
    2.0046   -4.9721    0.0000 C   0  0  0  0  0  0  0  0  0  0  0  0
    3.3037   -4.2221    0.0000 N   0  0  0  0  0  0  0  0  0  0  0  0
    2.9918   -2.7549    0.0000 C   0  0  0  0  0  0  0  0  0  0  0  0
    3.9955   -1.6402    0.0000 O   0  0  0  0  0  0  0  0  0  0  0  0
    1.5000   -2.5981    0.0000 C   0  0  0  0  0  0  0  0  0  0  0  0
    0.7500   -1.2990    0.0000 C   0  0  0  0  0  0  0  0  0  0  0  0
    1.5000    0.0000    0.0000 C   0  0  0  0  0  0  0  0  0  0  0  0
    0.7500    1.2990    0.0000 C   0  0  0  0  0  0  0  0  0  0  0  0
   -0.7500    1.2990    0.0000 C   0  0  0  0  0  0  0  0  0  0  0  0
   -1.5000    0.0000    0.0000 C   0  0  0  0  0  0  0  0  0  0  0  0
   -3.0000    0.0000    0.0000 Cl  0  0  0  0  0  0  0  0  0  0  0  0
   -0.7500   -1.2990    0.0000 C   0  0  0  0  0  0  0  0  0  0  0  0
    0.8899   -3.9684    0.0000 C   0  0  0  0  0  0  0  0  0  0  0  0
   -0.5773   -4.2803    0.0000 N   0  0  0  0  0  0  0  0  0  0  0  0
   -1.0409   -5.7068    0.0000 C   0  0  0  0  0  0  0  0  0  0  0  0
   -2.5081   -6.0187    0.0000 C   0  0  0  0  0  0  0  0  0  0  0  0
   -2.9716   -7.4453    0.0000 C   0  0  0  0  0  0  0  0  0  0  0  0
   -1.9679   -8.5600    0.0000 C   0  0  0  0  0  0  0  0  0  0  0  0
   -2.4314   -9.9866    0.0000 Cl  0  0  0  0  0  0  0  0  0  0  0  0
   -0.5007   -8.2481    0.0000 C   0  0  0  0  0  0  0  0  0  0  0  0
    0.5030   -9.3629    0.0000 C   0  0  0  0  0  0  0  0  0  0  0  0
    1.9702   -9.0510    0.0000 O   0  0  0  0  0  0  0  0  0  0  0  0
    0.0395  -10.7895    0.0000 O   0  0  0  0  0  0  0  0  0  0  0  0
   -0.0372   -6.8216    0.0000 C   0  0  0  0  0  0  0  0  0  0  0  0
  1  2  2  0
  2  3  1  0
  3  4  1  0
  4  5  2  0
  4  6  1  0
  6  7  1  0
  7  8  2  0
  8  9  1  0
  9 10  2  0
 10 11  1  0
 11 12  1  0
 11 13  2  0
  6 14  2  0
 14 15  1  0
 15 16  1  0
 16 17  2  0
 17 18  1  0
 18 19  2  0
 19 20  1  0
 19 21  1  0
 21 22  1  0
 22 23  2  0
 22 24  1  0
 21 25  2  0
 14  2  1  0
 25 16  1  0
 13  7  1  0
M  END
>  <Compound_ID>  (451) 
CHEMBL156987

>  <Molecule Name>  (451) 
nan

>  <Molecular Weight>  (451) 
377.18

>  <AlogP>  (451) 
3.17

>  <Smiles>  (451) 
O=C1NC(=O)C(c2cccc(Cl)c2)=C1Nc1ccc(Cl)c(C(=O)O)c1

>  <Standard Type>  (451) 
Inhibition

>  <Standard Relation>  (451) 
'='

>  <Standard Units>  (451) 
%

>  <Standard Value>  (451) 
3.65

>  <Assay ChEMBL ID>  (451) 
CHEMBL1962143

>  <Assay Description>  (451) 
GSK_PKIS: MET mean inhibition at 1 uM [Nanosyn]

>  <BAO Format ID>  (451) 
BAO_0000357

>  <BAO Label>  (451) 
single protein format

>  <Assay Organism>  (451) 
None

>  <Target ChEMBL ID>  (451) 
CHEMBL3717

>  <Target Name>  (451) 
Hepatocyte growth factor receptor

>  <Target Organism>  (451) 
Homo sapiens

>  <Target Type>  (451) 
SINGLE PROTEIN

>  <Document ChEMBL ID>  (451) 
CHEMBL1961873

>  <Source Description>  (451) 
GSK Published Kinase Inhibitor Set

>  <Document Journal>  (451) 
nan

>  <Document Year>  (451) 
nan

>  <Active>  (451) 
0.0

$$$$

     RDKit          2D

 34 38  0  0  0  0  0  0  0  0999 V2000
   11.8391  -10.8663    0.0000 C   0  0  0  0  0  0  0  0  0  0  0  0
   10.4688  -10.2562    0.0000 N   0  0  0  0  0  0  0  0  0  0  0  0
    9.2553  -11.1379    0.0000 C   0  0  0  0  0  0  0  0  0  0  0  0
   10.3120   -8.7644    0.0000 C   0  0  0  0  0  0  0  0  0  0  0  0
    8.9417   -8.1543    0.0000 C   0  0  0  0  0  0  0  0  0  0  0  0
    8.7849   -6.6625    0.0000 O   0  0  0  0  0  0  0  0  0  0  0  0
    7.4146   -6.0524    0.0000 C   0  0  0  0  0  0  0  0  0  0  0  0
    6.2011   -6.9341    0.0000 C   0  0  0  0  0  0  0  0  0  0  0  0
    4.8308   -6.3240    0.0000 C   0  0  0  0  0  0  0  0  0  0  0  0
    4.6740   -4.8322    0.0000 C   0  0  0  0  0  0  0  0  0  0  0  0
    3.3037   -4.2221    0.0000 C   0  0  0  0  0  0  0  0  0  0  0  0
    2.0046   -4.9721    0.0000 N   0  0  0  0  0  0  0  0  0  0  0  0
    0.8899   -3.9684    0.0000 C   0  0  0  0  0  0  0  0  0  0  0  0
   -0.5773   -4.2803    0.0000 C   0  0  0  0  0  0  0  0  0  0  0  0
   -1.5810   -3.1655    0.0000 C   0  0  0  0  0  0  0  0  0  0  0  0
   -3.0482   -3.4774    0.0000 C   0  0  0  0  0  0  0  0  0  0  0  0
   -3.5118   -4.9040    0.0000 N   0  0  0  0  0  0  0  0  0  0  0  0
   -2.5081   -6.0187    0.0000 C   0  0  0  0  0  0  0  0  0  0  0  0
   -1.0409   -5.7068    0.0000 C   0  0  0  0  0  0  0  0  0  0  0  0
    1.5000   -2.5981    0.0000 C   0  0  0  0  0  0  0  0  0  0  0  0
    0.7500   -1.2990    0.0000 C   0  0  0  0  0  0  0  0  0  0  0  0
    1.5000    0.0000    0.0000 C   0  0  0  0  0  0  0  0  0  0  0  0
    0.7500    1.2990    0.0000 C   0  0  0  0  0  0  0  0  0  0  0  0
   -0.7500    1.2990    0.0000 C   0  0  0  0  0  0  0  0  0  0  0  0
   -1.5000    0.0000    0.0000 C   0  0  0  0  0  0  0  0  0  0  0  0
   -0.7500   -1.2990    0.0000 C   0  0  0  0  0  0  0  0  0  0  0  0
   -2.9672    0.3119    0.0000 C   0  0  0  0  0  0  0  0  0  0  0  0
   -3.1240    1.8037    0.0000 C   0  0  0  0  0  0  0  0  0  0  0  0
   -1.7537    2.4138    0.0000 C   0  0  0  0  0  0  0  0  0  0  0  0
   -1.4418    3.8810    0.0000 N   0  0  0  0  0  0  0  0  0  0  0  0
   -2.5565    4.8847    0.0000 O   0  0  0  0  0  0  0  0  0  0  0  0
    2.9918   -2.7549    0.0000 N   0  0  0  0  0  0  0  0  0  0  0  0
    5.8875   -3.9505    0.0000 C   0  0  0  0  0  0  0  0  0  0  0  0
    7.2578   -4.5606    0.0000 C   0  0  0  0  0  0  0  0  0  0  0  0
  1  2  1  0
  2  3  1  0
  2  4  1  0
  4  5  1  0
  5  6  1  0
  6  7  1  0
  7  8  2  0
  8  9  1  0
  9 10  2  0
 10 11  1  0
 11 12  2  0
 12 13  1  0
 13 14  1  0
 14 15  2  0
 15 16  1  0
 16 17  2  0
 17 18  1  0
 18 19  2  0
 13 20  2  0
 20 21  1  0
 21 22  2  0
 22 23  1  0
 23 24  2  0
 24 25  1  0
 25 26  2  0
 25 27  1  0
 27 28  1  0
 28 29  1  0
 29 30  2  0
 30 31  1  0
 20 32  1  0
 10 33  1  0
 33 34  2  0
 34  7  1  0
 32 11  1  0
 19 14  1  0
 26 21  1  0
 29 24  1  0
M  END
>  <Compound_ID>  (452) 
CHEMBL1909414

>  <Molecule Name>  (452) 
nan

>  <Molecular Weight>  (452) 
508.02

>  <AlogP>  (452) 
4.87

>  <Smiles>  (452) 
CN(C)CCOc1ccc(-c2nc(-c3ccncc3)c(-c3ccc4c(c3)CC/C4=N\O)[nH]2)cc1

>  <Standard Type>  (452) 
Inhibition

>  <Standard Relation>  (452) 
'='

>  <Standard Units>  (452) 
%

>  <Standard Value>  (452) 
3.76

>  <Assay ChEMBL ID>  (452) 
CHEMBL1962142

>  <Assay Description>  (452) 
GSK_PKIS: MET mean inhibition at 0.1 uM [Nanosyn]

>  <BAO Format ID>  (452) 
BAO_0000357

>  <BAO Label>  (452) 
single protein format

>  <Assay Organism>  (452) 
None

>  <Target ChEMBL ID>  (452) 
CHEMBL3717

>  <Target Name>  (452) 
Hepatocyte growth factor receptor

>  <Target Organism>  (452) 
Homo sapiens

>  <Target Type>  (452) 
SINGLE PROTEIN

>  <Document ChEMBL ID>  (452) 
CHEMBL1961873

>  <Source Description>  (452) 
GSK Published Kinase Inhibitor Set

>  <Document Journal>  (452) 
nan

>  <Document Year>  (452) 
nan

>  <Active>  (452) 
0.0

$$$$

     RDKit          2D

 27 30  0  0  0  0  0  0  0  0999 V2000
   -0.0000   -5.1073    0.0000 O   0  0  0  0  0  0  0  0  0  0  0  0
   -0.0000   -3.6073    0.0000 C   0  0  0  0  0  0  0  0  0  0  0  0
    1.2135   -2.7256    0.0000 N   0  0  0  0  0  0  0  0  0  0  0  0
    0.7500   -1.2990    0.0000 C   0  0  0  0  0  0  0  0  0  0  0  0
    1.5000    0.0000    0.0000 C   0  0  0  0  0  0  0  0  0  0  0  0
    0.7500    1.2990    0.0000 C   0  0  0  0  0  0  0  0  0  0  0  0
   -0.7500    1.2990    0.0000 C   0  0  0  0  0  0  0  0  0  0  0  0
   -1.5000    2.5981    0.0000 C   0  0  0  0  0  0  0  0  0  0  0  0
   -3.0000    2.5981    0.0000 O   0  0  0  0  0  0  0  0  0  0  0  0
   -0.7500    3.8971    0.0000 C   0  0  0  0  0  0  0  0  0  0  0  0
   -1.3601    5.2674    0.0000 C   0  0  0  0  0  0  0  0  0  0  0  0
   -0.2454    6.2711    0.0000 C   0  0  0  0  0  0  0  0  0  0  0  0
    1.0537    5.5211    0.0000 C   0  0  0  0  0  0  0  0  0  0  0  0
    0.7418    4.0539    0.0000 O   0  0  0  0  0  0  0  0  0  0  0  0
   -1.5000    0.0000    0.0000 C   0  0  0  0  0  0  0  0  0  0  0  0
   -0.7500   -1.2990    0.0000 C   0  0  0  0  0  0  0  0  0  0  0  0
   -1.2135   -2.7256    0.0000 C   0  0  0  0  0  0  0  0  0  0  0  0
   -2.6401   -3.1891    0.0000 C   0  0  0  0  0  0  0  0  0  0  0  0
   -2.9520   -4.6564    0.0000 C   0  0  0  0  0  0  0  0  0  0  0  0
   -4.3786   -5.1199    0.0000 C   0  0  0  0  0  0  0  0  0  0  0  0
   -4.6904   -6.5871    0.0000 C   0  0  0  0  0  0  0  0  0  0  0  0
   -6.1170   -7.0506    0.0000 Cl  0  0  0  0  0  0  0  0  0  0  0  0
   -3.5757   -7.5908    0.0000 C   0  0  0  0  0  0  0  0  0  0  0  0
   -3.8876   -9.0580    0.0000 O   0  0  0  0  0  0  0  0  0  0  0  0
   -2.1491   -7.1273    0.0000 C   0  0  0  0  0  0  0  0  0  0  0  0
   -1.0344   -8.1310    0.0000 Cl  0  0  0  0  0  0  0  0  0  0  0  0
   -1.8373   -5.6601    0.0000 C   0  0  0  0  0  0  0  0  0  0  0  0
  1  2  2  0
  2  3  1  0
  3  4  1  0
  4  5  2  0
  5  6  1  0
  6  7  2  0
  7  8  1  0
  8  9  2  0
  8 10  1  0
 10 11  2  0
 11 12  1  0
 12 13  2  0
 13 14  1  0
  7 15  1  0
 15 16  2  0
 16 17  1  0
 17 18  2  3
 18 19  1  0
 19 20  2  0
 20 21  1  0
 21 22  1  0
 21 23  2  0
 23 24  1  0
 23 25  1  0
 25 26  1  0
 25 27  2  0
 17  2  1  0
 27 19  1  0
 16  4  1  0
 14 10  1  0
M  END
>  <Compound_ID>  (453) 
CHEMBL1789963

>  <Molecule Name>  (453) 
GW406108X

>  <Molecular Weight>  (453) 
400.22

>  <AlogP>  (453) 
5.02

>  <Smiles>  (453) 
O=C1Nc2ccc(C(=O)c3ccco3)cc2C1=Cc1cc(Cl)c(O)c(Cl)c1

>  <Standard Type>  (453) 
Inhibition

>  <Standard Relation>  (453) 
'='

>  <Standard Units>  (453) 
%

>  <Standard Value>  (453) 
2.06

>  <Assay ChEMBL ID>  (453) 
CHEMBL1962142

>  <Assay Description>  (453) 
GSK_PKIS: MET mean inhibition at 0.1 uM [Nanosyn]

>  <BAO Format ID>  (453) 
BAO_0000357

>  <BAO Label>  (453) 
single protein format

>  <Assay Organism>  (453) 
None

>  <Target ChEMBL ID>  (453) 
CHEMBL3717

>  <Target Name>  (453) 
Hepatocyte growth factor receptor

>  <Target Organism>  (453) 
Homo sapiens

>  <Target Type>  (453) 
SINGLE PROTEIN

>  <Document ChEMBL ID>  (453) 
CHEMBL1961873

>  <Source Description>  (453) 
GSK Published Kinase Inhibitor Set

>  <Document Journal>  (453) 
nan

>  <Document Year>  (453) 
nan

>  <Active>  (453) 
0.0

$$$$

     RDKit          2D

 37 41  0  0  0  0  0  0  0  0999 V2000
  -11.8224   -6.1165    0.0000 C   0  0  0  0  0  0  0  0  0  0  0  0
  -10.9407   -4.9030    0.0000 C   0  0  0  0  0  0  0  0  0  0  0  0
  -11.5508   -3.5327    0.0000 O   0  0  0  0  0  0  0  0  0  0  0  0
   -9.4490   -5.0598    0.0000 N   0  0  0  0  0  0  0  0  0  0  0  0
   -8.4453   -3.9451    0.0000 C   0  0  0  0  0  0  0  0  0  0  0  0
   -7.0749   -4.5552    0.0000 C   0  0  0  0  0  0  0  0  0  0  0  0
   -7.2317   -6.0469    0.0000 C   0  0  0  0  0  0  0  0  0  0  0  0
   -6.1170   -7.0506    0.0000 N   0  0  0  0  0  0  0  0  0  0  0  0
   -4.6904   -6.5871    0.0000 C   0  0  0  0  0  0  0  0  0  0  0  0
   -3.5757   -7.5908    0.0000 C   0  0  0  0  0  0  0  0  0  0  0  0
   -2.1491   -7.1273    0.0000 N   0  0  0  0  0  0  0  0  0  0  0  0
   -1.8373   -5.6601    0.0000 C   0  0  0  0  0  0  0  0  0  0  0  0
   -2.9520   -4.6564    0.0000 C   0  0  0  0  0  0  0  0  0  0  0  0
   -2.6401   -3.1891    0.0000 C   0  0  0  0  0  0  0  0  0  0  0  0
   -3.7548   -2.1855    0.0000 O   0  0  0  0  0  0  0  0  0  0  0  0
   -1.2135   -2.7256    0.0000 C   0  0  0  0  0  0  0  0  0  0  0  0
   -0.0000   -3.6073    0.0000 C   0  0  0  0  0  0  0  0  0  0  0  0
    1.2135   -2.7256    0.0000 N   0  0  0  0  0  0  0  0  0  0  0  0
    2.6401   -3.1891    0.0000 C   0  0  0  0  0  0  0  0  0  0  0  0
    2.9520   -4.6564    0.0000 C   0  0  0  0  0  0  0  0  0  0  0  0
    3.7548   -2.1855    0.0000 C   0  0  0  0  0  0  0  0  0  0  0  0
    0.7500   -1.2990    0.0000 C   0  0  0  0  0  0  0  0  0  0  0  0
    1.5000    0.0000    0.0000 N   0  0  0  0  0  0  0  0  0  0  0  0
    0.7500    1.2990    0.0000 C   0  0  0  0  0  0  0  0  0  0  0  0
   -0.7500    1.2990    0.0000 N   0  0  0  0  0  0  0  0  0  0  0  0
   -1.5000    0.0000    0.0000 C   0  0  0  0  0  0  0  0  0  0  0  0
   -3.0000    0.0000    0.0000 N   0  0  0  0  0  0  0  0  0  0  0  0
   -0.7500   -1.2990    0.0000 C   0  0  0  0  0  0  0  0  0  0  0  0
   -4.3786   -5.1199    0.0000 N   0  0  0  0  0  0  0  0  0  0  0  0
   -8.6990   -6.3588    0.0000 C   0  0  0  0  0  0  0  0  0  0  0  0
   -9.3091   -7.7291    0.0000 C   0  0  0  0  0  0  0  0  0  0  0  0
   -8.4274   -8.9427    0.0000 C   0  0  0  0  0  0  0  0  0  0  0  0
   -9.0375  -10.3130    0.0000 C   0  0  0  0  0  0  0  0  0  0  0  0
  -10.5293  -10.4698    0.0000 C   0  0  0  0  0  0  0  0  0  0  0  0
  -11.1394  -11.8401    0.0000 F   0  0  0  0  0  0  0  0  0  0  0  0
  -11.4109   -9.2562    0.0000 C   0  0  0  0  0  0  0  0  0  0  0  0
  -10.8008   -7.8859    0.0000 C   0  0  0  0  0  0  0  0  0  0  0  0
  1  2  1  0
  2  3  2  0
  2  4  1  0
  4  5  1  0
  5  6  1  0
  6  7  1  0
  7  8  1  1
  8  9  1  0
  9 10  2  0
 10 11  1  0
 11 12  2  0
 12 13  1  0
 13 14  1  0
 14 15  2  0
 14 16  1  0
 16 17  2  0
 17 18  1  0
 18 19  1  0
 19 20  1  0
 19 21  1  0
 18 22  1  0
 22 23  2  0
 23 24  1  0
 24 25  2  0
 25 26  1  0
 26 27  1  0
 26 28  2  0
 13 29  2  0
  7 30  1  0
 30 31  1  1
 31 32  2  0
 32 33  1  0
 33 34  2  0
 34 35  1  0
 34 36  1  0
 36 37  2  0
 30  4  1  0
 37 31  1  0
 29  9  1  0
 28 16  1  0
 28 22  1  0
M  END
>  <Compound_ID>  (454) 
CHEMBL1940252

>  <Molecule Name>  (454) 
nan

>  <Molecular Weight>  (454) 
502.55

>  <AlogP>  (454) 
3.53

>  <Smiles>  (454) 
CC(=O)N1CC[C@@H](Nc2cncc(C(=O)c3cn(C(C)C)c4ncnc(N)c34)n2)[C@H]1c1ccc(F)cc1

>  <Standard Type>  (454) 
Inhibition

>  <Standard Relation>  (454) 
'='

>  <Standard Units>  (454) 
%

>  <Standard Value>  (454) 
8.0

>  <Assay ChEMBL ID>  (454) 
CHEMBL1942191

>  <Assay Description>  (454) 
Inhibition of MET at 1 uM

>  <BAO Format ID>  (454) 
BAO_0000357

>  <BAO Label>  (454) 
single protein format

>  <Assay Organism>  (454) 
None

>  <Target ChEMBL ID>  (454) 
CHEMBL3717

>  <Target Name>  (454) 
Hepatocyte growth factor receptor

>  <Target Organism>  (454) 
Homo sapiens

>  <Target Type>  (454) 
SINGLE PROTEIN

>  <Document ChEMBL ID>  (454) 
CHEMBL1938337

>  <Source Description>  (454) 
Scientific Literature

>  <Document Journal>  (454) 
J Med Chem

>  <Document Year>  (454) 
2011.0

>  <Active>  (454) 
0.0

$$$$

     RDKit          2D

 25 28  0  0  0  0  0  0  0  0999 V2000
    3.0000   -7.7942    0.0000 C   0  0  0  0  0  0  0  0  0  0  0  0
    3.7500   -6.4952    0.0000 O   0  0  0  0  0  0  0  0  0  0  0  0
    3.0000   -5.1962    0.0000 C   0  0  0  0  0  0  0  0  0  0  0  0
    1.5000   -5.1962    0.0000 C   0  0  0  0  0  0  0  0  0  0  0  0
    0.7500   -3.8971    0.0000 C   0  0  0  0  0  0  0  0  0  0  0  0
    1.5000   -2.5981    0.0000 C   0  0  0  0  0  0  0  0  0  0  0  0
    0.7500   -1.2990    0.0000 C   0  0  0  0  0  0  0  0  0  0  0  0
    1.5000    0.0000    0.0000 C   0  0  0  0  0  0  0  0  0  0  0  0
    0.7500    1.2990    0.0000 C   0  0  0  0  0  0  0  0  0  0  0  0
    1.2135    2.7256    0.0000 N   0  0  0  0  0  0  0  0  0  0  0  0
    0.0000    3.6073    0.0000 N   0  0  0  0  0  0  0  0  0  0  0  0
    0.0000    5.1073    0.0000 C   0  0  0  0  0  0  0  0  0  0  0  0
    1.2990    5.8573    0.0000 C   0  0  0  0  0  0  0  0  0  0  0  0
    1.2990    7.3573    0.0000 C   0  0  0  0  0  0  0  0  0  0  0  0
    0.0000    8.1073    0.0000 C   0  0  0  0  0  0  0  0  0  0  0  0
   -1.2990    7.3573    0.0000 C   0  0  0  0  0  0  0  0  0  0  0  0
   -1.2990    5.8573    0.0000 C   0  0  0  0  0  0  0  0  0  0  0  0
   -1.2135    2.7256    0.0000 C   0  0  0  0  0  0  0  0  0  0  0  0
   -2.6401    3.1891    0.0000 N   0  0  0  0  0  0  0  0  0  0  0  0
   -0.7500    1.2990    0.0000 C   0  0  0  0  0  0  0  0  0  0  0  0
   -1.5000    0.0000    0.0000 C   0  0  0  0  0  0  0  0  0  0  0  0
   -3.0000    0.0000    0.0000 O   0  0  0  0  0  0  0  0  0  0  0  0
   -0.7500   -1.2990    0.0000 N   0  0  0  0  0  0  0  0  0  0  0  0
    3.0000   -2.5981    0.0000 C   0  0  0  0  0  0  0  0  0  0  0  0
    3.7500   -3.8971    0.0000 C   0  0  0  0  0  0  0  0  0  0  0  0
  1  2  1  0
  2  3  1  0
  3  4  2  0
  4  5  1  0
  5  6  2  0
  6  7  1  0
  7  8  2  0
  8  9  1  0
  9 10  2  0
 10 11  1  0
 11 12  1  0
 12 13  2  0
 13 14  1  0
 14 15  2  0
 15 16  1  0
 16 17  2  0
 11 18  1  0
 18 19  1  0
 18 20  2  0
 20 21  1  0
 21 22  2  0
 21 23  1  0
  6 24  1  0
 24 25  2  0
 25  3  1  0
 23  7  1  0
 20  9  1  0
 17 12  1  0
M  END
>  <Compound_ID>  (455) 
CHEMBL1813793

>  <Molecule Name>  (455) 
nan

>  <Molecular Weight>  (455) 
332.36

>  <AlogP>  (455) 
2.97

>  <Smiles>  (455) 
COc1ccc(-c2cc3nn(-c4ccccc4)c(N)c3c(=O)[nH]2)cc1

>  <Standard Type>  (455) 
Inhibition

>  <Standard Relation>  (455) 
'='

>  <Standard Units>  (455) 
%

>  <Standard Value>  (455) 
7.0

>  <Assay ChEMBL ID>  (455) 
CHEMBL1815730

>  <Assay Description>  (455) 
Inhibition of MET at 30 uM by microfluidic mobility shift assay

>  <BAO Format ID>  (455) 
BAO_0000357

>  <BAO Label>  (455) 
single protein format

>  <Assay Organism>  (455) 
None

>  <Target ChEMBL ID>  (455) 
CHEMBL3717

>  <Target Name>  (455) 
Hepatocyte growth factor receptor

>  <Target Organism>  (455) 
Homo sapiens

>  <Target Type>  (455) 
SINGLE PROTEIN

>  <Document ChEMBL ID>  (455) 
CHEMBL1811853

>  <Source Description>  (455) 
Scientific Literature

>  <Document Journal>  (455) 
Bioorg Med Chem

>  <Document Year>  (455) 
2011.0

>  <Active>  (455) 
0.0

$$$$

     RDKit          2D

 18 20  0  0  0  0  0  0  0  0999 V2000
    2.7760    0.0000    0.0000 N   0  0  0  0  0  0  0  0  0  0  0  0
    1.2760    0.0000    0.0000 C   0  0  0  0  0  0  0  0  0  0  0  0
    0.3943    1.2135    0.0000 N   0  0  0  0  0  0  0  0  0  0  0  0
   -1.0323    0.7500    0.0000 N   0  0  0  0  0  0  0  0  0  0  0  0
   -1.0323   -0.7500    0.0000 C   0  0  0  0  0  0  0  0  0  0  0  0
   -2.1470   -1.7537    0.0000 C   0  0  0  0  0  0  0  0  0  0  0  0
   -1.8351   -3.2209    0.0000 C   0  0  0  0  0  0  0  0  0  0  0  0
   -2.9499   -4.2246    0.0000 C   0  0  0  0  0  0  0  0  0  0  0  0
   -4.3764   -3.7611    0.0000 C   0  0  0  0  0  0  0  0  0  0  0  0
   -4.6883   -2.2939    0.0000 C   0  0  0  0  0  0  0  0  0  0  0  0
   -6.1149   -1.8303    0.0000 C   0  0  0  0  0  0  0  0  0  0  0  0
   -7.2296   -2.8340    0.0000 N   0  0  0  0  0  0  0  0  0  0  0  0
   -6.9177   -4.3013    0.0000 C   0  0  0  0  0  0  0  0  0  0  0  0
   -5.4912   -4.7648    0.0000 C   0  0  0  0  0  0  0  0  0  0  0  0
   -0.4086   -3.6844    0.0000 N   0  0  0  0  0  0  0  0  0  0  0  0
    0.7062   -2.6807    0.0000 C   0  0  0  0  0  0  0  0  0  0  0  0
    2.1328   -3.1443    0.0000 O   0  0  0  0  0  0  0  0  0  0  0  0
    0.3943   -1.2135    0.0000 C   0  0  0  0  0  0  0  0  0  0  0  0
  1  2  1  0
  2  3  2  0
  3  4  1  0
  4  5  1  0
  5  6  1  0
  6  7  2  0
  7  8  1  0
  8  9  1  0
  9 10  1  0
 10 11  1  0
 11 12  1  0
 12 13  1  0
 13 14  1  0
  7 15  1  0
 15 16  1  0
 16 17  2  0
 16 18  1  0
 18  2  1  0
 18  5  2  0
 14  9  1  0
M  END
>  <Compound_ID>  (456) 
CHEMBL1813615

>  <Molecule Name>  (456) 
nan

>  <Molecular Weight>  (456) 
247.30

>  <AlogP>  (456) 
0.38

>  <Smiles>  (456) 
Nc1n[nH]c2cc(CC3CCNCC3)[nH]c(=O)c12

>  <Standard Type>  (456) 
Inhibition

>  <Standard Relation>  (456) 
'='

>  <Standard Units>  (456) 
%

>  <Standard Value>  (456) 
-1.0

>  <Assay ChEMBL ID>  (456) 
CHEMBL1815730

>  <Assay Description>  (456) 
Inhibition of MET at 30 uM by microfluidic mobility shift assay

>  <BAO Format ID>  (456) 
BAO_0000357

>  <BAO Label>  (456) 
single protein format

>  <Assay Organism>  (456) 
None

>  <Target ChEMBL ID>  (456) 
CHEMBL3717

>  <Target Name>  (456) 
Hepatocyte growth factor receptor

>  <Target Organism>  (456) 
Homo sapiens

>  <Target Type>  (456) 
SINGLE PROTEIN

>  <Document ChEMBL ID>  (456) 
CHEMBL1811853

>  <Source Description>  (456) 
Scientific Literature

>  <Document Journal>  (456) 
Bioorg Med Chem

>  <Document Year>  (456) 
2011.0

>  <Active>  (456) 
0.0

$$$$

     RDKit          2D

 24 27  0  0  0  0  0  0  0  0999 V2000
    1.7745   13.9550    0.0000 C   0  0  0  0  0  0  0  0  0  0  0  0
    1.4627   12.4878    0.0000 N   0  0  0  0  0  0  0  0  0  0  0  0
    2.5774   11.4841    0.0000 C   0  0  0  0  0  0  0  0  0  0  0  0
    2.2655   10.0169    0.0000 C   0  0  0  0  0  0  0  0  0  0  0  0
    0.8389    9.5533    0.0000 N   0  0  0  0  0  0  0  0  0  0  0  0
    0.5271    8.0861    0.0000 C   0  0  0  0  0  0  0  0  0  0  0  0
   -0.8995    7.6226    0.0000 C   0  0  0  0  0  0  0  0  0  0  0  0
   -1.2114    6.1554    0.0000 C   0  0  0  0  0  0  0  0  0  0  0  0
   -0.0967    5.1517    0.0000 C   0  0  0  0  0  0  0  0  0  0  0  0
   -0.4086    3.6844    0.0000 C   0  0  0  0  0  0  0  0  0  0  0  0
    0.7062    2.6807    0.0000 C   0  0  0  0  0  0  0  0  0  0  0  0
    0.3943    1.2135    0.0000 C   0  0  0  0  0  0  0  0  0  0  0  0
    1.2760    0.0000    0.0000 N   0  0  0  0  0  0  0  0  0  0  0  0
    0.3943   -1.2135    0.0000 N   0  0  0  0  0  0  0  0  0  0  0  0
   -1.0323   -0.7500    0.0000 C   0  0  0  0  0  0  0  0  0  0  0  0
   -2.2458   -1.6317    0.0000 N   0  0  0  0  0  0  0  0  0  0  0  0
   -1.0323    0.7500    0.0000 C   0  0  0  0  0  0  0  0  0  0  0  0
   -2.1470    1.7537    0.0000 C   0  0  0  0  0  0  0  0  0  0  0  0
   -3.5736    1.2902    0.0000 O   0  0  0  0  0  0  0  0  0  0  0  0
   -1.8351    3.2209    0.0000 N   0  0  0  0  0  0  0  0  0  0  0  0
    1.3299    5.6152    0.0000 C   0  0  0  0  0  0  0  0  0  0  0  0
    1.6418    7.0824    0.0000 C   0  0  0  0  0  0  0  0  0  0  0  0
   -0.2758   10.5570    0.0000 C   0  0  0  0  0  0  0  0  0  0  0  0
    0.0361   12.0242    0.0000 C   0  0  0  0  0  0  0  0  0  0  0  0
  1  2  1  0
  2  3  1  0
  3  4  1  0
  4  5  1  0
  5  6  1  0
  6  7  2  0
  7  8  1  0
  8  9  2  0
  9 10  1  0
 10 11  2  0
 11 12  1  0
 12 13  1  0
 13 14  1  0
 14 15  2  0
 15 16  1  0
 15 17  1  0
 17 18  1  0
 18 19  2  0
 18 20  1  0
  9 21  1  0
 21 22  2  0
  5 23  1  0
 23 24  1  0
 24  2  1  0
 22  6  1  0
 20 10  1  0
 17 12  2  0
M  END
>  <Compound_ID>  (457) 
CHEMBL1813611

>  <Molecule Name>  (457) 
nan

>  <Molecular Weight>  (457) 
324.39

>  <AlogP>  (457) 
1.25

>  <Smiles>  (457) 
CN1CCN(c2ccc(-c3cc4[nH]nc(N)c4c(=O)[nH]3)cc2)CC1

>  <Standard Type>  (457) 
Inhibition

>  <Standard Relation>  (457) 
'='

>  <Standard Units>  (457) 
%

>  <Standard Value>  (457) 
18.0

>  <Assay ChEMBL ID>  (457) 
CHEMBL1815730

>  <Assay Description>  (457) 
Inhibition of MET at 30 uM by microfluidic mobility shift assay

>  <BAO Format ID>  (457) 
BAO_0000357

>  <BAO Label>  (457) 
single protein format

>  <Assay Organism>  (457) 
None

>  <Target ChEMBL ID>  (457) 
CHEMBL3717

>  <Target Name>  (457) 
Hepatocyte growth factor receptor

>  <Target Organism>  (457) 
Homo sapiens

>  <Target Type>  (457) 
SINGLE PROTEIN

>  <Document ChEMBL ID>  (457) 
CHEMBL1811853

>  <Source Description>  (457) 
Scientific Literature

>  <Document Journal>  (457) 
Bioorg Med Chem

>  <Document Year>  (457) 
2011.0

>  <Active>  (457) 
0.0

$$$$

     RDKit          2D

 36 40  0  0  0  0  0  0  0  0999 V2000
   -2.0143    8.6263    0.0000 C   0  0  0  0  0  0  0  0  0  0  0  0
   -3.4408    8.1628    0.0000 C   0  0  0  0  0  0  0  0  0  0  0  0
   -3.7527    6.6955    0.0000 C   0  0  0  0  0  0  0  0  0  0  0  0
   -2.6380    5.6918    0.0000 C   0  0  0  0  0  0  0  0  0  0  0  0
   -1.2114    6.1554    0.0000 O   0  0  0  0  0  0  0  0  0  0  0  0
   -2.9499    4.2246    0.0000 N   0  0  0  0  0  0  0  0  0  0  0  0
   -1.8351    3.2209    0.0000 C   0  0  0  0  0  0  0  0  0  0  0  0
   -0.4086    3.6844    0.0000 C   0  0  0  0  0  0  0  0  0  0  0  0
    0.7062    2.6807    0.0000 C   0  0  0  0  0  0  0  0  0  0  0  0
    0.3943    1.2135    0.0000 C   0  0  0  0  0  0  0  0  0  0  0  0
    1.2760    0.0000    0.0000 N   0  0  0  0  0  0  0  0  0  0  0  0
    0.3943   -1.2135    0.0000 N   0  0  0  0  0  0  0  0  0  0  0  0
   -1.0323   -0.7500    0.0000 C   0  0  0  0  0  0  0  0  0  0  0  0
   -1.0323    0.7500    0.0000 C   0  0  0  0  0  0  0  0  0  0  0  0
   -2.1470    1.7537    0.0000 C   0  0  0  0  0  0  0  0  0  0  0  0
   -5.1793    6.2320    0.0000 C   0  0  0  0  0  0  0  0  0  0  0  0
   -5.4912    4.7648    0.0000 C   0  0  0  0  0  0  0  0  0  0  0  0
   -6.9177    4.3013    0.0000 C   0  0  0  0  0  0  0  0  0  0  0  0
   -7.2296    2.8340    0.0000 C   0  0  0  0  0  0  0  0  0  0  0  0
   -6.1149    1.8303    0.0000 C   0  0  0  0  0  0  0  0  0  0  0  0
   -6.4268    0.3631    0.0000 F   0  0  0  0  0  0  0  0  0  0  0  0
   -4.6883    2.2939    0.0000 C   0  0  0  0  0  0  0  0  0  0  0  0
   -4.3764    3.7611    0.0000 C   0  0  0  0  0  0  0  0  0  0  0  0
   -6.2940    7.2357    0.0000 N   0  0  0  0  0  0  0  0  0  0  0  0
   -5.9821    8.7029    0.0000 C   0  0  0  0  0  0  0  0  0  0  0  0
   -7.0969    9.7066    0.0000 C   0  0  0  0  0  0  0  0  0  0  0  0
   -6.7850   11.1738    0.0000 C   0  0  0  0  0  0  0  0  0  0  0  0
   -7.8997   12.1775    0.0000 C   0  0  0  0  0  0  0  0  0  0  0  0
   -9.3263   11.7140    0.0000 C   0  0  0  0  0  0  0  0  0  0  0  0
  -10.4410   12.7177    0.0000 C   0  0  0  0  0  0  0  0  0  0  0  0
  -11.5557   13.7214    0.0000 F   0  0  0  0  0  0  0  0  0  0  0  0
   -9.4373   13.8324    0.0000 F   0  0  0  0  0  0  0  0  0  0  0  0
  -11.4447   11.6030    0.0000 F   0  0  0  0  0  0  0  0  0  0  0  0
   -9.6382   10.2468    0.0000 N   0  0  0  0  0  0  0  0  0  0  0  0
   -8.5234    9.2431    0.0000 C   0  0  0  0  0  0  0  0  0  0  0  0
   -4.5556    9.1664    0.0000 N   0  0  0  0  0  0  0  0  0  0  0  0
  1  2  1  0
  2  3  2  0
  3  4  1  0
  4  5  2  0
  4  6  1  0
  6  7  1  0
  7  8  2  0
  8  9  1  0
  9 10  2  0
 10 11  1  0
 11 12  1  0
 12 13  2  0
 13 14  1  0
 14 15  2  0
  3 16  1  0
 16 17  1  0
 17 18  2  0
 18 19  1  0
 19 20  2  0
 20 21  1  0
 20 22  1  0
 22 23  2  0
 16 24  1  0
 24 25  2  0
 25 26  1  0
 26 27  2  0
 27 28  1  0
 28 29  2  0
 29 30  1  0
 30 31  1  0
 30 32  1  0
 30 33  1  0
 29 34  1  0
 34 35  2  0
 25 36  1  0
 36  2  1  0
 15  7  1  0
 23 17  1  0
 35 26  1  0
 14 10  1  0
M  END
>  <Compound_ID>  (458) 
CHEMBL485598

>  <Molecule Name>  (458) 
GSK-317354A

>  <Molecular Weight>  (458) 
494.45

>  <AlogP>  (458) 
5.12

>  <Smiles>  (458) 
CC1=C(C(=O)Nc2ccc3[nH]ncc3c2)C(c2ccc(F)cc2)N=C(c2ccc(C(F)(F)F)nc2)N1

>  <Standard Type>  (458) 
Inhibition

>  <Standard Relation>  (458) 
'='

>  <Standard Units>  (458) 
%

>  <Standard Value>  (458) 
3.67

>  <Assay ChEMBL ID>  (458) 
CHEMBL1962142

>  <Assay Description>  (458) 
GSK_PKIS: MET mean inhibition at 0.1 uM [Nanosyn]

>  <BAO Format ID>  (458) 
BAO_0000357

>  <BAO Label>  (458) 
single protein format

>  <Assay Organism>  (458) 
None

>  <Target ChEMBL ID>  (458) 
CHEMBL3717

>  <Target Name>  (458) 
Hepatocyte growth factor receptor

>  <Target Organism>  (458) 
Homo sapiens

>  <Target Type>  (458) 
SINGLE PROTEIN

>  <Document ChEMBL ID>  (458) 
CHEMBL1961873

>  <Source Description>  (458) 
GSK Published Kinase Inhibitor Set

>  <Document Journal>  (458) 
nan

>  <Document Year>  (458) 
nan

>  <Active>  (458) 
0.0

$$$$

     RDKit          2D

 29 33  0  0  0  0  0  0  0  0999 V2000
    0.0000   -9.6073    0.0000 Cl  0  0  0  0  0  0  0  0  0  0  0  0
    0.0000   -8.1073    0.0000 C   0  0  0  0  0  0  0  0  0  0  0  0
   -1.2990   -7.3573    0.0000 C   0  0  0  0  0  0  0  0  0  0  0  0
   -1.2990   -5.8573    0.0000 C   0  0  0  0  0  0  0  0  0  0  0  0
   -0.0000   -5.1073    0.0000 C   0  0  0  0  0  0  0  0  0  0  0  0
   -0.0000   -3.6073    0.0000 C   0  0  0  0  0  0  0  0  0  0  0  0
    1.2135   -2.7256    0.0000 N   0  0  0  0  0  0  0  0  0  0  0  0
    0.7500   -1.2990    0.0000 N   0  0  0  0  0  0  0  0  0  0  0  0
    1.5000    0.0000    0.0000 N   0  0  0  0  0  0  0  0  0  0  0  0
    0.7500    1.2990    0.0000 C   0  0  0  0  0  0  0  0  0  0  0  0
   -0.7500    1.2990    0.0000 C   0  0  0  0  0  0  0  0  0  0  0  0
   -1.5000    0.0000    0.0000 C   0  0  0  0  0  0  0  0  0  0  0  0
   -0.7500   -1.2990    0.0000 C   0  0  0  0  0  0  0  0  0  0  0  0
   -1.2135   -2.7256    0.0000 C   0  0  0  0  0  0  0  0  0  0  0  0
   -2.6401   -3.1891    0.0000 C   0  0  0  0  0  0  0  0  0  0  0  0
   -3.7548   -2.1855    0.0000 C   0  0  0  0  0  0  0  0  0  0  0  0
   -5.1814   -2.6490    0.0000 C   0  0  0  0  0  0  0  0  0  0  0  0
   -5.4933   -4.1162    0.0000 N   0  0  0  0  0  0  0  0  0  0  0  0
   -4.3786   -5.1199    0.0000 C   0  0  0  0  0  0  0  0  0  0  0  0
   -4.6904   -6.5871    0.0000 N   0  0  0  0  0  0  0  0  0  0  0  0
   -6.1170   -7.0506    0.0000 C   0  0  0  0  0  0  0  0  0  0  0  0
   -7.2317   -6.0469    0.0000 C   0  0  0  0  0  0  0  0  0  0  0  0
   -8.6583   -6.5105    0.0000 C   0  0  0  0  0  0  0  0  0  0  0  0
   -8.9702   -7.9777    0.0000 C   0  0  0  0  0  0  0  0  0  0  0  0
   -7.8555   -8.9814    0.0000 C   0  0  0  0  0  0  0  0  0  0  0  0
   -6.4289   -8.5179    0.0000 C   0  0  0  0  0  0  0  0  0  0  0  0
   -2.9520   -4.6564    0.0000 N   0  0  0  0  0  0  0  0  0  0  0  0
    1.2990   -5.8573    0.0000 C   0  0  0  0  0  0  0  0  0  0  0  0
    1.2990   -7.3573    0.0000 C   0  0  0  0  0  0  0  0  0  0  0  0
  1  2  1  0
  2  3  2  0
  3  4  1  0
  4  5  2  0
  5  6  1  0
  6  7  2  0
  7  8  1  0
  8  9  1  0
  9 10  2  0
 10 11  1  0
 11 12  2  0
 12 13  1  0
 13 14  2  0
 14 15  1  0
 15 16  2  0
 16 17  1  0
 17 18  2  0
 18 19  1  0
 19 20  1  0
 20 21  1  0
 21 22  2  0
 22 23  1  0
 23 24  2  0
 24 25  1  0
 25 26  2  0
 19 27  2  0
  5 28  1  0
 28 29  2  0
 29  2  1  0
 14  6  1  0
 27 15  1  0
 13  8  1  0
 26 21  1  0
M  END
>  <Compound_ID>  (459) 
CHEMBL189148

>  <Molecule Name>  (459) 
GW829055X

>  <Molecular Weight>  (459) 
398.86

>  <AlogP>  (459) 
5.25

>  <Smiles>  (459) 
Clc1ccc(-c2nn3ncccc3c2-c2ccnc(Nc3ccccc3)n2)cc1

>  <Standard Type>  (459) 
Inhibition

>  <Standard Relation>  (459) 
'='

>  <Standard Units>  (459) 
%

>  <Standard Value>  (459) 
4.06

>  <Assay ChEMBL ID>  (459) 
CHEMBL1962143

>  <Assay Description>  (459) 
GSK_PKIS: MET mean inhibition at 1 uM [Nanosyn]

>  <BAO Format ID>  (459) 
BAO_0000357

>  <BAO Label>  (459) 
single protein format

>  <Assay Organism>  (459) 
None

>  <Target ChEMBL ID>  (459) 
CHEMBL3717

>  <Target Name>  (459) 
Hepatocyte growth factor receptor

>  <Target Organism>  (459) 
Homo sapiens

>  <Target Type>  (459) 
SINGLE PROTEIN

>  <Document ChEMBL ID>  (459) 
CHEMBL1961873

>  <Source Description>  (459) 
GSK Published Kinase Inhibitor Set

>  <Document Journal>  (459) 
nan

>  <Document Year>  (459) 
nan

>  <Active>  (459) 
0.0

$$$$

     RDKit          2D

 27 30  0  0  0  0  0  0  0  0999 V2000
    3.0000    0.0000    0.0000 C   0  0  0  0  0  0  0  0  0  0  0  0
    1.5000    0.0000    0.0000 C   0  0  0  0  0  0  0  0  0  0  0  0
    0.7500   -1.2990    0.0000 C   0  0  0  0  0  0  0  0  0  0  0  0
   -0.7500   -1.2990    0.0000 C   0  0  0  0  0  0  0  0  0  0  0  0
   -1.5000    0.0000    0.0000 C   0  0  0  0  0  0  0  0  0  0  0  0
   -3.0000    0.0000    0.0000 C   0  0  0  0  0  0  0  0  0  0  0  0
   -3.7500   -1.2990    0.0000 O   0  0  0  0  0  0  0  0  0  0  0  0
   -3.7500    1.2990    0.0000 N   0  0  0  0  0  0  0  0  0  0  0  0
   -5.2500    1.2990    0.0000 C   0  0  0  0  0  0  0  0  0  0  0  0
   -6.3107    2.3597    0.0000 C   0  0  0  0  0  0  0  0  0  0  0  0
   -7.3713    1.2990    0.0000 C   0  0  0  0  0  0  0  0  0  0  0  0
   -6.3107    0.2384    0.0000 C   0  0  0  0  0  0  0  0  0  0  0  0
   -0.7500    1.2990    0.0000 C   0  0  0  0  0  0  0  0  0  0  0  0
    0.7500    1.2990    0.0000 C   0  0  0  0  0  0  0  0  0  0  0  0
    1.5000    2.5981    0.0000 C   0  0  0  0  0  0  0  0  0  0  0  0
    3.0000    2.5981    0.0000 C   0  0  0  0  0  0  0  0  0  0  0  0
    3.7500    3.8971    0.0000 C   0  0  0  0  0  0  0  0  0  0  0  0
    3.0000    5.1962    0.0000 C   0  0  0  0  0  0  0  0  0  0  0  0
    3.7500    6.4952    0.0000 C   0  0  0  0  0  0  0  0  0  0  0  0
    3.0000    7.7942    0.0000 O   0  0  0  0  0  0  0  0  0  0  0  0
    5.2500    6.4952    0.0000 N   0  0  0  0  0  0  0  0  0  0  0  0
    6.0000    7.7942    0.0000 C   0  0  0  0  0  0  0  0  0  0  0  0
    7.5000    7.7942    0.0000 C   0  0  0  0  0  0  0  0  0  0  0  0
    8.7990    8.5442    0.0000 C   0  0  0  0  0  0  0  0  0  0  0  0
    8.7990    7.0442    0.0000 C   0  0  0  0  0  0  0  0  0  0  0  0
    1.5000    5.1962    0.0000 C   0  0  0  0  0  0  0  0  0  0  0  0
    0.7500    3.8971    0.0000 C   0  0  0  0  0  0  0  0  0  0  0  0
  1  2  1  0
  2  3  2  0
  3  4  1  0
  4  5  2  0
  5  6  1  0
  6  7  2  0
  6  8  1  0
  8  9  1  0
  9 10  1  0
 10 11  1  0
 11 12  1  0
  5 13  1  0
 13 14  2  0
 14 15  1  0
 15 16  2  0
 16 17  1  0
 17 18  2  0
 18 19  1  0
 19 20  2  0
 19 21  1  0
 21 22  1  0
 22 23  1  0
 23 24  1  0
 24 25  1  0
 18 26  1  0
 26 27  2  0
 14  2  1  0
 27 15  1  0
 12  9  1  0
 25 23  1  0
M  END
>  <Compound_ID>  (460) 
CHEMBL517507

>  <Molecule Name>  (460) 
GW782912X

>  <Molecular Weight>  (460) 
362.47

>  <AlogP>  (460) 
4.08

>  <Smiles>  (460) 
Cc1ccc(C(=O)NC2CCC2)cc1-c1ccc(C(=O)NCC2CC2)cc1

>  <Standard Type>  (460) 
Inhibition

>  <Standard Relation>  (460) 
'='

>  <Standard Units>  (460) 
%

>  <Standard Value>  (460) 
6.08

>  <Assay ChEMBL ID>  (460) 
CHEMBL1962143

>  <Assay Description>  (460) 
GSK_PKIS: MET mean inhibition at 1 uM [Nanosyn]

>  <BAO Format ID>  (460) 
BAO_0000357

>  <BAO Label>  (460) 
single protein format

>  <Assay Organism>  (460) 
None

>  <Target ChEMBL ID>  (460) 
CHEMBL3717

>  <Target Name>  (460) 
Hepatocyte growth factor receptor

>  <Target Organism>  (460) 
Homo sapiens

>  <Target Type>  (460) 
SINGLE PROTEIN

>  <Document ChEMBL ID>  (460) 
CHEMBL1961873

>  <Source Description>  (460) 
GSK Published Kinase Inhibitor Set

>  <Document Journal>  (460) 
nan

>  <Document Year>  (460) 
nan

>  <Active>  (460) 
0.0

$$$$

     RDKit          2D

 28 31  0  0  0  0  0  0  0  0999 V2000
   -9.1645    1.7722    0.0000 C   0  0  0  0  0  0  0  0  0  0  0  0
   -8.0498    0.7685    0.0000 O   0  0  0  0  0  0  0  0  0  0  0  0
   -6.6232    1.2320    0.0000 C   0  0  0  0  0  0  0  0  0  0  0  0
   -6.3114    2.6992    0.0000 C   0  0  0  0  0  0  0  0  0  0  0  0
   -4.8848    3.1627    0.0000 C   0  0  0  0  0  0  0  0  0  0  0  0
   -3.7701    2.1590    0.0000 C   0  0  0  0  0  0  0  0  0  0  0  0
   -4.0819    0.6918    0.0000 C   0  0  0  0  0  0  0  0  0  0  0  0
   -2.9672   -0.3119    0.0000 N   0  0  0  0  0  0  0  0  0  0  0  0
   -3.1240   -1.8037    0.0000 N   0  0  0  0  0  0  0  0  0  0  0  0
   -1.7537   -2.4138    0.0000 C   0  0  0  0  0  0  0  0  0  0  0  0
   -1.4418   -3.8810    0.0000 C   0  0  0  0  0  0  0  0  0  0  0  0
   -0.7500   -1.2990    0.0000 C   0  0  0  0  0  0  0  0  0  0  0  0
    0.7500   -1.2990    0.0000 C   0  0  0  0  0  0  0  0  0  0  0  0
    1.5000   -2.5981    0.0000 N   0  0  0  0  0  0  0  0  0  0  0  0
    3.0000   -2.5981    0.0000 N   0  0  0  0  0  0  0  0  0  0  0  0
    3.7500   -3.8971    0.0000 C   0  0  0  0  0  0  0  0  0  0  0  0
    3.0000   -5.1962    0.0000 C   0  0  0  0  0  0  0  0  0  0  0  0
    5.2500   -3.8971    0.0000 C   0  0  0  0  0  0  0  0  0  0  0  0
    6.0000   -5.1962    0.0000 C   0  0  0  0  0  0  0  0  0  0  0  0
    7.5000   -5.1962    0.0000 C   0  0  0  0  0  0  0  0  0  0  0  0
    8.2500   -3.8971    0.0000 N   0  0  0  0  0  0  0  0  0  0  0  0
    7.5000   -2.5981    0.0000 C   0  0  0  0  0  0  0  0  0  0  0  0
    6.0000   -2.5981    0.0000 C   0  0  0  0  0  0  0  0  0  0  0  0
    1.5000    0.0000    0.0000 N   0  0  0  0  0  0  0  0  0  0  0  0
    0.7500    1.2990    0.0000 C   0  0  0  0  0  0  0  0  0  0  0  0
   -0.7500    1.2990    0.0000 N   0  0  0  0  0  0  0  0  0  0  0  0
   -1.5000    0.0000    0.0000 C   0  0  0  0  0  0  0  0  0  0  0  0
   -5.5085    0.2283    0.0000 C   0  0  0  0  0  0  0  0  0  0  0  0
  1  2  1  0
  2  3  1  0
  3  4  2  0
  4  5  1  0
  5  6  2  0
  6  7  1  0
  7  8  1  0
  8  9  1  0
  9 10  2  0
 10 11  1  0
 10 12  1  0
 12 13  2  0
 13 14  1  0
 14 15  1  0
 15 16  2  0
 16 17  1  0
 16 18  1  0
 18 19  2  0
 19 20  1  0
 20 21  2  0
 21 22  1  0
 22 23  2  0
 13 24  1  0
 24 25  2  0
 25 26  1  0
 26 27  2  0
  7 28  2  0
 28  3  1  0
 27  8  1  0
 27 12  1  0
 23 18  1  0
M  END
>  <Compound_ID>  (461) 
CHEMBL442363

>  <Molecule Name>  (461) 
GW809885X

>  <Molecular Weight>  (461) 
373.42

>  <AlogP>  (461) 
3.36

>  <Smiles>  (461) 
COc1cccc(-n2nc(C)c3c(N/N=C(\C)c4ccncc4)ncnc32)c1

>  <Standard Type>  (461) 
Inhibition

>  <Standard Relation>  (461) 
'='

>  <Standard Units>  (461) 
%

>  <Standard Value>  (461) 
-1.53

>  <Assay ChEMBL ID>  (461) 
CHEMBL1962142

>  <Assay Description>  (461) 
GSK_PKIS: MET mean inhibition at 0.1 uM [Nanosyn]

>  <BAO Format ID>  (461) 
BAO_0000357

>  <BAO Label>  (461) 
single protein format

>  <Assay Organism>  (461) 
None

>  <Target ChEMBL ID>  (461) 
CHEMBL3717

>  <Target Name>  (461) 
Hepatocyte growth factor receptor

>  <Target Organism>  (461) 
Homo sapiens

>  <Target Type>  (461) 
SINGLE PROTEIN

>  <Document ChEMBL ID>  (461) 
CHEMBL1961873

>  <Source Description>  (461) 
GSK Published Kinase Inhibitor Set

>  <Document Journal>  (461) 
nan

>  <Document Year>  (461) 
nan

>  <Active>  (461) 
0.0

$$$$

     RDKit          2D

 30 33  0  0  0  0  0  0  0  0999 V2000
   -3.0000   -2.5981    0.0000 C   0  0  0  0  0  0  0  0  0  0  0  0
   -1.5000   -2.5981    0.0000 N   0  0  0  0  0  0  0  0  0  0  0  0
   -0.7500   -3.8971    0.0000 C   0  0  0  0  0  0  0  0  0  0  0  0
   -1.5000   -5.1962    0.0000 O   0  0  0  0  0  0  0  0  0  0  0  0
    0.7500   -3.8971    0.0000 C   0  0  0  0  0  0  0  0  0  0  0  0
    1.5000   -5.1962    0.0000 O   0  0  0  0  0  0  0  0  0  0  0  0
    0.7500   -6.4952    0.0000 C   0  0  0  0  0  0  0  0  0  0  0  0
   -0.7500   -6.4952    0.0000 C   0  0  0  0  0  0  0  0  0  0  0  0
   -1.5000   -7.7942    0.0000 C   0  0  0  0  0  0  0  0  0  0  0  0
   -0.7500   -9.0933    0.0000 C   0  0  0  0  0  0  0  0  0  0  0  0
   -1.5000  -10.3923    0.0000 F   0  0  0  0  0  0  0  0  0  0  0  0
    0.7500   -9.0933    0.0000 C   0  0  0  0  0  0  0  0  0  0  0  0
    1.5000   -7.7942    0.0000 C   0  0  0  0  0  0  0  0  0  0  0  0
    3.0000   -7.7942    0.0000 F   0  0  0  0  0  0  0  0  0  0  0  0
    1.5000   -2.5981    0.0000 C   0  0  0  0  0  0  0  0  0  0  0  0
    0.7500   -1.2990    0.0000 C   0  0  0  0  0  0  0  0  0  0  0  0
    1.5000    0.0000    0.0000 C   0  0  0  0  0  0  0  0  0  0  0  0
    0.7500    1.2990    0.0000 N   0  0  0  0  0  0  0  0  0  0  0  0
   -0.7500    1.2990    0.0000 C   0  0  0  0  0  0  0  0  0  0  0  0
   -1.5000    2.5981    0.0000 N   0  0  0  0  0  0  0  0  0  0  0  0
   -0.7500    3.8971    0.0000 C   0  0  0  0  0  0  0  0  0  0  0  0
   -1.5000    5.1962    0.0000 C   0  0  0  0  0  0  0  0  0  0  0  0
   -0.7500    6.4952    0.0000 C   0  0  0  0  0  0  0  0  0  0  0  0
    0.7500    6.4952    0.0000 C   0  0  0  0  0  0  0  0  0  0  0  0
    1.5000    7.7942    0.0000 C   0  0  0  0  0  0  0  0  0  0  0  0
    0.7500    9.0933    0.0000 C   0  0  0  0  0  0  0  0  0  0  0  0
   -0.7500    9.0933    0.0000 C   0  0  0  0  0  0  0  0  0  0  0  0
   -1.5000    7.7942    0.0000 N   0  0  0  0  0  0  0  0  0  0  0  0
   -1.5000    0.0000    0.0000 N   0  0  0  0  0  0  0  0  0  0  0  0
   -0.7500   -1.2990    0.0000 C   0  0  0  0  0  0  0  0  0  0  0  0
  1  2  1  0
  2  3  1  0
  3  4  2  0
  3  5  1  0
  5  6  1  0
  6  7  1  0
  7  8  2  0
  8  9  1  0
  9 10  2  0
 10 11  1  0
 10 12  1  0
 12 13  2  0
 13 14  1  0
  5 15  2  0
 15 16  1  0
 16 17  2  0
 17 18  1  0
 18 19  2  0
 19 20  1  0
 20 21  1  0
 21 22  1  0
 22 23  1  0
 23 24  2  0
 24 25  1  0
 25 26  2  0
 26 27  1  0
 27 28  2  0
 19 29  1  0
 29 30  2  0
 30  2  1  0
 13  7  1  0
 30 16  1  0
 28 23  1  0
M  END
>  <Compound_ID>  (462) 
CHEMBL3746951

>  <Molecule Name>  (462) 
nan

>  <Molecular Weight>  (462) 
409.40

>  <AlogP>  (462) 
3.45

>  <Smiles>  (462) 
Cn1c(=O)c(Oc2ccc(F)cc2F)cc2cnc(NCCc3ccccn3)nc21

>  <Standard Type>  (462) 
Inhibition

>  <Standard Relation>  (462) 
'='

>  <Standard Units>  (462) 
%

>  <Standard Value>  (462) 
5.0

>  <Assay ChEMBL ID>  (462) 
CHEMBL3750644

>  <Assay Description>  (462) 
Inhibition of cMET (unknown origin) at 10 uM

>  <BAO Format ID>  (462) 
BAO_0000357

>  <BAO Label>  (462) 
single protein format

>  <Assay Organism>  (462) 
Homo sapiens

>  <Target ChEMBL ID>  (462) 
CHEMBL3717

>  <Target Name>  (462) 
Hepatocyte growth factor receptor

>  <Target Organism>  (462) 
Homo sapiens

>  <Target Type>  (462) 
SINGLE PROTEIN

>  <Document ChEMBL ID>  (462) 
CHEMBL3745672

>  <Source Description>  (462) 
Scientific Literature

>  <Document Journal>  (462) 
Bioorg Med Chem Lett

>  <Document Year>  (462) 
2016.0

>  <Active>  (462) 
0.0

$$$$

     RDKit          2D

 31 34  0  0  0  0  0  0  0  0999 V2000
   -2.5981   -8.1073    0.0000 C   0  0  0  0  0  0  0  0  0  0  0  0
   -1.2990   -7.3573    0.0000 O   0  0  0  0  0  0  0  0  0  0  0  0
   -1.2990   -5.8573    0.0000 C   0  0  0  0  0  0  0  0  0  0  0  0
   -2.5981   -5.1073    0.0000 O   0  0  0  0  0  0  0  0  0  0  0  0
   -0.0000   -5.1073    0.0000 N   0  0  0  0  0  0  0  0  0  0  0  0
   -0.0000   -3.6073    0.0000 C   0  0  0  0  0  0  0  0  0  0  0  0
    1.2135   -2.7256    0.0000 N   0  0  0  0  0  0  0  0  0  0  0  0
    0.7500   -1.2990    0.0000 C   0  0  0  0  0  0  0  0  0  0  0  0
    1.5000    0.0000    0.0000 C   0  0  0  0  0  0  0  0  0  0  0  0
    0.7500    1.2990    0.0000 C   0  0  0  0  0  0  0  0  0  0  0  0
    1.5000    2.5981    0.0000 O   0  0  0  0  0  0  0  0  0  0  0  0
    3.0000    2.5981    0.0000 C   0  0  0  0  0  0  0  0  0  0  0  0
    3.7500    1.2990    0.0000 C   0  0  0  0  0  0  0  0  0  0  0  0
    5.2500    1.2990    0.0000 C   0  0  0  0  0  0  0  0  0  0  0  0
    6.0000    2.5981    0.0000 C   0  0  0  0  0  0  0  0  0  0  0  0
    7.5000    2.5981    0.0000 N   0  0  0  0  0  0  0  0  0  0  0  0
    8.2500    1.2990    0.0000 C   0  0  0  0  0  0  0  0  0  0  0  0
    7.5000   -0.0000    0.0000 O   0  0  0  0  0  0  0  0  0  0  0  0
    9.7500    1.2990    0.0000 N   0  0  0  0  0  0  0  0  0  0  0  0
   10.5000   -0.0000    0.0000 C   0  0  0  0  0  0  0  0  0  0  0  0
    9.7500   -1.2990    0.0000 C   0  0  0  0  0  0  0  0  0  0  0  0
   10.5000   -2.5981    0.0000 C   0  0  0  0  0  0  0  0  0  0  0  0
   12.0000   -2.5981    0.0000 C   0  0  0  0  0  0  0  0  0  0  0  0
   12.7500   -1.2990    0.0000 C   0  0  0  0  0  0  0  0  0  0  0  0
   12.0000   -0.0000    0.0000 C   0  0  0  0  0  0  0  0  0  0  0  0
    5.2500    3.8971    0.0000 C   0  0  0  0  0  0  0  0  0  0  0  0
    3.7500    3.8971    0.0000 C   0  0  0  0  0  0  0  0  0  0  0  0
   -0.7500    1.2990    0.0000 C   0  0  0  0  0  0  0  0  0  0  0  0
   -1.5000    0.0000    0.0000 C   0  0  0  0  0  0  0  0  0  0  0  0
   -0.7500   -1.2990    0.0000 C   0  0  0  0  0  0  0  0  0  0  0  0
   -1.2135   -2.7256    0.0000 N   0  0  0  0  0  0  0  0  0  0  0  0
  1  2  1  0
  2  3  1  0
  3  4  2  0
  3  5  1  0
  5  6  1  0
  6  7  2  0
  7  8  1  0
  8  9  2  0
  9 10  1  0
 10 11  1  0
 11 12  1  0
 12 13  2  0
 13 14  1  0
 14 15  2  0
 15 16  1  0
 16 17  1  0
 17 18  2  0
 17 19  1  0
 19 20  1  0
 20 21  2  0
 21 22  1  0
 22 23  2  0
 23 24  1  0
 24 25  2  0
 15 26  1  0
 26 27  2  0
 10 28  2  0
 28 29  1  0
 29 30  2  0
 30 31  1  0
 31  6  1  0
 30  8  1  0
 27 12  1  0
 25 20  1  0
M  END
>  <Compound_ID>  (463) 
CHEMBL1909371

>  <Molecule Name>  (463) 
GW694590A

>  <Molecular Weight>  (463) 
453.89

>  <AlogP>  (463) 
5.18

>  <Smiles>  (463) 
COC(=O)Nc1nc2cc(Oc3ccc(NC(=O)Nc4ccccc4)cc3)ccc2[nH]1

>  <Standard Type>  (463) 
Inhibition

>  <Standard Relation>  (463) 
'='

>  <Standard Units>  (463) 
%

>  <Standard Value>  (463) 
18.72

>  <Assay ChEMBL ID>  (463) 
CHEMBL1962143

>  <Assay Description>  (463) 
GSK_PKIS: MET mean inhibition at 1 uM [Nanosyn]

>  <BAO Format ID>  (463) 
BAO_0000357

>  <BAO Label>  (463) 
single protein format

>  <Assay Organism>  (463) 
None

>  <Target ChEMBL ID>  (463) 
CHEMBL3717

>  <Target Name>  (463) 
Hepatocyte growth factor receptor

>  <Target Organism>  (463) 
Homo sapiens

>  <Target Type>  (463) 
SINGLE PROTEIN

>  <Document ChEMBL ID>  (463) 
CHEMBL1961873

>  <Source Description>  (463) 
GSK Published Kinase Inhibitor Set

>  <Document Journal>  (463) 
nan

>  <Document Year>  (463) 
nan

>  <Active>  (463) 
0.0

$$$$

     RDKit          2D

 28 32  0  0  0  0  0  0  0  0999 V2000
   -2.9520   -4.6564    0.0000 O   0  0  0  0  0  0  0  0  0  0  0  0
   -2.6401   -3.1891    0.0000 N   0  0  0  0  0  0  0  0  0  0  0  0
   -1.2135   -2.7256    0.0000 C   0  0  0  0  0  0  0  0  0  0  0  0
   -0.0000   -3.6073    0.0000 C   0  0  0  0  0  0  0  0  0  0  0  0
    1.2135   -2.7256    0.0000 C   0  0  0  0  0  0  0  0  0  0  0  0
    0.7500   -1.2990    0.0000 C   0  0  0  0  0  0  0  0  0  0  0  0
    1.5000    0.0000    0.0000 C   0  0  0  0  0  0  0  0  0  0  0  0
    0.7500    1.2990    0.0000 C   0  0  0  0  0  0  0  0  0  0  0  0
    1.5000    2.5981    0.0000 C   0  0  0  0  0  0  0  0  0  0  0  0
    0.8899    3.9684    0.0000 N   0  0  0  0  0  0  0  0  0  0  0  0
    2.0046    4.9721    0.0000 C   0  0  0  0  0  0  0  0  0  0  0  0
    1.8478    6.4639    0.0000 C   0  0  0  0  0  0  0  0  0  0  0  0
    3.0613    7.3456    0.0000 C   0  0  0  0  0  0  0  0  0  0  0  0
    2.9046    8.8373    0.0000 C   0  0  0  0  0  0  0  0  0  0  0  0
    1.5342    9.4474    0.0000 N   0  0  0  0  0  0  0  0  0  0  0  0
    0.3207    8.5658    0.0000 C   0  0  0  0  0  0  0  0  0  0  0  0
    0.4775    7.0740    0.0000 C   0  0  0  0  0  0  0  0  0  0  0  0
    3.3037    4.2221    0.0000 N   0  0  0  0  0  0  0  0  0  0  0  0
    2.9918    2.7549    0.0000 C   0  0  0  0  0  0  0  0  0  0  0  0
    3.9955    1.6402    0.0000 C   0  0  0  0  0  0  0  0  0  0  0  0
    3.5320    0.2136    0.0000 C   0  0  0  0  0  0  0  0  0  0  0  0
    4.5356   -0.9012    0.0000 C   0  0  0  0  0  0  0  0  0  0  0  0
    6.0029   -0.5893    0.0000 N   0  0  0  0  0  0  0  0  0  0  0  0
    6.4664    0.8373    0.0000 C   0  0  0  0  0  0  0  0  0  0  0  0
    5.4627    1.9520    0.0000 C   0  0  0  0  0  0  0  0  0  0  0  0
   -0.7500    1.2990    0.0000 C   0  0  0  0  0  0  0  0  0  0  0  0
   -1.5000    0.0000    0.0000 C   0  0  0  0  0  0  0  0  0  0  0  0
   -0.7500   -1.2990    0.0000 C   0  0  0  0  0  0  0  0  0  0  0  0
  1  2  1  0
  2  3  2  3
  3  4  1  0
  4  5  1  0
  5  6  1  0
  6  7  2  0
  7  8  1  0
  8  9  1  0
  9 10  1  0
 10 11  2  0
 11 12  1  0
 12 13  1  0
 13 14  1  0
 14 15  1  0
 15 16  1  0
 16 17  1  0
 11 18  1  0
 18 19  1  0
 19 20  1  0
 20 21  2  0
 21 22  1  0
 22 23  2  0
 23 24  1  0
 24 25  2  0
  8 26  2  0
 26 27  1  0
 27 28  2  0
 28  3  1  0
 28  6  1  0
 19  9  2  0
 25 20  1  0
 17 12  1  0
M  END
>  <Compound_ID>  (464) 
CHEMBL1794071

>  <Molecule Name>  (464) 
nan

>  <Molecular Weight>  (464) 
409.92

>  <AlogP>  (464) 
3.73

>  <Smiles>  (464) 
ON=C1CCc2cc(-c3nc(C4CCNCC4)[nH]c3-c3ccncc3)ccc21

>  <Standard Type>  (464) 
Inhibition

>  <Standard Relation>  (464) 
'='

>  <Standard Units>  (464) 
%

>  <Standard Value>  (464) 
4.34

>  <Assay ChEMBL ID>  (464) 
CHEMBL1962143

>  <Assay Description>  (464) 
GSK_PKIS: MET mean inhibition at 1 uM [Nanosyn]

>  <BAO Format ID>  (464) 
BAO_0000357

>  <BAO Label>  (464) 
single protein format

>  <Assay Organism>  (464) 
None

>  <Target ChEMBL ID>  (464) 
CHEMBL3717

>  <Target Name>  (464) 
Hepatocyte growth factor receptor

>  <Target Organism>  (464) 
Homo sapiens

>  <Target Type>  (464) 
SINGLE PROTEIN

>  <Document ChEMBL ID>  (464) 
CHEMBL1961873

>  <Source Description>  (464) 
GSK Published Kinase Inhibitor Set

>  <Document Journal>  (464) 
nan

>  <Document Year>  (464) 
nan

>  <Active>  (464) 
0.0

$$$$

     RDKit          2D

 38 42  0  0  0  0  0  0  0  0999 V2000
   -0.8113  -11.2427    0.0000 C   0  0  0  0  0  0  0  0  0  0  0  0
    0.4022  -10.3610    0.0000 C   0  0  0  0  0  0  0  0  0  0  0  0
    0.2454   -8.8692    0.0000 C   0  0  0  0  0  0  0  0  0  0  0  0
    1.3601   -7.8655    0.0000 C   0  0  0  0  0  0  0  0  0  0  0  0
    0.7500   -6.4952    0.0000 C   0  0  0  0  0  0  0  0  0  0  0  0
    1.5000   -5.1962    0.0000 N   0  0  0  0  0  0  0  0  0  0  0  0
    0.7500   -3.8971    0.0000 C   0  0  0  0  0  0  0  0  0  0  0  0
   -0.7500   -3.8971    0.0000 O   0  0  0  0  0  0  0  0  0  0  0  0
    1.5000   -2.5981    0.0000 N   0  0  0  0  0  0  0  0  0  0  0  0
    0.7500   -1.2990    0.0000 C   0  0  0  0  0  0  0  0  0  0  0  0
    1.5000    0.0000    0.0000 C   0  0  0  0  0  0  0  0  0  0  0  0
    0.7500    1.2990    0.0000 C   0  0  0  0  0  0  0  0  0  0  0  0
   -0.7500    1.2990    0.0000 C   0  0  0  0  0  0  0  0  0  0  0  0
   -1.5000    2.5981    0.0000 C   0  0  0  0  0  0  0  0  0  0  0  0
   -2.9918    2.7549    0.0000 C   0  0  0  0  0  0  0  0  0  0  0  0
   -3.3037    4.2221    0.0000 N   0  0  0  0  0  0  0  0  0  0  0  0
   -2.0046    4.9721    0.0000 C   0  0  0  0  0  0  0  0  0  0  0  0
   -1.8478    6.4639    0.0000 N   0  0  0  0  0  0  0  0  0  0  0  0
   -0.4775    7.0740    0.0000 C   0  0  0  0  0  0  0  0  0  0  0  0
    0.7360    6.1923    0.0000 C   0  0  0  0  0  0  0  0  0  0  0  0
    2.1063    6.8024    0.0000 C   0  0  0  0  0  0  0  0  0  0  0  0
    3.3199    5.9207    0.0000 N   0  0  0  0  0  0  0  0  0  0  0  0
    3.1631    4.4289    0.0000 C   0  0  0  0  0  0  0  0  0  0  0  0
    4.3766    3.5473    0.0000 C   0  0  0  0  0  0  0  0  0  0  0  0
    5.7469    4.1574    0.0000 N   0  0  0  0  0  0  0  0  0  0  0  0
    6.9604    3.2757    0.0000 C   0  0  0  0  0  0  0  0  0  0  0  0
    6.8037    1.7839    0.0000 C   0  0  0  0  0  0  0  0  0  0  0  0
    5.9037    5.6492    0.0000 C   0  0  0  0  0  0  0  0  0  0  0  0
    4.6902    6.5308    0.0000 C   0  0  0  0  0  0  0  0  0  0  0  0
    2.2631    8.2942    0.0000 N   0  0  0  0  0  0  0  0  0  0  0  0
    1.0496    9.1759    0.0000 C   0  0  0  0  0  0  0  0  0  0  0  0
    1.2064   10.6676    0.0000 C   0  0  0  0  0  0  0  0  0  0  0  0
   -0.3207    8.5658    0.0000 N   0  0  0  0  0  0  0  0  0  0  0  0
   -0.8899    3.9684    0.0000 S   0  0  0  0  0  0  0  0  0  0  0  0
   -1.5000    0.0000    0.0000 C   0  0  0  0  0  0  0  0  0  0  0  0
   -0.7500   -1.2990    0.0000 C   0  0  0  0  0  0  0  0  0  0  0  0
   -0.7418   -6.6520    0.0000 N   0  0  0  0  0  0  0  0  0  0  0  0
   -1.0537   -8.1192    0.0000 O   0  0  0  0  0  0  0  0  0  0  0  0
  1  2  1  0
  2  3  1  0
  3  4  2  0
  4  5  1  0
  5  6  1  0
  6  7  1  0
  7  8  2  0
  7  9  1  0
  9 10  1  0
 10 11  2  0
 11 12  1  0
 12 13  2  0
 13 14  1  0
 14 15  2  0
 15 16  1  0
 16 17  2  0
 17 18  1  0
 18 19  1  0
 19 20  2  0
 20 21  1  0
 21 22  1  0
 22 23  1  0
 23 24  1  0
 24 25  1  0
 25 26  1  0
 26 27  1  0
 25 28  1  0
 28 29  1  0
 21 30  2  0
 30 31  1  0
 31 32  1  0
 31 33  2  0
 17 34  1  0
 13 35  1  0
 35 36  2  0
  5 37  2  0
 37 38  1  0
 38  3  1  0
 36 10  1  0
 34 14  1  0
 33 19  1  0
 29 22  1  0
M  END
>  <Compound_ID>  (465) 
CHEMBL3593290

>  <Molecule Name>  (465) 
nan

>  <Molecular Weight>  (465) 
533.66

>  <AlogP>  (465) 
4.99

>  <Smiles>  (465) 
CCc1cc(NC(=O)Nc2ccc(-c3cnc(Nc4cc(N5CCN(CC)CC5)nc(C)n4)s3)cc2)no1

>  <Standard Type>  (465) 
Inhibition

>  <Standard Relation>  (465) 
'='

>  <Standard Units>  (465) 
%

>  <Standard Value>  (465) 
14.0

>  <Assay ChEMBL ID>  (465) 
CHEMBL3595428

>  <Assay Description>  (465) 
Inhibition of human MET at 0.1 uM relative to control

>  <BAO Format ID>  (465) 
BAO_0000357

>  <BAO Label>  (465) 
single protein format

>  <Assay Organism>  (465) 
Homo sapiens

>  <Target ChEMBL ID>  (465) 
CHEMBL3717

>  <Target Name>  (465) 
Hepatocyte growth factor receptor

>  <Target Organism>  (465) 
Homo sapiens

>  <Target Type>  (465) 
SINGLE PROTEIN

>  <Document ChEMBL ID>  (465) 
CHEMBL3593229

>  <Source Description>  (465) 
Scientific Literature

>  <Document Journal>  (465) 
Eur J Med Chem

>  <Document Year>  (465) 
2015.0

>  <Active>  (465) 
0.0

$$$$

     RDKit          2D

 27 29  0  0  0  0  0  0  0  0999 V2000
    5.2500    1.2990    0.0000 C   0  0  0  0  0  0  0  0  0  0  0  0
    4.5000    0.0000    0.0000 C   0  0  0  0  0  0  0  0  0  0  0  0
    3.0000    0.0000    0.0000 S   0  0  0  0  0  0  0  0  0  0  0  0
    3.0000    1.5000    0.0000 O   0  0  0  0  0  0  0  0  0  0  0  0
    3.0000   -1.5000    0.0000 O   0  0  0  0  0  0  0  0  0  0  0  0
    1.5000    0.0000    0.0000 C   0  0  0  0  0  0  0  0  0  0  0  0
    0.7500   -1.2990    0.0000 C   0  0  0  0  0  0  0  0  0  0  0  0
   -0.7500   -1.2990    0.0000 C   0  0  0  0  0  0  0  0  0  0  0  0
   -1.5000    0.0000    0.0000 C   0  0  0  0  0  0  0  0  0  0  0  0
   -3.0000    0.0000    0.0000 O   0  0  0  0  0  0  0  0  0  0  0  0
   -3.7500   -1.2990    0.0000 C   0  0  0  0  0  0  0  0  0  0  0  0
   -0.7500    1.2990    0.0000 C   0  0  0  0  0  0  0  0  0  0  0  0
   -1.5000    2.5981    0.0000 N   0  0  0  0  0  0  0  0  0  0  0  0
   -0.7500    3.8971    0.0000 C   0  0  0  0  0  0  0  0  0  0  0  0
   -1.3601    5.2674    0.0000 N   0  0  0  0  0  0  0  0  0  0  0  0
   -0.2454    6.2711    0.0000 C   0  0  0  0  0  0  0  0  0  0  0  0
    1.0537    5.5211    0.0000 C   0  0  0  0  0  0  0  0  0  0  0  0
    2.4240    6.1312    0.0000 C   0  0  0  0  0  0  0  0  0  0  0  0
    3.6375    5.2496    0.0000 C   0  0  0  0  0  0  0  0  0  0  0  0
    5.0078    5.8597    0.0000 C   0  0  0  0  0  0  0  0  0  0  0  0
    5.1646    7.3514    0.0000 C   0  0  0  0  0  0  0  0  0  0  0  0
    3.9511    8.2331    0.0000 C   0  0  0  0  0  0  0  0  0  0  0  0
    4.1079    9.7249    0.0000 O   0  0  0  0  0  0  0  0  0  0  0  0
    5.4782   10.3350    0.0000 C   0  0  0  0  0  0  0  0  0  0  0  0
    2.5808    7.6230    0.0000 C   0  0  0  0  0  0  0  0  0  0  0  0
    0.7418    4.0539    0.0000 O   0  0  0  0  0  0  0  0  0  0  0  0
    0.7500    1.2990    0.0000 C   0  0  0  0  0  0  0  0  0  0  0  0
  1  2  1  0
  2  3  1  0
  3  4  2  0
  3  5  2  0
  3  6  1  0
  6  7  2  0
  7  8  1  0
  8  9  2  0
  9 10  1  0
 10 11  1  0
  9 12  1  0
 12 13  1  0
 13 14  1  0
 14 15  2  0
 15 16  1  0
 16 17  2  0
 17 18  1  0
 18 19  2  0
 19 20  1  0
 20 21  2  0
 21 22  1  0
 22 23  1  0
 23 24  1  0
 22 25  2  0
 17 26  1  0
 12 27  2  0
 27  6  1  0
 26 14  1  0
 25 18  1  0
M  END
>  <Compound_ID>  (466) 
CHEMBL179311

>  <Molecule Name>  (466) 
GW580509X

>  <Molecular Weight>  (466) 
388.45

>  <AlogP>  (466) 
3.90

>  <Smiles>  (466) 
CCS(=O)(=O)c1ccc(OC)c(Nc2ncc(-c3cccc(OC)c3)o2)c1

>  <Standard Type>  (466) 
Inhibition

>  <Standard Relation>  (466) 
'='

>  <Standard Units>  (466) 
%

>  <Standard Value>  (466) 
-0.79

>  <Assay ChEMBL ID>  (466) 
CHEMBL1962142

>  <Assay Description>  (466) 
GSK_PKIS: MET mean inhibition at 0.1 uM [Nanosyn]

>  <BAO Format ID>  (466) 
BAO_0000357

>  <BAO Label>  (466) 
single protein format

>  <Assay Organism>  (466) 
None

>  <Target ChEMBL ID>  (466) 
CHEMBL3717

>  <Target Name>  (466) 
Hepatocyte growth factor receptor

>  <Target Organism>  (466) 
Homo sapiens

>  <Target Type>  (466) 
SINGLE PROTEIN

>  <Document ChEMBL ID>  (466) 
CHEMBL1961873

>  <Source Description>  (466) 
GSK Published Kinase Inhibitor Set

>  <Document Journal>  (466) 
nan

>  <Document Year>  (466) 
nan

>  <Active>  (466) 
0.0

$$$$

     RDKit          2D

 21 23  0  0  0  0  0  0  0  0999 V2000
   -0.0000   -5.1073    0.0000 O   0  0  0  0  0  0  0  0  0  0  0  0
   -0.0000   -3.6073    0.0000 C   0  0  0  0  0  0  0  0  0  0  0  0
    1.2135   -2.7256    0.0000 N   0  0  0  0  0  0  0  0  0  0  0  0
    0.7500   -1.2990    0.0000 C   0  0  0  0  0  0  0  0  0  0  0  0
    1.5000    0.0000    0.0000 C   0  0  0  0  0  0  0  0  0  0  0  0
    0.7500    1.2990    0.0000 C   0  0  0  0  0  0  0  0  0  0  0  0
   -0.7500    1.2990    0.0000 C   0  0  0  0  0  0  0  0  0  0  0  0
   -1.5000    2.5981    0.0000 I   0  0  0  0  0  0  0  0  0  0  0  0
   -1.5000    0.0000    0.0000 C   0  0  0  0  0  0  0  0  0  0  0  0
   -0.7500   -1.2990    0.0000 C   0  0  0  0  0  0  0  0  0  0  0  0
   -1.2135   -2.7256    0.0000 C   0  0  0  0  0  0  0  0  0  0  0  0
   -2.6401   -3.1891    0.0000 C   0  0  0  0  0  0  0  0  0  0  0  0
   -2.9520   -4.6564    0.0000 C   0  0  0  0  0  0  0  0  0  0  0  0
   -4.3786   -5.1199    0.0000 C   0  0  0  0  0  0  0  0  0  0  0  0
   -4.6904   -6.5871    0.0000 C   0  0  0  0  0  0  0  0  0  0  0  0
   -6.1170   -7.0506    0.0000 Br  0  0  0  0  0  0  0  0  0  0  0  0
   -3.5757   -7.5908    0.0000 C   0  0  0  0  0  0  0  0  0  0  0  0
   -3.8876   -9.0580    0.0000 O   0  0  0  0  0  0  0  0  0  0  0  0
   -2.1491   -7.1273    0.0000 C   0  0  0  0  0  0  0  0  0  0  0  0
   -1.0344   -8.1310    0.0000 Br  0  0  0  0  0  0  0  0  0  0  0  0
   -1.8373   -5.6601    0.0000 C   0  0  0  0  0  0  0  0  0  0  0  0
  1  2  2  0
  2  3  1  0
  3  4  1  0
  4  5  2  0
  5  6  1  0
  6  7  2  0
  7  8  1  0
  7  9  1  0
  9 10  2  0
 10 11  1  0
 11 12  2  3
 12 13  1  0
 13 14  2  0
 14 15  1  0
 15 16  1  0
 15 17  2  0
 17 18  1  0
 17 19  1  0
 19 20  1  0
 19 21  2  0
 11  2  1  0
 21 13  1  0
 10  4  1  0
M  END
>  <Compound_ID>  (467) 
CHEMBL1880739

>  <Molecule Name>  (467) 
GW305074X

>  <Molecular Weight>  (467) 
520.95

>  <AlogP>  (467) 
5.01

>  <Smiles>  (467) 
O=C1Nc2ccc(I)cc2C1=Cc1cc(Br)c(O)c(Br)c1

>  <Standard Type>  (467) 
Inhibition

>  <Standard Relation>  (467) 
'='

>  <Standard Units>  (467) 
%

>  <Standard Value>  (467) 
4.15

>  <Assay ChEMBL ID>  (467) 
CHEMBL1962143

>  <Assay Description>  (467) 
GSK_PKIS: MET mean inhibition at 1 uM [Nanosyn]

>  <BAO Format ID>  (467) 
BAO_0000357

>  <BAO Label>  (467) 
single protein format

>  <Assay Organism>  (467) 
None

>  <Target ChEMBL ID>  (467) 
CHEMBL3717

>  <Target Name>  (467) 
Hepatocyte growth factor receptor

>  <Target Organism>  (467) 
Homo sapiens

>  <Target Type>  (467) 
SINGLE PROTEIN

>  <Document ChEMBL ID>  (467) 
CHEMBL1961873

>  <Source Description>  (467) 
GSK Published Kinase Inhibitor Set

>  <Document Journal>  (467) 
nan

>  <Document Year>  (467) 
nan

>  <Active>  (467) 
0.0

$$$$

     RDKit          2D

 29 32  0  0  0  0  0  0  0  0999 V2000
    3.7500   -6.4952    0.0000 C   0  0  0  0  0  0  0  0  0  0  0  0
    3.0000   -5.1962    0.0000 N   0  0  0  0  0  0  0  0  0  0  0  0
    1.5000   -5.1962    0.0000 C   0  0  0  0  0  0  0  0  0  0  0  0
    0.7500   -3.8971    0.0000 C   0  0  0  0  0  0  0  0  0  0  0  0
    1.5000   -2.5981    0.0000 N   0  0  0  0  0  0  0  0  0  0  0  0
    0.7500   -1.2990    0.0000 C   0  0  0  0  0  0  0  0  0  0  0  0
    1.5000    0.0000    0.0000 C   0  0  0  0  0  0  0  0  0  0  0  0
    0.7500    1.2990    0.0000 N   0  0  0  0  0  0  0  0  0  0  0  0
   -0.7500    1.2990    0.0000 C   0  0  0  0  0  0  0  0  0  0  0  0
   -1.5000    2.5981    0.0000 C   0  0  0  0  0  0  0  0  0  0  0  0
   -3.0000    2.5981    0.0000 C   0  0  0  0  0  0  0  0  0  0  0  0
   -3.7500    1.2990    0.0000 C   0  0  0  0  0  0  0  0  0  0  0  0
   -3.0000    0.0000    0.0000 C   0  0  0  0  0  0  0  0  0  0  0  0
   -3.7500   -1.2990    0.0000 O   0  0  0  0  0  0  0  0  0  0  0  0
   -5.2500   -1.2990    0.0000 C   0  0  0  0  0  0  0  0  0  0  0  0
   -6.0000    0.0000    0.0000 O   0  0  0  0  0  0  0  0  0  0  0  0
   -6.0000   -2.5981    0.0000 C   0  0  0  0  0  0  0  0  0  0  0  0
   -7.5000   -2.5981    0.0000 C   0  0  0  0  0  0  0  0  0  0  0  0
   -8.2500   -3.8971    0.0000 C   0  0  0  0  0  0  0  0  0  0  0  0
   -7.5000   -5.1962    0.0000 C   0  0  0  0  0  0  0  0  0  0  0  0
   -6.0000   -5.1962    0.0000 C   0  0  0  0  0  0  0  0  0  0  0  0
   -5.2500   -6.4952    0.0000 N   0  0  0  0  0  4  0  0  0  0  0  0
   -3.7500   -6.4952    0.0000 O   0  0  0  0  0  0  0  0  0  0  0  0
   -6.0000   -7.7942    0.0000 O   0  0  0  0  0  1  0  0  0  0  0  0
   -5.2500   -3.8971    0.0000 C   0  0  0  0  0  0  0  0  0  0  0  0
   -1.5000    0.0000    0.0000 C   0  0  0  0  0  0  0  0  0  0  0  0
   -0.7500   -1.2990    0.0000 C   0  0  0  0  0  0  0  0  0  0  0  0
    3.0000   -2.5981    0.0000 C   0  0  0  0  0  0  0  0  0  0  0  0
    3.7500   -3.8971    0.0000 C   0  0  0  0  0  0  0  0  0  0  0  0
  1  2  1  0
  2  3  1  0
  3  4  1  0
  4  5  1  0
  5  6  1  0
  6  7  2  0
  7  8  1  0
  8  9  2  0
  9 10  1  0
 10 11  2  0
 11 12  1  0
 12 13  2  0
 13 14  1  0
 14 15  1  0
 15 16  2  0
 15 17  1  0
 17 18  2  0
 18 19  1  0
 19 20  2  0
 20 21  1  0
 21 22  1  0
 22 23  2  0
 22 24  1  0
 21 25  2  0
 13 26  1  0
 26 27  2  0
  5 28  1  0
 28 29  1  0
 29  2  1  0
 27  6  1  0
 26  9  1  0
 25 17  1  0
M  CHG  2  22   1  24  -1
M  END
>  <Compound_ID>  (468) 
CHEMBL1766511

>  <Molecule Name>  (468) 
nan

>  <Molecular Weight>  (468) 
392.42

>  <AlogP>  (468) 
3.11

>  <Smiles>  (468) 
CN1CCN(c2cnc3cccc(OC(=O)c4cccc([N+](=O)[O-])c4)c3c2)CC1

>  <Standard Type>  (468) 
Inhibition

>  <Standard Relation>  (468) 
'='

>  <Standard Units>  (468) 
%

>  <Standard Value>  (468) 
7.3

>  <Assay ChEMBL ID>  (468) 
CHEMBL1768669

>  <Assay Description>  (468) 
Inhibition of purified recombinant c-Met at 10 uM after 60 mins by ELISA

>  <BAO Format ID>  (468) 
BAO_0000357

>  <BAO Label>  (468) 
single protein format

>  <Assay Organism>  (468) 
None

>  <Target ChEMBL ID>  (468) 
CHEMBL3717

>  <Target Name>  (468) 
Hepatocyte growth factor receptor

>  <Target Organism>  (468) 
Homo sapiens

>  <Target Type>  (468) 
SINGLE PROTEIN

>  <Document ChEMBL ID>  (468) 
CHEMBL1765011

>  <Source Description>  (468) 
Scientific Literature

>  <Document Journal>  (468) 
J Med Chem

>  <Document Year>  (468) 
2011.0

>  <Active>  (468) 
0.0

$$$$

     RDKit          2D

 31 34  0  0  0  0  0  0  0  0999 V2000
    3.0000    0.0000    0.0000 F   0  0  0  0  0  0  0  0  0  0  0  0
    1.5000    0.0000    0.0000 C   0  0  0  0  0  0  0  0  0  0  0  0
    0.7500   -1.2990    0.0000 C   0  0  0  0  0  0  0  0  0  0  0  0
   -0.7500   -1.2990    0.0000 C   0  0  0  0  0  0  0  0  0  0  0  0
   -1.5000    0.0000    0.0000 C   0  0  0  0  0  0  0  0  0  0  0  0
   -0.7500    1.2990    0.0000 C   0  0  0  0  0  0  0  0  0  0  0  0
   -1.5000    2.5981    0.0000 C   0  0  0  0  0  0  0  0  0  0  0  0
   -0.7500    3.8971    0.0000 O   0  0  0  0  0  0  0  0  0  0  0  0
   -1.5000    5.1962    0.0000 C   0  0  0  0  0  0  0  0  0  0  0  0
   -0.7500    6.4952    0.0000 C   0  0  0  0  0  0  0  0  0  0  0  0
   -1.5000    7.7942    0.0000 C   0  0  0  0  0  0  0  0  0  0  0  0
   -3.0000    7.7942    0.0000 C   0  0  0  0  0  0  0  0  0  0  0  0
   -3.7500    9.0933    0.0000 N   0  0  0  0  0  0  0  0  0  0  0  0
   -3.0000   10.3923    0.0000 C   0  0  0  0  0  0  0  0  0  0  0  0
   -1.5000   10.3923    0.0000 N   0  0  0  0  0  0  0  0  0  0  0  0
   -0.7500   11.6913    0.0000 C   0  0  0  0  0  0  0  0  0  0  0  0
   -1.5000   12.9904    0.0000 N   0  0  0  0  0  0  0  0  0  0  0  0
   -3.0000   12.9904    0.0000 C   0  0  0  0  0  0  0  0  0  0  0  0
   -3.7500   11.6913    0.0000 C   0  0  0  0  0  0  0  0  0  0  0  0
   -5.2500   11.6913    0.0000 C   0  0  0  0  0  0  0  0  0  0  0  0
   -6.7500   11.6913    0.0000 C   0  0  0  0  0  0  0  0  0  0  0  0
   -8.2500   11.6913    0.0000 C   0  0  0  0  0  0  0  0  0  0  0  0
   -9.0000   12.9904    0.0000 C   0  0  0  0  0  0  0  0  0  0  0  0
  -10.5000   12.9904    0.0000 C   0  0  0  0  0  0  0  0  0  0  0  0
  -11.2500   11.6913    0.0000 C   0  0  0  0  0  0  0  0  0  0  0  0
  -10.5000   10.3923    0.0000 C   0  0  0  0  0  0  0  0  0  0  0  0
   -9.0000   10.3923    0.0000 C   0  0  0  0  0  0  0  0  0  0  0  0
   -3.7500    6.4952    0.0000 C   0  0  0  0  0  0  0  0  0  0  0  0
   -3.0000    5.1962    0.0000 C   0  0  0  0  0  0  0  0  0  0  0  0
   -3.7500    3.8971    0.0000 Cl  0  0  0  0  0  0  0  0  0  0  0  0
    0.7500    1.2990    0.0000 C   0  0  0  0  0  0  0  0  0  0  0  0
  1  2  1  0
  2  3  2  0
  3  4  1  0
  4  5  2  0
  5  6  1  0
  6  7  1  0
  7  8  1  0
  8  9  1  0
  9 10  2  0
 10 11  1  0
 11 12  2  0
 12 13  1  0
 13 14  1  0
 14 15  2  0
 15 16  1  0
 16 17  2  0
 17 18  1  0
 18 19  2  0
 19 20  1  0
 20 21  3  0
 21 22  1  0
 22 23  2  0
 23 24  1  0
 24 25  2  0
 25 26  1  0
 26 27  2  0
 12 28  1  0
 28 29  2  0
 29 30  1  0
  6 31  2  0
 31  2  1  0
 29  9  1  0
 19 14  1  0
 27 22  1  0
M  END
>  <Compound_ID>  (469) 
CHEMBL379093

>  <Molecule Name>  (469) 
GW651576X

>  <Molecular Weight>  (469) 
429.88

>  <AlogP>  (469) 
5.99

>  <Smiles>  (469) 
Fc1cccc(COc2ccc(Nc3ncncc3C#Cc3ccccc3)cc2Cl)c1

>  <Standard Type>  (469) 
Inhibition

>  <Standard Relation>  (469) 
'='

>  <Standard Units>  (469) 
%

>  <Standard Value>  (469) 
5.53

>  <Assay ChEMBL ID>  (469) 
CHEMBL1962143

>  <Assay Description>  (469) 
GSK_PKIS: MET mean inhibition at 1 uM [Nanosyn]

>  <BAO Format ID>  (469) 
BAO_0000357

>  <BAO Label>  (469) 
single protein format

>  <Assay Organism>  (469) 
None

>  <Target ChEMBL ID>  (469) 
CHEMBL3717

>  <Target Name>  (469) 
Hepatocyte growth factor receptor

>  <Target Organism>  (469) 
Homo sapiens

>  <Target Type>  (469) 
SINGLE PROTEIN

>  <Document ChEMBL ID>  (469) 
CHEMBL1961873

>  <Source Description>  (469) 
GSK Published Kinase Inhibitor Set

>  <Document Journal>  (469) 
nan

>  <Document Year>  (469) 
nan

>  <Active>  (469) 
0.0

$$$$

     RDKit          2D

 38 41  0  0  0  0  0  0  0  0999 V2000
   -6.2940    7.2357    0.0000 C   0  0  0  0  0  0  0  0  0  0  0  0
   -5.1793    6.2320    0.0000 O   0  0  0  0  0  0  0  0  0  0  0  0
   -5.4912    4.7648    0.0000 C   0  0  0  0  0  0  0  0  0  0  0  0
   -6.9177    4.3013    0.0000 C   0  0  0  0  0  0  0  0  0  0  0  0
   -7.2296    2.8340    0.0000 C   0  0  0  0  0  0  0  0  0  0  0  0
   -8.6562    2.3705    0.0000 C   0  0  0  0  0  0  0  0  0  0  0  0
   -6.1149    1.8303    0.0000 C   0  0  0  0  0  0  0  0  0  0  0  0
   -6.4268    0.3631    0.0000 N   0  0  0  0  0  0  0  0  0  0  0  0
   -7.8533   -0.1004    0.0000 C   0  0  0  0  0  0  0  0  0  0  0  0
   -5.3120   -0.6406    0.0000 C   0  0  0  0  0  0  0  0  0  0  0  0
   -3.8855   -0.1771    0.0000 O   0  0  0  0  0  0  0  0  0  0  0  0
   -5.6239   -2.1078    0.0000 C   0  0  0  0  0  0  0  0  0  0  0  0
   -4.5092   -3.1115    0.0000 N   0  0  0  0  0  0  0  0  0  0  0  0
   -4.8211   -4.5787    0.0000 C   0  0  0  0  0  0  0  0  0  0  0  0
   -3.0826   -2.6480    0.0000 C   0  0  0  0  0  0  0  0  0  0  0  0
   -4.6883    2.2939    0.0000 C   0  0  0  0  0  0  0  0  0  0  0  0
   -4.3764    3.7611    0.0000 C   0  0  0  0  0  0  0  0  0  0  0  0
   -2.9499    4.2246    0.0000 N   0  0  0  0  0  0  0  0  0  0  0  0
   -1.8351    3.2209    0.0000 C   0  0  0  0  0  0  0  0  0  0  0  0
   -0.4086    3.6844    0.0000 N   0  0  0  0  0  0  0  0  0  0  0  0
    0.7062    2.6807    0.0000 C   0  0  0  0  0  0  0  0  0  0  0  0
    2.1328    3.1443    0.0000 N   0  0  0  0  0  0  0  0  0  0  0  0
    3.2475    2.1406    0.0000 C   0  0  0  0  0  0  0  0  0  0  0  0
    2.9356    0.6734    0.0000 C   0  0  0  0  0  0  0  0  0  0  0  0
    4.0503   -0.3303    0.0000 C   0  0  0  0  0  0  0  0  0  0  0  0
    5.4769    0.1332    0.0000 C   0  0  0  0  0  0  0  0  0  0  0  0
    5.7888    1.6004    0.0000 C   0  0  0  0  0  0  0  0  0  0  0  0
    7.2154    2.0639    0.0000 F   0  0  0  0  0  0  0  0  0  0  0  0
    4.6741    2.6041    0.0000 C   0  0  0  0  0  0  0  0  0  0  0  0
    4.9859    4.0713    0.0000 C   0  0  0  0  0  0  0  0  0  0  0  0
    6.4125    4.5348    0.0000 N   0  0  0  0  0  0  0  0  0  0  0  0
    3.8712    5.0750    0.0000 O   0  0  0  0  0  0  0  0  0  0  0  0
    0.3943    1.2135    0.0000 C   0  0  0  0  0  0  0  0  0  0  0  0
    1.2760    0.0000    0.0000 C   0  0  0  0  0  0  0  0  0  0  0  0
    0.3943   -1.2135    0.0000 C   0  0  0  0  0  0  0  0  0  0  0  0
   -1.0323   -0.7500    0.0000 N   0  0  0  0  0  0  0  0  0  0  0  0
   -1.0323    0.7500    0.0000 C   0  0  0  0  0  0  0  0  0  0  0  0
   -2.1470    1.7537    0.0000 N   0  0  0  0  0  0  0  0  0  0  0  0
  1  2  1  0
  2  3  1  0
  3  4  2  0
  4  5  1  0
  5  6  1  0
  5  7  2  0
  7  8  1  0
  8  9  1  0
  8 10  1  0
 10 11  2  0
 10 12  1  0
 12 13  1  0
 13 14  1  0
 13 15  1  0
  7 16  1  0
 16 17  2  0
 17 18  1  0
 18 19  1  0
 19 20  2  0
 20 21  1  0
 21 22  1  0
 22 23  1  0
 23 24  2  0
 24 25  1  0
 25 26  2  0
 26 27  1  0
 27 28  1  0
 27 29  2  0
 29 30  1  0
 30 31  1  0
 30 32  2  0
 21 33  2  0
 33 34  1  0
 34 35  2  0
 35 36  1  0
 36 37  1  0
 37 38  2  0
 17  3  1  0
 38 19  1  0
 29 23  1  0
 37 33  1  0
M  END
>  <Compound_ID>  (470) 
CHEMBL467581

>  <Molecule Name>  (470) 
GSK-2219385A

>  <Molecular Weight>  (470) 
520.57

>  <AlogP>  (470) 
3.52

>  <Smiles>  (470) 
COc1cc(C)c(N(C)C(=O)CN(C)C)cc1Nc1nc(Nc2cccc(F)c2C(N)=O)c2cc[nH]c2n1

>  <Standard Type>  (470) 
Inhibition

>  <Standard Relation>  (470) 
'='

>  <Standard Units>  (470) 
%

>  <Standard Value>  (470) 
-0.92

>  <Assay ChEMBL ID>  (470) 
CHEMBL1962142

>  <Assay Description>  (470) 
GSK_PKIS: MET mean inhibition at 0.1 uM [Nanosyn]

>  <BAO Format ID>  (470) 
BAO_0000357

>  <BAO Label>  (470) 
single protein format

>  <Assay Organism>  (470) 
None

>  <Target ChEMBL ID>  (470) 
CHEMBL3717

>  <Target Name>  (470) 
Hepatocyte growth factor receptor

>  <Target Organism>  (470) 
Homo sapiens

>  <Target Type>  (470) 
SINGLE PROTEIN

>  <Document ChEMBL ID>  (470) 
CHEMBL1961873

>  <Source Description>  (470) 
GSK Published Kinase Inhibitor Set

>  <Document Journal>  (470) 
nan

>  <Document Year>  (470) 
nan

>  <Active>  (470) 
0.0

$$$$

     RDKit          2D

 28 31  0  0  0  0  0  0  0  0999 V2000
  -11.7058    2.3123    0.0000 C   0  0  0  0  0  0  0  0  0  0  0  0
  -10.5911    1.3086    0.0000 C   0  0  0  0  0  0  0  0  0  0  0  0
   -9.1645    1.7722    0.0000 C   0  0  0  0  0  0  0  0  0  0  0  0
   -8.0498    0.7685    0.0000 N   0  0  0  0  0  0  0  0  0  0  0  0
   -6.6232    1.2320    0.0000 C   0  0  0  0  0  0  0  0  0  0  0  0
   -6.3114    2.6992    0.0000 C   0  0  0  0  0  0  0  0  0  0  0  0
   -4.8848    3.1627    0.0000 C   0  0  0  0  0  0  0  0  0  0  0  0
   -3.7701    2.1590    0.0000 C   0  0  0  0  0  0  0  0  0  0  0  0
   -4.0819    0.6918    0.0000 C   0  0  0  0  0  0  0  0  0  0  0  0
   -2.9672   -0.3119    0.0000 N   0  0  0  0  0  0  0  0  0  0  0  0
   -3.1240   -1.8037    0.0000 N   0  0  0  0  0  0  0  0  0  0  0  0
   -1.7537   -2.4138    0.0000 C   0  0  0  0  0  0  0  0  0  0  0  0
   -0.7500   -1.2990    0.0000 C   0  0  0  0  0  0  0  0  0  0  0  0
    0.7500   -1.2990    0.0000 C   0  0  0  0  0  0  0  0  0  0  0  0
    1.5000   -2.5981    0.0000 N   0  0  0  0  0  0  0  0  0  0  0  0
    3.0000   -2.5981    0.0000 N   0  0  0  0  0  0  0  0  0  0  0  0
    3.7500   -3.8971    0.0000 C   0  0  0  0  0  0  0  0  0  0  0  0
    5.2500   -3.8971    0.0000 C   0  0  0  0  0  0  0  0  0  0  0  0
    6.0000   -5.1962    0.0000 C   0  0  0  0  0  0  0  0  0  0  0  0
    7.5000   -5.1962    0.0000 C   0  0  0  0  0  0  0  0  0  0  0  0
    8.2500   -3.8971    0.0000 N   0  0  0  0  0  0  0  0  0  0  0  0
    7.5000   -2.5981    0.0000 C   0  0  0  0  0  0  0  0  0  0  0  0
    6.0000   -2.5981    0.0000 C   0  0  0  0  0  0  0  0  0  0  0  0
    1.5000    0.0000    0.0000 N   0  0  0  0  0  0  0  0  0  0  0  0
    0.7500    1.2990    0.0000 C   0  0  0  0  0  0  0  0  0  0  0  0
   -0.7500    1.2990    0.0000 N   0  0  0  0  0  0  0  0  0  0  0  0
   -1.5000    0.0000    0.0000 C   0  0  0  0  0  0  0  0  0  0  0  0
   -5.5085    0.2283    0.0000 C   0  0  0  0  0  0  0  0  0  0  0  0
  1  2  1  0
  2  3  1  0
  3  4  1  0
  4  5  1  0
  5  6  2  0
  6  7  1  0
  7  8  2  0
  8  9  1  0
  9 10  1  0
 10 11  1  0
 11 12  2  0
 12 13  1  0
 13 14  2  0
 14 15  1  0
 15 16  1  0
 16 17  2  0
 17 18  1  0
 18 19  2  0
 19 20  1  0
 20 21  2  0
 21 22  1  0
 22 23  2  0
 14 24  1  0
 24 25  2  0
 25 26  1  0
 26 27  2  0
  9 28  2  0
 28  5  1  0
 27 10  1  0
 27 13  1  0
 23 18  1  0
M  END
>  <Compound_ID>  (471) 
CHEMBL67241

>  <Molecule Name>  (471) 
GW794607X

>  <Molecular Weight>  (471) 
372.44

>  <AlogP>  (471) 
3.48

>  <Smiles>  (471) 
CCCNc1cccc(-n2ncc3c(N/N=C/c4ccncc4)ncnc32)c1

>  <Standard Type>  (471) 
Inhibition

>  <Standard Relation>  (471) 
'='

>  <Standard Units>  (471) 
%

>  <Standard Value>  (471) 
12.55

>  <Assay ChEMBL ID>  (471) 
CHEMBL1962142

>  <Assay Description>  (471) 
GSK_PKIS: MET mean inhibition at 0.1 uM [Nanosyn]

>  <BAO Format ID>  (471) 
BAO_0000357

>  <BAO Label>  (471) 
single protein format

>  <Assay Organism>  (471) 
None

>  <Target ChEMBL ID>  (471) 
CHEMBL3717

>  <Target Name>  (471) 
Hepatocyte growth factor receptor

>  <Target Organism>  (471) 
Homo sapiens

>  <Target Type>  (471) 
SINGLE PROTEIN

>  <Document ChEMBL ID>  (471) 
CHEMBL1961873

>  <Source Description>  (471) 
GSK Published Kinase Inhibitor Set

>  <Document Journal>  (471) 
nan

>  <Document Year>  (471) 
nan

>  <Active>  (471) 
0.0

$$$$

     RDKit          2D

 29 32  0  0  0  0  0  0  0  0999 V2000
   -6.4289   -8.5179    0.0000 O   0  0  0  0  0  0  0  0  0  0  0  0
   -5.3142   -9.5216    0.0000 C   0  0  0  0  0  0  0  0  0  0  0  0
   -5.6260  -10.9888    0.0000 N   0  0  0  0  0  0  0  0  0  0  0  0
   -7.0526  -11.4523    0.0000 C   0  0  0  0  0  0  0  0  0  0  0  0
   -8.1673  -10.4486    0.0000 C   0  0  0  0  0  0  0  0  0  0  0  0
   -9.5939  -10.9121    0.0000 C   0  0  0  0  0  0  0  0  0  0  0  0
   -9.9058  -12.3794    0.0000 C   0  0  0  0  0  0  0  0  0  0  0  0
  -11.3324  -12.8429    0.0000 Br  0  0  0  0  0  0  0  0  0  0  0  0
   -8.7911  -13.3831    0.0000 C   0  0  0  0  0  0  0  0  0  0  0  0
   -7.3645  -12.9195    0.0000 C   0  0  0  0  0  0  0  0  0  0  0  0
   -3.8876   -9.0580    0.0000 N   0  0  0  0  0  0  0  0  0  0  0  0
   -3.5757   -7.5908    0.0000 C   0  0  0  0  0  0  0  0  0  0  0  0
   -2.1491   -7.1273    0.0000 C   0  0  0  0  0  0  0  0  0  0  0  0
   -1.8373   -5.6601    0.0000 C   0  0  0  0  0  0  0  0  0  0  0  0
   -2.9520   -4.6564    0.0000 C   0  0  0  0  0  0  0  0  0  0  0  0
   -2.6401   -3.1891    0.0000 O   0  0  0  0  0  0  0  0  0  0  0  0
   -1.2135   -2.7256    0.0000 C   0  0  0  0  0  0  0  0  0  0  0  0
   -0.0000   -3.6073    0.0000 N   0  0  0  0  0  0  0  0  0  0  0  0
    1.2135   -2.7256    0.0000 S   0  0  0  0  0  0  0  0  0  0  0  0
    1.9635   -4.0247    0.0000 O   0  0  0  0  0  0  0  0  0  0  0  0
    2.5838   -2.1155    0.0000 O   0  0  0  0  0  0  0  0  0  0  0  0
    0.7500   -1.2990    0.0000 C   0  0  0  0  0  0  0  0  0  0  0  0
    1.5000    0.0000    0.0000 C   0  0  0  0  0  0  0  0  0  0  0  0
    0.7500    1.2990    0.0000 C   0  0  0  0  0  0  0  0  0  0  0  0
   -0.7500    1.2990    0.0000 C   0  0  0  0  0  0  0  0  0  0  0  0
   -1.5000    0.0000    0.0000 C   0  0  0  0  0  0  0  0  0  0  0  0
   -0.7500   -1.2990    0.0000 C   0  0  0  0  0  0  0  0  0  0  0  0
   -4.3786   -5.1199    0.0000 C   0  0  0  0  0  0  0  0  0  0  0  0
   -4.6904   -6.5871    0.0000 C   0  0  0  0  0  0  0  0  0  0  0  0
  1  2  2  0
  2  3  1  0
  3  4  1  0
  4  5  2  0
  5  6  1  0
  6  7  2  0
  7  8  1  0
  7  9  1  0
  9 10  2  0
  2 11  1  0
 11 12  1  0
 12 13  2  0
 13 14  1  0
 14 15  2  0
 15 16  1  0
 16 17  1  0
 17 18  2  0
 18 19  1  0
 19 20  2  0
 19 21  2  0
 19 22  1  0
 22 23  2  0
 23 24  1  0
 24 25  2  0
 25 26  1  0
 26 27  2  0
 15 28  1  0
 28 29  2  0
 10  4  1  0
 29 12  1  0
 27 17  1  0
 27 22  1  0
M  END
>  <Compound_ID>  (472) 
CHEMBL2334809

>  <Molecule Name>  (472) 
nan

>  <Molecular Weight>  (472) 
472.32

>  <AlogP>  (472) 
4.62

>  <Smiles>  (472) 
O=C(Nc1ccc(Br)cc1)Nc1ccc(OC2=NS(=O)(=O)c3ccccc32)cc1

>  <Standard Type>  (472) 
Inhibition

>  <Standard Relation>  (472) 
'='

>  <Standard Units>  (472) 
%

>  <Standard Value>  (472) 
10.0

>  <Assay ChEMBL ID>  (472) 
CHEMBL2338948

>  <Assay Description>  (472) 
Inhibition of c-MET tyrosine kinase (unknown origin) using [33P]-ATP at 10 uM after 20 to 40 mins by scintillation counting analysis

>  <BAO Format ID>  (472) 
BAO_0000357

>  <BAO Label>  (472) 
single protein format

>  <Assay Organism>  (472) 
Homo sapiens

>  <Target ChEMBL ID>  (472) 
CHEMBL3717

>  <Target Name>  (472) 
Hepatocyte growth factor receptor

>  <Target Organism>  (472) 
Homo sapiens

>  <Target Type>  (472) 
SINGLE PROTEIN

>  <Document ChEMBL ID>  (472) 
CHEMBL2331514

>  <Source Description>  (472) 
Scientific Literature

>  <Document Journal>  (472) 
Eur J Med Chem

>  <Document Year>  (472) 
2013.0

>  <Active>  (472) 
0.0

$$$$

     RDKit          2D

 34 39  0  0  0  0  0  0  0  0999 V2000
    8.8936    9.8645    0.0000 F   0  0  0  0  0  0  0  0  0  0  0  0
    8.2835    8.4941    0.0000 C   0  0  0  0  0  0  0  0  0  0  0  0
    9.1651    7.2806    0.0000 C   0  0  0  0  0  0  0  0  0  0  0  0
    8.5550    5.9103    0.0000 C   0  0  0  0  0  0  0  0  0  0  0  0
    7.0632    5.7535    0.0000 C   0  0  0  0  0  0  0  0  0  0  0  0
    6.4531    4.3832    0.0000 C   0  0  0  0  0  0  0  0  0  0  0  0
    7.2031    3.0842    0.0000 N   0  0  0  0  0  0  0  0  0  0  0  0
    6.1994    1.9694    0.0000 C   0  0  0  0  0  0  0  0  0  0  0  0
    4.8291    2.5795    0.0000 N   0  0  0  0  0  0  0  0  0  0  0  0
    3.5301    1.8295    0.0000 C   0  0  0  0  0  0  0  0  0  0  0  0
    2.2311    2.5795    0.0000 C   0  0  0  0  0  0  0  0  0  0  0  0
    0.9320    1.8295    0.0000 C   0  0  0  0  0  0  0  0  0  0  0  0
    0.9320    0.3295    0.0000 N   0  0  0  0  0  0  0  0  0  0  0  0
    2.2311   -0.4205    0.0000 C   0  0  0  0  0  0  0  0  0  0  0  0
    3.5301    0.3295    0.0000 C   0  0  0  0  0  0  0  0  0  0  0  0
    4.9859    4.0713    0.0000 C   0  0  0  0  0  0  0  0  0  0  0  0
    3.8712    5.0750    0.0000 C   0  0  0  0  0  0  0  0  0  0  0  0
    4.1831    6.5422    0.0000 C   0  0  0  0  0  0  0  0  0  0  0  0
    3.0684    7.5459    0.0000 C   0  0  0  0  0  0  0  0  0  0  0  0
    1.6418    7.0824    0.0000 N   0  0  0  0  0  0  0  0  0  0  0  0
    1.3299    5.6152    0.0000 C   0  0  0  0  0  0  0  0  0  0  0  0
   -0.0967    5.1517    0.0000 O   0  0  0  0  0  0  0  0  0  0  0  0
   -0.4086    3.6844    0.0000 C   0  0  0  0  0  0  0  0  0  0  0  0
    0.7062    2.6807    0.0000 C   0  0  0  0  0  0  0  0  0  0  0  0
    0.3943    1.2135    0.0000 C   0  0  0  0  0  0  0  0  0  0  0  0
   -1.0323    0.7500    0.0000 C   0  0  0  0  0  0  0  0  0  0  0  0
   -2.1470    1.7537    0.0000 C   0  0  0  0  0  0  0  0  0  0  0  0
   -1.8351    3.2209    0.0000 C   0  0  0  0  0  0  0  0  0  0  0  0
   -3.4460    1.0037    0.0000 O   0  0  0  0  0  0  0  0  0  0  0  0
   -3.1342   -0.4635    0.0000 C   0  0  0  0  0  0  0  0  0  0  0  0
   -1.6424   -0.6203    0.0000 O   0  0  0  0  0  0  0  0  0  0  0  0
    2.4446    4.6115    0.0000 N   0  0  0  0  0  0  0  0  0  0  0  0
    6.1816    6.9670    0.0000 C   0  0  0  0  0  0  0  0  0  0  0  0
    6.7917    8.3374    0.0000 C   0  0  0  0  0  0  0  0  0  0  0  0
  1  2  1  0
  2  3  2  0
  3  4  1  0
  4  5  2  0
  5  6  1  0
  6  7  1  0
  7  8  2  0
  8  9  1  0
  9 10  1  0
 10 11  1  0
 11 12  1  0
 12 13  1  0
 13 14  1  0
 14 15  1  0
  9 16  1  0
 16 17  1  0
 17 18  2  0
 18 19  1  0
 19 20  2  0
 20 21  1  0
 21 22  1  0
 22 23  1  0
 23 24  2  0
 24 25  1  0
 25 26  2  0
 26 27  1  0
 27 28  2  0
 27 29  1  0
 29 30  1  0
 30 31  1  0
 21 32  2  0
  5 33  1  0
 33 34  2  0
 34  2  1  0
 16  6  2  0
 32 17  1  0
 15 10  1  0
 28 23  1  0
 31 26  1  0
M  END
>  <Compound_ID>  (473) 
CHEMBL273611

>  <Molecule Name>  (473) 
nan

>  <Molecular Weight>  (473) 
459.48

>  <AlogP>  (473) 
4.59

>  <Smiles>  (473) 
Fc1ccc(-c2ncn(C3CCNCC3)c2-c2ccnc(Oc3ccc4c(c3)OCO4)n2)cc1

>  <Standard Type>  (473) 
Inhibition

>  <Standard Relation>  (473) 
'='

>  <Standard Units>  (473) 
%

>  <Standard Value>  (473) 
2.27

>  <Assay ChEMBL ID>  (473) 
CHEMBL1962142

>  <Assay Description>  (473) 
GSK_PKIS: MET mean inhibition at 0.1 uM [Nanosyn]

>  <BAO Format ID>  (473) 
BAO_0000357

>  <BAO Label>  (473) 
single protein format

>  <Assay Organism>  (473) 
None

>  <Target ChEMBL ID>  (473) 
CHEMBL3717

>  <Target Name>  (473) 
Hepatocyte growth factor receptor

>  <Target Organism>  (473) 
Homo sapiens

>  <Target Type>  (473) 
SINGLE PROTEIN

>  <Document ChEMBL ID>  (473) 
CHEMBL1961873

>  <Source Description>  (473) 
GSK Published Kinase Inhibitor Set

>  <Document Journal>  (473) 
nan

>  <Document Year>  (473) 
nan

>  <Active>  (473) 
0.0

$$$$

     RDKit          2D

 25 28  0  0  0  0  0  0  0  0999 V2000
   -4.6904   -6.5871    0.0000 C   0  0  0  0  0  0  0  0  0  0  0  0
   -4.3786   -5.1199    0.0000 C   0  0  0  0  0  0  0  0  0  0  0  0
   -2.9520   -4.6564    0.0000 N   0  0  0  0  0  0  0  0  0  0  0  0
   -2.6401   -3.1891    0.0000 C   0  0  0  0  0  0  0  0  0  0  0  0
   -3.7548   -2.1855    0.0000 O   0  0  0  0  0  0  0  0  0  0  0  0
   -1.2135   -2.7256    0.0000 C   0  0  0  0  0  0  0  0  0  0  0  0
   -0.0000   -3.6073    0.0000 C   0  0  0  0  0  0  0  0  0  0  0  0
    1.2135   -2.7256    0.0000 N   0  0  0  0  0  0  0  0  0  0  0  0
    0.7500   -1.2990    0.0000 C   0  0  0  0  0  0  0  0  0  0  0  0
    1.5000    0.0000    0.0000 N   0  0  0  0  0  0  0  0  0  0  0  0
    0.7500    1.2990    0.0000 C   0  0  0  0  0  0  0  0  0  0  0  0
   -0.7500    1.2990    0.0000 C   0  0  0  0  0  0  0  0  0  0  0  0
   -1.5000    2.5981    0.0000 C   0  0  0  0  0  0  0  0  0  0  0  0
   -2.7990    3.3481    0.0000 C   0  0  0  0  0  0  0  0  0  0  0  0
   -1.5000    4.0981    0.0000 C   0  0  0  0  0  0  0  0  0  0  0  0
   -1.5000    0.0000    0.0000 N   0  0  0  0  0  0  0  0  0  0  0  0
   -0.7500   -1.2990    0.0000 C   0  0  0  0  0  0  0  0  0  0  0  0
   -5.4933   -4.1162    0.0000 C   0  0  0  0  0  0  0  0  0  0  0  0
   -5.1814   -2.6490    0.0000 O   0  0  0  0  0  0  0  0  0  0  0  0
   -6.9199   -4.5797    0.0000 N   0  0  0  0  0  0  0  0  0  0  0  0
   -8.2564   -3.8987    0.0000 C   0  0  0  0  0  0  0  0  0  0  0  0
   -8.9374   -5.2352    0.0000 C   0  0  0  0  0  0  0  0  0  0  0  0
  -10.3639   -5.6988    0.0000 C   0  0  0  0  0  0  0  0  0  0  0  0
  -11.7905   -6.1623    0.0000 N   0  0  0  0  0  0  0  0  0  0  0  0
   -7.6009   -5.9162    0.0000 C   0  0  0  0  0  0  0  0  0  0  0  0
  2  1  1  6
  2  3  1  0
  3  4  1  0
  4  5  2  0
  4  6  1  0
  6  7  2  0
  7  8  1  0
  8  9  1  0
  9 10  2  0
 10 11  1  0
 11 12  2  0
 12 13  1  0
 13 14  1  0
 14 15  1  0
 12 16  1  0
 16 17  2  0
  2 18  1  0
 18 19  2  0
 18 20  1  0
 20 21  1  0
 21 22  1  0
 22 23  1  0
 23 24  3  0
 22 25  1  0
 17  6  1  0
 25 20  1  0
 17  9  1  0
 15 13  1  0
M  END
>  <Compound_ID>  (474) 
CHEMBL2325894

>  <Molecule Name>  (474) 
nan

>  <Molecular Weight>  (474) 
338.37

>  <AlogP>  (474) 
0.94

>  <Smiles>  (474) 
C[C@@H](NC(=O)c1c[nH]c2ncc(C3CC3)nc12)C(=O)N1CC(C#N)C1

>  <Standard Type>  (474) 
Inhibition

>  <Standard Relation>  (474) 
'='

>  <Standard Units>  (474) 
%

>  <Standard Value>  (474) 
-8.0

>  <Assay ChEMBL ID>  (474) 
CHEMBL2329182

>  <Assay Description>  (474) 
Inhibition of MET (unknown origin) at 1 uM

>  <BAO Format ID>  (474) 
BAO_0000357

>  <BAO Label>  (474) 
single protein format

>  <Assay Organism>  (474) 
Homo sapiens

>  <Target ChEMBL ID>  (474) 
CHEMBL3717

>  <Target Name>  (474) 
Hepatocyte growth factor receptor

>  <Target Organism>  (474) 
Homo sapiens

>  <Target Type>  (474) 
SINGLE PROTEIN

>  <Document ChEMBL ID>  (474) 
CHEMBL2321829

>  <Source Description>  (474) 
Scientific Literature

>  <Document Journal>  (474) 
J Med Chem

>  <Document Year>  (474) 
2013.0

>  <Active>  (474) 
0.0

$$$$

     RDKit          2D

 22 24  0  0  0  0  0  0  0  0999 V2000
   -4.6904   -6.5871    0.0000 C   0  0  0  0  0  0  0  0  0  0  0  0
   -4.3786   -5.1199    0.0000 C   0  0  0  0  0  0  0  0  0  0  0  0
   -2.9520   -4.6564    0.0000 N   0  0  0  0  0  0  0  0  0  0  0  0
   -2.6401   -3.1891    0.0000 C   0  0  0  0  0  0  0  0  0  0  0  0
   -3.7548   -2.1855    0.0000 O   0  0  0  0  0  0  0  0  0  0  0  0
   -1.2135   -2.7256    0.0000 C   0  0  0  0  0  0  0  0  0  0  0  0
   -0.0000   -3.6073    0.0000 C   0  0  0  0  0  0  0  0  0  0  0  0
    1.2135   -2.7256    0.0000 N   0  0  0  0  0  0  0  0  0  0  0  0
    0.7500   -1.2990    0.0000 C   0  0  0  0  0  0  0  0  0  0  0  0
    1.5000    0.0000    0.0000 N   0  0  0  0  0  0  0  0  0  0  0  0
    0.7500    1.2990    0.0000 C   0  0  0  0  0  0  0  0  0  0  0  0
   -0.7500    1.2990    0.0000 C   0  0  0  0  0  0  0  0  0  0  0  0
   -1.5000    2.5981    0.0000 C   0  0  0  0  0  0  0  0  0  0  0  0
   -2.7990    3.3481    0.0000 C   0  0  0  0  0  0  0  0  0  0  0  0
   -1.5000    4.0981    0.0000 C   0  0  0  0  0  0  0  0  0  0  0  0
   -1.5000    0.0000    0.0000 N   0  0  0  0  0  0  0  0  0  0  0  0
   -0.7500   -1.2990    0.0000 C   0  0  0  0  0  0  0  0  0  0  0  0
   -5.4933   -4.1162    0.0000 C   0  0  0  0  0  0  0  0  0  0  0  0
   -4.4896   -3.0015    0.0000 C   0  0  0  0  0  0  0  0  0  0  0  0
   -6.4970   -5.2309    0.0000 C   0  0  0  0  0  0  0  0  0  0  0  0
   -6.6080   -3.1125    0.0000 C   0  0  0  0  0  0  0  0  0  0  0  0
   -7.7227   -2.1088    0.0000 N   0  0  0  0  0  0  0  0  0  0  0  0
  2  1  1  1
  2  3  1  0
  3  4  1  0
  4  5  2  0
  4  6  1  0
  6  7  2  0
  7  8  1  0
  8  9  1  0
  9 10  2  0
 10 11  1  0
 11 12  2  0
 12 13  1  0
 13 14  1  0
 14 15  1  0
 12 16  1  0
 16 17  2  0
  2 18  1  0
 18 19  1  0
 18 20  1  0
 18 21  1  0
 21 22  3  0
 17  6  1  0
 17  9  1  0
 15 13  1  0
M  END
>  <Compound_ID>  (475) 
CHEMBL2325906

>  <Molecule Name>  (475) 
nan

>  <Molecular Weight>  (475) 
297.36

>  <AlogP>  (475) 
2.50

>  <Smiles>  (475) 
C[C@H](NC(=O)c1c[nH]c2ncc(C3CC3)nc12)C(C)(C)C#N

>  <Standard Type>  (475) 
Inhibition

>  <Standard Relation>  (475) 
'='

>  <Standard Units>  (475) 
%

>  <Standard Value>  (475) 
15.0

>  <Assay ChEMBL ID>  (475) 
CHEMBL2329182

>  <Assay Description>  (475) 
Inhibition of MET (unknown origin) at 1 uM

>  <BAO Format ID>  (475) 
BAO_0000357

>  <BAO Label>  (475) 
single protein format

>  <Assay Organism>  (475) 
Homo sapiens

>  <Target ChEMBL ID>  (475) 
CHEMBL3717

>  <Target Name>  (475) 
Hepatocyte growth factor receptor

>  <Target Organism>  (475) 
Homo sapiens

>  <Target Type>  (475) 
SINGLE PROTEIN

>  <Document ChEMBL ID>  (475) 
CHEMBL2321829

>  <Source Description>  (475) 
Scientific Literature

>  <Document Journal>  (475) 
J Med Chem

>  <Document Year>  (475) 
2013.0

>  <Active>  (475) 
0.0

$$$$

     RDKit          2D

 20 21  0  0  0  0  0  0  0  0999 V2000
    3.0000    0.0000    0.0000 C   0  0  0  0  0  0  0  0  0  0  0  0
    1.5000    0.0000    0.0000 C   0  0  0  0  0  0  0  0  0  0  0  0
    0.7500   -1.2990    0.0000 C   0  0  0  0  0  0  0  0  0  0  0  0
   -0.7500   -1.2990    0.0000 C   0  0  0  0  0  0  0  0  0  0  0  0
   -1.5000   -2.5981    0.0000 O   0  0  0  0  0  0  0  0  0  0  0  0
   -1.5000    0.0000    0.0000 C   0  0  0  0  0  0  0  0  0  0  0  0
   -0.7500    1.2990    0.0000 C   0  0  0  0  0  0  0  0  0  0  0  0
   -1.5000    2.5981    0.0000 C   0  0  0  0  0  0  0  0  0  0  0  0
    0.7500    1.2990    0.0000 C   0  0  0  0  0  0  0  0  0  0  0  0
    1.5000    2.5981    0.0000 C   0  0  0  0  0  0  0  0  0  0  0  0
    3.0000    2.5981    0.0000 C   0  0  0  0  0  0  0  0  0  0  0  0
    3.7500    3.8971    0.0000 C   0  0  0  0  0  0  0  0  0  0  0  0
    5.2500    3.8971    0.0000 C   0  0  0  0  0  0  0  0  0  0  0  0
    6.0000    5.1962    0.0000 N   0  0  0  0  0  0  0  0  0  0  0  0
    5.2500    6.4952    0.0000 C   0  0  0  0  0  0  0  0  0  0  0  0
    3.7500    6.4952    0.0000 C   0  0  0  0  0  0  0  0  0  0  0  0
    3.0000    7.7942    0.0000 C   0  0  0  0  0  0  0  0  0  0  0  0
    3.7500    9.0933    0.0000 N   0  0  0  0  0  0  0  0  0  0  0  0
    1.5000    7.7942    0.0000 O   0  0  0  0  0  0  0  0  0  0  0  0
    3.0000    5.1962    0.0000 C   0  0  0  0  0  0  0  0  0  0  0  0
  1  2  1  0
  2  3  2  0
  3  4  1  0
  4  5  1  0
  4  6  2  0
  6  7  1  0
  7  8  1  0
  7  9  2  0
  9 10  1  0
 10 11  2  0
 11 12  1  0
 12 13  2  0
 13 14  1  0
 14 15  2  0
 15 16  1  0
 16 17  1  0
 17 18  1  0
 17 19  2  0
 16 20  2  0
  9  2  1  0
 20 12  1  0
M  END
>  <Compound_ID>  (476) 
CHEMBL218088

>  <Molecule Name>  (476) 
GW435821X

>  <Molecular Weight>  (476) 
268.32

>  <AlogP>  (476) 
2.67

>  <Smiles>  (476) 
Cc1cc(O)cc(C)c1/C=C/c1cncc(C(N)=O)c1

>  <Standard Type>  (476) 
Inhibition

>  <Standard Relation>  (476) 
'='

>  <Standard Units>  (476) 
%

>  <Standard Value>  (476) 
0.96

>  <Assay ChEMBL ID>  (476) 
CHEMBL1962142

>  <Assay Description>  (476) 
GSK_PKIS: MET mean inhibition at 0.1 uM [Nanosyn]

>  <BAO Format ID>  (476) 
BAO_0000357

>  <BAO Label>  (476) 
single protein format

>  <Assay Organism>  (476) 
None

>  <Target ChEMBL ID>  (476) 
CHEMBL3717

>  <Target Name>  (476) 
Hepatocyte growth factor receptor

>  <Target Organism>  (476) 
Homo sapiens

>  <Target Type>  (476) 
SINGLE PROTEIN

>  <Document ChEMBL ID>  (476) 
CHEMBL1961873

>  <Source Description>  (476) 
GSK Published Kinase Inhibitor Set

>  <Document Journal>  (476) 
nan

>  <Document Year>  (476) 
nan

>  <Active>  (476) 
0.0

$$$$

     RDKit          2D

 20 21  0  0  0  0  0  0  0  0999 V2000
    5.2500   -1.2990    0.0000 C   0  0  0  0  0  0  0  0  0  0  0  0
    3.7500   -1.2990    0.0000 N   0  0  0  0  0  0  0  0  0  0  0  0
    3.0000    0.0000    0.0000 C   0  0  0  0  0  0  0  0  0  0  0  0
    3.7500    1.2990    0.0000 O   0  0  0  0  0  0  0  0  0  0  0  0
    1.5000    0.0000    0.0000 C   0  0  0  0  0  0  0  0  0  0  0  0
    0.7500   -1.2990    0.0000 C   0  0  0  0  0  0  0  0  0  0  0  0
   -0.7500   -1.2990    0.0000 N   0  0  0  0  0  0  0  0  0  0  0  0
   -1.5000    0.0000    0.0000 C   0  0  0  0  0  0  0  0  0  0  0  0
   -0.7500    1.2990    0.0000 C   0  0  0  0  0  0  0  0  0  0  0  0
   -1.5000    2.5981    0.0000 C   0  0  0  0  0  0  0  0  0  0  0  0
   -0.7500    3.8971    0.0000 C   0  0  0  0  0  0  0  0  0  0  0  0
   -1.5000    5.1962    0.0000 C   0  0  0  0  0  0  0  0  0  0  0  0
   -0.7500    6.4952    0.0000 C   0  0  0  0  0  0  0  0  0  0  0  0
    0.7500    6.4952    0.0000 Cl  0  0  0  0  0  0  0  0  0  0  0  0
   -1.5000    7.7942    0.0000 C   0  0  0  0  0  0  0  0  0  0  0  0
   -3.0000    7.7942    0.0000 C   0  0  0  0  0  0  0  0  0  0  0  0
   -3.7500    6.4952    0.0000 C   0  0  0  0  0  0  0  0  0  0  0  0
   -3.0000    5.1962    0.0000 C   0  0  0  0  0  0  0  0  0  0  0  0
   -3.7500    3.8971    0.0000 Cl  0  0  0  0  0  0  0  0  0  0  0  0
    0.7500    1.2990    0.0000 C   0  0  0  0  0  0  0  0  0  0  0  0
  1  2  1  0
  2  3  1  0
  3  4  2  0
  3  5  1  0
  5  6  2  0
  6  7  1  0
  7  8  2  0
  8  9  1  0
  9 10  1  0
 10 11  2  0
 11 12  1  0
 12 13  2  0
 13 14  1  0
 13 15  1  0
 15 16  2  0
 16 17  1  0
 17 18  2  0
 18 19  1  0
  9 20  2  0
 20  5  1  0
 18 12  1  0
M  END
>  <Compound_ID>  (477) 
CHEMBL263796

>  <Molecule Name>  (477) 
GW445014X

>  <Molecular Weight>  (477) 
307.18

>  <AlogP>  (477) 
3.92

>  <Smiles>  (477) 
CNC(=O)c1cncc(/C=C/c2c(Cl)cccc2Cl)c1

>  <Standard Type>  (477) 
Inhibition

>  <Standard Relation>  (477) 
'='

>  <Standard Units>  (477) 
%

>  <Standard Value>  (477) 
2.67

>  <Assay ChEMBL ID>  (477) 
CHEMBL1962142

>  <Assay Description>  (477) 
GSK_PKIS: MET mean inhibition at 0.1 uM [Nanosyn]

>  <BAO Format ID>  (477) 
BAO_0000357

>  <BAO Label>  (477) 
single protein format

>  <Assay Organism>  (477) 
None

>  <Target ChEMBL ID>  (477) 
CHEMBL3717

>  <Target Name>  (477) 
Hepatocyte growth factor receptor

>  <Target Organism>  (477) 
Homo sapiens

>  <Target Type>  (477) 
SINGLE PROTEIN

>  <Document ChEMBL ID>  (477) 
CHEMBL1961873

>  <Source Description>  (477) 
GSK Published Kinase Inhibitor Set

>  <Document Journal>  (477) 
nan

>  <Document Year>  (477) 
nan

>  <Active>  (477) 
0.0

$$$$

     RDKit          2D

 39 41  0  0  0  0  0  0  0  0999 V2000
    2.5981  -17.1073    0.0000 C   0  0  0  0  0  0  0  0  0  0  0  0
    3.8971  -16.3573    0.0000 C   0  0  0  0  0  0  0  0  0  0  0  0
    5.1962  -17.1073    0.0000 O   0  0  0  0  0  0  0  0  0  0  0  0
    3.8971  -14.8573    0.0000 O   0  0  0  0  0  0  0  0  0  0  0  0
    5.1962  -14.1073    0.0000 C   0  0  0  0  0  0  0  0  0  0  0  0
    5.1962  -12.6073    0.0000 C   0  0  0  0  0  0  0  0  0  0  0  0
    3.8971  -11.8573    0.0000 O   0  0  0  0  0  0  0  0  0  0  0  0
    3.8971  -10.3573    0.0000 C   0  0  0  0  0  0  0  0  0  0  0  0
    2.5981   -9.6073    0.0000 N   0  0  0  0  0  0  0  0  0  0  0  0
    2.5981   -8.1073    0.0000 C   0  0  0  0  0  0  0  0  0  0  0  0
    3.8971   -7.3573    0.0000 O   0  0  0  0  0  0  0  0  0  0  0  0
    1.2990   -7.3573    0.0000 C   0  0  0  0  0  0  0  0  0  0  0  0
    1.2990   -5.8573    0.0000 C   0  0  0  0  0  0  0  0  0  0  0  0
   -0.0000   -5.1073    0.0000 C   0  0  0  0  0  0  0  0  0  0  0  0
   -0.0000   -3.6073    0.0000 N   0  0  0  0  0  0  0  0  0  0  0  0
    1.2135   -2.7256    0.0000 Se  0  0  0  0  0  2  0  0  0  0  0  0
    0.7500   -1.2990    0.0000 C   0  0  0  0  0  0  0  0  0  0  0  0
    1.5000    0.0000    0.0000 C   0  0  0  0  0  0  0  0  0  0  0  0
    0.7500    1.2990    0.0000 C   0  0  0  0  0  0  0  0  0  0  0  0
   -0.7500    1.2990    0.0000 C   0  0  0  0  0  0  0  0  0  0  0  0
   -1.5000    0.0000    0.0000 C   0  0  0  0  0  0  0  0  0  0  0  0
   -0.7500   -1.2990    0.0000 C   0  0  0  0  0  0  0  0  0  0  0  0
   -1.2135   -2.7256    0.0000 C   0  0  0  0  0  0  0  0  0  0  0  0
   -2.6401   -3.1891    0.0000 O   0  0  0  0  0  0  0  0  0  0  0  0
    5.1962   -9.6073    0.0000 C   0  0  0  0  0  0  0  0  0  0  0  0
    5.1962   -8.1073    0.0000 O   0  0  0  0  0  0  0  0  0  0  0  0
    6.4952   -7.3573    0.0000 C   0  0  0  0  0  0  0  0  0  0  0  0
    6.4952   -5.8573    0.0000 C   0  0  0  0  0  0  0  0  0  0  0  0
    7.7942   -8.1073    0.0000 O   0  0  0  0  0  0  0  0  0  0  0  0
    6.4952  -10.3573    0.0000 C   0  0  0  0  0  0  0  0  0  0  0  0
    7.7942   -9.6073    0.0000 O   0  0  0  0  0  0  0  0  0  0  0  0
    9.0933  -10.3573    0.0000 C   0  0  0  0  0  0  0  0  0  0  0  0
   10.3923   -9.6073    0.0000 C   0  0  0  0  0  0  0  0  0  0  0  0
    9.0933  -11.8573    0.0000 O   0  0  0  0  0  0  0  0  0  0  0  0
    6.4952  -11.8573    0.0000 C   0  0  0  0  0  0  0  0  0  0  0  0
    7.7942  -12.6073    0.0000 O   0  0  0  0  0  0  0  0  0  0  0  0
    7.7942  -14.1073    0.0000 C   0  0  0  0  0  0  0  0  0  0  0  0
    9.0933  -14.8573    0.0000 C   0  0  0  0  0  0  0  0  0  0  0  0
    6.4952  -14.8573    0.0000 O   0  0  0  0  0  0  0  0  0  0  0  0
  1  2  1  0
  2  3  2  0
  2  4  1  0
  4  5  1  0
  6  5  1  1
  6  7  1  0
  7  8  1  0
  8  9  1  1
  9 10  1  0
 10 11  2  0
 10 12  1  0
 12 13  1  0
 13 14  1  0
 14 15  1  0
 15 16  1  0
 16 17  1  0
 17 18  2  0
 18 19  1  0
 19 20  2  0
 20 21  1  0
 21 22  2  0
 22 23  1  0
 23 24  2  0
  8 25  1  0
 25 26  1  6
 26 27  1  0
 27 28  1  0
 27 29  2  0
 25 30  1  0
 30 31  1  1
 31 32  1  0
 32 33  1  0
 32 34  2  0
 30 35  1  0
 35 36  1  6
 36 37  1  0
 37 38  1  0
 37 39  2  0
 35  6  1  0
 23 15  1  0
 22 17  1  0
M  END
>  <Compound_ID>  (478) 
CHEMBL1940997

>  <Molecule Name>  (478) 
nan

>  <Molecular Weight>  (478) 
613.48

>  <AlogP>  (478) 
None

>  <Smiles>  (478) 
CC(=O)OC[C@H]1O[C@@H](NC(=O)CCCn2[se]c3ccccc3c2=O)[C@H](OC(C)=O)[C@@H](OC(C)=O)[C@@H]1OC(C)=O

>  <Standard Type>  (478) 
Inhibition

>  <Standard Relation>  (478) 
'='

>  <Standard Units>  (478) 
%

>  <Standard Value>  (478) 
0.0

>  <Assay ChEMBL ID>  (478) 
CHEMBL1943931

>  <Assay Description>  (478) 
Inhibition of MET at 1 uM

>  <BAO Format ID>  (478) 
BAO_0000357

>  <BAO Label>  (478) 
single protein format

>  <Assay Organism>  (478) 
None

>  <Target ChEMBL ID>  (478) 
CHEMBL3717

>  <Target Name>  (478) 
Hepatocyte growth factor receptor

>  <Target Organism>  (478) 
Homo sapiens

>  <Target Type>  (478) 
SINGLE PROTEIN

>  <Document ChEMBL ID>  (478) 
CHEMBL1938284

>  <Source Description>  (478) 
Scientific Literature

>  <Document Journal>  (478) 
Eur J Med Chem

>  <Document Year>  (478) 
2012.0

>  <Active>  (478) 
0.0

$$$$

     RDKit          2D

 52 58  0  0  0  0  0  0  0  0999 V2000
    3.0000  -10.3923    0.0000 C   0  0  0  0  0  0  0  0  0  0  0  0
    3.7500   -9.0933    0.0000 C   0  0  0  0  0  0  0  0  0  0  0  0
    3.0000   -7.7942    0.0000 C   0  0  0  0  0  0  0  0  0  0  0  0
    3.7500   -6.4952    0.0000 C   0  0  0  0  0  0  0  0  0  0  0  0
    3.0000   -5.1962    0.0000 N   0  0  0  0  0  0  0  0  0  0  0  0
    1.5000   -5.1962    0.0000 C   0  0  0  0  0  0  0  0  0  0  0  0
    0.7500   -6.4952    0.0000 C   0  0  0  0  0  0  0  0  0  0  0  0
   -0.7500   -6.4952    0.0000 C   0  0  0  0  0  0  0  0  0  0  0  0
   -1.5000   -7.7942    0.0000 S   0  0  0  0  0  0  0  0  0  0  0  0
   -0.2010   -8.5442    0.0000 O   0  0  0  0  0  0  0  0  0  0  0  0
   -2.7990   -7.0442    0.0000 O   0  0  0  0  0  0  0  0  0  0  0  0
   -2.2500   -9.0933    0.0000 O   0  0  0  0  0  1  0  0  0  0  0  0
   -1.5000   -5.1962    0.0000 C   0  0  0  0  0  0  0  0  0  0  0  0
   -3.0000   -5.1962    0.0000 N   0  0  0  0  0  0  0  0  0  0  0  0
   -0.7500   -3.8971    0.0000 C   0  0  0  0  0  0  0  0  0  0  0  0
    0.7500   -3.8971    0.0000 C   0  0  0  0  0  0  0  0  0  0  0  0
    1.5000   -2.5981    0.0000 C   0  0  0  0  0  0  0  0  0  0  0  0
    3.0000   -2.5981    0.0000 O   0  0  0  0  0  0  0  0  0  0  0  0
    0.7500   -1.2990    0.0000 C   0  0  0  0  0  0  0  0  0  0  0  0
    1.5000    0.0000    0.0000 C   0  0  0  0  0  0  0  0  0  0  0  0
    0.7500    1.2990    0.0000 C   0  0  0  0  0  0  0  0  0  0  0  0
   -0.7500    1.2990    0.0000 C   0  0  0  0  0  0  0  0  0  0  0  0
   -1.5000    0.0000    0.0000 C   0  0  0  0  0  0  0  0  0  0  0  0
   -0.7500   -1.2990    0.0000 C   0  0  0  0  0  0  0  0  0  0  0  0
   -1.5000   -2.5981    0.0000 C   0  0  0  0  0  0  0  0  0  0  0  0
   -3.0000   -2.5981    0.0000 O   0  0  0  0  0  0  0  0  0  0  0  0
    5.2500   -6.4952    0.0000 C   0  0  0  0  0  0  0  0  0  0  0  0
    6.0000   -5.1962    0.0000 C   0  0  0  0  0  0  0  0  0  0  0  0
    6.0000   -7.7942    0.0000 C   0  0  0  0  0  0  0  0  0  0  0  0
    5.2500   -9.0933    0.0000 C   0  0  0  0  0  0  0  0  0  0  0  0
    6.0000  -10.3923    0.0000 N   0  0  0  0  0  0  0  0  0  0  0  0
    7.5000  -10.3923    0.0000 C   0  0  0  0  0  0  0  0  0  0  0  0
    8.2500   -9.0933    0.0000 C   0  0  0  0  0  0  0  0  0  0  0  0
    9.7500   -9.0933    0.0000 C   0  0  0  0  0  0  0  0  0  0  0  0
   10.5000   -7.7942    0.0000 S   0  0  0  0  0  0  0  0  0  0  0  0
   11.7990   -8.5442    0.0000 O   0  0  0  0  0  0  0  0  0  0  0  0
    9.2010   -7.0442    0.0000 O   0  0  0  0  0  0  0  0  0  0  0  0
   11.2500   -6.4952    0.0000 O   0  0  0  0  0  1  0  0  0  0  0  0
   10.5000  -10.3923    0.0000 C   0  0  0  0  0  0  0  0  0  0  0  0
   12.0000  -10.3923    0.0000 N   0  0  0  0  0  0  0  0  0  0  0  0
    9.7500  -11.6913    0.0000 C   0  0  0  0  0  0  0  0  0  0  0  0
    8.2500  -11.6913    0.0000 C   0  0  0  0  0  0  0  0  0  0  0  0
    7.5000  -12.9904    0.0000 C   0  0  0  0  0  0  0  0  0  0  0  0
    6.0000  -12.9904    0.0000 O   0  0  0  0  0  0  0  0  0  0  0  0
    8.2500  -14.2894    0.0000 C   0  0  0  0  0  0  0  0  0  0  0  0
    7.5000  -15.5885    0.0000 C   0  0  0  0  0  0  0  0  0  0  0  0
    8.2500  -16.8875    0.0000 C   0  0  0  0  0  0  0  0  0  0  0  0
    9.7500  -16.8875    0.0000 C   0  0  0  0  0  0  0  0  0  0  0  0
   10.5000  -15.5885    0.0000 C   0  0  0  0  0  0  0  0  0  0  0  0
    9.7500  -14.2894    0.0000 C   0  0  0  0  0  0  0  0  0  0  0  0
   10.5000  -12.9904    0.0000 C   0  0  0  0  0  0  0  0  0  0  0  0
   12.0000  -12.9904    0.0000 O   0  0  0  0  0  0  0  0  0  0  0  0
  1  2  1  0
  2  3  2  0
  3  4  1  0
  4  5  1  0
  5  6  1  0
  6  7  2  0
  7  8  1  0
  8  9  1  0
  9 10  2  0
  9 11  2  0
  9 12  1  0
  8 13  2  0
 13 14  1  0
 13 15  1  0
 15 16  2  0
 16 17  1  0
 17 18  2  0
 17 19  1  0
 19 20  2  0
 20 21  1  0
 21 22  2  0
 22 23  1  0
 23 24  2  0
 24 25  1  0
 25 26  2  0
  4 27  2  0
 27 28  1  0
 27 29  1  0
 29 30  2  0
 30 31  1  0
 31 32  1  0
 32 33  2  0
 33 34  1  0
 34 35  1  0
 35 36  2  0
 35 37  2  0
 35 38  1  0
 34 39  2  0
 39 40  1  0
 39 41  1  0
 41 42  2  0
 42 43  1  0
 43 44  2  0
 43 45  1  0
 45 46  2  0
 46 47  1  0
 47 48  2  0
 48 49  1  0
 49 50  2  0
 50 51  1  0
 51 52  2  0
 30  2  1  0
 42 32  1  0
 50 45  1  0
 16  6  1  0
 24 19  1  0
 51 41  1  0
 25 15  1  0
M  CHG  2  12  -1  38  -1
M  END
>  <Compound_ID>  (479) 
CHEMBL2337908

>  <Molecule Name>  (479) 
nan

>  <Molecular Weight>  (479) 
782.72

>  <AlogP>  (479) 
5.00

>  <Smiles>  (479) 
Cc1cc(Nc2cc(S(=O)(=O)[O-])c(N)c3c2C(=O)c2ccccc2C3=O)c(C)cc1Nc1cc(S(=O)(=O)[O-])c(N)c2c1C(=O)c1ccccc1C2=O

>  <Standard Type>  (479) 
Inhibition

>  <Standard Relation>  (479) 
'='

>  <Standard Units>  (479) 
%

>  <Standard Value>  (479) 
9.4

>  <Assay ChEMBL ID>  (479) 
CHEMBL2340058

>  <Assay Description>  (479) 
Inhibition of c-Met (unknown origin) using Poly(Glu,Tyr) at 4:1 ratio as substrate at 10 uM preincubated with substrate prior to enzyme addition measured after 60 mins by ELISA

>  <BAO Format ID>  (479) 
BAO_0000357

>  <BAO Label>  (479) 
single protein format

>  <Assay Organism>  (479) 
Homo sapiens

>  <Target ChEMBL ID>  (479) 
CHEMBL3717

>  <Target Name>  (479) 
Hepatocyte growth factor receptor

>  <Target Organism>  (479) 
Homo sapiens

>  <Target Type>  (479) 
SINGLE PROTEIN

>  <Document ChEMBL ID>  (479) 
CHEMBL2331125

>  <Source Description>  (479) 
Scientific Literature

>  <Document Journal>  (479) 
ACS Med Chem Lett

>  <Document Year>  (479) 
2013.0

>  <Active>  (479) 
0.0

$$$$

     RDKit          2D

 22 24  0  0  0  0  0  0  0  0999 V2000
    3.7500   -1.2990    0.0000 C   0  0  0  0  0  0  0  0  0  0  0  0
    3.0000    0.0000    0.0000 O   0  0  0  0  0  0  0  0  0  0  0  0
    1.5000    0.0000    0.0000 C   0  0  0  0  0  0  0  0  0  0  0  0
    0.7500   -1.2990    0.0000 C   0  0  0  0  0  0  0  0  0  0  0  0
   -0.7500   -1.2990    0.0000 C   0  0  0  0  0  0  0  0  0  0  0  0
   -1.5000    0.0000    0.0000 C   0  0  0  0  0  0  0  0  0  0  0  0
   -3.0000    0.0000    0.0000 N   0  0  0  0  0  0  0  0  0  0  0  0
   -3.7500    1.2990    0.0000 C   0  0  0  0  0  0  0  0  0  0  0  0
   -5.2418    1.4558    0.0000 N   0  0  0  0  0  0  0  0  0  0  0  0
   -5.5537    2.9231    0.0000 C   0  0  0  0  0  0  0  0  0  0  0  0
   -4.2546    3.6731    0.0000 C   0  0  0  0  0  0  0  0  0  0  0  0
   -4.0978    5.1648    0.0000 C   0  0  0  0  0  0  0  0  0  0  0  0
   -2.7275    5.7749    0.0000 C   0  0  0  0  0  0  0  0  0  0  0  0
   -2.5707    7.2667    0.0000 C   0  0  0  0  0  0  0  0  0  0  0  0
   -3.7842    8.1484    0.0000 C   0  0  0  0  0  0  0  0  0  0  0  0
   -5.1546    7.5383    0.0000 C   0  0  0  0  0  0  0  0  0  0  0  0
   -5.3113    6.0465    0.0000 C   0  0  0  0  0  0  0  0  0  0  0  0
   -3.1399    2.6694    0.0000 O   0  0  0  0  0  0  0  0  0  0  0  0
   -0.7500    1.2990    0.0000 C   0  0  0  0  0  0  0  0  0  0  0  0
    0.7500    1.2990    0.0000 C   0  0  0  0  0  0  0  0  0  0  0  0
    1.5000    2.5981    0.0000 O   0  0  0  0  0  0  0  0  0  0  0  0
    0.7500    3.8971    0.0000 C   0  0  0  0  0  0  0  0  0  0  0  0
  1  2  1  0
  2  3  1  0
  3  4  2  0
  4  5  1  0
  5  6  2  0
  6  7  1  0
  7  8  1  0
  8  9  2  0
  9 10  1  0
 10 11  2  0
 11 12  1  0
 12 13  2  0
 13 14  1  0
 14 15  2  0
 15 16  1  0
 16 17  2  0
 11 18  1  0
  6 19  1  0
 19 20  2  0
 20 21  1  0
 21 22  1  0
 20  3  1  0
 18  8  1  0
 17 12  1  0
M  END
>  <Compound_ID>  (480) 
CHEMBL1794060

>  <Molecule Name>  (480) 
GW575533A

>  <Molecular Weight>  (480) 
332.79

>  <AlogP>  (480) 
4.10

>  <Smiles>  (480) 
COc1ccc(Nc2ncc(-c3ccccc3)o2)cc1OC

>  <Standard Type>  (480) 
Inhibition

>  <Standard Relation>  (480) 
'='

>  <Standard Units>  (480) 
%

>  <Standard Value>  (480) 
2.78

>  <Assay ChEMBL ID>  (480) 
CHEMBL1962142

>  <Assay Description>  (480) 
GSK_PKIS: MET mean inhibition at 0.1 uM [Nanosyn]

>  <BAO Format ID>  (480) 
BAO_0000357

>  <BAO Label>  (480) 
single protein format

>  <Assay Organism>  (480) 
None

>  <Target ChEMBL ID>  (480) 
CHEMBL3717

>  <Target Name>  (480) 
Hepatocyte growth factor receptor

>  <Target Organism>  (480) 
Homo sapiens

>  <Target Type>  (480) 
SINGLE PROTEIN

>  <Document ChEMBL ID>  (480) 
CHEMBL1961873

>  <Source Description>  (480) 
GSK Published Kinase Inhibitor Set

>  <Document Journal>  (480) 
nan

>  <Document Year>  (480) 
nan

>  <Active>  (480) 
0.0

$$$$

     RDKit          2D

 28 32  0  0  0  0  0  0  0  0999 V2000
    6.0000  -10.3923    0.0000 C   0  0  0  0  0  0  0  0  0  0  0  0
    5.2500   -9.0933    0.0000 N   0  0  0  0  0  0  0  0  0  0  0  0
    3.7500   -9.0933    0.0000 C   0  0  0  0  0  0  0  0  0  0  0  0
    3.0000   -7.7942    0.0000 C   0  0  0  0  0  0  0  0  0  0  0  0
    3.7500   -6.4952    0.0000 N   0  0  0  0  0  0  0  0  0  0  0  0
    3.0000   -5.1962    0.0000 C   0  0  0  0  0  0  0  0  0  0  0  0
    3.7500   -3.8971    0.0000 C   0  0  0  0  0  0  0  0  0  0  0  0
    3.0000   -2.5981    0.0000 C   0  0  0  0  0  0  0  0  0  0  0  0
    1.5000   -2.5981    0.0000 C   0  0  0  0  0  0  0  0  0  0  0  0
    0.7500   -1.2990    0.0000 C   0  0  0  0  0  0  0  0  0  0  0  0
    1.5000    0.0000    0.0000 C   0  0  0  0  0  0  0  0  0  0  0  0
    0.7500    1.2990    0.0000 N   0  0  0  0  0  0  0  0  0  0  0  0
   -0.7500    1.2990    0.0000 C   0  0  0  0  0  0  0  0  0  0  0  0
   -1.7537    2.4138    0.0000 N   0  0  0  0  0  0  0  0  0  0  0  0
   -3.1240    1.8037    0.0000 C   0  0  0  0  0  0  0  0  0  0  0  0
   -4.4943    2.4138    0.0000 C   0  0  0  0  0  0  0  0  0  0  0  0
   -5.7079    1.5321    0.0000 N   0  0  0  0  0  0  0  0  0  0  0  0
   -5.5511    0.0403    0.0000 C   0  0  0  0  0  0  0  0  0  0  0  0
   -6.7646   -0.8414    0.0000 C   0  0  0  0  0  0  0  0  0  0  0  0
   -7.9781   -1.7231    0.0000 N   0  0  0  0  0  0  0  0  0  0  0  0
   -4.1807   -0.5698    0.0000 C   0  0  0  0  0  0  0  0  0  0  0  0
   -2.9672    0.3119    0.0000 C   0  0  0  0  0  0  0  0  0  0  0  0
   -1.5000    0.0000    0.0000 C   0  0  0  0  0  0  0  0  0  0  0  0
   -0.7500   -1.2990    0.0000 C   0  0  0  0  0  0  0  0  0  0  0  0
    0.7500   -3.8971    0.0000 C   0  0  0  0  0  0  0  0  0  0  0  0
    1.5000   -5.1962    0.0000 C   0  0  0  0  0  0  0  0  0  0  0  0
    5.2500   -6.4952    0.0000 C   0  0  0  0  0  0  0  0  0  0  0  0
    6.0000   -7.7942    0.0000 C   0  0  0  0  0  0  0  0  0  0  0  0
  1  2  1  0
  2  3  1  0
  3  4  1  0
  4  5  1  0
  5  6  1  0
  6  7  2  0
  7  8  1  0
  8  9  2  0
  9 10  1  0
 10 11  2  0
 11 12  1  0
 12 13  2  0
 13 14  1  0
 14 15  1  0
 15 16  2  0
 16 17  1  0
 17 18  2  0
 18 19  1  0
 19 20  3  0
 18 21  1  0
 21 22  2  0
 22 23  1  0
 23 24  2  0
  9 25  1  0
 25 26  2  0
  5 27  1  0
 27 28  1  0
 28  2  1  0
 26  6  1  0
 24 10  1  0
 23 13  1  0
 22 15  1  0
M  END
>  <Compound_ID>  (481) 
CHEMBL3359895

>  <Molecule Name>  (481) 
nan

>  <Molecular Weight>  (481) 
368.44

>  <AlogP>  (481) 
3.40

>  <Smiles>  (481) 
CN1CCN(c2ccc(-c3cnc4[nH]c5cnc(C#N)cc5c4c3)cc2)CC1

>  <Standard Type>  (481) 
Inhibition

>  <Standard Relation>  (481) 
'='

>  <Standard Units>  (481) 
%

>  <Standard Value>  (481) 
9.0

>  <Assay ChEMBL ID>  (481) 
CHEMBL3385017

>  <Assay Description>  (481) 
Inhibition of cMet (unknown origin) at 1 uM

>  <BAO Format ID>  (481) 
BAO_0000357

>  <BAO Label>  (481) 
single protein format

>  <Assay Organism>  (481) 
Homo sapiens

>  <Target ChEMBL ID>  (481) 
CHEMBL3717

>  <Target Name>  (481) 
Hepatocyte growth factor receptor

>  <Target Organism>  (481) 
Homo sapiens

>  <Target Type>  (481) 
SINGLE PROTEIN

>  <Document ChEMBL ID>  (481) 
CHEMBL3352495

>  <Source Description>  (481) 
Scientific Literature

>  <Document Journal>  (481) 
Bioorg Med Chem Lett

>  <Document Year>  (481) 
2014.0

>  <Active>  (481) 
0.0

$$$$

     RDKit          2D

 32 35  0  0  0  0  0  0  0  0999 V2000
    1.3299    5.6152    0.0000 C   0  0  0  0  0  0  0  0  0  0  0  0
   -0.0967    5.1517    0.0000 O   0  0  0  0  0  0  0  0  0  0  0  0
   -0.4086    3.6844    0.0000 C   0  0  0  0  0  0  0  0  0  0  0  0
    0.7062    2.6807    0.0000 C   0  0  0  0  0  0  0  0  0  0  0  0
    0.3943    1.2135    0.0000 C   0  0  0  0  0  0  0  0  0  0  0  0
    1.2760    0.0000    0.0000 N   0  0  0  0  0  0  0  0  0  0  0  0
    0.3943   -1.2135    0.0000 C   0  0  0  0  0  0  0  0  0  0  0  0
   -1.0323   -0.7500    0.0000 N   0  0  0  0  0  0  0  0  0  0  0  0
   -2.2458   -1.6317    0.0000 C   0  0  0  0  0  0  0  0  0  0  0  0
   -2.2458   -3.1317    0.0000 C   0  0  0  0  0  0  0  0  0  0  0  0
   -3.6724   -3.5952    0.0000 C   0  0  0  0  0  0  0  0  0  0  0  0
   -4.1359   -5.0218    0.0000 O   0  0  0  0  0  0  0  0  0  0  0  0
   -5.6031   -5.3337    0.0000 C   0  0  0  0  0  0  0  0  0  0  0  0
   -6.0667   -6.7602    0.0000 C   0  0  0  0  0  0  0  0  0  0  0  0
   -7.5339   -7.0721    0.0000 C   0  0  0  0  0  0  0  0  0  0  0  0
   -7.9974   -8.4987    0.0000 C   0  0  0  0  0  0  0  0  0  0  0  0
   -6.9937   -9.6134    0.0000 C   0  0  0  0  0  0  0  0  0  0  0  0
   -5.5265   -9.3015    0.0000 C   0  0  0  0  0  0  0  0  0  0  0  0
   -5.0630   -7.8750    0.0000 C   0  0  0  0  0  0  0  0  0  0  0  0
   -3.5958   -7.5631    0.0000 S   0  0  0  0  0  0  0  0  0  0  0  0
   -2.1285   -7.2512    0.0000 C   0  0  0  0  0  0  0  0  0  0  0  0
   -3.9076   -6.0959    0.0000 O   0  0  0  0  0  0  0  0  0  0  0  0
   -3.2839   -9.0303    0.0000 O   0  0  0  0  0  0  0  0  0  0  0  0
   -4.5541   -2.3817    0.0000 C   0  0  0  0  0  0  0  0  0  0  0  0
   -6.0541   -2.3817    0.0000 C   0  0  0  0  0  0  0  0  0  0  0  0
   -7.5541   -2.3817    0.0000 N   0  0  0  0  0  0  0  0  0  0  0  0
   -3.6724   -1.1682    0.0000 S   0  0  0  0  0  0  0  0  0  0  0  0
   -1.0323    0.7500    0.0000 C   0  0  0  0  0  0  0  0  0  0  0  0
   -2.1470    1.7537    0.0000 C   0  0  0  0  0  0  0  0  0  0  0  0
   -1.8351    3.2209    0.0000 C   0  0  0  0  0  0  0  0  0  0  0  0
   -2.9499    4.2246    0.0000 O   0  0  0  0  0  0  0  0  0  0  0  0
   -4.3764    3.7611    0.0000 C   0  0  0  0  0  0  0  0  0  0  0  0
  1  2  1  0
  2  3  1  0
  3  4  2  0
  4  5  1  0
  5  6  1  0
  6  7  2  0
  7  8  1  0
  8  9  1  0
  9 10  2  0
 10 11  1  0
 11 12  1  0
 12 13  1  0
 13 14  1  0
 14 15  2  0
 15 16  1  0
 16 17  2  0
 17 18  1  0
 18 19  2  0
 19 20  1  0
 20 21  1  0
 20 22  2  0
 20 23  2  0
 11 24  2  0
 24 25  1  0
 25 26  3  0
 24 27  1  0
  8 28  1  0
 28 29  1  0
 29 30  2  0
 30 31  1  0
 31 32  1  0
 30  3  1  0
 28  5  2  0
 27  9  1  0
 19 14  1  0
M  END
>  <Compound_ID>  (482) 
CHEMBL373751

>  <Molecule Name>  (482) 
GSK-319347A

>  <Molecular Weight>  (482) 
469.54

>  <AlogP>  (482) 
3.96

>  <Smiles>  (482) 
COc1cc2ncn(-c3cc(OCc4ccccc4S(C)(=O)=O)c(C#N)s3)c2cc1OC

>  <Standard Type>  (482) 
Inhibition

>  <Standard Relation>  (482) 
'='

>  <Standard Units>  (482) 
%

>  <Standard Value>  (482) 
5.94

>  <Assay ChEMBL ID>  (482) 
CHEMBL1962142

>  <Assay Description>  (482) 
GSK_PKIS: MET mean inhibition at 0.1 uM [Nanosyn]

>  <BAO Format ID>  (482) 
BAO_0000357

>  <BAO Label>  (482) 
single protein format

>  <Assay Organism>  (482) 
None

>  <Target ChEMBL ID>  (482) 
CHEMBL3717

>  <Target Name>  (482) 
Hepatocyte growth factor receptor

>  <Target Organism>  (482) 
Homo sapiens

>  <Target Type>  (482) 
SINGLE PROTEIN

>  <Document ChEMBL ID>  (482) 
CHEMBL1961873

>  <Source Description>  (482) 
GSK Published Kinase Inhibitor Set

>  <Document Journal>  (482) 
nan

>  <Document Year>  (482) 
nan

>  <Active>  (482) 
0.0

$$$$

     RDKit          2D

 50 55  0  0  0  0  0  0  0  0999 V2000
   -5.2500   -3.8971    0.0000 C   0  0  0  0  0  0  0  0  0  0  0  0
   -3.7500   -3.8971    0.0000 O   0  0  0  0  0  0  0  0  0  0  0  0
   -3.0000   -2.5981    0.0000 C   0  0  0  0  0  0  0  0  0  0  0  0
   -1.5000   -2.5981    0.0000 C   0  0  0  0  0  0  0  0  0  0  0  0
   -0.7500   -1.2990    0.0000 C   0  0  0  0  0  0  0  0  0  0  0  0
    0.7500   -1.2990    0.0000 C   0  0  0  0  0  0  0  0  0  0  0  0
    1.5000   -2.5981    0.0000 O   0  0  0  0  0  0  0  0  0  0  0  0
    3.0000   -2.5981    0.0000 C   0  0  0  0  0  0  0  0  0  0  0  0
    3.7500   -3.8971    0.0000 C   0  0  0  0  0  0  0  0  0  0  0  0
    3.0000   -5.1962    0.0000 F   0  0  0  0  0  0  0  0  0  0  0  0
    5.2500   -3.8971    0.0000 C   0  0  0  0  0  0  0  0  0  0  0  0
    6.0000   -2.5981    0.0000 C   0  0  0  0  0  0  0  0  0  0  0  0
    7.5000   -2.5981    0.0000 N   0  0  0  0  0  0  0  0  0  0  0  0
    8.2500   -3.8971    0.0000 C   0  0  0  0  0  0  0  0  0  0  0  0
    7.5000   -5.1962    0.0000 O   0  0  0  0  0  0  0  0  0  0  0  0
    9.7500   -3.8971    0.0000 N   0  0  0  0  0  0  0  0  0  0  0  0
   10.5000   -5.1962    0.0000 N   0  0  0  0  0  0  0  0  0  0  0  0
    9.8899   -6.5665    0.0000 C   0  0  0  0  0  0  0  0  0  0  0  0
    8.4227   -6.8783    0.0000 O   0  0  0  0  0  0  0  0  0  0  0  0
   11.0046   -7.5702    0.0000 C   0  0  0  0  0  0  0  0  0  0  0  0
    9.8899   -8.5739    0.0000 C   0  0  0  0  0  0  0  0  0  0  0  0
   11.8863   -8.7837    0.0000 C   0  0  0  0  0  0  0  0  0  0  0  0
   12.3037   -6.8202    0.0000 S   0  0  0  0  0  0  0  0  0  0  0  0
   11.9918   -5.3529    0.0000 C   0  0  0  0  0  0  0  0  0  0  0  0
   12.9955   -4.2382    0.0000 C   0  0  0  0  0  0  0  0  0  0  0  0
   12.5320   -2.8116    0.0000 C   0  0  0  0  0  0  0  0  0  0  0  0
   11.0647   -2.4998    0.0000 F   0  0  0  0  0  0  0  0  0  0  0  0
   13.5356   -1.6969    0.0000 C   0  0  0  0  0  0  0  0  0  0  0  0
   15.0029   -2.0088    0.0000 C   0  0  0  0  0  0  0  0  0  0  0  0
   15.4664   -3.4354    0.0000 C   0  0  0  0  0  0  0  0  0  0  0  0
   14.4627   -4.5501    0.0000 C   0  0  0  0  0  0  0  0  0  0  0  0
   14.9262   -5.9767    0.0000 F   0  0  0  0  0  0  0  0  0  0  0  0
    5.2500   -1.2990    0.0000 C   0  0  0  0  0  0  0  0  0  0  0  0
    3.7500   -1.2990    0.0000 C   0  0  0  0  0  0  0  0  0  0  0  0
    3.0000   -0.0000    0.0000 F   0  0  0  0  0  0  0  0  0  0  0  0
    1.5000    0.0000    0.0000 C   0  0  0  0  0  0  0  0  0  0  0  0
    0.7500    1.2990    0.0000 C   0  0  0  0  0  0  0  0  0  0  0  0
   -0.7500    1.2990    0.0000 N   0  0  0  0  0  0  0  0  0  0  0  0
   -1.5000    0.0000    0.0000 C   0  0  0  0  0  0  0  0  0  0  0  0
   -3.0000    0.0000    0.0000 C   0  0  0  0  0  0  0  0  0  0  0  0
   -3.7500   -1.2990    0.0000 C   0  0  0  0  0  0  0  0  0  0  0  0
   -5.2500   -1.2990    0.0000 O   0  0  0  0  0  0  0  0  0  0  0  0
   -6.0000    0.0000    0.0000 C   0  0  0  0  0  0  0  0  0  0  0  0
   -7.5000    0.0000    0.0000 C   0  0  0  0  0  0  0  0  0  0  0  0
   -8.2500    1.2990    0.0000 C   0  0  0  0  0  0  0  0  0  0  0  0
   -9.7500    1.2990    0.0000 N   0  0  0  0  0  0  0  0  0  0  0  0
  -10.6317    0.0855    0.0000 C   0  0  0  0  0  0  0  0  0  0  0  0
  -12.0583    0.5490    0.0000 C   0  0  0  0  0  0  0  0  0  0  0  0
  -12.0583    2.0490    0.0000 C   0  0  0  0  0  0  0  0  0  0  0  0
  -10.6317    2.5126    0.0000 C   0  0  0  0  0  0  0  0  0  0  0  0
  1  2  1  0
  2  3  1  0
  3  4  2  0
  4  5  1  0
  5  6  2  0
  6  7  1  0
  7  8  1  0
  8  9  2  0
  9 10  1  0
  9 11  1  0
 11 12  2  0
 12 13  1  0
 13 14  1  0
 14 15  2  0
 14 16  1  0
 16 17  1  0
 17 18  1  0
 18 19  2  0
 18 20  1  0
 20 21  1  0
 20 22  1  0
 20 23  1  0
 23 24  1  0
 24 25  1  0
 25 26  2  0
 26 27  1  0
 26 28  1  0
 28 29  2  0
 29 30  1  0
 30 31  2  0
 31 32  1  0
 12 33  1  0
 33 34  2  0
 34 35  1  0
  6 36  1  0
 36 37  2  0
 37 38  1  0
 38 39  2  0
 39 40  1  0
 40 41  2  0
 41 42  1  0
 42 43  1  0
 43 44  1  0
 44 45  1  0
 45 46  1  0
 46 47  1  0
 47 48  1  0
 48 49  1  0
 49 50  1  0
 41  3  1  0
 50 46  1  0
 39  5  1  0
 34  8  1  0
 24 17  1  0
 31 25  1  0
M  END
>  <Compound_ID>  (483) 
CHEMBL4462008

>  <Molecule Name>  (483) 
nan

>  <Molecular Weight>  (483) 
713.75

>  <AlogP>  (483) 
7.55

>  <Smiles>  (483) 
COc1cc2c(Oc3c(F)cc(NC(=O)NN4C(=O)C(C)(C)SC4c4c(F)cccc4F)cc3F)ccnc2cc1OCCCN1CCCC1

>  <Standard Type>  (483) 
Inhibition

>  <Standard Relation>  (483) 
'='

>  <Standard Units>  (483) 
%

>  <Standard Value>  (483) 
15.88

>  <Assay ChEMBL ID>  (483) 
CHEMBL4330419

>  <Assay Description>  (483) 
Inhibition of c-Met (unknown origin) at 0.05 uM using FAM-labelled peptide and ATP incubated for 10 mins by mobility shift assay relative to control

>  <BAO Format ID>  (483) 
BAO_0000357

>  <BAO Label>  (483) 
single protein format

>  <Assay Organism>  (483) 
Homo sapiens

>  <Target ChEMBL ID>  (483) 
CHEMBL3717

>  <Target Name>  (483) 
Hepatocyte growth factor receptor

>  <Target Organism>  (483) 
Homo sapiens

>  <Target Type>  (483) 
SINGLE PROTEIN

>  <Document ChEMBL ID>  (483) 
CHEMBL4330059

>  <Source Description>  (483) 
Scientific Literature

>  <Document Journal>  (483) 
Eur J Med Chem

>  <Document Year>  (483) 
2019.0

>  <Active>  (483) 
0.0

$$$$

     RDKit          2D

 27 28  0  0  0  0  0  0  0  0999 V2000
    2.5981   -8.1073    0.0000 C   0  0  0  0  0  0  0  0  0  0  0  0
    1.2990   -7.3573    0.0000 N   0  0  0  0  0  0  0  0  0  0  0  0
    1.2990   -5.8573    0.0000 C   0  0  0  0  0  0  0  0  0  0  0  0
    2.5981   -5.1073    0.0000 O   0  0  0  0  0  0  0  0  0  0  0  0
   -0.0000   -5.1073    0.0000 N   0  0  0  0  0  0  0  0  0  0  0  0
   -0.0000   -3.6073    0.0000 C   0  0  0  0  0  0  0  0  0  0  0  0
    1.2135   -2.7256    0.0000 S   0  0  0  0  0  0  0  0  0  0  0  0
    0.7500   -1.2990    0.0000 C   0  0  0  0  0  0  0  0  0  0  0  0
    1.5000    0.0000    0.0000 C   0  0  0  0  0  0  0  0  0  0  0  0
    3.0000    0.0000    0.0000 C   0  0  0  0  0  0  0  0  0  0  0  0
    3.7500    1.2990    0.0000 C   0  0  0  0  0  0  0  0  0  0  0  0
    3.7500   -1.2990    0.0000 C   0  0  0  0  0  0  0  0  0  0  0  0
    0.7500    1.2990    0.0000 C   0  0  0  0  0  0  0  0  0  0  0  0
   -0.7500    1.2990    0.0000 C   0  0  0  0  0  0  0  0  0  0  0  0
   -1.5000    2.5981    0.0000 N   0  0  0  0  0  0  0  0  0  0  0  0
   -0.7500    3.8971    0.0000 S   0  0  0  0  0  0  0  0  0  0  0  0
   -2.0490    4.6471    0.0000 O   0  0  0  0  0  0  0  0  0  0  0  0
    0.5490    3.1471    0.0000 O   0  0  0  0  0  0  0  0  0  0  0  0
    0.0000    5.1962    0.0000 N   0  0  0  0  0  0  0  0  0  0  0  0
    1.5000    5.1962    0.0000 C   0  0  0  0  0  0  0  0  0  0  0  0
   -0.7500    6.4952    0.0000 C   0  0  0  0  0  0  0  0  0  0  0  0
   -1.5000    0.0000    0.0000 C   0  0  0  0  0  0  0  0  0  0  0  0
   -0.7500   -1.2990    0.0000 C   0  0  0  0  0  0  0  0  0  0  0  0
   -1.2135   -2.7256    0.0000 C   0  0  0  0  0  0  0  0  0  0  0  0
   -2.6401   -3.1891    0.0000 C   0  0  0  0  0  0  0  0  0  0  0  0
   -2.9520   -4.6564    0.0000 N   0  0  0  0  0  0  0  0  0  0  0  0
   -3.7548   -2.1855    0.0000 O   0  0  0  0  0  0  0  0  0  0  0  0
  1  2  1  0
  2  3  1  0
  3  4  2  0
  3  5  1  0
  5  6  1  0
  6  7  1  0
  7  8  1  0
  8  9  2  0
  9 10  1  0
 10 11  1  0
 10 12  1  0
  9 13  1  0
 13 14  2  0
 14 15  1  0
 15 16  1  0
 16 17  2  0
 16 18  2  0
 16 19  1  0
 19 20  1  0
 19 21  1  0
 14 22  1  0
 22 23  2  0
 23 24  1  0
 24 25  1  0
 25 26  1  0
 25 27  2  0
 24  6  2  0
 23  8  1  0
M  END
>  <Compound_ID>  (484) 
CHEMBL4290876

>  <Molecule Name>  (484) 
nan

>  <Molecular Weight>  (484) 
413.53

>  <AlogP>  (484) 
2.09

>  <Smiles>  (484) 
CNC(=O)Nc1sc2c(C(C)C)cc(NS(=O)(=O)N(C)C)cc2c1C(N)=O

>  <Standard Type>  (484) 
Inhibition

>  <Standard Relation>  (484) 
'='

>  <Standard Units>  (484) 
%

>  <Standard Value>  (484) 
2.76

>  <Assay ChEMBL ID>  (484) 
CHEMBL4266871

>  <Assay Description>  (484) 
Inhibition of c-MET (unknown origin) at 1 uM

>  <BAO Format ID>  (484) 
BAO_0000357

>  <BAO Label>  (484) 
single protein format

>  <Assay Organism>  (484) 
Homo sapiens

>  <Target ChEMBL ID>  (484) 
CHEMBL3717

>  <Target Name>  (484) 
Hepatocyte growth factor receptor

>  <Target Organism>  (484) 
Homo sapiens

>  <Target Type>  (484) 
SINGLE PROTEIN

>  <Document ChEMBL ID>  (484) 
CHEMBL4265887

>  <Source Description>  (484) 
Scientific Literature

>  <Document Journal>  (484) 
Bioorg Med Chem Lett

>  <Document Year>  (484) 
2018.0

>  <Active>  (484) 
0.0

$$$$

     RDKit          2D

 36 40  0  0  0  0  0  0  0  0999 V2000
   -4.4228   16.0390    0.0000 C   0  0  0  0  0  0  0  0  0  0  0  0
   -3.3081   15.0353    0.0000 C   0  0  0  0  0  0  0  0  0  0  0  0
   -3.6200   13.5681    0.0000 C   0  0  0  0  0  0  0  0  0  0  0  0
   -2.5052   12.5644    0.0000 N   0  0  0  0  0  0  0  0  0  0  0  0
   -1.0786   13.0279    0.0000 C   0  0  0  0  0  0  0  0  0  0  0  0
    0.0361   12.0242    0.0000 C   0  0  0  0  0  0  0  0  0  0  0  0
   -0.2758   10.5570    0.0000 C   0  0  0  0  0  0  0  0  0  0  0  0
   -1.7024   10.0935    0.0000 C   0  0  0  0  0  0  0  0  0  0  0  0
   -2.0143    8.6263    0.0000 C   0  0  0  0  0  0  0  0  0  0  0  0
   -3.4408    8.1628    0.0000 C   0  0  0  0  0  0  0  0  0  0  0  0
   -3.7527    6.6955    0.0000 C   0  0  0  0  0  0  0  0  0  0  0  0
   -2.6380    5.6918    0.0000 C   0  0  0  0  0  0  0  0  0  0  0  0
   -2.9499    4.2246    0.0000 N   0  0  0  0  0  0  0  0  0  0  0  0
   -1.8351    3.2209    0.0000 C   0  0  0  0  0  0  0  0  0  0  0  0
   -0.4086    3.6844    0.0000 N   0  0  0  0  0  0  0  0  0  0  0  0
    0.7062    2.6807    0.0000 C   0  0  0  0  0  0  0  0  0  0  0  0
    2.1328    3.1443    0.0000 N   0  0  0  0  0  0  0  0  0  0  0  0
    2.4446    4.6115    0.0000 C   0  0  0  0  0  0  0  0  0  0  0  0
    1.3299    5.6152    0.0000 C   0  0  0  0  0  0  0  0  0  0  0  0
    1.6418    7.0824    0.0000 C   0  0  0  0  0  0  0  0  0  0  0  0
    3.0684    7.5459    0.0000 C   0  0  0  0  0  0  0  0  0  0  0  0
    4.1831    6.5422    0.0000 C   0  0  0  0  0  0  0  0  0  0  0  0
    3.8712    5.0750    0.0000 C   0  0  0  0  0  0  0  0  0  0  0  0
    4.9859    4.0713    0.0000 C   0  0  0  0  0  0  0  0  0  0  0  0
    6.4125    4.5348    0.0000 N   0  0  0  0  0  0  0  0  0  0  0  0
    4.6741    2.6041    0.0000 O   0  0  0  0  0  0  0  0  0  0  0  0
    0.3943    1.2135    0.0000 C   0  0  0  0  0  0  0  0  0  0  0  0
    1.2760    0.0000    0.0000 C   0  0  0  0  0  0  0  0  0  0  0  0
    0.3943   -1.2135    0.0000 C   0  0  0  0  0  0  0  0  0  0  0  0
   -1.0323   -0.7500    0.0000 N   0  0  0  0  0  0  0  0  0  0  0  0
   -1.0323    0.7500    0.0000 C   0  0  0  0  0  0  0  0  0  0  0  0
   -2.1470    1.7537    0.0000 N   0  0  0  0  0  0  0  0  0  0  0  0
   -1.2114    6.1554    0.0000 C   0  0  0  0  0  0  0  0  0  0  0  0
   -0.0967    5.1517    0.0000 C   0  0  0  0  0  0  0  0  0  0  0  0
   -0.8995    7.6226    0.0000 C   0  0  0  0  0  0  0  0  0  0  0  0
   -2.8171   11.0972    0.0000 C   0  0  0  0  0  0  0  0  0  0  0  0
  1  2  1  0
  2  3  1  0
  3  4  1  0
  4  5  1  0
  5  6  1  0
  6  7  1  0
  7  8  2  0
  8  9  1  0
  9 10  2  0
 10 11  1  0
 11 12  2  0
 12 13  1  0
 13 14  1  0
 14 15  2  0
 15 16  1  0
 16 17  1  0
 17 18  1  0
 18 19  2  0
 19 20  1  0
 20 21  2  0
 21 22  1  0
 22 23  2  0
 23 24  1  0
 24 25  1  0
 24 26  2  0
 16 27  2  0
 27 28  1  0
 28 29  2  0
 29 30  1  0
 30 31  1  0
 31 32  2  0
 12 33  1  0
 33 34  1  0
 33 35  2  0
  8 36  1  0
 36  4  1  0
 35  9  1  0
 32 14  1  0
 23 18  1  0
 31 27  1  0
M  END
>  <Compound_ID>  (485) 
CHEMBL513897

>  <Molecule Name>  (485) 
GSK-994854A

>  <Molecular Weight>  (485) 
481.60

>  <AlogP>  (485) 
5.35

>  <Smiles>  (485) 
CCCN1CCC=C(c2ccc(Nc3nc(Nc4ccccc4C(N)=O)c4cc[nH]c4n3)c(C)c2)C1

>  <Standard Type>  (485) 
Inhibition

>  <Standard Relation>  (485) 
'='

>  <Standard Units>  (485) 
%

>  <Standard Value>  (485) 
6.76

>  <Assay ChEMBL ID>  (485) 
CHEMBL1962142

>  <Assay Description>  (485) 
GSK_PKIS: MET mean inhibition at 0.1 uM [Nanosyn]

>  <BAO Format ID>  (485) 
BAO_0000357

>  <BAO Label>  (485) 
single protein format

>  <Assay Organism>  (485) 
None

>  <Target ChEMBL ID>  (485) 
CHEMBL3717

>  <Target Name>  (485) 
Hepatocyte growth factor receptor

>  <Target Organism>  (485) 
Homo sapiens

>  <Target Type>  (485) 
SINGLE PROTEIN

>  <Document ChEMBL ID>  (485) 
CHEMBL1961873

>  <Source Description>  (485) 
GSK Published Kinase Inhibitor Set

>  <Document Journal>  (485) 
nan

>  <Document Year>  (485) 
nan

>  <Active>  (485) 
0.0

$$$$

     RDKit          2D

 30 33  0  0  0  0  0  0  0  0999 V2000
  -12.3122    3.9144    0.0000 C   0  0  0  0  0  0  0  0  0  0  0  0
  -11.1975    2.9107    0.0000 C   0  0  0  0  0  0  0  0  0  0  0  0
   -9.7709    3.3742    0.0000 C   0  0  0  0  0  0  0  0  0  0  0  0
   -9.4590    4.8414    0.0000 O   0  0  0  0  0  0  0  0  0  0  0  0
   -8.6562    2.3705    0.0000 N   0  0  0  0  0  0  0  0  0  0  0  0
   -7.2296    2.8340    0.0000 C   0  0  0  0  0  0  0  0  0  0  0  0
   -6.9177    4.3013    0.0000 C   0  0  0  0  0  0  0  0  0  0  0  0
   -5.4912    4.7648    0.0000 C   0  0  0  0  0  0  0  0  0  0  0  0
   -4.3764    3.7611    0.0000 C   0  0  0  0  0  0  0  0  0  0  0  0
   -4.6883    2.2939    0.0000 C   0  0  0  0  0  0  0  0  0  0  0  0
   -3.5736    1.2902    0.0000 O   0  0  0  0  0  0  0  0  0  0  0  0
   -2.1470    1.7537    0.0000 C   0  0  0  0  0  0  0  0  0  0  0  0
   -1.8351    3.2209    0.0000 N   0  0  0  0  0  0  0  0  0  0  0  0
   -0.4086    3.6844    0.0000 C   0  0  0  0  0  0  0  0  0  0  0  0
   -0.0967    5.1517    0.0000 N   0  0  0  0  0  0  0  0  0  0  0  0
    1.3299    5.6152    0.0000 C   0  0  0  0  0  0  0  0  0  0  0  0
    2.4446    4.6115    0.0000 C   0  0  0  0  0  0  0  0  0  0  0  0
    3.8712    5.0750    0.0000 C   0  0  0  0  0  0  0  0  0  0  0  0
    4.1831    6.5422    0.0000 C   0  0  0  0  0  0  0  0  0  0  0  0
    3.0684    7.5459    0.0000 C   0  0  0  0  0  0  0  0  0  0  0  0
    3.3802    9.0132    0.0000 C   0  0  0  0  0  0  0  0  0  0  0  0
    3.6921   10.4804    0.0000 N   0  0  0  0  0  0  0  0  0  0  0  0
    1.6418    7.0824    0.0000 C   0  0  0  0  0  0  0  0  0  0  0  0
    0.7062    2.6807    0.0000 N   0  0  0  0  0  0  0  0  0  0  0  0
    0.3943    1.2135    0.0000 C   0  0  0  0  0  0  0  0  0  0  0  0
    1.2760    0.0000    0.0000 C   0  0  0  0  0  0  0  0  0  0  0  0
    0.3943   -1.2135    0.0000 C   0  0  0  0  0  0  0  0  0  0  0  0
   -1.0323   -0.7500    0.0000 S   0  0  0  0  0  0  0  0  0  0  0  0
   -1.0323    0.7500    0.0000 C   0  0  0  0  0  0  0  0  0  0  0  0
   -6.1149    1.8303    0.0000 C   0  0  0  0  0  0  0  0  0  0  0  0
  1  2  2  0
  2  3  1  0
  3  4  2  0
  3  5  1  0
  5  6  1  0
  6  7  2  0
  7  8  1  0
  8  9  2  0
  9 10  1  0
 10 11  1  0
 11 12  1  0
 12 13  2  0
 13 14  1  0
 14 15  1  0
 15 16  1  0
 16 17  2  0
 17 18  1  0
 18 19  2  0
 19 20  1  0
 20 21  1  0
 21 22  3  0
 20 23  2  0
 14 24  2  0
 24 25  1  0
 25 26  1  0
 26 27  2  0
 27 28  1  0
 28 29  1  0
 10 30  2  0
 30  6  1  0
 29 12  1  0
 23 16  1  0
 29 25  2  0
M  END
>  <Compound_ID>  (486) 
CHEMBL4789286

>  <Molecule Name>  (486) 
nan

>  <Molecular Weight>  (486) 
413.46

>  <AlogP>  (486) 
5.22

>  <Smiles>  (486) 
C=CC(=O)Nc1cccc(Oc2nc(Nc3cccc(C#N)c3)nc3ccsc23)c1

>  <Standard Type>  (486) 
Inhibition

>  <Standard Relation>  (486) 
'='

>  <Standard Units>  (486) 
%

>  <Standard Value>  (486) 
6.0

>  <Assay ChEMBL ID>  (486) 
CHEMBL4708509

>  <Assay Description>  (486) 
Inhibition of c-MET (unknown origin) using FAM-labelled peptide as substrate at 1 uM incubated for 10 mins in presence of ATP measured by mobility shift assay

>  <BAO Format ID>  (486) 
BAO_0000357

>  <BAO Label>  (486) 
single protein format

>  <Assay Organism>  (486) 
Homo sapiens

>  <Target ChEMBL ID>  (486) 
CHEMBL3717

>  <Target Name>  (486) 
Hepatocyte growth factor receptor

>  <Target Organism>  (486) 
Homo sapiens

>  <Target Type>  (486) 
SINGLE PROTEIN

>  <Document ChEMBL ID>  (486) 
CHEMBL4706512

>  <Source Description>  (486) 
Scientific Literature

>  <Document Journal>  (486) 
Eur J Med Chem

>  <Document Year>  (486) 
2020.0

>  <Active>  (486) 
0.0

$$$$

     RDKit          2D

 29 33  0  0  0  0  0  0  0  0999 V2000
   -5.2046    0.1696    0.0000 N   0  0  0  0  0  0  0  0  0  0  0  0
   -5.6682   -1.2570    0.0000 C   0  0  0  0  0  0  0  0  0  0  0  0
   -6.1317   -2.6836    0.0000 C   0  0  0  0  0  0  0  0  0  0  0  0
   -5.2500   -3.8971    0.0000 C   0  0  0  0  0  0  0  0  0  0  0  0
   -3.7500   -3.8971    0.0000 N   0  0  0  0  0  0  0  0  0  0  0  0
   -3.0000   -2.5981    0.0000 C   0  0  0  0  0  0  0  0  0  0  0  0
   -3.7500   -1.2990    0.0000 O   0  0  0  0  0  0  0  0  0  0  0  0
   -1.5000   -2.5981    0.0000 C   0  0  0  0  0  0  0  0  0  0  0  0
   -0.7500   -3.8971    0.0000 C   0  0  0  0  0  0  0  0  0  0  0  0
    0.7500   -3.8971    0.0000 C   0  0  0  0  0  0  0  0  0  0  0  0
    1.5000   -2.5981    0.0000 C   0  0  0  0  0  0  0  0  0  0  0  0
    0.7500   -1.2990    0.0000 C   0  0  0  0  0  0  0  0  0  0  0  0
    1.5000    0.0000    0.0000 C   0  0  0  0  0  0  0  0  0  0  0  0
    0.7500    1.2990    0.0000 C   0  0  0  0  0  0  0  0  0  0  0  0
   -0.7500    1.2990    0.0000 C   0  0  0  0  0  0  0  0  0  0  0  0
   -1.5000    0.0000    0.0000 C   0  0  0  0  0  0  0  0  0  0  0  0
   -0.7500   -1.2990    0.0000 C   0  0  0  0  0  0  0  0  0  0  0  0
   -6.1317   -5.1106    0.0000 S   0  0  0  0  0  0  0  0  0  0  0  0
   -7.5583   -4.6471    0.0000 C   0  0  0  0  0  0  0  0  0  0  0  0
   -7.5583   -3.1471    0.0000 C   0  0  0  0  0  0  0  0  0  0  0  0
   -8.8573   -2.3971    0.0000 C   0  0  0  0  0  0  0  0  0  0  0  0
  -10.1563   -3.1471    0.0000 C   0  0  0  0  0  0  0  0  0  0  0  0
  -10.1563   -4.6471    0.0000 C   0  0  0  0  0  0  0  0  0  0  0  0
   -8.8573   -5.3971    0.0000 N   0  0  0  0  0  0  0  0  0  0  0  0
   -8.8573   -6.8971    0.0000 C   0  0  0  0  0  0  0  0  0  0  0  0
   -7.5583   -7.6471    0.0000 O   0  0  0  0  0  0  0  0  0  0  0  0
  -10.1563   -7.6471    0.0000 C   0  0  0  0  0  0  0  0  0  0  0  0
  -10.9063   -8.9462    0.0000 C   0  0  0  0  0  0  0  0  0  0  0  0
  -11.6563   -7.6471    0.0000 C   0  0  0  0  0  0  0  0  0  0  0  0
  1  2  3  0
  2  3  1  0
  3  4  2  0
  4  5  1  0
  5  6  1  0
  6  7  2  0
  6  8  1  0
  8  9  2  0
  9 10  1  0
 10 11  2  0
 11 12  1  0
 12 13  2  0
 13 14  1  0
 14 15  2  0
 15 16  1  0
 16 17  2  0
  4 18  1  0
 18 19  1  0
 19 20  2  0
 20 21  1  0
 21 22  1  0
 22 23  1  0
 23 24  1  0
 24 25  1  0
 25 26  2  0
 25 27  1  0
 27 28  1  0
 28 29  1  0
 20  3  1  0
 29 27  1  0
 17  8  1  0
 24 19  1  0
 17 12  1  0
M  END
>  <Compound_ID>  (487) 
CHEMBL232601

>  <Molecule Name>  (487) 
GW846105X

>  <Molecular Weight>  (487) 
401.49

>  <AlogP>  (487) 
4.71

>  <Smiles>  (487) 
N#Cc1c(NC(=O)c2cccc3ccccc23)sc2c1CCCN2C(=O)C1CC1

>  <Standard Type>  (487) 
Inhibition

>  <Standard Relation>  (487) 
'='

>  <Standard Units>  (487) 
%

>  <Standard Value>  (487) 
4.48

>  <Assay ChEMBL ID>  (487) 
CHEMBL1962143

>  <Assay Description>  (487) 
GSK_PKIS: MET mean inhibition at 1 uM [Nanosyn]

>  <BAO Format ID>  (487) 
BAO_0000357

>  <BAO Label>  (487) 
single protein format

>  <Assay Organism>  (487) 
None

>  <Target ChEMBL ID>  (487) 
CHEMBL3717

>  <Target Name>  (487) 
Hepatocyte growth factor receptor

>  <Target Organism>  (487) 
Homo sapiens

>  <Target Type>  (487) 
SINGLE PROTEIN

>  <Document ChEMBL ID>  (487) 
CHEMBL1961873

>  <Source Description>  (487) 
GSK Published Kinase Inhibitor Set

>  <Document Journal>  (487) 
nan

>  <Document Year>  (487) 
nan

>  <Active>  (487) 
0.0

$$$$

     RDKit          2D

 39 43  0  0  0  0  0  0  0  0999 V2000
   -1.3632  -12.1594    0.0000 C   0  0  0  0  0  0  0  0  0  0  0  0
   -1.2064  -10.6676    0.0000 S   0  0  0  0  0  0  0  0  0  0  0  0
    0.2854  -10.8244    0.0000 O   0  0  0  0  0  0  0  0  0  0  0  0
   -2.6982  -10.5109    0.0000 O   0  0  0  0  0  0  0  0  0  0  0  0
   -1.0496   -9.1759    0.0000 C   0  0  0  0  0  0  0  0  0  0  0  0
    0.3207   -8.5658    0.0000 C   0  0  0  0  0  0  0  0  0  0  0  0
    0.4775   -7.0740    0.0000 N   0  0  0  0  0  0  0  0  0  0  0  0
    1.8478   -6.4639    0.0000 C   0  0  0  0  0  0  0  0  0  0  0  0
    2.0046   -4.9721    0.0000 C   0  0  0  0  0  0  0  0  0  0  0  0
    3.3037   -4.2221    0.0000 C   0  0  0  0  0  0  0  0  0  0  0  0
    2.9918   -2.7549    0.0000 C   0  0  0  0  0  0  0  0  0  0  0  0
    1.5000   -2.5981    0.0000 C   0  0  0  0  0  0  0  0  0  0  0  0
    0.7500   -1.2990    0.0000 C   0  0  0  0  0  0  0  0  0  0  0  0
    1.5000    0.0000    0.0000 C   0  0  0  0  0  0  0  0  0  0  0  0
    0.7500    1.2990    0.0000 C   0  0  0  0  0  0  0  0  0  0  0  0
   -0.7500    1.2990    0.0000 C   0  0  0  0  0  0  0  0  0  0  0  0
   -1.5000    2.5981    0.0000 N   0  0  0  0  0  0  0  0  0  0  0  0
   -3.0000    2.5981    0.0000 C   0  0  0  0  0  0  0  0  0  0  0  0
   -3.7500    1.2990    0.0000 N   0  0  0  0  0  0  0  0  0  0  0  0
   -3.0000    0.0000    0.0000 C   0  0  0  0  0  0  0  0  0  0  0  0
   -3.7500   -1.2990    0.0000 N   0  0  0  0  0  0  0  0  0  0  0  0
   -5.2500   -1.2990    0.0000 C   0  0  0  0  0  0  0  0  0  0  0  0
   -6.0000    0.0000    0.0000 C   0  0  0  0  0  0  0  0  0  0  0  0
   -7.5000    0.0000    0.0000 C   0  0  0  0  0  0  0  0  0  0  0  0
   -8.2500   -1.2990    0.0000 C   0  0  0  0  0  0  0  0  0  0  0  0
   -9.7500   -1.2990    0.0000 O   0  0  0  0  0  0  0  0  0  0  0  0
  -10.5000    0.0000    0.0000 C   0  0  0  0  0  0  0  0  0  0  0  0
  -12.0000    0.0000    0.0000 C   0  0  0  0  0  0  0  0  0  0  0  0
  -12.7500    1.2990    0.0000 C   0  0  0  0  0  0  0  0  0  0  0  0
  -14.2500    1.2990    0.0000 C   0  0  0  0  0  0  0  0  0  0  0  0
  -15.0000    0.0000    0.0000 C   0  0  0  0  0  0  0  0  0  0  0  0
  -14.2500   -1.2990    0.0000 C   0  0  0  0  0  0  0  0  0  0  0  0
  -12.7500   -1.2990    0.0000 C   0  0  0  0  0  0  0  0  0  0  0  0
   -7.5000   -2.5981    0.0000 C   0  0  0  0  0  0  0  0  0  0  0  0
   -8.2500   -3.8971    0.0000 Cl  0  0  0  0  0  0  0  0  0  0  0  0
   -6.0000   -2.5981    0.0000 C   0  0  0  0  0  0  0  0  0  0  0  0
   -1.5000    0.0000    0.0000 C   0  0  0  0  0  0  0  0  0  0  0  0
   -0.7500   -1.2990    0.0000 C   0  0  0  0  0  0  0  0  0  0  0  0
    0.8899   -3.9684    0.0000 O   0  0  0  0  0  0  0  0  0  0  0  0
  1  2  1  0
  2  3  2  0
  2  4  2  0
  2  5  1  0
  5  6  1  0
  6  7  1  0
  7  8  1  0
  8  9  1  0
  9 10  2  0
 10 11  1  0
 11 12  2  0
 12 13  1  0
 13 14  2  0
 14 15  1  0
 15 16  2  0
 16 17  1  0
 17 18  2  0
 18 19  1  0
 19 20  2  0
 20 21  1  0
 21 22  1  0
 22 23  2  0
 23 24  1  0
 24 25  2  0
 25 26  1  0
 26 27  1  0
 27 28  1  0
 28 29  2  0
 29 30  1  0
 30 31  2  0
 31 32  1  0
 32 33  2  0
 25 34  1  0
 34 35  1  0
 34 36  2  0
 20 37  1  0
 37 38  2  0
 12 39  1  0
 39  9  1  0
 38 13  1  0
 37 16  1  0
 36 22  1  0
 33 28  1  0
M  END
>  <Compound_ID>  (488) 
CHEMBL529066

>  <Molecule Name>  (488) 
GW574783B

>  <Molecular Weight>  (488) 
599.54

>  <AlogP>  (488) 
6.00

>  <Smiles>  (488) 
CS(=O)(=O)CCNCc1ccc(-c2ccc3ncnc(Nc4ccc(OCc5ccccc5)c(Cl)c4)c3c2)o1

>  <Standard Type>  (488) 
Inhibition

>  <Standard Relation>  (488) 
'='

>  <Standard Units>  (488) 
%

>  <Standard Value>  (488) 
7.4

>  <Assay ChEMBL ID>  (488) 
CHEMBL1962143

>  <Assay Description>  (488) 
GSK_PKIS: MET mean inhibition at 1 uM [Nanosyn]

>  <BAO Format ID>  (488) 
BAO_0000357

>  <BAO Label>  (488) 
single protein format

>  <Assay Organism>  (488) 
None

>  <Target ChEMBL ID>  (488) 
CHEMBL3717

>  <Target Name>  (488) 
Hepatocyte growth factor receptor

>  <Target Organism>  (488) 
Homo sapiens

>  <Target Type>  (488) 
SINGLE PROTEIN

>  <Document ChEMBL ID>  (488) 
CHEMBL1961873

>  <Source Description>  (488) 
GSK Published Kinase Inhibitor Set

>  <Document Journal>  (488) 
nan

>  <Document Year>  (488) 
nan

>  <Active>  (488) 
0.0

$$$$

     RDKit          2D

 29 33  0  0  0  0  0  0  0  0999 V2000
    3.7500   -1.2990    0.0000 C   0  0  0  0  0  0  0  0  0  0  0  0
    3.0000    0.0000    0.0000 O   0  0  0  0  0  0  0  0  0  0  0  0
    1.5000    0.0000    0.0000 C   0  0  0  0  0  0  0  0  0  0  0  0
    0.7500   -1.2990    0.0000 C   0  0  0  0  0  0  0  0  0  0  0  0
   -0.7500   -1.2990    0.0000 C   0  0  0  0  0  0  0  0  0  0  0  0
   -1.5000    0.0000    0.0000 C   0  0  0  0  0  0  0  0  0  0  0  0
   -0.7500    1.2990    0.0000 C   0  0  0  0  0  0  0  0  0  0  0  0
    0.7500    1.2990    0.0000 C   0  0  0  0  0  0  0  0  0  0  0  0
    1.5000    2.5981    0.0000 C   0  0  0  0  0  0  0  0  0  0  0  0
    3.0000    2.5981    0.0000 N   0  0  0  0  0  0  0  0  0  0  0  0
    3.7500    1.2990    0.0000 C   0  0  0  0  0  0  0  0  0  0  0  0
    5.2500    1.2990    0.0000 C   0  0  0  0  0  0  0  0  0  0  0  0
    6.0000    2.5981    0.0000 N   0  0  0  0  0  0  0  0  0  0  0  0
    5.2500    3.8971    0.0000 C   0  0  0  0  0  0  0  0  0  0  0  0
    3.7500    3.8971    0.0000 C   0  0  0  0  0  0  0  0  0  0  0  0
   -1.7537    2.4138    0.0000 O   0  0  0  0  0  0  0  0  0  0  0  0
   -3.1240    1.8037    0.0000 C   0  0  0  0  0  0  0  0  0  0  0  0
   -4.4231    2.5537    0.0000 C   0  0  0  0  0  0  0  0  0  0  0  0
   -4.4231    4.0537    0.0000 C   0  0  0  0  0  0  0  0  0  0  0  0
   -3.2095    4.9353    0.0000 N   0  0  0  0  0  0  0  0  0  0  0  0
   -3.6731    6.3619    0.0000 N   0  0  0  0  0  0  0  0  0  0  0  0
   -5.1731    6.3619    0.0000 C   0  0  0  0  0  0  0  0  0  0  0  0
   -6.1767    7.4766    0.0000 N   0  0  0  0  0  0  0  0  0  0  0  0
   -7.6440    7.1648    0.0000 C   0  0  0  0  0  0  0  0  0  0  0  0
   -8.1075    5.7382    0.0000 C   0  0  0  0  0  0  0  0  0  0  0  0
   -7.1038    4.6235    0.0000 C   0  0  0  0  0  0  0  0  0  0  0  0
   -5.6366    4.9353    0.0000 C   0  0  0  0  0  0  0  0  0  0  0  0
   -2.9672    0.3119    0.0000 C   0  0  0  0  0  0  0  0  0  0  0  0
   -4.0819   -0.6918    0.0000 O   0  0  0  0  0  0  0  0  0  0  0  0
  1  2  1  0
  2  3  1  0
  3  4  2  0
  4  5  1  0
  5  6  2  0
  6  7  1  0
  7  8  2  0
  8  9  1  0
  9 10  1  0
 10 11  1  0
 11 12  1  0
 12 13  1  0
 13 14  1  0
 14 15  1  0
  7 16  1  0
 16 17  1  0
 17 18  2  0
 18 19  1  0
 19 20  2  0
 20 21  1  0
 21 22  1  0
 22 23  2  0
 23 24  1  0
 24 25  2  0
 25 26  1  0
 26 27  2  0
 17 28  1  0
 28 29  2  0
  8  3  1  0
 15 10  1  0
 27 19  1  0
 28  6  1  0
 27 22  1  0
M  END
>  <Compound_ID>  (489) 
CHEMBL3735816

>  <Molecule Name>  (489) 
nan

>  <Molecular Weight>  (489) 
391.43

>  <AlogP>  (489) 
1.99

>  <Smiles>  (489) 
COc1ccc2c(c1CN1CCNCC1)O/C(=C\c1n[nH]c3ncccc13)C2=O

>  <Standard Type>  (489) 
Inhibition

>  <Standard Relation>  (489) 
'='

>  <Standard Units>  (489) 
%

>  <Standard Value>  (489) 
-2.3

>  <Assay ChEMBL ID>  (489) 
CHEMBL3738540

>  <Assay Description>  (489) 
Inhibition of MET (unknown origin) at 200 nM by electrophoretic mobility shift assay

>  <BAO Format ID>  (489) 
BAO_0000357

>  <BAO Label>  (489) 
single protein format

>  <Assay Organism>  (489) 
Homo sapiens

>  <Target ChEMBL ID>  (489) 
CHEMBL3717

>  <Target Name>  (489) 
Hepatocyte growth factor receptor

>  <Target Organism>  (489) 
Homo sapiens

>  <Target Type>  (489) 
SINGLE PROTEIN

>  <Document ChEMBL ID>  (489) 
CHEMBL3734671

>  <Source Description>  (489) 
Scientific Literature

>  <Document Journal>  (489) 
Bioorg Med Chem Lett

>  <Document Year>  (489) 
2015.0

>  <Active>  (489) 
0.0

$$$$

     RDKit          2D

 32 35  0  0  0  0  0  0  0  0999 V2000
    8.2500   -3.8971    0.0000 C   0  0  0  0  0  0  0  0  0  0  0  0
    7.5000   -2.5981    0.0000 O   0  0  0  0  0  0  0  0  0  0  0  0
    6.0000   -2.5981    0.0000 C   0  0  0  0  0  0  0  0  0  0  0  0
    5.2500   -1.2990    0.0000 C   0  0  0  0  0  0  0  0  0  0  0  0
    3.7500   -1.2990    0.0000 N   0  0  0  0  0  0  0  0  0  0  0  0
    3.0000    0.0000    0.0000 C   0  0  0  0  0  0  0  0  0  0  0  0
    3.7500    1.2990    0.0000 O   0  0  0  0  0  0  0  0  0  0  0  0
    1.5000    0.0000    0.0000 C   0  0  0  0  0  0  0  0  0  0  0  0
    0.7500   -1.2990    0.0000 C   0  0  0  0  0  0  0  0  0  0  0  0
   -0.7500   -1.2990    0.0000 C   0  0  0  0  0  0  0  0  0  0  0  0
   -1.5000    0.0000    0.0000 C   0  0  0  0  0  0  0  0  0  0  0  0
   -0.7500    1.2990    0.0000 C   0  0  0  0  0  0  0  0  0  0  0  0
    0.7500    1.2990    0.0000 C   0  0  0  0  0  0  0  0  0  0  0  0
   -1.7537    2.4138    0.0000 N   0  0  0  0  0  0  0  0  0  0  0  0
   -3.1240    1.8037    0.0000 C   0  0  0  0  0  0  0  0  0  0  0  0
   -4.4231    2.5537    0.0000 C   0  0  0  0  0  0  0  0  0  0  0  0
   -5.7934    1.9435    0.0000 C   0  0  0  0  0  0  0  0  0  0  0  0
   -6.7971    3.0583    0.0000 N   0  0  0  0  0  0  0  0  0  0  0  0
   -6.0471    4.3573    0.0000 C   0  0  0  0  0  0  0  0  0  0  0  0
   -6.6572    5.7276    0.0000 C   0  0  0  0  0  0  0  0  0  0  0  0
   -5.7755    6.9411    0.0000 C   0  0  0  0  0  0  0  0  0  0  0  0
   -6.3856    8.3115    0.0000 C   0  0  0  0  0  0  0  0  0  0  0  0
   -7.8774    8.4683    0.0000 C   0  0  0  0  0  0  0  0  0  0  0  0
   -8.4875    9.8386    0.0000 Cl  0  0  0  0  0  0  0  0  0  0  0  0
   -8.7591    7.2547    0.0000 C   0  0  0  0  0  0  0  0  0  0  0  0
   -8.1490    5.8844    0.0000 C   0  0  0  0  0  0  0  0  0  0  0  0
   -4.5798    4.0454    0.0000 N   0  0  0  0  0  0  0  0  0  0  0  0
   -2.9672    0.3119    0.0000 N   0  0  0  0  0  0  0  0  0  0  0  0
   -4.0819   -0.6918    0.0000 C   0  0  0  0  0  0  0  0  0  0  0  0
   -3.7701   -2.1590    0.0000 C   0  0  0  0  0  0  0  0  0  0  0  0
   -4.8848   -3.1627    0.0000 O   0  0  0  0  0  0  0  0  0  0  0  0
   -4.5729   -4.6300    0.0000 C   0  0  0  0  0  0  0  0  0  0  0  0
  1  2  1  0
  2  3  1  0
  3  4  1  0
  4  5  1  0
  5  6  1  0
  6  7  2  0
  6  8  1  0
  8  9  2  0
  9 10  1  0
 10 11  2  0
 11 12  1  0
 12 13  2  0
 12 14  1  0
 14 15  2  0
 15 16  1  0
 16 17  2  0
 17 18  1  0
 18 19  2  0
 19 20  1  0
 20 21  2  0
 21 22  1  0
 22 23  2  0
 23 24  1  0
 23 25  1  0
 25 26  2  0
 19 27  1  0
 15 28  1  0
 28 29  1  0
 29 30  1  0
 30 31  1  0
 31 32  1  0
 13  8  1  0
 27 16  1  0
 28 11  1  0
 26 20  1  0
M  END
>  <Compound_ID>  (490) 
CHEMBL3628628

>  <Molecule Name>  (490) 
nan

>  <Molecular Weight>  (490) 
453.93

>  <AlogP>  (490) 
3.77

>  <Smiles>  (490) 
COCCNC(=O)c1ccc2c(c1)nc(-c1cnc(-c3ccc(Cl)cc3)[nH]1)n2CCOC

>  <Standard Type>  (490) 
Inhibition

>  <Standard Relation>  (490) 
'='

>  <Standard Units>  (490) 
%

>  <Standard Value>  (490) 
10.89

>  <Assay ChEMBL ID>  (490) 
CHEMBL3632174

>  <Assay Description>  (490) 
Inhibition of c-MET (unknown origin) at 10 uM after 120 mins P33 radiolabeled kinase activity assay

>  <BAO Format ID>  (490) 
BAO_0000357

>  <BAO Label>  (490) 
single protein format

>  <Assay Organism>  (490) 
Homo sapiens

>  <Target ChEMBL ID>  (490) 
CHEMBL3717

>  <Target Name>  (490) 
Hepatocyte growth factor receptor

>  <Target Organism>  (490) 
Homo sapiens

>  <Target Type>  (490) 
SINGLE PROTEIN

>  <Document ChEMBL ID>  (490) 
CHEMBL3627608

>  <Source Description>  (490) 
Scientific Literature

>  <Document Journal>  (490) 
Bioorg Med Chem

>  <Document Year>  (490) 
2015.0

>  <Active>  (490) 
0.0

$$$$

     RDKit          2D

 23 26  0  0  0  0  0  0  0  0999 V2000
   -3.0000   -4.0981    0.0000 O   0  0  0  0  0  0  0  0  0  0  0  0
   -3.0000   -2.5981    0.0000 S   0  0  0  0  0  0  0  0  0  0  0  0
   -3.0000   -1.0981    0.0000 O   0  0  0  0  0  0  0  0  0  0  0  0
   -1.5000   -2.5981    0.0000 C   0  0  0  0  0  0  0  0  0  0  0  0
   -0.7500   -3.8971    0.0000 C   0  0  0  0  0  0  0  0  0  0  0  0
    0.7500   -3.8971    0.0000 C   0  0  0  0  0  0  0  0  0  0  0  0
    1.5000   -2.5981    0.0000 C   0  0  0  0  0  0  0  0  0  0  0  0
    0.7500   -1.2990    0.0000 C   0  0  0  0  0  0  0  0  0  0  0  0
    1.5000    0.0000    0.0000 C   0  0  0  0  0  0  0  0  0  0  0  0
    0.7500    1.2990    0.0000 N   0  0  0  0  0  0  0  0  0  0  0  0
   -0.7500    1.2990    0.0000 C   0  0  0  0  0  0  0  0  0  0  0  0
   -1.5000    0.0000    0.0000 C   0  0  0  0  0  0  0  0  0  0  0  0
   -0.7500   -1.2990    0.0000 C   0  0  0  0  0  0  0  0  0  0  0  0
   -4.5000   -2.5981    0.0000 N   0  0  0  0  0  0  0  0  0  0  0  0
   -5.2500   -1.2990    0.0000 C   0  0  0  0  0  0  0  0  0  0  0  0
   -6.7500   -1.2990    0.0000 C   0  0  0  0  0  0  0  0  0  0  0  0
   -7.5000   -2.5981    0.0000 C   0  0  0  0  0  0  0  0  0  0  0  0
   -8.3817   -3.8116    0.0000 C   0  0  0  0  0  0  0  0  0  0  0  0
   -9.8083   -3.3481    0.0000 C   0  0  0  0  0  0  0  0  0  0  0  0
   -9.8083   -1.8481    0.0000 C   0  0  0  0  0  0  0  0  0  0  0  0
   -8.3817   -1.3846    0.0000 N   0  0  0  0  0  0  0  0  0  0  0  0
   -6.7500   -3.8971    0.0000 C   0  0  0  0  0  0  0  0  0  0  0  0
   -5.2500   -3.8971    0.0000 C   0  0  0  0  0  0  0  0  0  0  0  0
  1  2  2  0
  2  3  2  0
  2  4  1  0
  4  5  2  0
  5  6  1  0
  6  7  2  0
  7  8  1  0
  8  9  2  0
  9 10  1  0
 10 11  2  0
 11 12  1  0
 12 13  2  0
  2 14  1  0
 14 15  1  0
 15 16  1  0
 16 17  1  0
 17 18  1  0
 18 19  1  0
 19 20  1  0
 20 21  1  0
 17 22  1  0
 22 23  1  0
 13  4  1  0
 23 14  1  0
 13  8  1  0
 21 17  1  0
M  END
>  <Compound_ID>  (491) 
CHEMBL2420918

>  <Molecule Name>  (491) 
nan

>  <Molecular Weight>  (491) 
331.44

>  <AlogP>  (491) 
2.14

>  <Smiles>  (491) 
O=S(=O)(c1cccc2cnccc12)N1CCC2(CCCN2)CC1

>  <Standard Type>  (491) 
Inhibition

>  <Standard Relation>  (491) 
'='

>  <Standard Units>  (491) 
%

>  <Standard Value>  (491) 
8.0

>  <Assay ChEMBL ID>  (491) 
CHEMBL2424318

>  <Assay Description>  (491) 
Inhibition of MET (unknown origin) at 30 uM by microfluidic mobility shift assay relative to control

>  <BAO Format ID>  (491) 
BAO_0000357

>  <BAO Label>  (491) 
single protein format

>  <Assay Organism>  (491) 
Homo sapiens

>  <Target ChEMBL ID>  (491) 
CHEMBL3717

>  <Target Name>  (491) 
Hepatocyte growth factor receptor

>  <Target Organism>  (491) 
Homo sapiens

>  <Target Type>  (491) 
SINGLE PROTEIN

>  <Document ChEMBL ID>  (491) 
CHEMBL2417369

>  <Source Description>  (491) 
Scientific Literature

>  <Document Journal>  (491) 
Bioorg Med Chem

>  <Document Year>  (491) 
2013.0

>  <Active>  (491) 
0.0

$$$$

     RDKit          2D

 23 26  0  0  0  0  0  0  0  0999 V2000
   -3.0000   -4.0981    0.0000 O   0  0  0  0  0  0  0  0  0  0  0  0
   -3.0000   -2.5981    0.0000 S   0  0  0  0  0  0  0  0  0  0  0  0
   -3.0000   -1.0981    0.0000 O   0  0  0  0  0  0  0  0  0  0  0  0
   -1.5000   -2.5981    0.0000 C   0  0  0  0  0  0  0  0  0  0  0  0
   -0.7500   -3.8971    0.0000 C   0  0  0  0  0  0  0  0  0  0  0  0
    0.7500   -3.8971    0.0000 C   0  0  0  0  0  0  0  0  0  0  0  0
    1.5000   -2.5981    0.0000 C   0  0  0  0  0  0  0  0  0  0  0  0
    0.7500   -1.2990    0.0000 C   0  0  0  0  0  0  0  0  0  0  0  0
    1.5000    0.0000    0.0000 C   0  0  0  0  0  0  0  0  0  0  0  0
    0.7500    1.2990    0.0000 N   0  0  0  0  0  0  0  0  0  0  0  0
   -0.7500    1.2990    0.0000 C   0  0  0  0  0  0  0  0  0  0  0  0
   -1.5000    0.0000    0.0000 C   0  0  0  0  0  0  0  0  0  0  0  0
   -0.7500   -1.2990    0.0000 C   0  0  0  0  0  0  0  0  0  0  0  0
   -4.5000   -2.5981    0.0000 N   0  0  0  0  0  0  0  0  0  0  0  0
   -5.3817   -1.3846    0.0000 C   0  0  0  0  0  0  0  0  0  0  0  0
   -6.8083   -1.8481    0.0000 C   0  0  0  0  0  0  0  0  0  0  0  0
   -6.8083   -3.3481    0.0000 C   0  0  0  0  0  0  0  0  0  0  0  0
   -5.3817   -3.8116    0.0000 C   0  0  0  0  0  0  0  0  0  0  0  0
   -3.9145   -4.1235    0.0000 C   0  0  0  0  0  0  0  0  0  0  0  0
   -3.4509   -5.5501    0.0000 C   0  0  0  0  0  0  0  0  0  0  0  0
   -4.4546   -6.6648    0.0000 N   0  0  0  0  0  0  0  0  0  0  0  0
   -5.9218   -6.3529    0.0000 C   0  0  0  0  0  0  0  0  0  0  0  0
   -6.3854   -4.9263    0.0000 C   0  0  0  0  0  0  0  0  0  0  0  0
  1  2  2  0
  2  3  2  0
  2  4  1  0
  4  5  2  0
  5  6  1  0
  6  7  2  0
  7  8  1  0
  8  9  2  0
  9 10  1  0
 10 11  2  0
 11 12  1  0
 12 13  2  0
  2 14  1  0
 14 15  1  0
 15 16  1  0
 16 17  1  0
 17 18  1  0
 18 19  1  0
 19 20  1  0
 20 21  1  0
 21 22  1  0
 22 23  1  0
 13  4  1  0
 18 14  1  0
 13  8  1  0
 23 18  1  0
M  END
>  <Compound_ID>  (492) 
CHEMBL2420923

>  <Molecule Name>  (492) 
nan

>  <Molecular Weight>  (492) 
331.44

>  <AlogP>  (492) 
2.14

>  <Smiles>  (492) 
O=S(=O)(c1cccc2cnccc12)N1CCCC12CCNCC2

>  <Standard Type>  (492) 
Inhibition

>  <Standard Relation>  (492) 
'='

>  <Standard Units>  (492) 
%

>  <Standard Value>  (492) 
4.0

>  <Assay ChEMBL ID>  (492) 
CHEMBL2424318

>  <Assay Description>  (492) 
Inhibition of MET (unknown origin) at 30 uM by microfluidic mobility shift assay relative to control

>  <BAO Format ID>  (492) 
BAO_0000357

>  <BAO Label>  (492) 
single protein format

>  <Assay Organism>  (492) 
Homo sapiens

>  <Target ChEMBL ID>  (492) 
CHEMBL3717

>  <Target Name>  (492) 
Hepatocyte growth factor receptor

>  <Target Organism>  (492) 
Homo sapiens

>  <Target Type>  (492) 
SINGLE PROTEIN

>  <Document ChEMBL ID>  (492) 
CHEMBL2417369

>  <Source Description>  (492) 
Scientific Literature

>  <Document Journal>  (492) 
Bioorg Med Chem

>  <Document Year>  (492) 
2013.0

>  <Active>  (492) 
0.0

$$$$

     RDKit          2D

 50 55  0  0  0  0  0  0  0  0999 V2000
   -5.2500   -3.8971    0.0000 C   0  0  0  0  0  0  0  0  0  0  0  0
   -3.7500   -3.8971    0.0000 O   0  0  0  0  0  0  0  0  0  0  0  0
   -3.0000   -2.5981    0.0000 C   0  0  0  0  0  0  0  0  0  0  0  0
   -1.5000   -2.5981    0.0000 C   0  0  0  0  0  0  0  0  0  0  0  0
   -0.7500   -1.2990    0.0000 C   0  0  0  0  0  0  0  0  0  0  0  0
    0.7500   -1.2990    0.0000 C   0  0  0  0  0  0  0  0  0  0  0  0
    1.5000   -2.5981    0.0000 O   0  0  0  0  0  0  0  0  0  0  0  0
    3.0000   -2.5981    0.0000 C   0  0  0  0  0  0  0  0  0  0  0  0
    3.7500   -3.8971    0.0000 C   0  0  0  0  0  0  0  0  0  0  0  0
    5.2500   -3.8971    0.0000 C   0  0  0  0  0  0  0  0  0  0  0  0
    6.0000   -2.5981    0.0000 C   0  0  0  0  0  0  0  0  0  0  0  0
    5.2500   -1.2990    0.0000 C   0  0  0  0  0  0  0  0  0  0  0  0
    6.0000   -0.0000    0.0000 N   0  0  0  0  0  0  0  0  0  0  0  0
    7.5000   -0.0000    0.0000 C   0  0  0  0  0  0  0  0  0  0  0  0
    8.2500   -1.2990    0.0000 O   0  0  0  0  0  0  0  0  0  0  0  0
    8.2500    1.2990    0.0000 N   0  0  0  0  0  0  0  0  0  0  0  0
    9.7500    1.2990    0.0000 N   0  0  0  0  0  0  0  0  0  0  0  0
   10.6317    0.0855    0.0000 C   0  0  0  0  0  0  0  0  0  0  0  0
   10.1682   -1.3411    0.0000 O   0  0  0  0  0  0  0  0  0  0  0  0
   12.0583    0.5490    0.0000 C   0  0  0  0  0  0  0  0  0  0  0  0
   12.0583    2.0490    0.0000 S   0  0  0  0  0  0  0  0  0  0  0  0
   10.6317    2.5126    0.0000 C   0  0  0  0  0  0  0  0  0  0  0  0
   10.1682    3.9391    0.0000 C   0  0  0  0  0  0  0  0  0  0  0  0
   11.1718    5.0539    0.0000 C   0  0  0  0  0  0  0  0  0  0  0  0
   12.6391    4.7420    0.0000 F   0  0  0  0  0  0  0  0  0  0  0  0
   10.7083    6.4805    0.0000 C   0  0  0  0  0  0  0  0  0  0  0  0
    9.2411    6.7923    0.0000 C   0  0  0  0  0  0  0  0  0  0  0  0
    8.2374    5.6776    0.0000 C   0  0  0  0  0  0  0  0  0  0  0  0
    8.7009    4.2510    0.0000 C   0  0  0  0  0  0  0  0  0  0  0  0
    7.6972    3.1363    0.0000 F   0  0  0  0  0  0  0  0  0  0  0  0
    3.7500   -1.2990    0.0000 C   0  0  0  0  0  0  0  0  0  0  0  0
    1.5000    0.0000    0.0000 C   0  0  0  0  0  0  0  0  0  0  0  0
    0.7500    1.2990    0.0000 C   0  0  0  0  0  0  0  0  0  0  0  0
   -0.7500    1.2990    0.0000 N   0  0  0  0  0  0  0  0  0  0  0  0
   -1.5000    0.0000    0.0000 C   0  0  0  0  0  0  0  0  0  0  0  0
   -3.0000    0.0000    0.0000 C   0  0  0  0  0  0  0  0  0  0  0  0
   -3.7500   -1.2990    0.0000 C   0  0  0  0  0  0  0  0  0  0  0  0
   -5.2500   -1.2990    0.0000 O   0  0  0  0  0  0  0  0  0  0  0  0
   -6.0000    0.0000    0.0000 C   0  0  0  0  0  0  0  0  0  0  0  0
   -5.2500    1.2990    0.0000 C   0  0  0  0  0  0  0  0  0  0  0  0
   -6.0000    2.5981    0.0000 C   0  0  0  0  0  0  0  0  0  0  0  0
   -7.5000    2.5981    0.0000 N   0  0  0  0  0  0  0  0  0  0  0  0
   -8.2500    3.8971    0.0000 C   0  0  0  0  0  0  0  0  0  0  0  0
   -9.7500    3.8971    0.0000 O   0  0  0  0  0  0  0  0  0  0  0  0
   -7.5000    5.1962    0.0000 N   0  0  0  0  0  0  0  0  0  0  0  0
   -8.2500    6.4952    0.0000 C   0  0  0  0  0  0  0  0  0  0  0  0
   -7.5000    7.7942    0.0000 C   0  0  0  0  0  0  0  0  0  0  0  0
   -9.7500    6.4952    0.0000 C   0  0  0  0  0  0  0  0  0  0  0  0
   -8.2500    1.2990    0.0000 C   0  0  0  0  0  0  0  0  0  0  0  0
   -7.5000    0.0000    0.0000 C   0  0  0  0  0  0  0  0  0  0  0  0
  1  2  1  0
  2  3  1  0
  3  4  2  0
  4  5  1  0
  5  6  2  0
  6  7  1  0
  7  8  1  0
  8  9  2  0
  9 10  1  0
 10 11  2  0
 11 12  1  0
 12 13  1  0
 13 14  1  0
 14 15  2  0
 14 16  1  0
 16 17  1  0
 17 18  1  0
 18 19  2  0
 18 20  1  0
 20 21  1  0
 21 22  1  0
 22 23  1  0
 23 24  2  0
 24 25  1  0
 24 26  1  0
 26 27  2  0
 27 28  1  0
 28 29  2  0
 29 30  1  0
 12 31  2  0
  6 32  1  0
 32 33  2  0
 33 34  1  0
 34 35  2  0
 35 36  1  0
 36 37  2  0
 37 38  1  0
 38 39  1  0
 39 40  1  0
 40 41  1  0
 41 42  1  0
 42 43  1  0
 43 44  2  0
 43 45  1  0
 45 46  1  0
 46 47  1  0
 46 48  1  0
 42 49  1  0
 49 50  1  0
 37  3  1  0
 50 39  1  0
 35  5  1  0
 31  8  1  0
 22 17  1  0
 29 23  1  0
M  END
>  <Compound_ID>  (493) 
CHEMBL4740407

>  <Molecule Name>  (493) 
nan

>  <Molecular Weight>  (493) 
706.77

>  <AlogP>  (493) 
6.59

>  <Smiles>  (493) 
COc1cc2c(Oc3cccc(NC(=O)NN4C(=O)CSC4c4c(F)cccc4F)c3)ccnc2cc1OC1CCN(C(=O)NC(C)C)CC1

>  <Standard Type>  (493) 
Inhibition

>  <Standard Relation>  (493) 
'='

>  <Standard Units>  (493) 
%

>  <Standard Value>  (493) 
16.0

>  <Assay ChEMBL ID>  (493) 
CHEMBL4709088

>  <Assay Description>  (493) 
Inhibition of c-Met (unknown origin) at 1 uM using FAM-labelled peptide and ATP incubated for 10 mins by mobility shift assay relative to control

>  <BAO Format ID>  (493) 
BAO_0000357

>  <BAO Label>  (493) 
single protein format

>  <Assay Organism>  (493) 
Homo sapiens

>  <Target ChEMBL ID>  (493) 
CHEMBL3717

>  <Target Name>  (493) 
Hepatocyte growth factor receptor

>  <Target Organism>  (493) 
Homo sapiens

>  <Target Type>  (493) 
SINGLE PROTEIN

>  <Document ChEMBL ID>  (493) 
CHEMBL4706527

>  <Source Description>  (493) 
Scientific Literature

>  <Document Journal>  (493) 
Eur J Med Chem

>  <Document Year>  (493) 
2020.0

>  <Active>  (493) 
0.0

$$$$

     RDKit          2D

 25 28  0  0  0  0  0  0  0  0999 V2000
    6.5453   11.4074    0.0000 N   0  0  0  0  0  0  0  0  0  0  0  0
    5.1187   10.9439    0.0000 C   0  0  0  0  0  0  0  0  0  0  0  0
    4.0040   11.9476    0.0000 O   0  0  0  0  0  0  0  0  0  0  0  0
    4.8068    9.4767    0.0000 C   0  0  0  0  0  0  0  0  0  0  0  0
    5.9215    8.4730    0.0000 C   0  0  0  0  0  0  0  0  0  0  0  0
    5.6097    7.0058    0.0000 C   0  0  0  0  0  0  0  0  0  0  0  0
    4.1831    6.5422    0.0000 C   0  0  0  0  0  0  0  0  0  0  0  0
    3.8712    5.0750    0.0000 C   0  0  0  0  0  0  0  0  0  0  0  0
    2.4446    4.6115    0.0000 C   0  0  0  0  0  0  0  0  0  0  0  0
    2.1328    3.1443    0.0000 C   0  0  0  0  0  0  0  0  0  0  0  0
    0.7062    2.6807    0.0000 C   0  0  0  0  0  0  0  0  0  0  0  0
   -0.4086    3.6844    0.0000 C   0  0  0  0  0  0  0  0  0  0  0  0
   -1.8351    3.2209    0.0000 C   0  0  0  0  0  0  0  0  0  0  0  0
   -2.1470    1.7537    0.0000 C   0  0  0  0  0  0  0  0  0  0  0  0
   -1.0323    0.7500    0.0000 C   0  0  0  0  0  0  0  0  0  0  0  0
    0.3943    1.2135    0.0000 C   0  0  0  0  0  0  0  0  0  0  0  0
    1.2760    0.0000    0.0000 O   0  0  0  0  0  0  0  0  0  0  0  0
    0.3943   -1.2135    0.0000 C   0  0  0  0  0  0  0  0  0  0  0  0
   -1.0323   -0.7500    0.0000 O   0  0  0  0  0  0  0  0  0  0  0  0
    3.2475    2.1406    0.0000 C   0  0  0  0  0  0  0  0  0  0  0  0
    4.6741    2.6041    0.0000 N   0  0  0  0  0  0  0  0  0  0  0  0
    4.9859    4.0713    0.0000 C   0  0  0  0  0  0  0  0  0  0  0  0
    6.4125    4.5348    0.0000 N   0  0  0  0  0  0  0  0  0  0  0  0
    3.0684    7.5459    0.0000 C   0  0  0  0  0  0  0  0  0  0  0  0
    3.3802    9.0132    0.0000 C   0  0  0  0  0  0  0  0  0  0  0  0
  1  2  1  0
  2  3  2  0
  2  4  1  0
  4  5  2  0
  5  6  1  0
  6  7  2  0
  7  8  1  0
  8  9  2  0
  9 10  1  0
 10 11  1  0
 11 12  2  0
 12 13  1  0
 13 14  2  0
 14 15  1  0
 15 16  2  0
 16 17  1  0
 17 18  1  0
 18 19  1  0
 10 20  2  0
 20 21  1  0
 21 22  2  0
 22 23  1  0
  7 24  1  0
 24 25  2  0
 25  4  1  0
 22  8  1  0
 16 11  1  0
 19 15  1  0
M  END
>  <Compound_ID>  (494) 
CHEMBL590335

>  <Molecule Name>  (494) 
nan

>  <Molecular Weight>  (494) 
333.35

>  <AlogP>  (494) 
2.83

>  <Smiles>  (494) 
NC(=O)c1ccc(-c2cc(-c3cccc4c3OCO4)cnc2N)cc1

>  <Standard Type>  (494) 
Inhibition

>  <Standard Relation>  (494) 
'='

>  <Standard Units>  (494) 
%

>  <Standard Value>  (494) 
15.0

>  <Assay ChEMBL ID>  (494) 
CHEMBL1069043

>  <Assay Description>  (494) 
Inhibition of MET at 1 uM by microfluidic substrate phosphorylation assay

>  <BAO Format ID>  (494) 
BAO_0000357

>  <BAO Label>  (494) 
single protein format

>  <Assay Organism>  (494) 
None

>  <Target ChEMBL ID>  (494) 
CHEMBL3717

>  <Target Name>  (494) 
Hepatocyte growth factor receptor

>  <Target Organism>  (494) 
Homo sapiens

>  <Target Type>  (494) 
SINGLE PROTEIN

>  <Document ChEMBL ID>  (494) 
CHEMBL1158506

>  <Source Description>  (494) 
Scientific Literature

>  <Document Journal>  (494) 
Bioorg Med Chem

>  <Document Year>  (494) 
2010.0

>  <Active>  (494) 
0.0

$$$$

     RDKit          2D

 23 27  0  0  0  0  0  0  0  0999 V2000
    5.1707    3.5118    0.0000 C   0  0  0  0  0  0  0  0  0  0  0  0
    3.8717    2.7618    0.0000 C   0  0  0  0  0  0  0  0  0  0  0  0
    2.5727    3.5118    0.0000 C   0  0  0  0  0  0  0  0  0  0  0  0
    2.5727    5.0118    0.0000 C   0  0  0  0  0  0  0  0  0  0  0  0
    1.2736    5.7618    0.0000 C   0  0  0  0  0  0  0  0  0  0  0  0
    1.1168    7.2536    0.0000 N   0  0  0  0  0  0  0  0  0  0  0  0
   -0.3504    7.5654    0.0000 C   0  0  0  0  0  0  0  0  0  0  0  0
   -1.1004    6.2664    0.0000 N   0  0  0  0  0  0  0  0  0  0  0  0
   -0.0967    5.1517    0.0000 C   0  0  0  0  0  0  0  0  0  0  0  0
   -0.4086    3.6844    0.0000 C   0  0  0  0  0  0  0  0  0  0  0  0
   -1.8351    3.2209    0.0000 C   0  0  0  0  0  0  0  0  0  0  0  0
   -2.1470    1.7537    0.0000 C   0  0  0  0  0  0  0  0  0  0  0  0
   -1.0323    0.7500    0.0000 C   0  0  0  0  0  0  0  0  0  0  0  0
    0.3943    1.2135    0.0000 C   0  0  0  0  0  0  0  0  0  0  0  0
    0.7062    2.6807    0.0000 C   0  0  0  0  0  0  0  0  0  0  0  0
    1.2760    0.0000    0.0000 O   0  0  0  0  0  0  0  0  0  0  0  0
    0.3943   -1.2135    0.0000 C   0  0  0  0  0  0  0  0  0  0  0  0
   -1.0323   -0.7500    0.0000 O   0  0  0  0  0  0  0  0  0  0  0  0
   -2.5676    6.5782    0.0000 C   0  0  0  0  0  0  0  0  0  0  0  0
   -2.7244    8.0700    0.0000 C   0  0  0  0  0  0  0  0  0  0  0  0
   -1.3541    8.6801    0.0000 C   0  0  0  0  0  0  0  0  0  0  0  0
    3.8717    5.7618    0.0000 N   0  0  0  0  0  0  0  0  0  0  0  0
    5.1707    5.0118    0.0000 C   0  0  0  0  0  0  0  0  0  0  0  0
  1  2  2  0
  2  3  1  0
  3  4  2  0
  4  5  1  0
  5  6  1  0
  6  7  2  0
  7  8  1  0
  8  9  1  0
  9 10  1  0
 10 11  2  0
 11 12  1  0
 12 13  2  0
 13 14  1  0
 14 15  2  0
 14 16  1  0
 16 17  1  0
 17 18  1  0
  8 19  1  0
 19 20  1  0
 20 21  1  0
  4 22  1  0
 22 23  2  0
 23  1  1  0
  9  5  2  0
 15 10  1  0
 21  7  1  0
 18 13  1  0
M  END
>  <Compound_ID>  (495) 
CHEMBL1909377

>  <Molecule Name>  (495) 
nan

>  <Molecular Weight>  (495) 
341.80

>  <AlogP>  (495) 
3.29

>  <Smiles>  (495) 
c1ccc(-c2nc3n(c2-c2ccc4c(c2)OCO4)CCC3)nc1

>  <Standard Type>  (495) 
Inhibition

>  <Standard Relation>  (495) 
'='

>  <Standard Units>  (495) 
%

>  <Standard Value>  (495) 
2.27

>  <Assay ChEMBL ID>  (495) 
CHEMBL1962142

>  <Assay Description>  (495) 
GSK_PKIS: MET mean inhibition at 0.1 uM [Nanosyn]

>  <BAO Format ID>  (495) 
BAO_0000357

>  <BAO Label>  (495) 
single protein format

>  <Assay Organism>  (495) 
None

>  <Target ChEMBL ID>  (495) 
CHEMBL3717

>  <Target Name>  (495) 
Hepatocyte growth factor receptor

>  <Target Organism>  (495) 
Homo sapiens

>  <Target Type>  (495) 
SINGLE PROTEIN

>  <Document ChEMBL ID>  (495) 
CHEMBL1961873

>  <Source Description>  (495) 
GSK Published Kinase Inhibitor Set

>  <Document Journal>  (495) 
nan

>  <Document Year>  (495) 
nan

>  <Active>  (495) 
0.0

$$$$

     RDKit          2D

 32 36  0  0  0  0  0  0  0  0999 V2000
    3.0000    0.0000    0.0000 F   0  0  0  0  0  0  0  0  0  0  0  0
    1.5000    0.0000    0.0000 C   0  0  0  0  0  0  0  0  0  0  0  0
    0.7500   -1.2990    0.0000 C   0  0  0  0  0  0  0  0  0  0  0  0
   -0.7500   -1.2990    0.0000 C   0  0  0  0  0  0  0  0  0  0  0  0
   -1.5000    0.0000    0.0000 C   0  0  0  0  0  0  0  0  0  0  0  0
   -3.0000    0.0000    0.0000 C   0  0  0  0  0  0  0  0  0  0  0  0
   -3.8817   -1.2135    0.0000 N   0  0  0  0  0  0  0  0  0  0  0  0
   -5.3083   -0.7500    0.0000 C   0  0  0  0  0  0  0  0  0  0  0  0
   -5.3083    0.7500    0.0000 N   0  0  0  0  0  0  0  0  0  0  0  0
   -6.5218    1.6317    0.0000 C   0  0  0  0  0  0  0  0  0  0  0  0
   -6.3650    3.1235    0.0000 C   0  0  0  0  0  0  0  0  0  0  0  0
   -7.5785    4.0051    0.0000 C   0  0  0  0  0  0  0  0  0  0  0  0
   -8.9488    3.3950    0.0000 N   0  0  0  0  0  0  0  0  0  0  0  0
   -9.1056    1.9033    0.0000 C   0  0  0  0  0  0  0  0  0  0  0  0
   -7.8921    1.0216    0.0000 C   0  0  0  0  0  0  0  0  0  0  0  0
   -3.8817    1.2135    0.0000 C   0  0  0  0  0  0  0  0  0  0  0  0
   -3.4182    2.6401    0.0000 C   0  0  0  0  0  0  0  0  0  0  0  0
   -1.9509    2.9520    0.0000 C   0  0  0  0  0  0  0  0  0  0  0  0
   -1.4874    4.3786    0.0000 C   0  0  0  0  0  0  0  0  0  0  0  0
   -2.4911    5.4933    0.0000 N   0  0  0  0  0  0  0  0  0  0  0  0
   -3.9583    5.1814    0.0000 C   0  0  0  0  0  0  0  0  0  0  0  0
   -4.9620    6.2961    0.0000 O   0  0  0  0  0  0  0  0  0  0  0  0
   -4.4985    7.7227    0.0000 C   0  0  0  0  0  0  0  0  0  0  0  0
   -3.0313    8.0346    0.0000 C   0  0  0  0  0  0  0  0  0  0  0  0
   -2.5677    9.4612    0.0000 C   0  0  0  0  0  0  0  0  0  0  0  0
   -3.5714   10.5759    0.0000 C   0  0  0  0  0  0  0  0  0  0  0  0
   -5.0387   10.2640    0.0000 C   0  0  0  0  0  0  0  0  0  0  0  0
   -6.0424   11.3787    0.0000 F   0  0  0  0  0  0  0  0  0  0  0  0
   -5.5022    8.8374    0.0000 C   0  0  0  0  0  0  0  0  0  0  0  0
   -4.4218    3.7548    0.0000 N   0  0  0  0  0  0  0  0  0  0  0  0
   -0.7500    1.2990    0.0000 C   0  0  0  0  0  0  0  0  0  0  0  0
    0.7500    1.2990    0.0000 C   0  0  0  0  0  0  0  0  0  0  0  0
  1  2  1  0
  2  3  2  0
  3  4  1  0
  4  5  2  0
  5  6  1  0
  6  7  1  0
  7  8  2  0
  8  9  1  0
  9 10  1  0
 10 11  1  0
 11 12  1  0
 12 13  1  0
 13 14  1  0
 14 15  1  0
  9 16  1  0
 16 17  1  0
 17 18  2  0
 18 19  1  0
 19 20  2  0
 20 21  1  0
 21 22  1  0
 22 23  1  0
 23 24  2  0
 24 25  1  0
 25 26  2  0
 26 27  1  0
 27 28  1  0
 27 29  2  0
 21 30  2  0
  5 31  1  0
 31 32  2  0
 32  2  1  0
 16  6  2  0
 30 17  1  0
 15 10  1  0
 29 23  1  0
M  END
>  <Compound_ID>  (496) 
CHEMBL14014

>  <Molecule Name>  (496) 
nan

>  <Molecular Weight>  (496) 
433.46

>  <AlogP>  (496) 
5.00

>  <Smiles>  (496) 
Fc1ccc(-c2ncn(C3CCNCC3)c2-c2ccnc(Oc3cccc(F)c3)n2)cc1

>  <Standard Type>  (496) 
Inhibition

>  <Standard Relation>  (496) 
'='

>  <Standard Units>  (496) 
%

>  <Standard Value>  (496) 
9.18

>  <Assay ChEMBL ID>  (496) 
CHEMBL1962142

>  <Assay Description>  (496) 
GSK_PKIS: MET mean inhibition at 0.1 uM [Nanosyn]

>  <BAO Format ID>  (496) 
BAO_0000357

>  <BAO Label>  (496) 
single protein format

>  <Assay Organism>  (496) 
None

>  <Target ChEMBL ID>  (496) 
CHEMBL3717

>  <Target Name>  (496) 
Hepatocyte growth factor receptor

>  <Target Organism>  (496) 
Homo sapiens

>  <Target Type>  (496) 
SINGLE PROTEIN

>  <Document ChEMBL ID>  (496) 
CHEMBL1961873

>  <Source Description>  (496) 
GSK Published Kinase Inhibitor Set

>  <Document Journal>  (496) 
nan

>  <Document Year>  (496) 
nan

>  <Active>  (496) 
0.0

$$$$

     RDKit          2D

 37 42  0  0  0  0  0  0  0  0999 V2000
   -7.2258  -12.0188    0.0000 C   0  0  0  0  0  0  0  0  0  0  0  0
   -6.1111  -11.0151    0.0000 C   0  0  0  0  0  0  0  0  0  0  0  0
   -4.6845  -11.4787    0.0000 C   0  0  0  0  0  0  0  0  0  0  0  0
   -3.5698  -10.4750    0.0000 C   0  0  0  0  0  0  0  0  0  0  0  0
   -3.8817   -9.0078    0.0000 C   0  0  0  0  0  0  0  0  0  0  0  0
   -3.0000   -7.7942    0.0000 C   0  0  0  0  0  0  0  0  0  0  0  0
   -1.5000   -7.7942    0.0000 C   0  0  0  0  0  0  0  0  0  0  0  0
   -0.7500   -6.4952    0.0000 C   0  0  0  0  0  0  0  0  0  0  0  0
    0.7500   -6.4952    0.0000 C   0  0  0  0  0  0  0  0  0  0  0  0
    1.5000   -7.7942    0.0000 N   0  0  0  0  0  0  0  0  0  0  0  0
    0.7500   -9.0933    0.0000 C   0  0  0  0  0  0  0  0  0  0  0  0
    1.5000  -10.3923    0.0000 N   0  0  0  0  0  0  0  0  0  0  0  0
    0.7500  -11.6913    0.0000 C   0  0  0  0  0  0  0  0  0  0  0  0
   -0.7500  -11.6913    0.0000 C   0  0  0  0  0  0  0  0  0  0  0  0
   -1.5000  -12.9904    0.0000 C   0  0  0  0  0  0  0  0  0  0  0  0
   -0.7500  -14.2894    0.0000 C   0  0  0  0  0  0  0  0  0  0  0  0
    0.7500  -14.2894    0.0000 C   0  0  0  0  0  0  0  0  0  0  0  0
    1.5000  -12.9904    0.0000 C   0  0  0  0  0  0  0  0  0  0  0  0
    1.5000  -15.5885    0.0000 O   0  0  0  0  0  0  0  0  0  0  0  0
    0.7500  -16.8875    0.0000 C   0  0  0  0  0  0  0  0  0  0  0  0
   -0.7500  -16.8875    0.0000 C   0  0  0  0  0  0  0  0  0  0  0  0
   -1.5000  -15.5885    0.0000 O   0  0  0  0  0  0  0  0  0  0  0  0
   -0.7500   -9.0933    0.0000 N   0  0  0  0  0  0  0  0  0  0  0  0
   -3.8817   -6.5807    0.0000 C   0  0  0  0  0  0  0  0  0  0  0  0
   -3.4182   -5.1541    0.0000 C   0  0  0  0  0  0  0  0  0  0  0  0
   -1.9509   -4.8423    0.0000 C   0  0  0  0  0  0  0  0  0  0  0  0
   -1.4874   -3.4157    0.0000 C   0  0  0  0  0  0  0  0  0  0  0  0
   -2.4911   -2.3009    0.0000 C   0  0  0  0  0  0  0  0  0  0  0  0
   -2.0276   -0.8744    0.0000 C   0  0  0  0  0  0  0  0  0  0  0  0
   -1.5641    0.5522    0.0000 F   0  0  0  0  0  0  0  0  0  0  0  0
   -3.4542   -0.4108    0.0000 F   0  0  0  0  0  0  0  0  0  0  0  0
   -0.6010   -1.3379    0.0000 F   0  0  0  0  0  0  0  0  0  0  0  0
   -3.9583   -2.6128    0.0000 C   0  0  0  0  0  0  0  0  0  0  0  0
   -4.4218   -4.0394    0.0000 C   0  0  0  0  0  0  0  0  0  0  0  0
   -5.3083   -7.0442    0.0000 N   0  0  0  0  0  0  0  0  0  0  0  0
   -5.3083   -8.5442    0.0000 N   0  0  0  0  0  0  0  0  0  0  0  0
   -6.4230   -9.5479    0.0000 N   0  0  0  0  0  0  0  0  0  0  0  0
  1  2  1  0
  2  3  1  0
  3  4  2  0
  4  5  1  0
  5  6  2  0
  6  7  1  0
  7  8  2  0
  8  9  1  0
  9 10  2  0
 10 11  1  0
 11 12  1  0
 12 13  1  0
 13 14  2  0
 14 15  1  0
 15 16  2  0
 16 17  1  0
 17 18  2  0
 17 19  1  0
 19 20  1  0
 20 21  1  0
 21 22  1  0
 11 23  2  0
  6 24  1  0
 24 25  1  0
 25 26  2  0
 26 27  1  0
 27 28  2  0
 28 29  1  0
 29 30  1  0
 29 31  1  0
 29 32  1  0
 28 33  1  0
 33 34  2  0
 24 35  2  0
 35 36  1  0
 36 37  1  0
 37  2  2  0
 36  5  1  0
 23  7  1  0
 34 25  1  0
 18 13  1  0
 22 16  1  0
M  END
>  <Compound_ID>  (497) 
CHEMBL188247

>  <Molecule Name>  (497) 
GW832467X

>  <Molecular Weight>  (497) 
504.47

>  <AlogP>  (497) 
5.70

>  <Smiles>  (497) 
Cc1ccc2c(-c3ccnc(Nc4ccc5c(c4)OCCO5)n3)c(-c3ccc(C(F)(F)F)cc3)nn2n1

>  <Standard Type>  (497) 
Inhibition

>  <Standard Relation>  (497) 
'='

>  <Standard Units>  (497) 
%

>  <Standard Value>  (497) 
1.74

>  <Assay ChEMBL ID>  (497) 
CHEMBL1962143

>  <Assay Description>  (497) 
GSK_PKIS: MET mean inhibition at 1 uM [Nanosyn]

>  <BAO Format ID>  (497) 
BAO_0000357

>  <BAO Label>  (497) 
single protein format

>  <Assay Organism>  (497) 
None

>  <Target ChEMBL ID>  (497) 
CHEMBL3717

>  <Target Name>  (497) 
Hepatocyte growth factor receptor

>  <Target Organism>  (497) 
Homo sapiens

>  <Target Type>  (497) 
SINGLE PROTEIN

>  <Document ChEMBL ID>  (497) 
CHEMBL1961873

>  <Source Description>  (497) 
GSK Published Kinase Inhibitor Set

>  <Document Journal>  (497) 
nan

>  <Document Year>  (497) 
nan

>  <Active>  (497) 
0.0

$$$$

     RDKit          2D

 32 36  0  0  0  0  0  0  0  0999 V2000
    3.0000    0.0000    0.0000 F   0  0  0  0  0  0  0  0  0  0  0  0
    1.5000    0.0000    0.0000 C   0  0  0  0  0  0  0  0  0  0  0  0
    0.7500   -1.2990    0.0000 C   0  0  0  0  0  0  0  0  0  0  0  0
   -0.7500   -1.2990    0.0000 C   0  0  0  0  0  0  0  0  0  0  0  0
   -1.5000    0.0000    0.0000 C   0  0  0  0  0  0  0  0  0  0  0  0
   -3.0000    0.0000    0.0000 C   0  0  0  0  0  0  0  0  0  0  0  0
   -3.8817   -1.2135    0.0000 N   0  0  0  0  0  0  0  0  0  0  0  0
   -5.3083   -0.7500    0.0000 C   0  0  0  0  0  0  0  0  0  0  0  0
   -5.3083    0.7500    0.0000 N   0  0  0  0  0  0  0  0  0  0  0  0
   -6.5218    1.6317    0.0000 C   0  0  0  0  0  0  0  0  0  0  0  0
   -6.3650    3.1235    0.0000 C   0  0  0  0  0  0  0  0  0  0  0  0
   -7.5785    4.0051    0.0000 C   0  0  0  0  0  0  0  0  0  0  0  0
   -8.9488    3.3950    0.0000 N   0  0  0  0  0  0  0  0  0  0  0  0
   -9.1056    1.9033    0.0000 C   0  0  0  0  0  0  0  0  0  0  0  0
   -7.8921    1.0216    0.0000 C   0  0  0  0  0  0  0  0  0  0  0  0
   -3.8817    1.2135    0.0000 C   0  0  0  0  0  0  0  0  0  0  0  0
   -3.4182    2.6401    0.0000 C   0  0  0  0  0  0  0  0  0  0  0  0
   -1.9509    2.9520    0.0000 C   0  0  0  0  0  0  0  0  0  0  0  0
   -1.4874    4.3786    0.0000 C   0  0  0  0  0  0  0  0  0  0  0  0
   -2.4911    5.4933    0.0000 N   0  0  0  0  0  0  0  0  0  0  0  0
   -3.9583    5.1814    0.0000 C   0  0  0  0  0  0  0  0  0  0  0  0
   -4.9620    6.2961    0.0000 O   0  0  0  0  0  0  0  0  0  0  0  0
   -4.4985    7.7227    0.0000 C   0  0  0  0  0  0  0  0  0  0  0  0
   -3.0313    8.0346    0.0000 C   0  0  0  0  0  0  0  0  0  0  0  0
   -2.5677    9.4612    0.0000 C   0  0  0  0  0  0  0  0  0  0  0  0
   -3.5714   10.5759    0.0000 C   0  0  0  0  0  0  0  0  0  0  0  0
   -3.1079   12.0025    0.0000 Cl  0  0  0  0  0  0  0  0  0  0  0  0
   -5.0387   10.2640    0.0000 C   0  0  0  0  0  0  0  0  0  0  0  0
   -5.5022    8.8374    0.0000 C   0  0  0  0  0  0  0  0  0  0  0  0
   -4.4218    3.7548    0.0000 N   0  0  0  0  0  0  0  0  0  0  0  0
   -0.7500    1.2990    0.0000 C   0  0  0  0  0  0  0  0  0  0  0  0
    0.7500    1.2990    0.0000 C   0  0  0  0  0  0  0  0  0  0  0  0
  1  2  1  0
  2  3  2  0
  3  4  1  0
  4  5  2  0
  5  6  1  0
  6  7  1  0
  7  8  2  0
  8  9  1  0
  9 10  1  0
 10 11  1  0
 11 12  1  0
 12 13  1  0
 13 14  1  0
 14 15  1  0
  9 16  1  0
 16 17  1  0
 17 18  2  0
 18 19  1  0
 19 20  2  0
 20 21  1  0
 21 22  1  0
 22 23  1  0
 23 24  2  0
 24 25  1  0
 25 26  2  0
 26 27  1  0
 26 28  1  0
 28 29  2  0
 21 30  2  0
  5 31  1  0
 31 32  2  0
 32  2  1  0
 16  6  2  0
 30 17  1  0
 15 10  1  0
 29 23  1  0
M  END
>  <Compound_ID>  (498) 
CHEMBL275168

>  <Molecule Name>  (498) 
nan

>  <Molecular Weight>  (498) 
449.92

>  <AlogP>  (498) 
5.52

>  <Smiles>  (498) 
Fc1ccc(-c2ncn(C3CCNCC3)c2-c2ccnc(Oc3ccc(Cl)cc3)n2)cc1

>  <Standard Type>  (498) 
Inhibition

>  <Standard Relation>  (498) 
'='

>  <Standard Units>  (498) 
%

>  <Standard Value>  (498) 
-0.9

>  <Assay ChEMBL ID>  (498) 
CHEMBL1962143

>  <Assay Description>  (498) 
GSK_PKIS: MET mean inhibition at 1 uM [Nanosyn]

>  <BAO Format ID>  (498) 
BAO_0000357

>  <BAO Label>  (498) 
single protein format

>  <Assay Organism>  (498) 
None

>  <Target ChEMBL ID>  (498) 
CHEMBL3717

>  <Target Name>  (498) 
Hepatocyte growth factor receptor

>  <Target Organism>  (498) 
Homo sapiens

>  <Target Type>  (498) 
SINGLE PROTEIN

>  <Document ChEMBL ID>  (498) 
CHEMBL1961873

>  <Source Description>  (498) 
GSK Published Kinase Inhibitor Set

>  <Document Journal>  (498) 
nan

>  <Document Year>  (498) 
nan

>  <Active>  (498) 
0.0

$$$$

     RDKit          2D

 32 35  0  0  0  0  0  0  0  0999 V2000
   -2.5981   -8.1073    0.0000 C   0  0  0  0  0  0  0  0  0  0  0  0
   -1.2990   -7.3573    0.0000 O   0  0  0  0  0  0  0  0  0  0  0  0
   -1.2990   -5.8573    0.0000 C   0  0  0  0  0  0  0  0  0  0  0  0
   -2.5981   -5.1073    0.0000 O   0  0  0  0  0  0  0  0  0  0  0  0
   -0.0000   -5.1073    0.0000 N   0  0  0  0  0  0  0  0  0  0  0  0
   -0.0000   -3.6073    0.0000 C   0  0  0  0  0  0  0  0  0  0  0  0
    1.2135   -2.7256    0.0000 N   0  0  0  0  0  0  0  0  0  0  0  0
    0.7500   -1.2990    0.0000 C   0  0  0  0  0  0  0  0  0  0  0  0
    1.5000    0.0000    0.0000 C   0  0  0  0  0  0  0  0  0  0  0  0
    0.7500    1.2990    0.0000 C   0  0  0  0  0  0  0  0  0  0  0  0
   -0.7500    1.2990    0.0000 C   0  0  0  0  0  0  0  0  0  0  0  0
   -1.5000    2.5981    0.0000 O   0  0  0  0  0  0  0  0  0  0  0  0
   -0.7500    3.8971    0.0000 C   0  0  0  0  0  0  0  0  0  0  0  0
    0.7500    3.8971    0.0000 C   0  0  0  0  0  0  0  0  0  0  0  0
    1.5000    5.1962    0.0000 C   0  0  0  0  0  0  0  0  0  0  0  0
    0.7500    6.4952    0.0000 C   0  0  0  0  0  0  0  0  0  0  0  0
    1.5000    7.7942    0.0000 N   0  0  0  0  0  0  0  0  0  0  0  0
    3.0000    7.7942    0.0000 C   0  0  0  0  0  0  0  0  0  0  0  0
    3.7500    6.4952    0.0000 O   0  0  0  0  0  0  0  0  0  0  0  0
    3.7500    9.0933    0.0000 N   0  0  0  0  0  0  0  0  0  0  0  0
    5.2500    9.0933    0.0000 C   0  0  0  0  0  0  0  0  0  0  0  0
    6.0000    7.7942    0.0000 C   0  0  0  0  0  0  0  0  0  0  0  0
    7.5000    7.7942    0.0000 C   0  0  0  0  0  0  0  0  0  0  0  0
    8.2500    9.0933    0.0000 C   0  0  0  0  0  0  0  0  0  0  0  0
    7.5000   10.3923    0.0000 C   0  0  0  0  0  0  0  0  0  0  0  0
    8.2500   11.6913    0.0000 Cl  0  0  0  0  0  0  0  0  0  0  0  0
    6.0000   10.3923    0.0000 C   0  0  0  0  0  0  0  0  0  0  0  0
   -0.7500    6.4952    0.0000 C   0  0  0  0  0  0  0  0  0  0  0  0
   -1.5000    5.1962    0.0000 C   0  0  0  0  0  0  0  0  0  0  0  0
   -1.5000    0.0000    0.0000 C   0  0  0  0  0  0  0  0  0  0  0  0
   -0.7500   -1.2990    0.0000 C   0  0  0  0  0  0  0  0  0  0  0  0
   -1.2135   -2.7256    0.0000 N   0  0  0  0  0  0  0  0  0  0  0  0
  1  2  1  0
  2  3  1  0
  3  4  2  0
  3  5  1  0
  5  6  1  0
  6  7  2  0
  7  8  1  0
  8  9  2  0
  9 10  1  0
 10 11  2  0
 11 12  1  0
 12 13  1  0
 13 14  2  0
 14 15  1  0
 15 16  2  0
 16 17  1  0
 17 18  1  0
 18 19  2  0
 18 20  1  0
 20 21  1  0
 21 22  2  0
 22 23  1  0
 23 24  2  0
 24 25  1  0
 25 26  1  0
 25 27  2  0
 16 28  1  0
 28 29  2  0
 11 30  1  0
 30 31  2  0
 31 32  1  0
 32  6  1  0
 31  8  1  0
 29 13  1  0
 27 21  1  0
M  END
>  <Compound_ID>  (499) 
CHEMBL1909364

>  <Molecule Name>  (499) 
GW589961A

>  <Molecular Weight>  (499) 
488.33

>  <AlogP>  (499) 
5.83

>  <Smiles>  (499) 
COC(=O)Nc1nc2ccc(Oc3ccc(NC(=O)Nc4cccc(Cl)c4)cc3)cc2[nH]1

>  <Standard Type>  (499) 
Inhibition

>  <Standard Relation>  (499) 
'='

>  <Standard Units>  (499) 
%

>  <Standard Value>  (499) 
12.34

>  <Assay ChEMBL ID>  (499) 
CHEMBL1962143

>  <Assay Description>  (499) 
GSK_PKIS: MET mean inhibition at 1 uM [Nanosyn]

>  <BAO Format ID>  (499) 
BAO_0000357

>  <BAO Label>  (499) 
single protein format

>  <Assay Organism>  (499) 
None

>  <Target ChEMBL ID>  (499) 
CHEMBL3717

>  <Target Name>  (499) 
Hepatocyte growth factor receptor

>  <Target Organism>  (499) 
Homo sapiens

>  <Target Type>  (499) 
SINGLE PROTEIN

>  <Document ChEMBL ID>  (499) 
CHEMBL1961873

>  <Source Description>  (499) 
GSK Published Kinase Inhibitor Set

>  <Document Journal>  (499) 
nan

>  <Document Year>  (499) 
nan

>  <Active>  (499) 
0.0

$$$$

     RDKit          2D

 24 27  0  0  0  0  0  0  0  0999 V2000
    1.2990   -5.9462    0.0000 O   0  0  0  0  0  0  0  0  0  0  0  0
   -0.0000   -5.1962    0.0000 S   0  0  0  0  0  0  0  0  0  0  0  0
   -1.2990   -4.4462    0.0000 O   0  0  0  0  0  0  0  0  0  0  0  0
   -0.7500   -6.4952    0.0000 C   0  0  0  0  0  0  0  0  0  0  0  0
   -2.2500   -6.4952    0.0000 C   0  0  0  0  0  0  0  0  0  0  0  0
   -3.0000   -7.7942    0.0000 C   0  0  0  0  0  0  0  0  0  0  0  0
   -2.2500   -9.0933    0.0000 C   0  0  0  0  0  0  0  0  0  0  0  0
   -0.7500   -9.0933    0.0000 C   0  0  0  0  0  0  0  0  0  0  0  0
   -0.0000  -10.3923    0.0000 C   0  0  0  0  0  0  0  0  0  0  0  0
    1.5000  -10.3923    0.0000 N   0  0  0  0  0  0  0  0  0  0  0  0
    2.2500   -9.0933    0.0000 C   0  0  0  0  0  0  0  0  0  0  0  0
    1.5000   -7.7942    0.0000 C   0  0  0  0  0  0  0  0  0  0  0  0
   -0.0000   -7.7942    0.0000 C   0  0  0  0  0  0  0  0  0  0  0  0
    0.7500   -3.8971    0.0000 N   0  0  0  0  0  0  0  0  0  0  0  0
    2.2500   -3.8971    0.0000 C   0  0  0  0  0  0  0  0  0  0  0  0
    3.0000   -2.5981    0.0000 C   0  0  0  0  0  0  0  0  0  0  0  0
    2.2500   -1.2990    0.0000 C   0  0  0  0  0  0  0  0  0  0  0  0
    0.7500   -1.2990    0.0000 C   0  0  0  0  0  0  0  0  0  0  0  0
    1.5000    0.0000    0.0000 C   0  0  0  0  0  0  0  0  0  0  0  0
    0.7500    1.2990    0.0000 C   0  0  0  0  0  0  0  0  0  0  0  0
   -0.7500    1.2990    0.0000 N   0  0  0  0  0  0  0  0  0  0  0  0
   -1.5000    0.0000    0.0000 C   0  0  0  0  0  0  0  0  0  0  0  0
   -0.7500   -1.2990    0.0000 C   0  0  0  0  0  0  0  0  0  0  0  0
   -0.0000   -2.5981    0.0000 C   0  0  0  0  0  0  0  0  0  0  0  0
  1  2  2  0
  2  3  2  0
  2  4  1  0
  4  5  2  0
  5  6  1  0
  6  7  2  0
  7  8  1  0
  8  9  2  0
  9 10  1  0
 10 11  2  0
 11 12  1  0
 12 13  2  0
  2 14  1  0
 14 15  1  0
 15 16  1  0
 16 17  1  0
 17 18  1  0
 18 19  1  0
 19 20  1  0
 20 21  1  0
 21 22  1  0
 22 23  1  0
 18 24  1  0
 13  4  1  0
 24 14  1  0
 13  8  1  0
 23 18  1  0
M  END
>  <Compound_ID>  (500) 
CHEMBL2420921

>  <Molecule Name>  (500) 
nan

>  <Molecular Weight>  (500) 
345.47

>  <AlogP>  (500) 
2.39

>  <Smiles>  (500) 
O=S(=O)(c1cccc2cnccc12)N1CCCC2(CCNCC2)C1

>  <Standard Type>  (500) 
Inhibition

>  <Standard Relation>  (500) 
'='

>  <Standard Units>  (500) 
%

>  <Standard Value>  (500) 
14.0

>  <Assay ChEMBL ID>  (500) 
CHEMBL2424318

>  <Assay Description>  (500) 
Inhibition of MET (unknown origin) at 30 uM by microfluidic mobility shift assay relative to control

>  <BAO Format ID>  (500) 
BAO_0000357

>  <BAO Label>  (500) 
single protein format

>  <Assay Organism>  (500) 
Homo sapiens

>  <Target ChEMBL ID>  (500) 
CHEMBL3717

>  <Target Name>  (500) 
Hepatocyte growth factor receptor

>  <Target Organism>  (500) 
Homo sapiens

>  <Target Type>  (500) 
SINGLE PROTEIN

>  <Document ChEMBL ID>  (500) 
CHEMBL2417369

>  <Source Description>  (500) 
Scientific Literature

>  <Document Journal>  (500) 
Bioorg Med Chem

>  <Document Year>  (500) 
2013.0

>  <Active>  (500) 
0.0

$$$$

     RDKit          2D

 38 42  0  0  0  0  0  0  0  0999 V2000
   -6.2940    7.2357    0.0000 C   0  0  0  0  0  0  0  0  0  0  0  0
   -5.1793    6.2320    0.0000 O   0  0  0  0  0  0  0  0  0  0  0  0
   -3.7527    6.6955    0.0000 C   0  0  0  0  0  0  0  0  0  0  0  0
   -3.4408    8.1628    0.0000 C   0  0  0  0  0  0  0  0  0  0  0  0
   -2.0143    8.6263    0.0000 C   0  0  0  0  0  0  0  0  0  0  0  0
   -1.7024   10.0935    0.0000 N   0  0  0  0  0  0  0  0  0  0  0  0
   -0.2758   10.5570    0.0000 C   0  0  0  0  0  0  0  0  0  0  0  0
    0.0361   12.0242    0.0000 C   0  0  0  0  0  0  0  0  0  0  0  0
   -1.0786   13.0279    0.0000 N   0  0  0  0  0  0  0  0  0  0  0  0
   -0.7668   14.4952    0.0000 C   0  0  0  0  0  0  0  0  0  0  0  0
    0.6598   14.9587    0.0000 C   0  0  0  0  0  0  0  0  0  0  0  0
   -1.8815   15.4989    0.0000 C   0  0  0  0  0  0  0  0  0  0  0  0
   -2.5052   12.5644    0.0000 C   0  0  0  0  0  0  0  0  0  0  0  0
   -2.8171   11.0972    0.0000 C   0  0  0  0  0  0  0  0  0  0  0  0
   -0.8995    7.6226    0.0000 C   0  0  0  0  0  0  0  0  0  0  0  0
   -1.2114    6.1554    0.0000 C   0  0  0  0  0  0  0  0  0  0  0  0
   -2.6380    5.6918    0.0000 C   0  0  0  0  0  0  0  0  0  0  0  0
   -2.9499    4.2246    0.0000 N   0  0  0  0  0  0  0  0  0  0  0  0
   -1.8351    3.2209    0.0000 C   0  0  0  0  0  0  0  0  0  0  0  0
   -0.4086    3.6844    0.0000 N   0  0  0  0  0  0  0  0  0  0  0  0
    0.7062    2.6807    0.0000 C   0  0  0  0  0  0  0  0  0  0  0  0
    2.1328    3.1443    0.0000 N   0  0  0  0  0  0  0  0  0  0  0  0
    2.4446    4.6115    0.0000 C   0  0  0  0  0  0  0  0  0  0  0  0
    1.3299    5.6152    0.0000 C   0  0  0  0  0  0  0  0  0  0  0  0
    1.6418    7.0824    0.0000 C   0  0  0  0  0  0  0  0  0  0  0  0
    3.0684    7.5459    0.0000 C   0  0  0  0  0  0  0  0  0  0  0  0
    3.3802    9.0132    0.0000 F   0  0  0  0  0  0  0  0  0  0  0  0
    4.1831    6.5422    0.0000 C   0  0  0  0  0  0  0  0  0  0  0  0
    3.8712    5.0750    0.0000 C   0  0  0  0  0  0  0  0  0  0  0  0
    4.9859    4.0713    0.0000 C   0  0  0  0  0  0  0  0  0  0  0  0
    6.4125    4.5348    0.0000 N   0  0  0  0  0  0  0  0  0  0  0  0
    4.6741    2.6041    0.0000 O   0  0  0  0  0  0  0  0  0  0  0  0
    0.3943    1.2135    0.0000 C   0  0  0  0  0  0  0  0  0  0  0  0
    1.2760    0.0000    0.0000 C   0  0  0  0  0  0  0  0  0  0  0  0
    0.3943   -1.2135    0.0000 C   0  0  0  0  0  0  0  0  0  0  0  0
   -1.0323   -0.7500    0.0000 N   0  0  0  0  0  0  0  0  0  0  0  0
   -1.0323    0.7500    0.0000 C   0  0  0  0  0  0  0  0  0  0  0  0
   -2.1470    1.7537    0.0000 N   0  0  0  0  0  0  0  0  0  0  0  0
  1  2  1  0
  2  3  1  0
  3  4  2  0
  4  5  1  0
  5  6  1  0
  6  7  1  0
  7  8  1  0
  8  9  1  0
  9 10  1  0
 10 11  1  0
 10 12  1  0
  9 13  1  0
 13 14  1  0
  5 15  2  0
 15 16  1  0
 16 17  2  0
 17 18  1  0
 18 19  1  0
 19 20  2  0
 20 21  1  0
 21 22  1  0
 22 23  1  0
 23 24  2  0
 24 25  1  0
 25 26  2  0
 26 27  1  0
 26 28  1  0
 28 29  2  0
 29 30  1  0
 30 31  1  0
 30 32  2  0
 21 33  2  0
 33 34  1  0
 34 35  2  0
 35 36  1  0
 36 37  1  0
 37 38  2  0
 17  3  1  0
 38 19  1  0
 14  6  1  0
 29 23  1  0
 37 33  1  0
M  END
>  <Compound_ID>  (501) 
CHEMBL458865

>  <Molecule Name>  (501) 
GSK-1220512A

>  <Molecular Weight>  (501) 
518.60

>  <AlogP>  (501) 
4.22

>  <Smiles>  (501) 
COc1cc(N2CCN(C(C)C)CC2)ccc1Nc1nc(Nc2ccc(F)cc2C(N)=O)c2cc[nH]c2n1

>  <Standard Type>  (501) 
Inhibition

>  <Standard Relation>  (501) 
'='

>  <Standard Units>  (501) 
%

>  <Standard Value>  (501) 
7.18

>  <Assay ChEMBL ID>  (501) 
CHEMBL1962142

>  <Assay Description>  (501) 
GSK_PKIS: MET mean inhibition at 0.1 uM [Nanosyn]

>  <BAO Format ID>  (501) 
BAO_0000357

>  <BAO Label>  (501) 
single protein format

>  <Assay Organism>  (501) 
None

>  <Target ChEMBL ID>  (501) 
CHEMBL3717

>  <Target Name>  (501) 
Hepatocyte growth factor receptor

>  <Target Organism>  (501) 
Homo sapiens

>  <Target Type>  (501) 
SINGLE PROTEIN

>  <Document ChEMBL ID>  (501) 
CHEMBL1961873

>  <Source Description>  (501) 
GSK Published Kinase Inhibitor Set

>  <Document Journal>  (501) 
nan

>  <Document Year>  (501) 
nan

>  <Active>  (501) 
0.0

$$$$

     RDKit          2D

 21 24  0  0  0  0  0  0  0  0999 V2000
   -1.8373   -5.6601    0.0000 O   0  0  0  0  0  0  0  0  0  0  0  0
   -2.9520   -4.6564    0.0000 C   0  0  0  0  0  0  0  0  0  0  0  0
   -2.6401   -3.1891    0.0000 N   0  0  0  0  0  0  0  0  0  0  0  0
   -1.2135   -2.7256    0.0000 C   0  0  0  0  0  0  0  0  0  0  0  0
   -0.0000   -3.6073    0.0000 N   0  0  0  0  0  0  0  0  0  0  0  0
    1.2135   -2.7256    0.0000 N   0  0  0  0  0  0  0  0  0  0  0  0
    0.7500   -1.2990    0.0000 C   0  0  0  0  0  0  0  0  0  0  0  0
    1.5000    0.0000    0.0000 C   0  0  0  0  0  0  0  0  0  0  0  0
    0.7500    1.2990    0.0000 C   0  0  0  0  0  0  0  0  0  0  0  0
    1.5000    2.5981    0.0000 C   0  0  0  0  0  0  0  0  0  0  0  0
    3.0000    2.5981    0.0000 C   0  0  0  0  0  0  0  0  0  0  0  0
    3.7500    3.8971    0.0000 C   0  0  0  0  0  0  0  0  0  0  0  0
    3.0000    5.1962    0.0000 C   0  0  0  0  0  0  0  0  0  0  0  0
    1.5000    5.1962    0.0000 C   0  0  0  0  0  0  0  0  0  0  0  0
    0.7500    3.8971    0.0000 C   0  0  0  0  0  0  0  0  0  0  0  0
   -0.7500    1.2990    0.0000 C   0  0  0  0  0  0  0  0  0  0  0  0
   -1.5000    0.0000    0.0000 C   0  0  0  0  0  0  0  0  0  0  0  0
   -0.7500   -1.2990    0.0000 C   0  0  0  0  0  0  0  0  0  0  0  0
   -4.3786   -5.1199    0.0000 C   0  0  0  0  0  0  0  0  0  0  0  0
   -5.3823   -6.2346    0.0000 C   0  0  0  0  0  0  0  0  0  0  0  0
   -5.8458   -4.8080    0.0000 C   0  0  0  0  0  0  0  0  0  0  0  0
  1  2  2  0
  2  3  1  0
  3  4  1  0
  4  5  2  0
  5  6  1  0
  6  7  1  0
  7  8  2  0
  8  9  1  0
  9 10  1  0
 10 11  2  0
 11 12  1  0
 12 13  2  0
 13 14  1  0
 14 15  2  0
  9 16  2  0
 16 17  1  0
 17 18  2  0
  2 19  1  0
 19 20  1  0
 20 21  1  0
 18  4  1  0
 21 19  1  0
 18  7  1  0
 15 10  1  0
M  END
>  <Compound_ID>  (502) 
CHEMBL405021

>  <Molecule Name>  (502) 
nan

>  <Molecular Weight>  (502) 
277.33

>  <AlogP>  (502) 
3.58

>  <Smiles>  (502) 
O=C(Nc1n[nH]c2cc(-c3ccccc3)ccc12)C1CC1

>  <Standard Type>  (502) 
Inhibition

>  <Standard Relation>  (502) 
'='

>  <Standard Units>  (502) 
%

>  <Standard Value>  (502) 
5.86

>  <Assay ChEMBL ID>  (502) 
CHEMBL1962143

>  <Assay Description>  (502) 
GSK_PKIS: MET mean inhibition at 1 uM [Nanosyn]

>  <BAO Format ID>  (502) 
BAO_0000357

>  <BAO Label>  (502) 
single protein format

>  <Assay Organism>  (502) 
None

>  <Target ChEMBL ID>  (502) 
CHEMBL3717

>  <Target Name>  (502) 
Hepatocyte growth factor receptor

>  <Target Organism>  (502) 
Homo sapiens

>  <Target Type>  (502) 
SINGLE PROTEIN

>  <Document ChEMBL ID>  (502) 
CHEMBL1961873

>  <Source Description>  (502) 
GSK Published Kinase Inhibitor Set

>  <Document Journal>  (502) 
nan

>  <Document Year>  (502) 
nan

>  <Active>  (502) 
0.0

$$$$

     RDKit          2D

 21 23  0  0  0  0  0  0  0  0999 V2000
   -6.7407   -9.9851    0.0000 F   0  0  0  0  0  0  0  0  0  0  0  0
   -6.4289   -8.5179    0.0000 C   0  0  0  0  0  0  0  0  0  0  0  0
   -7.8961   -8.2060    0.0000 F   0  0  0  0  0  0  0  0  0  0  0  0
   -4.9617   -8.8297    0.0000 F   0  0  0  0  0  0  0  0  0  0  0  0
   -6.1170   -7.0506    0.0000 C   0  0  0  0  0  0  0  0  0  0  0  0
   -4.6904   -6.5871    0.0000 N   0  0  0  0  0  0  0  0  0  0  0  0
   -4.3786   -5.1199    0.0000 C   0  0  0  0  0  0  0  0  0  0  0  0
   -5.4933   -4.1162    0.0000 N   0  0  0  0  0  0  0  0  0  0  0  0
   -5.1814   -2.6490    0.0000 C   0  0  0  0  0  0  0  0  0  0  0  0
   -3.7548   -2.1855    0.0000 C   0  0  0  0  0  0  0  0  0  0  0  0
   -2.6401   -3.1891    0.0000 C   0  0  0  0  0  0  0  0  0  0  0  0
   -1.2135   -2.7256    0.0000 C   0  0  0  0  0  0  0  0  0  0  0  0
   -0.0000   -3.6073    0.0000 C   0  0  0  0  0  0  0  0  0  0  0  0
    1.2135   -2.7256    0.0000 N   0  0  0  0  0  0  0  0  0  0  0  0
    0.7500   -1.2990    0.0000 N   0  0  0  0  0  0  0  0  0  0  0  0
    1.5000    0.0000    0.0000 N   0  0  0  0  0  0  0  0  0  0  0  0
    0.7500    1.2990    0.0000 C   0  0  0  0  0  0  0  0  0  0  0  0
   -0.7500    1.2990    0.0000 C   0  0  0  0  0  0  0  0  0  0  0  0
   -1.5000    0.0000    0.0000 C   0  0  0  0  0  0  0  0  0  0  0  0
   -0.7500   -1.2990    0.0000 C   0  0  0  0  0  0  0  0  0  0  0  0
   -2.9520   -4.6564    0.0000 N   0  0  0  0  0  0  0  0  0  0  0  0
  1  2  1  0
  2  3  1  0
  2  4  1  0
  2  5  1  0
  5  6  1  0
  6  7  1  0
  7  8  2  0
  8  9  1  0
  9 10  2  0
 10 11  1  0
 11 12  1  0
 12 13  1  0
 13 14  2  0
 14 15  1  0
 15 16  1  0
 16 17  2  0
 17 18  1  0
 18 19  2  0
 19 20  1  0
 11 21  2  0
 21  7  1  0
 20 12  2  0
 20 15  1  0
M  END
>  <Compound_ID>  (503) 
CHEMBL446024

>  <Molecule Name>  (503) 
GW683003X

>  <Molecular Weight>  (503) 
294.24

>  <AlogP>  (503) 
2.16

>  <Smiles>  (503) 
FC(F)(F)CNc1nccc(-c2cnn3ncccc23)n1

>  <Standard Type>  (503) 
Inhibition

>  <Standard Relation>  (503) 
'='

>  <Standard Units>  (503) 
%

>  <Standard Value>  (503) 
9.54

>  <Assay ChEMBL ID>  (503) 
CHEMBL1962143

>  <Assay Description>  (503) 
GSK_PKIS: MET mean inhibition at 1 uM [Nanosyn]

>  <BAO Format ID>  (503) 
BAO_0000357

>  <BAO Label>  (503) 
single protein format

>  <Assay Organism>  (503) 
None

>  <Target ChEMBL ID>  (503) 
CHEMBL3717

>  <Target Name>  (503) 
Hepatocyte growth factor receptor

>  <Target Organism>  (503) 
Homo sapiens

>  <Target Type>  (503) 
SINGLE PROTEIN

>  <Document ChEMBL ID>  (503) 
CHEMBL1961873

>  <Source Description>  (503) 
GSK Published Kinase Inhibitor Set

>  <Document Journal>  (503) 
nan

>  <Document Year>  (503) 
nan

>  <Active>  (503) 
0.0

$$$$

     RDKit          2D

 32 35  0  0  0  0  0  0  0  0999 V2000
    5.2500    1.2990    0.0000 C   0  0  0  0  0  0  0  0  0  0  0  0
    4.5000    0.0000    0.0000 C   0  0  0  0  0  0  0  0  0  0  0  0
    3.0000    0.0000    0.0000 S   0  0  0  0  0  0  0  0  0  0  0  0
    3.0000    1.5000    0.0000 O   0  0  0  0  0  0  0  0  0  0  0  0
    3.0000   -1.5000    0.0000 O   0  0  0  0  0  0  0  0  0  0  0  0
    1.5000    0.0000    0.0000 C   0  0  0  0  0  0  0  0  0  0  0  0
    0.7500   -1.2990    0.0000 C   0  0  0  0  0  0  0  0  0  0  0  0
   -0.7500   -1.2990    0.0000 C   0  0  0  0  0  0  0  0  0  0  0  0
   -1.5000    0.0000    0.0000 C   0  0  0  0  0  0  0  0  0  0  0  0
   -3.0000    0.0000    0.0000 O   0  0  0  0  0  0  0  0  0  0  0  0
   -3.7500   -1.2990    0.0000 C   0  0  0  0  0  0  0  0  0  0  0  0
   -0.7500    1.2990    0.0000 C   0  0  0  0  0  0  0  0  0  0  0  0
   -1.5000    2.5981    0.0000 N   0  0  0  0  0  0  0  0  0  0  0  0
   -0.7500    3.8971    0.0000 C   0  0  0  0  0  0  0  0  0  0  0  0
   -1.3601    5.2674    0.0000 N   0  0  0  0  0  0  0  0  0  0  0  0
   -0.2454    6.2711    0.0000 C   0  0  0  0  0  0  0  0  0  0  0  0
    1.0537    5.5211    0.0000 C   0  0  0  0  0  0  0  0  0  0  0  0
    2.4240    6.1312    0.0000 C   0  0  0  0  0  0  0  0  0  0  0  0
    3.6375    5.2496    0.0000 C   0  0  0  0  0  0  0  0  0  0  0  0
    5.0078    5.8597    0.0000 C   0  0  0  0  0  0  0  0  0  0  0  0
    5.1646    7.3514    0.0000 C   0  0  0  0  0  0  0  0  0  0  0  0
    3.9511    8.2331    0.0000 C   0  0  0  0  0  0  0  0  0  0  0  0
    4.1079    9.7249    0.0000 C   0  0  0  0  0  0  0  0  0  0  0  0
    5.4782   10.3350    0.0000 C   0  0  0  0  0  0  0  0  0  0  0  0
    5.6350   11.8268    0.0000 C   0  0  0  0  0  0  0  0  0  0  0  0
    4.4215   12.7085    0.0000 C   0  0  0  0  0  0  0  0  0  0  0  0
    3.0511   12.0984    0.0000 C   0  0  0  0  0  0  0  0  0  0  0  0
    2.8943   10.6066    0.0000 C   0  0  0  0  0  0  0  0  0  0  0  0
    1.5240    9.9965    0.0000 F   0  0  0  0  0  0  0  0  0  0  0  0
    2.5808    7.6230    0.0000 C   0  0  0  0  0  0  0  0  0  0  0  0
    0.7418    4.0539    0.0000 O   0  0  0  0  0  0  0  0  0  0  0  0
    0.7500    1.2990    0.0000 C   0  0  0  0  0  0  0  0  0  0  0  0
  1  2  1  0
  2  3  1  0
  3  4  2  0
  3  5  2  0
  3  6  1  0
  6  7  2  0
  7  8  1  0
  8  9  2  0
  9 10  1  0
 10 11  1  0
  9 12  1  0
 12 13  1  0
 13 14  1  0
 14 15  2  0
 15 16  1  0
 16 17  2  0
 17 18  1  0
 18 19  2  0
 19 20  1  0
 20 21  2  0
 21 22  1  0
 22 23  1  0
 23 24  2  0
 24 25  1  0
 25 26  2  0
 26 27  1  0
 27 28  2  0
 28 29  1  0
 22 30  2  0
 17 31  1  0
 12 32  2  0
 32  6  1  0
 31 14  1  0
 30 18  1  0
 28 23  1  0
M  END
>  <Compound_ID>  (504) 
CHEMBL372474

>  <Molecule Name>  (504) 
GW678313X

>  <Molecular Weight>  (504) 
452.51

>  <AlogP>  (504) 
5.69

>  <Smiles>  (504) 
CCS(=O)(=O)c1ccc(OC)c(Nc2ncc(-c3cccc(-c4ccccc4F)c3)o2)c1

>  <Standard Type>  (504) 
Inhibition

>  <Standard Relation>  (504) 
'='

>  <Standard Units>  (504) 
%

>  <Standard Value>  (504) 
3.52

>  <Assay ChEMBL ID>  (504) 
CHEMBL1962143

>  <Assay Description>  (504) 
GSK_PKIS: MET mean inhibition at 1 uM [Nanosyn]

>  <BAO Format ID>  (504) 
BAO_0000357

>  <BAO Label>  (504) 
single protein format

>  <Assay Organism>  (504) 
None

>  <Target ChEMBL ID>  (504) 
CHEMBL3717

>  <Target Name>  (504) 
Hepatocyte growth factor receptor

>  <Target Organism>  (504) 
Homo sapiens

>  <Target Type>  (504) 
SINGLE PROTEIN

>  <Document ChEMBL ID>  (504) 
CHEMBL1961873

>  <Source Description>  (504) 
GSK Published Kinase Inhibitor Set

>  <Document Journal>  (504) 
nan

>  <Document Year>  (504) 
nan

>  <Active>  (504) 
0.0

$$$$

     RDKit          2D

 30 33  0  0  0  0  0  0  0  0999 V2000
   -3.7548   -2.1855    0.0000 C   0  0  0  0  0  0  0  0  0  0  0  0
   -2.6401   -3.1891    0.0000 C   0  0  0  0  0  0  0  0  0  0  0  0
   -1.2135   -2.7256    0.0000 N   0  0  0  0  0  0  0  0  0  0  0  0
   -0.0000   -3.6073    0.0000 C   0  0  0  0  0  0  0  0  0  0  0  0
   -0.0000   -5.1073    0.0000 C   0  0  0  0  0  0  0  0  0  0  0  0
    1.2135   -5.9890    0.0000 N   0  0  0  0  0  0  0  0  0  0  0  0
    0.7500   -7.4156    0.0000 O   0  0  0  0  0  0  0  0  0  0  0  0
   -0.7500   -7.4156    0.0000 N   0  0  0  0  0  0  0  0  0  0  0  0
   -1.2135   -5.9890    0.0000 C   0  0  0  0  0  0  0  0  0  0  0  0
   -2.6401   -5.5255    0.0000 N   0  0  0  0  0  0  0  0  0  0  0  0
    1.2135   -2.7256    0.0000 N   0  0  0  0  0  0  0  0  0  0  0  0
    0.7500   -1.2990    0.0000 C   0  0  0  0  0  0  0  0  0  0  0  0
    1.5000    0.0000    0.0000 C   0  0  0  0  0  0  0  0  0  0  0  0
    3.0000    0.0000    0.0000 C   0  0  0  0  0  0  0  0  0  0  0  0
    4.5000    0.0000    0.0000 C   0  0  0  0  0  0  0  0  0  0  0  0
    6.0000    0.0000    0.0000 C   0  0  0  0  0  0  0  0  0  0  0  0
    6.0000   -1.5000    0.0000 C   0  0  0  0  0  0  0  0  0  0  0  0
    6.0000    1.5000    0.0000 C   0  0  0  0  0  0  0  0  0  0  0  0
    7.5000    0.0000    0.0000 O   0  0  0  0  0  0  0  0  0  0  0  0
    0.7500    1.2990    0.0000 N   0  0  0  0  0  0  0  0  0  0  0  0
   -0.7500    1.2990    0.0000 C   0  0  0  0  0  0  0  0  0  0  0  0
   -1.5000    0.0000    0.0000 C   0  0  0  0  0  0  0  0  0  0  0  0
   -3.0000    0.0000    0.0000 O   0  0  0  0  0  0  0  0  0  0  0  0
   -3.7500    1.2990    0.0000 C   0  0  0  0  0  0  0  0  0  0  0  0
   -3.0000    2.5981    0.0000 C   0  0  0  0  0  0  0  0  0  0  0  0
   -3.7500    3.8971    0.0000 C   0  0  0  0  0  0  0  0  0  0  0  0
   -5.2500    3.8971    0.0000 N   0  0  0  0  0  0  0  0  0  0  0  0
   -6.0000    2.5981    0.0000 C   0  0  0  0  0  0  0  0  0  0  0  0
   -5.2500    1.2990    0.0000 C   0  0  0  0  0  0  0  0  0  0  0  0
   -0.7500   -1.2990    0.0000 C   0  0  0  0  0  0  0  0  0  0  0  0
  1  2  1  0
  2  3  1  0
  3  4  1  0
  4  5  1  0
  5  6  2  0
  6  7  1  0
  7  8  1  0
  8  9  2  0
  9 10  1  0
  4 11  2  0
 11 12  1  0
 12 13  2  0
 13 14  1  0
 14 15  3  0
 15 16  1  0
 16 17  1  0
 16 18  1  0
 16 19  1  0
 13 20  1  0
 20 21  2  0
 21 22  1  0
 22 23  1  0
 23 24  1  0
 24 25  1  0
 25 26  1  0
 26 27  1  0
 27 28  1  0
 28 29  1  0
 22 30  2  0
 30  3  1  0
  9  5  1  0
 30 12  1  0
 29 24  1  0
M  END
>  <Compound_ID>  (505) 
CHEMBL1794066

>  <Molecule Name>  (505) 
GSK-619487A

>  <Molecular Weight>  (505) 
525.49

>  <AlogP>  (505) 
1.34

>  <Smiles>  (505) 
CCn1c(-c2nonc2N)nc2c(C#CC(C)(C)O)ncc(OC3CCNCC3)c21

>  <Standard Type>  (505) 
Inhibition

>  <Standard Relation>  (505) 
'='

>  <Standard Units>  (505) 
%

>  <Standard Value>  (505) 
5.39

>  <Assay ChEMBL ID>  (505) 
CHEMBL1962142

>  <Assay Description>  (505) 
GSK_PKIS: MET mean inhibition at 0.1 uM [Nanosyn]

>  <BAO Format ID>  (505) 
BAO_0000357

>  <BAO Label>  (505) 
single protein format

>  <Assay Organism>  (505) 
None

>  <Target ChEMBL ID>  (505) 
CHEMBL3717

>  <Target Name>  (505) 
Hepatocyte growth factor receptor

>  <Target Organism>  (505) 
Homo sapiens

>  <Target Type>  (505) 
SINGLE PROTEIN

>  <Document ChEMBL ID>  (505) 
CHEMBL1961873

>  <Source Description>  (505) 
GSK Published Kinase Inhibitor Set

>  <Document Journal>  (505) 
nan

>  <Document Year>  (505) 
nan

>  <Active>  (505) 
0.0

$$$$

     RDKit          2D

 26 29  0  0  0  0  0  0  0  0999 V2000
   -6.9771   -5.6725    0.0000 N   0  0  0  0  0  0  0  0  0  0  0  0
   -5.4853   -5.8293    0.0000 C   0  0  0  0  0  0  0  0  0  0  0  0
   -4.8752   -7.1996    0.0000 O   0  0  0  0  0  0  0  0  0  0  0  0
   -4.6036   -4.6157    0.0000 C   0  0  0  0  0  0  0  0  0  0  0  0
   -3.1036   -4.6157    0.0000 S   0  0  0  0  0  0  0  0  0  0  0  0
   -2.6401   -3.1891    0.0000 C   0  0  0  0  0  0  0  0  0  0  0  0
   -1.2135   -2.7256    0.0000 N   0  0  0  0  0  0  0  0  0  0  0  0
   -0.0000   -3.6073    0.0000 C   0  0  0  0  0  0  0  0  0  0  0  0
    1.2135   -2.7256    0.0000 N   0  0  0  0  0  0  0  0  0  0  0  0
    0.7500   -1.2990    0.0000 C   0  0  0  0  0  0  0  0  0  0  0  0
    1.5000    0.0000    0.0000 C   0  0  0  0  0  0  0  0  0  0  0  0
    0.7500    1.2990    0.0000 C   0  0  0  0  0  0  0  0  0  0  0  0
   -0.7500    1.2990    0.0000 C   0  0  0  0  0  0  0  0  0  0  0  0
   -1.5000    0.0000    0.0000 C   0  0  0  0  0  0  0  0  0  0  0  0
   -0.7500   -1.2990    0.0000 C   0  0  0  0  0  0  0  0  0  0  0  0
   -3.8536   -2.3075    0.0000 C   0  0  0  0  0  0  0  0  0  0  0  0
   -5.0672   -3.1891    0.0000 C   0  0  0  0  0  0  0  0  0  0  0  0
   -6.4937   -2.7256    0.0000 O   0  0  0  0  0  0  0  0  0  0  0  0
   -6.8056   -1.2584    0.0000 C   0  0  0  0  0  0  0  0  0  0  0  0
   -8.2322   -0.7949    0.0000 C   0  0  0  0  0  0  0  0  0  0  0  0
   -8.5441    0.6723    0.0000 C   0  0  0  0  0  0  0  0  0  0  0  0
   -9.9707    1.1359    0.0000 C   0  0  0  0  0  0  0  0  0  0  0  0
  -11.0854    0.1322    0.0000 C   0  0  0  0  0  0  0  0  0  0  0  0
  -10.7735   -1.3350    0.0000 C   0  0  0  0  0  0  0  0  0  0  0  0
   -9.3469   -1.7986    0.0000 C   0  0  0  0  0  0  0  0  0  0  0  0
   -9.0350   -3.2658    0.0000 Br  0  0  0  0  0  0  0  0  0  0  0  0
  1  2  1  0
  2  3  2  0
  2  4  1  0
  4  5  1  0
  5  6  1  0
  6  7  1  0
  7  8  1  0
  8  9  2  0
  9 10  1  0
 10 11  2  0
 11 12  1  0
 12 13  2  0
 13 14  1  0
 14 15  2  0
  6 16  2  0
 16 17  1  0
 17 18  1  0
 18 19  1  0
 19 20  1  0
 20 21  2  0
 21 22  1  0
 22 23  2  0
 23 24  1  0
 24 25  2  0
 25 26  1  0
 17  4  2  0
 25 20  1  0
 15  7  1  0
 15 10  1  0
M  END
>  <Compound_ID>  (506) 
CHEMBL518953

>  <Molecule Name>  (506) 
GSK-1023156A

>  <Molecular Weight>  (506) 
428.31

>  <AlogP>  (506) 
4.53

>  <Smiles>  (506) 
NC(=O)c1sc(-n2cnc3ccccc32)cc1OCc1ccccc1Br

>  <Standard Type>  (506) 
Inhibition

>  <Standard Relation>  (506) 
'='

>  <Standard Units>  (506) 
%

>  <Standard Value>  (506) 
3.2

>  <Assay ChEMBL ID>  (506) 
CHEMBL1962142

>  <Assay Description>  (506) 
GSK_PKIS: MET mean inhibition at 0.1 uM [Nanosyn]

>  <BAO Format ID>  (506) 
BAO_0000357

>  <BAO Label>  (506) 
single protein format

>  <Assay Organism>  (506) 
None

>  <Target ChEMBL ID>  (506) 
CHEMBL3717

>  <Target Name>  (506) 
Hepatocyte growth factor receptor

>  <Target Organism>  (506) 
Homo sapiens

>  <Target Type>  (506) 
SINGLE PROTEIN

>  <Document ChEMBL ID>  (506) 
CHEMBL1961873

>  <Source Description>  (506) 
GSK Published Kinase Inhibitor Set

>  <Document Journal>  (506) 
nan

>  <Document Year>  (506) 
nan

>  <Active>  (506) 
0.0

$$$$

     RDKit          2D

 30 33  0  0  0  0  0  0  0  0999 V2000
   -6.9771   -5.6725    0.0000 N   0  0  0  0  0  0  0  0  0  0  0  0
   -5.4853   -5.8293    0.0000 C   0  0  0  0  0  0  0  0  0  0  0  0
   -4.8752   -7.1996    0.0000 O   0  0  0  0  0  0  0  0  0  0  0  0
   -4.6036   -4.6157    0.0000 C   0  0  0  0  0  0  0  0  0  0  0  0
   -3.1036   -4.6157    0.0000 S   0  0  0  0  0  0  0  0  0  0  0  0
   -2.6401   -3.1891    0.0000 C   0  0  0  0  0  0  0  0  0  0  0  0
   -1.2135   -2.7256    0.0000 N   0  0  0  0  0  0  0  0  0  0  0  0
   -0.0000   -3.6073    0.0000 C   0  0  0  0  0  0  0  0  0  0  0  0
    1.2135   -2.7256    0.0000 N   0  0  0  0  0  0  0  0  0  0  0  0
    0.7500   -1.2990    0.0000 C   0  0  0  0  0  0  0  0  0  0  0  0
    1.5000    0.0000    0.0000 C   0  0  0  0  0  0  0  0  0  0  0  0
    0.7500    1.2990    0.0000 C   0  0  0  0  0  0  0  0  0  0  0  0
    1.5000    2.5981    0.0000 C   0  0  0  0  0  0  0  0  0  0  0  0
    2.2500    3.8971    0.0000 F   0  0  0  0  0  0  0  0  0  0  0  0
    2.7990    1.8481    0.0000 F   0  0  0  0  0  0  0  0  0  0  0  0
    0.2010    3.3481    0.0000 F   0  0  0  0  0  0  0  0  0  0  0  0
   -0.7500    1.2990    0.0000 C   0  0  0  0  0  0  0  0  0  0  0  0
   -1.5000    0.0000    0.0000 C   0  0  0  0  0  0  0  0  0  0  0  0
   -0.7500   -1.2990    0.0000 C   0  0  0  0  0  0  0  0  0  0  0  0
   -3.8536   -2.3075    0.0000 C   0  0  0  0  0  0  0  0  0  0  0  0
   -5.0672   -3.1891    0.0000 C   0  0  0  0  0  0  0  0  0  0  0  0
   -6.4937   -2.7256    0.0000 O   0  0  0  0  0  0  0  0  0  0  0  0
   -6.8056   -1.2584    0.0000 C   0  0  0  0  0  0  0  0  0  0  0  0
   -8.2322   -0.7949    0.0000 C   0  0  0  0  0  0  0  0  0  0  0  0
   -8.5441    0.6723    0.0000 C   0  0  0  0  0  0  0  0  0  0  0  0
   -9.9707    1.1359    0.0000 C   0  0  0  0  0  0  0  0  0  0  0  0
  -11.0854    0.1322    0.0000 C   0  0  0  0  0  0  0  0  0  0  0  0
  -10.7735   -1.3350    0.0000 C   0  0  0  0  0  0  0  0  0  0  0  0
   -9.3469   -1.7986    0.0000 C   0  0  0  0  0  0  0  0  0  0  0  0
   -9.0350   -3.2658    0.0000 Br  0  0  0  0  0  0  0  0  0  0  0  0
  1  2  1  0
  2  3  2  0
  2  4  1  0
  4  5  1  0
  5  6  1  0
  6  7  1  0
  7  8  1  0
  8  9  2  0
  9 10  1  0
 10 11  2  0
 11 12  1  0
 12 13  1  0
 13 14  1  0
 13 15  1  0
 13 16  1  0
 12 17  2  0
 17 18  1  0
 18 19  2  0
  6 20  2  0
 20 21  1  0
 21 22  1  0
 22 23  1  0
 23 24  1  0
 24 25  2  0
 25 26  1  0
 26 27  2  0
 27 28  1  0
 28 29  2  0
 29 30  1  0
 21  4  2  0
 29 24  1  0
 19  7  1  0
 19 10  1  0
M  END
>  <Compound_ID>  (507) 
CHEMBL480371

>  <Molecule Name>  (507) 
GW853609X

>  <Molecular Weight>  (507) 
496.31

>  <AlogP>  (507) 
5.55

>  <Smiles>  (507) 
NC(=O)c1sc(-n2cnc3cc(C(F)(F)F)ccc32)cc1OCc1ccccc1Br

>  <Standard Type>  (507) 
Inhibition

>  <Standard Relation>  (507) 
'='

>  <Standard Units>  (507) 
%

>  <Standard Value>  (507) 
8.07

>  <Assay ChEMBL ID>  (507) 
CHEMBL1962143

>  <Assay Description>  (507) 
GSK_PKIS: MET mean inhibition at 1 uM [Nanosyn]

>  <BAO Format ID>  (507) 
BAO_0000357

>  <BAO Label>  (507) 
single protein format

>  <Assay Organism>  (507) 
None

>  <Target ChEMBL ID>  (507) 
CHEMBL3717

>  <Target Name>  (507) 
Hepatocyte growth factor receptor

>  <Target Organism>  (507) 
Homo sapiens

>  <Target Type>  (507) 
SINGLE PROTEIN

>  <Document ChEMBL ID>  (507) 
CHEMBL1961873

>  <Source Description>  (507) 
GSK Published Kinase Inhibitor Set

>  <Document Journal>  (507) 
nan

>  <Document Year>  (507) 
nan

>  <Active>  (507) 
0.0

$$$$

     RDKit          2D

 31 34  0  0  0  0  0  0  0  0999 V2000
   10.5000   -7.7942    0.0000 C   0  0  0  0  0  0  0  0  0  0  0  0
    9.7500   -6.4952    0.0000 C   0  0  0  0  0  0  0  0  0  0  0  0
    8.2500   -6.4952    0.0000 C   0  0  0  0  0  0  0  0  0  0  0  0
    7.5000   -7.7942    0.0000 O   0  0  0  0  0  0  0  0  0  0  0  0
    7.5000   -5.1962    0.0000 N   0  0  0  0  0  0  0  0  0  0  0  0
    6.0000   -5.1962    0.0000 C   0  0  0  0  0  0  0  0  0  0  0  0
    5.2500   -6.4952    0.0000 C   0  0  0  0  0  0  0  0  0  0  0  0
    3.7500   -6.4952    0.0000 C   0  0  0  0  0  0  0  0  0  0  0  0
    3.0000   -5.1962    0.0000 C   0  0  0  0  0  0  0  0  0  0  0  0
    3.7500   -3.8971    0.0000 C   0  0  0  0  0  0  0  0  0  0  0  0
    3.0000   -2.5981    0.0000 O   0  0  0  0  0  0  0  0  0  0  0  0
    1.5000   -2.5981    0.0000 C   0  0  0  0  0  0  0  0  0  0  0  0
    0.7500   -3.8971    0.0000 N   0  0  0  0  0  0  0  0  0  0  0  0
   -0.7500   -3.8971    0.0000 C   0  0  0  0  0  0  0  0  0  0  0  0
   -1.5000   -5.1962    0.0000 N   0  0  0  0  0  0  0  0  0  0  0  0
   -3.0000   -5.1962    0.0000 C   0  0  0  0  0  0  0  0  0  0  0  0
   -3.7500   -3.8971    0.0000 C   0  0  0  0  0  0  0  0  0  0  0  0
   -5.2500   -3.8971    0.0000 C   0  0  0  0  0  0  0  0  0  0  0  0
   -6.0000   -5.1962    0.0000 C   0  0  0  0  0  0  0  0  0  0  0  0
   -5.2500   -6.4952    0.0000 C   0  0  0  0  0  0  0  0  0  0  0  0
   -6.0000   -7.7942    0.0000 C   0  0  0  0  0  0  0  0  0  0  0  0
   -6.7500   -9.0933    0.0000 N   0  0  0  0  0  0  0  0  0  0  0  0
   -3.7500   -6.4952    0.0000 C   0  0  0  0  0  0  0  0  0  0  0  0
   -1.5000   -2.5981    0.0000 N   0  0  0  0  0  0  0  0  0  0  0  0
   -0.7500   -1.2990    0.0000 C   0  0  0  0  0  0  0  0  0  0  0  0
    0.7500   -1.2990    0.0000 C   0  0  0  0  0  0  0  0  0  0  0  0
    1.5000    0.0000    0.0000 C   0  0  0  0  0  0  0  0  0  0  0  0
    0.7500    1.2990    0.0000 S   0  0  0  0  0  0  0  0  0  0  0  0
   -0.7500    1.2990    0.0000 C   0  0  0  0  0  0  0  0  0  0  0  0
   -1.5000    0.0000    0.0000 C   0  0  0  0  0  0  0  0  0  0  0  0
    5.2500   -3.8971    0.0000 C   0  0  0  0  0  0  0  0  0  0  0  0
  1  2  2  0
  2  3  1  0
  3  4  2  0
  3  5  1  0
  5  6  1  0
  6  7  2  0
  7  8  1  0
  8  9  2  0
  9 10  1  0
 10 11  1  0
 11 12  1  0
 12 13  2  0
 13 14  1  0
 14 15  1  0
 15 16  1  0
 16 17  2  0
 17 18  1  0
 18 19  2  0
 19 20  1  0
 20 21  1  0
 21 22  3  0
 20 23  2  0
 14 24  2  0
 24 25  1  0
 25 26  2  0
 26 27  1  0
 27 28  1  0
 28 29  1  0
 29 30  1  0
 10 31  2  0
 31  6  1  0
 26 12  1  0
 23 16  1  0
 30 25  1  0
M  END
>  <Compound_ID>  (508) 
CHEMBL4754688

>  <Molecule Name>  (508) 
nan

>  <Molecular Weight>  (508) 
429.51

>  <AlogP>  (508) 
4.80

>  <Smiles>  (508) 
C=CC(=O)Nc1cccc(Oc2nc(Nc3cccc(C#N)c3)nc3c2CSCC3)c1

>  <Standard Type>  (508) 
Inhibition

>  <Standard Relation>  (508) 
'='

>  <Standard Units>  (508) 
%

>  <Standard Value>  (508) 
2.4

>  <Assay ChEMBL ID>  (508) 
CHEMBL4730210

>  <Assay Description>  (508) 
Inhibition of C-MET (unknown origin) at 1 uM relative to control

>  <BAO Format ID>  (508) 
BAO_0000357

>  <BAO Label>  (508) 
single protein format

>  <Assay Organism>  (508) 
Homo sapiens

>  <Target ChEMBL ID>  (508) 
CHEMBL3717

>  <Target Name>  (508) 
Hepatocyte growth factor receptor

>  <Target Organism>  (508) 
Homo sapiens

>  <Target Type>  (508) 
SINGLE PROTEIN

>  <Document ChEMBL ID>  (508) 
CHEMBL4725402

>  <Source Description>  (508) 
Scientific Literature

>  <Document Journal>  (508) 
Bioorg Med Chem

>  <Document Year>  (508) 
2020.0

>  <Active>  (508) 
0.0

$$$$

     RDKit          2D

 35 39  0  0  0  0  0  0  0  0999 V2000
  -12.3122    3.9144    0.0000 C   0  0  0  0  0  0  0  0  0  0  0  0
  -11.1975    2.9107    0.0000 C   0  0  0  0  0  0  0  0  0  0  0  0
   -9.7709    3.3742    0.0000 C   0  0  0  0  0  0  0  0  0  0  0  0
   -9.4590    4.8414    0.0000 O   0  0  0  0  0  0  0  0  0  0  0  0
   -8.6562    2.3705    0.0000 N   0  0  0  0  0  0  0  0  0  0  0  0
   -7.2296    2.8340    0.0000 C   0  0  0  0  0  0  0  0  0  0  0  0
   -6.9177    4.3013    0.0000 C   0  0  0  0  0  0  0  0  0  0  0  0
   -5.4912    4.7648    0.0000 C   0  0  0  0  0  0  0  0  0  0  0  0
   -4.3764    3.7611    0.0000 C   0  0  0  0  0  0  0  0  0  0  0  0
   -4.6883    2.2939    0.0000 C   0  0  0  0  0  0  0  0  0  0  0  0
   -3.5736    1.2902    0.0000 O   0  0  0  0  0  0  0  0  0  0  0  0
   -2.1470    1.7537    0.0000 C   0  0  0  0  0  0  0  0  0  0  0  0
   -1.8351    3.2209    0.0000 N   0  0  0  0  0  0  0  0  0  0  0  0
   -0.4086    3.6844    0.0000 C   0  0  0  0  0  0  0  0  0  0  0  0
   -0.0967    5.1517    0.0000 N   0  0  0  0  0  0  0  0  0  0  0  0
    1.3299    5.6152    0.0000 C   0  0  0  0  0  0  0  0  0  0  0  0
    2.4446    4.6115    0.0000 C   0  0  0  0  0  0  0  0  0  0  0  0
    3.8712    5.0750    0.0000 C   0  0  0  0  0  0  0  0  0  0  0  0
    4.1831    6.5422    0.0000 C   0  0  0  0  0  0  0  0  0  0  0  0
    5.6097    7.0058    0.0000 N   0  0  0  0  0  0  0  0  0  0  0  0
    6.7244    6.0021    0.0000 C   0  0  0  0  0  0  0  0  0  0  0  0
    8.1510    6.4656    0.0000 C   0  0  0  0  0  0  0  0  0  0  0  0
    8.4628    7.9328    0.0000 N   0  0  0  0  0  0  0  0  0  0  0  0
    9.8894    8.3963    0.0000 C   0  0  0  0  0  0  0  0  0  0  0  0
    7.3481    8.9365    0.0000 C   0  0  0  0  0  0  0  0  0  0  0  0
    5.9215    8.4730    0.0000 C   0  0  0  0  0  0  0  0  0  0  0  0
    3.0684    7.5459    0.0000 C   0  0  0  0  0  0  0  0  0  0  0  0
    1.6418    7.0824    0.0000 C   0  0  0  0  0  0  0  0  0  0  0  0
    0.7062    2.6807    0.0000 N   0  0  0  0  0  0  0  0  0  0  0  0
    0.3943    1.2135    0.0000 C   0  0  0  0  0  0  0  0  0  0  0  0
    1.2760    0.0000    0.0000 C   0  0  0  0  0  0  0  0  0  0  0  0
    0.3943   -1.2135    0.0000 C   0  0  0  0  0  0  0  0  0  0  0  0
   -1.0323   -0.7500    0.0000 S   0  0  0  0  0  0  0  0  0  0  0  0
   -1.0323    0.7500    0.0000 C   0  0  0  0  0  0  0  0  0  0  0  0
   -6.1149    1.8303    0.0000 C   0  0  0  0  0  0  0  0  0  0  0  0
  1  2  2  0
  2  3  1  0
  3  4  2  0
  3  5  1  0
  5  6  1  0
  6  7  2  0
  7  8  1  0
  8  9  2  0
  9 10  1  0
 10 11  1  0
 11 12  1  0
 12 13  2  0
 13 14  1  0
 14 15  1  0
 15 16  1  0
 16 17  2  0
 17 18  1  0
 18 19  2  0
 19 20  1  0
 20 21  1  0
 21 22  1  0
 22 23  1  0
 23 24  1  0
 23 25  1  0
 25 26  1  0
 19 27  1  0
 27 28  2  0
 14 29  2  0
 29 30  1  0
 30 31  1  0
 31 32  2  0
 32 33  1  0
 33 34  1  0
 10 35  2  0
 35  6  1  0
 34 12  1  0
 28 16  1  0
 34 30  2  0
 26 20  1  0
M  END
>  <Compound_ID>  (509) 
CHEMBL3786343

>  <Molecule Name>  (509) 
OLMUTINIB

>  <Molecular Weight>  (509) 
486.60

>  <AlogP>  (509) 
5.10

>  <Smiles>  (509) 
C=CC(=O)Nc1cccc(Oc2nc(Nc3ccc(N4CCN(C)CC4)cc3)nc3ccsc23)c1

>  <Standard Type>  (509) 
Inhibition

>  <Standard Relation>  (509) 
'='

>  <Standard Units>  (509) 
%

>  <Standard Value>  (509) 
7.1

>  <Assay ChEMBL ID>  (509) 
CHEMBL4708509

>  <Assay Description>  (509) 
Inhibition of c-MET (unknown origin) using FAM-labelled peptide as substrate at 1 uM incubated for 10 mins in presence of ATP measured by mobility shift assay

>  <BAO Format ID>  (509) 
BAO_0000357

>  <BAO Label>  (509) 
single protein format

>  <Assay Organism>  (509) 
Homo sapiens

>  <Target ChEMBL ID>  (509) 
CHEMBL3717

>  <Target Name>  (509) 
Hepatocyte growth factor receptor

>  <Target Organism>  (509) 
Homo sapiens

>  <Target Type>  (509) 
SINGLE PROTEIN

>  <Document ChEMBL ID>  (509) 
CHEMBL4706512

>  <Source Description>  (509) 
Scientific Literature

>  <Document Journal>  (509) 
Eur J Med Chem

>  <Document Year>  (509) 
2020.0

>  <Active>  (509) 
0.0

$$$$

     RDKit          2D

 20 23  0  0  0  0  0  0  0  0999 V2000
   -5.4933   -4.1162    0.0000 C   0  0  0  0  0  0  0  0  0  0  0  0
   -5.1814   -2.6490    0.0000 C   0  0  0  0  0  0  0  0  0  0  0  0
   -3.7548   -2.1855    0.0000 C   0  0  0  0  0  0  0  0  0  0  0  0
   -2.6401   -3.1891    0.0000 C   0  0  0  0  0  0  0  0  0  0  0  0
   -1.2135   -2.7256    0.0000 C   0  0  0  0  0  0  0  0  0  0  0  0
   -0.0000   -3.6073    0.0000 C   0  0  0  0  0  0  0  0  0  0  0  0
    1.2135   -2.7256    0.0000 N   0  0  0  0  0  0  0  0  0  0  0  0
    0.7500   -1.2990    0.0000 C   0  0  0  0  0  0  0  0  0  0  0  0
    1.5000    0.0000    0.0000 C   0  0  0  0  0  0  0  0  0  0  0  0
    0.7500    1.2990    0.0000 N   0  0  0  0  0  0  0  0  0  0  0  0
   -0.7500    1.2990    0.0000 C   0  0  0  0  0  0  0  0  0  0  0  0
   -1.5000    2.5981    0.0000 C   0  0  0  0  0  0  0  0  0  0  0  0
   -2.9918    2.7549    0.0000 C   0  0  0  0  0  0  0  0  0  0  0  0
   -3.3037    4.2221    0.0000 N   0  0  0  0  0  0  0  0  0  0  0  0
   -2.0046    4.9721    0.0000 N   0  0  0  0  0  0  0  0  0  0  0  0
   -0.8899    3.9684    0.0000 C   0  0  0  0  0  0  0  0  0  0  0  0
   -1.5000    0.0000    0.0000 C   0  0  0  0  0  0  0  0  0  0  0  0
   -0.7500   -1.2990    0.0000 N   0  0  0  0  0  0  0  0  0  0  0  0
   -2.9520   -4.6564    0.0000 C   0  0  0  0  0  0  0  0  0  0  0  0
   -4.3786   -5.1199    0.0000 C   0  0  0  0  0  0  0  0  0  0  0  0
  1  2  2  0
  2  3  1  0
  3  4  2  0
  4  5  1  0
  5  6  2  0
  6  7  1  0
  7  8  2  0
  8  9  1  0
  9 10  2  0
 10 11  1  0
 11 12  1  0
 12 13  1  0
 13 14  2  0
 14 15  1  0
 15 16  1  0
 11 17  2  0
 17 18  1  0
  4 19  1  0
 19 20  2  0
 20  1  1  0
 18  5  1  0
 18  8  1  0
 16 12  2  0
M  END
>  <Compound_ID>  (510) 
CHEMBL1172464

>  <Molecule Name>  (510) 
nan

>  <Molecular Weight>  (510) 
261.29

>  <AlogP>  (510) 
2.79

>  <Smiles>  (510) 
c1ccc(-c2cnc3cnc(-c4cn[nH]c4)cn23)cc1

>  <Standard Type>  (510) 
Inhibition

>  <Standard Relation>  (510) 
'='

>  <Standard Units>  (510) 
%

>  <Standard Value>  (510) 
7.0

>  <Assay ChEMBL ID>  (510) 
CHEMBL1173995

>  <Assay Description>  (510) 
Inhibition of MET at 10 uM by mobility shift assay

>  <BAO Format ID>  (510) 
BAO_0000357

>  <BAO Label>  (510) 
single protein format

>  <Assay Organism>  (510) 
None

>  <Target ChEMBL ID>  (510) 
CHEMBL3717

>  <Target Name>  (510) 
Hepatocyte growth factor receptor

>  <Target Organism>  (510) 
Homo sapiens

>  <Target Type>  (510) 
SINGLE PROTEIN

>  <Document ChEMBL ID>  (510) 
CHEMBL1177828

>  <Source Description>  (510) 
Scientific Literature

>  <Document Journal>  (510) 
Bioorg Med Chem Lett

>  <Document Year>  (510) 
2010.0

>  <Active>  (510) 
0.0

$$$$

     RDKit          2D

 20 23  0  0  0  0  0  0  0  0999 V2000
   -5.4853   -5.8293    0.0000 C   0  0  0  0  0  0  0  0  0  0  0  0
   -4.6036   -4.6157    0.0000 N   0  0  0  0  0  0  0  0  0  0  0  0
   -3.1036   -4.6157    0.0000 C   0  0  0  0  0  0  0  0  0  0  0  0
   -2.6401   -3.1891    0.0000 C   0  0  0  0  0  0  0  0  0  0  0  0
   -1.2135   -2.7256    0.0000 C   0  0  0  0  0  0  0  0  0  0  0  0
   -0.0000   -3.6073    0.0000 C   0  0  0  0  0  0  0  0  0  0  0  0
    1.2135   -2.7256    0.0000 N   0  0  0  0  0  0  0  0  0  0  0  0
    0.7500   -1.2990    0.0000 C   0  0  0  0  0  0  0  0  0  0  0  0
    1.5000    0.0000    0.0000 N   0  0  0  0  0  0  0  0  0  0  0  0
    0.7500    1.2990    0.0000 C   0  0  0  0  0  0  0  0  0  0  0  0
   -0.7500    1.2990    0.0000 C   0  0  0  0  0  0  0  0  0  0  0  0
   -1.5000    2.5981    0.0000 C   0  0  0  0  0  0  0  0  0  0  0  0
   -2.9918    2.7549    0.0000 C   0  0  0  0  0  0  0  0  0  0  0  0
   -3.3037    4.2221    0.0000 N   0  0  0  0  0  0  0  0  0  0  0  0
   -2.0046    4.9721    0.0000 N   0  0  0  0  0  0  0  0  0  0  0  0
   -0.8899    3.9684    0.0000 C   0  0  0  0  0  0  0  0  0  0  0  0
   -1.5000    0.0000    0.0000 C   0  0  0  0  0  0  0  0  0  0  0  0
   -0.7500   -1.2990    0.0000 N   0  0  0  0  0  0  0  0  0  0  0  0
   -3.8536   -2.3075    0.0000 C   0  0  0  0  0  0  0  0  0  0  0  0
   -5.0672   -3.1891    0.0000 N   0  0  0  0  0  0  0  0  0  0  0  0
  1  2  1  0
  2  3  1  0
  3  4  2  0
  4  5  1  0
  5  6  2  0
  6  7  1  0
  7  8  2  0
  8  9  1  0
  9 10  2  0
 10 11  1  0
 11 12  1  0
 12 13  1  0
 13 14  2  0
 14 15  1  0
 15 16  1  0
 11 17  2  0
 17 18  1  0
  4 19  1  0
 19 20  2  0
 20  2  1  0
 18  5  1  0
 18  8  1  0
 16 12  2  0
M  END
>  <Compound_ID>  (511) 
CHEMBL1171533

>  <Molecule Name>  (511) 
nan

>  <Molecular Weight>  (511) 
265.28

>  <AlogP>  (511) 
1.52

>  <Smiles>  (511) 
Cn1cc(-c2cnc3ncc(-c4cn[nH]c4)cn23)cn1

>  <Standard Type>  (511) 
Inhibition

>  <Standard Relation>  (511) 
'='

>  <Standard Units>  (511) 
%

>  <Standard Value>  (511) 
7.0

>  <Assay ChEMBL ID>  (511) 
CHEMBL1173995

>  <Assay Description>  (511) 
Inhibition of MET at 10 uM by mobility shift assay

>  <BAO Format ID>  (511) 
BAO_0000357

>  <BAO Label>  (511) 
single protein format

>  <Assay Organism>  (511) 
None

>  <Target ChEMBL ID>  (511) 
CHEMBL3717

>  <Target Name>  (511) 
Hepatocyte growth factor receptor

>  <Target Organism>  (511) 
Homo sapiens

>  <Target Type>  (511) 
SINGLE PROTEIN

>  <Document ChEMBL ID>  (511) 
CHEMBL1177828

>  <Source Description>  (511) 
Scientific Literature

>  <Document Journal>  (511) 
Bioorg Med Chem Lett

>  <Document Year>  (511) 
2010.0

>  <Active>  (511) 
0.0

$$$$

     RDKit          2D

 30 33  0  0  0  0  0  0  0  0999 V2000
    3.7500   -6.4952    0.0000 C   0  0  0  0  0  0  0  0  0  0  0  0
    3.0000   -5.1962    0.0000 N   0  0  0  0  0  0  0  0  0  0  0  0
    1.5000   -5.1962    0.0000 C   0  0  0  0  0  0  0  0  0  0  0  0
    0.7500   -3.8971    0.0000 C   0  0  0  0  0  0  0  0  0  0  0  0
    1.5000   -2.5981    0.0000 N   0  0  0  0  0  0  0  0  0  0  0  0
    0.7500   -1.2990    0.0000 C   0  0  0  0  0  0  0  0  0  0  0  0
    1.5000    0.0000    0.0000 C   0  0  0  0  0  0  0  0  0  0  0  0
    0.7500    1.2990    0.0000 N   0  0  0  0  0  0  0  0  0  0  0  0
   -0.7500    1.2990    0.0000 C   0  0  0  0  0  0  0  0  0  0  0  0
   -1.5000    2.5981    0.0000 C   0  0  0  0  0  0  0  0  0  0  0  0
   -3.0000    2.5981    0.0000 C   0  0  0  0  0  0  0  0  0  0  0  0
   -3.7500    1.2990    0.0000 C   0  0  0  0  0  0  0  0  0  0  0  0
   -3.0000    0.0000    0.0000 C   0  0  0  0  0  0  0  0  0  0  0  0
   -3.7500   -1.2990    0.0000 N   0  0  0  0  0  0  0  0  0  0  0  0
   -5.2500   -1.2990    0.0000 C   0  0  0  0  0  0  0  0  0  0  0  0
   -6.0000    0.0000    0.0000 S   0  0  0  0  0  0  0  0  0  0  0  0
   -6.0000   -2.5981    0.0000 N   0  0  0  0  0  0  0  0  0  0  0  0
   -7.5000   -2.5981    0.0000 C   0  0  0  0  0  0  0  0  0  0  0  0
   -8.2500   -1.2990    0.0000 C   0  0  0  0  0  0  0  0  0  0  0  0
   -9.7500   -1.2990    0.0000 C   0  0  0  0  0  0  0  0  0  0  0  0
  -10.5000   -2.5981    0.0000 C   0  0  0  0  0  0  0  0  0  0  0  0
   -9.7500   -3.8971    0.0000 C   0  0  0  0  0  0  0  0  0  0  0  0
  -10.5000   -5.1962    0.0000 N   0  0  0  0  0  4  0  0  0  0  0  0
   -9.7500   -6.4952    0.0000 O   0  0  0  0  0  0  0  0  0  0  0  0
  -12.0000   -5.1962    0.0000 O   0  0  0  0  0  1  0  0  0  0  0  0
   -8.2500   -3.8971    0.0000 C   0  0  0  0  0  0  0  0  0  0  0  0
   -1.5000    0.0000    0.0000 C   0  0  0  0  0  0  0  0  0  0  0  0
   -0.7500   -1.2990    0.0000 C   0  0  0  0  0  0  0  0  0  0  0  0
    3.0000   -2.5981    0.0000 C   0  0  0  0  0  0  0  0  0  0  0  0
    3.7500   -3.8971    0.0000 C   0  0  0  0  0  0  0  0  0  0  0  0
  1  2  1  0
  2  3  1  0
  3  4  1  0
  4  5  1  0
  5  6  1  0
  6  7  2  0
  7  8  1  0
  8  9  2  0
  9 10  1  0
 10 11  2  0
 11 12  1  0
 12 13  2  0
 13 14  1  0
 14 15  1  0
 15 16  2  0
 15 17  1  0
 17 18  1  0
 18 19  2  0
 19 20  1  0
 20 21  2  0
 21 22  1  0
 22 23  1  0
 23 24  2  0
 23 25  1  0
 22 26  2  0
 13 27  1  0
 27 28  2  0
  5 29  1  0
 29 30  1  0
 30  2  1  0
 28  6  1  0
 27  9  1  0
 26 18  1  0
M  CHG  2  23   1  25  -1
M  END
>  <Compound_ID>  (512) 
CHEMBL1766517

>  <Molecule Name>  (512) 
nan

>  <Molecular Weight>  (512) 
422.51

>  <AlogP>  (512) 
3.70

>  <Smiles>  (512) 
CN1CCN(c2cnc3cccc(NC(=S)Nc4cccc([N+](=O)[O-])c4)c3c2)CC1

>  <Standard Type>  (512) 
Inhibition

>  <Standard Relation>  (512) 
'='

>  <Standard Units>  (512) 
%

>  <Standard Value>  (512) 
12.4

>  <Assay ChEMBL ID>  (512) 
CHEMBL1768669

>  <Assay Description>  (512) 
Inhibition of purified recombinant c-Met at 10 uM after 60 mins by ELISA

>  <BAO Format ID>  (512) 
BAO_0000357

>  <BAO Label>  (512) 
single protein format

>  <Assay Organism>  (512) 
None

>  <Target ChEMBL ID>  (512) 
CHEMBL3717

>  <Target Name>  (512) 
Hepatocyte growth factor receptor

>  <Target Organism>  (512) 
Homo sapiens

>  <Target Type>  (512) 
SINGLE PROTEIN

>  <Document ChEMBL ID>  (512) 
CHEMBL1765011

>  <Source Description>  (512) 
Scientific Literature

>  <Document Journal>  (512) 
J Med Chem

>  <Document Year>  (512) 
2011.0

>  <Active>  (512) 
0.0

$$$$

     RDKit          2D

 18 20  0  0  0  0  0  0  0  0999 V2000
    3.0000    0.0000    0.0000 C   0  0  0  0  0  0  0  0  0  0  0  0
    1.5000    0.0000    0.0000 C   0  0  0  0  0  0  0  0  0  0  0  0
    0.7500   -1.2990    0.0000 C   0  0  0  0  0  0  0  0  0  0  0  0
   -0.7500   -1.2990    0.0000 C   0  0  0  0  0  0  0  0  0  0  0  0
   -1.5000    0.0000    0.0000 C   0  0  0  0  0  0  0  0  0  0  0  0
   -2.9672   -0.3119    0.0000 C   0  0  0  0  0  0  0  0  0  0  0  0
   -4.0819    0.6918    0.0000 N   0  0  0  0  0  0  0  0  0  0  0  0
   -3.1240   -1.8037    0.0000 N   0  0  0  0  0  0  0  0  0  0  0  0
   -1.7537   -2.4138    0.0000 N   0  0  0  0  0  0  0  0  0  0  0  0
   -1.4418   -3.8810    0.0000 C   0  0  0  0  0  0  0  0  0  0  0  0
   -0.7500    1.2990    0.0000 C   0  0  0  0  0  0  0  0  0  0  0  0
   -1.5000    2.5981    0.0000 N   0  0  0  0  0  0  0  0  0  0  0  0
   -0.7500    3.8971    0.0000 C   0  0  0  0  0  0  0  0  0  0  0  0
   -1.5000    5.1962    0.0000 C   0  0  0  0  0  0  0  0  0  0  0  0
   -3.0000    5.1962    0.0000 O   0  0  0  0  0  0  0  0  0  0  0  0
   -3.7500    3.8971    0.0000 C   0  0  0  0  0  0  0  0  0  0  0  0
   -3.0000    2.5981    0.0000 C   0  0  0  0  0  0  0  0  0  0  0  0
    0.7500    1.2990    0.0000 N   0  0  0  0  0  0  0  0  0  0  0  0
  1  2  1  0
  2  3  2  0
  3  4  1  0
  4  5  2  0
  5  6  1  0
  6  7  1  0
  6  8  2  0
  8  9  1  0
  9 10  1  0
  5 11  1  0
 11 12  1  0
 12 13  1  0
 13 14  1  0
 14 15  1  0
 15 16  1  0
 16 17  1  0
 11 18  2  0
 18  2  1  0
  9  4  1  0
 17 12  1  0
M  END
>  <Compound_ID>  (513) 
CHEMBL1813782

>  <Molecule Name>  (513) 
nan

>  <Molecular Weight>  (513) 
247.30

>  <AlogP>  (513) 
0.70

>  <Smiles>  (513) 
Cc1cc2c(c(N)nn2C)c(N2CCOCC2)n1

>  <Standard Type>  (513) 
Inhibition

>  <Standard Relation>  (513) 
'='

>  <Standard Units>  (513) 
%

>  <Standard Value>  (513) 
6.0

>  <Assay ChEMBL ID>  (513) 
CHEMBL1815730

>  <Assay Description>  (513) 
Inhibition of MET at 30 uM by microfluidic mobility shift assay

>  <BAO Format ID>  (513) 
BAO_0000357

>  <BAO Label>  (513) 
single protein format

>  <Assay Organism>  (513) 
None

>  <Target ChEMBL ID>  (513) 
CHEMBL3717

>  <Target Name>  (513) 
Hepatocyte growth factor receptor

>  <Target Organism>  (513) 
Homo sapiens

>  <Target Type>  (513) 
SINGLE PROTEIN

>  <Document ChEMBL ID>  (513) 
CHEMBL1811853

>  <Source Description>  (513) 
Scientific Literature

>  <Document Journal>  (513) 
Bioorg Med Chem

>  <Document Year>  (513) 
2011.0

>  <Active>  (513) 
0.0

$$$$

     RDKit          2D

 22 24  0  0  0  0  0  0  0  0999 V2000
    7.5000   -2.5981    0.0000 C   0  0  0  0  0  0  0  0  0  0  0  0
    6.0000   -2.5981    0.0000 O   0  0  0  0  0  0  0  0  0  0  0  0
    5.2500   -1.2990    0.0000 C   0  0  0  0  0  0  0  0  0  0  0  0
    3.7500   -1.2990    0.0000 C   0  0  0  0  0  0  0  0  0  0  0  0
    3.0000    0.0000    0.0000 N   0  0  0  0  0  0  0  0  0  0  0  0
    1.5000    0.0000    0.0000 C   0  0  0  0  0  0  0  0  0  0  0  0
    0.7500   -1.2990    0.0000 N   0  0  0  0  0  0  0  0  0  0  0  0
   -0.7500   -1.2990    0.0000 C   0  0  0  0  0  0  0  0  0  0  0  0
   -1.5000   -2.5981    0.0000 C   0  0  0  0  0  0  0  0  0  0  0  0
   -1.5000    0.0000    0.0000 C   0  0  0  0  0  0  0  0  0  0  0  0
   -0.7500    1.2990    0.0000 C   0  0  0  0  0  0  0  0  0  0  0  0
   -1.2135    2.7256    0.0000 N   0  0  0  0  0  0  0  0  0  0  0  0
   -0.0000    3.6073    0.0000 N   0  0  0  0  0  0  0  0  0  0  0  0
   -0.0000    5.1073    0.0000 C   0  0  0  0  0  0  0  0  0  0  0  0
    1.2990    5.8573    0.0000 C   0  0  0  0  0  0  0  0  0  0  0  0
    1.2990    7.3573    0.0000 C   0  0  0  0  0  0  0  0  0  0  0  0
   -0.0000    8.1073    0.0000 C   0  0  0  0  0  0  0  0  0  0  0  0
   -1.2990    7.3573    0.0000 C   0  0  0  0  0  0  0  0  0  0  0  0
   -1.2990    5.8573    0.0000 C   0  0  0  0  0  0  0  0  0  0  0  0
    1.2135    2.7256    0.0000 C   0  0  0  0  0  0  0  0  0  0  0  0
    2.6401    3.1891    0.0000 N   0  0  0  0  0  0  0  0  0  0  0  0
    0.7500    1.2990    0.0000 C   0  0  0  0  0  0  0  0  0  0  0  0
  1  2  1  0
  2  3  1  0
  3  4  1  0
  4  5  1  0
  5  6  1  0
  6  7  2  0
  7  8  1  0
  8  9  1  0
  8 10  2  0
 10 11  1  0
 11 12  2  0
 12 13  1  0
 13 14  1  0
 14 15  2  0
 15 16  1  0
 16 17  2  0
 17 18  1  0
 18 19  2  0
 13 20  1  0
 20 21  1  0
 20 22  2  0
 22  6  1  0
 22 11  1  0
 19 14  1  0
M  END
>  <Compound_ID>  (514) 
CHEMBL1813787

>  <Molecule Name>  (514) 
nan

>  <Molecular Weight>  (514) 
297.36

>  <AlogP>  (514) 
2.37

>  <Smiles>  (514) 
COCCNc1nc(C)cc2nn(-c3ccccc3)c(N)c12

>  <Standard Type>  (514) 
Inhibition

>  <Standard Relation>  (514) 
'='

>  <Standard Units>  (514) 
%

>  <Standard Value>  (514) 
-1.0

>  <Assay ChEMBL ID>  (514) 
CHEMBL1815730

>  <Assay Description>  (514) 
Inhibition of MET at 30 uM by microfluidic mobility shift assay

>  <BAO Format ID>  (514) 
BAO_0000357

>  <BAO Label>  (514) 
single protein format

>  <Assay Organism>  (514) 
None

>  <Target ChEMBL ID>  (514) 
CHEMBL3717

>  <Target Name>  (514) 
Hepatocyte growth factor receptor

>  <Target Organism>  (514) 
Homo sapiens

>  <Target Type>  (514) 
SINGLE PROTEIN

>  <Document ChEMBL ID>  (514) 
CHEMBL1811853

>  <Source Description>  (514) 
Scientific Literature

>  <Document Journal>  (514) 
Bioorg Med Chem

>  <Document Year>  (514) 
2011.0

>  <Active>  (514) 
0.0

$$$$

     RDKit          2D

 32 36  0  0  0  0  0  0  0  0999 V2000
    3.0000    0.0000    0.0000 C   0  0  0  0  0  0  0  0  0  0  0  0
    1.5000    0.0000    0.0000 C   0  0  0  0  0  0  0  0  0  0  0  0
    0.7500   -1.2990    0.0000 C   0  0  0  0  0  0  0  0  0  0  0  0
   -0.7500   -1.2990    0.0000 C   0  0  0  0  0  0  0  0  0  0  0  0
   -1.5000    0.0000    0.0000 C   0  0  0  0  0  0  0  0  0  0  0  0
   -3.0000    0.0000    0.0000 N   0  0  0  0  0  0  0  0  0  0  0  0
   -3.7500    1.2990    0.0000 C   0  0  0  0  0  0  0  0  0  0  0  0
   -5.2500    1.2990    0.0000 N   0  0  0  0  0  0  0  0  0  0  0  0
   -6.0000    2.5981    0.0000 C   0  0  0  0  0  0  0  0  0  0  0  0
   -7.5000    2.5981    0.0000 N   0  0  0  0  0  0  0  0  0  0  0  0
   -8.2500    3.8971    0.0000 C   0  0  0  0  0  0  0  0  0  0  0  0
   -9.7500    3.8971    0.0000 C   0  0  0  0  0  0  0  0  0  0  0  0
  -10.5000    5.1962    0.0000 C   0  0  0  0  0  0  0  0  0  0  0  0
  -12.0000    5.1962    0.0000 C   0  0  0  0  0  0  0  0  0  0  0  0
  -12.7500    3.8971    0.0000 C   0  0  0  0  0  0  0  0  0  0  0  0
  -14.2500    3.8971    0.0000 C   0  0  0  0  0  0  0  0  0  0  0  0
  -15.0000    5.1962    0.0000 N   0  0  0  0  0  0  0  0  0  0  0  0
  -14.2500    6.4952    0.0000 C   0  0  0  0  0  0  0  0  0  0  0  0
  -15.0000    7.7942    0.0000 C   0  0  0  0  0  0  0  0  0  0  0  0
  -16.5000    7.7942    0.0000 N   0  0  0  0  0  0  0  0  0  0  0  0
  -17.2500    9.0933    0.0000 C   0  0  0  0  0  0  0  0  0  0  0  0
  -17.2500    6.4952    0.0000 C   0  0  0  0  0  0  0  0  0  0  0  0
  -16.5000    5.1962    0.0000 C   0  0  0  0  0  0  0  0  0  0  0  0
  -12.0000    2.5981    0.0000 C   0  0  0  0  0  0  0  0  0  0  0  0
  -10.5000    2.5981    0.0000 C   0  0  0  0  0  0  0  0  0  0  0  0
   -5.2500    3.8971    0.0000 N   0  0  0  0  0  0  0  0  0  0  0  0
   -3.7500    3.8971    0.0000 C   0  0  0  0  0  0  0  0  0  0  0  0
   -3.0000    5.1962    0.0000 O   0  0  0  0  0  0  0  0  0  0  0  0
   -3.0000    2.5981    0.0000 C   0  0  0  0  0  0  0  0  0  0  0  0
   -1.5000    2.5981    0.0000 C   0  0  0  0  0  0  0  0  0  0  0  0
   -0.7500    1.2990    0.0000 C   0  0  0  0  0  0  0  0  0  0  0  0
    0.7500    1.2990    0.0000 C   0  0  0  0  0  0  0  0  0  0  0  0
  1  2  1  0
  2  3  2  0
  3  4  1  0
  4  5  2  0
  5  6  1  0
  6  7  2  0
  7  8  1  0
  8  9  2  0
  9 10  1  0
 10 11  1  0
 11 12  1  0
 12 13  2  0
 13 14  1  0
 14 15  2  0
 15 16  1  0
 16 17  1  0
 17 18  1  0
 18 19  1  0
 19 20  1  0
 20 21  1  0
 20 22  1  0
 22 23  1  0
 15 24  1  0
 24 25  2  0
  9 26  1  0
 26 27  1  0
 27 28  2  0
 27 29  1  0
 29 30  2  0
 30 31  1  0
 31 32  2  0
 32  2  1  0
 31  5  1  0
 29  7  1  0
 25 12  1  0
 23 17  1  0
M  END
>  <Compound_ID>  (515) 
CHEMBL4163273

>  <Molecule Name>  (515) 
nan

>  <Molecular Weight>  (515) 
428.54

>  <AlogP>  (515) 
3.14

>  <Smiles>  (515) 
Cc1ccc2nc3nc(NCc4ccc(CN5CCN(C)CC5)cc4)[nH]c(=O)c3cc2c1

>  <Standard Type>  (515) 
Inhibition

>  <Standard Relation>  (515) 
'='

>  <Standard Units>  (515) 
%

>  <Standard Value>  (515) 
18.0

>  <Assay ChEMBL ID>  (515) 
CHEMBL4153883

>  <Assay Description>  (515) 
Inhibition of MET (unknown origin) at 10 uM by [33P]-ATP radiometric assay

>  <BAO Format ID>  (515) 
BAO_0000357

>  <BAO Label>  (515) 
single protein format

>  <Assay Organism>  (515) 
Homo sapiens

>  <Target ChEMBL ID>  (515) 
CHEMBL3717

>  <Target Name>  (515) 
Hepatocyte growth factor receptor

>  <Target Organism>  (515) 
Homo sapiens

>  <Target Type>  (515) 
SINGLE PROTEIN

>  <Document ChEMBL ID>  (515) 
CHEMBL4152228

>  <Source Description>  (515) 
Scientific Literature

>  <Document Journal>  (515) 
Eur J Med Chem

>  <Document Year>  (515) 
2018.0

>  <Active>  (515) 
0.0

$$$$

     RDKit          2D

 30 34  0  0  0  0  0  0  0  0999 V2000
   -3.0000   -5.1962    0.0000 O   0  0  0  0  0  0  0  0  0  0  0  0
   -1.5000   -5.1962    0.0000 C   0  0  0  0  0  0  0  0  0  0  0  0
   -0.7500   -6.4952    0.0000 N   0  0  0  0  0  0  0  0  0  0  0  0
    0.7500   -6.4952    0.0000 C   0  0  0  0  0  0  0  0  0  0  0  0
    1.5000   -7.7942    0.0000 N   0  0  0  0  0  0  0  0  0  0  0  0
    0.7500   -9.0933    0.0000 C   0  0  0  0  0  0  0  0  0  0  0  0
    1.5000  -10.3923    0.0000 C   0  0  0  0  0  0  0  0  0  0  0  0
    0.7500  -11.6913    0.0000 C   0  0  0  0  0  0  0  0  0  0  0  0
    1.5000  -12.9904    0.0000 C   0  0  0  0  0  0  0  0  0  0  0  0
    3.0000  -12.9904    0.0000 C   0  0  0  0  0  0  0  0  0  0  0  0
    3.7500  -14.2894    0.0000 C   0  0  0  0  0  0  0  0  0  0  0  0
    3.0000  -15.5885    0.0000 N   0  0  0  0  0  0  0  0  0  0  0  0
    1.5000  -15.5885    0.0000 C   0  0  0  0  0  0  0  0  0  0  0  0
    0.7500  -16.8875    0.0000 C   0  0  0  0  0  0  0  0  0  0  0  0
    1.5000  -18.1865    0.0000 C   0  0  0  0  0  0  0  0  0  0  0  0
    3.0000  -18.1865    0.0000 C   0  0  0  0  0  0  0  0  0  0  0  0
    3.7500  -16.8875    0.0000 C   0  0  0  0  0  0  0  0  0  0  0  0
    3.7500  -11.6913    0.0000 C   0  0  0  0  0  0  0  0  0  0  0  0
    3.0000  -10.3923    0.0000 C   0  0  0  0  0  0  0  0  0  0  0  0
    1.5000   -5.1962    0.0000 N   0  0  0  0  0  0  0  0  0  0  0  0
    0.7500   -3.8971    0.0000 C   0  0  0  0  0  0  0  0  0  0  0  0
    1.5000   -2.5981    0.0000 N   0  0  0  0  0  0  0  0  0  0  0  0
    0.7500   -1.2990    0.0000 C   0  0  0  0  0  0  0  0  0  0  0  0
    1.5000    0.0000    0.0000 C   0  0  0  0  0  0  0  0  0  0  0  0
    0.7500    1.2990    0.0000 C   0  0  0  0  0  0  0  0  0  0  0  0
   -0.7500    1.2990    0.0000 C   0  0  0  0  0  0  0  0  0  0  0  0
   -1.5000    0.0000    0.0000 C   0  0  0  0  0  0  0  0  0  0  0  0
   -0.7500   -1.2990    0.0000 C   0  0  0  0  0  0  0  0  0  0  0  0
   -1.5000   -2.5981    0.0000 C   0  0  0  0  0  0  0  0  0  0  0  0
   -0.7500   -3.8971    0.0000 C   0  0  0  0  0  0  0  0  0  0  0  0
  1  2  2  0
  2  3  1  0
  3  4  1  0
  4  5  1  0
  5  6  1  0
  6  7  1  0
  7  8  2  0
  8  9  1  0
  9 10  2  0
 10 11  1  0
 11 12  1  0
 12 13  1  0
 13 14  1  0
 14 15  1  0
 15 16  1  0
 16 17  1  0
 10 18  1  0
 18 19  2  0
  4 20  2  0
 20 21  1  0
 21 22  2  0
 22 23  1  0
 23 24  2  0
 24 25  1  0
 25 26  2  0
 26 27  1  0
 27 28  2  0
 28 29  1  0
 29 30  2  0
 30  2  1  0
 19  7  1  0
 30 21  1  0
 17 12  1  0
 28 23  1  0
M  END
>  <Compound_ID>  (516) 
CHEMBL4160278

>  <Molecule Name>  (516) 
nan

>  <Molecular Weight>  (516) 
399.50

>  <AlogP>  (516) 
4.07

>  <Smiles>  (516) 
O=c1[nH]c(NCc2ccc(CN3CCCCC3)cc2)nc2nc3ccccc3cc12

>  <Standard Type>  (516) 
Inhibition

>  <Standard Relation>  (516) 
'='

>  <Standard Units>  (516) 
%

>  <Standard Value>  (516) 
0.0

>  <Assay ChEMBL ID>  (516) 
CHEMBL4153883

>  <Assay Description>  (516) 
Inhibition of MET (unknown origin) at 10 uM by [33P]-ATP radiometric assay

>  <BAO Format ID>  (516) 
BAO_0000357

>  <BAO Label>  (516) 
single protein format

>  <Assay Organism>  (516) 
Homo sapiens

>  <Target ChEMBL ID>  (516) 
CHEMBL3717

>  <Target Name>  (516) 
Hepatocyte growth factor receptor

>  <Target Organism>  (516) 
Homo sapiens

>  <Target Type>  (516) 
SINGLE PROTEIN

>  <Document ChEMBL ID>  (516) 
CHEMBL4152228

>  <Source Description>  (516) 
Scientific Literature

>  <Document Journal>  (516) 
Eur J Med Chem

>  <Document Year>  (516) 
2018.0

>  <Active>  (516) 
0.0

$$$$

     RDKit          2D

 28 31  0  0  0  0  0  0  0  0999 V2000
   -3.0000  -10.3923    0.0000 C   0  0  0  0  0  0  0  0  0  0  0  0
   -1.5000  -10.3923    0.0000 O   0  0  0  0  0  0  0  0  0  0  0  0
   -0.7500   -9.0933    0.0000 C   0  0  0  0  0  0  0  0  0  0  0  0
   -1.5000   -7.7942    0.0000 C   0  0  0  0  0  0  0  0  0  0  0  0
   -0.7500   -6.4952    0.0000 C   0  0  0  0  0  0  0  0  0  0  0  0
    0.7500   -6.4952    0.0000 C   0  0  0  0  0  0  0  0  0  0  0  0
    1.5000   -5.1962    0.0000 C   0  0  0  0  0  0  0  0  0  0  0  0
    0.7500   -3.8971    0.0000 C   0  0  0  0  0  0  0  0  0  0  0  0
   -0.7500   -3.8971    0.0000 O   0  0  0  0  0  0  0  0  0  0  0  0
    1.5000   -2.5981    0.0000 N   0  0  0  0  0  0  0  0  0  0  0  0
    0.7500   -1.2990    0.0000 C   0  0  0  0  0  0  0  0  0  0  0  0
    1.5000    0.0000    0.0000 C   0  0  0  0  0  0  0  0  0  0  0  0
    0.7500    1.2990    0.0000 C   0  0  0  0  0  0  0  0  0  0  0  0
   -0.7500    1.2990    0.0000 C   0  0  0  0  0  0  0  0  0  0  0  0
   -1.7537    2.4138    0.0000 N   0  0  0  0  0  0  0  0  0  0  0  0
   -3.1240    1.8037    0.0000 C   0  0  0  0  0  0  0  0  0  0  0  0
   -4.4231    2.5537    0.0000 C   0  0  0  0  0  0  0  0  0  0  0  0
   -4.4231    4.0537    0.0000 C   0  0  0  0  0  0  0  0  0  0  0  0
   -5.7221    4.8037    0.0000 C   0  0  0  0  0  0  0  0  0  0  0  0
   -7.0211    4.0537    0.0000 C   0  0  0  0  0  0  0  0  0  0  0  0
   -8.3202    4.8037    0.0000 Cl  0  0  0  0  0  0  0  0  0  0  0  0
   -7.0211    2.5537    0.0000 C   0  0  0  0  0  0  0  0  0  0  0  0
   -5.7221    1.8037    0.0000 C   0  0  0  0  0  0  0  0  0  0  0  0
   -2.9672    0.3119    0.0000 N   0  0  0  0  0  0  0  0  0  0  0  0
   -1.5000    0.0000    0.0000 C   0  0  0  0  0  0  0  0  0  0  0  0
   -0.7500   -1.2990    0.0000 C   0  0  0  0  0  0  0  0  0  0  0  0
    1.5000   -7.7942    0.0000 C   0  0  0  0  0  0  0  0  0  0  0  0
    0.7500   -9.0933    0.0000 C   0  0  0  0  0  0  0  0  0  0  0  0
  1  2  1  0
  2  3  1  0
  3  4  2  0
  4  5  1  0
  5  6  2  0
  6  7  1  0
  7  8  1  0
  8  9  2  0
  8 10  1  0
 10 11  1  0
 11 12  2  0
 12 13  1  0
 13 14  2  0
 14 15  1  0
 15 16  1  0
 16 17  1  0
 17 18  2  0
 18 19  1  0
 19 20  2  0
 20 21  1  0
 20 22  1  0
 22 23  2  0
 16 24  2  0
 24 25  1  0
 25 26  2  0
  6 27  1  0
 27 28  2  0
 28  3  1  0
 26 11  1  0
 25 14  1  0
 23 17  1  0
M  END
>  <Compound_ID>  (517) 
CHEMBL4557230

>  <Molecule Name>  (517) 
nan

>  <Molecular Weight>  (517) 
391.86

>  <AlogP>  (517) 
5.07

>  <Smiles>  (517) 
COc1ccc(CC(=O)Nc2ccc3[nH]c(-c4ccc(Cl)cc4)nc3c2)cc1

>  <Standard Type>  (517) 
Inhibition

>  <Standard Relation>  (517) 
'='

>  <Standard Units>  (517) 
%

>  <Standard Value>  (517) 
-3.6

>  <Assay ChEMBL ID>  (517) 
CHEMBL4398904

>  <Assay Description>  (517) 
Inhibition of MET (unknown origin) at 1 uM

>  <BAO Format ID>  (517) 
BAO_0000357

>  <BAO Label>  (517) 
single protein format

>  <Assay Organism>  (517) 
Homo sapiens

>  <Target ChEMBL ID>  (517) 
CHEMBL3717

>  <Target Name>  (517) 
Hepatocyte growth factor receptor

>  <Target Organism>  (517) 
Homo sapiens

>  <Target Type>  (517) 
SINGLE PROTEIN

>  <Document ChEMBL ID>  (517) 
CHEMBL4396905

>  <Source Description>  (517) 
Scientific Literature

>  <Document Journal>  (517) 
Eur J Med Chem

>  <Document Year>  (517) 
2019.0

>  <Active>  (517) 
0.0

$$$$

     RDKit          2D

 25 27  0  0  0  0  0  0  0  0999 V2000
    1.6910   -7.9557    0.0000 C   0  0  0  0  0  0  0  0  0  0  0  0
    1.8478   -6.4639    0.0000 C   0  0  0  0  0  0  0  0  0  0  0  0
    2.0046   -4.9721    0.0000 N   0  0  0  0  0  0  0  0  0  0  0  0
    3.3037   -4.2221    0.0000 C   0  0  0  0  0  0  0  0  0  0  0  0
    4.6740   -4.8322    0.0000 C   0  0  0  0  0  0  0  0  0  0  0  0
    6.0443   -5.4423    0.0000 C   0  0  0  0  0  0  0  0  0  0  0  0
    7.4146   -6.0524    0.0000 C   0  0  0  0  0  0  0  0  0  0  0  0
    8.6281   -5.1707    0.0000 C   0  0  0  0  0  0  0  0  0  0  0  0
    9.9984   -5.7808    0.0000 O   0  0  0  0  0  0  0  0  0  0  0  0
    2.9918   -2.7549    0.0000 N   0  0  0  0  0  0  0  0  0  0  0  0
    1.5000   -2.5981    0.0000 C   0  0  0  0  0  0  0  0  0  0  0  0
    0.7500   -1.2990    0.0000 C   0  0  0  0  0  0  0  0  0  0  0  0
    1.5000    0.0000    0.0000 C   0  0  0  0  0  0  0  0  0  0  0  0
    0.7500    1.2990    0.0000 C   0  0  0  0  0  0  0  0  0  0  0  0
   -0.7500    1.2990    0.0000 C   0  0  0  0  0  0  0  0  0  0  0  0
   -1.5000    2.5981    0.0000 F   0  0  0  0  0  0  0  0  0  0  0  0
   -1.5000    0.0000    0.0000 C   0  0  0  0  0  0  0  0  0  0  0  0
   -0.7500   -1.2990    0.0000 C   0  0  0  0  0  0  0  0  0  0  0  0
    0.8899   -3.9684    0.0000 C   0  0  0  0  0  0  0  0  0  0  0  0
   -0.5773   -4.2803    0.0000 C   0  0  0  0  0  0  0  0  0  0  0  0
   -1.5810   -3.1655    0.0000 C   0  0  0  0  0  0  0  0  0  0  0  0
   -3.0482   -3.4774    0.0000 C   0  0  0  0  0  0  0  0  0  0  0  0
   -3.5118   -4.9040    0.0000 N   0  0  0  0  0  0  0  0  0  0  0  0
   -2.5081   -6.0187    0.0000 C   0  0  0  0  0  0  0  0  0  0  0  0
   -1.0409   -5.7068    0.0000 C   0  0  0  0  0  0  0  0  0  0  0  0
  1  2  3  0
  2  3  1  0
  3  4  1  0
  4  5  1  0
  5  6  3  0
  6  7  1  0
  7  8  1  0
  8  9  1  0
  4 10  2  0
 10 11  1  0
 11 12  1  0
 12 13  2  0
 13 14  1  0
 14 15  2  0
 15 16  1  0
 15 17  1  0
 17 18  2  0
 11 19  2  0
 19 20  1  0
 20 21  2  0
 21 22  1  0
 22 23  2  0
 23 24  1  0
 24 25  2  0
 19  3  1  0
 25 20  1  0
 18 12  1  0
M  END
>  <Compound_ID>  (518) 
CHEMBL576620

>  <Molecule Name>  (518) 
nan

>  <Molecular Weight>  (518) 
331.35

>  <AlogP>  (518) 
2.92

>  <Smiles>  (518) 
C#Cn1c(C#CCCO)nc(-c2ccc(F)cc2)c1-c1ccncc1

>  <Standard Type>  (518) 
Inhibition

>  <Standard Relation>  (518) 
'='

>  <Standard Units>  (518) 
%

>  <Standard Value>  (518) 
11.0

>  <Assay ChEMBL ID>  (518) 
CHEMBL1044531

>  <Assay Description>  (518) 
Inhibition of human MET at 20 uM by FRET assay

>  <BAO Format ID>  (518) 
BAO_0000357

>  <BAO Label>  (518) 
single protein format

>  <Assay Organism>  (518) 
Homo sapiens

>  <Target ChEMBL ID>  (518) 
CHEMBL3717

>  <Target Name>  (518) 
Hepatocyte growth factor receptor

>  <Target Organism>  (518) 
Homo sapiens

>  <Target Type>  (518) 
SINGLE PROTEIN

>  <Document ChEMBL ID>  (518) 
CHEMBL1156108

>  <Source Description>  (518) 
Scientific Literature

>  <Document Journal>  (518) 
Bioorg Med Chem Lett

>  <Document Year>  (518) 
2009.0

>  <Active>  (518) 
0.0

$$$$

     RDKit          2D

 26 29  0  0  0  0  0  0  0  0999 V2000
   -2.6401   -3.1891    0.0000 C   0  0  0  0  0  0  0  0  0  0  0  0
   -1.2135   -2.7256    0.0000 C   0  0  0  0  0  0  0  0  0  0  0  0
   -0.0000   -3.6073    0.0000 N   0  0  0  0  0  0  0  0  0  0  0  0
    1.2135   -2.7256    0.0000 C   0  0  0  0  0  0  0  0  0  0  0  0
    2.6401   -3.1891    0.0000 C   0  0  0  0  0  0  0  0  0  0  0  0
    2.9520   -4.6564    0.0000 C   0  0  0  0  0  0  0  0  0  0  0  0
    4.3786   -5.1199    0.0000 C   0  0  0  0  0  0  0  0  0  0  0  0
    5.4933   -4.1162    0.0000 C   0  0  0  0  0  0  0  0  0  0  0  0
    5.1814   -2.6490    0.0000 C   0  0  0  0  0  0  0  0  0  0  0  0
    3.7548   -2.1855    0.0000 C   0  0  0  0  0  0  0  0  0  0  0  0
    0.7500   -1.2990    0.0000 N   0  0  0  0  0  0  0  0  0  0  0  0
    1.5000    0.0000    0.0000 N   0  0  0  0  0  0  0  0  0  0  0  0
    0.7500    1.2990    0.0000 C   0  0  0  0  0  0  0  0  0  0  0  0
    1.5000    2.5981    0.0000 N   0  0  0  0  0  0  0  0  0  0  0  0
    3.0000    2.5981    0.0000 C   0  0  0  0  0  0  0  0  0  0  0  0
    3.7500    3.8971    0.0000 C   0  0  0  0  0  0  0  0  0  0  0  0
    5.2500    3.8971    0.0000 C   0  0  0  0  0  0  0  0  0  0  0  0
    6.0000    5.1962    0.0000 N   0  0  0  0  0  0  0  0  0  0  0  0
    7.5000    5.1962    0.0000 C   0  0  0  0  0  0  0  0  0  0  0  0
    8.2500    6.4952    0.0000 C   0  0  0  0  0  0  0  0  0  0  0  0
    7.5000    7.7942    0.0000 O   0  0  0  0  0  0  0  0  0  0  0  0
    6.0000    7.7942    0.0000 C   0  0  0  0  0  0  0  0  0  0  0  0
    5.2500    6.4952    0.0000 C   0  0  0  0  0  0  0  0  0  0  0  0
   -0.7500    1.2990    0.0000 N   0  0  0  0  0  0  0  0  0  0  0  0
   -1.5000    0.0000    0.0000 C   0  0  0  0  0  0  0  0  0  0  0  0
   -0.7500   -1.2990    0.0000 C   0  0  0  0  0  0  0  0  0  0  0  0
  1  2  1  0
  2  3  1  0
  3  4  2  0
  4  5  1  0
  5  6  2  0
  6  7  1  0
  7  8  2  0
  8  9  1  0
  9 10  2  0
  4 11  1  0
 11 12  1  0
 12 13  2  0
 13 14  1  0
 14 15  1  0
 15 16  1  0
 16 17  1  0
 17 18  1  0
 18 19  1  0
 19 20  1  0
 20 21  1  0
 21 22  1  0
 22 23  1  0
 13 24  1  0
 24 25  2  0
 25 26  1  0
 26  2  2  0
 10  5  1  0
 26 11  1  0
 23 18  1  0
M  END
>  <Compound_ID>  (519) 
CHEMBL486124

>  <Molecule Name>  (519) 
GW874091X

>  <Molecular Weight>  (519) 
352.44

>  <AlogP>  (519) 
2.23

>  <Smiles>  (519) 
Cc1nc(-c2ccccc2)n2nc(NCCCN3CCOCC3)ncc12

>  <Standard Type>  (519) 
Inhibition

>  <Standard Relation>  (519) 
'='

>  <Standard Units>  (519) 
%

>  <Standard Value>  (519) 
2.77

>  <Assay ChEMBL ID>  (519) 
CHEMBL1962142

>  <Assay Description>  (519) 
GSK_PKIS: MET mean inhibition at 0.1 uM [Nanosyn]

>  <BAO Format ID>  (519) 
BAO_0000357

>  <BAO Label>  (519) 
single protein format

>  <Assay Organism>  (519) 
None

>  <Target ChEMBL ID>  (519) 
CHEMBL3717

>  <Target Name>  (519) 
Hepatocyte growth factor receptor

>  <Target Organism>  (519) 
Homo sapiens

>  <Target Type>  (519) 
SINGLE PROTEIN

>  <Document ChEMBL ID>  (519) 
CHEMBL1961873

>  <Source Description>  (519) 
GSK Published Kinase Inhibitor Set

>  <Document Journal>  (519) 
nan

>  <Document Year>  (519) 
nan

>  <Active>  (519) 
0.0

$$$$

     RDKit          2D

 26 28  0  0  0  0  0  0  0  0999 V2000
    3.0000    0.0000    0.0000 C   0  0  0  0  0  0  0  0  0  0  0  0
    1.5000    0.0000    0.0000 C   0  0  0  0  0  0  0  0  0  0  0  0
    0.7500   -1.2990    0.0000 C   0  0  0  0  0  0  0  0  0  0  0  0
   -0.7500   -1.2990    0.0000 C   0  0  0  0  0  0  0  0  0  0  0  0
   -1.5000    0.0000    0.0000 C   0  0  0  0  0  0  0  0  0  0  0  0
   -3.0000    0.0000    0.0000 C   0  0  0  0  0  0  0  0  0  0  0  0
   -3.7500   -1.2990    0.0000 O   0  0  0  0  0  0  0  0  0  0  0  0
   -3.7500    1.2990    0.0000 N   0  0  0  0  0  0  0  0  0  0  0  0
   -5.2500    1.2990    0.0000 C   0  0  0  0  0  0  0  0  0  0  0  0
   -6.0000    2.5981    0.0000 C   0  0  0  0  0  0  0  0  0  0  0  0
   -6.0000    0.0000    0.0000 C   0  0  0  0  0  0  0  0  0  0  0  0
   -0.7500    1.2990    0.0000 C   0  0  0  0  0  0  0  0  0  0  0  0
    0.7500    1.2990    0.0000 C   0  0  0  0  0  0  0  0  0  0  0  0
    1.5000    2.5981    0.0000 C   0  0  0  0  0  0  0  0  0  0  0  0
    3.0000    2.5981    0.0000 C   0  0  0  0  0  0  0  0  0  0  0  0
    3.7500    3.8971    0.0000 C   0  0  0  0  0  0  0  0  0  0  0  0
    3.0000    5.1962    0.0000 C   0  0  0  0  0  0  0  0  0  0  0  0
    3.7500    6.4952    0.0000 C   0  0  0  0  0  0  0  0  0  0  0  0
    3.0000    7.7942    0.0000 O   0  0  0  0  0  0  0  0  0  0  0  0
    5.2500    6.4952    0.0000 N   0  0  0  0  0  0  0  0  0  0  0  0
    6.0000    7.7942    0.0000 C   0  0  0  0  0  0  0  0  0  0  0  0
    7.5000    7.7942    0.0000 C   0  0  0  0  0  0  0  0  0  0  0  0
    8.7990    8.5442    0.0000 C   0  0  0  0  0  0  0  0  0  0  0  0
    8.7990    7.0442    0.0000 C   0  0  0  0  0  0  0  0  0  0  0  0
    1.5000    5.1962    0.0000 C   0  0  0  0  0  0  0  0  0  0  0  0
    0.7500    3.8971    0.0000 C   0  0  0  0  0  0  0  0  0  0  0  0
  1  2  1  0
  2  3  2  0
  3  4  1  0
  4  5  2  0
  5  6  1  0
  6  7  2  0
  6  8  1  0
  8  9  1  0
  9 10  1  0
  9 11  1  0
  5 12  1  0
 12 13  2  0
 13 14  1  0
 14 15  2  0
 15 16  1  0
 16 17  2  0
 17 18  1  0
 18 19  2  0
 18 20  1  0
 20 21  1  0
 21 22  1  0
 22 23  1  0
 23 24  1  0
 17 25  1  0
 25 26  2  0
 13  2  1  0
 26 14  1  0
 24 22  1  0
M  END
>  <Compound_ID>  (520) 
CHEMBL477979

>  <Molecule Name>  (520) 
GW785974X

>  <Molecular Weight>  (520) 
350.46

>  <AlogP>  (520) 
3.94

>  <Smiles>  (520) 
Cc1ccc(C(=O)NC(C)C)cc1-c1ccc(C(=O)NCC2CC2)cc1

>  <Standard Type>  (520) 
Inhibition

>  <Standard Relation>  (520) 
'='

>  <Standard Units>  (520) 
%

>  <Standard Value>  (520) 
-5.28

>  <Assay ChEMBL ID>  (520) 
CHEMBL1962143

>  <Assay Description>  (520) 
GSK_PKIS: MET mean inhibition at 1 uM [Nanosyn]

>  <BAO Format ID>  (520) 
BAO_0000357

>  <BAO Label>  (520) 
single protein format

>  <Assay Organism>  (520) 
None

>  <Target ChEMBL ID>  (520) 
CHEMBL3717

>  <Target Name>  (520) 
Hepatocyte growth factor receptor

>  <Target Organism>  (520) 
Homo sapiens

>  <Target Type>  (520) 
SINGLE PROTEIN

>  <Document ChEMBL ID>  (520) 
CHEMBL1961873

>  <Source Description>  (520) 
GSK Published Kinase Inhibitor Set

>  <Document Journal>  (520) 
nan

>  <Document Year>  (520) 
nan

>  <Active>  (520) 
0.0

$$$$

     RDKit          2D

 34 39  0  0  0  0  0  0  0  0999 V2000
   -3.0313    0.2404    0.0000 C   0  0  0  0  0  0  0  0  0  0  0  0
   -2.0276   -0.8744    0.0000 O   0  0  0  0  0  0  0  0  0  0  0  0
   -2.4911   -2.3009    0.0000 C   0  0  0  0  0  0  0  0  0  0  0  0
   -1.4874   -3.4157    0.0000 C   0  0  0  0  0  0  0  0  0  0  0  0
   -1.9509   -4.8423    0.0000 C   0  0  0  0  0  0  0  0  0  0  0  0
   -3.4182   -5.1541    0.0000 C   0  0  0  0  0  0  0  0  0  0  0  0
   -3.8817   -6.5807    0.0000 C   0  0  0  0  0  0  0  0  0  0  0  0
   -5.3083   -7.0442    0.0000 N   0  0  0  0  0  0  0  0  0  0  0  0
   -5.3083   -8.5442    0.0000 N   0  0  0  0  0  0  0  0  0  0  0  0
   -6.4230   -9.5479    0.0000 N   0  0  0  0  0  0  0  0  0  0  0  0
   -6.1111  -11.0151    0.0000 C   0  0  0  0  0  0  0  0  0  0  0  0
   -4.6845  -11.4787    0.0000 C   0  0  0  0  0  0  0  0  0  0  0  0
   -3.5698  -10.4750    0.0000 C   0  0  0  0  0  0  0  0  0  0  0  0
   -3.8817   -9.0078    0.0000 C   0  0  0  0  0  0  0  0  0  0  0  0
   -3.0000   -7.7942    0.0000 C   0  0  0  0  0  0  0  0  0  0  0  0
   -1.5000   -7.7942    0.0000 C   0  0  0  0  0  0  0  0  0  0  0  0
   -0.7500   -9.0933    0.0000 C   0  0  0  0  0  0  0  0  0  0  0  0
    0.7500   -9.0933    0.0000 C   0  0  0  0  0  0  0  0  0  0  0  0
    1.5000   -7.7942    0.0000 N   0  0  0  0  0  0  0  0  0  0  0  0
    0.7500   -6.4952    0.0000 C   0  0  0  0  0  0  0  0  0  0  0  0
    1.5000   -5.1962    0.0000 N   0  0  0  0  0  0  0  0  0  0  0  0
    0.7500   -3.8971    0.0000 C   0  0  0  0  0  0  0  0  0  0  0  0
   -0.7500   -3.8971    0.0000 C   0  0  0  0  0  0  0  0  0  0  0  0
   -1.5000   -2.5981    0.0000 C   0  0  0  0  0  0  0  0  0  0  0  0
   -0.7500   -1.2990    0.0000 C   0  0  0  0  0  0  0  0  0  0  0  0
    0.7500   -1.2990    0.0000 C   0  0  0  0  0  0  0  0  0  0  0  0
    1.5000   -2.5981    0.0000 C   0  0  0  0  0  0  0  0  0  0  0  0
    1.5000    0.0000    0.0000 O   0  0  0  0  0  0  0  0  0  0  0  0
    0.7500    1.2990    0.0000 C   0  0  0  0  0  0  0  0  0  0  0  0
   -0.7500    1.2990    0.0000 C   0  0  0  0  0  0  0  0  0  0  0  0
   -1.5000    0.0000    0.0000 O   0  0  0  0  0  0  0  0  0  0  0  0
   -0.7500   -6.4952    0.0000 N   0  0  0  0  0  0  0  0  0  0  0  0
   -4.4218   -4.0394    0.0000 C   0  0  0  0  0  0  0  0  0  0  0  0
   -3.9583   -2.6128    0.0000 C   0  0  0  0  0  0  0  0  0  0  0  0
  1  2  1  0
  2  3  1  0
  3  4  2  0
  4  5  1  0
  5  6  2  0
  6  7  1  0
  7  8  2  0
  8  9  1  0
  9 10  1  0
 10 11  2  0
 11 12  1  0
 12 13  2  0
 13 14  1  0
 14 15  2  0
 15 16  1  0
 16 17  2  0
 17 18  1  0
 18 19  2  0
 19 20  1  0
 20 21  1  0
 21 22  1  0
 22 23  2  0
 23 24  1  0
 24 25  2  0
 25 26  1  0
 26 27  2  0
 26 28  1  0
 28 29  1  0
 29 30  1  0
 30 31  1  0
 20 32  2  0
  6 33  1  0
 33 34  2  0
 34  3  1  0
 15  7  1  0
 32 16  1  0
 14  9  1  0
 27 22  1  0
 31 25  1  0
M  END
>  <Compound_ID>  (521) 
CHEMBL188257

>  <Molecule Name>  (521) 
GW827106X

>  <Molecular Weight>  (521) 
452.47

>  <AlogP>  (521) 
4.38

>  <Smiles>  (521) 
COc1ccc(-c2nn3ncccc3c2-c2ccnc(Nc3ccc4c(c3)OCCO4)n2)cc1

>  <Standard Type>  (521) 
Inhibition

>  <Standard Relation>  (521) 
'='

>  <Standard Units>  (521) 
%

>  <Standard Value>  (521) 
8.57

>  <Assay ChEMBL ID>  (521) 
CHEMBL1962143

>  <Assay Description>  (521) 
GSK_PKIS: MET mean inhibition at 1 uM [Nanosyn]

>  <BAO Format ID>  (521) 
BAO_0000357

>  <BAO Label>  (521) 
single protein format

>  <Assay Organism>  (521) 
None

>  <Target ChEMBL ID>  (521) 
CHEMBL3717

>  <Target Name>  (521) 
Hepatocyte growth factor receptor

>  <Target Organism>  (521) 
Homo sapiens

>  <Target Type>  (521) 
SINGLE PROTEIN

>  <Document ChEMBL ID>  (521) 
CHEMBL1961873

>  <Source Description>  (521) 
GSK Published Kinase Inhibitor Set

>  <Document Journal>  (521) 
nan

>  <Document Year>  (521) 
nan

>  <Active>  (521) 
0.0

$$$$

     RDKit          2D

 32 35  0  0  0  0  0  0  0  0999 V2000
   -2.5981   -8.1073    0.0000 C   0  0  0  0  0  0  0  0  0  0  0  0
   -1.2990   -7.3573    0.0000 O   0  0  0  0  0  0  0  0  0  0  0  0
   -1.2990   -5.8573    0.0000 C   0  0  0  0  0  0  0  0  0  0  0  0
   -2.5981   -5.1073    0.0000 O   0  0  0  0  0  0  0  0  0  0  0  0
   -0.0000   -5.1073    0.0000 N   0  0  0  0  0  0  0  0  0  0  0  0
   -0.0000   -3.6073    0.0000 C   0  0  0  0  0  0  0  0  0  0  0  0
    1.2135   -2.7256    0.0000 N   0  0  0  0  0  0  0  0  0  0  0  0
    0.7500   -1.2990    0.0000 C   0  0  0  0  0  0  0  0  0  0  0  0
    1.5000    0.0000    0.0000 C   0  0  0  0  0  0  0  0  0  0  0  0
    0.7500    1.2990    0.0000 C   0  0  0  0  0  0  0  0  0  0  0  0
    1.5000    2.5981    0.0000 O   0  0  0  0  0  0  0  0  0  0  0  0
    3.0000    2.5981    0.0000 C   0  0  0  0  0  0  0  0  0  0  0  0
    3.7500    1.2990    0.0000 C   0  0  0  0  0  0  0  0  0  0  0  0
    5.2500    1.2990    0.0000 C   0  0  0  0  0  0  0  0  0  0  0  0
    6.0000    2.5981    0.0000 C   0  0  0  0  0  0  0  0  0  0  0  0
    7.5000    2.5981    0.0000 N   0  0  0  0  0  0  0  0  0  0  0  0
    8.2500    1.2990    0.0000 C   0  0  0  0  0  0  0  0  0  0  0  0
    7.5000   -0.0000    0.0000 O   0  0  0  0  0  0  0  0  0  0  0  0
    9.7500    1.2990    0.0000 N   0  0  0  0  0  0  0  0  0  0  0  0
   10.5000   -0.0000    0.0000 C   0  0  0  0  0  0  0  0  0  0  0  0
    9.7500   -1.2990    0.0000 C   0  0  0  0  0  0  0  0  0  0  0  0
   10.5000   -2.5981    0.0000 C   0  0  0  0  0  0  0  0  0  0  0  0
   12.0000   -2.5981    0.0000 C   0  0  0  0  0  0  0  0  0  0  0  0
   12.7500   -1.2990    0.0000 C   0  0  0  0  0  0  0  0  0  0  0  0
   14.2500   -1.2990    0.0000 Br  0  0  0  0  0  0  0  0  0  0  0  0
   12.0000   -0.0000    0.0000 C   0  0  0  0  0  0  0  0  0  0  0  0
    5.2500    3.8971    0.0000 C   0  0  0  0  0  0  0  0  0  0  0  0
    3.7500    3.8971    0.0000 C   0  0  0  0  0  0  0  0  0  0  0  0
   -0.7500    1.2990    0.0000 C   0  0  0  0  0  0  0  0  0  0  0  0
   -1.5000    0.0000    0.0000 C   0  0  0  0  0  0  0  0  0  0  0  0
   -0.7500   -1.2990    0.0000 C   0  0  0  0  0  0  0  0  0  0  0  0
   -1.2135   -2.7256    0.0000 N   0  0  0  0  0  0  0  0  0  0  0  0
  1  2  1  0
  2  3  1  0
  3  4  2  0
  3  5  1  0
  5  6  1  0
  6  7  2  0
  7  8  1  0
  8  9  2  0
  9 10  1  0
 10 11  1  0
 11 12  1  0
 12 13  2  0
 13 14  1  0
 14 15  2  0
 15 16  1  0
 16 17  1  0
 17 18  2  0
 17 19  1  0
 19 20  1  0
 20 21  2  0
 21 22  1  0
 22 23  2  0
 23 24  1  0
 24 25  1  0
 24 26  2  0
 15 27  1  0
 27 28  2  0
 10 29  2  0
 29 30  1  0
 30 31  2  0
 31 32  1  0
 32  6  1  0
 31  8  1  0
 28 12  1  0
 26 20  1  0
M  END
>  <Compound_ID>  (522) 
CHEMBL1909370

>  <Molecule Name>  (522) 
GW694234A

>  <Molecular Weight>  (522) 
532.78

>  <AlogP>  (522) 
5.94

>  <Smiles>  (522) 
COC(=O)Nc1nc2cc(Oc3ccc(NC(=O)Nc4cccc(Br)c4)cc3)ccc2[nH]1

>  <Standard Type>  (522) 
Inhibition

>  <Standard Relation>  (522) 
'='

>  <Standard Units>  (522) 
%

>  <Standard Value>  (522) 
6.03

>  <Assay ChEMBL ID>  (522) 
CHEMBL1962143

>  <Assay Description>  (522) 
GSK_PKIS: MET mean inhibition at 1 uM [Nanosyn]

>  <BAO Format ID>  (522) 
BAO_0000357

>  <BAO Label>  (522) 
single protein format

>  <Assay Organism>  (522) 
None

>  <Target ChEMBL ID>  (522) 
CHEMBL3717

>  <Target Name>  (522) 
Hepatocyte growth factor receptor

>  <Target Organism>  (522) 
Homo sapiens

>  <Target Type>  (522) 
SINGLE PROTEIN

>  <Document ChEMBL ID>  (522) 
CHEMBL1961873

>  <Source Description>  (522) 
GSK Published Kinase Inhibitor Set

>  <Document Journal>  (522) 
nan

>  <Document Year>  (522) 
nan

>  <Active>  (522) 
0.0

$$$$

     RDKit          2D

 27 29  0  0  0  0  0  0  0  0999 V2000
    1.5000   -5.1962    0.0000 C   0  0  0  0  0  0  0  0  0  0  0  0
    0.7500   -3.8971    0.0000 N   0  0  0  0  0  0  0  0  0  0  0  0
    1.5000   -2.5981    0.0000 C   0  0  0  0  0  0  0  0  0  0  0  0
    3.0000   -2.5981    0.0000 C   0  0  0  0  0  0  0  0  0  0  0  0
    3.7500   -1.2990    0.0000 C   0  0  0  0  0  0  0  0  0  0  0  0
    3.0000   -0.0000    0.0000 F   0  0  0  0  0  0  0  0  0  0  0  0
    5.2500   -1.2990    0.0000 C   0  0  0  0  0  0  0  0  0  0  0  0
    6.0000   -2.5981    0.0000 C   0  0  0  0  0  0  0  0  0  0  0  0
    5.2500   -3.8971    0.0000 C   0  0  0  0  0  0  0  0  0  0  0  0
    6.0000   -5.1962    0.0000 Cl  0  0  0  0  0  0  0  0  0  0  0  0
    3.7500   -3.8971    0.0000 C   0  0  0  0  0  0  0  0  0  0  0  0
    3.0000   -5.1962    0.0000 F   0  0  0  0  0  0  0  0  0  0  0  0
   -0.7500   -3.8971    0.0000 C   0  0  0  0  0  0  0  0  0  0  0  0
   -1.5000   -2.5981    0.0000 O   0  0  0  0  0  0  0  0  0  0  0  0
   -1.5000   -5.1962    0.0000 C   0  0  0  0  0  0  0  0  0  0  0  0
   -3.0000   -5.1962    0.0000 C   0  0  0  0  0  0  0  0  0  0  0  0
   -3.7500   -6.4952    0.0000 C   0  0  0  0  0  0  0  0  0  0  0  0
   -5.2500   -6.4952    0.0000 C   0  0  0  0  0  0  0  0  0  0  0  0
   -6.1317   -7.7087    0.0000 C   0  0  0  0  0  0  0  0  0  0  0  0
   -7.5583   -7.2452    0.0000 N   0  0  0  0  0  0  0  0  0  0  0  0
   -7.5583   -5.7452    0.0000 N   0  0  0  0  0  0  0  0  0  0  0  0
   -8.7718   -4.8635    0.0000 C   0  0  0  0  0  0  0  0  0  0  0  0
   -6.1317   -5.2817    0.0000 C   0  0  0  0  0  0  0  0  0  0  0  0
   -3.0000   -7.7942    0.0000 C   0  0  0  0  0  0  0  0  0  0  0  0
   -1.5000   -7.7942    0.0000 N   0  0  0  0  0  0  0  0  0  0  0  0
   -0.7500   -6.4952    0.0000 C   0  0  0  0  0  0  0  0  0  0  0  0
    0.7500   -6.4952    0.0000 N   0  0  0  0  0  0  0  0  0  0  0  0
  1  2  1  0
  2  3  1  0
  3  4  1  0
  4  5  2  0
  5  6  1  0
  5  7  1  0
  7  8  2  0
  8  9  1  0
  9 10  1  0
  9 11  2  0
 11 12  1  0
  2 13  1  0
 13 14  2  0
 13 15  1  0
 15 16  2  0
 16 17  1  0
 17 18  1  0
 18 19  1  0
 19 20  2  0
 20 21  1  0
 21 22  1  0
 21 23  1  0
 17 24  2  0
 24 25  1  0
 25 26  2  0
 26 27  1  0
 11  4  1  0
 26 15  1  0
 23 18  2  0
M  END
>  <Compound_ID>  (523) 
CHEMBL2071394

>  <Molecule Name>  (523) 
nan

>  <Molecular Weight>  (523) 
391.81

>  <AlogP>  (523) 
3.27

>  <Smiles>  (523) 
CN(Cc1c(F)ccc(Cl)c1F)C(=O)c1cc(-c2cnn(C)c2)cnc1N

>  <Standard Type>  (523) 
Inhibition

>  <Standard Relation>  (523) 
'='

>  <Standard Units>  (523) 
%

>  <Standard Value>  (523) 
10.9

>  <Assay ChEMBL ID>  (523) 
CHEMBL2072591

>  <Assay Description>  (523) 
Inhibition of c-Met at 1 uM incubated for 60 mins by spectrophotometry

>  <BAO Format ID>  (523) 
BAO_0000357

>  <BAO Label>  (523) 
single protein format

>  <Assay Organism>  (523) 
Homo sapiens

>  <Target ChEMBL ID>  (523) 
CHEMBL3717

>  <Target Name>  (523) 
Hepatocyte growth factor receptor

>  <Target Organism>  (523) 
Homo sapiens

>  <Target Type>  (523) 
SINGLE PROTEIN

>  <Document ChEMBL ID>  (523) 
CHEMBL2069216

>  <Source Description>  (523) 
Scientific Literature

>  <Document Journal>  (523) 
Bioorg Med Chem

>  <Document Year>  (523) 
2012.0

>  <Active>  (523) 
0.0

$$$$

     RDKit          2D

 31 34  0  0  0  0  0  0  0  0999 V2000
   -3.0000  -12.9904    0.0000 C   0  0  0  0  0  0  0  0  0  0  0  0
   -1.5000  -12.9904    0.0000 O   0  0  0  0  0  0  0  0  0  0  0  0
   -0.7500  -11.6913    0.0000 C   0  0  0  0  0  0  0  0  0  0  0  0
   -1.5000  -10.3923    0.0000 C   0  0  0  0  0  0  0  0  0  0  0  0
   -0.7500   -9.0933    0.0000 C   0  0  0  0  0  0  0  0  0  0  0  0
    0.7500   -9.0933    0.0000 C   0  0  0  0  0  0  0  0  0  0  0  0
    1.5000   -7.7942    0.0000 N   0  0  0  0  0  0  0  0  0  0  0  0
    0.7500   -6.4952    0.0000 C   0  0  0  0  0  0  0  0  0  0  0  0
   -0.7500   -6.4952    0.0000 O   0  0  0  0  0  0  0  0  0  0  0  0
    1.5000   -5.1962    0.0000 C   0  0  0  0  0  0  0  0  0  0  0  0
    0.7500   -3.8971    0.0000 C   0  0  0  0  0  0  0  0  0  0  0  0
   -0.7500   -3.8971    0.0000 O   0  0  0  0  0  0  0  0  0  0  0  0
    1.5000   -2.5981    0.0000 N   0  0  0  0  0  0  0  0  0  0  0  0
    0.7500   -1.2990    0.0000 C   0  0  0  0  0  0  0  0  0  0  0  0
    1.5000    0.0000    0.0000 C   0  0  0  0  0  0  0  0  0  0  0  0
    0.7500    1.2990    0.0000 C   0  0  0  0  0  0  0  0  0  0  0  0
   -0.7500    1.2990    0.0000 C   0  0  0  0  0  0  0  0  0  0  0  0
   -1.5000    0.0000    0.0000 C   0  0  0  0  0  0  0  0  0  0  0  0
   -0.7500   -1.2990    0.0000 C   0  0  0  0  0  0  0  0  0  0  0  0
   -2.9672    0.3119    0.0000 N   0  0  0  0  0  0  0  0  0  0  0  0
   -3.1240    1.8037    0.0000 C   0  0  0  0  0  0  0  0  0  0  0  0
   -4.4231    2.5537    0.0000 O   0  0  0  0  0  0  0  0  0  0  0  0
   -1.7537    2.4138    0.0000 C   0  0  0  0  0  0  0  0  0  0  0  0
   -1.4418    3.8810    0.0000 C   0  0  0  0  0  0  0  0  0  0  0  0
   -2.5565    4.8847    0.0000 C   0  0  0  0  0  0  0  0  0  0  0  0
   -4.0238    4.5728    0.0000 C   0  0  0  0  0  0  0  0  0  0  0  0
   -4.7738    5.8718    0.0000 C   0  0  0  0  0  0  0  0  0  0  0  0
   -3.7701    6.9866    0.0000 C   0  0  0  0  0  0  0  0  0  0  0  0
   -2.3998    6.3765    0.0000 N   0  0  0  0  0  0  0  0  0  0  0  0
    1.5000  -10.3923    0.0000 C   0  0  0  0  0  0  0  0  0  0  0  0
    0.7500  -11.6913    0.0000 C   0  0  0  0  0  0  0  0  0  0  0  0
  1  2  1  0
  2  3  1  0
  3  4  2  0
  4  5  1  0
  5  6  2  0
  6  7  1  0
  7  8  1  0
  8  9  2  0
  8 10  1  0
 10 11  1  0
 11 12  2  0
 11 13  1  0
 13 14  1  0
 14 15  2  0
 15 16  1  0
 16 17  2  0
 17 18  1  0
 18 19  2  0
 18 20  1  0
 20 21  1  0
 21 22  2  0
 21 23  1  0
 23 24  2  0
 24 25  1  0
 25 26  2  0
 26 27  1  0
 27 28  2  0
 28 29  1  0
  6 30  1  0
 30 31  2  0
 31  3  1  0
 19 14  1  0
 29 25  1  0
 23 17  1  0
M  END
>  <Compound_ID>  (524) 
CHEMBL3322564

>  <Molecule Name>  (524) 
nan

>  <Molecular Weight>  (524) 
416.44

>  <AlogP>  (524) 
3.48

>  <Smiles>  (524) 
COc1ccc(NC(=O)CC(=O)Nc2ccc3c(c2)NC(=O)/C3=C\c2ccc[nH]2)cc1

>  <Standard Type>  (524) 
Inhibition

>  <Standard Relation>  (524) 
'='

>  <Standard Units>  (524) 
%

>  <Standard Value>  (524) 
4.0

>  <Assay ChEMBL ID>  (524) 
CHEMBL3362113

>  <Assay Description>  (524) 
Inhibition of c-Met (unknown origin) using KKKSPGEYVNIEFG substrate at 1 uM by radioisotope-based P81 filter-binding assay

>  <BAO Format ID>  (524) 
BAO_0000357

>  <BAO Label>  (524) 
single protein format

>  <Assay Organism>  (524) 
Homo sapiens

>  <Target ChEMBL ID>  (524) 
CHEMBL3717

>  <Target Name>  (524) 
Hepatocyte growth factor receptor

>  <Target Organism>  (524) 
Homo sapiens

>  <Target Type>  (524) 
SINGLE PROTEIN

>  <Document ChEMBL ID>  (524) 
CHEMBL3351387

>  <Source Description>  (524) 
Scientific Literature

>  <Document Journal>  (524) 
Eur J Med Chem

>  <Document Year>  (524) 
2014.0

>  <Active>  (524) 
0.0

$$$$

     RDKit          2D

 30 33  0  0  0  0  0  0  0  0999 V2000
   -0.7500   -6.4952    0.0000 O   0  0  0  0  0  0  0  0  0  0  0  0
    0.7500   -6.4952    0.0000 C   0  0  0  0  0  0  0  0  0  0  0  0
    1.5000   -5.1962    0.0000 C   0  0  0  0  0  0  0  0  0  0  0  0
    0.7500   -3.8971    0.0000 C   0  0  0  0  0  0  0  0  0  0  0  0
   -0.7500   -3.8971    0.0000 O   0  0  0  0  0  0  0  0  0  0  0  0
    1.5000   -2.5981    0.0000 N   0  0  0  0  0  0  0  0  0  0  0  0
    0.7500   -1.2990    0.0000 C   0  0  0  0  0  0  0  0  0  0  0  0
    1.5000    0.0000    0.0000 C   0  0  0  0  0  0  0  0  0  0  0  0
    0.7500    1.2990    0.0000 C   0  0  0  0  0  0  0  0  0  0  0  0
   -0.7500    1.2990    0.0000 C   0  0  0  0  0  0  0  0  0  0  0  0
   -1.5000    0.0000    0.0000 C   0  0  0  0  0  0  0  0  0  0  0  0
   -0.7500   -1.2990    0.0000 C   0  0  0  0  0  0  0  0  0  0  0  0
   -2.9672    0.3119    0.0000 N   0  0  0  0  0  0  0  0  0  0  0  0
   -3.1240    1.8037    0.0000 C   0  0  0  0  0  0  0  0  0  0  0  0
   -4.4231    2.5537    0.0000 O   0  0  0  0  0  0  0  0  0  0  0  0
   -1.7537    2.4138    0.0000 C   0  0  0  0  0  0  0  0  0  0  0  0
   -1.4418    3.8810    0.0000 C   0  0  0  0  0  0  0  0  0  0  0  0
   -2.5565    4.8847    0.0000 C   0  0  0  0  0  0  0  0  0  0  0  0
   -4.0238    4.5728    0.0000 C   0  0  0  0  0  0  0  0  0  0  0  0
   -4.7738    5.8718    0.0000 C   0  0  0  0  0  0  0  0  0  0  0  0
   -3.7701    6.9866    0.0000 C   0  0  0  0  0  0  0  0  0  0  0  0
   -2.3998    6.3765    0.0000 N   0  0  0  0  0  0  0  0  0  0  0  0
    1.5000   -7.7942    0.0000 N   0  0  0  0  0  0  0  0  0  0  0  0
    0.7500   -9.0933    0.0000 C   0  0  0  0  0  0  0  0  0  0  0  0
   -0.7500   -9.0933    0.0000 C   0  0  0  0  0  0  0  0  0  0  0  0
   -1.5000  -10.3923    0.0000 C   0  0  0  0  0  0  0  0  0  0  0  0
   -0.7500  -11.6913    0.0000 C   0  0  0  0  0  0  0  0  0  0  0  0
   -1.5000  -12.9904    0.0000 F   0  0  0  0  0  0  0  0  0  0  0  0
    0.7500  -11.6913    0.0000 C   0  0  0  0  0  0  0  0  0  0  0  0
    1.5000  -10.3923    0.0000 C   0  0  0  0  0  0  0  0  0  0  0  0
  1  2  2  0
  2  3  1  0
  3  4  1  0
  4  5  2  0
  4  6  1  0
  6  7  1  0
  7  8  2  0
  8  9  1  0
  9 10  2  0
 10 11  1  0
 11 12  2  0
 11 13  1  0
 13 14  1  0
 14 15  2  0
 14 16  1  0
 16 17  2  0
 17 18  1  0
 18 19  2  0
 19 20  1  0
 20 21  2  0
 21 22  1  0
  2 23  1  0
 23 24  1  0
 24 25  2  0
 25 26  1  0
 26 27  2  0
 27 28  1  0
 27 29  1  0
 29 30  2  0
 12  7  1  0
 22 18  1  0
 30 24  1  0
 16 10  1  0
M  END
>  <Compound_ID>  (525) 
CHEMBL3322563

>  <Molecule Name>  (525) 
nan

>  <Molecular Weight>  (525) 
404.40

>  <AlogP>  (525) 
3.61

>  <Smiles>  (525) 
O=C(CC(=O)Nc1ccc2c(c1)NC(=O)/C2=C\c1ccc[nH]1)Nc1ccc(F)cc1

>  <Standard Type>  (525) 
Inhibition

>  <Standard Relation>  (525) 
'='

>  <Standard Units>  (525) 
%

>  <Standard Value>  (525) 
0.0

>  <Assay ChEMBL ID>  (525) 
CHEMBL3362113

>  <Assay Description>  (525) 
Inhibition of c-Met (unknown origin) using KKKSPGEYVNIEFG substrate at 1 uM by radioisotope-based P81 filter-binding assay

>  <BAO Format ID>  (525) 
BAO_0000357

>  <BAO Label>  (525) 
single protein format

>  <Assay Organism>  (525) 
Homo sapiens

>  <Target ChEMBL ID>  (525) 
CHEMBL3717

>  <Target Name>  (525) 
Hepatocyte growth factor receptor

>  <Target Organism>  (525) 
Homo sapiens

>  <Target Type>  (525) 
SINGLE PROTEIN

>  <Document ChEMBL ID>  (525) 
CHEMBL3351387

>  <Source Description>  (525) 
Scientific Literature

>  <Document Journal>  (525) 
Eur J Med Chem

>  <Document Year>  (525) 
2014.0

>  <Active>  (525) 
0.0

$$$$

     RDKit          2D

 38 42  0  0  0  0  0  0  0  0999 V2000
   10.2221   -8.9017    0.0000 C   0  0  0  0  0  0  0  0  0  0  0  0
   10.2221   -7.4017    0.0000 C   0  0  0  0  0  0  0  0  0  0  0  0
    8.9231   -6.6517    0.0000 O   0  0  0  0  0  0  0  0  0  0  0  0
    8.9231   -5.1517    0.0000 C   0  0  0  0  0  0  0  0  0  0  0  0
   10.2221   -4.4017    0.0000 O   0  0  0  0  0  0  0  0  0  0  0  0
    7.6240   -4.4017    0.0000 C   0  0  0  0  0  0  0  0  0  0  0  0
    6.2537   -5.0118    0.0000 C   0  0  0  0  0  0  0  0  0  0  0  0
    5.2500   -3.8971    0.0000 C   0  0  0  0  0  0  0  0  0  0  0  0
    3.7500   -3.8971    0.0000 C   0  0  0  0  0  0  0  0  0  0  0  0
    3.0000   -2.5981    0.0000 C   0  0  0  0  0  0  0  0  0  0  0  0
    1.5000   -2.5981    0.0000 N   0  0  0  0  0  0  0  0  0  0  0  0
    0.7500   -1.2990    0.0000 C   0  0  0  0  0  0  0  0  0  0  0  0
    1.5000    0.0000    0.0000 N   0  0  0  0  0  0  0  0  0  0  0  0
    0.7500    1.2990    0.0000 C   0  0  0  0  0  0  0  0  0  0  0  0
   -0.7500    1.2990    0.0000 N   0  0  0  0  0  0  0  0  0  0  0  0
   -1.5000    0.0000    0.0000 C   0  0  0  0  0  0  0  0  0  0  0  0
   -3.0000    0.0000    0.0000 C   0  0  0  0  0  0  0  0  0  0  0  0
   -3.7500   -1.2990    0.0000 C   0  0  0  0  0  0  0  0  0  0  0  0
   -5.2500   -1.2990    0.0000 O   0  0  0  0  0  0  0  0  0  0  0  0
   -6.0000    0.0000    0.0000 C   0  0  0  0  0  0  0  0  0  0  0  0
   -7.5000   -0.0000    0.0000 C   0  0  0  0  0  0  0  0  0  0  0  0
   -8.2500    1.2990    0.0000 C   0  0  0  0  0  0  0  0  0  0  0  0
   -9.7500    1.2990    0.0000 N   0  0  0  0  0  0  0  0  0  0  0  0
  -10.5000    2.5981    0.0000 C   0  0  0  0  0  0  0  0  0  0  0  0
  -12.0000    2.5981    0.0000 C   0  0  0  0  0  0  0  0  0  0  0  0
  -12.7500    1.2990    0.0000 C   0  0  0  0  0  0  0  0  0  0  0  0
  -14.2500    1.2990    0.0000 C   0  0  0  0  0  0  0  0  0  0  0  0
  -12.0000    0.0000    0.0000 C   0  0  0  0  0  0  0  0  0  0  0  0
  -10.5000    0.0000    0.0000 C   0  0  0  0  0  0  0  0  0  0  0  0
   -3.0000   -2.5981    0.0000 C   0  0  0  0  0  0  0  0  0  0  0  0
   -3.7500   -3.8971    0.0000 O   0  0  0  0  0  0  0  0  0  0  0  0
   -5.2500   -3.8971    0.0000 C   0  0  0  0  0  0  0  0  0  0  0  0
   -1.5000   -2.5981    0.0000 C   0  0  0  0  0  0  0  0  0  0  0  0
   -0.7500   -1.2990    0.0000 C   0  0  0  0  0  0  0  0  0  0  0  0
    3.7500   -1.2990    0.0000 C   0  0  0  0  0  0  0  0  0  0  0  0
    5.2500   -1.2990    0.0000 C   0  0  0  0  0  0  0  0  0  0  0  0
    6.0000   -2.5981    0.0000 C   0  0  0  0  0  0  0  0  0  0  0  0
    7.4672   -2.9099    0.0000 S   0  0  0  0  0  0  0  0  0  0  0  0
  1  2  1  0
  2  3  1  0
  3  4  1  0
  4  5  2  0
  4  6  1  0
  6  7  2  0
  7  8  1  0
  8  9  2  0
  9 10  1  0
 10 11  1  0
 11 12  1  0
 12 13  2  0
 13 14  1  0
 14 15  2  0
 15 16  1  0
 16 17  2  0
 17 18  1  0
 18 19  1  0
 19 20  1  0
 20 21  1  0
 21 22  1  0
 22 23  1  0
 23 24  1  0
 24 25  1  0
 25 26  1  0
 26 27  1  0
 26 28  1  0
 28 29  1  0
 18 30  2  0
 30 31  1  0
 31 32  1  0
 30 33  1  0
 33 34  2  0
 10 35  2  0
 35 36  1  0
 36 37  2  0
 37 38  1  0
 38  6  1  0
 37  8  1  0
 34 12  1  0
 34 16  1  0
 29 23  1  0
M  END
>  <Compound_ID>  (526) 
CHEMBL1163749

>  <Molecule Name>  (526) 
nan

>  <Molecular Weight>  (526) 
534.68

>  <AlogP>  (526) 
6.27

>  <Smiles>  (526) 
CCOC(=O)c1cc2cc(Nc3ncnc4cc(OCCCN5CCC(C)CC5)c(OC)cc34)ccc2s1

>  <Standard Type>  (526) 
Inhibition

>  <Standard Relation>  (526) 
'='

>  <Standard Units>  (526) 
%

>  <Standard Value>  (526) 
14.14

>  <Assay ChEMBL ID>  (526) 
CHEMBL1169263

>  <Assay Description>  (526) 
Inhibition of MET at 10 uM

>  <BAO Format ID>  (526) 
BAO_0000357

>  <BAO Label>  (526) 
single protein format

>  <Assay Organism>  (526) 
None

>  <Target ChEMBL ID>  (526) 
CHEMBL3717

>  <Target Name>  (526) 
Hepatocyte growth factor receptor

>  <Target Organism>  (526) 
Homo sapiens

>  <Target Type>  (526) 
SINGLE PROTEIN

>  <Document ChEMBL ID>  (526) 
CHEMBL1165936

>  <Source Description>  (526) 
Scientific Literature

>  <Document Journal>  (526) 
Bioorg Med Chem

>  <Document Year>  (526) 
2010.0

>  <Active>  (526) 
0.0

$$$$

     RDKit          2D

 25 27  0  0  0  0  0  0  0  0999 V2000
   -2.5981  -12.6073    0.0000 C   0  0  0  0  0  0  0  0  0  0  0  0
   -1.2990  -11.8573    0.0000 O   0  0  0  0  0  0  0  0  0  0  0  0
   -1.2990  -10.3573    0.0000 C   0  0  0  0  0  0  0  0  0  0  0  0
   -2.5981   -9.6073    0.0000 C   0  0  0  0  0  0  0  0  0  0  0  0
   -2.5981   -8.1073    0.0000 C   0  0  0  0  0  0  0  0  0  0  0  0
   -1.2990   -7.3573    0.0000 C   0  0  0  0  0  0  0  0  0  0  0  0
   -1.2990   -5.8573    0.0000 C   0  0  0  0  0  0  0  0  0  0  0  0
   -2.5981   -5.1073    0.0000 O   0  0  0  0  0  0  0  0  0  0  0  0
   -0.0000   -5.1073    0.0000 N   0  0  0  0  0  0  0  0  0  0  0  0
   -0.0000   -3.6073    0.0000 C   0  0  0  0  0  0  0  0  0  0  0  0
   -1.2135   -2.7256    0.0000 S   0  0  0  0  0  0  0  0  0  0  0  0
   -0.7500   -1.2990    0.0000 C   0  0  0  0  0  0  0  0  0  0  0  0
    0.7500   -1.2990    0.0000 C   0  0  0  0  0  0  0  0  0  0  0  0
    1.2135   -2.7256    0.0000 C   0  0  0  0  0  0  0  0  0  0  0  0
    2.6401   -3.1891    0.0000 C   0  0  0  0  0  0  0  0  0  0  0  0
    2.9520   -4.6564    0.0000 N   0  0  0  0  0  0  0  0  0  0  0  0
    3.7548   -2.1855    0.0000 O   0  0  0  0  0  0  0  0  0  0  0  0
    1.5000    0.0000    0.0000 C   0  0  0  0  0  0  0  0  0  0  0  0
    0.7500    1.2990    0.0000 C   0  0  0  0  0  0  0  0  0  0  0  0
   -0.7500    1.2990    0.0000 C   0  0  0  0  0  0  0  0  0  0  0  0
   -1.5000    0.0000    0.0000 C   0  0  0  0  0  0  0  0  0  0  0  0
   -0.0000   -8.1073    0.0000 C   0  0  0  0  0  0  0  0  0  0  0  0
   -0.0000   -9.6073    0.0000 C   0  0  0  0  0  0  0  0  0  0  0  0
    1.2990  -10.3573    0.0000 O   0  0  0  0  0  0  0  0  0  0  0  0
    2.5981   -9.6073    0.0000 C   0  0  0  0  0  0  0  0  0  0  0  0
  1  2  1  0
  2  3  1  0
  3  4  2  0
  4  5  1  0
  5  6  2  0
  6  7  1  0
  7  8  2  0
  7  9  1  0
  9 10  1  0
 10 11  1  0
 11 12  1  0
 12 13  2  0
 13 14  1  0
 14 15  1  0
 15 16  1  0
 15 17  2  0
 13 18  1  0
 18 19  1  0
 19 20  1  0
 20 21  1  0
  6 22  1  0
 22 23  2  0
 23 24  1  0
 24 25  1  0
 23  3  1  0
 14 10  2  0
 21 12  1  0
M  END
>  <Compound_ID>  (527) 
CHEMBL210833

>  <Molecule Name>  (527) 
nan

>  <Molecular Weight>  (527) 
360.44

>  <AlogP>  (527) 
3.00

>  <Smiles>  (527) 
COc1ccc(C(=O)Nc2sc3c(c2C(N)=O)CCCC3)cc1OC

>  <Standard Type>  (527) 
Inhibition

>  <Standard Relation>  (527) 
'='

>  <Standard Units>  (527) 
%

>  <Standard Value>  (527) 
13.0

>  <Assay ChEMBL ID>  (527) 
CHEMBL859765

>  <Assay Description>  (527) 
Inhibition of human Met at 3 uM in presence of 10 uM ATP

>  <BAO Format ID>  (527) 
BAO_0000357

>  <BAO Label>  (527) 
single protein format

>  <Assay Organism>  (527) 
Homo sapiens

>  <Target ChEMBL ID>  (527) 
CHEMBL3717

>  <Target Name>  (527) 
Hepatocyte growth factor receptor

>  <Target Organism>  (527) 
Homo sapiens

>  <Target Type>  (527) 
SINGLE PROTEIN

>  <Document ChEMBL ID>  (527) 
CHEMBL1147807

>  <Source Description>  (527) 
Scientific Literature

>  <Document Journal>  (527) 
Bioorg Med Chem Lett

>  <Document Year>  (527) 
2006.0

>  <Active>  (527) 
0.0

$$$$

     RDKit          2D

 43 48  0  0  0  0  0  0  0  0999 V2000
   -2.0316    4.0898    0.0000 O   0  0  0  0  0  0  0  0  0  0  0  0
   -3.1463    5.0935    0.0000 C   0  0  0  0  0  0  0  0  0  0  0  0
   -4.5729    4.6300    0.0000 N   0  0  0  0  0  0  0  0  0  0  0  0
   -4.8848    3.1627    0.0000 C   0  0  0  0  0  0  0  0  0  0  0  0
   -6.3114    2.6992    0.0000 C   0  0  0  0  0  0  0  0  0  0  0  0
   -6.6232    1.2320    0.0000 C   0  0  0  0  0  0  0  0  0  0  0  0
   -5.5085    0.2283    0.0000 C   0  0  0  0  0  0  0  0  0  0  0  0
   -4.0819    0.6918    0.0000 C   0  0  0  0  0  0  0  0  0  0  0  0
   -2.9672   -0.3119    0.0000 N   0  0  0  0  0  0  0  0  0  0  0  0
   -3.1240   -1.8037    0.0000 C   0  0  0  0  0  0  0  0  0  0  0  0
   -1.7537   -2.4138    0.0000 C   0  0  0  0  0  0  0  0  0  0  0  0
   -0.7500   -1.2990    0.0000 C   0  0  0  0  0  0  0  0  0  0  0  0
    0.7500   -1.2990    0.0000 C   0  0  0  0  0  0  0  0  0  0  0  0
    1.5000   -2.5981    0.0000 N   0  0  0  0  0  0  0  0  0  0  0  0
    3.0000   -2.5981    0.0000 C   0  0  0  0  0  0  0  0  0  0  0  0
    3.7500   -1.2990    0.0000 O   0  0  0  0  0  0  0  0  0  0  0  0
    3.7500   -3.8971    0.0000 C   0  0  0  0  0  0  0  0  0  0  0  0
    3.0000   -5.1962    0.0000 C   0  0  0  0  0  0  0  0  0  0  0  0
    3.7500   -6.4952    0.0000 C   0  0  0  0  0  0  0  0  0  0  0  0
    5.2500   -6.4952    0.0000 C   0  0  0  0  0  0  0  0  0  0  0  0
    6.0000   -5.1962    0.0000 C   0  0  0  0  0  0  0  0  0  0  0  0
    5.2500   -3.8971    0.0000 C   0  0  0  0  0  0  0  0  0  0  0  0
    1.5000    0.0000    0.0000 N   0  0  0  0  0  0  0  0  0  0  0  0
    0.7500    1.2990    0.0000 C   0  0  0  0  0  0  0  0  0  0  0  0
   -0.7500    1.2990    0.0000 C   0  0  0  0  0  0  0  0  0  0  0  0
   -1.5000    0.0000    0.0000 C   0  0  0  0  0  0  0  0  0  0  0  0
   -3.7701    2.1590    0.0000 C   0  0  0  0  0  0  0  0  0  0  0  0
   -2.8345    6.5607    0.0000 C   0  0  0  0  0  0  0  0  0  0  0  0
   -1.4079    7.0242    0.0000 C   0  0  0  0  0  0  0  0  0  0  0  0
   -1.0960    8.4915    0.0000 C   0  0  0  0  0  0  0  0  0  0  0  0
   -2.2107    9.4952    0.0000 C   0  0  0  0  0  0  0  0  0  0  0  0
   -1.8989   10.9624    0.0000 N   0  0  0  0  0  0  0  0  0  0  0  0
   -0.4723   11.4259    0.0000 C   0  0  0  0  0  0  0  0  0  0  0  0
   -0.1604   12.8931    0.0000 C   0  0  0  0  0  0  0  0  0  0  0  0
   -1.2751   13.8968    0.0000 O   0  0  0  0  0  0  0  0  0  0  0  0
   -2.7017   13.4333    0.0000 C   0  0  0  0  0  0  0  0  0  0  0  0
   -3.0136   11.9661    0.0000 C   0  0  0  0  0  0  0  0  0  0  0  0
   -3.6373    9.0316    0.0000 C   0  0  0  0  0  0  0  0  0  0  0  0
   -4.7520   10.0353    0.0000 C   0  0  0  0  0  0  0  0  0  0  0  0
   -5.8668   11.0390    0.0000 F   0  0  0  0  0  0  0  0  0  0  0  0
   -5.7557    8.9206    0.0000 F   0  0  0  0  0  0  0  0  0  0  0  0
   -3.7483   11.1500    0.0000 F   0  0  0  0  0  0  0  0  0  0  0  0
   -3.9492    7.5644    0.0000 C   0  0  0  0  0  0  0  0  0  0  0  0
  1  2  2  0
  2  3  1  0
  3  4  1  0
  4  5  2  0
  5  6  1  0
  6  7  2  0
  7  8  1  0
  8  9  1  0
  9 10  1  0
 10 11  2  0
 11 12  1  0
 12 13  2  0
 13 14  1  0
 14 15  1  0
 15 16  2  0
 15 17  1  0
 17 18  2  0
 18 19  1  0
 19 20  2  0
 20 21  1  0
 21 22  2  0
 13 23  1  0
 23 24  2  0
 24 25  1  0
 25 26  2  0
  8 27  2  0
  2 28  1  0
 28 29  2  0
 29 30  1  0
 30 31  2  0
 31 32  1  0
 32 33  1  0
 33 34  1  0
 34 35  1  0
 35 36  1  0
 36 37  1  0
 31 38  1  0
 38 39  1  0
 39 40  1  0
 39 41  1  0
 39 42  1  0
 38 43  2  0
 27  4  1  0
 43 28  1  0
 26  9  1  0
 37 32  1  0
 26 12  1  0
 22 17  1  0
M  END
>  <Compound_ID>  (528) 
CHEMBL1084450

>  <Molecule Name>  (528) 
nan

>  <Molecular Weight>  (528) 
585.59

>  <AlogP>  (528) 
6.39

>  <Smiles>  (528) 
O=C(Nc1cccc(-n2ccc3c(NC(=O)c4ccccc4)nccc32)c1)c1ccc(N2CCOCC2)c(C(F)(F)F)c1

>  <Standard Type>  (528) 
Inhibition

>  <Standard Relation>  (528) 
'='

>  <Standard Units>  (528) 
%

>  <Standard Value>  (528) 
-16.0

>  <Assay ChEMBL ID>  (528) 
CHEMBL1120353

>  <Assay Description>  (528) 
Inhibition of cMet at 1 uM

>  <BAO Format ID>  (528) 
BAO_0000357

>  <BAO Label>  (528) 
single protein format

>  <Assay Organism>  (528) 
None

>  <Target ChEMBL ID>  (528) 
CHEMBL3717

>  <Target Name>  (528) 
Hepatocyte growth factor receptor

>  <Target Organism>  (528) 
Homo sapiens

>  <Target Type>  (528) 
SINGLE PROTEIN

>  <Document ChEMBL ID>  (528) 
CHEMBL1155511

>  <Source Description>  (528) 
Scientific Literature

>  <Document Journal>  (528) 
Bioorg Med Chem Lett

>  <Document Year>  (528) 
2010.0

>  <Active>  (528) 
0.0

$$$$

     RDKit          2D

 27 30  0  0  0  0  0  0  0  0999 V2000
  -13.3148   -1.8752    0.0000 C   0  0  0  0  0  0  0  0  0  0  0  0
  -11.8882   -2.3387    0.0000 O   0  0  0  0  0  0  0  0  0  0  0  0
  -10.7735   -1.3350    0.0000 C   0  0  0  0  0  0  0  0  0  0  0  0
  -11.0854    0.1322    0.0000 C   0  0  0  0  0  0  0  0  0  0  0  0
   -9.9707    1.1359    0.0000 C   0  0  0  0  0  0  0  0  0  0  0  0
   -8.5441    0.6723    0.0000 C   0  0  0  0  0  0  0  0  0  0  0  0
   -8.2322   -0.7949    0.0000 C   0  0  0  0  0  0  0  0  0  0  0  0
   -6.8056   -1.2584    0.0000 C   0  0  0  0  0  0  0  0  0  0  0  0
   -6.4937   -2.7256    0.0000 O   0  0  0  0  0  0  0  0  0  0  0  0
   -5.0672   -3.1891    0.0000 C   0  0  0  0  0  0  0  0  0  0  0  0
   -3.8536   -2.3075    0.0000 C   0  0  0  0  0  0  0  0  0  0  0  0
   -2.6401   -3.1891    0.0000 C   0  0  0  0  0  0  0  0  0  0  0  0
   -1.2135   -2.7256    0.0000 N   0  0  0  0  0  0  0  0  0  0  0  0
   -0.0000   -3.6073    0.0000 C   0  0  0  0  0  0  0  0  0  0  0  0
    1.2135   -2.7256    0.0000 N   0  0  0  0  0  0  0  0  0  0  0  0
    0.7500   -1.2990    0.0000 C   0  0  0  0  0  0  0  0  0  0  0  0
    1.5000    0.0000    0.0000 C   0  0  0  0  0  0  0  0  0  0  0  0
    0.7500    1.2990    0.0000 C   0  0  0  0  0  0  0  0  0  0  0  0
   -0.7500    1.2990    0.0000 C   0  0  0  0  0  0  0  0  0  0  0  0
   -1.5000    0.0000    0.0000 C   0  0  0  0  0  0  0  0  0  0  0  0
   -0.7500   -1.2990    0.0000 C   0  0  0  0  0  0  0  0  0  0  0  0
   -3.1036   -4.6157    0.0000 S   0  0  0  0  0  0  0  0  0  0  0  0
   -4.6036   -4.6157    0.0000 C   0  0  0  0  0  0  0  0  0  0  0  0
   -5.4853   -5.8293    0.0000 C   0  0  0  0  0  0  0  0  0  0  0  0
   -4.8752   -7.1996    0.0000 N   0  0  0  0  0  0  0  0  0  0  0  0
   -6.9771   -5.6725    0.0000 O   0  0  0  0  0  0  0  0  0  0  0  0
   -9.3469   -1.7986    0.0000 C   0  0  0  0  0  0  0  0  0  0  0  0
  1  2  1  0
  2  3  1  0
  3  4  2  0
  4  5  1  0
  5  6  2  0
  6  7  1  0
  7  8  1  0
  8  9  1  0
  9 10  1  0
 10 11  1  0
 11 12  2  0
 12 13  1  0
 13 14  1  0
 14 15  2  0
 15 16  1  0
 16 17  2  0
 17 18  1  0
 18 19  2  0
 19 20  1  0
 20 21  2  0
 12 22  1  0
 22 23  1  0
 23 24  1  0
 24 25  1  0
 24 26  2  0
  7 27  2  0
 27  3  1  0
 23 10  2  0
 21 13  1  0
 21 16  1  0
M  END
>  <Compound_ID>  (529) 
CHEMBL516248

>  <Molecule Name>  (529) 
GW804482X

>  <Molecular Weight>  (529) 
379.44

>  <AlogP>  (529) 
3.77

>  <Smiles>  (529) 
COc1cccc(COc2cc(-n3cnc4ccccc43)sc2C(N)=O)c1

>  <Standard Type>  (529) 
Inhibition

>  <Standard Relation>  (529) 
'='

>  <Standard Units>  (529) 
%

>  <Standard Value>  (529) 
4.83

>  <Assay ChEMBL ID>  (529) 
CHEMBL1962142

>  <Assay Description>  (529) 
GSK_PKIS: MET mean inhibition at 0.1 uM [Nanosyn]

>  <BAO Format ID>  (529) 
BAO_0000357

>  <BAO Label>  (529) 
single protein format

>  <Assay Organism>  (529) 
None

>  <Target ChEMBL ID>  (529) 
CHEMBL3717

>  <Target Name>  (529) 
Hepatocyte growth factor receptor

>  <Target Organism>  (529) 
Homo sapiens

>  <Target Type>  (529) 
SINGLE PROTEIN

>  <Document ChEMBL ID>  (529) 
CHEMBL1961873

>  <Source Description>  (529) 
GSK Published Kinase Inhibitor Set

>  <Document Journal>  (529) 
nan

>  <Document Year>  (529) 
nan

>  <Active>  (529) 
0.0

$$$$

     RDKit          2D

 30 33  0  0  0  0  0  0  0  0999 V2000
    4.5000    0.0000    0.0000 N   0  0  0  0  0  0  0  0  0  0  0  0
    3.0000    0.0000    0.0000 C   0  0  0  0  0  0  0  0  0  0  0  0
    1.5000    0.0000    0.0000 C   0  0  0  0  0  0  0  0  0  0  0  0
    0.7500   -1.2990    0.0000 C   0  0  0  0  0  0  0  0  0  0  0  0
    1.5000   -2.5981    0.0000 C   0  0  0  0  0  0  0  0  0  0  0  0
    0.7500   -3.8971    0.0000 C   0  0  0  0  0  0  0  0  0  0  0  0
    1.5000   -5.1962    0.0000 C   0  0  0  0  0  0  0  0  0  0  0  0
    3.0000   -5.1962    0.0000 C   0  0  0  0  0  0  0  0  0  0  0  0
    3.7500   -3.8971    0.0000 C   0  0  0  0  0  0  0  0  0  0  0  0
    3.0000   -2.5981    0.0000 C   0  0  0  0  0  0  0  0  0  0  0  0
   -0.7500   -1.2990    0.0000 C   0  0  0  0  0  0  0  0  0  0  0  0
   -1.5000    0.0000    0.0000 C   0  0  0  0  0  0  0  0  0  0  0  0
   -3.0000    0.0000    0.0000 C   0  0  0  0  0  0  0  0  0  0  0  0
   -3.7500    1.2990    0.0000 C   0  0  0  0  0  0  0  0  0  0  0  0
   -5.2500    1.2990    0.0000 C   0  0  0  0  0  0  0  0  0  0  0  0
   -6.0000    0.0000    0.0000 C   0  0  0  0  0  0  0  0  0  0  0  0
   -5.2500   -1.2990    0.0000 C   0  0  0  0  0  0  0  0  0  0  0  0
   -3.7500   -1.2990    0.0000 C   0  0  0  0  0  0  0  0  0  0  0  0
   -0.7500    1.2990    0.0000 N   0  0  0  0  0  0  0  0  0  0  0  0
    0.7500    1.2990    0.0000 C   0  0  0  0  0  0  0  0  0  0  0  0
    1.5000    2.5981    0.0000 N   0  0  0  0  0  0  0  0  0  0  0  0
    0.7500    3.8971    0.0000 C   0  0  0  0  0  0  0  0  0  0  0  0
   -0.7500    3.8971    0.0000 S   0  0  0  0  0  0  0  0  0  0  0  0
    1.5000    5.1962    0.0000 N   0  0  0  0  0  0  0  0  0  0  0  0
    0.7500    6.4952    0.0000 C   0  0  0  0  0  0  0  0  0  0  0  0
    1.5000    7.7942    0.0000 C   0  0  0  0  0  0  0  0  0  0  0  0
    0.7500    9.0933    0.0000 C   0  0  0  0  0  0  0  0  0  0  0  0
   -0.7500    9.0933    0.0000 C   0  0  0  0  0  0  0  0  0  0  0  0
   -1.5000    7.7942    0.0000 C   0  0  0  0  0  0  0  0  0  0  0  0
   -0.7500    6.4952    0.0000 C   0  0  0  0  0  0  0  0  0  0  0  0
  1  2  3  0
  2  3  1  0
  3  4  2  0
  4  5  1  0
  5  6  2  0
  6  7  1  0
  7  8  2  0
  8  9  1  0
  9 10  2  0
  4 11  1  0
 11 12  2  0
 12 13  1  0
 13 14  2  0
 14 15  1  0
 15 16  2  0
 16 17  1  0
 17 18  2  0
 12 19  1  0
 19 20  2  0
 20 21  1  0
 21 22  1  0
 22 23  2  0
 22 24  1  0
 24 25  1  0
 25 26  2  0
 26 27  1  0
 27 28  2  0
 28 29  1  0
 29 30  2  0
 20  3  1  0
 30 25  1  0
 10  5  1  0
 18 13  1  0
M  END
>  <Compound_ID>  (530) 
CHEMBL3408381

>  <Molecule Name>  (530) 
nan

>  <Molecular Weight>  (530) 
406.51

>  <AlogP>  (530) 
6.10

>  <Smiles>  (530) 
N#Cc1c(-c2ccccc2)cc(-c2ccccc2)nc1NC(=S)Nc1ccccc1

>  <Standard Type>  (530) 
Inhibition

>  <Standard Relation>  (530) 
'='

>  <Standard Units>  (530) 
%

>  <Standard Value>  (530) 
8.0

>  <Assay ChEMBL ID>  (530) 
CHEMBL3413727

>  <Assay Description>  (530) 
Inhibition of MET (unknown origin) assessed as inhibition of peptide phosphorylation at 30 uM by based microfluidic mobility shift assay

>  <BAO Format ID>  (530) 
BAO_0000357

>  <BAO Label>  (530) 
single protein format

>  <Assay Organism>  (530) 
Homo sapiens

>  <Target ChEMBL ID>  (530) 
CHEMBL3717

>  <Target Name>  (530) 
Hepatocyte growth factor receptor

>  <Target Organism>  (530) 
Homo sapiens

>  <Target Type>  (530) 
SINGLE PROTEIN

>  <Document ChEMBL ID>  (530) 
CHEMBL3407353

>  <Source Description>  (530) 
Scientific Literature

>  <Document Journal>  (530) 
Eur J Med Chem

>  <Document Year>  (530) 
2015.0

>  <Active>  (530) 
0.0

$$$$

     RDKit          2D

 26 30  0  0  0  0  0  0  0  0999 V2000
    2.3907    1.0037    0.0000 C   0  0  0  0  0  0  0  0  0  0  0  0
    1.2760    0.0000    0.0000 C   0  0  0  0  0  0  0  0  0  0  0  0
    2.3907   -1.0037    0.0000 C   0  0  0  0  0  0  0  0  0  0  0  0
    0.3943    1.2135    0.0000 O   0  0  0  0  0  0  0  0  0  0  0  0
   -1.0323    0.7500    0.0000 C   0  0  0  0  0  0  0  0  0  0  0  0
   -1.0323   -0.7500    0.0000 C   0  0  0  0  0  0  0  0  0  0  0  0
   -2.1470   -1.7537    0.0000 C   0  0  0  0  0  0  0  0  0  0  0  0
   -3.5736   -1.2902    0.0000 N   0  0  0  0  0  0  0  0  0  0  0  0
   -4.6883   -2.2939    0.0000 C   0  0  0  0  0  0  0  0  0  0  0  0
   -4.5315   -3.7856    0.0000 N   0  0  0  0  0  0  0  0  0  0  0  0
   -5.9018   -4.3958    0.0000 N   0  0  0  0  0  0  0  0  0  0  0  0
   -6.9055   -3.2810    0.0000 C   0  0  0  0  0  0  0  0  0  0  0  0
   -8.4055   -3.2810    0.0000 C   0  0  0  0  0  0  0  0  0  0  0  0
   -9.1555   -1.9820    0.0000 C   0  0  0  0  0  0  0  0  0  0  0  0
   -8.4055   -0.6830    0.0000 C   0  0  0  0  0  0  0  0  0  0  0  0
   -6.9055   -0.6830    0.0000 C   0  0  0  0  0  0  0  0  0  0  0  0
   -6.1555   -1.9820    0.0000 C   0  0  0  0  0  0  0  0  0  0  0  0
   -1.8351   -3.2209    0.0000 N   0  0  0  0  0  0  0  0  0  0  0  0
   -0.4086   -3.6844    0.0000 C   0  0  0  0  0  0  0  0  0  0  0  0
   -0.0967   -5.1517    0.0000 C   0  0  0  0  0  0  0  0  0  0  0  0
    1.2736   -5.7618    0.0000 C   0  0  0  0  0  0  0  0  0  0  0  0
    1.1168   -7.2536    0.0000 N   0  0  0  0  0  0  0  0  0  0  0  0
   -0.3504   -7.5654    0.0000 N   0  0  0  0  0  0  0  0  0  0  0  0
   -1.1004   -6.2664    0.0000 C   0  0  0  0  0  0  0  0  0  0  0  0
    0.7062   -2.6807    0.0000 N   0  0  0  0  0  0  0  0  0  0  0  0
    0.3943   -1.2135    0.0000 C   0  0  0  0  0  0  0  0  0  0  0  0
  1  2  1  0
  2  3  1  0
  2  4  1  0
  4  5  1  0
  5  6  1  0
  6  7  2  0
  7  8  1  0
  8  9  1  0
  9 10  2  0
 10 11  1  0
 11 12  1  0
 12 13  2  0
 13 14  1  0
 14 15  2  0
 15 16  1  0
 16 17  2  0
  7 18  1  0
 18 19  2  0
 19 20  1  0
 20 21  1  0
 21 22  2  0
 22 23  1  0
 23 24  1  0
 19 25  1  0
 25 26  2  0
 26  2  1  0
 26  6  1  0
 17  9  1  0
 24 20  2  0
 17 12  1  0
M  END
>  <Compound_ID>  (531) 
CHEMBL3758502

>  <Molecule Name>  (531) 
nan

>  <Molecular Weight>  (531) 
347.38

>  <AlogP>  (531) 
3.25

>  <Smiles>  (531) 
CC1(C)OCc2c(Nc3n[nH]c4ccccc34)nc(-c3cn[nH]c3)nc21

>  <Standard Type>  (531) 
Inhibition

>  <Standard Relation>  (531) 
'='

>  <Standard Units>  (531) 
%

>  <Standard Value>  (531) 
7.9

>  <Assay ChEMBL ID>  (531) 
CHEMBL3760656

>  <Assay Description>  (531) 
Inhibition of MET (unknown origin) at 100 nM

>  <BAO Format ID>  (531) 
BAO_0000357

>  <BAO Label>  (531) 
single protein format

>  <Assay Organism>  (531) 
Homo sapiens

>  <Target ChEMBL ID>  (531) 
CHEMBL3717

>  <Target Name>  (531) 
Hepatocyte growth factor receptor

>  <Target Organism>  (531) 
Homo sapiens

>  <Target Type>  (531) 
SINGLE PROTEIN

>  <Document ChEMBL ID>  (531) 
CHEMBL3758169

>  <Source Description>  (531) 
Scientific Literature

>  <Document Journal>  (531) 
Bioorg Med Chem Lett

>  <Document Year>  (531) 
2016.0

>  <Active>  (531) 
0.0

$$$$

     RDKit          2D

 31 35  0  0  0  0  0  0  0  0999 V2000
   12.7500   -1.2990    0.0000 F   0  0  0  0  0  0  0  0  0  0  0  0
   12.0000   -2.5981    0.0000 C   0  0  0  0  0  0  0  0  0  0  0  0
   12.7500   -3.8971    0.0000 C   0  0  0  0  0  0  0  0  0  0  0  0
   12.0000   -5.1962    0.0000 C   0  0  0  0  0  0  0  0  0  0  0  0
   10.5000   -5.1962    0.0000 C   0  0  0  0  0  0  0  0  0  0  0  0
    9.7500   -3.8971    0.0000 C   0  0  0  0  0  0  0  0  0  0  0  0
    8.2500   -3.8971    0.0000 C   0  0  0  0  0  0  0  0  0  0  0  0
    7.5000   -2.5981    0.0000 O   0  0  0  0  0  0  0  0  0  0  0  0
    6.0000   -2.5981    0.0000 C   0  0  0  0  0  0  0  0  0  0  0  0
    5.2500   -1.2990    0.0000 C   0  0  0  0  0  0  0  0  0  0  0  0
    3.7500   -1.2990    0.0000 C   0  0  0  0  0  0  0  0  0  0  0  0
    3.0000   -2.5981    0.0000 C   0  0  0  0  0  0  0  0  0  0  0  0
    1.5000   -2.5981    0.0000 N   0  0  0  0  0  0  0  0  0  0  0  0
    0.7500   -1.2990    0.0000 C   0  0  0  0  0  0  0  0  0  0  0  0
    1.5000    0.0000    0.0000 N   0  0  0  0  0  0  0  0  0  0  0  0
    0.7500    1.2990    0.0000 C   0  0  0  0  0  0  0  0  0  0  0  0
   -0.7500    1.2990    0.0000 N   0  0  0  0  0  0  0  0  0  0  0  0
   -1.5000    0.0000    0.0000 C   0  0  0  0  0  0  0  0  0  0  0  0
   -2.9672   -0.3119    0.0000 S   0  0  0  0  0  0  0  0  0  0  0  0
   -3.1240   -1.8037    0.0000 C   0  0  0  0  0  0  0  0  0  0  0  0
   -4.4231   -2.5537    0.0000 C   0  0  0  0  0  0  0  0  0  0  0  0
   -4.5798   -4.0454    0.0000 C   0  0  0  0  0  0  0  0  0  0  0  0
   -6.0471   -4.3573    0.0000 C   0  0  0  0  0  0  0  0  0  0  0  0
   -6.7971   -3.0583    0.0000 C   0  0  0  0  0  0  0  0  0  0  0  0
   -5.7934   -1.9435    0.0000 O   0  0  0  0  0  0  0  0  0  0  0  0
   -1.7537   -2.4138    0.0000 C   0  0  0  0  0  0  0  0  0  0  0  0
   -0.7500   -1.2990    0.0000 C   0  0  0  0  0  0  0  0  0  0  0  0
    3.7500   -3.8971    0.0000 C   0  0  0  0  0  0  0  0  0  0  0  0
    5.2500   -3.8971    0.0000 C   0  0  0  0  0  0  0  0  0  0  0  0
    6.0000   -5.1962    0.0000 Cl  0  0  0  0  0  0  0  0  0  0  0  0
   10.5000   -2.5981    0.0000 C   0  0  0  0  0  0  0  0  0  0  0  0
  1  2  1  0
  2  3  2  0
  3  4  1  0
  4  5  2  0
  5  6  1  0
  6  7  1  0
  7  8  1  0
  8  9  1  0
  9 10  2  0
 10 11  1  0
 11 12  2  0
 12 13  1  0
 13 14  1  0
 14 15  2  0
 15 16  1  0
 16 17  2  0
 17 18  1  0
 18 19  1  0
 19 20  1  0
 20 21  1  0
 21 22  2  0
 22 23  1  0
 23 24  2  0
 24 25  1  0
 20 26  2  0
 26 27  1  0
 12 28  1  0
 28 29  2  0
 29 30  1  0
  6 31  2  0
 31  2  1  0
 29  9  1  0
 27 14  1  0
 27 18  2  0
 25 21  1  0
M  END
>  <Compound_ID>  (532) 
CHEMBL514938

>  <Molecule Name>  (532) 
GSK-969786A

>  <Molecular Weight>  (532) 
451.91

>  <AlogP>  (532) 
7.07

>  <Smiles>  (532) 
Fc1cccc(COc2ccc(Nc3ncnc4sc(-c5ccco5)cc34)cc2Cl)c1

>  <Standard Type>  (532) 
Inhibition

>  <Standard Relation>  (532) 
'='

>  <Standard Units>  (532) 
%

>  <Standard Value>  (532) 
3.09

>  <Assay ChEMBL ID>  (532) 
CHEMBL1962142

>  <Assay Description>  (532) 
GSK_PKIS: MET mean inhibition at 0.1 uM [Nanosyn]

>  <BAO Format ID>  (532) 
BAO_0000357

>  <BAO Label>  (532) 
single protein format

>  <Assay Organism>  (532) 
None

>  <Target ChEMBL ID>  (532) 
CHEMBL3717

>  <Target Name>  (532) 
Hepatocyte growth factor receptor

>  <Target Organism>  (532) 
Homo sapiens

>  <Target Type>  (532) 
SINGLE PROTEIN

>  <Document ChEMBL ID>  (532) 
CHEMBL1961873

>  <Source Description>  (532) 
GSK Published Kinase Inhibitor Set

>  <Document Journal>  (532) 
nan

>  <Document Year>  (532) 
nan

>  <Active>  (532) 
0.0

$$$$

     RDKit          2D

 28 31  0  0  0  0  0  0  0  0999 V2000
   -9.7730   -5.5068    0.0000 C   0  0  0  0  0  0  0  0  0  0  0  0
   -8.6583   -6.5105    0.0000 C   0  0  0  0  0  0  0  0  0  0  0  0
   -7.2317   -6.0469    0.0000 N   0  0  0  0  0  0  0  0  0  0  0  0
   -6.9199   -4.5797    0.0000 C   0  0  0  0  0  0  0  0  0  0  0  0
   -5.4933   -4.1162    0.0000 C   0  0  0  0  0  0  0  0  0  0  0  0
   -4.3786   -5.1199    0.0000 C   0  0  0  0  0  0  0  0  0  0  0  0
   -2.9520   -4.6564    0.0000 C   0  0  0  0  0  0  0  0  0  0  0  0
   -1.8373   -5.6601    0.0000 O   0  0  0  0  0  0  0  0  0  0  0  0
   -2.6401   -3.1891    0.0000 N   0  0  0  0  0  0  0  0  0  0  0  0
   -1.2135   -2.7256    0.0000 C   0  0  0  0  0  0  0  0  0  0  0  0
   -0.0000   -3.6073    0.0000 N   0  0  0  0  0  0  0  0  0  0  0  0
    1.2135   -2.7256    0.0000 N   0  0  0  0  0  0  0  0  0  0  0  0
    0.7500   -1.2990    0.0000 C   0  0  0  0  0  0  0  0  0  0  0  0
    1.5000    0.0000    0.0000 N   0  0  0  0  0  0  0  0  0  0  0  0
    0.7500    1.2990    0.0000 N   0  0  0  0  0  0  0  0  0  0  0  0
   -0.7500    1.2990    0.0000 C   0  0  0  0  0  0  0  0  0  0  0  0
   -1.5000    2.5981    0.0000 C   0  0  0  0  0  0  0  0  0  0  0  0
   -0.7500    3.8971    0.0000 C   0  0  0  0  0  0  0  0  0  0  0  0
   -1.5000    5.1962    0.0000 C   0  0  0  0  0  0  0  0  0  0  0  0
   -3.0000    5.1962    0.0000 C   0  0  0  0  0  0  0  0  0  0  0  0
   -3.7500    3.8971    0.0000 C   0  0  0  0  0  0  0  0  0  0  0  0
   -5.2500    3.8971    0.0000 F   0  0  0  0  0  0  0  0  0  0  0  0
   -3.0000    2.5981    0.0000 C   0  0  0  0  0  0  0  0  0  0  0  0
   -3.7500    1.2990    0.0000 F   0  0  0  0  0  0  0  0  0  0  0  0
   -1.5000    0.0000    0.0000 C   0  0  0  0  0  0  0  0  0  0  0  0
   -0.7500   -1.2990    0.0000 C   0  0  0  0  0  0  0  0  0  0  0  0
   -4.6904   -6.5871    0.0000 C   0  0  0  0  0  0  0  0  0  0  0  0
   -6.1170   -7.0506    0.0000 C   0  0  0  0  0  0  0  0  0  0  0  0
  1  2  1  0
  2  3  1  0
  3  4  1  0
  4  5  1  0
  5  6  1  0
  6  7  1  0
  7  8  2  0
  7  9  1  0
  9 10  1  0
 10 11  2  0
 11 12  1  0
 12 13  1  0
 13 14  2  0
 14 15  1  0
 15 16  2  0
 16 17  1  0
 17 18  2  0
 18 19  1  0
 19 20  2  0
 20 21  1  0
 21 22  1  0
 21 23  2  0
 23 24  1  0
 16 25  1  0
 25 26  2  0
  6 27  1  0
 27 28  1  0
 28  3  1  0
 26 10  1  0
 26 13  1  0
 23 17  1  0
M  END
>  <Compound_ID>  (533) 
CHEMBL1909345

>  <Molecule Name>  (533) 
nan

>  <Molecular Weight>  (533) 
422.87

>  <AlogP>  (533) 
2.97

>  <Smiles>  (533) 
CCN1CCC(C(=O)Nc2n[nH]c3nnc(-c4cccc(F)c4F)cc23)CC1

>  <Standard Type>  (533) 
Inhibition

>  <Standard Relation>  (533) 
'='

>  <Standard Units>  (533) 
%

>  <Standard Value>  (533) 
4.13

>  <Assay ChEMBL ID>  (533) 
CHEMBL1962142

>  <Assay Description>  (533) 
GSK_PKIS: MET mean inhibition at 0.1 uM [Nanosyn]

>  <BAO Format ID>  (533) 
BAO_0000357

>  <BAO Label>  (533) 
single protein format

>  <Assay Organism>  (533) 
None

>  <Target ChEMBL ID>  (533) 
CHEMBL3717

>  <Target Name>  (533) 
Hepatocyte growth factor receptor

>  <Target Organism>  (533) 
Homo sapiens

>  <Target Type>  (533) 
SINGLE PROTEIN

>  <Document ChEMBL ID>  (533) 
CHEMBL1961873

>  <Source Description>  (533) 
GSK Published Kinase Inhibitor Set

>  <Document Journal>  (533) 
nan

>  <Document Year>  (533) 
nan

>  <Active>  (533) 
0.0

$$$$

     RDKit          2D

 35 39  0  0  0  0  0  0  0  0999 V2000
   -8.2322   -0.7949    0.0000 C   0  0  0  0  0  0  0  0  0  0  0  0
   -6.8056   -1.2584    0.0000 C   0  0  0  0  0  0  0  0  0  0  0  0
   -6.4937   -2.7256    0.0000 O   0  0  0  0  0  0  0  0  0  0  0  0
   -5.0672   -3.1891    0.0000 C   0  0  0  0  0  0  0  0  0  0  0  0
   -3.8536   -2.3075    0.0000 C   0  0  0  0  0  0  0  0  0  0  0  0
   -2.6401   -3.1891    0.0000 C   0  0  0  0  0  0  0  0  0  0  0  0
   -1.2135   -2.7256    0.0000 N   0  0  0  0  0  0  0  0  0  0  0  0
   -0.0000   -3.6073    0.0000 C   0  0  0  0  0  0  0  0  0  0  0  0
    1.2135   -2.7256    0.0000 N   0  0  0  0  0  0  0  0  0  0  0  0
    0.7500   -1.2990    0.0000 C   0  0  0  0  0  0  0  0  0  0  0  0
    1.5000    0.0000    0.0000 C   0  0  0  0  0  0  0  0  0  0  0  0
    0.7500    1.2990    0.0000 C   0  0  0  0  0  0  0  0  0  0  0  0
   -0.7500    1.2990    0.0000 C   0  0  0  0  0  0  0  0  0  0  0  0
   -1.5000    2.5981    0.0000 O   0  0  0  0  0  0  0  0  0  0  0  0
   -0.7500    3.8971    0.0000 C   0  0  0  0  0  0  0  0  0  0  0  0
    0.7500    3.8971    0.0000 C   0  0  0  0  0  0  0  0  0  0  0  0
    1.5000    5.1962    0.0000 C   0  0  0  0  0  0  0  0  0  0  0  0
    0.7500    6.4952    0.0000 N   0  0  0  0  0  0  0  0  0  0  0  0
    1.5000    7.7942    0.0000 C   0  0  0  0  0  0  0  0  0  0  0  0
   -0.7500    6.4952    0.0000 C   0  0  0  0  0  0  0  0  0  0  0  0
   -1.5000    5.1962    0.0000 C   0  0  0  0  0  0  0  0  0  0  0  0
   -1.5000    0.0000    0.0000 C   0  0  0  0  0  0  0  0  0  0  0  0
   -0.7500   -1.2990    0.0000 C   0  0  0  0  0  0  0  0  0  0  0  0
   -3.1036   -4.6157    0.0000 S   0  0  0  0  0  0  0  0  0  0  0  0
   -4.6036   -4.6157    0.0000 C   0  0  0  0  0  0  0  0  0  0  0  0
   -5.4853   -5.8293    0.0000 C   0  0  0  0  0  0  0  0  0  0  0  0
   -4.8752   -7.1996    0.0000 N   0  0  0  0  0  0  0  0  0  0  0  0
   -6.9771   -5.6725    0.0000 O   0  0  0  0  0  0  0  0  0  0  0  0
   -5.6909   -0.2547    0.0000 C   0  0  0  0  0  0  0  0  0  0  0  0
   -4.2643   -0.7182    0.0000 C   0  0  0  0  0  0  0  0  0  0  0  0
   -3.1496    0.2855    0.0000 C   0  0  0  0  0  0  0  0  0  0  0  0
   -3.4615    1.7527    0.0000 C   0  0  0  0  0  0  0  0  0  0  0  0
   -4.8880    2.2162    0.0000 C   0  0  0  0  0  0  0  0  0  0  0  0
   -6.0028    1.2125    0.0000 C   0  0  0  0  0  0  0  0  0  0  0  0
   -7.4293    1.6760    0.0000 Cl  0  0  0  0  0  0  0  0  0  0  0  0
  2  1  1  6
  2  3  1  0
  3  4  1  0
  4  5  1  0
  5  6  2  0
  6  7  1  0
  7  8  1  0
  8  9  2  0
  9 10  1  0
 10 11  2  0
 11 12  1  0
 12 13  2  0
 13 14  1  0
 14 15  1  0
 15 16  1  0
 16 17  1  0
 17 18  1  0
 18 19  1  0
 18 20  1  0
 20 21  1  0
 13 22  1  0
 22 23  2  0
  6 24  1  0
 24 25  1  0
 25 26  1  0
 26 27  1  0
 26 28  2  0
  2 29  1  0
 29 30  2  0
 30 31  1  0
 31 32  2  0
 32 33  1  0
 33 34  2  0
 34 35  1  0
 25  4  2  0
 34 29  1  0
 23  7  1  0
 23 10  1  0
 21 15  1  0
M  END
>  <Compound_ID>  (534) 
CHEMBL1794070

>  <Molecule Name>  (534) 
GSK-579289A

>  <Molecular Weight>  (534) 
511.05

>  <AlogP>  (534) 
5.45

>  <Smiles>  (534) 
C[C@@H](Oc1cc(-n2cnc3ccc(OC4CCN(C)CC4)cc32)sc1C(N)=O)c1ccccc1Cl

>  <Standard Type>  (534) 
Inhibition

>  <Standard Relation>  (534) 
'='

>  <Standard Units>  (534) 
%

>  <Standard Value>  (534) 
5.01

>  <Assay ChEMBL ID>  (534) 
CHEMBL1962143

>  <Assay Description>  (534) 
GSK_PKIS: MET mean inhibition at 1 uM [Nanosyn]

>  <BAO Format ID>  (534) 
BAO_0000357

>  <BAO Label>  (534) 
single protein format

>  <Assay Organism>  (534) 
None

>  <Target ChEMBL ID>  (534) 
CHEMBL3717

>  <Target Name>  (534) 
Hepatocyte growth factor receptor

>  <Target Organism>  (534) 
Homo sapiens

>  <Target Type>  (534) 
SINGLE PROTEIN

>  <Document ChEMBL ID>  (534) 
CHEMBL1961873

>  <Source Description>  (534) 
GSK Published Kinase Inhibitor Set

>  <Document Journal>  (534) 
nan

>  <Document Year>  (534) 
nan

>  <Active>  (534) 
0.0

$$$$

     RDKit          2D

 26 28  0  0  0  0  0  0  0  0999 V2000
    5.2500    1.2990    0.0000 C   0  0  0  0  0  0  0  0  0  0  0  0
    4.5000    0.0000    0.0000 C   0  0  0  0  0  0  0  0  0  0  0  0
    3.0000    0.0000    0.0000 S   0  0  0  0  0  0  0  0  0  0  0  0
    3.0000    1.5000    0.0000 O   0  0  0  0  0  0  0  0  0  0  0  0
    3.0000   -1.5000    0.0000 O   0  0  0  0  0  0  0  0  0  0  0  0
    1.5000    0.0000    0.0000 C   0  0  0  0  0  0  0  0  0  0  0  0
    0.7500   -1.2990    0.0000 C   0  0  0  0  0  0  0  0  0  0  0  0
   -0.7500   -1.2990    0.0000 C   0  0  0  0  0  0  0  0  0  0  0  0
   -1.5000    0.0000    0.0000 C   0  0  0  0  0  0  0  0  0  0  0  0
   -3.0000    0.0000    0.0000 O   0  0  0  0  0  0  0  0  0  0  0  0
   -3.7500   -1.2990    0.0000 C   0  0  0  0  0  0  0  0  0  0  0  0
   -0.7500    1.2990    0.0000 C   0  0  0  0  0  0  0  0  0  0  0  0
   -1.5000    2.5981    0.0000 N   0  0  0  0  0  0  0  0  0  0  0  0
   -0.7500    3.8971    0.0000 C   0  0  0  0  0  0  0  0  0  0  0  0
   -1.3601    5.2674    0.0000 N   0  0  0  0  0  0  0  0  0  0  0  0
   -0.2454    6.2711    0.0000 C   0  0  0  0  0  0  0  0  0  0  0  0
    1.0537    5.5211    0.0000 C   0  0  0  0  0  0  0  0  0  0  0  0
    2.4240    6.1312    0.0000 C   0  0  0  0  0  0  0  0  0  0  0  0
    3.6375    5.2496    0.0000 C   0  0  0  0  0  0  0  0  0  0  0  0
    5.0078    5.8597    0.0000 C   0  0  0  0  0  0  0  0  0  0  0  0
    5.1646    7.3514    0.0000 C   0  0  0  0  0  0  0  0  0  0  0  0
    3.9511    8.2331    0.0000 C   0  0  0  0  0  0  0  0  0  0  0  0
    4.1079    9.7249    0.0000 F   0  0  0  0  0  0  0  0  0  0  0  0
    2.5808    7.6230    0.0000 C   0  0  0  0  0  0  0  0  0  0  0  0
    0.7418    4.0539    0.0000 O   0  0  0  0  0  0  0  0  0  0  0  0
    0.7500    1.2990    0.0000 C   0  0  0  0  0  0  0  0  0  0  0  0
  1  2  1  0
  2  3  1  0
  3  4  2  0
  3  5  2  0
  3  6  1  0
  6  7  2  0
  7  8  1  0
  8  9  2  0
  9 10  1  0
 10 11  1  0
  9 12  1  0
 12 13  1  0
 13 14  1  0
 14 15  2  0
 15 16  1  0
 16 17  2  0
 17 18  1  0
 18 19  2  0
 19 20  1  0
 20 21  2  0
 21 22  1  0
 22 23  1  0
 22 24  2  0
 17 25  1  0
 12 26  2  0
 26  6  1  0
 25 14  1  0
 24 18  1  0
M  END
>  <Compound_ID>  (535) 
CHEMBL179465

>  <Molecule Name>  (535) 
GW621970X

>  <Molecular Weight>  (535) 
376.41

>  <AlogP>  (535) 
4.03

>  <Smiles>  (535) 
CCS(=O)(=O)c1ccc(OC)c(Nc2ncc(-c3cccc(F)c3)o2)c1

>  <Standard Type>  (535) 
Inhibition

>  <Standard Relation>  (535) 
'='

>  <Standard Units>  (535) 
%

>  <Standard Value>  (535) 
5.27

>  <Assay ChEMBL ID>  (535) 
CHEMBL1962143

>  <Assay Description>  (535) 
GSK_PKIS: MET mean inhibition at 1 uM [Nanosyn]

>  <BAO Format ID>  (535) 
BAO_0000357

>  <BAO Label>  (535) 
single protein format

>  <Assay Organism>  (535) 
None

>  <Target ChEMBL ID>  (535) 
CHEMBL3717

>  <Target Name>  (535) 
Hepatocyte growth factor receptor

>  <Target Organism>  (535) 
Homo sapiens

>  <Target Type>  (535) 
SINGLE PROTEIN

>  <Document ChEMBL ID>  (535) 
CHEMBL1961873

>  <Source Description>  (535) 
GSK Published Kinase Inhibitor Set

>  <Document Journal>  (535) 
nan

>  <Document Year>  (535) 
nan

>  <Active>  (535) 
0.0

$$$$

     RDKit          2D

 25 28  0  0  0  0  0  0  0  0999 V2000
    3.7500   -1.2990    0.0000 C   0  0  0  0  0  0  0  0  0  0  0  0
    3.0000    0.0000    0.0000 O   0  0  0  0  0  0  0  0  0  0  0  0
    1.5000    0.0000    0.0000 C   0  0  0  0  0  0  0  0  0  0  0  0
    0.7500   -1.2990    0.0000 C   0  0  0  0  0  0  0  0  0  0  0  0
   -0.7500   -1.2990    0.0000 C   0  0  0  0  0  0  0  0  0  0  0  0
   -1.5000    0.0000    0.0000 C   0  0  0  0  0  0  0  0  0  0  0  0
   -3.0000    0.0000    0.0000 C   0  0  0  0  0  0  0  0  0  0  0  0
   -3.7500    1.2990    0.0000 C   0  0  0  0  0  0  0  0  0  0  0  0
   -5.2500    1.2990    0.0000 C   0  0  0  0  0  0  0  0  0  0  0  0
   -6.0000    2.5981    0.0000 C   0  0  0  0  0  0  0  0  0  0  0  0
   -7.4918    2.7549    0.0000 C   0  0  0  0  0  0  0  0  0  0  0  0
   -7.8037    4.2221    0.0000 N   0  0  0  0  0  0  0  0  0  0  0  0
   -6.5046    4.9721    0.0000 N   0  0  0  0  0  0  0  0  0  0  0  0
   -5.3899    3.9684    0.0000 C   0  0  0  0  0  0  0  0  0  0  0  0
   -3.9227    4.2803    0.0000 C   0  0  0  0  0  0  0  0  0  0  0  0
   -2.9190    3.1655    0.0000 C   0  0  0  0  0  0  0  0  0  0  0  0
   -1.4518    3.4774    0.0000 C   0  0  0  0  0  0  0  0  0  0  0  0
   -0.9882    4.9040    0.0000 C   0  0  0  0  0  0  0  0  0  0  0  0
   -1.9919    6.0187    0.0000 C   0  0  0  0  0  0  0  0  0  0  0  0
   -3.4591    5.7068    0.0000 N   0  0  0  0  0  0  0  0  0  0  0  0
   -6.0000    0.0000    0.0000 C   0  0  0  0  0  0  0  0  0  0  0  0
   -5.2500   -1.2990    0.0000 C   0  0  0  0  0  0  0  0  0  0  0  0
   -3.7500   -1.2990    0.0000 N   0  0  0  0  0  0  0  0  0  0  0  0
   -0.7500    1.2990    0.0000 C   0  0  0  0  0  0  0  0  0  0  0  0
    0.7500    1.2990    0.0000 C   0  0  0  0  0  0  0  0  0  0  0  0
  1  2  1  0
  2  3  1  0
  3  4  2  0
  4  5  1  0
  5  6  2  0
  6  7  1  0
  7  8  2  0
  8  9  1  0
  9 10  1  0
 10 11  2  0
 11 12  1  0
 12 13  1  0
 13 14  2  0
 14 15  1  0
 15 16  2  0
 16 17  1  0
 17 18  2  0
 18 19  1  0
 19 20  2  0
  9 21  2  0
 21 22  1  0
 22 23  2  0
  6 24  1  0
 24 25  2  0
 25  3  1  0
 23  7  1  0
 14 10  1  0
 20 15  1  0
M  END
>  <Compound_ID>  (536) 
CHEMBL202891

>  <Molecule Name>  (536) 
GW679410X

>  <Molecular Weight>  (536) 
328.38

>  <AlogP>  (536) 
4.21

>  <Smiles>  (536) 
COc1ccc(-c2cc(-c3c[nH]nc3-c3ccccn3)ccn2)cc1

>  <Standard Type>  (536) 
Inhibition

>  <Standard Relation>  (536) 
'='

>  <Standard Units>  (536) 
%

>  <Standard Value>  (536) 
3.52

>  <Assay ChEMBL ID>  (536) 
CHEMBL1962143

>  <Assay Description>  (536) 
GSK_PKIS: MET mean inhibition at 1 uM [Nanosyn]

>  <BAO Format ID>  (536) 
BAO_0000357

>  <BAO Label>  (536) 
single protein format

>  <Assay Organism>  (536) 
None

>  <Target ChEMBL ID>  (536) 
CHEMBL3717

>  <Target Name>  (536) 
Hepatocyte growth factor receptor

>  <Target Organism>  (536) 
Homo sapiens

>  <Target Type>  (536) 
SINGLE PROTEIN

>  <Document ChEMBL ID>  (536) 
CHEMBL1961873

>  <Source Description>  (536) 
GSK Published Kinase Inhibitor Set

>  <Document Journal>  (536) 
nan

>  <Document Year>  (536) 
nan

>  <Active>  (536) 
0.0

$$$$

     RDKit          2D

 25 28  0  0  0  0  0  0  0  0999 V2000
   -8.6583   -6.5105    0.0000 C   0  0  0  0  0  0  0  0  0  0  0  0
   -7.2317   -6.0469    0.0000 N   0  0  0  0  0  0  0  0  0  0  0  0
   -6.9199   -4.5797    0.0000 C   0  0  0  0  0  0  0  0  0  0  0  0
   -5.4933   -4.1162    0.0000 C   0  0  0  0  0  0  0  0  0  0  0  0
   -4.3786   -5.1199    0.0000 C   0  0  0  0  0  0  0  0  0  0  0  0
   -2.9520   -4.6564    0.0000 C   0  0  0  0  0  0  0  0  0  0  0  0
   -1.8373   -5.6601    0.0000 O   0  0  0  0  0  0  0  0  0  0  0  0
   -2.6401   -3.1891    0.0000 N   0  0  0  0  0  0  0  0  0  0  0  0
   -1.2135   -2.7256    0.0000 C   0  0  0  0  0  0  0  0  0  0  0  0
   -0.0000   -3.6073    0.0000 N   0  0  0  0  0  0  0  0  0  0  0  0
    1.2135   -2.7256    0.0000 N   0  0  0  0  0  0  0  0  0  0  0  0
    0.7500   -1.2990    0.0000 C   0  0  0  0  0  0  0  0  0  0  0  0
    1.5000    0.0000    0.0000 N   0  0  0  0  0  0  0  0  0  0  0  0
    0.7500    1.2990    0.0000 N   0  0  0  0  0  0  0  0  0  0  0  0
   -0.7500    1.2990    0.0000 C   0  0  0  0  0  0  0  0  0  0  0  0
   -1.5000    2.5981    0.0000 C   0  0  0  0  0  0  0  0  0  0  0  0
   -0.7500    3.8971    0.0000 C   0  0  0  0  0  0  0  0  0  0  0  0
   -1.5000    5.1962    0.0000 C   0  0  0  0  0  0  0  0  0  0  0  0
   -3.0000    5.1962    0.0000 C   0  0  0  0  0  0  0  0  0  0  0  0
   -3.7500    3.8971    0.0000 C   0  0  0  0  0  0  0  0  0  0  0  0
   -3.0000    2.5981    0.0000 C   0  0  0  0  0  0  0  0  0  0  0  0
   -1.5000    0.0000    0.0000 C   0  0  0  0  0  0  0  0  0  0  0  0
   -0.7500   -1.2990    0.0000 C   0  0  0  0  0  0  0  0  0  0  0  0
   -4.6904   -6.5871    0.0000 C   0  0  0  0  0  0  0  0  0  0  0  0
   -6.1170   -7.0506    0.0000 C   0  0  0  0  0  0  0  0  0  0  0  0
  1  2  1  0
  2  3  1  0
  3  4  1  0
  4  5  1  0
  5  6  1  0
  6  7  2  0
  6  8  1  0
  8  9  1  0
  9 10  2  0
 10 11  1  0
 11 12  1  0
 12 13  2  0
 13 14  1  0
 14 15  2  0
 15 16  1  0
 16 17  2  0
 17 18  1  0
 18 19  2  0
 19 20  1  0
 20 21  2  0
 15 22  1  0
 22 23  2  0
  5 24  1  0
 24 25  1  0
 25  2  1  0
 23  9  1  0
 23 12  1  0
 21 16  1  0
M  END
>  <Compound_ID>  (537) 
CHEMBL1909344

>  <Molecule Name>  (537) 
nan

>  <Molecular Weight>  (537) 
372.86

>  <AlogP>  (537) 
2.30

>  <Smiles>  (537) 
CN1CCC(C(=O)Nc2n[nH]c3nnc(-c4ccccc4)cc23)CC1

>  <Standard Type>  (537) 
Inhibition

>  <Standard Relation>  (537) 
'='

>  <Standard Units>  (537) 
%

>  <Standard Value>  (537) 
1.78

>  <Assay ChEMBL ID>  (537) 
CHEMBL1962142

>  <Assay Description>  (537) 
GSK_PKIS: MET mean inhibition at 0.1 uM [Nanosyn]

>  <BAO Format ID>  (537) 
BAO_0000357

>  <BAO Label>  (537) 
single protein format

>  <Assay Organism>  (537) 
None

>  <Target ChEMBL ID>  (537) 
CHEMBL3717

>  <Target Name>  (537) 
Hepatocyte growth factor receptor

>  <Target Organism>  (537) 
Homo sapiens

>  <Target Type>  (537) 
SINGLE PROTEIN

>  <Document ChEMBL ID>  (537) 
CHEMBL1961873

>  <Source Description>  (537) 
GSK Published Kinase Inhibitor Set

>  <Document Journal>  (537) 
nan

>  <Document Year>  (537) 
nan

>  <Active>  (537) 
0.0

$$$$

     RDKit          2D

 22 24  0  0  0  0  0  0  0  0999 V2000
    3.7500   -1.2990    0.0000 C   0  0  0  0  0  0  0  0  0  0  0  0
    3.0000    0.0000    0.0000 O   0  0  0  0  0  0  0  0  0  0  0  0
    1.5000    0.0000    0.0000 C   0  0  0  0  0  0  0  0  0  0  0  0
    0.7500   -1.2990    0.0000 C   0  0  0  0  0  0  0  0  0  0  0  0
   -0.7500   -1.2990    0.0000 C   0  0  0  0  0  0  0  0  0  0  0  0
   -1.5000    0.0000    0.0000 C   0  0  0  0  0  0  0  0  0  0  0  0
   -0.7500    1.2990    0.0000 C   0  0  0  0  0  0  0  0  0  0  0  0
    0.7500    1.2990    0.0000 C   0  0  0  0  0  0  0  0  0  0  0  0
    1.5000    2.5981    0.0000 C   0  0  0  0  0  0  0  0  0  0  0  0
    0.8899    3.9684    0.0000 C   0  0  0  0  0  0  0  0  0  0  0  0
   -0.5773    4.2803    0.0000 N   0  0  0  0  0  0  0  0  0  0  0  0
   -1.0409    5.7068    0.0000 C   0  0  0  0  0  0  0  0  0  0  0  0
   -0.0372    6.8216    0.0000 C   0  0  0  0  0  0  0  0  0  0  0  0
   -0.5007    8.2481    0.0000 C   0  0  0  0  0  0  0  0  0  0  0  0
   -1.9679    8.5600    0.0000 C   0  0  0  0  0  0  0  0  0  0  0  0
   -2.9716    7.4453    0.0000 C   0  0  0  0  0  0  0  0  0  0  0  0
   -2.5081    6.0187    0.0000 C   0  0  0  0  0  0  0  0  0  0  0  0
    2.0046    4.9721    0.0000 C   0  0  0  0  0  0  0  0  0  0  0  0
    1.8478    6.4639    0.0000 O   0  0  0  0  0  0  0  0  0  0  0  0
    3.3037    4.2221    0.0000 N   0  0  0  0  0  0  0  0  0  0  0  0
    2.9918    2.7549    0.0000 C   0  0  0  0  0  0  0  0  0  0  0  0
    3.9955    1.6402    0.0000 O   0  0  0  0  0  0  0  0  0  0  0  0
  1  2  1  0
  2  3  1  0
  3  4  2  0
  4  5  1  0
  5  6  2  0
  6  7  1  0
  7  8  2  0
  8  9  1  0
  9 10  2  0
 10 11  1  0
 11 12  1  0
 12 13  2  0
 13 14  1  0
 14 15  2  0
 15 16  1  0
 16 17  2  0
 10 18  1  0
 18 19  2  0
 18 20  1  0
 20 21  1  0
 21 22  2  0
  8  3  1  0
 21  9  1  0
 17 12  1  0
M  END
>  <Compound_ID>  (538) 
CHEMBL156263

>  <Molecule Name>  (538) 
nan

>  <Molecular Weight>  (538) 
294.31

>  <AlogP>  (538) 
2.17

>  <Smiles>  (538) 
COc1ccccc1C1=C(Nc2ccccc2)C(=O)NC1=O

>  <Standard Type>  (538) 
Inhibition

>  <Standard Relation>  (538) 
'='

>  <Standard Units>  (538) 
%

>  <Standard Value>  (538) 
7.23

>  <Assay ChEMBL ID>  (538) 
CHEMBL1962143

>  <Assay Description>  (538) 
GSK_PKIS: MET mean inhibition at 1 uM [Nanosyn]

>  <BAO Format ID>  (538) 
BAO_0000357

>  <BAO Label>  (538) 
single protein format

>  <Assay Organism>  (538) 
None

>  <Target ChEMBL ID>  (538) 
CHEMBL3717

>  <Target Name>  (538) 
Hepatocyte growth factor receptor

>  <Target Organism>  (538) 
Homo sapiens

>  <Target Type>  (538) 
SINGLE PROTEIN

>  <Document ChEMBL ID>  (538) 
CHEMBL1961873

>  <Source Description>  (538) 
GSK Published Kinase Inhibitor Set

>  <Document Journal>  (538) 
nan

>  <Document Year>  (538) 
nan

>  <Active>  (538) 
0.0

$$$$

     RDKit          2D

 38 41  0  0  0  0  0  0  0  0999 V2000
   -2.9716   -7.4453    0.0000 C   0  0  0  0  0  0  0  0  0  0  0  0
   -2.5081   -6.0187    0.0000 N   0  0  0  0  0  0  0  0  0  0  0  0
   -3.5118   -4.9040    0.0000 C   0  0  0  0  0  0  0  0  0  0  0  0
   -1.0409   -5.7068    0.0000 C   0  0  0  0  0  0  0  0  0  0  0  0
   -0.5773   -4.2803    0.0000 C   0  0  0  0  0  0  0  0  0  0  0  0
    0.8899   -3.9684    0.0000 N   0  0  0  0  0  0  0  0  0  0  0  0
    2.0046   -4.9721    0.0000 C   0  0  0  0  0  0  0  0  0  0  0  0
    3.3037   -4.2221    0.0000 N   0  0  0  0  0  0  0  0  0  0  0  0
    2.9918   -2.7549    0.0000 N   0  0  0  0  0  0  0  0  0  0  0  0
    1.5000   -2.5981    0.0000 C   0  0  0  0  0  0  0  0  0  0  0  0
    0.7500   -1.2990    0.0000 C   0  0  0  0  0  0  0  0  0  0  0  0
    1.5000    0.0000    0.0000 C   0  0  0  0  0  0  0  0  0  0  0  0
    0.7500    1.2990    0.0000 C   0  0  0  0  0  0  0  0  0  0  0  0
    1.5000    2.5981    0.0000 O   0  0  0  0  0  0  0  0  0  0  0  0
    3.0000    2.5981    0.0000 C   0  0  0  0  0  0  0  0  0  0  0  0
    3.7500    1.2990    0.0000 C   0  0  0  0  0  0  0  0  0  0  0  0
    5.2500    1.2990    0.0000 C   0  0  0  0  0  0  0  0  0  0  0  0
    6.0000    2.5981    0.0000 C   0  0  0  0  0  0  0  0  0  0  0  0
    7.5000    2.5981    0.0000 N   0  0  0  0  0  0  0  0  0  0  0  0
    8.2500    1.2990    0.0000 C   0  0  0  0  0  0  0  0  0  0  0  0
    7.5000   -0.0000    0.0000 O   0  0  0  0  0  0  0  0  0  0  0  0
    9.7500    1.2990    0.0000 N   0  0  0  0  0  0  0  0  0  0  0  0
   10.5000   -0.0000    0.0000 N   0  0  0  0  0  0  0  0  0  0  0  0
   12.0000   -0.0000    0.0000 C   0  0  0  0  0  0  0  0  0  0  0  0
   12.7500   -1.2990    0.0000 C   0  0  0  0  0  0  0  0  0  0  0  0
   12.0000   -2.5981    0.0000 C   0  0  0  0  0  0  0  0  0  0  0  0
   12.7500   -3.8971    0.0000 C   0  0  0  0  0  0  0  0  0  0  0  0
   14.2500   -3.8971    0.0000 C   0  0  0  0  0  0  0  0  0  0  0  0
   15.0000   -5.1962    0.0000 F   0  0  0  0  0  0  0  0  0  0  0  0
   15.0000   -2.5981    0.0000 C   0  0  0  0  0  0  0  0  0  0  0  0
   14.2500   -1.2990    0.0000 C   0  0  0  0  0  0  0  0  0  0  0  0
   15.0000    0.0000    0.0000 F   0  0  0  0  0  0  0  0  0  0  0  0
    5.2500    3.8971    0.0000 C   0  0  0  0  0  0  0  0  0  0  0  0
    3.7500    3.8971    0.0000 C   0  0  0  0  0  0  0  0  0  0  0  0
    3.0000    5.1962    0.0000 F   0  0  0  0  0  0  0  0  0  0  0  0
   -0.7500    1.2990    0.0000 C   0  0  0  0  0  0  0  0  0  0  0  0
   -1.5000    0.0000    0.0000 C   0  0  0  0  0  0  0  0  0  0  0  0
   -0.7500   -1.2990    0.0000 N   0  0  0  0  0  0  0  0  0  0  0  0
  1  2  1  0
  2  3  1  0
  2  4  1  0
  4  5  1  0
  5  6  1  0
  6  7  1  0
  7  8  2  0
  8  9  1  0
  9 10  2  0
 10 11  1  0
 11 12  2  0
 12 13  1  0
 13 14  1  0
 14 15  1  0
 15 16  2  0
 16 17  1  0
 17 18  2  0
 18 19  1  0
 19 20  1  0
 20 21  2  0
 20 22  1  0
 22 23  1  0
 23 24  2  0
 24 25  1  0
 25 26  2  0
 26 27  1  0
 27 28  2  0
 28 29  1  0
 28 30  1  0
 30 31  2  0
 31 32  1  0
 18 33  1  0
 33 34  2  0
 34 35  1  0
 13 36  2  0
 36 37  1  0
 37 38  2  0
 10  6  1  0
 38 11  1  0
 34 15  1  0
 31 25  1  0
M  END
>  <Compound_ID>  (539) 
CHEMBL3262850

>  <Molecule Name>  (539) 
nan

>  <Molecular Weight>  (539) 
524.51

>  <AlogP>  (539) 
4.27

>  <Smiles>  (539) 
CN(C)CCn1cnnc1-c1cc(Oc2ccc(NC(=O)N/N=C/c3ccc(F)cc3F)cc2F)ccn1

>  <Standard Type>  (539) 
Inhibition

>  <Standard Relation>  (539) 
'='

>  <Standard Units>  (539) 
%

>  <Standard Value>  (539) 
1.3

>  <Assay ChEMBL ID>  (539) 
CHEMBL3271573

>  <Assay Description>  (539) 
Inhibition of c-MET (unknown origin) at 10 uM after 20 mins by HTRF method

>  <BAO Format ID>  (539) 
BAO_0000357

>  <BAO Label>  (539) 
single protein format

>  <Assay Organism>  (539) 
Homo sapiens

>  <Target ChEMBL ID>  (539) 
CHEMBL3717

>  <Target Name>  (539) 
Hepatocyte growth factor receptor

>  <Target Organism>  (539) 
Homo sapiens

>  <Target Type>  (539) 
SINGLE PROTEIN

>  <Document ChEMBL ID>  (539) 
CHEMBL3259649

>  <Source Description>  (539) 
Scientific Literature

>  <Document Journal>  (539) 
Eur J Med Chem

>  <Document Year>  (539) 
2014.0

>  <Active>  (539) 
0.0

$$$$

     RDKit          2D

 36 41  0  0  0  0  0  0  0  0999 V2000
   -4.3764    3.7611    0.0000 C   0  0  0  0  0  0  0  0  0  0  0  0
   -2.9499    4.2246    0.0000 O   0  0  0  0  0  0  0  0  0  0  0  0
   -1.8351    3.2209    0.0000 C   0  0  0  0  0  0  0  0  0  0  0  0
   -2.1470    1.7537    0.0000 C   0  0  0  0  0  0  0  0  0  0  0  0
   -1.0323    0.7500    0.0000 C   0  0  0  0  0  0  0  0  0  0  0  0
    0.3943    1.2135    0.0000 C   0  0  0  0  0  0  0  0  0  0  0  0
    0.7062    2.6807    0.0000 C   0  0  0  0  0  0  0  0  0  0  0  0
   -0.4086    3.6844    0.0000 C   0  0  0  0  0  0  0  0  0  0  0  0
   -0.0967    5.1517    0.0000 N   0  0  0  0  0  0  0  0  0  0  0  0
    1.3299    5.6152    0.0000 C   0  0  0  0  0  0  0  0  0  0  0  0
    2.4446    4.6115    0.0000 N   0  0  0  0  0  0  0  0  0  0  0  0
    3.8712    5.0750    0.0000 C   0  0  0  0  0  0  0  0  0  0  0  0
    4.9859    4.0713    0.0000 N   0  0  0  0  0  0  0  0  0  0  0  0
    4.8291    2.5795    0.0000 C   0  0  0  0  0  0  0  0  0  0  0  0
    6.1994    1.9694    0.0000 C   0  0  0  0  0  0  0  0  0  0  0  0
    7.2031    3.0842    0.0000 C   0  0  0  0  0  0  0  0  0  0  0  0
    8.7031    3.0842    0.0000 C   0  0  0  0  0  0  0  0  0  0  0  0
    9.4531    4.3832    0.0000 C   0  0  0  0  0  0  0  0  0  0  0  0
    8.7031    5.6822    0.0000 C   0  0  0  0  0  0  0  0  0  0  0  0
    7.2031    5.6822    0.0000 C   0  0  0  0  0  0  0  0  0  0  0  0
    6.4531    4.3832    0.0000 C   0  0  0  0  0  0  0  0  0  0  0  0
    4.1831    6.5422    0.0000 C   0  0  0  0  0  0  0  0  0  0  0  0
    5.4821    7.2922    0.0000 C   0  0  0  0  0  0  0  0  0  0  0  0
    5.1702    8.7595    0.0000 C   0  0  0  0  0  0  0  0  0  0  0  0
    3.6785    8.9163    0.0000 N   0  0  0  0  0  0  0  0  0  0  0  0
    3.0684    7.5459    0.0000 C   0  0  0  0  0  0  0  0  0  0  0  0
    1.6418    7.0824    0.0000 N   0  0  0  0  0  0  0  0  0  0  0  0
    1.2760    0.0000    0.0000 N   0  0  0  0  0  0  0  0  0  0  0  0
    2.7760    0.0000    0.0000 C   0  0  0  0  0  0  0  0  0  0  0  0
    3.5260    1.2990    0.0000 O   0  0  0  0  0  0  0  0  0  0  0  0
    3.5260   -1.2990    0.0000 C   0  0  0  0  0  0  0  0  0  0  0  0
    5.0260   -1.2990    0.0000 N   0  0  0  0  0  0  0  0  0  0  0  0
    5.7760   -2.5981    0.0000 C   0  0  0  0  0  0  0  0  0  0  0  0
    5.7760    0.0000    0.0000 C   0  0  0  0  0  0  0  0  0  0  0  0
    0.3943   -1.2135    0.0000 C   0  0  0  0  0  0  0  0  0  0  0  0
   -1.0323   -0.7500    0.0000 C   0  0  0  0  0  0  0  0  0  0  0  0
  1  2  1  0
  2  3  1  0
  3  4  2  0
  4  5  1  0
  5  6  2  0
  6  7  1  0
  7  8  2  0
  8  9  1  0
  9 10  1  0
 10 11  2  0
 11 12  1  0
 12 13  1  0
 13 14  1  0
 14 15  1  0
 15 16  1  0
 16 17  2  0
 17 18  1  0
 18 19  2  0
 19 20  1  0
 20 21  2  0
 12 22  2  0
 22 23  1  0
 23 24  2  0
 24 25  1  0
 25 26  1  0
 26 27  2  0
  6 28  1  0
 28 29  1  0
 29 30  2  0
 29 31  1  0
 31 32  1  0
 32 33  1  0
 32 34  1  0
 28 35  1  0
 35 36  1  0
  8  3  1  0
 27 10  1  0
 36  5  1  0
 21 13  1  0
 26 22  1  0
 21 16  1  0
M  END
>  <Compound_ID>  (540) 
CHEMBL458415

>  <Molecule Name>  (540) 
GSK-2186269A

>  <Molecular Weight>  (540) 
483.58

>  <AlogP>  (540) 
3.86

>  <Smiles>  (540) 
COc1cc2c(cc1Nc1nc(N3CCc4ccccc43)c3cc[nH]c3n1)N(C(=O)CN(C)C)CC2

>  <Standard Type>  (540) 
Inhibition

>  <Standard Relation>  (540) 
'='

>  <Standard Units>  (540) 
%

>  <Standard Value>  (540) 
-6.58

>  <Assay ChEMBL ID>  (540) 
CHEMBL1962143

>  <Assay Description>  (540) 
GSK_PKIS: MET mean inhibition at 1 uM [Nanosyn]

>  <BAO Format ID>  (540) 
BAO_0000357

>  <BAO Label>  (540) 
single protein format

>  <Assay Organism>  (540) 
None

>  <Target ChEMBL ID>  (540) 
CHEMBL3717

>  <Target Name>  (540) 
Hepatocyte growth factor receptor

>  <Target Organism>  (540) 
Homo sapiens

>  <Target Type>  (540) 
SINGLE PROTEIN

>  <Document ChEMBL ID>  (540) 
CHEMBL1961873

>  <Source Description>  (540) 
GSK Published Kinase Inhibitor Set

>  <Document Journal>  (540) 
nan

>  <Document Year>  (540) 
nan

>  <Active>  (540) 
0.0

$$$$

     RDKit          2D

 17 19  0  0  0  0  0  0  0  0999 V2000
    2.7760    0.0000    0.0000 N   0  0  0  0  0  0  0  0  0  0  0  0
    1.2760    0.0000    0.0000 C   0  0  0  0  0  0  0  0  0  0  0  0
    0.3943    1.2135    0.0000 N   0  0  0  0  0  0  0  0  0  0  0  0
   -1.0323    0.7500    0.0000 N   0  0  0  0  0  0  0  0  0  0  0  0
   -1.0323   -0.7500    0.0000 C   0  0  0  0  0  0  0  0  0  0  0  0
   -2.1470   -1.7537    0.0000 C   0  0  0  0  0  0  0  0  0  0  0  0
   -1.8351   -3.2209    0.0000 C   0  0  0  0  0  0  0  0  0  0  0  0
   -2.9499   -4.2246    0.0000 C   0  0  0  0  0  0  0  0  0  0  0  0
   -4.3764   -3.7611    0.0000 C   0  0  0  0  0  0  0  0  0  0  0  0
   -5.4912   -4.7648    0.0000 C   0  0  0  0  0  0  0  0  0  0  0  0
   -5.1793   -6.2320    0.0000 N   0  0  0  0  0  0  0  0  0  0  0  0
   -3.7527   -6.6955    0.0000 C   0  0  0  0  0  0  0  0  0  0  0  0
   -2.6380   -5.6918    0.0000 C   0  0  0  0  0  0  0  0  0  0  0  0
   -0.4086   -3.6844    0.0000 N   0  0  0  0  0  0  0  0  0  0  0  0
    0.7062   -2.6807    0.0000 C   0  0  0  0  0  0  0  0  0  0  0  0
    2.1328   -3.1443    0.0000 O   0  0  0  0  0  0  0  0  0  0  0  0
    0.3943   -1.2135    0.0000 C   0  0  0  0  0  0  0  0  0  0  0  0
  1  2  1  0
  2  3  2  0
  3  4  1  0
  4  5  1  0
  5  6  1  0
  6  7  2  0
  7  8  1  0
  8  9  2  0
  9 10  1  0
 10 11  2  0
 11 12  1  0
 12 13  2  0
  7 14  1  0
 14 15  1  0
 15 16  2  0
 15 17  1  0
 17  2  1  0
 17  5  2  0
 13  8  1  0
M  END
>  <Compound_ID>  (541) 
CHEMBL1813608

>  <Molecule Name>  (541) 
nan

>  <Molecular Weight>  (541) 
227.23

>  <AlogP>  (541) 
0.90

>  <Smiles>  (541) 
Nc1n[nH]c2cc(-c3ccncc3)[nH]c(=O)c12

>  <Standard Type>  (541) 
Inhibition

>  <Standard Relation>  (541) 
'='

>  <Standard Units>  (541) 
%

>  <Standard Value>  (541) 
10.0

>  <Assay ChEMBL ID>  (541) 
CHEMBL1815730

>  <Assay Description>  (541) 
Inhibition of MET at 30 uM by microfluidic mobility shift assay

>  <BAO Format ID>  (541) 
BAO_0000357

>  <BAO Label>  (541) 
single protein format

>  <Assay Organism>  (541) 
None

>  <Target ChEMBL ID>  (541) 
CHEMBL3717

>  <Target Name>  (541) 
Hepatocyte growth factor receptor

>  <Target Organism>  (541) 
Homo sapiens

>  <Target Type>  (541) 
SINGLE PROTEIN

>  <Document ChEMBL ID>  (541) 
CHEMBL1811853

>  <Source Description>  (541) 
Scientific Literature

>  <Document Journal>  (541) 
Bioorg Med Chem

>  <Document Year>  (541) 
2011.0

>  <Active>  (541) 
0.0

$$$$

     RDKit          2D

 34 37  0  0  0  0  0  0  0  0999 V2000
   -9.6403    1.3658    0.0000 C   0  0  0  0  0  0  0  0  0  0  0  0
   -8.5256    0.3621    0.0000 C   0  0  0  0  0  0  0  0  0  0  0  0
   -7.0990    0.8256    0.0000 C   0  0  0  0  0  0  0  0  0  0  0  0
   -5.9843   -0.1781    0.0000 C   0  0  0  0  0  0  0  0  0  0  0  0
   -6.2961   -1.6453    0.0000 C   0  0  0  0  0  0  0  0  0  0  0  0
   -5.1814   -2.6490    0.0000 N   0  0  0  0  0  0  0  0  0  0  0  0
   -3.7548   -2.1855    0.0000 C   0  0  0  0  0  0  0  0  0  0  0  0
   -3.4430   -0.7182    0.0000 O   0  0  0  0  0  0  0  0  0  0  0  0
   -2.6401   -3.1891    0.0000 C   0  0  0  0  0  0  0  0  0  0  0  0
   -1.2135   -2.7256    0.0000 N   0  0  0  0  0  0  0  0  0  0  0  0
   -0.0000   -3.6073    0.0000 C   0  0  0  0  0  0  0  0  0  0  0  0
    0.0000   -5.1073    0.0000 O   0  0  0  0  0  0  0  0  0  0  0  0
    1.2135   -2.7256    0.0000 C   0  0  0  0  0  0  0  0  0  0  0  0
    2.6401   -3.1891    0.0000 N   0  0  0  0  0  0  0  0  0  0  0  0
    2.9520   -4.6564    0.0000 N   0  0  0  0  0  0  0  0  0  0  0  0
    4.3786   -5.1199    0.0000 C   0  0  0  0  0  0  0  0  0  0  0  0
    5.4933   -4.1162    0.0000 O   0  0  0  0  0  0  0  0  0  0  0  0
    4.6904   -6.5871    0.0000 C   0  0  0  0  0  0  0  0  0  0  0  0
    3.5757   -7.5908    0.0000 C   0  0  0  0  0  0  0  0  0  0  0  0
    3.8876   -9.0580    0.0000 C   0  0  0  0  0  0  0  0  0  0  0  0
    5.3142   -9.5216    0.0000 C   0  0  0  0  0  0  0  0  0  0  0  0
    5.6260  -10.9888    0.0000 N   0  0  0  0  0  4  0  0  0  0  0  0
    7.0526  -11.4523    0.0000 O   0  0  0  0  0  0  0  0  0  0  0  0
    4.5113  -11.9925    0.0000 O   0  0  0  0  0  1  0  0  0  0  0  0
    6.4289   -8.5179    0.0000 C   0  0  0  0  0  0  0  0  0  0  0  0
    6.1170   -7.0506    0.0000 C   0  0  0  0  0  0  0  0  0  0  0  0
    0.7500   -1.2990    0.0000 C   0  0  0  0  0  0  0  0  0  0  0  0
    1.5000    0.0000    0.0000 C   0  0  0  0  0  0  0  0  0  0  0  0
    0.7500    1.2990    0.0000 C   0  0  0  0  0  0  0  0  0  0  0  0
   -0.7500    1.2990    0.0000 C   0  0  0  0  0  0  0  0  0  0  0  0
   -1.5000    0.0000    0.0000 C   0  0  0  0  0  0  0  0  0  0  0  0
   -0.7500   -1.2990    0.0000 C   0  0  0  0  0  0  0  0  0  0  0  0
   -7.7227   -2.1088    0.0000 C   0  0  0  0  0  0  0  0  0  0  0  0
   -8.8374   -1.1051    0.0000 C   0  0  0  0  0  0  0  0  0  0  0  0
  1  2  1  0
  2  3  2  0
  3  4  1  0
  4  5  2  0
  5  6  1  0
  6  7  1  0
  7  8  2  0
  7  9  1  0
  9 10  1  0
 10 11  1  0
 11 12  2  0
 11 13  1  0
 13 14  2  0
 14 15  1  0
 15 16  1  0
 16 17  2  0
 16 18  1  0
 18 19  2  0
 19 20  1  0
 20 21  2  0
 21 22  1  0
 22 23  2  0
 22 24  1  0
 21 25  1  0
 25 26  2  0
 13 27  1  0
 27 28  2  0
 28 29  1  0
 29 30  2  0
 30 31  1  0
 31 32  2  0
  5 33  1  0
 33 34  2  0
 34  2  1  0
 32 10  1  0
 26 18  1  0
 32 27  1  0
M  CHG  2  22   1  24  -1
M  END
>  <Compound_ID>  (542) 
CHEMBL1779083

>  <Molecule Name>  (542) 
nan

>  <Molecular Weight>  (542) 
457.45

>  <AlogP>  (542) 
3.02

>  <Smiles>  (542) 
Cc1ccc(NC(=O)CN2C(=O)/C(=N\NC(=O)c3ccc([N+](=O)[O-])cc3)c3ccccc32)cc1

>  <Standard Type>  (542) 
Inhibition

>  <Standard Relation>  (542) 
'='

>  <Standard Units>  (542) 
%

>  <Standard Value>  (542) 
12.4

>  <Assay ChEMBL ID>  (542) 
CHEMBL1781430

>  <Assay Description>  (542) 
Inhibition of purified c-Met using poly(glu,tyr) as substrate at 10 uM after 60 mins by ELISA

>  <BAO Format ID>  (542) 
BAO_0000357

>  <BAO Label>  (542) 
single protein format

>  <Assay Organism>  (542) 
None

>  <Target ChEMBL ID>  (542) 
CHEMBL3717

>  <Target Name>  (542) 
Hepatocyte growth factor receptor

>  <Target Organism>  (542) 
Homo sapiens

>  <Target Type>  (542) 
SINGLE PROTEIN

>  <Document ChEMBL ID>  (542) 
CHEMBL1777704

>  <Source Description>  (542) 
Scientific Literature

>  <Document Journal>  (542) 
Bioorg Med Chem Lett

>  <Document Year>  (542) 
2011.0

>  <Active>  (542) 
0.0

$$$$

     RDKit          2D

 23 26  0  0  0  0  0  0  0  0999 V2000
    2.6401   -3.1891    0.0000 N   0  0  0  0  0  0  0  0  0  0  0  0
    1.2135   -2.7256    0.0000 C   0  0  0  0  0  0  0  0  0  0  0  0
    0.7500   -1.2990    0.0000 C   0  0  0  0  0  0  0  0  0  0  0  0
    1.5000    0.0000    0.0000 C   0  0  0  0  0  0  0  0  0  0  0  0
    3.0000    0.0000    0.0000 O   0  0  0  0  0  0  0  0  0  0  0  0
    0.7500    1.2990    0.0000 N   0  0  0  0  0  0  0  0  0  0  0  0
   -0.7500    1.2990    0.0000 C   0  0  0  0  0  0  0  0  0  0  0  0
   -1.5000    2.5981    0.0000 C   0  0  0  0  0  0  0  0  0  0  0  0
   -0.7500    3.8971    0.0000 C   0  0  0  0  0  0  0  0  0  0  0  0
   -1.5000    5.1962    0.0000 C   0  0  0  0  0  0  0  0  0  0  0  0
   -3.0000    5.1962    0.0000 C   0  0  0  0  0  0  0  0  0  0  0  0
   -3.7500    3.8971    0.0000 C   0  0  0  0  0  0  0  0  0  0  0  0
   -3.0000    2.5981    0.0000 C   0  0  0  0  0  0  0  0  0  0  0  0
   -1.5000    0.0000    0.0000 C   0  0  0  0  0  0  0  0  0  0  0  0
   -0.7500   -1.2990    0.0000 C   0  0  0  0  0  0  0  0  0  0  0  0
   -1.2135   -2.7256    0.0000 N   0  0  0  0  0  0  0  0  0  0  0  0
   -0.0000   -3.6073    0.0000 N   0  0  0  0  0  0  0  0  0  0  0  0
   -0.0000   -5.1073    0.0000 C   0  0  0  0  0  0  0  0  0  0  0  0
   -1.2990   -5.8573    0.0000 C   0  0  0  0  0  0  0  0  0  0  0  0
   -1.2990   -7.3573    0.0000 C   0  0  0  0  0  0  0  0  0  0  0  0
   -0.0000   -8.1073    0.0000 C   0  0  0  0  0  0  0  0  0  0  0  0
    1.2990   -7.3573    0.0000 C   0  0  0  0  0  0  0  0  0  0  0  0
    1.2990   -5.8573    0.0000 N   0  0  0  0  0  0  0  0  0  0  0  0
  1  2  1  0
  2  3  2  0
  3  4  1  0
  4  5  2  0
  4  6  1  0
  6  7  1  0
  7  8  1  0
  8  9  2  0
  9 10  1  0
 10 11  2  0
 11 12  1  0
 12 13  2  0
  7 14  2  0
 14 15  1  0
 15 16  2  0
 16 17  1  0
 17 18  1  0
 18 19  2  0
 19 20  1  0
 20 21  2  0
 21 22  1  0
 22 23  2  0
 17  2  1  0
 23 18  1  0
 15  3  1  0
 13  8  1  0
M  END
>  <Compound_ID>  (543) 
CHEMBL1813796

>  <Molecule Name>  (543) 
nan

>  <Molecular Weight>  (543) 
303.33

>  <AlogP>  (543) 
2.36

>  <Smiles>  (543) 
Nc1c2c(=O)[nH]c(-c3ccccc3)cc2nn1-c1ccccn1

>  <Standard Type>  (543) 
Inhibition

>  <Standard Relation>  (543) 
'='

>  <Standard Units>  (543) 
%

>  <Standard Value>  (543) 
3.0

>  <Assay ChEMBL ID>  (543) 
CHEMBL1815730

>  <Assay Description>  (543) 
Inhibition of MET at 30 uM by microfluidic mobility shift assay

>  <BAO Format ID>  (543) 
BAO_0000357

>  <BAO Label>  (543) 
single protein format

>  <Assay Organism>  (543) 
None

>  <Target ChEMBL ID>  (543) 
CHEMBL3717

>  <Target Name>  (543) 
Hepatocyte growth factor receptor

>  <Target Organism>  (543) 
Homo sapiens

>  <Target Type>  (543) 
SINGLE PROTEIN

>  <Document ChEMBL ID>  (543) 
CHEMBL1811853

>  <Source Description>  (543) 
Scientific Literature

>  <Document Journal>  (543) 
Bioorg Med Chem

>  <Document Year>  (543) 
2011.0

>  <Active>  (543) 
0.0

$$$$

     RDKit          2D

 20 23  0  0  0  0  0  0  0  0999 V2000
   -1.8373   -5.6601    0.0000 O   0  0  0  0  0  0  0  0  0  0  0  0
   -2.9520   -4.6564    0.0000 C   0  0  0  0  0  0  0  0  0  0  0  0
   -2.6401   -3.1891    0.0000 N   0  0  0  0  0  0  0  0  0  0  0  0
   -1.2135   -2.7256    0.0000 C   0  0  0  0  0  0  0  0  0  0  0  0
   -0.0000   -3.6073    0.0000 N   0  0  0  0  0  0  0  0  0  0  0  0
    1.2135   -2.7256    0.0000 N   0  0  0  0  0  0  0  0  0  0  0  0
    0.7500   -1.2990    0.0000 C   0  0  0  0  0  0  0  0  0  0  0  0
    1.5000    0.0000    0.0000 N   0  0  0  0  0  0  0  0  0  0  0  0
    0.7500    1.2990    0.0000 C   0  0  0  0  0  0  0  0  0  0  0  0
    1.5000    2.5981    0.0000 C   0  0  0  0  0  0  0  0  0  0  0  0
    0.8899    3.9684    0.0000 C   0  0  0  0  0  0  0  0  0  0  0  0
    2.0046    4.9721    0.0000 C   0  0  0  0  0  0  0  0  0  0  0  0
    3.3037    4.2221    0.0000 C   0  0  0  0  0  0  0  0  0  0  0  0
    2.9918    2.7549    0.0000 O   0  0  0  0  0  0  0  0  0  0  0  0
   -0.7500    1.2990    0.0000 C   0  0  0  0  0  0  0  0  0  0  0  0
   -1.5000    0.0000    0.0000 C   0  0  0  0  0  0  0  0  0  0  0  0
   -0.7500   -1.2990    0.0000 C   0  0  0  0  0  0  0  0  0  0  0  0
   -4.3786   -5.1199    0.0000 C   0  0  0  0  0  0  0  0  0  0  0  0
   -5.3823   -6.2346    0.0000 C   0  0  0  0  0  0  0  0  0  0  0  0
   -5.8458   -4.8080    0.0000 C   0  0  0  0  0  0  0  0  0  0  0  0
  1  2  2  0
  2  3  1  0
  3  4  1  0
  4  5  2  0
  5  6  1  0
  6  7  1  0
  7  8  2  0
  8  9  1  0
  9 10  1  0
 10 11  2  0
 11 12  1  0
 12 13  2  0
 13 14  1  0
  9 15  2  0
 15 16  1  0
 16 17  2  0
  2 18  1  0
 18 19  1  0
 19 20  1  0
 17  4  1  0
 20 18  1  0
 17  7  1  0
 14 10  1  0
M  END
>  <Compound_ID>  (544) 
CHEMBL101804

>  <Molecule Name>  (544) 
nan

>  <Molecular Weight>  (544) 
268.28

>  <AlogP>  (544) 
2.57

>  <Smiles>  (544) 
O=C(Nc1n[nH]c2nc(-c3ccco3)ccc12)C1CC1

>  <Standard Type>  (544) 
Inhibition

>  <Standard Relation>  (544) 
'='

>  <Standard Units>  (544) 
%

>  <Standard Value>  (544) 
5.26

>  <Assay ChEMBL ID>  (544) 
CHEMBL1962143

>  <Assay Description>  (544) 
GSK_PKIS: MET mean inhibition at 1 uM [Nanosyn]

>  <BAO Format ID>  (544) 
BAO_0000357

>  <BAO Label>  (544) 
single protein format

>  <Assay Organism>  (544) 
None

>  <Target ChEMBL ID>  (544) 
CHEMBL3717

>  <Target Name>  (544) 
Hepatocyte growth factor receptor

>  <Target Organism>  (544) 
Homo sapiens

>  <Target Type>  (544) 
SINGLE PROTEIN

>  <Document ChEMBL ID>  (544) 
CHEMBL1961873

>  <Source Description>  (544) 
GSK Published Kinase Inhibitor Set

>  <Document Journal>  (544) 
nan

>  <Document Year>  (544) 
nan

>  <Active>  (544) 
0.0

$$$$

     RDKit          2D

 32 35  0  0  0  0  0  0  0  0999 V2000
  -10.0849   -6.9740    0.0000 N   0  0  0  0  0  0  0  0  0  0  0  0
   -8.6583   -6.5105    0.0000 S   0  0  0  0  0  0  0  0  0  0  0  0
   -9.1218   -5.0839    0.0000 O   0  0  0  0  0  0  0  0  0  0  0  0
   -8.1948   -7.9371    0.0000 O   0  0  0  0  0  0  0  0  0  0  0  0
   -7.2317   -6.0469    0.0000 C   0  0  0  0  0  0  0  0  0  0  0  0
   -6.9199   -4.5797    0.0000 C   0  0  0  0  0  0  0  0  0  0  0  0
   -5.4933   -4.1162    0.0000 C   0  0  0  0  0  0  0  0  0  0  0  0
   -4.3786   -5.1199    0.0000 C   0  0  0  0  0  0  0  0  0  0  0  0
   -2.9520   -4.6564    0.0000 N   0  0  0  0  0  0  0  0  0  0  0  0
   -2.6401   -3.1891    0.0000 N   0  0  0  0  0  0  0  0  0  0  0  0
   -1.2135   -2.7256    0.0000 C   0  0  0  0  0  0  0  0  0  0  0  0
   -0.0000   -3.6073    0.0000 C   0  0  0  0  0  0  0  0  0  0  0  0
    0.0000   -5.1073    0.0000 O   0  0  0  0  0  0  0  0  0  0  0  0
    1.2135   -2.7256    0.0000 N   0  0  0  0  0  0  0  0  0  0  0  0
    0.7500   -1.2990    0.0000 C   0  0  0  0  0  0  0  0  0  0  0  0
    1.5000    0.0000    0.0000 C   0  0  0  0  0  0  0  0  0  0  0  0
    0.7500    1.2990    0.0000 C   0  0  0  0  0  0  0  0  0  0  0  0
   -0.7500    1.2990    0.0000 C   0  0  0  0  0  0  0  0  0  0  0  0
   -1.5000    2.5981    0.0000 C   0  0  0  0  0  0  0  0  0  0  0  0
   -3.0000    2.5981    0.0000 O   0  0  0  0  0  0  0  0  0  0  0  0
   -0.7500    3.8971    0.0000 N   0  0  0  0  0  0  0  0  0  0  0  0
   -1.5000    5.1962    0.0000 C   0  0  0  0  0  0  0  0  0  0  0  0
   -0.7500    6.4952    0.0000 C   0  0  0  0  0  0  0  0  0  0  0  0
   -1.5000    7.7942    0.0000 C   0  0  0  0  0  0  0  0  0  0  0  0
   -2.9918    7.9510    0.0000 C   0  0  0  0  0  0  0  0  0  0  0  0
   -3.3037    9.4182    0.0000 N   0  0  0  0  0  0  0  0  0  0  0  0
   -2.0046   10.1682    0.0000 C   0  0  0  0  0  0  0  0  0  0  0  0
   -0.8899    9.1645    0.0000 N   0  0  0  0  0  0  0  0  0  0  0  0
   -1.5000    0.0000    0.0000 C   0  0  0  0  0  0  0  0  0  0  0  0
   -0.7500   -1.2990    0.0000 C   0  0  0  0  0  0  0  0  0  0  0  0
   -4.6904   -6.5871    0.0000 C   0  0  0  0  0  0  0  0  0  0  0  0
   -6.1170   -7.0506    0.0000 C   0  0  0  0  0  0  0  0  0  0  0  0
  1  2  1  0
  2  3  2  0
  2  4  2  0
  2  5  1  0
  5  6  2  0
  6  7  1  0
  7  8  2  0
  8  9  1  0
  9 10  1  0
 10 11  2  0
 11 12  1  0
 12 13  2  0
 12 14  1  0
 14 15  1  0
 15 16  2  0
 16 17  1  0
 17 18  2  0
 18 19  1  0
 19 20  2  0
 19 21  1  0
 21 22  1  0
 22 23  1  0
 23 24  1  0
 24 25  2  0
 25 26  1  0
 26 27  1  0
 27 28  2  0
 18 29  1  0
 29 30  2  0
  8 31  1  0
 31 32  2  0
 32  5  1  0
 30 11  1  0
 30 15  1  0
 28 24  1  0
M  END
>  <Compound_ID>  (545) 
CHEMBL272028

>  <Molecule Name>  (545) 
GW300660X

>  <Molecular Weight>  (545) 
453.48

>  <AlogP>  (545) 
0.80

>  <Smiles>  (545) 
NS(=O)(=O)c1ccc(N/N=C2\C(=O)Nc3ccc(C(=O)NCCc4c[nH]cn4)cc32)cc1

>  <Standard Type>  (545) 
Inhibition

>  <Standard Relation>  (545) 
'='

>  <Standard Units>  (545) 
%

>  <Standard Value>  (545) 
12.29

>  <Assay ChEMBL ID>  (545) 
CHEMBL1962143

>  <Assay Description>  (545) 
GSK_PKIS: MET mean inhibition at 1 uM [Nanosyn]

>  <BAO Format ID>  (545) 
BAO_0000357

>  <BAO Label>  (545) 
single protein format

>  <Assay Organism>  (545) 
None

>  <Target ChEMBL ID>  (545) 
CHEMBL3717

>  <Target Name>  (545) 
Hepatocyte growth factor receptor

>  <Target Organism>  (545) 
Homo sapiens

>  <Target Type>  (545) 
SINGLE PROTEIN

>  <Document ChEMBL ID>  (545) 
CHEMBL1961873

>  <Source Description>  (545) 
GSK Published Kinase Inhibitor Set

>  <Document Journal>  (545) 
nan

>  <Document Year>  (545) 
nan

>  <Active>  (545) 
0.0

$$$$

     RDKit          2D

 36 39  0  0  0  0  0  0  0  0999 V2000
   -2.5981   -8.1073    0.0000 C   0  0  0  0  0  0  0  0  0  0  0  0
   -1.2990   -7.3573    0.0000 O   0  0  0  0  0  0  0  0  0  0  0  0
   -1.2990   -5.8573    0.0000 C   0  0  0  0  0  0  0  0  0  0  0  0
   -2.5981   -5.1073    0.0000 O   0  0  0  0  0  0  0  0  0  0  0  0
   -0.0000   -5.1073    0.0000 N   0  0  0  0  0  0  0  0  0  0  0  0
   -0.0000   -3.6073    0.0000 C   0  0  0  0  0  0  0  0  0  0  0  0
    1.2135   -2.7256    0.0000 N   0  0  0  0  0  0  0  0  0  0  0  0
    0.7500   -1.2990    0.0000 C   0  0  0  0  0  0  0  0  0  0  0  0
    1.5000    0.0000    0.0000 C   0  0  0  0  0  0  0  0  0  0  0  0
    0.7500    1.2990    0.0000 C   0  0  0  0  0  0  0  0  0  0  0  0
   -0.7500    1.2990    0.0000 C   0  0  0  0  0  0  0  0  0  0  0  0
   -1.5000    2.5981    0.0000 O   0  0  0  0  0  0  0  0  0  0  0  0
   -0.7500    3.8971    0.0000 C   0  0  0  0  0  0  0  0  0  0  0  0
    0.7500    3.8971    0.0000 C   0  0  0  0  0  0  0  0  0  0  0  0
    1.5000    5.1962    0.0000 C   0  0  0  0  0  0  0  0  0  0  0  0
    0.7500    6.4952    0.0000 C   0  0  0  0  0  0  0  0  0  0  0  0
    1.5000    7.7942    0.0000 N   0  0  0  0  0  0  0  0  0  0  0  0
    3.0000    7.7942    0.0000 C   0  0  0  0  0  0  0  0  0  0  0  0
    3.7500    6.4952    0.0000 O   0  0  0  0  0  0  0  0  0  0  0  0
    3.7500    9.0933    0.0000 N   0  0  0  0  0  0  0  0  0  0  0  0
    5.2500    9.0933    0.0000 C   0  0  0  0  0  0  0  0  0  0  0  0
    6.0000    7.7942    0.0000 C   0  0  0  0  0  0  0  0  0  0  0  0
    7.5000    7.7942    0.0000 C   0  0  0  0  0  0  0  0  0  0  0  0
    8.2500    6.4952    0.0000 C   0  0  0  0  0  0  0  0  0  0  0  0
    9.0000    5.1962    0.0000 F   0  0  0  0  0  0  0  0  0  0  0  0
    6.9510    5.7452    0.0000 F   0  0  0  0  0  0  0  0  0  0  0  0
    9.5490    7.2452    0.0000 F   0  0  0  0  0  0  0  0  0  0  0  0
    8.2500    9.0933    0.0000 C   0  0  0  0  0  0  0  0  0  0  0  0
    7.5000   10.3923    0.0000 C   0  0  0  0  0  0  0  0  0  0  0  0
    6.0000   10.3923    0.0000 C   0  0  0  0  0  0  0  0  0  0  0  0
    5.2500   11.6913    0.0000 F   0  0  0  0  0  0  0  0  0  0  0  0
   -0.7500    6.4952    0.0000 C   0  0  0  0  0  0  0  0  0  0  0  0
   -1.5000    5.1962    0.0000 C   0  0  0  0  0  0  0  0  0  0  0  0
   -1.5000    0.0000    0.0000 C   0  0  0  0  0  0  0  0  0  0  0  0
   -0.7500   -1.2990    0.0000 C   0  0  0  0  0  0  0  0  0  0  0  0
   -1.2135   -2.7256    0.0000 S   0  0  0  0  0  0  0  0  0  0  0  0
  1  2  1  0
  2  3  1  0
  3  4  2  0
  3  5  1  0
  5  6  1  0
  6  7  2  0
  7  8  1  0
  8  9  2  0
  9 10  1  0
 10 11  2  0
 11 12  1  0
 12 13  1  0
 13 14  2  0
 14 15  1  0
 15 16  2  0
 16 17  1  0
 17 18  1  0
 18 19  2  0
 18 20  1  0
 20 21  1  0
 21 22  2  0
 22 23  1  0
 23 24  1  0
 24 25  1  0
 24 26  1  0
 24 27  1  0
 23 28  2  0
 28 29  1  0
 29 30  2  0
 30 31  1  0
 16 32  1  0
 32 33  2  0
 11 34  1  0
 34 35  2  0
 35 36  1  0
 36  6  1  0
 35  8  1  0
 33 13  1  0
 30 21  1  0
M  END
>  <Compound_ID>  (546) 
CHEMBL1909369

>  <Molecule Name>  (546) 
GW693917A

>  <Molecular Weight>  (546) 
556.93

>  <AlogP>  (546) 
7.07

>  <Smiles>  (546) 
COC(=O)Nc1nc2ccc(Oc3ccc(NC(=O)Nc4cc(C(F)(F)F)ccc4F)cc3)cc2s1

>  <Standard Type>  (546) 
Inhibition

>  <Standard Relation>  (546) 
'='

>  <Standard Units>  (546) 
%

>  <Standard Value>  (546) 
9.69

>  <Assay ChEMBL ID>  (546) 
CHEMBL1962142

>  <Assay Description>  (546) 
GSK_PKIS: MET mean inhibition at 0.1 uM [Nanosyn]

>  <BAO Format ID>  (546) 
BAO_0000357

>  <BAO Label>  (546) 
single protein format

>  <Assay Organism>  (546) 
None

>  <Target ChEMBL ID>  (546) 
CHEMBL3717

>  <Target Name>  (546) 
Hepatocyte growth factor receptor

>  <Target Organism>  (546) 
Homo sapiens

>  <Target Type>  (546) 
SINGLE PROTEIN

>  <Document ChEMBL ID>  (546) 
CHEMBL1961873

>  <Source Description>  (546) 
GSK Published Kinase Inhibitor Set

>  <Document Journal>  (546) 
nan

>  <Document Year>  (546) 
nan

>  <Active>  (546) 
0.0

$$$$

     RDKit          2D

 22 24  0  0  0  0  0  0  0  0999 V2000
   -2.6401   -3.1891    0.0000 C   0  0  0  0  0  0  0  0  0  0  0  0
   -1.2135   -2.7256    0.0000 N   0  0  0  0  0  0  0  0  0  0  0  0
   -0.0000   -3.6073    0.0000 C   0  0  0  0  0  0  0  0  0  0  0  0
   -0.0000   -5.1073    0.0000 O   0  0  0  0  0  0  0  0  0  0  0  0
    1.2135   -2.7256    0.0000 C   0  0  0  0  0  0  0  0  0  0  0  0
    2.6401   -3.1891    0.0000 N   0  0  0  0  0  0  0  0  0  0  0  0
    2.9520   -4.6564    0.0000 N   0  0  0  0  0  0  0  0  0  0  0  0
    4.3786   -5.1199    0.0000 C   0  0  0  0  0  0  0  0  0  0  0  0
    5.4933   -4.1162    0.0000 O   0  0  0  0  0  0  0  0  0  0  0  0
    4.6904   -6.5871    0.0000 C   0  0  0  0  0  0  0  0  0  0  0  0
    3.5757   -7.5908    0.0000 C   0  0  0  0  0  0  0  0  0  0  0  0
    3.8876   -9.0580    0.0000 C   0  0  0  0  0  0  0  0  0  0  0  0
    5.3142   -9.5216    0.0000 C   0  0  0  0  0  0  0  0  0  0  0  0
    5.6260  -10.9888    0.0000 Cl  0  0  0  0  0  0  0  0  0  0  0  0
    6.4289   -8.5179    0.0000 C   0  0  0  0  0  0  0  0  0  0  0  0
    6.1170   -7.0506    0.0000 C   0  0  0  0  0  0  0  0  0  0  0  0
    0.7500   -1.2990    0.0000 C   0  0  0  0  0  0  0  0  0  0  0  0
    1.5000    0.0000    0.0000 C   0  0  0  0  0  0  0  0  0  0  0  0
    0.7500    1.2990    0.0000 C   0  0  0  0  0  0  0  0  0  0  0  0
   -0.7500    1.2990    0.0000 C   0  0  0  0  0  0  0  0  0  0  0  0
   -1.5000    0.0000    0.0000 C   0  0  0  0  0  0  0  0  0  0  0  0
   -0.7500   -1.2990    0.0000 C   0  0  0  0  0  0  0  0  0  0  0  0
  1  2  1  0
  2  3  1  0
  3  4  2  0
  3  5  1  0
  5  6  2  0
  6  7  1  0
  7  8  1  0
  8  9  2  0
  8 10  1  0
 10 11  2  0
 11 12  1  0
 12 13  2  0
 13 14  1  0
 13 15  1  0
 15 16  2  0
  5 17  1  0
 17 18  2  0
 18 19  1  0
 19 20  2  0
 20 21  1  0
 21 22  2  0
 22  2  1  0
 16 10  1  0
 22 17  1  0
M  END
>  <Compound_ID>  (547) 
CHEMBL1779080

>  <Molecule Name>  (547) 
nan

>  <Molecular Weight>  (547) 
313.74

>  <AlogP>  (547) 
2.45

>  <Smiles>  (547) 
CN1C(=O)/C(=N\NC(=O)c2ccc(Cl)cc2)c2ccccc21

>  <Standard Type>  (547) 
Inhibition

>  <Standard Relation>  (547) 
'='

>  <Standard Units>  (547) 
%

>  <Standard Value>  (547) 
14.4

>  <Assay ChEMBL ID>  (547) 
CHEMBL1781430

>  <Assay Description>  (547) 
Inhibition of purified c-Met using poly(glu,tyr) as substrate at 10 uM after 60 mins by ELISA

>  <BAO Format ID>  (547) 
BAO_0000357

>  <BAO Label>  (547) 
single protein format

>  <Assay Organism>  (547) 
None

>  <Target ChEMBL ID>  (547) 
CHEMBL3717

>  <Target Name>  (547) 
Hepatocyte growth factor receptor

>  <Target Organism>  (547) 
Homo sapiens

>  <Target Type>  (547) 
SINGLE PROTEIN

>  <Document ChEMBL ID>  (547) 
CHEMBL1777704

>  <Source Description>  (547) 
Scientific Literature

>  <Document Journal>  (547) 
Bioorg Med Chem Lett

>  <Document Year>  (547) 
2011.0

>  <Active>  (547) 
0.0

$$$$

     RDKit          2D

 42 47  0  0  0  0  0  0  0  0999 V2000
   -0.4702  -13.1562    0.0000 O   0  0  0  0  0  0  0  0  0  0  0  0
    1.0216  -12.9994    0.0000 C   0  0  0  0  0  0  0  0  0  0  0  0
    1.6317  -11.6291    0.0000 O   0  0  0  0  0  0  0  0  0  0  0  0
    0.7500  -10.4156    0.0000 C   0  0  0  0  0  0  0  0  0  0  0  0
   -0.7500  -10.4156    0.0000 C   0  0  0  0  0  0  0  0  0  0  0  0
   -1.2135   -8.9890    0.0000 N   0  0  0  0  0  0  0  0  0  0  0  0
    0.0000   -8.1073    0.0000 C   0  0  0  0  0  0  0  0  0  0  0  0
   -0.0000   -6.6073    0.0000 C   0  0  0  0  0  0  0  0  0  0  0  0
   -0.0000   -5.1073    0.0000 C   0  0  0  0  0  0  0  0  0  0  0  0
   -0.0000   -3.6073    0.0000 C   0  0  0  0  0  0  0  0  0  0  0  0
    1.2135   -2.7256    0.0000 C   0  0  0  0  0  0  0  0  0  0  0  0
    0.7500   -1.2990    0.0000 C   0  0  0  0  0  0  0  0  0  0  0  0
    1.5000    0.0000    0.0000 N   0  0  0  0  0  0  0  0  0  0  0  0
    0.7500    1.2990    0.0000 C   0  0  0  0  0  0  0  0  0  0  0  0
   -0.7500    1.2990    0.0000 N   0  0  0  0  0  0  0  0  0  0  0  0
   -1.5000    0.0000    0.0000 C   0  0  0  0  0  0  0  0  0  0  0  0
   -3.0000    0.0000    0.0000 N   0  0  0  0  0  0  0  0  0  0  0  0
   -3.7500    1.2990    0.0000 C   0  0  0  0  0  0  0  0  0  0  0  0
   -3.0000    2.5981    0.0000 C   0  0  0  0  0  0  0  0  0  0  0  0
   -3.7500    3.8971    0.0000 C   0  0  0  0  0  0  0  0  0  0  0  0
   -5.2500    3.8971    0.0000 C   0  0  0  0  0  0  0  0  0  0  0  0
   -6.0000    5.1962    0.0000 O   0  0  0  0  0  0  0  0  0  0  0  0
   -5.2500    6.4952    0.0000 C   0  0  0  0  0  0  0  0  0  0  0  0
   -6.0000    7.7942    0.0000 C   0  0  0  0  0  0  0  0  0  0  0  0
   -5.2500    9.0933    0.0000 C   0  0  0  0  0  0  0  0  0  0  0  0
   -6.0000   10.3923    0.0000 C   0  0  0  0  0  0  0  0  0  0  0  0
   -7.5000   10.3923    0.0000 C   0  0  0  0  0  0  0  0  0  0  0  0
   -8.2500    9.0933    0.0000 C   0  0  0  0  0  0  0  0  0  0  0  0
   -9.7500    9.0933    0.0000 F   0  0  0  0  0  0  0  0  0  0  0  0
   -7.5000    7.7942    0.0000 C   0  0  0  0  0  0  0  0  0  0  0  0
   -6.0000    2.5981    0.0000 C   0  0  0  0  0  0  0  0  0  0  0  0
   -7.5000    2.5981    0.0000 Cl  0  0  0  0  0  0  0  0  0  0  0  0
   -5.2500    1.2990    0.0000 C   0  0  0  0  0  0  0  0  0  0  0  0
   -0.7500   -1.2990    0.0000 C   0  0  0  0  0  0  0  0  0  0  0  0
   -1.2135   -2.7256    0.0000 S   0  0  0  0  0  0  0  0  0  0  0  0
    1.2135   -8.9890    0.0000 C   0  0  0  0  0  0  0  0  0  0  0  0
    1.9033  -14.2129    0.0000 N   0  0  0  0  0  0  0  0  0  0  0  0
    1.2931  -15.5833    0.0000 C   0  0  0  0  0  0  0  0  0  0  0  0
    2.1748  -16.7968    0.0000 C   0  0  0  0  0  0  0  0  0  0  0  0
    3.6666  -16.6400    0.0000 O   0  0  0  0  0  0  0  0  0  0  0  0
    4.2767  -15.2697    0.0000 C   0  0  0  0  0  0  0  0  0  0  0  0
    3.3950  -14.0561    0.0000 C   0  0  0  0  0  0  0  0  0  0  0  0
  1  2  2  0
  2  3  1  0
  4  3  1  1
  4  5  1  0
  5  6  1  0
  6  7  1  0
  7  8  1  6
  8  9  3  0
  9 10  1  0
 10 11  2  0
 11 12  1  0
 12 13  2  0
 13 14  1  0
 14 15  2  0
 15 16  1  0
 16 17  1  0
 17 18  1  0
 18 19  2  0
 19 20  1  0
 20 21  2  0
 21 22  1  0
 22 23  1  0
 23 24  1  0
 24 25  2  0
 25 26  1  0
 26 27  2  0
 27 28  1  0
 28 29  1  0
 28 30  2  0
 21 31  1  0
 31 32  1  0
 31 33  2  0
 16 34  2  0
 34 35  1  0
  7 36  1  0
  2 37  1  0
 37 38  1  0
 38 39  1  0
 39 40  1  0
 40 41  1  0
 41 42  1  0
 36  4  1  0
 42 37  1  0
 35 10  1  0
 34 12  1  0
 33 18  1  0
 30 24  1  0
M  END
>  <Compound_ID>  (548) 
CHEMBL507329

>  <Molecule Name>  (548) 
GW869810X

>  <Molecular Weight>  (548) 
608.10

>  <AlogP>  (548) 
5.36

>  <Smiles>  (548) 
O=C(O[C@H]1CN[C@H](C#Cc2cc3ncnc(Nc4ccc(OCc5cccc(F)c5)c(Cl)c4)c3s2)C1)N1CCOCC1

>  <Standard Type>  (548) 
Inhibition

>  <Standard Relation>  (548) 
'='

>  <Standard Units>  (548) 
%

>  <Standard Value>  (548) 
7.49

>  <Assay ChEMBL ID>  (548) 
CHEMBL1962143

>  <Assay Description>  (548) 
GSK_PKIS: MET mean inhibition at 1 uM [Nanosyn]

>  <BAO Format ID>  (548) 
BAO_0000357

>  <BAO Label>  (548) 
single protein format

>  <Assay Organism>  (548) 
None

>  <Target ChEMBL ID>  (548) 
CHEMBL3717

>  <Target Name>  (548) 
Hepatocyte growth factor receptor

>  <Target Organism>  (548) 
Homo sapiens

>  <Target Type>  (548) 
SINGLE PROTEIN

>  <Document ChEMBL ID>  (548) 
CHEMBL1961873

>  <Source Description>  (548) 
GSK Published Kinase Inhibitor Set

>  <Document Journal>  (548) 
nan

>  <Document Year>  (548) 
nan

>  <Active>  (548) 
0.0

$$$$

     RDKit          2D

 32 35  0  0  0  0  0  0  0  0999 V2000
    8.2500  -11.6913    0.0000 C   0  0  0  0  0  0  0  0  0  0  0  0
    6.7500  -11.6913    0.0000 C   0  0  0  0  0  0  0  0  0  0  0  0
    6.0000  -10.3923    0.0000 S   0  0  0  0  0  0  0  0  0  0  0  0
    7.2990   -9.6423    0.0000 O   0  0  0  0  0  0  0  0  0  0  0  0
    4.7010  -11.1423    0.0000 O   0  0  0  0  0  0  0  0  0  0  0  0
    5.2500   -9.0933    0.0000 C   0  0  0  0  0  0  0  0  0  0  0  0
    3.7500   -9.0933    0.0000 C   0  0  0  0  0  0  0  0  0  0  0  0
    3.0000   -7.7942    0.0000 C   0  0  0  0  0  0  0  0  0  0  0  0
    3.7500   -6.4952    0.0000 C   0  0  0  0  0  0  0  0  0  0  0  0
    3.0000   -5.1962    0.0000 O   0  0  0  0  0  0  0  0  0  0  0  0
    1.5000   -5.1962    0.0000 C   0  0  0  0  0  0  0  0  0  0  0  0
    5.2500   -6.4952    0.0000 C   0  0  0  0  0  0  0  0  0  0  0  0
    6.0000   -5.1962    0.0000 N   0  0  0  0  0  0  0  0  0  0  0  0
    5.2500   -3.8971    0.0000 C   0  0  0  0  0  0  0  0  0  0  0  0
    6.0000   -2.5981    0.0000 N   0  0  0  0  0  0  0  0  0  0  0  0
    5.2500   -1.2990    0.0000 C   0  0  0  0  0  0  0  0  0  0  0  0
    3.7500   -1.2990    0.0000 C   0  0  0  0  0  0  0  0  0  0  0  0
    3.0000   -2.5981    0.0000 C   0  0  0  0  0  0  0  0  0  0  0  0
    1.5000   -2.5981    0.0000 N   0  0  0  0  0  0  0  0  0  0  0  0
    0.7500   -3.8971    0.0000 C   0  0  0  0  0  0  0  0  0  0  0  0
    0.7500   -1.2990    0.0000 C   0  0  0  0  0  0  0  0  0  0  0  0
    1.5000    0.0000    0.0000 C   0  0  0  0  0  0  0  0  0  0  0  0
    0.7500    1.2990    0.0000 C   0  0  0  0  0  0  0  0  0  0  0  0
   -0.7500    1.2990    0.0000 C   0  0  0  0  0  0  0  0  0  0  0  0
   -1.7537    2.4138    0.0000 C   0  0  0  0  0  0  0  0  0  0  0  0
   -1.4418    3.8810    0.0000 C   0  0  0  0  0  0  0  0  0  0  0  0
   -3.1240    1.8037    0.0000 N   0  0  0  0  0  0  0  0  0  0  0  0
   -2.9672    0.3119    0.0000 N   0  0  0  0  0  0  0  0  0  0  0  0
   -1.5000    0.0000    0.0000 C   0  0  0  0  0  0  0  0  0  0  0  0
   -0.7500   -1.2990    0.0000 C   0  0  0  0  0  0  0  0  0  0  0  0
    3.7500   -3.8971    0.0000 N   0  0  0  0  0  0  0  0  0  0  0  0
    6.0000   -7.7942    0.0000 C   0  0  0  0  0  0  0  0  0  0  0  0
  1  2  1  0
  2  3  1  0
  3  4  2  0
  3  5  2  0
  3  6  1  0
  6  7  2  0
  7  8  1  0
  8  9  2  0
  9 10  1  0
 10 11  1  0
  9 12  1  0
 12 13  1  0
 13 14  1  0
 14 15  2  0
 15 16  1  0
 16 17  2  0
 17 18  1  0
 18 19  1  0
 19 20  1  0
 19 21  1  0
 21 22  2  0
 22 23  1  0
 23 24  2  0
 24 25  1  0
 25 26  1  0
 25 27  2  0
 27 28  1  0
 28 29  1  0
 29 30  2  0
 18 31  2  0
 12 32  2  0
 32  6  1  0
 31 14  1  0
 30 21  1  0
 29 24  1  0
M  END
>  <Compound_ID>  (549) 
CHEMBL1909358

>  <Molecule Name>  (549) 
GW654652C

>  <Molecular Weight>  (549) 
489.00

>  <AlogP>  (549) 
3.98

>  <Smiles>  (549) 
CCS(=O)(=O)c1ccc(OC)c(Nc2nccc(N(C)c3ccc4c(C)n[nH]c4c3)n2)c1

>  <Standard Type>  (549) 
Inhibition

>  <Standard Relation>  (549) 
'='

>  <Standard Units>  (549) 
%

>  <Standard Value>  (549) 
3.86

>  <Assay ChEMBL ID>  (549) 
CHEMBL1962142

>  <Assay Description>  (549) 
GSK_PKIS: MET mean inhibition at 0.1 uM [Nanosyn]

>  <BAO Format ID>  (549) 
BAO_0000357

>  <BAO Label>  (549) 
single protein format

>  <Assay Organism>  (549) 
None

>  <Target ChEMBL ID>  (549) 
CHEMBL3717

>  <Target Name>  (549) 
Hepatocyte growth factor receptor

>  <Target Organism>  (549) 
Homo sapiens

>  <Target Type>  (549) 
SINGLE PROTEIN

>  <Document ChEMBL ID>  (549) 
CHEMBL1961873

>  <Source Description>  (549) 
GSK Published Kinase Inhibitor Set

>  <Document Journal>  (549) 
nan

>  <Document Year>  (549) 
nan

>  <Active>  (549) 
0.0

$$$$

     RDKit          2D

 21 23  0  0  0  0  0  0  0  0999 V2000
    4.6740   -7.4303    0.0000 O   0  0  0  0  0  0  0  0  0  0  0  0
    3.3037   -6.8202    0.0000 C   0  0  0  0  0  0  0  0  0  0  0  0
    2.9918   -5.3529    0.0000 O   0  0  0  0  0  0  0  0  0  0  0  0
    1.5000   -5.1962    0.0000 C   0  0  0  0  0  0  0  0  0  0  0  0
    0.7500   -3.8971    0.0000 C   0  0  0  0  0  0  0  0  0  0  0  0
    1.5000   -2.5981    0.0000 C   0  0  0  0  0  0  0  0  0  0  0  0
    0.7500   -1.2990    0.0000 C   0  0  0  0  0  0  0  0  0  0  0  0
    1.5000    0.0000    0.0000 C   0  0  0  0  0  0  0  0  0  0  0  0
    0.7500    1.2990    0.0000 C   0  0  0  0  0  0  0  0  0  0  0  0
   -0.7500    1.2990    0.0000 C   0  0  0  0  0  0  0  0  0  0  0  0
   -1.5000    0.0000    0.0000 C   0  0  0  0  0  0  0  0  0  0  0  0
   -0.7500   -1.2990    0.0000 C   0  0  0  0  0  0  0  0  0  0  0  0
    0.8899   -6.5665    0.0000 N   0  0  0  0  0  0  0  0  0  0  0  0
    2.0046   -7.5702    0.0000 C   0  0  0  0  0  0  0  0  0  0  0  0
    1.8478   -9.0619    0.0000 C   0  0  0  0  0  0  0  0  0  0  0  0
    0.4775   -9.6721    0.0000 C   0  0  0  0  0  0  0  0  0  0  0  0
   -0.7360   -8.7904    0.0000 C   0  0  0  0  0  0  0  0  0  0  0  0
   -2.1063   -9.4005    0.0000 C   0  0  0  0  0  0  0  0  0  0  0  0
   -2.2631  -10.8923    0.0000 C   0  0  0  0  0  0  0  0  0  0  0  0
   -1.0496  -11.7739    0.0000 N   0  0  0  0  0  0  0  0  0  0  0  0
    0.3207  -11.1638    0.0000 C   0  0  0  0  0  0  0  0  0  0  0  0
  1  2  2  0
  2  3  1  0
  3  4  1  0
  4  5  1  0
  5  6  2  0
  6  7  1  0
  7  8  2  0
  8  9  1  0
  9 10  2  0
 10 11  1  0
 11 12  2  0
  4 13  2  0
 13 14  1  0
 14 15  2  0
 15 16  1  0
 16 17  2  0
 17 18  1  0
 18 19  2  0
 19 20  1  0
 20 21  2  0
 14  2  1  0
 21 16  1  0
 12  7  1  0
M  END
>  <Compound_ID>  (550) 
CHEMBL565286

>  <Molecule Name>  (550) 
nan

>  <Molecular Weight>  (550) 
276.30

>  <AlogP>  (550) 
3.09

>  <Smiles>  (550) 
O=C1OC(/C=C/c2ccccc2)=N/C1=C\c1cccnc1

>  <Standard Type>  (550) 
Inhibition

>  <Standard Relation>  (550) 
'='

>  <Standard Units>  (550) 
%

>  <Standard Value>  (550) 
3.0

>  <Assay ChEMBL ID>  (550) 
CHEMBL1113454

>  <Assay Description>  (550) 
Inhibition of MET at 10 uM

>  <BAO Format ID>  (550) 
BAO_0000357

>  <BAO Label>  (550) 
single protein format

>  <Assay Organism>  (550) 
None

>  <Target ChEMBL ID>  (550) 
CHEMBL3717

>  <Target Name>  (550) 
Hepatocyte growth factor receptor

>  <Target Organism>  (550) 
Homo sapiens

>  <Target Type>  (550) 
SINGLE PROTEIN

>  <Document ChEMBL ID>  (550) 
CHEMBL1156313

>  <Source Description>  (550) 
Scientific Literature

>  <Document Journal>  (550) 
Bioorg Med Chem

>  <Document Year>  (550) 
2010.0

>  <Active>  (550) 
0.0

$$$$

     RDKit          2D

 24 26  0  0  0  0  0  0  0  0999 V2000
    3.0000    0.0000    0.0000 C   0  0  0  0  0  0  0  0  0  0  0  0
    1.5000    0.0000    0.0000 C   0  0  0  0  0  0  0  0  0  0  0  0
    0.7500   -1.2990    0.0000 C   0  0  0  0  0  0  0  0  0  0  0  0
   -0.7500   -1.2990    0.0000 C   0  0  0  0  0  0  0  0  0  0  0  0
   -1.5000   -2.5981    0.0000 Cl  0  0  0  0  0  0  0  0  0  0  0  0
   -1.5000    0.0000    0.0000 C   0  0  0  0  0  0  0  0  0  0  0  0
   -0.7500    1.2990    0.0000 C   0  0  0  0  0  0  0  0  0  0  0  0
    0.7500    1.2990    0.0000 C   0  0  0  0  0  0  0  0  0  0  0  0
    1.2135    2.7256    0.0000 N   0  0  0  0  0  0  0  0  0  0  0  0
    0.0000    3.6073    0.0000 C   0  0  0  0  0  0  0  0  0  0  0  0
    0.0000    5.1073    0.0000 O   0  0  0  0  0  0  0  0  0  0  0  0
   -1.2135    2.7256    0.0000 C   0  0  0  0  0  0  0  0  0  0  0  0
   -2.6401    3.1891    0.0000 N   0  0  0  0  0  0  0  0  0  0  0  0
   -2.9520    4.6564    0.0000 N   0  0  0  0  0  0  0  0  0  0  0  0
   -4.3786    5.1199    0.0000 C   0  0  0  0  0  0  0  0  0  0  0  0
   -4.6904    6.5871    0.0000 C   0  0  0  0  0  0  0  0  0  0  0  0
   -6.1170    7.0506    0.0000 C   0  0  0  0  0  0  0  0  0  0  0  0
   -7.2317    6.0469    0.0000 C   0  0  0  0  0  0  0  0  0  0  0  0
   -8.6583    6.5105    0.0000 S   0  0  0  0  0  0  0  0  0  0  0  0
  -10.0849    6.9740    0.0000 N   0  0  0  0  0  0  0  0  0  0  0  0
   -8.1948    7.9371    0.0000 O   0  0  0  0  0  0  0  0  0  0  0  0
   -9.1218    5.0839    0.0000 O   0  0  0  0  0  0  0  0  0  0  0  0
   -6.9199    4.5797    0.0000 C   0  0  0  0  0  0  0  0  0  0  0  0
   -5.4933    4.1162    0.0000 C   0  0  0  0  0  0  0  0  0  0  0  0
  1  2  1  0
  2  3  2  0
  3  4  1  0
  4  5  1  0
  4  6  2  0
  6  7  1  0
  7  8  2  0
  8  9  1  0
  9 10  1  0
 10 11  2  0
 10 12  1  0
 12 13  2  3
 13 14  1  0
 14 15  1  0
 15 16  2  0
 16 17  1  0
 17 18  2  0
 18 19  1  0
 19 20  1  0
 19 21  2  0
 19 22  2  0
 18 23  1  0
 23 24  2  0
  8  2  1  0
 24 15  1  0
 12  7  1  0
M  END
>  <Compound_ID>  (551) 
CHEMBL1909397

>  <Molecule Name>  (551) 
GW279320X

>  <Molecular Weight>  (551) 
364.81

>  <AlogP>  (551) 
2.06

>  <Smiles>  (551) 
Cc1cc(Cl)cc2c1NC(=O)C2=NNc1ccc(S(N)(=O)=O)cc1

>  <Standard Type>  (551) 
Inhibition

>  <Standard Relation>  (551) 
'='

>  <Standard Units>  (551) 
%

>  <Standard Value>  (551) 
5.08

>  <Assay ChEMBL ID>  (551) 
CHEMBL1962143

>  <Assay Description>  (551) 
GSK_PKIS: MET mean inhibition at 1 uM [Nanosyn]

>  <BAO Format ID>  (551) 
BAO_0000357

>  <BAO Label>  (551) 
single protein format

>  <Assay Organism>  (551) 
None

>  <Target ChEMBL ID>  (551) 
CHEMBL3717

>  <Target Name>  (551) 
Hepatocyte growth factor receptor

>  <Target Organism>  (551) 
Homo sapiens

>  <Target Type>  (551) 
SINGLE PROTEIN

>  <Document ChEMBL ID>  (551) 
CHEMBL1961873

>  <Source Description>  (551) 
GSK Published Kinase Inhibitor Set

>  <Document Journal>  (551) 
nan

>  <Document Year>  (551) 
nan

>  <Active>  (551) 
0.0

$$$$

     RDKit          2D

 36 40  0  0  0  0  0  0  0  0999 V2000
   -2.9520   -4.6564    0.0000 C   0  0  0  0  0  0  0  0  0  0  0  0
   -2.6401   -3.1891    0.0000 C   0  0  0  0  0  0  0  0  0  0  0  0
   -3.7548   -2.1855    0.0000 C   0  0  0  0  0  0  0  0  0  0  0  0
   -1.2135   -2.7256    0.0000 N   0  0  0  0  0  0  0  0  0  0  0  0
   -0.0000   -3.6073    0.0000 C   0  0  0  0  0  0  0  0  0  0  0  0
    1.2135   -2.7256    0.0000 C   0  0  0  0  0  0  0  0  0  0  0  0
    2.6401   -3.1891    0.0000 C   0  0  0  0  0  0  0  0  0  0  0  0
    3.7548   -2.1855    0.0000 O   0  0  0  0  0  0  0  0  0  0  0  0
    2.9520   -4.6564    0.0000 C   0  0  0  0  0  0  0  0  0  0  0  0
    1.8373   -5.6601    0.0000 C   0  0  0  0  0  0  0  0  0  0  0  0
    2.1491   -7.1273    0.0000 N   0  0  0  0  0  0  0  0  0  0  0  0
    3.5757   -7.5908    0.0000 C   0  0  0  0  0  0  0  0  0  0  0  0
    4.6904   -6.5871    0.0000 C   0  0  0  0  0  0  0  0  0  0  0  0
    6.1170   -7.0506    0.0000 N   0  0  0  0  0  0  0  0  0  0  0  0
    6.4289   -8.5179    0.0000 C   0  0  0  0  0  0  0  0  0  0  0  0
    5.4252   -9.6326    0.0000 C   0  0  0  0  0  0  0  0  0  0  0  0
    6.1752  -10.9316    0.0000 C   0  0  0  0  0  0  0  0  0  0  0  0
    7.6424  -10.6198    0.0000 N   0  0  0  0  0  0  0  0  0  0  0  0
    8.7571  -11.6234    0.0000 C   0  0  0  0  0  0  0  0  0  0  0  0
   10.1837  -11.1599    0.0000 O   0  0  0  0  0  0  0  0  0  0  0  0
    7.7992   -9.1280    0.0000 C   0  0  0  0  0  0  0  0  0  0  0  0
    9.0982   -8.3780    0.0000 C   0  0  0  0  0  0  0  0  0  0  0  0
   10.3973   -9.1280    0.0000 C   0  0  0  0  0  0  0  0  0  0  0  0
   11.6963   -8.3780    0.0000 C   0  0  0  0  0  0  0  0  0  0  0  0
   11.6963   -6.8780    0.0000 C   0  0  0  0  0  0  0  0  0  0  0  0
   12.9954   -6.1280    0.0000 F   0  0  0  0  0  0  0  0  0  0  0  0
   10.3973   -6.1280    0.0000 C   0  0  0  0  0  0  0  0  0  0  0  0
    9.0982   -6.8780    0.0000 C   0  0  0  0  0  0  0  0  0  0  0  0
    4.3786   -5.1199    0.0000 N   0  0  0  0  0  0  0  0  0  0  0  0
    0.7500   -1.2990    0.0000 C   0  0  0  0  0  0  0  0  0  0  0  0
    1.5000    0.0000    0.0000 C   0  0  0  0  0  0  0  0  0  0  0  0
    3.0000    0.0000    0.0000 N   0  0  0  0  0  0  0  0  0  0  0  0
    0.7500    1.2990    0.0000 N   0  0  0  0  0  0  0  0  0  0  0  0
   -0.7500    1.2990    0.0000 C   0  0  0  0  0  0  0  0  0  0  0  0
   -1.5000    0.0000    0.0000 N   0  0  0  0  0  0  0  0  0  0  0  0
   -0.7500   -1.2990    0.0000 C   0  0  0  0  0  0  0  0  0  0  0  0
  1  2  1  0
  2  3  1  0
  2  4  1  0
  4  5  1  0
  5  6  2  0
  6  7  1  0
  7  8  2  0
  7  9  1  0
  9 10  2  0
 10 11  1  0
 11 12  2  0
 12 13  1  0
 13 14  1  0
 15 14  1  1
 15 16  1  0
 16 17  1  0
 17 18  1  0
 18 19  1  0
 19 20  2  0
 18 21  1  0
 21 22  1  1
 22 23  2  0
 23 24  1  0
 24 25  2  0
 25 26  1  0
 25 27  1  0
 27 28  2  0
 13 29  2  0
  6 30  1  0
 30 31  2  0
 31 32  1  0
 31 33  1  0
 33 34  2  0
 34 35  1  0
 35 36  2  0
 36  4  1  0
 29  9  1  0
 36 30  1  0
 21 15  1  0
 28 22  1  0
M  END
>  <Compound_ID>  (552) 
CHEMBL1940251

>  <Molecule Name>  (552) 
nan

>  <Molecular Weight>  (552) 
488.53

>  <AlogP>  (552) 
3.14

>  <Smiles>  (552) 
CC(C)n1cc(C(=O)c2cncc(N[C@@H]3CCN(C=O)[C@@H]3c3ccc(F)cc3)n2)c2c(N)ncnc21

>  <Standard Type>  (552) 
Inhibition

>  <Standard Relation>  (552) 
'='

>  <Standard Units>  (552) 
%

>  <Standard Value>  (552) 
12.0

>  <Assay ChEMBL ID>  (552) 
CHEMBL1942191

>  <Assay Description>  (552) 
Inhibition of MET at 1 uM

>  <BAO Format ID>  (552) 
BAO_0000357

>  <BAO Label>  (552) 
single protein format

>  <Assay Organism>  (552) 
None

>  <Target ChEMBL ID>  (552) 
CHEMBL3717

>  <Target Name>  (552) 
Hepatocyte growth factor receptor

>  <Target Organism>  (552) 
Homo sapiens

>  <Target Type>  (552) 
SINGLE PROTEIN

>  <Document ChEMBL ID>  (552) 
CHEMBL1938337

>  <Source Description>  (552) 
Scientific Literature

>  <Document Journal>  (552) 
J Med Chem

>  <Document Year>  (552) 
2011.0

>  <Active>  (552) 
0.0

$$$$

     RDKit          2D

 31 35  0  0  0  0  0  0  0  0999 V2000
   12.7500   -1.2990    0.0000 F   0  0  0  0  0  0  0  0  0  0  0  0
   12.0000   -2.5981    0.0000 C   0  0  0  0  0  0  0  0  0  0  0  0
   12.7500   -3.8971    0.0000 C   0  0  0  0  0  0  0  0  0  0  0  0
   12.0000   -5.1962    0.0000 C   0  0  0  0  0  0  0  0  0  0  0  0
   10.5000   -5.1962    0.0000 C   0  0  0  0  0  0  0  0  0  0  0  0
    9.7500   -3.8971    0.0000 C   0  0  0  0  0  0  0  0  0  0  0  0
    8.2500   -3.8971    0.0000 C   0  0  0  0  0  0  0  0  0  0  0  0
    7.5000   -2.5981    0.0000 O   0  0  0  0  0  0  0  0  0  0  0  0
    6.0000   -2.5981    0.0000 C   0  0  0  0  0  0  0  0  0  0  0  0
    5.2500   -1.2990    0.0000 C   0  0  0  0  0  0  0  0  0  0  0  0
    3.7500   -1.2990    0.0000 C   0  0  0  0  0  0  0  0  0  0  0  0
    3.0000   -2.5981    0.0000 C   0  0  0  0  0  0  0  0  0  0  0  0
    1.5000   -2.5981    0.0000 N   0  0  0  0  0  0  0  0  0  0  0  0
    0.7500   -1.2990    0.0000 C   0  0  0  0  0  0  0  0  0  0  0  0
    1.5000    0.0000    0.0000 N   0  0  0  0  0  0  0  0  0  0  0  0
    0.7500    1.2990    0.0000 C   0  0  0  0  0  0  0  0  0  0  0  0
   -0.7500    1.2990    0.0000 N   0  0  0  0  0  0  0  0  0  0  0  0
   -1.5000    0.0000    0.0000 C   0  0  0  0  0  0  0  0  0  0  0  0
   -2.9672   -0.3119    0.0000 C   0  0  0  0  0  0  0  0  0  0  0  0
   -3.1240   -1.8037    0.0000 C   0  0  0  0  0  0  0  0  0  0  0  0
   -4.4231   -2.5537    0.0000 C   0  0  0  0  0  0  0  0  0  0  0  0
   -4.5798   -4.0454    0.0000 C   0  0  0  0  0  0  0  0  0  0  0  0
   -6.0471   -4.3573    0.0000 C   0  0  0  0  0  0  0  0  0  0  0  0
   -6.7971   -3.0583    0.0000 C   0  0  0  0  0  0  0  0  0  0  0  0
   -5.7934   -1.9435    0.0000 N   0  0  0  0  0  0  0  0  0  0  0  0
   -1.7537   -2.4138    0.0000 S   0  0  0  0  0  0  0  0  0  0  0  0
   -0.7500   -1.2990    0.0000 C   0  0  0  0  0  0  0  0  0  0  0  0
    3.7500   -3.8971    0.0000 C   0  0  0  0  0  0  0  0  0  0  0  0
    5.2500   -3.8971    0.0000 C   0  0  0  0  0  0  0  0  0  0  0  0
    6.0000   -5.1962    0.0000 Cl  0  0  0  0  0  0  0  0  0  0  0  0
   10.5000   -2.5981    0.0000 C   0  0  0  0  0  0  0  0  0  0  0  0
  1  2  1  0
  2  3  2  0
  3  4  1  0
  4  5  2  0
  5  6  1  0
  6  7  1  0
  7  8  1  0
  8  9  1  0
  9 10  2  0
 10 11  1  0
 11 12  2  0
 12 13  1  0
 13 14  1  0
 14 15  2  0
 15 16  1  0
 16 17  2  0
 17 18  1  0
 18 19  1  0
 19 20  2  0
 20 21  1  0
 21 22  2  0
 22 23  1  0
 23 24  2  0
 24 25  1  0
 20 26  1  0
 26 27  1  0
 12 28  1  0
 28 29  2  0
 29 30  1  0
  6 31  2  0
 31  2  1  0
 29  9  1  0
 27 14  1  0
 27 18  2  0
 25 21  1  0
M  END
>  <Compound_ID>  (553) 
CHEMBL1909415

>  <Molecule Name>  (553) 
GW693881A

>  <Molecular Weight>  (553) 
487.39

>  <AlogP>  (553) 
6.80

>  <Smiles>  (553) 
Fc1cccc(COc2ccc(Nc3ncnc4cc(-c5ccc[nH]5)sc34)cc2Cl)c1

>  <Standard Type>  (553) 
Inhibition

>  <Standard Relation>  (553) 
'='

>  <Standard Units>  (553) 
%

>  <Standard Value>  (553) 
-0.09

>  <Assay ChEMBL ID>  (553) 
CHEMBL1962142

>  <Assay Description>  (553) 
GSK_PKIS: MET mean inhibition at 0.1 uM [Nanosyn]

>  <BAO Format ID>  (553) 
BAO_0000357

>  <BAO Label>  (553) 
single protein format

>  <Assay Organism>  (553) 
None

>  <Target ChEMBL ID>  (553) 
CHEMBL3717

>  <Target Name>  (553) 
Hepatocyte growth factor receptor

>  <Target Organism>  (553) 
Homo sapiens

>  <Target Type>  (553) 
SINGLE PROTEIN

>  <Document ChEMBL ID>  (553) 
CHEMBL1961873

>  <Source Description>  (553) 
GSK Published Kinase Inhibitor Set

>  <Document Journal>  (553) 
nan

>  <Document Year>  (553) 
nan

>  <Active>  (553) 
0.0

$$$$

     RDKit          2D

 27 30  0  0  0  0  0  0  0  0999 V2000
   -4.6904   -6.5871    0.0000 N   0  0  0  0  0  0  0  0  0  0  0  0
   -4.3786   -5.1199    0.0000 C   0  0  0  0  0  0  0  0  0  0  0  0
   -5.4933   -4.1162    0.0000 N   0  0  0  0  0  0  0  0  0  0  0  0
   -5.1814   -2.6490    0.0000 C   0  0  0  0  0  0  0  0  0  0  0  0
   -3.7548   -2.1855    0.0000 C   0  0  0  0  0  0  0  0  0  0  0  0
   -2.6401   -3.1891    0.0000 C   0  0  0  0  0  0  0  0  0  0  0  0
   -1.2135   -2.7256    0.0000 C   0  0  0  0  0  0  0  0  0  0  0  0
   -0.0000   -3.6073    0.0000 C   0  0  0  0  0  0  0  0  0  0  0  0
   -0.0000   -5.1073    0.0000 C   0  0  0  0  0  0  0  0  0  0  0  0
   -1.2990   -5.8573    0.0000 C   0  0  0  0  0  0  0  0  0  0  0  0
   -1.2990   -7.3573    0.0000 C   0  0  0  0  0  0  0  0  0  0  0  0
   -0.0000   -8.1073    0.0000 C   0  0  0  0  0  0  0  0  0  0  0  0
    0.0000   -9.6073    0.0000 F   0  0  0  0  0  0  0  0  0  0  0  0
    1.2990   -7.3573    0.0000 C   0  0  0  0  0  0  0  0  0  0  0  0
    1.2990   -5.8573    0.0000 C   0  0  0  0  0  0  0  0  0  0  0  0
    1.2135   -2.7256    0.0000 N   0  0  0  0  0  0  0  0  0  0  0  0
    0.7500   -1.2990    0.0000 N   0  0  0  0  0  0  0  0  0  0  0  0
    1.5000    0.0000    0.0000 C   0  0  0  0  0  0  0  0  0  0  0  0
    0.7500    1.2990    0.0000 C   0  0  0  0  0  0  0  0  0  0  0  0
    1.5000    2.5981    0.0000 C   0  0  0  0  0  0  0  0  0  0  0  0
    2.2500    3.8971    0.0000 F   0  0  0  0  0  0  0  0  0  0  0  0
    2.7990    1.8481    0.0000 F   0  0  0  0  0  0  0  0  0  0  0  0
    0.2010    3.3481    0.0000 F   0  0  0  0  0  0  0  0  0  0  0  0
   -0.7500    1.2990    0.0000 C   0  0  0  0  0  0  0  0  0  0  0  0
   -1.5000    0.0000    0.0000 C   0  0  0  0  0  0  0  0  0  0  0  0
   -0.7500   -1.2990    0.0000 C   0  0  0  0  0  0  0  0  0  0  0  0
   -2.9520   -4.6564    0.0000 N   0  0  0  0  0  0  0  0  0  0  0  0
  1  2  1  0
  2  3  2  0
  3  4  1  0
  4  5  2  0
  5  6  1  0
  6  7  1  0
  7  8  1  0
  8  9  1  0
  9 10  2  0
 10 11  1  0
 11 12  2  0
 12 13  1  0
 12 14  1  0
 14 15  2  0
  8 16  2  0
 16 17  1  0
 17 18  1  0
 18 19  2  0
 19 20  1  0
 20 21  1  0
 20 22  1  0
 20 23  1  0
 19 24  1  0
 24 25  2  0
 25 26  1  0
  6 27  2  0
 27  2  1  0
 26  7  2  0
 15  9  1  0
 26 17  1  0
M  END
>  <Compound_ID>  (554) 
CHEMBL1909402

>  <Molecule Name>  (554) 
GW568326X

>  <Molecular Weight>  (554) 
373.31

>  <AlogP>  (554) 
4.20

>  <Smiles>  (554) 
Nc1nccc(-c2c(-c3ccc(F)cc3)nn3cc(C(F)(F)F)ccc23)n1

>  <Standard Type>  (554) 
Inhibition

>  <Standard Relation>  (554) 
'='

>  <Standard Units>  (554) 
%

>  <Standard Value>  (554) 
2.79

>  <Assay ChEMBL ID>  (554) 
CHEMBL1962142

>  <Assay Description>  (554) 
GSK_PKIS: MET mean inhibition at 0.1 uM [Nanosyn]

>  <BAO Format ID>  (554) 
BAO_0000357

>  <BAO Label>  (554) 
single protein format

>  <Assay Organism>  (554) 
None

>  <Target ChEMBL ID>  (554) 
CHEMBL3717

>  <Target Name>  (554) 
Hepatocyte growth factor receptor

>  <Target Organism>  (554) 
Homo sapiens

>  <Target Type>  (554) 
SINGLE PROTEIN

>  <Document ChEMBL ID>  (554) 
CHEMBL1961873

>  <Source Description>  (554) 
GSK Published Kinase Inhibitor Set

>  <Document Journal>  (554) 
nan

>  <Document Year>  (554) 
nan

>  <Active>  (554) 
0.0

$$$$

     RDKit          2D

 32 35  0  0  0  0  0  0  0  0999 V2000
    3.7500  -11.6913    0.0000 C   0  0  0  0  0  0  0  0  0  0  0  0
    3.0000  -10.3923    0.0000 N   0  0  0  0  0  0  0  0  0  0  0  0
    1.5000  -10.3923    0.0000 C   0  0  0  0  0  0  0  0  0  0  0  0
    0.7500   -9.0933    0.0000 C   0  0  0  0  0  0  0  0  0  0  0  0
    1.5000   -7.7942    0.0000 N   0  0  0  0  0  0  0  0  0  0  0  0
    0.7500   -6.4952    0.0000 C   0  0  0  0  0  0  0  0  0  0  0  0
    1.5000   -5.1962    0.0000 C   0  0  0  0  0  0  0  0  0  0  0  0
    0.7500   -3.8971    0.0000 C   0  0  0  0  0  0  0  0  0  0  0  0
    1.5000   -2.5981    0.0000 N   0  0  0  0  0  0  0  0  0  0  0  0
    0.7500   -1.2990    0.0000 C   0  0  0  0  0  0  0  0  0  0  0  0
    1.5000    0.0000    0.0000 N   0  0  0  0  0  0  0  0  0  0  0  0
    0.7500    1.2990    0.0000 C   0  0  0  0  0  0  0  0  0  0  0  0
   -0.7500    1.2990    0.0000 C   0  0  0  0  0  0  0  0  0  0  0  0
   -1.5000    2.5981    0.0000 C   0  0  0  0  0  0  0  0  0  0  0  0
   -3.0000    2.5981    0.0000 C   0  0  0  0  0  0  0  0  0  0  0  0
   -3.7500    3.8971    0.0000 O   0  0  0  0  0  0  0  0  0  0  0  0
   -3.0000    5.1962    0.0000 C   0  0  0  0  0  0  0  0  0  0  0  0
   -1.5000    5.1962    0.0000 C   0  0  0  0  0  0  0  0  0  0  0  0
   -0.7500    6.4952    0.0000 C   0  0  0  0  0  0  0  0  0  0  0  0
   -1.5000    7.7942    0.0000 C   0  0  0  0  0  0  0  0  0  0  0  0
   -0.7500    9.0933    0.0000 F   0  0  0  0  0  0  0  0  0  0  0  0
   -3.0000    7.7942    0.0000 C   0  0  0  0  0  0  0  0  0  0  0  0
   -3.7500    6.4952    0.0000 C   0  0  0  0  0  0  0  0  0  0  0  0
   -5.2500    6.4952    0.0000 F   0  0  0  0  0  0  0  0  0  0  0  0
   -3.7500    1.2990    0.0000 C   0  0  0  0  0  0  0  0  0  0  0  0
   -5.2500    1.2990    0.0000 O   0  0  0  0  0  0  0  0  0  0  0  0
   -3.0000    0.0000    0.0000 N   0  0  0  0  0  0  0  0  0  0  0  0
   -3.7500   -1.2990    0.0000 C   0  0  0  0  0  0  0  0  0  0  0  0
   -1.5000    0.0000    0.0000 C   0  0  0  0  0  0  0  0  0  0  0  0
   -0.7500   -1.2990    0.0000 N   0  0  0  0  0  0  0  0  0  0  0  0
    3.0000   -7.7942    0.0000 C   0  0  0  0  0  0  0  0  0  0  0  0
    3.7500   -9.0933    0.0000 C   0  0  0  0  0  0  0  0  0  0  0  0
  1  2  1  0
  2  3  1  0
  3  4  1  0
  4  5  1  0
  5  6  1  0
  6  7  1  0
  7  8  1  0
  8  9  1  0
  9 10  1  0
 10 11  2  0
 11 12  1  0
 12 13  2  0
 13 14  1  0
 14 15  2  0
 15 16  1  0
 16 17  1  0
 17 18  2  0
 18 19  1  0
 19 20  2  0
 20 21  1  0
 20 22  1  0
 22 23  2  0
 23 24  1  0
 15 25  1  0
 25 26  2  0
 25 27  1  0
 27 28  1  0
 27 29  1  0
 29 30  2  0
  5 31  1  0
 31 32  1  0
 32  2  1  0
 30 10  1  0
 29 13  1  0
 23 17  1  0
M  END
>  <Compound_ID>  (555) 
CHEMBL3746022

>  <Molecule Name>  (555) 
nan

>  <Molecular Weight>  (555) 
444.49

>  <AlogP>  (555) 
2.45

>  <Smiles>  (555) 
CN1CCN(CCCNc2ncc3cc(Oc4ccc(F)cc4F)c(=O)n(C)c3n2)CC1

>  <Standard Type>  (555) 
Inhibition

>  <Standard Relation>  (555) 
'='

>  <Standard Units>  (555) 
%

>  <Standard Value>  (555) 
0.0

>  <Assay ChEMBL ID>  (555) 
CHEMBL3750644

>  <Assay Description>  (555) 
Inhibition of cMET (unknown origin) at 10 uM

>  <BAO Format ID>  (555) 
BAO_0000357

>  <BAO Label>  (555) 
single protein format

>  <Assay Organism>  (555) 
Homo sapiens

>  <Target ChEMBL ID>  (555) 
CHEMBL3717

>  <Target Name>  (555) 
Hepatocyte growth factor receptor

>  <Target Organism>  (555) 
Homo sapiens

>  <Target Type>  (555) 
SINGLE PROTEIN

>  <Document ChEMBL ID>  (555) 
CHEMBL3745672

>  <Source Description>  (555) 
Scientific Literature

>  <Document Journal>  (555) 
Bioorg Med Chem Lett

>  <Document Year>  (555) 
2016.0

>  <Active>  (555) 
0.0

$$$$

     RDKit          2D

 30 33  0  0  0  0  0  0  0  0999 V2000
   -7.0526  -11.4523    0.0000 C   0  0  0  0  0  0  0  0  0  0  0  0
   -5.6260  -10.9888    0.0000 O   0  0  0  0  0  0  0  0  0  0  0  0
   -5.3142   -9.5216    0.0000 C   0  0  0  0  0  0  0  0  0  0  0  0
   -6.4289   -8.5179    0.0000 C   0  0  0  0  0  0  0  0  0  0  0  0
   -6.1170   -7.0506    0.0000 C   0  0  0  0  0  0  0  0  0  0  0  0
   -4.6904   -6.5871    0.0000 C   0  0  0  0  0  0  0  0  0  0  0  0
   -4.3786   -5.1199    0.0000 C   0  0  0  0  0  0  0  0  0  0  0  0
   -5.4933   -4.1162    0.0000 O   0  0  0  0  0  0  0  0  0  0  0  0
   -2.9520   -4.6564    0.0000 N   0  0  0  0  0  0  0  0  0  0  0  0
   -2.6401   -3.1891    0.0000 N   0  0  0  0  0  0  0  0  0  0  0  0
   -1.2135   -2.7256    0.0000 C   0  0  0  0  0  0  0  0  0  0  0  0
   -0.0000   -3.6073    0.0000 C   0  0  0  0  0  0  0  0  0  0  0  0
    0.0000   -5.1073    0.0000 O   0  0  0  0  0  0  0  0  0  0  0  0
    1.2135   -2.7256    0.0000 N   0  0  0  0  0  0  0  0  0  0  0  0
    2.6401   -3.1891    0.0000 C   0  0  0  0  0  0  0  0  0  0  0  0
    2.9520   -4.6564    0.0000 N   0  0  0  0  0  0  0  0  0  0  0  0
    1.8373   -5.6601    0.0000 C   0  0  0  0  0  0  0  0  0  0  0  0
    2.1491   -7.1273    0.0000 C   0  0  0  0  0  0  0  0  0  0  0  0
    3.5757   -7.5908    0.0000 O   0  0  0  0  0  0  0  0  0  0  0  0
    4.6904   -6.5871    0.0000 C   0  0  0  0  0  0  0  0  0  0  0  0
    4.3786   -5.1199    0.0000 C   0  0  0  0  0  0  0  0  0  0  0  0
    0.7500   -1.2990    0.0000 C   0  0  0  0  0  0  0  0  0  0  0  0
    1.5000    0.0000    0.0000 C   0  0  0  0  0  0  0  0  0  0  0  0
    0.7500    1.2990    0.0000 C   0  0  0  0  0  0  0  0  0  0  0  0
   -0.7500    1.2990    0.0000 C   0  0  0  0  0  0  0  0  0  0  0  0
   -1.5000    2.5981    0.0000 F   0  0  0  0  0  0  0  0  0  0  0  0
   -1.5000    0.0000    0.0000 C   0  0  0  0  0  0  0  0  0  0  0  0
   -0.7500   -1.2990    0.0000 C   0  0  0  0  0  0  0  0  0  0  0  0
   -3.5757   -7.5908    0.0000 C   0  0  0  0  0  0  0  0  0  0  0  0
   -3.8876   -9.0580    0.0000 C   0  0  0  0  0  0  0  0  0  0  0  0
  1  2  1  0
  2  3  1  0
  3  4  2  0
  4  5  1  0
  5  6  2  0
  6  7  1  0
  7  8  2  0
  7  9  1  0
  9 10  1  0
 10 11  2  0
 11 12  1  0
 12 13  2  0
 12 14  1  0
 14 15  1  0
 15 16  1  0
 16 17  1  0
 17 18  1  0
 18 19  1  0
 19 20  1  0
 20 21  1  0
 14 22  1  0
 22 23  2  0
 23 24  1  0
 24 25  2  0
 25 26  1  0
 25 27  1  0
 27 28  2  0
  6 29  1  0
 29 30  2  0
 30  3  1  0
 28 11  1  0
 21 16  1  0
 28 22  1  0
M  END
>  <Compound_ID>  (556) 
CHEMBL1779092

>  <Molecule Name>  (556) 
nan

>  <Molecular Weight>  (556) 
412.42

>  <AlogP>  (556) 
1.60

>  <Smiles>  (556) 
COc1ccc(C(=O)N/N=C2\C(=O)N(CN3CCOCC3)c3ccc(F)cc32)cc1

>  <Standard Type>  (556) 
Inhibition

>  <Standard Relation>  (556) 
'='

>  <Standard Units>  (556) 
%

>  <Standard Value>  (556) 
0.0

>  <Assay ChEMBL ID>  (556) 
CHEMBL1781430

>  <Assay Description>  (556) 
Inhibition of purified c-Met using poly(glu,tyr) as substrate at 10 uM after 60 mins by ELISA

>  <BAO Format ID>  (556) 
BAO_0000357

>  <BAO Label>  (556) 
single protein format

>  <Assay Organism>  (556) 
None

>  <Target ChEMBL ID>  (556) 
CHEMBL3717

>  <Target Name>  (556) 
Hepatocyte growth factor receptor

>  <Target Organism>  (556) 
Homo sapiens

>  <Target Type>  (556) 
SINGLE PROTEIN

>  <Document ChEMBL ID>  (556) 
CHEMBL1777704

>  <Source Description>  (556) 
Scientific Literature

>  <Document Journal>  (556) 
Bioorg Med Chem Lett

>  <Document Year>  (556) 
2011.0

>  <Active>  (556) 
0.0

$$$$

     RDKit          2D

 21 23  0  0  0  0  0  0  0  0999 V2000
   -4.6904   -6.5871    0.0000 C   0  0  0  0  0  0  0  0  0  0  0  0
   -4.3786   -5.1199    0.0000 C   0  0  0  0  0  0  0  0  0  0  0  0
   -2.9520   -4.6564    0.0000 N   0  0  0  0  0  0  0  0  0  0  0  0
   -2.6401   -3.1891    0.0000 C   0  0  0  0  0  0  0  0  0  0  0  0
   -3.7548   -2.1855    0.0000 O   0  0  0  0  0  0  0  0  0  0  0  0
   -1.2135   -2.7256    0.0000 C   0  0  0  0  0  0  0  0  0  0  0  0
   -0.0000   -3.6073    0.0000 C   0  0  0  0  0  0  0  0  0  0  0  0
    1.2135   -2.7256    0.0000 N   0  0  0  0  0  0  0  0  0  0  0  0
    0.7500   -1.2990    0.0000 C   0  0  0  0  0  0  0  0  0  0  0  0
    1.5000    0.0000    0.0000 N   0  0  0  0  0  0  0  0  0  0  0  0
    0.7500    1.2990    0.0000 C   0  0  0  0  0  0  0  0  0  0  0  0
   -0.7500    1.2990    0.0000 C   0  0  0  0  0  0  0  0  0  0  0  0
   -1.5000    2.5981    0.0000 C   0  0  0  0  0  0  0  0  0  0  0  0
   -2.7990    3.3481    0.0000 C   0  0  0  0  0  0  0  0  0  0  0  0
   -1.5000    4.0981    0.0000 C   0  0  0  0  0  0  0  0  0  0  0  0
   -1.5000    0.0000    0.0000 N   0  0  0  0  0  0  0  0  0  0  0  0
   -0.7500   -1.2990    0.0000 C   0  0  0  0  0  0  0  0  0  0  0  0
   -5.4933   -4.1162    0.0000 C   0  0  0  0  0  0  0  0  0  0  0  0
   -4.4896   -3.0015    0.0000 C   0  0  0  0  0  0  0  0  0  0  0  0
   -6.4970   -5.2309    0.0000 C   0  0  0  0  0  0  0  0  0  0  0  0
   -6.6080   -3.1125    0.0000 O   0  0  0  0  0  0  0  0  0  0  0  0
  2  1  1  1
  2  3  1  0
  3  4  1  0
  4  5  2  0
  4  6  1  0
  6  7  2  0
  7  8  1  0
  8  9  1  0
  9 10  2  0
 10 11  1  0
 11 12  2  0
 12 13  1  0
 13 14  1  0
 14 15  1  0
 12 16  1  0
 16 17  2  0
  2 18  1  0
 18 19  1  0
 18 20  1  0
 18 21  1  0
 17  6  1  0
 17  9  1  0
 15 13  1  0
M  END
>  <Compound_ID>  (557) 
CHEMBL2325904

>  <Molecule Name>  (557) 
nan

>  <Molecular Weight>  (557) 
288.35

>  <AlogP>  (557) 
1.72

>  <Smiles>  (557) 
C[C@H](NC(=O)c1c[nH]c2ncc(C3CC3)nc12)C(C)(C)O

>  <Standard Type>  (557) 
Inhibition

>  <Standard Relation>  (557) 
'='

>  <Standard Units>  (557) 
%

>  <Standard Value>  (557) 
19.0

>  <Assay ChEMBL ID>  (557) 
CHEMBL2329532

>  <Assay Description>  (557) 
Inhibition of MET (unknown origin) at 10 uM

>  <BAO Format ID>  (557) 
BAO_0000357

>  <BAO Label>  (557) 
single protein format

>  <Assay Organism>  (557) 
Homo sapiens

>  <Target ChEMBL ID>  (557) 
CHEMBL3717

>  <Target Name>  (557) 
Hepatocyte growth factor receptor

>  <Target Organism>  (557) 
Homo sapiens

>  <Target Type>  (557) 
SINGLE PROTEIN

>  <Document ChEMBL ID>  (557) 
CHEMBL2321829

>  <Source Description>  (557) 
Scientific Literature

>  <Document Journal>  (557) 
J Med Chem

>  <Document Year>  (557) 
2013.0

>  <Active>  (557) 
0.0

$$$$

     RDKit          2D

 22 24  0  0  0  0  0  0  0  0999 V2000
   -5.4933   -4.1162    0.0000 O   0  0  0  0  0  0  0  0  0  0  0  0
   -4.3786   -5.1199    0.0000 C   0  0  0  0  0  0  0  0  0  0  0  0
   -4.6904   -6.5871    0.0000 C   0  0  0  0  0  0  0  0  0  0  0  0
   -6.1170   -7.0506    0.0000 C   0  0  0  0  0  0  0  0  0  0  0  0
   -6.4289   -8.5179    0.0000 C   0  0  0  0  0  0  0  0  0  0  0  0
   -7.8555   -8.9814    0.0000 C   0  0  0  0  0  0  0  0  0  0  0  0
   -8.1673  -10.4486    0.0000 C   0  0  0  0  0  0  0  0  0  0  0  0
   -7.0526  -11.4523    0.0000 C   0  0  0  0  0  0  0  0  0  0  0  0
   -5.6260  -10.9888    0.0000 C   0  0  0  0  0  0  0  0  0  0  0  0
   -5.3142   -9.5216    0.0000 C   0  0  0  0  0  0  0  0  0  0  0  0
   -2.9520   -4.6564    0.0000 N   0  0  0  0  0  0  0  0  0  0  0  0
   -2.6401   -3.1891    0.0000 N   0  0  0  0  0  0  0  0  0  0  0  0
   -1.2135   -2.7256    0.0000 C   0  0  0  0  0  0  0  0  0  0  0  0
   -0.0000   -3.6073    0.0000 C   0  0  0  0  0  0  0  0  0  0  0  0
    0.0000   -5.1073    0.0000 O   0  0  0  0  0  0  0  0  0  0  0  0
    1.2135   -2.7256    0.0000 N   0  0  0  0  0  0  0  0  0  0  0  0
    0.7500   -1.2990    0.0000 C   0  0  0  0  0  0  0  0  0  0  0  0
    1.5000    0.0000    0.0000 C   0  0  0  0  0  0  0  0  0  0  0  0
    0.7500    1.2990    0.0000 C   0  0  0  0  0  0  0  0  0  0  0  0
   -0.7500    1.2990    0.0000 C   0  0  0  0  0  0  0  0  0  0  0  0
   -1.5000    0.0000    0.0000 C   0  0  0  0  0  0  0  0  0  0  0  0
   -0.7500   -1.2990    0.0000 C   0  0  0  0  0  0  0  0  0  0  0  0
  1  2  2  0
  2  3  1  0
  3  4  1  0
  4  5  1  0
  5  6  2  0
  6  7  1  0
  7  8  2  0
  8  9  1  0
  9 10  2  0
  2 11  1  0
 11 12  1  0
 12 13  2  0
 13 14  1  0
 14 15  2  0
 14 16  1  0
 16 17  1  0
 17 18  2  0
 18 19  1  0
 19 20  2  0
 20 21  1  0
 21 22  2  0
 10  5  1  0
 22 13  1  0
 22 17  1  0
M  END
>  <Compound_ID>  (558) 
CHEMBL1779069

>  <Molecule Name>  (558) 
nan

>  <Molecular Weight>  (558) 
293.33

>  <AlogP>  (558) 
2.09

>  <Smiles>  (558) 
O=C(CCc1ccccc1)N/N=C1\C(=O)Nc2ccccc21

>  <Standard Type>  (558) 
Inhibition

>  <Standard Relation>  (558) 
'='

>  <Standard Units>  (558) 
%

>  <Standard Value>  (558) 
6.3

>  <Assay ChEMBL ID>  (558) 
CHEMBL1781430

>  <Assay Description>  (558) 
Inhibition of purified c-Met using poly(glu,tyr) as substrate at 10 uM after 60 mins by ELISA

>  <BAO Format ID>  (558) 
BAO_0000357

>  <BAO Label>  (558) 
single protein format

>  <Assay Organism>  (558) 
None

>  <Target ChEMBL ID>  (558) 
CHEMBL3717

>  <Target Name>  (558) 
Hepatocyte growth factor receptor

>  <Target Organism>  (558) 
Homo sapiens

>  <Target Type>  (558) 
SINGLE PROTEIN

>  <Document ChEMBL ID>  (558) 
CHEMBL1777704

>  <Source Description>  (558) 
Scientific Literature

>  <Document Journal>  (558) 
Bioorg Med Chem Lett

>  <Document Year>  (558) 
2011.0

>  <Active>  (558) 
0.0

$$$$

     RDKit          2D

 33 37  0  0  0  0  0  0  0  0999 V2000
    4.5000    0.0000    0.0000 N   0  0  0  0  0  0  0  0  0  0  0  0
    3.0000    0.0000    0.0000 C   0  0  0  0  0  0  0  0  0  0  0  0
    1.5000    0.0000    0.0000 C   0  0  0  0  0  0  0  0  0  0  0  0
    0.7500   -1.2990    0.0000 C   0  0  0  0  0  0  0  0  0  0  0  0
   -0.7500   -1.2990    0.0000 C   0  0  0  0  0  0  0  0  0  0  0  0
   -1.5000    0.0000    0.0000 C   0  0  0  0  0  0  0  0  0  0  0  0
   -3.0000    0.0000    0.0000 O   0  0  0  0  0  0  0  0  0  0  0  0
   -3.7500    1.2990    0.0000 C   0  0  0  0  0  0  0  0  0  0  0  0
   -3.0000    2.5981    0.0000 N   0  0  0  0  0  0  0  0  0  0  0  0
   -3.7500    3.8971    0.0000 C   0  0  0  0  0  0  0  0  0  0  0  0
   -5.2500    3.8971    0.0000 C   0  0  0  0  0  0  0  0  0  0  0  0
   -6.0000    2.5981    0.0000 C   0  0  0  0  0  0  0  0  0  0  0  0
   -7.5000    2.5981    0.0000 C   0  0  0  0  0  0  0  0  0  0  0  0
   -8.3817    1.3846    0.0000 C   0  0  0  0  0  0  0  0  0  0  0  0
   -7.9182   -0.0420    0.0000 C   0  0  0  0  0  0  0  0  0  0  0  0
   -8.9218   -1.1568    0.0000 C   0  0  0  0  0  0  0  0  0  0  0  0
   -8.4583   -2.5833    0.0000 C   0  0  0  0  0  0  0  0  0  0  0  0
   -6.9911   -2.8952    0.0000 C   0  0  0  0  0  0  0  0  0  0  0  0
   -6.5276   -4.3218    0.0000 F   0  0  0  0  0  0  0  0  0  0  0  0
   -5.9874   -1.7805    0.0000 C   0  0  0  0  0  0  0  0  0  0  0  0
   -6.4509   -0.3539    0.0000 C   0  0  0  0  0  0  0  0  0  0  0  0
   -9.8083    1.8481    0.0000 N   0  0  0  0  0  0  0  0  0  0  0  0
   -9.8083    3.3481    0.0000 C   0  0  0  0  0  0  0  0  0  0  0  0
   -8.3817    3.8116    0.0000 N   0  0  0  0  0  0  0  0  0  0  0  0
   -7.9182    5.2382    0.0000 C   0  0  0  0  0  0  0  0  0  0  0  0
   -6.4509    5.5501    0.0000 C   0  0  0  0  0  0  0  0  0  0  0  0
   -5.9874    6.9766    0.0000 C   0  0  0  0  0  0  0  0  0  0  0  0
   -6.9911    8.0914    0.0000 N   0  0  0  0  0  0  0  0  0  0  0  0
   -8.4583    7.7795    0.0000 C   0  0  0  0  0  0  0  0  0  0  0  0
   -8.9218    6.3529    0.0000 C   0  0  0  0  0  0  0  0  0  0  0  0
   -5.2500    1.2990    0.0000 N   0  0  0  0  0  0  0  0  0  0  0  0
   -0.7500    1.2990    0.0000 C   0  0  0  0  0  0  0  0  0  0  0  0
    0.7500    1.2990    0.0000 C   0  0  0  0  0  0  0  0  0  0  0  0
  1  2  3  0
  2  3  1  0
  3  4  2  0
  4  5  1  0
  5  6  2  0
  6  7  1  0
  7  8  1  0
  8  9  2  0
  9 10  1  0
 10 11  2  0
 11 12  1  0
 12 13  1  0
 13 14  2  0
 14 15  1  0
 15 16  2  0
 16 17  1  0
 17 18  2  0
 18 19  1  0
 18 20  1  0
 20 21  2  0
 14 22  1  0
 22 23  2  0
 23 24  1  0
 24 25  1  0
 25 26  1  0
 26 27  1  0
 27 28  1  0
 28 29  1  0
 29 30  1  0
 12 31  2  0
  6 32  1  0
 32 33  2  0
 33  3  1  0
 31  8  1  0
 24 13  1  0
 30 25  1  0
 21 15  1  0
M  END
>  <Compound_ID>  (559) 
CHEMBL13972

>  <Molecule Name>  (559) 
nan

>  <Molecular Weight>  (559) 
440.48

>  <AlogP>  (559) 
4.73

>  <Smiles>  (559) 
N#Cc1ccc(Oc2nccc(-c3c(-c4ccc(F)cc4)ncn3C3CCNCC3)n2)cc1

>  <Standard Type>  (559) 
Inhibition

>  <Standard Relation>  (559) 
'='

>  <Standard Units>  (559) 
%

>  <Standard Value>  (559) 
3.69

>  <Assay ChEMBL ID>  (559) 
CHEMBL1962142

>  <Assay Description>  (559) 
GSK_PKIS: MET mean inhibition at 0.1 uM [Nanosyn]

>  <BAO Format ID>  (559) 
BAO_0000357

>  <BAO Label>  (559) 
single protein format

>  <Assay Organism>  (559) 
None

>  <Target ChEMBL ID>  (559) 
CHEMBL3717

>  <Target Name>  (559) 
Hepatocyte growth factor receptor

>  <Target Organism>  (559) 
Homo sapiens

>  <Target Type>  (559) 
SINGLE PROTEIN

>  <Document ChEMBL ID>  (559) 
CHEMBL1961873

>  <Source Description>  (559) 
GSK Published Kinase Inhibitor Set

>  <Document Journal>  (559) 
nan

>  <Document Year>  (559) 
nan

>  <Active>  (559) 
0.0

$$$$

     RDKit          2D

 24 26  0  0  0  0  0  0  0  0999 V2000
    7.5000   -7.7942    0.0000 C   0  0  0  0  0  0  0  0  0  0  0  0
    8.2500   -6.4952    0.0000 O   0  0  0  0  0  0  0  0  0  0  0  0
    7.5000   -5.1962    0.0000 C   0  0  0  0  0  0  0  0  0  0  0  0
    6.0000   -5.1962    0.0000 C   0  0  0  0  0  0  0  0  0  0  0  0
    5.2500   -3.8971    0.0000 C   0  0  0  0  0  0  0  0  0  0  0  0
    3.7500   -3.8971    0.0000 C   0  0  0  0  0  0  0  0  0  0  0  0
    3.0000   -2.5981    0.0000 N   0  0  0  0  0  0  0  0  0  0  0  0
    1.5000   -2.5981    0.0000 N   0  0  0  0  0  0  0  0  0  0  0  0
    0.7500   -1.2990    0.0000 C   0  0  0  0  0  0  0  0  0  0  0  0
    1.5000    0.0000    0.0000 N   0  0  0  0  0  0  0  0  0  0  0  0
    0.7500    1.2990    0.0000 C   0  0  0  0  0  0  0  0  0  0  0  0
   -0.7500    1.2990    0.0000 N   0  0  0  0  0  0  0  0  0  0  0  0
   -1.5000    0.0000    0.0000 C   0  0  0  0  0  0  0  0  0  0  0  0
   -0.7500   -1.2990    0.0000 C   0  0  0  0  0  0  0  0  0  0  0  0
   -1.7537   -2.4138    0.0000 C   0  0  0  0  0  0  0  0  0  0  0  0
   -3.1240   -1.8037    0.0000 N   0  0  0  0  0  0  0  0  0  0  0  0
   -2.9672   -0.3119    0.0000 N   0  0  0  0  0  0  0  0  0  0  0  0
   -4.0819    0.6918    0.0000 C   0  0  0  0  0  0  0  0  0  0  0  0
   -5.5085    0.2283    0.0000 C   0  0  0  0  0  0  0  0  0  0  0  0
   -3.7701    2.1590    0.0000 C   0  0  0  0  0  0  0  0  0  0  0  0
    6.0000   -2.5981    0.0000 C   0  0  0  0  0  0  0  0  0  0  0  0
    7.5000   -2.5981    0.0000 C   0  0  0  0  0  0  0  0  0  0  0  0
    8.2500   -3.8971    0.0000 C   0  0  0  0  0  0  0  0  0  0  0  0
    9.7500   -3.8971    0.0000 O   0  0  0  0  0  0  0  0  0  0  0  0
  1  2  1  0
  2  3  1  0
  3  4  2  0
  4  5  1  0
  5  6  1  0
  6  7  2  0
  7  8  1  0
  8  9  1  0
  9 10  2  0
 10 11  1  0
 11 12  2  0
 12 13  1  0
 13 14  2  0
 14 15  1  0
 15 16  2  0
 16 17  1  0
 17 18  1  0
 18 19  1  0
 18 20  1  0
  5 21  2  0
 21 22  1  0
 22 23  2  0
 23 24  1  0
 23  3  1  0
 14  9  1  0
 17 13  1  0
M  END
>  <Compound_ID>  (560) 
CHEMBL63728

>  <Molecule Name>  (560) 
GW644007X

>  <Molecular Weight>  (560) 
326.36

>  <AlogP>  (560) 
2.57

>  <Smiles>  (560) 
COc1cc(/C=N/Nc2ncnc3c2cnn3C(C)C)ccc1O

>  <Standard Type>  (560) 
Inhibition

>  <Standard Relation>  (560) 
'='

>  <Standard Units>  (560) 
%

>  <Standard Value>  (560) 
5.86

>  <Assay ChEMBL ID>  (560) 
CHEMBL1962143

>  <Assay Description>  (560) 
GSK_PKIS: MET mean inhibition at 1 uM [Nanosyn]

>  <BAO Format ID>  (560) 
BAO_0000357

>  <BAO Label>  (560) 
single protein format

>  <Assay Organism>  (560) 
None

>  <Target ChEMBL ID>  (560) 
CHEMBL3717

>  <Target Name>  (560) 
Hepatocyte growth factor receptor

>  <Target Organism>  (560) 
Homo sapiens

>  <Target Type>  (560) 
SINGLE PROTEIN

>  <Document ChEMBL ID>  (560) 
CHEMBL1961873

>  <Source Description>  (560) 
GSK Published Kinase Inhibitor Set

>  <Document Journal>  (560) 
nan

>  <Document Year>  (560) 
nan

>  <Active>  (560) 
0.0

$$$$

     RDKit          2D

 28 30  0  0  0  0  0  0  0  0999 V2000
   -3.7548   -2.1855    0.0000 C   0  0  0  0  0  0  0  0  0  0  0  0
   -2.6401   -3.1891    0.0000 C   0  0  0  0  0  0  0  0  0  0  0  0
   -1.2135   -2.7256    0.0000 N   0  0  0  0  0  0  0  0  0  0  0  0
   -0.0000   -3.6073    0.0000 C   0  0  0  0  0  0  0  0  0  0  0  0
   -0.0000   -5.1073    0.0000 C   0  0  0  0  0  0  0  0  0  0  0  0
    1.2135   -5.9890    0.0000 N   0  0  0  0  0  0  0  0  0  0  0  0
    0.7500   -7.4156    0.0000 O   0  0  0  0  0  0  0  0  0  0  0  0
   -0.7500   -7.4156    0.0000 N   0  0  0  0  0  0  0  0  0  0  0  0
   -1.2135   -5.9890    0.0000 C   0  0  0  0  0  0  0  0  0  0  0  0
   -2.6401   -5.5255    0.0000 N   0  0  0  0  0  0  0  0  0  0  0  0
    1.2135   -2.7256    0.0000 N   0  0  0  0  0  0  0  0  0  0  0  0
    0.7500   -1.2990    0.0000 C   0  0  0  0  0  0  0  0  0  0  0  0
    1.5000    0.0000    0.0000 C   0  0  0  0  0  0  0  0  0  0  0  0
    3.0000    0.0000    0.0000 C   0  0  0  0  0  0  0  0  0  0  0  0
    4.5000    0.0000    0.0000 C   0  0  0  0  0  0  0  0  0  0  0  0
    6.0000    0.0000    0.0000 C   0  0  0  0  0  0  0  0  0  0  0  0
    6.0000   -1.5000    0.0000 C   0  0  0  0  0  0  0  0  0  0  0  0
    6.0000    1.5000    0.0000 C   0  0  0  0  0  0  0  0  0  0  0  0
    7.5000    0.0000    0.0000 O   0  0  0  0  0  0  0  0  0  0  0  0
    0.7500    1.2990    0.0000 N   0  0  0  0  0  0  0  0  0  0  0  0
   -0.7500    1.2990    0.0000 C   0  0  0  0  0  0  0  0  0  0  0  0
   -1.5000    2.5981    0.0000 O   0  0  0  0  0  0  0  0  0  0  0  0
   -0.7500    3.8971    0.0000 C   0  0  0  0  0  0  0  0  0  0  0  0
   -1.5000    5.1962    0.0000 C   0  0  0  0  0  0  0  0  0  0  0  0
   -0.7500    6.4952    0.0000 N   0  0  0  0  0  0  0  0  0  0  0  0
   -1.5000    7.7942    0.0000 C   0  0  0  0  0  0  0  0  0  0  0  0
   -1.5000    0.0000    0.0000 C   0  0  0  0  0  0  0  0  0  0  0  0
   -0.7500   -1.2990    0.0000 C   0  0  0  0  0  0  0  0  0  0  0  0
  1  2  1  0
  2  3  1  0
  3  4  1  0
  4  5  1  0
  5  6  2  0
  6  7  1  0
  7  8  1  0
  8  9  2  0
  9 10  1  0
  4 11  2  0
 11 12  1  0
 12 13  2  0
 13 14  1  0
 14 15  3  0
 15 16  1  0
 16 17  1  0
 16 18  1  0
 16 19  1  0
 13 20  1  0
 20 21  2  0
 21 22  1  0
 22 23  1  0
 23 24  1  0
 24 25  1  0
 25 26  1  0
 21 27  1  0
 27 28  2  0
 28  3  1  0
  9  5  1  0
 28 12  1  0
M  END
>  <Compound_ID>  (561) 
CHEMBL1909350

>  <Molecule Name>  (561) 
GSK-949675A

>  <Molecular Weight>  (561) 
421.89

>  <AlogP>  (561) 
0.80

>  <Smiles>  (561) 
CCn1c(-c2nonc2N)nc2c(C#CC(C)(C)O)nc(OCCNC)cc21

>  <Standard Type>  (561) 
Inhibition

>  <Standard Relation>  (561) 
'='

>  <Standard Units>  (561) 
%

>  <Standard Value>  (561) 
4.48

>  <Assay ChEMBL ID>  (561) 
CHEMBL1962142

>  <Assay Description>  (561) 
GSK_PKIS: MET mean inhibition at 0.1 uM [Nanosyn]

>  <BAO Format ID>  (561) 
BAO_0000357

>  <BAO Label>  (561) 
single protein format

>  <Assay Organism>  (561) 
None

>  <Target ChEMBL ID>  (561) 
CHEMBL3717

>  <Target Name>  (561) 
Hepatocyte growth factor receptor

>  <Target Organism>  (561) 
Homo sapiens

>  <Target Type>  (561) 
SINGLE PROTEIN

>  <Document ChEMBL ID>  (561) 
CHEMBL1961873

>  <Source Description>  (561) 
GSK Published Kinase Inhibitor Set

>  <Document Journal>  (561) 
nan

>  <Document Year>  (561) 
nan

>  <Active>  (561) 
0.0

$$$$

     RDKit          2D

 20 23  0  0  0  0  0  0  0  0999 V2000
   -2.2500   -6.4952    0.0000 C   0  0  0  0  0  0  0  0  0  0  0  0
   -1.5000   -5.1962    0.0000 N   0  0  0  0  0  0  0  0  0  0  0  0
   -0.0000   -5.1962    0.0000 C   0  0  0  0  0  0  0  0  0  0  0  0
    0.7500   -3.8971    0.0000 N   0  0  0  0  0  0  0  0  0  0  0  0
    2.2500   -3.8971    0.0000 C   0  0  0  0  0  0  0  0  0  0  0  0
    3.0000   -2.5981    0.0000 C   0  0  0  0  0  0  0  0  0  0  0  0
    2.2500   -1.2990    0.0000 C   0  0  0  0  0  0  0  0  0  0  0  0
    0.7500   -1.2990    0.0000 C   0  0  0  0  0  0  0  0  0  0  0  0
    1.5000    0.0000    0.0000 C   0  0  0  0  0  0  0  0  0  0  0  0
    0.7500    1.2990    0.0000 C   0  0  0  0  0  0  0  0  0  0  0  0
   -0.7500    1.2990    0.0000 N   0  0  0  0  0  0  0  0  0  0  0  0
   -1.5000    0.0000    0.0000 C   0  0  0  0  0  0  0  0  0  0  0  0
   -0.7500   -1.2990    0.0000 C   0  0  0  0  0  0  0  0  0  0  0  0
   -0.0000   -2.5981    0.0000 C   0  0  0  0  0  0  0  0  0  0  0  0
    0.7500   -6.4952    0.0000 C   0  0  0  0  0  0  0  0  0  0  0  0
    2.2172   -6.8071    0.0000 N   0  0  0  0  0  0  0  0  0  0  0  0
    2.3740   -8.2988    0.0000 C   0  0  0  0  0  0  0  0  0  0  0  0
    1.0037   -8.9089    0.0000 N   0  0  0  0  0  0  0  0  0  0  0  0
   -0.0000   -7.7942    0.0000 C   0  0  0  0  0  0  0  0  0  0  0  0
   -1.5000   -7.7942    0.0000 N   0  0  0  0  0  0  0  0  0  0  0  0
  1  2  2  0
  2  3  1  0
  3  4  1  0
  4  5  1  0
  5  6  1  0
  6  7  1  0
  7  8  1  0
  8  9  1  0
  9 10  1  0
 10 11  1  0
 11 12  1  0
 12 13  1  0
  8 14  1  0
  3 15  2  0
 15 16  1  0
 16 17  2  0
 17 18  1  0
 18 19  1  0
 19 20  2  0
 20  1  1  0
 14  4  1  0
 19 15  1  0
 13  8  1  0
M  END
>  <Compound_ID>  (562) 
CHEMBL2420913

>  <Molecule Name>  (562) 
nan

>  <Molecular Weight>  (562) 
272.36

>  <AlogP>  (562) 
1.32

>  <Smiles>  (562) 
c1nc(N2CCCC3(CCNCC3)C2)c2nc[nH]c2n1

>  <Standard Type>  (562) 
Inhibition

>  <Standard Relation>  (562) 
'='

>  <Standard Units>  (562) 
%

>  <Standard Value>  (562) 
1.0

>  <Assay ChEMBL ID>  (562) 
CHEMBL2424318

>  <Assay Description>  (562) 
Inhibition of MET (unknown origin) at 30 uM by microfluidic mobility shift assay relative to control

>  <BAO Format ID>  (562) 
BAO_0000357

>  <BAO Label>  (562) 
single protein format

>  <Assay Organism>  (562) 
Homo sapiens

>  <Target ChEMBL ID>  (562) 
CHEMBL3717

>  <Target Name>  (562) 
Hepatocyte growth factor receptor

>  <Target Organism>  (562) 
Homo sapiens

>  <Target Type>  (562) 
SINGLE PROTEIN

>  <Document ChEMBL ID>  (562) 
CHEMBL2417369

>  <Source Description>  (562) 
Scientific Literature

>  <Document Journal>  (562) 
Bioorg Med Chem

>  <Document Year>  (562) 
2013.0

>  <Active>  (562) 
0.0

$$$$

     RDKit          2D

 33 37  0  0  0  0  0  0  0  0999 V2000
   -4.1131    8.6253    0.0000 C   0  0  0  0  0  0  0  0  0  0  0  0
   -4.4249    7.1580    0.0000 N   0  0  0  0  0  0  0  0  0  0  0  0
   -3.3102    6.1544    0.0000 C   0  0  0  0  0  0  0  0  0  0  0  0
   -3.6221    4.6871    0.0000 C   0  0  0  0  0  0  0  0  0  0  0  0
   -5.0487    4.2236    0.0000 N   0  0  0  0  0  0  0  0  0  0  0  0
   -5.3605    2.7564    0.0000 C   0  0  0  0  0  0  0  0  0  0  0  0
   -6.7871    2.2929    0.0000 C   0  0  0  0  0  0  0  0  0  0  0  0
   -7.0990    0.8256    0.0000 C   0  0  0  0  0  0  0  0  0  0  0  0
   -5.9843   -0.1781    0.0000 C   0  0  0  0  0  0  0  0  0  0  0  0
   -6.2961   -1.6453    0.0000 N   0  0  0  0  0  0  0  0  0  0  0  0
   -5.1814   -2.6490    0.0000 C   0  0  0  0  0  0  0  0  0  0  0  0
   -5.4933   -4.1162    0.0000 N   0  0  0  0  0  0  0  0  0  0  0  0
   -4.3786   -5.1199    0.0000 C   0  0  0  0  0  0  0  0  0  0  0  0
   -2.9520   -4.6564    0.0000 C   0  0  0  0  0  0  0  0  0  0  0  0
   -2.6401   -3.1891    0.0000 C   0  0  0  0  0  0  0  0  0  0  0  0
   -1.2135   -2.7256    0.0000 C   0  0  0  0  0  0  0  0  0  0  0  0
   -0.0000   -3.6073    0.0000 C   0  0  0  0  0  0  0  0  0  0  0  0
    1.2135   -2.7256    0.0000 N   0  0  0  0  0  0  0  0  0  0  0  0
    0.7500   -1.2990    0.0000 N   0  0  0  0  0  0  0  0  0  0  0  0
    1.5000    0.0000    0.0000 N   0  0  0  0  0  0  0  0  0  0  0  0
    0.7500    1.2990    0.0000 C   0  0  0  0  0  0  0  0  0  0  0  0
   -0.7500    1.2990    0.0000 C   0  0  0  0  0  0  0  0  0  0  0  0
   -1.5000    0.0000    0.0000 C   0  0  0  0  0  0  0  0  0  0  0  0
   -0.7500   -1.2990    0.0000 C   0  0  0  0  0  0  0  0  0  0  0  0
   -3.7548   -2.1855    0.0000 N   0  0  0  0  0  0  0  0  0  0  0  0
   -4.5577    0.2855    0.0000 C   0  0  0  0  0  0  0  0  0  0  0  0
   -4.2458    1.7527    0.0000 C   0  0  0  0  0  0  0  0  0  0  0  0
   -2.8192    2.2162    0.0000 C   0  0  0  0  0  0  0  0  0  0  0  0
   -1.3926    2.6797    0.0000 F   0  0  0  0  0  0  0  0  0  0  0  0
   -2.3557    0.7896    0.0000 F   0  0  0  0  0  0  0  0  0  0  0  0
   -3.2828    3.6428    0.0000 F   0  0  0  0  0  0  0  0  0  0  0  0
   -6.1634    5.2273    0.0000 C   0  0  0  0  0  0  0  0  0  0  0  0
   -5.8515    6.6945    0.0000 C   0  0  0  0  0  0  0  0  0  0  0  0
  1  2  1  0
  2  3  1  0
  3  4  1  0
  4  5  1  0
  5  6  1  0
  6  7  2  0
  7  8  1  0
  8  9  2  0
  9 10  1  0
 10 11  1  0
 11 12  2  0
 12 13  1  0
 13 14  2  0
 14 15  1  0
 15 16  1  0
 16 17  1  0
 17 18  2  0
 18 19  1  0
 19 20  1  0
 20 21  2  0
 21 22  1  0
 22 23  2  0
 23 24  1  0
 15 25  2  0
  9 26  1  0
 26 27  2  0
 27 28  1  0
 28 29  1  0
 28 30  1  0
 28 31  1  0
  5 32  1  0
 32 33  1  0
 33  2  1  0
 27  6  1  0
 25 11  1  0
 24 16  2  0
 24 19  1  0
M  END
>  <Compound_ID>  (563) 
CHEMBL468963

>  <Molecule Name>  (563) 
GW779439X

>  <Molecular Weight>  (563) 
454.46

>  <AlogP>  (563) 
3.70

>  <Smiles>  (563) 
CN1CCN(c2ccc(Nc3nccc(-c4cnn5ncccc45)n3)cc2C(F)(F)F)CC1

>  <Standard Type>  (563) 
Inhibition

>  <Standard Relation>  (563) 
'='

>  <Standard Units>  (563) 
%

>  <Standard Value>  (563) 
8.81

>  <Assay ChEMBL ID>  (563) 
CHEMBL1962142

>  <Assay Description>  (563) 
GSK_PKIS: MET mean inhibition at 0.1 uM [Nanosyn]

>  <BAO Format ID>  (563) 
BAO_0000357

>  <BAO Label>  (563) 
single protein format

>  <Assay Organism>  (563) 
None

>  <Target ChEMBL ID>  (563) 
CHEMBL3717

>  <Target Name>  (563) 
Hepatocyte growth factor receptor

>  <Target Organism>  (563) 
Homo sapiens

>  <Target Type>  (563) 
SINGLE PROTEIN

>  <Document ChEMBL ID>  (563) 
CHEMBL1961873

>  <Source Description>  (563) 
GSK Published Kinase Inhibitor Set

>  <Document Journal>  (563) 
nan

>  <Document Year>  (563) 
nan

>  <Active>  (563) 
0.0

$$$$

     RDKit          2D

 26 29  0  0  0  0  0  0  0  0999 V2000
   -0.2758   10.5570    0.0000 N   0  0  0  0  0  0  0  0  0  0  0  0
   -1.7024   10.0935    0.0000 C   0  0  0  0  0  0  0  0  0  0  0  0
   -2.8171   11.0972    0.0000 O   0  0  0  0  0  0  0  0  0  0  0  0
   -2.0143    8.6263    0.0000 C   0  0  0  0  0  0  0  0  0  0  0  0
   -0.8995    7.6226    0.0000 C   0  0  0  0  0  0  0  0  0  0  0  0
   -1.2114    6.1554    0.0000 C   0  0  0  0  0  0  0  0  0  0  0  0
   -2.6380    5.6918    0.0000 C   0  0  0  0  0  0  0  0  0  0  0  0
   -3.7527    6.6955    0.0000 C   0  0  0  0  0  0  0  0  0  0  0  0
   -5.1793    6.2320    0.0000 N   0  0  0  0  0  0  0  0  0  0  0  0
   -5.4912    4.7648    0.0000 C   0  0  0  0  0  0  0  0  0  0  0  0
   -6.9177    4.3013    0.0000 N   0  0  0  0  0  0  0  0  0  0  0  0
   -7.2296    2.8340    0.0000 C   0  0  0  0  0  0  0  0  0  0  0  0
   -6.1149    1.8303    0.0000 C   0  0  0  0  0  0  0  0  0  0  0  0
   -4.6883    2.2939    0.0000 C   0  0  0  0  0  0  0  0  0  0  0  0
   -3.5736    1.2902    0.0000 N   0  0  0  0  0  0  0  0  0  0  0  0
   -2.1470    1.7537    0.0000 C   0  0  0  0  0  0  0  0  0  0  0  0
   -1.8351    3.2209    0.0000 C   0  0  0  0  0  0  0  0  0  0  0  0
   -0.4086    3.6844    0.0000 C   0  0  0  0  0  0  0  0  0  0  0  0
    0.7062    2.6807    0.0000 C   0  0  0  0  0  0  0  0  0  0  0  0
    0.3943    1.2135    0.0000 C   0  0  0  0  0  0  0  0  0  0  0  0
    1.2760    0.0000    0.0000 N   0  0  0  0  0  0  0  0  0  0  0  0
    0.3943   -1.2135    0.0000 N   0  0  0  0  0  0  0  0  0  0  0  0
   -1.0323   -0.7500    0.0000 C   0  0  0  0  0  0  0  0  0  0  0  0
   -1.0323    0.7500    0.0000 C   0  0  0  0  0  0  0  0  0  0  0  0
   -4.3764    3.7611    0.0000 N   0  0  0  0  0  0  0  0  0  0  0  0
   -3.4408    8.1628    0.0000 C   0  0  0  0  0  0  0  0  0  0  0  0
  1  2  1  0
  2  3  2  0
  2  4  1  0
  4  5  2  0
  5  6  1  0
  6  7  2  0
  7  8  1  0
  8  9  1  0
  9 10  1  0
 10 11  2  0
 11 12  1  0
 12 13  2  0
 13 14  1  0
 14 15  1  0
 15 16  1  0
 16 17  2  0
 17 18  1  0
 18 19  2  0
 19 20  1  0
 20 21  1  0
 21 22  1  0
 22 23  2  0
 23 24  1  0
 14 25  2  0
  8 26  2  0
 26  4  1  0
 25 10  1  0
 24 16  1  0
 24 20  2  0
M  END
>  <Compound_ID>  (564) 
CHEMBL251549

>  <Molecule Name>  (564) 
GW782612X

>  <Molecular Weight>  (564) 
345.37

>  <AlogP>  (564) 
2.94

>  <Smiles>  (564) 
NC(=O)c1cccc(Nc2nccc(Nc3cccc4[nH]ncc34)n2)c1

>  <Standard Type>  (564) 
Inhibition

>  <Standard Relation>  (564) 
'='

>  <Standard Units>  (564) 
%

>  <Standard Value>  (564) 
-1.63

>  <Assay ChEMBL ID>  (564) 
CHEMBL1962142

>  <Assay Description>  (564) 
GSK_PKIS: MET mean inhibition at 0.1 uM [Nanosyn]

>  <BAO Format ID>  (564) 
BAO_0000357

>  <BAO Label>  (564) 
single protein format

>  <Assay Organism>  (564) 
None

>  <Target ChEMBL ID>  (564) 
CHEMBL3717

>  <Target Name>  (564) 
Hepatocyte growth factor receptor

>  <Target Organism>  (564) 
Homo sapiens

>  <Target Type>  (564) 
SINGLE PROTEIN

>  <Document ChEMBL ID>  (564) 
CHEMBL1961873

>  <Source Description>  (564) 
GSK Published Kinase Inhibitor Set

>  <Document Journal>  (564) 
nan

>  <Document Year>  (564) 
nan

>  <Active>  (564) 
0.0

$$$$

     RDKit          2D

 23 26  0  0  0  0  0  0  0  0999 V2000
    3.0000   -7.7942    0.0000 C   0  0  0  0  0  0  0  0  0  0  0  0
    3.7500   -6.4952    0.0000 O   0  0  0  0  0  0  0  0  0  0  0  0
    3.0000   -5.1962    0.0000 C   0  0  0  0  0  0  0  0  0  0  0  0
    1.5000   -5.1962    0.0000 C   0  0  0  0  0  0  0  0  0  0  0  0
    0.7500   -3.8971    0.0000 C   0  0  0  0  0  0  0  0  0  0  0  0
    1.5000   -2.5981    0.0000 C   0  0  0  0  0  0  0  0  0  0  0  0
    0.7500   -1.2990    0.0000 C   0  0  0  0  0  0  0  0  0  0  0  0
    1.5000    0.0000    0.0000 C   0  0  0  0  0  0  0  0  0  0  0  0
    0.7500    1.2990    0.0000 C   0  0  0  0  0  0  0  0  0  0  0  0
   -0.7500    1.2990    0.0000 C   0  0  0  0  0  0  0  0  0  0  0  0
   -1.7537    2.4138    0.0000 C   0  0  0  0  0  0  0  0  0  0  0  0
   -1.4418    3.8810    0.0000 N   0  0  0  0  0  0  0  0  0  0  0  0
   -2.5565    4.8847    0.0000 C   0  0  0  0  0  0  0  0  0  0  0  0
   -3.9831    4.4211    0.0000 O   0  0  0  0  0  0  0  0  0  0  0  0
   -2.2447    6.3519    0.0000 C   0  0  0  0  0  0  0  0  0  0  0  0
   -2.7082    7.7785    0.0000 C   0  0  0  0  0  0  0  0  0  0  0  0
   -1.2410    7.4666    0.0000 C   0  0  0  0  0  0  0  0  0  0  0  0
   -3.1240    1.8037    0.0000 N   0  0  0  0  0  0  0  0  0  0  0  0
   -2.9672    0.3119    0.0000 N   0  0  0  0  0  0  0  0  0  0  0  0
   -1.5000    0.0000    0.0000 C   0  0  0  0  0  0  0  0  0  0  0  0
   -0.7500   -1.2990    0.0000 N   0  0  0  0  0  0  0  0  0  0  0  0
    3.0000   -2.5981    0.0000 C   0  0  0  0  0  0  0  0  0  0  0  0
    3.7500   -3.8971    0.0000 C   0  0  0  0  0  0  0  0  0  0  0  0
  1  2  1  0
  2  3  1  0
  3  4  2  0
  4  5  1  0
  5  6  2  0
  6  7  1  0
  7  8  2  0
  8  9  1  0
  9 10  2  0
 10 11  1  0
 11 12  1  0
 12 13  1  0
 13 14  2  0
 13 15  1  0
 15 16  1  0
 16 17  1  0
 11 18  2  0
 18 19  1  0
 19 20  1  0
 20 21  2  0
  6 22  1  0
 22 23  2  0
 23  3  1  0
 21  7  1  0
 20 10  1  0
 17 15  1  0
M  END
>  <Compound_ID>  (565) 
CHEMBL408732

>  <Molecule Name>  (565) 
nan

>  <Molecular Weight>  (565) 
308.34

>  <AlogP>  (565) 
2.98

>  <Smiles>  (565) 
COc1ccc(-c2ccc3c(NC(=O)C4CC4)n[nH]c3n2)cc1

>  <Standard Type>  (565) 
Inhibition

>  <Standard Relation>  (565) 
'='

>  <Standard Units>  (565) 
%

>  <Standard Value>  (565) 
1.87

>  <Assay ChEMBL ID>  (565) 
CHEMBL1962142

>  <Assay Description>  (565) 
GSK_PKIS: MET mean inhibition at 0.1 uM [Nanosyn]

>  <BAO Format ID>  (565) 
BAO_0000357

>  <BAO Label>  (565) 
single protein format

>  <Assay Organism>  (565) 
None

>  <Target ChEMBL ID>  (565) 
CHEMBL3717

>  <Target Name>  (565) 
Hepatocyte growth factor receptor

>  <Target Organism>  (565) 
Homo sapiens

>  <Target Type>  (565) 
SINGLE PROTEIN

>  <Document ChEMBL ID>  (565) 
CHEMBL1961873

>  <Source Description>  (565) 
GSK Published Kinase Inhibitor Set

>  <Document Journal>  (565) 
nan

>  <Document Year>  (565) 
nan

>  <Active>  (565) 
0.0

$$$$

     RDKit          2D

 34 38  0  0  0  0  0  0  0  0999 V2000
   -1.0496  -14.3720    0.0000 C   0  0  0  0  0  0  0  0  0  0  0  0
    0.3207  -13.7619    0.0000 O   0  0  0  0  0  0  0  0  0  0  0  0
    0.4775  -12.2701    0.0000 C   0  0  0  0  0  0  0  0  0  0  0  0
   -0.7360  -11.3885    0.0000 O   0  0  0  0  0  0  0  0  0  0  0  0
    1.8478  -11.6600    0.0000 C   0  0  0  0  0  0  0  0  0  0  0  0
    2.0046  -10.1682    0.0000 C   0  0  0  0  0  0  0  0  0  0  0  0
    3.3037   -9.4182    0.0000 C   0  0  0  0  0  0  0  0  0  0  0  0
    2.9918   -7.9510    0.0000 S   0  0  0  0  0  0  0  0  0  0  0  0
    1.5000   -7.7942    0.0000 C   0  0  0  0  0  0  0  0  0  0  0  0
    0.7500   -6.4952    0.0000 C   0  0  0  0  0  0  0  0  0  0  0  0
    1.5000   -5.1962    0.0000 N   0  0  0  0  0  0  0  0  0  0  0  0
    0.7500   -3.8971    0.0000 C   0  0  0  0  0  0  0  0  0  0  0  0
    1.5000   -2.5981    0.0000 C   0  0  0  0  0  0  0  0  0  0  0  0
    0.7500   -1.2990    0.0000 C   0  0  0  0  0  0  0  0  0  0  0  0
    1.5000    0.0000    0.0000 C   0  0  0  0  0  0  0  0  0  0  0  0
    0.7500    1.2990    0.0000 C   0  0  0  0  0  0  0  0  0  0  0  0
   -0.7500    1.2990    0.0000 C   0  0  0  0  0  0  0  0  0  0  0  0
   -1.5000    0.0000    0.0000 C   0  0  0  0  0  0  0  0  0  0  0  0
   -0.7500   -1.2990    0.0000 C   0  0  0  0  0  0  0  0  0  0  0  0
   -1.5000   -2.5981    0.0000 C   0  0  0  0  0  0  0  0  0  0  0  0
   -0.7500   -3.8971    0.0000 C   0  0  0  0  0  0  0  0  0  0  0  0
   -1.5000   -5.1962    0.0000 N   0  0  0  0  0  0  0  0  0  0  0  0
   -0.7500   -6.4952    0.0000 C   0  0  0  0  0  0  0  0  0  0  0  0
   -1.5000   -7.7942    0.0000 C   0  0  0  0  0  0  0  0  0  0  0  0
   -0.8899   -9.1645    0.0000 C   0  0  0  0  0  0  0  0  0  0  0  0
   -2.0046  -10.1682    0.0000 C   0  0  0  0  0  0  0  0  0  0  0  0
   -1.8478  -11.6600    0.0000 C   0  0  0  0  0  0  0  0  0  0  0  0
   -3.0613  -12.5417    0.0000 C   0  0  0  0  0  0  0  0  0  0  0  0
   -4.4317  -11.9316    0.0000 O   0  0  0  0  0  0  0  0  0  0  0  0
   -2.9046  -14.0335    0.0000 O   0  0  0  0  0  0  0  0  0  0  0  0
   -4.1181  -14.9152    0.0000 C   0  0  0  0  0  0  0  0  0  0  0  0
   -3.3037   -9.4182    0.0000 C   0  0  0  0  0  0  0  0  0  0  0  0
   -2.9918   -7.9510    0.0000 S   0  0  0  0  0  0  0  0  0  0  0  0
    0.8899   -9.1645    0.0000 C   0  0  0  0  0  0  0  0  0  0  0  0
  1  2  1  0
  2  3  1  0
  3  4  2  0
  3  5  1  0
  5  6  1  0
  6  7  2  0
  7  8  1  0
  8  9  1  0
  9 10  1  0
 10 11  2  0
 11 12  1  0
 12 13  2  0
 13 14  1  0
 14 15  2  0
 15 16  1  0
 16 17  2  0
 17 18  1  0
 18 19  2  0
 19 20  1  0
 20 21  2  0
 21 22  1  0
 22 23  2  0
 23 24  1  0
 24 25  2  0
 25 26  1  0
 26 27  1  0
 27 28  1  0
 28 29  2  0
 28 30  1  0
 30 31  1  0
 26 32  2  0
 32 33  1  0
  9 34  2  0
 34  6  1  0
 23 10  1  0
 33 24  1  0
 21 12  1  0
 19 14  1  0
M  END
>  <Compound_ID>  (566) 
CHEMBL192974

>  <Molecule Name>  (566) 
nan

>  <Molecular Weight>  (566) 
488.59

>  <AlogP>  (566) 
5.67

>  <Smiles>  (566) 
COC(=O)Cc1csc(-c2nc3cc4ccccc4cc3nc2-c2cc(CC(=O)OC)cs2)c1

>  <Standard Type>  (566) 
Inhibition

>  <Standard Relation>  (566) 
'='

>  <Standard Units>  (566) 
%

>  <Standard Value>  (566) 
-2.0

>  <Assay ChEMBL ID>  (566) 
CHEMBL835467

>  <Assay Description>  (566) 
In vitro percent inhibition of Met proto-oncogene tyrosine kinase at 10 uM concentration of compound dissolved in 100% DMSO using 5''-[gamma-33P]-triphosphate

>  <BAO Format ID>  (566) 
BAO_0000357

>  <BAO Label>  (566) 
single protein format

>  <Assay Organism>  (566) 
None

>  <Target ChEMBL ID>  (566) 
CHEMBL3717

>  <Target Name>  (566) 
Hepatocyte growth factor receptor

>  <Target Organism>  (566) 
Homo sapiens

>  <Target Type>  (566) 
SINGLE PROTEIN

>  <Document ChEMBL ID>  (566) 
CHEMBL1140238

>  <Source Description>  (566) 
Scientific Literature

>  <Document Journal>  (566) 
Bioorg Med Chem Lett

>  <Document Year>  (566) 
2005.0

>  <Active>  (566) 
0.0

$$$$

     RDKit          2D

 32 36  0  0  0  0  0  0  0  0999 V2000
    0.7500  -19.4856    0.0000 C   0  0  0  0  0  0  0  0  0  0  0  0
    1.5000  -18.1865    0.0000 N   0  0  0  0  0  0  0  0  0  0  0  0
    0.7500  -16.8875    0.0000 C   0  0  0  0  0  0  0  0  0  0  0  0
    1.5000  -15.5885    0.0000 C   0  0  0  0  0  0  0  0  0  0  0  0
    3.0000  -15.5885    0.0000 N   0  0  0  0  0  0  0  0  0  0  0  0
    3.7500  -14.2894    0.0000 C   0  0  0  0  0  0  0  0  0  0  0  0
    3.0000  -12.9904    0.0000 C   0  0  0  0  0  0  0  0  0  0  0  0
    3.7500  -11.6913    0.0000 C   0  0  0  0  0  0  0  0  0  0  0  0
    3.0000  -10.3923    0.0000 C   0  0  0  0  0  0  0  0  0  0  0  0
    1.5000  -10.3923    0.0000 C   0  0  0  0  0  0  0  0  0  0  0  0
    0.7500   -9.0933    0.0000 C   0  0  0  0  0  0  0  0  0  0  0  0
    1.5000   -7.7942    0.0000 N   0  0  0  0  0  0  0  0  0  0  0  0
    0.7500   -6.4952    0.0000 C   0  0  0  0  0  0  0  0  0  0  0  0
    1.5000   -5.1962    0.0000 N   0  0  0  0  0  0  0  0  0  0  0  0
    0.7500   -3.8971    0.0000 C   0  0  0  0  0  0  0  0  0  0  0  0
    1.5000   -2.5981    0.0000 N   0  0  0  0  0  0  0  0  0  0  0  0
    0.7500   -1.2990    0.0000 C   0  0  0  0  0  0  0  0  0  0  0  0
    1.5000    0.0000    0.0000 C   0  0  0  0  0  0  0  0  0  0  0  0
    0.7500    1.2990    0.0000 C   0  0  0  0  0  0  0  0  0  0  0  0
   -0.7500    1.2990    0.0000 C   0  0  0  0  0  0  0  0  0  0  0  0
   -1.5000    2.5981    0.0000 Cl  0  0  0  0  0  0  0  0  0  0  0  0
   -1.5000    0.0000    0.0000 C   0  0  0  0  0  0  0  0  0  0  0  0
   -0.7500   -1.2990    0.0000 C   0  0  0  0  0  0  0  0  0  0  0  0
   -1.5000   -2.5981    0.0000 C   0  0  0  0  0  0  0  0  0  0  0  0
   -0.7500   -3.8971    0.0000 C   0  0  0  0  0  0  0  0  0  0  0  0
   -1.5000   -5.1962    0.0000 C   0  0  0  0  0  0  0  0  0  0  0  0
   -3.0000   -5.1962    0.0000 O   0  0  0  0  0  0  0  0  0  0  0  0
   -0.7500   -6.4952    0.0000 N   0  0  0  0  0  0  0  0  0  0  0  0
    0.7500  -11.6913    0.0000 C   0  0  0  0  0  0  0  0  0  0  0  0
    1.5000  -12.9904    0.0000 C   0  0  0  0  0  0  0  0  0  0  0  0
    3.7500  -16.8875    0.0000 C   0  0  0  0  0  0  0  0  0  0  0  0
    3.0000  -18.1865    0.0000 C   0  0  0  0  0  0  0  0  0  0  0  0
  1  2  1  0
  2  3  1  0
  3  4  1  0
  4  5  1  0
  5  6  1  0
  6  7  1  0
  7  8  2  0
  8  9  1  0
  9 10  2  0
 10 11  1  0
 11 12  1  0
 12 13  1  0
 13 14  2  0
 14 15  1  0
 15 16  2  0
 16 17  1  0
 17 18  2  0
 18 19  1  0
 19 20  2  0
 20 21  1  0
 20 22  1  0
 22 23  2  0
 23 24  1  0
 24 25  2  0
 25 26  1  0
 26 27  2  0
 26 28  1  0
 10 29  1  0
 29 30  2  0
  5 31  1  0
 31 32  1  0
 32  2  1  0
 30  7  1  0
 28 13  1  0
 25 15  1  0
 23 17  1  0
M  END
>  <Compound_ID>  (567) 
CHEMBL4171176

>  <Molecule Name>  (567) 
nan

>  <Molecular Weight>  (567) 
448.96

>  <AlogP>  (567) 
3.48

>  <Smiles>  (567) 
CN1CCN(Cc2ccc(CNc3nc4nc5ccc(Cl)cc5cc4c(=O)[nH]3)cc2)CC1

>  <Standard Type>  (567) 
Inhibition

>  <Standard Relation>  (567) 
'='

>  <Standard Units>  (567) 
%

>  <Standard Value>  (567) 
9.0

>  <Assay ChEMBL ID>  (567) 
CHEMBL4153883

>  <Assay Description>  (567) 
Inhibition of MET (unknown origin) at 10 uM by [33P]-ATP radiometric assay

>  <BAO Format ID>  (567) 
BAO_0000357

>  <BAO Label>  (567) 
single protein format

>  <Assay Organism>  (567) 
Homo sapiens

>  <Target ChEMBL ID>  (567) 
CHEMBL3717

>  <Target Name>  (567) 
Hepatocyte growth factor receptor

>  <Target Organism>  (567) 
Homo sapiens

>  <Target Type>  (567) 
SINGLE PROTEIN

>  <Document ChEMBL ID>  (567) 
CHEMBL4152228

>  <Source Description>  (567) 
Scientific Literature

>  <Document Journal>  (567) 
Eur J Med Chem

>  <Document Year>  (567) 
2018.0

>  <Active>  (567) 
0.0

$$$$

     RDKit          2D

 24 27  0  0  0  0  0  0  0  0999 V2000
   -5.2802   -7.7620    0.0000 C   0  0  0  0  0  0  0  0  0  0  0  0
   -4.1655   -6.7583    0.0000 C   0  0  0  0  0  0  0  0  0  0  0  0
   -2.6983   -7.0701    0.0000 C   0  0  0  0  0  0  0  0  0  0  0  0
   -1.9483   -5.7711    0.0000 C   0  0  0  0  0  0  0  0  0  0  0  0
   -0.4565   -5.6143    0.0000 C   0  0  0  0  0  0  0  0  0  0  0  0
    0.4252   -6.8278    0.0000 C   0  0  0  0  0  0  0  0  0  0  0  0
    1.9170   -6.6710    0.0000 C   0  0  0  0  0  0  0  0  0  0  0  0
    2.5271   -5.3007    0.0000 C   0  0  0  0  0  0  0  0  0  0  0  0
    1.6454   -4.0872    0.0000 C   0  0  0  0  0  0  0  0  0  0  0  0
    2.2555   -2.7169    0.0000 N   0  0  0  0  0  0  0  0  0  0  0  0
    0.1536   -4.2440    0.0000 C   0  0  0  0  0  0  0  0  0  0  0  0
   -2.9520   -4.6564    0.0000 C   0  0  0  0  0  0  0  0  0  0  0  0
   -2.6401   -3.1891    0.0000 C   0  0  0  0  0  0  0  0  0  0  0  0
   -3.7548   -2.1855    0.0000 C   0  0  0  0  0  0  0  0  0  0  0  0
   -5.2220   -2.4973    0.0000 C   0  0  0  0  0  0  0  0  0  0  0  0
   -5.8322   -3.8676    0.0000 O   0  0  0  0  0  0  0  0  0  0  0  0
   -5.9720   -1.1983    0.0000 N   0  0  0  0  0  0  0  0  0  0  0  0
   -4.9684   -0.0836    0.0000 C   0  0  0  0  0  0  0  0  0  0  0  0
   -5.1251    1.4082    0.0000 C   0  0  0  0  0  0  0  0  0  0  0  0
   -3.9116    2.2899    0.0000 C   0  0  0  0  0  0  0  0  0  0  0  0
   -2.5413    1.6798    0.0000 C   0  0  0  0  0  0  0  0  0  0  0  0
   -2.3845    0.1880    0.0000 C   0  0  0  0  0  0  0  0  0  0  0  0
   -3.5980   -0.6937    0.0000 C   0  0  0  0  0  0  0  0  0  0  0  0
   -4.3223   -5.2665    0.0000 N   0  0  0  0  0  0  0  0  0  0  0  0
  1  2  1  0
  2  3  2  0
  3  4  1  0
  4  5  1  0
  5  6  2  0
  6  7  1  0
  7  8  2  0
  8  9  1  0
  9 10  1  0
  9 11  2  0
  4 12  2  0
 12 13  1  0
 13 14  2  0
 14 15  1  0
 15 16  2  0
 15 17  1  0
 17 18  1  0
 18 19  2  0
 19 20  1  0
 20 21  2  0
 21 22  1  0
 22 23  2  0
 12 24  1  0
 24  2  1  0
 11  5  1  0
 23 14  1  0
 23 18  1  0
M  END
>  <Compound_ID>  (568) 
CHEMBL1778718

>  <Molecule Name>  (568) 
nan

>  <Molecular Weight>  (568) 
315.38

>  <AlogP>  (568) 
4.07

>  <Smiles>  (568) 
Cc1cc(-c2cccc(N)c2)c(/C=C2\C(=O)Nc3ccccc32)[nH]1

>  <Standard Type>  (568) 
Inhibition

>  <Standard Relation>  (568) 
'='

>  <Standard Units>  (568) 
%

>  <Standard Value>  (568) 
12.7

>  <Assay ChEMBL ID>  (568) 
CHEMBL1781098

>  <Assay Description>  (568) 
Inhibition of MET at 4 uM by mobility shift assay

>  <BAO Format ID>  (568) 
BAO_0000357

>  <BAO Label>  (568) 
single protein format

>  <Assay Organism>  (568) 
None

>  <Target ChEMBL ID>  (568) 
CHEMBL3717

>  <Target Name>  (568) 
Hepatocyte growth factor receptor

>  <Target Organism>  (568) 
Homo sapiens

>  <Target Type>  (568) 
SINGLE PROTEIN

>  <Document ChEMBL ID>  (568) 
CHEMBL1777751

>  <Source Description>  (568) 
Scientific Literature

>  <Document Journal>  (568) 
Bioorg Med Chem

>  <Document Year>  (568) 
2011.0

>  <Active>  (568) 
0.0

$$$$

     RDKit          2D

 31 34  0  0  0  0  0  0  0  0999 V2000
   -2.0143    8.6263    0.0000 C   0  0  0  0  0  0  0  0  0  0  0  0
   -3.4408    8.1628    0.0000 C   0  0  0  0  0  0  0  0  0  0  0  0
   -3.7527    6.6955    0.0000 C   0  0  0  0  0  0  0  0  0  0  0  0
   -2.6380    5.6918    0.0000 C   0  0  0  0  0  0  0  0  0  0  0  0
   -1.2114    6.1554    0.0000 O   0  0  0  0  0  0  0  0  0  0  0  0
   -2.9499    4.2246    0.0000 N   0  0  0  0  0  0  0  0  0  0  0  0
   -1.8351    3.2209    0.0000 C   0  0  0  0  0  0  0  0  0  0  0  0
   -0.4086    3.6844    0.0000 C   0  0  0  0  0  0  0  0  0  0  0  0
    0.7062    2.6807    0.0000 C   0  0  0  0  0  0  0  0  0  0  0  0
    2.1328    3.1443    0.0000 Cl  0  0  0  0  0  0  0  0  0  0  0  0
    0.3943    1.2135    0.0000 C   0  0  0  0  0  0  0  0  0  0  0  0
    1.2760    0.0000    0.0000 N   0  0  0  0  0  0  0  0  0  0  0  0
    0.3943   -1.2135    0.0000 N   0  0  0  0  0  0  0  0  0  0  0  0
   -1.0323   -0.7500    0.0000 C   0  0  0  0  0  0  0  0  0  0  0  0
   -1.0323    0.7500    0.0000 C   0  0  0  0  0  0  0  0  0  0  0  0
   -2.1470    1.7537    0.0000 C   0  0  0  0  0  0  0  0  0  0  0  0
   -5.1793    6.2320    0.0000 C   0  0  0  0  0  0  0  0  0  0  0  0
   -5.4912    4.7648    0.0000 C   0  0  0  0  0  0  0  0  0  0  0  0
   -6.9177    4.3013    0.0000 C   0  0  0  0  0  0  0  0  0  0  0  0
   -7.2296    2.8340    0.0000 C   0  0  0  0  0  0  0  0  0  0  0  0
   -6.1149    1.8303    0.0000 C   0  0  0  0  0  0  0  0  0  0  0  0
   -6.4268    0.3631    0.0000 C   0  0  0  0  0  0  0  0  0  0  0  0
   -6.7386   -1.1041    0.0000 F   0  0  0  0  0  0  0  0  0  0  0  0
   -7.8940    0.6750    0.0000 F   0  0  0  0  0  0  0  0  0  0  0  0
   -4.9595    0.0513    0.0000 F   0  0  0  0  0  0  0  0  0  0  0  0
   -4.6883    2.2939    0.0000 C   0  0  0  0  0  0  0  0  0  0  0  0
   -4.3764    3.7611    0.0000 C   0  0  0  0  0  0  0  0  0  0  0  0
   -6.2940    7.2357    0.0000 C   0  0  0  0  0  0  0  0  0  0  0  0
   -5.9821    8.7029    0.0000 C   0  0  0  0  0  0  0  0  0  0  0  0
   -7.0969    9.7066    0.0000 O   0  0  0  0  0  0  0  0  0  0  0  0
   -4.5556    9.1664    0.0000 N   0  0  0  0  0  0  0  0  0  0  0  0
  1  2  1  0
  2  3  2  0
  3  4  1  0
  4  5  2  0
  4  6  1  0
  6  7  1  0
  7  8  2  0
  8  9  1  0
  9 10  1  0
  9 11  2  0
 11 12  1  0
 12 13  1  0
 13 14  2  0
 14 15  1  0
 15 16  2  0
  3 17  1  0
 17 18  1  0
 18 19  2  0
 19 20  1  0
 20 21  2  0
 21 22  1  0
 22 23  1  0
 22 24  1  0
 22 25  1  0
 21 26  1  0
 26 27  2  0
 17 28  1  0
 28 29  1  0
 29 30  2  0
 29 31  1  0
 31  2  1  0
 16  7  1  0
 27 18  1  0
 15 11  1  0
M  END
>  <Compound_ID>  (569) 
CHEMBL427058

>  <Molecule Name>  (569) 
GSK-466317A

>  <Molecular Weight>  (569) 
448.83

>  <AlogP>  (569) 
4.75

>  <Smiles>  (569) 
CC1=C(C(=O)Nc2cc(Cl)c3[nH]ncc3c2)C(c2ccc(C(F)(F)F)cc2)CC(=O)N1

>  <Standard Type>  (569) 
Inhibition

>  <Standard Relation>  (569) 
'='

>  <Standard Units>  (569) 
%

>  <Standard Value>  (569) 
0.14

>  <Assay ChEMBL ID>  (569) 
CHEMBL1962142

>  <Assay Description>  (569) 
GSK_PKIS: MET mean inhibition at 0.1 uM [Nanosyn]

>  <BAO Format ID>  (569) 
BAO_0000357

>  <BAO Label>  (569) 
single protein format

>  <Assay Organism>  (569) 
None

>  <Target ChEMBL ID>  (569) 
CHEMBL3717

>  <Target Name>  (569) 
Hepatocyte growth factor receptor

>  <Target Organism>  (569) 
Homo sapiens

>  <Target Type>  (569) 
SINGLE PROTEIN

>  <Document ChEMBL ID>  (569) 
CHEMBL1961873

>  <Source Description>  (569) 
GSK Published Kinase Inhibitor Set

>  <Document Journal>  (569) 
nan

>  <Document Year>  (569) 
nan

>  <Active>  (569) 
0.0

$$$$

     RDKit          2D

 28 31  0  0  0  0  0  0  0  0999 V2000
   -3.0000   -2.5981    0.0000 C   0  0  0  0  0  0  0  0  0  0  0  0
   -1.5000   -2.5981    0.0000 N   0  0  0  0  0  0  0  0  0  0  0  0
   -0.7500   -3.8971    0.0000 C   0  0  0  0  0  0  0  0  0  0  0  0
   -1.5000   -5.1962    0.0000 O   0  0  0  0  0  0  0  0  0  0  0  0
    0.7500   -3.8971    0.0000 C   0  0  0  0  0  0  0  0  0  0  0  0
    1.5000   -5.1962    0.0000 O   0  0  0  0  0  0  0  0  0  0  0  0
    3.0000   -5.1962    0.0000 C   0  0  0  0  0  0  0  0  0  0  0  0
    3.7500   -3.8971    0.0000 C   0  0  0  0  0  0  0  0  0  0  0  0
    3.0000   -2.5981    0.0000 Cl  0  0  0  0  0  0  0  0  0  0  0  0
    5.2500   -3.8971    0.0000 C   0  0  0  0  0  0  0  0  0  0  0  0
    6.0000   -5.1962    0.0000 C   0  0  0  0  0  0  0  0  0  0  0  0
    5.2500   -6.4952    0.0000 C   0  0  0  0  0  0  0  0  0  0  0  0
    3.7500   -6.4952    0.0000 C   0  0  0  0  0  0  0  0  0  0  0  0
    3.0000   -7.7942    0.0000 Cl  0  0  0  0  0  0  0  0  0  0  0  0
    1.5000   -2.5981    0.0000 C   0  0  0  0  0  0  0  0  0  0  0  0
    0.7500   -1.2990    0.0000 C   0  0  0  0  0  0  0  0  0  0  0  0
    1.5000    0.0000    0.0000 C   0  0  0  0  0  0  0  0  0  0  0  0
    0.7500    1.2990    0.0000 N   0  0  0  0  0  0  0  0  0  0  0  0
   -0.7500    1.2990    0.0000 C   0  0  0  0  0  0  0  0  0  0  0  0
   -1.5000    2.5981    0.0000 N   0  0  0  0  0  0  0  0  0  0  0  0
   -0.7500    3.8971    0.0000 C   0  0  0  0  0  0  0  0  0  0  0  0
    0.7500    3.8971    0.0000 C   0  0  0  0  0  0  0  0  0  0  0  0
    1.5000    5.1962    0.0000 C   0  0  0  0  0  0  0  0  0  0  0  0
    0.7500    6.4952    0.0000 O   0  0  0  0  0  0  0  0  0  0  0  0
   -0.7500    6.4952    0.0000 C   0  0  0  0  0  0  0  0  0  0  0  0
   -1.5000    5.1962    0.0000 C   0  0  0  0  0  0  0  0  0  0  0  0
   -1.5000    0.0000    0.0000 N   0  0  0  0  0  0  0  0  0  0  0  0
   -0.7500   -1.2990    0.0000 C   0  0  0  0  0  0  0  0  0  0  0  0
  1  2  1  0
  2  3  1  0
  3  4  2  0
  3  5  1  0
  5  6  1  0
  6  7  1  0
  7  8  2  0
  8  9  1  0
  8 10  1  0
 10 11  2  0
 11 12  1  0
 12 13  2  0
 13 14  1  0
  5 15  2  0
 15 16  1  0
 16 17  2  0
 17 18  1  0
 18 19  2  0
 19 20  1  0
 20 21  1  0
 21 22  1  0
 22 23  1  0
 23 24  1  0
 24 25  1  0
 25 26  1  0
 19 27  1  0
 27 28  2  0
 28  2  1  0
 13  7  1  0
 28 16  1  0
 26 21  1  0
M  END
>  <Compound_ID>  (570) 
CHEMBL3747351

>  <Molecule Name>  (570) 
nan

>  <Molecular Weight>  (570) 
421.28

>  <AlogP>  (570) 
4.02

>  <Smiles>  (570) 
Cn1c(=O)c(Oc2c(Cl)cccc2Cl)cc2cnc(NC3CCOCC3)nc21

>  <Standard Type>  (570) 
Inhibition

>  <Standard Relation>  (570) 
'='

>  <Standard Units>  (570) 
%

>  <Standard Value>  (570) 
1.0

>  <Assay ChEMBL ID>  (570) 
CHEMBL3750644

>  <Assay Description>  (570) 
Inhibition of cMET (unknown origin) at 10 uM

>  <BAO Format ID>  (570) 
BAO_0000357

>  <BAO Label>  (570) 
single protein format

>  <Assay Organism>  (570) 
Homo sapiens

>  <Target ChEMBL ID>  (570) 
CHEMBL3717

>  <Target Name>  (570) 
Hepatocyte growth factor receptor

>  <Target Organism>  (570) 
Homo sapiens

>  <Target Type>  (570) 
SINGLE PROTEIN

>  <Document ChEMBL ID>  (570) 
CHEMBL3745672

>  <Source Description>  (570) 
Scientific Literature

>  <Document Journal>  (570) 
Bioorg Med Chem Lett

>  <Document Year>  (570) 
2016.0

>  <Active>  (570) 
0.0

$$$$

     RDKit          2D

 36 40  0  0  0  0  0  0  0  0999 V2000
  -11.8224   -6.1165    0.0000 C   0  0  0  0  0  0  0  0  0  0  0  0
  -10.9407   -4.9030    0.0000 C   0  0  0  0  0  0  0  0  0  0  0  0
  -11.5508   -3.5327    0.0000 O   0  0  0  0  0  0  0  0  0  0  0  0
   -9.4490   -5.0598    0.0000 N   0  0  0  0  0  0  0  0  0  0  0  0
   -8.4453   -3.9451    0.0000 C   0  0  0  0  0  0  0  0  0  0  0  0
   -7.0749   -4.5552    0.0000 C   0  0  0  0  0  0  0  0  0  0  0  0
   -7.2317   -6.0469    0.0000 C   0  0  0  0  0  0  0  0  0  0  0  0
   -6.1170   -7.0506    0.0000 N   0  0  0  0  0  0  0  0  0  0  0  0
   -4.6904   -6.5871    0.0000 C   0  0  0  0  0  0  0  0  0  0  0  0
   -3.5757   -7.5908    0.0000 C   0  0  0  0  0  0  0  0  0  0  0  0
   -2.1491   -7.1273    0.0000 N   0  0  0  0  0  0  0  0  0  0  0  0
   -1.8373   -5.6601    0.0000 C   0  0  0  0  0  0  0  0  0  0  0  0
   -2.9520   -4.6564    0.0000 C   0  0  0  0  0  0  0  0  0  0  0  0
   -2.6401   -3.1891    0.0000 C   0  0  0  0  0  0  0  0  0  0  0  0
   -3.7548   -2.1855    0.0000 O   0  0  0  0  0  0  0  0  0  0  0  0
   -1.2135   -2.7256    0.0000 C   0  0  0  0  0  0  0  0  0  0  0  0
   -0.0000   -3.6073    0.0000 C   0  0  0  0  0  0  0  0  0  0  0  0
    1.2135   -2.7256    0.0000 N   0  0  0  0  0  0  0  0  0  0  0  0
    2.6401   -3.1891    0.0000 C   0  0  0  0  0  0  0  0  0  0  0  0
    2.9520   -4.6564    0.0000 C   0  0  0  0  0  0  0  0  0  0  0  0
    3.7548   -2.1855    0.0000 C   0  0  0  0  0  0  0  0  0  0  0  0
    0.7500   -1.2990    0.0000 C   0  0  0  0  0  0  0  0  0  0  0  0
    1.5000    0.0000    0.0000 N   0  0  0  0  0  0  0  0  0  0  0  0
    0.7500    1.2990    0.0000 C   0  0  0  0  0  0  0  0  0  0  0  0
   -0.7500    1.2990    0.0000 N   0  0  0  0  0  0  0  0  0  0  0  0
   -1.5000    0.0000    0.0000 C   0  0  0  0  0  0  0  0  0  0  0  0
   -3.0000    0.0000    0.0000 N   0  0  0  0  0  0  0  0  0  0  0  0
   -0.7500   -1.2990    0.0000 C   0  0  0  0  0  0  0  0  0  0  0  0
   -4.3786   -5.1199    0.0000 N   0  0  0  0  0  0  0  0  0  0  0  0
   -8.6990   -6.3588    0.0000 C   0  0  0  0  0  0  0  0  0  0  0  0
   -9.3091   -7.7291    0.0000 C   0  0  0  0  0  0  0  0  0  0  0  0
   -8.4274   -8.9427    0.0000 C   0  0  0  0  0  0  0  0  0  0  0  0
   -9.0375  -10.3130    0.0000 C   0  0  0  0  0  0  0  0  0  0  0  0
  -10.5293  -10.4698    0.0000 C   0  0  0  0  0  0  0  0  0  0  0  0
  -11.4109   -9.2562    0.0000 C   0  0  0  0  0  0  0  0  0  0  0  0
  -10.8008   -7.8859    0.0000 C   0  0  0  0  0  0  0  0  0  0  0  0
  1  2  1  0
  2  3  2  0
  2  4  1  0
  4  5  1  0
  5  6  1  0
  6  7  1  0
  7  8  1  1
  8  9  1  0
  9 10  2  0
 10 11  1  0
 11 12  2  0
 12 13  1  0
 13 14  1  0
 14 15  2  0
 14 16  1  0
 16 17  2  0
 17 18  1  0
 18 19  1  0
 19 20  1  0
 19 21  1  0
 18 22  1  0
 22 23  2  0
 23 24  1  0
 24 25  2  0
 25 26  1  0
 26 27  1  0
 26 28  2  0
 13 29  2  0
  7 30  1  0
 30 31  1  1
 31 32  2  0
 32 33  1  0
 33 34  2  0
 34 35  1  0
 35 36  2  0
 30  4  1  0
 36 31  1  0
 29  9  1  0
 28 16  1  0
 28 22  1  0
M  END
>  <Compound_ID>  (571) 
CHEMBL1940253

>  <Molecule Name>  (571) 
nan

>  <Molecular Weight>  (571) 
484.56

>  <AlogP>  (571) 
3.39

>  <Smiles>  (571) 
CC(=O)N1CC[C@@H](Nc2cncc(C(=O)c3cn(C(C)C)c4ncnc(N)c34)n2)[C@H]1c1ccccc1

>  <Standard Type>  (571) 
Inhibition

>  <Standard Relation>  (571) 
'='

>  <Standard Units>  (571) 
%

>  <Standard Value>  (571) 
4.0

>  <Assay ChEMBL ID>  (571) 
CHEMBL1942191

>  <Assay Description>  (571) 
Inhibition of MET at 1 uM

>  <BAO Format ID>  (571) 
BAO_0000357

>  <BAO Label>  (571) 
single protein format

>  <Assay Organism>  (571) 
None

>  <Target ChEMBL ID>  (571) 
CHEMBL3717

>  <Target Name>  (571) 
Hepatocyte growth factor receptor

>  <Target Organism>  (571) 
Homo sapiens

>  <Target Type>  (571) 
SINGLE PROTEIN

>  <Document ChEMBL ID>  (571) 
CHEMBL1938337

>  <Source Description>  (571) 
Scientific Literature

>  <Document Journal>  (571) 
J Med Chem

>  <Document Year>  (571) 
2011.0

>  <Active>  (571) 
0.0

$$$$

     RDKit          2D

 32 35  0  0  0  0  0  0  0  0999 V2000
    3.7500   -3.8971    0.0000 C   0  0  0  0  0  0  0  0  0  0  0  0
    3.0000   -2.5981    0.0000 C   0  0  0  0  0  0  0  0  0  0  0  0
    1.5000   -2.5981    0.0000 N   0  0  0  0  0  0  0  0  0  0  0  0
    0.7500   -1.2990    0.0000 C   0  0  0  0  0  0  0  0  0  0  0  0
    1.5000    0.0000    0.0000 N   0  0  0  0  0  0  0  0  0  0  0  0
    0.7500    1.2990    0.0000 C   0  0  0  0  0  0  0  0  0  0  0  0
   -0.7500    1.2990    0.0000 N   0  0  0  0  0  0  0  0  0  0  0  0
   -1.5000    0.0000    0.0000 C   0  0  0  0  0  0  0  0  0  0  0  0
   -2.9672   -0.3119    0.0000 S   0  0  0  0  0  0  0  0  0  0  0  0
   -3.1240   -1.8037    0.0000 C   0  0  0  0  0  0  0  0  0  0  0  0
   -4.4231   -2.5537    0.0000 C   0  0  0  0  0  0  0  0  0  0  0  0
   -5.7221   -1.8037    0.0000 C   0  0  0  0  0  0  0  0  0  0  0  0
   -7.0211   -2.5537    0.0000 C   0  0  0  0  0  0  0  0  0  0  0  0
   -7.0211   -4.0537    0.0000 C   0  0  0  0  0  0  0  0  0  0  0  0
   -8.3202   -4.8037    0.0000 C   0  0  0  0  0  0  0  0  0  0  0  0
   -8.3202   -6.3037    0.0000 O   0  0  0  0  0  0  0  0  0  0  0  0
   -9.6192   -4.0537    0.0000 N   0  0  0  0  0  0  0  0  0  0  0  0
  -10.9182   -4.8037    0.0000 C   0  0  0  0  0  0  0  0  0  0  0  0
  -12.2173   -4.0537    0.0000 C   0  0  0  0  0  0  0  0  0  0  0  0
  -13.5163   -4.8037    0.0000 N   0  0  0  0  0  0  0  0  0  0  0  0
  -14.8154   -4.0537    0.0000 C   0  0  0  0  0  0  0  0  0  0  0  0
  -13.5163   -6.3037    0.0000 C   0  0  0  0  0  0  0  0  0  0  0  0
   -5.7221   -4.8037    0.0000 C   0  0  0  0  0  0  0  0  0  0  0  0
   -4.4231   -4.0537    0.0000 C   0  0  0  0  0  0  0  0  0  0  0  0
   -1.7537   -2.4138    0.0000 C   0  0  0  0  0  0  0  0  0  0  0  0
   -0.7500   -1.2990    0.0000 C   0  0  0  0  0  0  0  0  0  0  0  0
    3.7500   -1.2990    0.0000 C   0  0  0  0  0  0  0  0  0  0  0  0
    5.2500   -1.2990    0.0000 C   0  0  0  0  0  0  0  0  0  0  0  0
    6.0000   -0.0000    0.0000 C   0  0  0  0  0  0  0  0  0  0  0  0
    5.2500    1.2990    0.0000 C   0  0  0  0  0  0  0  0  0  0  0  0
    3.7500    1.2990    0.0000 C   0  0  0  0  0  0  0  0  0  0  0  0
    3.0000   -0.0000    0.0000 C   0  0  0  0  0  0  0  0  0  0  0  0
  2  1  1  1
  2  3  1  0
  3  4  1  0
  4  5  2  0
  5  6  1  0
  6  7  2  0
  7  8  1  0
  8  9  1  0
  9 10  1  0
 10 11  1  0
 11 12  2  0
 12 13  1  0
 13 14  2  0
 14 15  1  0
 15 16  2  0
 15 17  1  0
 17 18  1  0
 18 19  1  0
 19 20  1  0
 20 21  1  0
 20 22  1  0
 14 23  1  0
 23 24  2  0
 10 25  2  0
 25 26  1  0
  2 27  1  0
 27 28  2  0
 28 29  1  0
 29 30  2  0
 30 31  1  0
 31 32  2  0
 26  4  1  0
 32 27  1  0
 26  8  2  0
 24 11  1  0
M  END
>  <Compound_ID>  (572) 
CHEMBL3758800

>  <Molecule Name>  (572) 
nan

>  <Molecular Weight>  (572) 
445.59

>  <AlogP>  (572) 
4.82

>  <Smiles>  (572) 
C[C@@H](Nc1ncnc2sc(-c3ccc(C(=O)NCCN(C)C)cc3)cc12)c1ccccc1

>  <Standard Type>  (572) 
Inhibition

>  <Standard Relation>  (572) 
'='

>  <Standard Units>  (572) 
%

>  <Standard Value>  (572) 
-11.0

>  <Assay ChEMBL ID>  (572) 
CHEMBL3761591

>  <Assay Description>  (572) 
Inhibition of MET (unknown origin) at 500 nM

>  <BAO Format ID>  (572) 
BAO_0000357

>  <BAO Label>  (572) 
single protein format

>  <Assay Organism>  (572) 
Homo sapiens

>  <Target ChEMBL ID>  (572) 
CHEMBL3717

>  <Target Name>  (572) 
Hepatocyte growth factor receptor

>  <Target Organism>  (572) 
Homo sapiens

>  <Target Type>  (572) 
SINGLE PROTEIN

>  <Document ChEMBL ID>  (572) 
CHEMBL3758163

>  <Source Description>  (572) 
Scientific Literature

>  <Document Journal>  (572) 
Eur J Med Chem

>  <Document Year>  (572) 
2016.0

>  <Active>  (572) 
0.0

$$$$

     RDKit          2D

 17 19  0  0  0  0  0  0  0  0999 V2000
   -3.7548   -2.1855    0.0000 C   0  0  0  0  0  0  0  0  0  0  0  0
   -2.6401   -3.1891    0.0000 C   0  0  0  0  0  0  0  0  0  0  0  0
   -1.2135   -2.7256    0.0000 N   0  0  0  0  0  0  0  0  0  0  0  0
   -0.0000   -3.6073    0.0000 C   0  0  0  0  0  0  0  0  0  0  0  0
   -0.0000   -5.1073    0.0000 C   0  0  0  0  0  0  0  0  0  0  0  0
    1.2135   -5.9890    0.0000 N   0  0  0  0  0  0  0  0  0  0  0  0
    0.7500   -7.4156    0.0000 O   0  0  0  0  0  0  0  0  0  0  0  0
   -0.7500   -7.4156    0.0000 N   0  0  0  0  0  0  0  0  0  0  0  0
   -1.2135   -5.9890    0.0000 C   0  0  0  0  0  0  0  0  0  0  0  0
   -2.6401   -5.5255    0.0000 N   0  0  0  0  0  0  0  0  0  0  0  0
    1.2135   -2.7256    0.0000 N   0  0  0  0  0  0  0  0  0  0  0  0
    0.7500   -1.2990    0.0000 C   0  0  0  0  0  0  0  0  0  0  0  0
    1.5000    0.0000    0.0000 C   0  0  0  0  0  0  0  0  0  0  0  0
    0.7500    1.2990    0.0000 C   0  0  0  0  0  0  0  0  0  0  0  0
   -0.7500    1.2990    0.0000 C   0  0  0  0  0  0  0  0  0  0  0  0
   -1.5000    0.0000    0.0000 C   0  0  0  0  0  0  0  0  0  0  0  0
   -0.7500   -1.2990    0.0000 C   0  0  0  0  0  0  0  0  0  0  0  0
  1  2  1  0
  2  3  1  0
  3  4  1  0
  4  5  1  0
  5  6  2  0
  6  7  1  0
  7  8  1  0
  8  9  2  0
  9 10  1  0
  4 11  2  0
 11 12  1  0
 12 13  2  0
 13 14  1  0
 14 15  2  0
 15 16  1  0
 16 17  2  0
 17  3  1  0
  9  5  1  0
 17 12  1  0
M  END
>  <Compound_ID>  (573) 
CHEMBL365286

>  <Molecule Name>  (573) 
GW549034X

>  <Molecular Weight>  (573) 
229.24

>  <AlogP>  (573) 
1.69

>  <Smiles>  (573) 
CCn1c(-c2nonc2N)nc2ccccc21

>  <Standard Type>  (573) 
Inhibition

>  <Standard Relation>  (573) 
'='

>  <Standard Units>  (573) 
%

>  <Standard Value>  (573) 
5.36

>  <Assay ChEMBL ID>  (573) 
CHEMBL1962142

>  <Assay Description>  (573) 
GSK_PKIS: MET mean inhibition at 0.1 uM [Nanosyn]

>  <BAO Format ID>  (573) 
BAO_0000357

>  <BAO Label>  (573) 
single protein format

>  <Assay Organism>  (573) 
None

>  <Target ChEMBL ID>  (573) 
CHEMBL3717

>  <Target Name>  (573) 
Hepatocyte growth factor receptor

>  <Target Organism>  (573) 
Homo sapiens

>  <Target Type>  (573) 
SINGLE PROTEIN

>  <Document ChEMBL ID>  (573) 
CHEMBL1961873

>  <Source Description>  (573) 
GSK Published Kinase Inhibitor Set

>  <Document Journal>  (573) 
nan

>  <Document Year>  (573) 
nan

>  <Active>  (573) 
0.0

$$$$

     RDKit          2D

 33 36  0  0  0  0  0  0  0  0999 V2000
   -3.7548   -2.1855    0.0000 C   0  0  0  0  0  0  0  0  0  0  0  0
   -2.6401   -3.1891    0.0000 C   0  0  0  0  0  0  0  0  0  0  0  0
   -1.2135   -2.7256    0.0000 N   0  0  0  0  0  0  0  0  0  0  0  0
   -0.0000   -3.6073    0.0000 C   0  0  0  0  0  0  0  0  0  0  0  0
   -0.0000   -5.1073    0.0000 C   0  0  0  0  0  0  0  0  0  0  0  0
    1.2135   -5.9890    0.0000 N   0  0  0  0  0  0  0  0  0  0  0  0
    0.7500   -7.4156    0.0000 O   0  0  0  0  0  0  0  0  0  0  0  0
   -0.7500   -7.4156    0.0000 N   0  0  0  0  0  0  0  0  0  0  0  0
   -1.2135   -5.9890    0.0000 C   0  0  0  0  0  0  0  0  0  0  0  0
   -2.6401   -5.5255    0.0000 N   0  0  0  0  0  0  0  0  0  0  0  0
    1.2135   -2.7256    0.0000 N   0  0  0  0  0  0  0  0  0  0  0  0
    0.7500   -1.2990    0.0000 C   0  0  0  0  0  0  0  0  0  0  0  0
    1.5000    0.0000    0.0000 C   0  0  0  0  0  0  0  0  0  0  0  0
    3.0000    0.0000    0.0000 C   0  0  0  0  0  0  0  0  0  0  0  0
    4.5000    0.0000    0.0000 C   0  0  0  0  0  0  0  0  0  0  0  0
    6.0000    0.0000    0.0000 C   0  0  0  0  0  0  0  0  0  0  0  0
    6.0000   -1.5000    0.0000 C   0  0  0  0  0  0  0  0  0  0  0  0
    6.0000    1.5000    0.0000 C   0  0  0  0  0  0  0  0  0  0  0  0
    7.5000    0.0000    0.0000 O   0  0  0  0  0  0  0  0  0  0  0  0
    0.7500    1.2990    0.0000 N   0  0  0  0  0  0  0  0  0  0  0  0
   -0.7500    1.2990    0.0000 C   0  0  0  0  0  0  0  0  0  0  0  0
   -1.5000    2.5981    0.0000 O   0  0  0  0  0  0  0  0  0  0  0  0
   -0.7500    3.8971    0.0000 C   0  0  0  0  0  0  0  0  0  0  0  0
   -1.5000    5.1962    0.0000 C   0  0  0  0  0  0  0  0  0  0  0  0
   -3.0000    5.1962    0.0000 N   0  0  0  0  0  0  0  0  0  0  0  0
   -0.7500    6.4952    0.0000 C   0  0  0  0  0  0  0  0  0  0  0  0
    0.7500    6.4952    0.0000 C   0  0  0  0  0  0  0  0  0  0  0  0
    1.5000    7.7942    0.0000 C   0  0  0  0  0  0  0  0  0  0  0  0
    0.7500    9.0933    0.0000 C   0  0  0  0  0  0  0  0  0  0  0  0
   -0.7500    9.0933    0.0000 C   0  0  0  0  0  0  0  0  0  0  0  0
   -1.5000    7.7942    0.0000 C   0  0  0  0  0  0  0  0  0  0  0  0
   -1.5000    0.0000    0.0000 C   0  0  0  0  0  0  0  0  0  0  0  0
   -0.7500   -1.2990    0.0000 C   0  0  0  0  0  0  0  0  0  0  0  0
  1  2  1  0
  2  3  1  0
  3  4  1  0
  4  5  1  0
  5  6  2  0
  6  7  1  0
  7  8  1  0
  8  9  2  0
  9 10  1  0
  4 11  2  0
 11 12  1  0
 12 13  2  0
 13 14  1  0
 14 15  3  0
 15 16  1  0
 16 17  1  0
 16 18  1  0
 16 19  1  0
 13 20  1  0
 20 21  2  0
 21 22  1  0
 22 23  1  0
 23 24  1  0
 24 25  1  6
 24 26  1  0
 26 27  2  0
 27 28  1  0
 28 29  2  0
 29 30  1  0
 30 31  2  0
 21 32  1  0
 32 33  2  0
 33  3  1  0
  9  5  1  0
 33 12  1  0
 31 26  1  0
M  END
>  <Compound_ID>  (574) 
CHEMBL1096634

>  <Molecule Name>  (574) 
GSK-943949A

>  <Molecular Weight>  (574) 
447.50

>  <AlogP>  (574) 
2.28

>  <Smiles>  (574) 
CCn1c(-c2nonc2N)nc2c(C#CC(C)(C)O)nc(OC[C@H](N)c3ccccc3)cc21

>  <Standard Type>  (574) 
Inhibition

>  <Standard Relation>  (574) 
'='

>  <Standard Units>  (574) 
%

>  <Standard Value>  (574) 
6.32

>  <Assay ChEMBL ID>  (574) 
CHEMBL1962142

>  <Assay Description>  (574) 
GSK_PKIS: MET mean inhibition at 0.1 uM [Nanosyn]

>  <BAO Format ID>  (574) 
BAO_0000357

>  <BAO Label>  (574) 
single protein format

>  <Assay Organism>  (574) 
None

>  <Target ChEMBL ID>  (574) 
CHEMBL3717

>  <Target Name>  (574) 
Hepatocyte growth factor receptor

>  <Target Organism>  (574) 
Homo sapiens

>  <Target Type>  (574) 
SINGLE PROTEIN

>  <Document ChEMBL ID>  (574) 
CHEMBL1961873

>  <Source Description>  (574) 
GSK Published Kinase Inhibitor Set

>  <Document Journal>  (574) 
nan

>  <Document Year>  (574) 
nan

>  <Active>  (574) 
0.0

$$$$

     RDKit          2D

 25 28  0  0  0  0  0  0  0  0999 V2000
   -3.6221    4.6871    0.0000 C   0  0  0  0  0  0  0  0  0  0  0  0
   -5.0487    4.2236    0.0000 C   0  0  0  0  0  0  0  0  0  0  0  0
   -6.1634    5.2273    0.0000 C   0  0  0  0  0  0  0  0  0  0  0  0
   -5.3605    2.7564    0.0000 C   0  0  0  0  0  0  0  0  0  0  0  0
   -4.2458    1.7527    0.0000 C   0  0  0  0  0  0  0  0  0  0  0  0
   -4.5577    0.2855    0.0000 C   0  0  0  0  0  0  0  0  0  0  0  0
   -5.9843   -0.1781    0.0000 C   0  0  0  0  0  0  0  0  0  0  0  0
   -6.2961   -1.6453    0.0000 N   0  0  0  0  0  0  0  0  0  0  0  0
   -5.1814   -2.6490    0.0000 C   0  0  0  0  0  0  0  0  0  0  0  0
   -5.4933   -4.1162    0.0000 N   0  0  0  0  0  0  0  0  0  0  0  0
   -4.3786   -5.1199    0.0000 C   0  0  0  0  0  0  0  0  0  0  0  0
   -2.9520   -4.6564    0.0000 C   0  0  0  0  0  0  0  0  0  0  0  0
   -2.6401   -3.1891    0.0000 C   0  0  0  0  0  0  0  0  0  0  0  0
   -1.2135   -2.7256    0.0000 C   0  0  0  0  0  0  0  0  0  0  0  0
   -0.0000   -3.6073    0.0000 C   0  0  0  0  0  0  0  0  0  0  0  0
    1.2135   -2.7256    0.0000 N   0  0  0  0  0  0  0  0  0  0  0  0
    0.7500   -1.2990    0.0000 N   0  0  0  0  0  0  0  0  0  0  0  0
    1.5000    0.0000    0.0000 N   0  0  0  0  0  0  0  0  0  0  0  0
    0.7500    1.2990    0.0000 C   0  0  0  0  0  0  0  0  0  0  0  0
   -0.7500    1.2990    0.0000 C   0  0  0  0  0  0  0  0  0  0  0  0
   -1.5000    0.0000    0.0000 C   0  0  0  0  0  0  0  0  0  0  0  0
   -0.7500   -1.2990    0.0000 C   0  0  0  0  0  0  0  0  0  0  0  0
   -3.7548   -2.1855    0.0000 N   0  0  0  0  0  0  0  0  0  0  0  0
   -7.0990    0.8256    0.0000 C   0  0  0  0  0  0  0  0  0  0  0  0
   -6.7871    2.2929    0.0000 C   0  0  0  0  0  0  0  0  0  0  0  0
  1  2  1  0
  2  3  1  0
  2  4  1  0
  4  5  2  0
  5  6  1  0
  6  7  2  0
  7  8  1  0
  8  9  1  0
  9 10  2  0
 10 11  1  0
 11 12  2  0
 12 13  1  0
 13 14  1  0
 14 15  1  0
 15 16  2  0
 16 17  1  0
 17 18  1  0
 18 19  2  0
 19 20  1  0
 20 21  2  0
 21 22  1  0
 13 23  2  0
  7 24  1  0
 24 25  2  0
 25  4  1  0
 23  9  1  0
 22 14  2  0
 22 17  1  0
M  END
>  <Compound_ID>  (575) 
CHEMBL359963

>  <Molecule Name>  (575) 
GW805758X

>  <Molecular Weight>  (575) 
330.40

>  <AlogP>  (575) 
4.05

>  <Smiles>  (575) 
CC(C)c1ccc(Nc2nccc(-c3cnn4ncccc34)n2)cc1

>  <Standard Type>  (575) 
Inhibition

>  <Standard Relation>  (575) 
'='

>  <Standard Units>  (575) 
%

>  <Standard Value>  (575) 
4.89

>  <Assay ChEMBL ID>  (575) 
CHEMBL1962142

>  <Assay Description>  (575) 
GSK_PKIS: MET mean inhibition at 0.1 uM [Nanosyn]

>  <BAO Format ID>  (575) 
BAO_0000357

>  <BAO Label>  (575) 
single protein format

>  <Assay Organism>  (575) 
None

>  <Target ChEMBL ID>  (575) 
CHEMBL3717

>  <Target Name>  (575) 
Hepatocyte growth factor receptor

>  <Target Organism>  (575) 
Homo sapiens

>  <Target Type>  (575) 
SINGLE PROTEIN

>  <Document ChEMBL ID>  (575) 
CHEMBL1961873

>  <Source Description>  (575) 
GSK Published Kinase Inhibitor Set

>  <Document Journal>  (575) 
nan

>  <Document Year>  (575) 
nan

>  <Active>  (575) 
0.0

$$$$

     RDKit          2D

 33 37  0  0  0  0  0  0  0  0999 V2000
    3.7500   -6.4952    0.0000 C   0  0  0  0  0  0  0  0  0  0  0  0
    3.0000   -5.1962    0.0000 C   0  0  0  0  0  0  0  0  0  0  0  0
    1.5000   -5.1962    0.0000 C   0  0  0  0  0  0  0  0  0  0  0  0
    0.7500   -3.8971    0.0000 C   0  0  0  0  0  0  0  0  0  0  0  0
    1.5000   -2.5981    0.0000 C   0  0  0  0  0  0  0  0  0  0  0  0
    0.7500   -1.2990    0.0000 C   0  0  0  0  0  0  0  0  0  0  0  0
    1.5000    0.0000    0.0000 C   0  0  0  0  0  0  0  0  0  0  0  0
    0.7500    1.2990    0.0000 C   0  0  0  0  0  0  0  0  0  0  0  0
   -0.7500    1.2990    0.0000 C   0  0  0  0  0  0  0  0  0  0  0  0
   -1.5000    2.5981    0.0000 N   0  0  0  0  0  0  0  0  0  0  0  0
   -3.0000    2.5981    0.0000 C   0  0  0  0  0  0  0  0  0  0  0  0
   -3.7500    1.2990    0.0000 C   0  0  0  0  0  0  0  0  0  0  0  0
   -3.0000    0.0000    0.0000 C   0  0  0  0  0  0  0  0  0  0  0  0
   -1.5000    0.0000    0.0000 C   0  0  0  0  0  0  0  0  0  0  0  0
   -0.7500   -1.2990    0.0000 N   0  0  0  0  0  0  0  0  0  0  0  0
   -4.0037   -1.1147    0.0000 N   0  0  0  0  0  0  0  0  0  0  0  0
   -3.6918   -2.5819    0.0000 C   0  0  0  0  0  0  0  0  0  0  0  0
   -4.8065   -3.5856    0.0000 C   0  0  0  0  0  0  0  0  0  0  0  0
   -4.4947   -5.0529    0.0000 C   0  0  0  0  0  0  0  0  0  0  0  0
   -3.0681   -5.5164    0.0000 N   0  0  0  0  0  0  0  0  0  0  0  0
   -2.7562   -6.9836    0.0000 C   0  0  0  0  0  0  0  0  0  0  0  0
   -1.3296   -7.4471    0.0000 O   0  0  0  0  0  0  0  0  0  0  0  0
   -3.8709   -7.9873    0.0000 C   0  0  0  0  0  0  0  0  0  0  0  0
   -3.5591   -9.4545    0.0000 C   0  0  0  0  0  0  0  0  0  0  0  0
   -5.2975   -7.5238    0.0000 O   0  0  0  0  0  0  0  0  0  0  0  0
   -1.9534   -4.5127    0.0000 C   0  0  0  0  0  0  0  0  0  0  0  0
   -2.2652   -3.0455    0.0000 C   0  0  0  0  0  0  0  0  0  0  0  0
   -5.3740   -0.5046    0.0000 C   0  0  0  0  0  0  0  0  0  0  0  0
   -6.6731   -1.2546    0.0000 O   0  0  0  0  0  0  0  0  0  0  0  0
   -5.2172    0.9872    0.0000 N   0  0  0  0  0  0  0  0  0  0  0  0
   -6.3319    1.9909    0.0000 C   0  0  0  0  0  0  0  0  0  0  0  0
    3.0000   -2.5981    0.0000 C   0  0  0  0  0  0  0  0  0  0  0  0
    3.7500   -3.8971    0.0000 N   0  0  0  0  0  0  0  0  0  0  0  0
  1  2  1  0
  2  3  2  0
  3  4  1  0
  4  5  2  0
  5  6  1  0
  6  7  2  0
  7  8  1  0
  8  9  2  0
  9 10  1  0
 10 11  2  0
 11 12  1  0
 12 13  2  0
 13 14  1  0
 14 15  2  0
 13 16  1  0
 16 17  1  0
 17 18  1  0
 18 19  1  0
 19 20  1  0
 20 21  1  0
 21 22  2  0
 21 23  1  0
 23 24  1  6
 23 25  1  0
 20 26  1  0
 26 27  1  0
 16 28  1  0
 28 29  2  0
 28 30  1  0
 30 31  1  0
  5 32  1  0
 32 33  2  0
 33  2  1  0
 15  6  1  0
 27 17  1  0
 14  9  1  0
 30 12  1  0
M  END
>  <Compound_ID>  (576) 
CHEMBL2331664

>  <Molecule Name>  (576) 
nan

>  <Molecular Weight>  (576) 
446.51

>  <AlogP>  (576) 
2.20

>  <Smiles>  (576) 
Cc1ccc(-c2ccc3ncc4c(c3n2)n(C2CCN(C(=O)[C@H](C)O)CC2)c(=O)n4C)cn1

>  <Standard Type>  (576) 
Inhibition

>  <Standard Relation>  (576) 
'='

>  <Standard Units>  (576) 
%

>  <Standard Value>  (576) 
3.25

>  <Assay ChEMBL ID>  (576) 
CHEMBL2345847

>  <Assay Description>  (576) 
Inhibition of MET (unknown origin) at 1 uM

>  <BAO Format ID>  (576) 
BAO_0000357

>  <BAO Label>  (576) 
single protein format

>  <Assay Organism>  (576) 
Homo sapiens

>  <Target ChEMBL ID>  (576) 
CHEMBL3717

>  <Target Name>  (576) 
Hepatocyte growth factor receptor

>  <Target Organism>  (576) 
Homo sapiens

>  <Target Type>  (576) 
SINGLE PROTEIN

>  <Document ChEMBL ID>  (576) 
CHEMBL2331555

>  <Source Description>  (576) 
Scientific Literature

>  <Document Journal>  (576) 
ACS Med Chem Lett

>  <Document Year>  (576) 
2013.0

>  <Active>  (576) 
0.0

$$$$

     RDKit          2D

 25 28  0  0  0  0  0  0  0  0999 V2000
    4.5000   -7.7942    0.0000 N   0  0  0  0  0  0  0  0  0  0  0  0
    3.7500   -6.4952    0.0000 S   0  0  0  0  0  0  0  0  0  0  0  0
    2.4510   -7.2452    0.0000 O   0  0  0  0  0  0  0  0  0  0  0  0
    5.0490   -5.7452    0.0000 O   0  0  0  0  0  0  0  0  0  0  0  0
    3.0000   -5.1962    0.0000 C   0  0  0  0  0  0  0  0  0  0  0  0
    1.5000   -5.1962    0.0000 C   0  0  0  0  0  0  0  0  0  0  0  0
    0.7500   -3.8971    0.0000 C   0  0  0  0  0  0  0  0  0  0  0  0
    1.5000   -2.5981    0.0000 C   0  0  0  0  0  0  0  0  0  0  0  0
    0.7500   -1.2990    0.0000 C   0  0  0  0  0  0  0  0  0  0  0  0
    1.5000    0.0000    0.0000 C   0  0  0  0  0  0  0  0  0  0  0  0
    0.7500    1.2990    0.0000 C   0  0  0  0  0  0  0  0  0  0  0  0
   -0.7500    1.2990    0.0000 C   0  0  0  0  0  0  0  0  0  0  0  0
   -1.7537    2.4138    0.0000 C   0  0  0  0  0  0  0  0  0  0  0  0
   -1.4418    3.8810    0.0000 N   0  0  0  0  0  0  0  0  0  0  0  0
   -2.5565    4.8847    0.0000 C   0  0  0  0  0  0  0  0  0  0  0  0
   -3.9831    4.4211    0.0000 O   0  0  0  0  0  0  0  0  0  0  0  0
   -2.2447    6.3519    0.0000 C   0  0  0  0  0  0  0  0  0  0  0  0
   -2.7082    7.7785    0.0000 C   0  0  0  0  0  0  0  0  0  0  0  0
   -1.2410    7.4666    0.0000 C   0  0  0  0  0  0  0  0  0  0  0  0
   -3.1240    1.8037    0.0000 N   0  0  0  0  0  0  0  0  0  0  0  0
   -2.9672    0.3119    0.0000 N   0  0  0  0  0  0  0  0  0  0  0  0
   -1.5000    0.0000    0.0000 C   0  0  0  0  0  0  0  0  0  0  0  0
   -0.7500   -1.2990    0.0000 C   0  0  0  0  0  0  0  0  0  0  0  0
    3.0000   -2.5981    0.0000 C   0  0  0  0  0  0  0  0  0  0  0  0
    3.7500   -3.8971    0.0000 C   0  0  0  0  0  0  0  0  0  0  0  0
  1  2  1  0
  2  3  2  0
  2  4  2  0
  2  5  1  0
  5  6  2  0
  6  7  1  0
  7  8  2  0
  8  9  1  0
  9 10  2  0
 10 11  1  0
 11 12  2  0
 12 13  1  0
 13 14  1  0
 14 15  1  0
 15 16  2  0
 15 17  1  0
 17 18  1  0
 18 19  1  0
 13 20  2  0
 20 21  1  0
 21 22  1  0
 22 23  2  0
  8 24  1  0
 24 25  2  0
 25  5  1  0
 23  9  1  0
 22 12  1  0
 19 17  1  0
M  END
>  <Compound_ID>  (577) 
CHEMBL103098

>  <Molecule Name>  (577) 
nan

>  <Molecular Weight>  (577) 
356.41

>  <AlogP>  (577) 
2.23

>  <Smiles>  (577) 
NS(=O)(=O)c1ccc(-c2ccc3c(NC(=O)C4CC4)n[nH]c3c2)cc1

>  <Standard Type>  (577) 
Inhibition

>  <Standard Relation>  (577) 
'='

>  <Standard Units>  (577) 
%

>  <Standard Value>  (577) 
0.32

>  <Assay ChEMBL ID>  (577) 
CHEMBL1962143

>  <Assay Description>  (577) 
GSK_PKIS: MET mean inhibition at 1 uM [Nanosyn]

>  <BAO Format ID>  (577) 
BAO_0000357

>  <BAO Label>  (577) 
single protein format

>  <Assay Organism>  (577) 
None

>  <Target ChEMBL ID>  (577) 
CHEMBL3717

>  <Target Name>  (577) 
Hepatocyte growth factor receptor

>  <Target Organism>  (577) 
Homo sapiens

>  <Target Type>  (577) 
SINGLE PROTEIN

>  <Document ChEMBL ID>  (577) 
CHEMBL1961873

>  <Source Description>  (577) 
GSK Published Kinase Inhibitor Set

>  <Document Journal>  (577) 
nan

>  <Document Year>  (577) 
nan

>  <Active>  (577) 
0.0

$$$$

     RDKit          2D

 26 30  0  0  0  0  0  0  0  0999 V2000
    3.0000   -5.1962    0.0000 C   0  0  0  0  0  0  0  0  0  0  0  0
    1.5000   -5.1962    0.0000 C   0  0  0  0  0  0  0  0  0  0  0  0
    0.7500   -3.8971    0.0000 C   0  0  0  0  0  0  0  0  0  0  0  0
    1.5000   -2.5981    0.0000 C   0  0  0  0  0  0  0  0  0  0  0  0
    0.7500   -1.2990    0.0000 C   0  0  0  0  0  0  0  0  0  0  0  0
    1.5000    0.0000    0.0000 C   0  0  0  0  0  0  0  0  0  0  0  0
    0.7500    1.2990    0.0000 C   0  0  0  0  0  0  0  0  0  0  0  0
   -0.7500    1.2990    0.0000 N   0  0  0  0  0  0  0  0  0  0  0  0
   -1.5000    0.0000    0.0000 C   0  0  0  0  0  0  0  0  0  0  0  0
   -2.2500    1.2990    0.0000 C   0  0  0  0  0  0  0  0  0  0  0  0
   -3.7500    1.2990    0.0000 C   0  0  0  0  0  0  0  0  0  0  0  0
   -4.5000   -0.0000    0.0000 N   0  0  0  0  0  0  0  0  0  0  0  0
   -6.0000   -0.0000    0.0000 C   0  0  0  0  0  0  0  0  0  0  0  0
   -6.7500   -1.2990    0.0000 N   0  0  0  0  0  0  0  0  0  0  0  0
   -8.2500   -1.2990    0.0000 C   0  0  0  0  0  0  0  0  0  0  0  0
   -9.0000   -0.0000    0.0000 N   0  0  0  0  0  0  0  0  0  0  0  0
   -8.2500    1.2990    0.0000 C   0  0  0  0  0  0  0  0  0  0  0  0
   -8.7135    2.7256    0.0000 N   0  0  0  0  0  0  0  0  0  0  0  0
   -7.5000    3.6073    0.0000 C   0  0  0  0  0  0  0  0  0  0  0  0
   -6.2865    2.7256    0.0000 N   0  0  0  0  0  0  0  0  0  0  0  0
   -6.7500    1.2990    0.0000 C   0  0  0  0  0  0  0  0  0  0  0  0
   -3.7500   -1.2990    0.0000 C   0  0  0  0  0  0  0  0  0  0  0  0
   -2.2500   -1.2990    0.0000 C   0  0  0  0  0  0  0  0  0  0  0  0
   -0.7500   -1.2990    0.0000 C   0  0  0  0  0  0  0  0  0  0  0  0
    3.0000   -2.5981    0.0000 C   0  0  0  0  0  0  0  0  0  0  0  0
    3.7500   -3.8971    0.0000 C   0  0  0  0  0  0  0  0  0  0  0  0
  1  2  2  0
  2  3  1  0
  3  4  2  0
  4  5  1  0
  5  6  1  0
  6  7  1  0
  7  8  1  0
  8  9  1  0
  9 10  1  0
 10 11  1  0
 11 12  1  0
 12 13  1  0
 13 14  2  0
 14 15  1  0
 15 16  2  0
 16 17  1  0
 17 18  1  0
 18 19  1  0
 19 20  2  0
 20 21  1  0
 12 22  1  0
 22 23  1  0
  9 24  1  0
  4 25  1  0
 25 26  2  0
 26  1  1  0
 24  5  1  0
 23  9  1  0
 21 13  1  0
 21 17  2  0
M  END
>  <Compound_ID>  (578) 
CHEMBL2420899

>  <Molecule Name>  (578) 
nan

>  <Molecular Weight>  (578) 
348.45

>  <AlogP>  (578) 
2.86

>  <Smiles>  (578) 
c1ccc(C2CCNC3(CCN(c4ncnc5[nH]cnc45)CC3)C2)cc1

>  <Standard Type>  (578) 
Inhibition

>  <Standard Relation>  (578) 
'='

>  <Standard Units>  (578) 
%

>  <Standard Value>  (578) 
8.0

>  <Assay ChEMBL ID>  (578) 
CHEMBL2424318

>  <Assay Description>  (578) 
Inhibition of MET (unknown origin) at 30 uM by microfluidic mobility shift assay relative to control

>  <BAO Format ID>  (578) 
BAO_0000357

>  <BAO Label>  (578) 
single protein format

>  <Assay Organism>  (578) 
Homo sapiens

>  <Target ChEMBL ID>  (578) 
CHEMBL3717

>  <Target Name>  (578) 
Hepatocyte growth factor receptor

>  <Target Organism>  (578) 
Homo sapiens

>  <Target Type>  (578) 
SINGLE PROTEIN

>  <Document ChEMBL ID>  (578) 
CHEMBL2417369

>  <Source Description>  (578) 
Scientific Literature

>  <Document Journal>  (578) 
Bioorg Med Chem

>  <Document Year>  (578) 
2013.0

>  <Active>  (578) 
0.0

$$$$

     RDKit          2D

 30 33  0  0  0  0  0  0  0  0999 V2000
    1.8478   -6.4639    0.0000 C   0  0  0  0  0  0  0  0  0  0  0  0
    2.0046   -4.9721    0.0000 C   0  0  0  0  0  0  0  0  0  0  0  0
    3.3037   -4.2221    0.0000 N   0  0  0  0  0  0  0  0  0  0  0  0
    2.9918   -2.7549    0.0000 N   0  0  0  0  0  0  0  0  0  0  0  0
    1.5000   -2.5981    0.0000 C   0  0  0  0  0  0  0  0  0  0  0  0
    0.7500   -1.2990    0.0000 C   0  0  0  0  0  0  0  0  0  0  0  0
    1.5000    0.0000    0.0000 C   0  0  0  0  0  0  0  0  0  0  0  0
    0.7500    1.2990    0.0000 C   0  0  0  0  0  0  0  0  0  0  0  0
   -0.7500    1.2990    0.0000 C   0  0  0  0  0  0  0  0  0  0  0  0
   -1.5000    2.5981    0.0000 C   0  0  0  0  0  0  0  0  0  0  0  0
   -1.5000    0.0000    0.0000 C   0  0  0  0  0  0  0  0  0  0  0  0
   -3.0000    0.0000    0.0000 C   0  0  0  0  0  0  0  0  0  0  0  0
   -3.7500    1.2990    0.0000 C   0  0  0  0  0  0  0  0  0  0  0  0
   -5.2500    1.2990    0.0000 C   0  0  0  0  0  0  0  0  0  0  0  0
   -6.0000    0.0000    0.0000 C   0  0  0  0  0  0  0  0  0  0  0  0
   -7.5000    0.0000    0.0000 C   0  0  0  0  0  0  0  0  0  0  0  0
   -8.2500   -1.2990    0.0000 O   0  0  0  0  0  0  0  0  0  0  0  0
   -8.2500    1.2990    0.0000 N   0  0  0  0  0  0  0  0  0  0  0  0
   -9.7500    1.2990    0.0000 C   0  0  0  0  0  0  0  0  0  0  0  0
  -10.5000    2.5981    0.0000 C   0  0  0  0  0  0  0  0  0  0  0  0
  -12.0000    2.5981    0.0000 C   0  0  0  0  0  0  0  0  0  0  0  0
  -12.7500    1.2990    0.0000 C   0  0  0  0  0  0  0  0  0  0  0  0
  -12.0000    0.0000    0.0000 C   0  0  0  0  0  0  0  0  0  0  0  0
  -12.7500   -1.2990    0.0000 C   0  0  0  0  0  0  0  0  0  0  0  0
  -13.5000   -2.5981    0.0000 N   0  0  0  0  0  0  0  0  0  0  0  0
  -10.5000    0.0000    0.0000 C   0  0  0  0  0  0  0  0  0  0  0  0
   -5.2500   -1.2990    0.0000 C   0  0  0  0  0  0  0  0  0  0  0  0
   -3.7500   -1.2990    0.0000 C   0  0  0  0  0  0  0  0  0  0  0  0
   -0.7500   -1.2990    0.0000 C   0  0  0  0  0  0  0  0  0  0  0  0
    0.8899   -3.9684    0.0000 O   0  0  0  0  0  0  0  0  0  0  0  0
  1  2  1  0
  2  3  2  0
  3  4  1  0
  4  5  2  0
  5  6  1  0
  6  7  2  0
  7  8  1  0
  8  9  2  0
  9 10  1  0
  9 11  1  0
 11 12  1  0
 12 13  2  0
 13 14  1  0
 14 15  2  0
 15 16  1  0
 16 17  2  0
 16 18  1  0
 18 19  1  0
 19 20  2  0
 20 21  1  0
 21 22  2  0
 22 23  1  0
 23 24  1  0
 24 25  3  0
 23 26  2  0
 15 27  1  0
 27 28  2  0
 11 29  2  0
  5 30  1  0
 30  2  1  0
 29  6  1  0
 28 12  1  0
 26 19  1  0
M  END
>  <Compound_ID>  (579) 
CHEMBL270164

>  <Molecule Name>  (579) 
GW607117X

>  <Molecular Weight>  (579) 
394.43

>  <AlogP>  (579) 
5.14

>  <Smiles>  (579) 
Cc1nnc(-c2ccc(C)c(-c3ccc(C(=O)Nc4cccc(C#N)c4)cc3)c2)o1

>  <Standard Type>  (579) 
Inhibition

>  <Standard Relation>  (579) 
'='

>  <Standard Units>  (579) 
%

>  <Standard Value>  (579) 
3.66

>  <Assay ChEMBL ID>  (579) 
CHEMBL1962142

>  <Assay Description>  (579) 
GSK_PKIS: MET mean inhibition at 0.1 uM [Nanosyn]

>  <BAO Format ID>  (579) 
BAO_0000357

>  <BAO Label>  (579) 
single protein format

>  <Assay Organism>  (579) 
None

>  <Target ChEMBL ID>  (579) 
CHEMBL3717

>  <Target Name>  (579) 
Hepatocyte growth factor receptor

>  <Target Organism>  (579) 
Homo sapiens

>  <Target Type>  (579) 
SINGLE PROTEIN

>  <Document ChEMBL ID>  (579) 
CHEMBL1961873

>  <Source Description>  (579) 
GSK Published Kinase Inhibitor Set

>  <Document Journal>  (579) 
nan

>  <Document Year>  (579) 
nan

>  <Active>  (579) 
0.0

$$$$

     RDKit          2D

 25 28  0  0  0  0  0  0  0  0999 V2000
    5.2500   -1.2990    0.0000 C   0  0  0  0  0  0  0  0  0  0  0  0
    3.7500   -1.2990    0.0000 O   0  0  0  0  0  0  0  0  0  0  0  0
    3.0000   -2.5981    0.0000 C   0  0  0  0  0  0  0  0  0  0  0  0
    3.7500   -3.8971    0.0000 C   0  0  0  0  0  0  0  0  0  0  0  0
    3.0000   -5.1962    0.0000 C   0  0  0  0  0  0  0  0  0  0  0  0
    1.5000   -5.1962    0.0000 C   0  0  0  0  0  0  0  0  0  0  0  0
    0.7500   -3.8971    0.0000 C   0  0  0  0  0  0  0  0  0  0  0  0
    1.5000   -2.5981    0.0000 C   0  0  0  0  0  0  0  0  0  0  0  0
    0.7500   -1.2990    0.0000 C   0  0  0  0  0  0  0  0  0  0  0  0
    1.5000    0.0000    0.0000 C   0  0  0  0  0  0  0  0  0  0  0  0
    0.7500    1.2990    0.0000 C   0  0  0  0  0  0  0  0  0  0  0  0
    1.2135    2.7256    0.0000 N   0  0  0  0  0  0  0  0  0  0  0  0
    0.0000    3.6073    0.0000 N   0  0  0  0  0  0  0  0  0  0  0  0
    0.0000    5.1073    0.0000 C   0  0  0  0  0  0  0  0  0  0  0  0
    1.2990    5.8573    0.0000 C   0  0  0  0  0  0  0  0  0  0  0  0
    1.2990    7.3573    0.0000 C   0  0  0  0  0  0  0  0  0  0  0  0
    0.0000    8.1073    0.0000 C   0  0  0  0  0  0  0  0  0  0  0  0
   -1.2990    7.3573    0.0000 C   0  0  0  0  0  0  0  0  0  0  0  0
   -1.2990    5.8573    0.0000 C   0  0  0  0  0  0  0  0  0  0  0  0
   -1.2135    2.7256    0.0000 C   0  0  0  0  0  0  0  0  0  0  0  0
   -2.6401    3.1891    0.0000 N   0  0  0  0  0  0  0  0  0  0  0  0
   -0.7500    1.2990    0.0000 C   0  0  0  0  0  0  0  0  0  0  0  0
   -1.5000    0.0000    0.0000 C   0  0  0  0  0  0  0  0  0  0  0  0
   -3.0000    0.0000    0.0000 O   0  0  0  0  0  0  0  0  0  0  0  0
   -0.7500   -1.2990    0.0000 N   0  0  0  0  0  0  0  0  0  0  0  0
  1  2  1  0
  2  3  1  0
  3  4  2  0
  4  5  1  0
  5  6  2  0
  6  7  1  0
  7  8  2  0
  8  9  1  0
  9 10  2  0
 10 11  1  0
 11 12  2  0
 12 13  1  0
 13 14  1  0
 14 15  2  0
 15 16  1  0
 16 17  2  0
 17 18  1  0
 18 19  2  0
 13 20  1  0
 20 21  1  0
 20 22  2  0
 22 23  1  0
 23 24  2  0
 23 25  1  0
  8  3  1  0
 25  9  1  0
 22 11  1  0
 19 14  1  0
M  END
>  <Compound_ID>  (580) 
CHEMBL1813792

>  <Molecule Name>  (580) 
nan

>  <Molecular Weight>  (580) 
332.36

>  <AlogP>  (580) 
2.97

>  <Smiles>  (580) 
COc1ccccc1-c1cc2nn(-c3ccccc3)c(N)c2c(=O)[nH]1

>  <Standard Type>  (580) 
Inhibition

>  <Standard Relation>  (580) 
'='

>  <Standard Units>  (580) 
%

>  <Standard Value>  (580) 
7.0

>  <Assay ChEMBL ID>  (580) 
CHEMBL1815730

>  <Assay Description>  (580) 
Inhibition of MET at 30 uM by microfluidic mobility shift assay

>  <BAO Format ID>  (580) 
BAO_0000357

>  <BAO Label>  (580) 
single protein format

>  <Assay Organism>  (580) 
None

>  <Target ChEMBL ID>  (580) 
CHEMBL3717

>  <Target Name>  (580) 
Hepatocyte growth factor receptor

>  <Target Organism>  (580) 
Homo sapiens

>  <Target Type>  (580) 
SINGLE PROTEIN

>  <Document ChEMBL ID>  (580) 
CHEMBL1811853

>  <Source Description>  (580) 
Scientific Literature

>  <Document Journal>  (580) 
Bioorg Med Chem

>  <Document Year>  (580) 
2011.0

>  <Active>  (580) 
0.0

$$$$

     RDKit          2D

 12 13  0  0  0  0  0  0  0  0999 V2000
    3.0000    0.0000    0.0000 C   0  0  0  0  0  0  0  0  0  0  0  0
    1.5000    0.0000    0.0000 C   0  0  0  0  0  0  0  0  0  0  0  0
    0.7500   -1.2990    0.0000 C   0  0  0  0  0  0  0  0  0  0  0  0
   -0.7500   -1.2990    0.0000 C   0  0  0  0  0  0  0  0  0  0  0  0
   -1.5000    0.0000    0.0000 C   0  0  0  0  0  0  0  0  0  0  0  0
   -0.7500    1.2990    0.0000 C   0  0  0  0  0  0  0  0  0  0  0  0
    0.7500    1.2990    0.0000 N   0  0  0  0  0  0  0  0  0  0  0  0
   -2.9672   -0.3119    0.0000 C   0  0  0  0  0  0  0  0  0  0  0  0
   -4.0819    0.6918    0.0000 N   0  0  0  0  0  0  0  0  0  0  0  0
   -3.1240   -1.8037    0.0000 N   0  0  0  0  0  0  0  0  0  0  0  0
   -1.7537   -2.4138    0.0000 N   0  0  0  0  0  0  0  0  0  0  0  0
   -1.4418   -3.8810    0.0000 C   0  0  0  0  0  0  0  0  0  0  0  0
  1  2  1  0
  2  3  2  0
  3  4  1  0
  4  5  2  0
  5  6  1  0
  6  7  2  0
  5  8  1  0
  8  9  1  0
  8 10  2  0
 10 11  1  0
 11 12  1  0
  7  2  1  0
 11  4  1  0
M  END
>  <Compound_ID>  (581) 
CHEMBL1813801

>  <Molecule Name>  (581) 
nan

>  <Molecular Weight>  (581) 
162.20

>  <AlogP>  (581) 
0.86

>  <Smiles>  (581) 
Cc1cc2c(cn1)c(N)nn2C

>  <Standard Type>  (581) 
Inhibition

>  <Standard Relation>  (581) 
'='

>  <Standard Units>  (581) 
%

>  <Standard Value>  (581) 
-1.0

>  <Assay ChEMBL ID>  (581) 
CHEMBL1815730

>  <Assay Description>  (581) 
Inhibition of MET at 30 uM by microfluidic mobility shift assay

>  <BAO Format ID>  (581) 
BAO_0000357

>  <BAO Label>  (581) 
single protein format

>  <Assay Organism>  (581) 
None

>  <Target ChEMBL ID>  (581) 
CHEMBL3717

>  <Target Name>  (581) 
Hepatocyte growth factor receptor

>  <Target Organism>  (581) 
Homo sapiens

>  <Target Type>  (581) 
SINGLE PROTEIN

>  <Document ChEMBL ID>  (581) 
CHEMBL1811853

>  <Source Description>  (581) 
Scientific Literature

>  <Document Journal>  (581) 
Bioorg Med Chem

>  <Document Year>  (581) 
2011.0

>  <Active>  (581) 
0.0

$$$$

     RDKit          2D

 25 28  0  0  0  0  0  0  0  0999 V2000
    3.7500   -3.8971    0.0000 C   0  0  0  0  0  0  0  0  0  0  0  0
    3.0000   -2.5981    0.0000 C   0  0  0  0  0  0  0  0  0  0  0  0
    1.5000   -2.5981    0.0000 N   0  0  0  0  0  0  0  0  0  0  0  0
    0.7500   -1.2990    0.0000 C   0  0  0  0  0  0  0  0  0  0  0  0
    1.5000    0.0000    0.0000 C   0  0  0  0  0  0  0  0  0  0  0  0
    0.7500    1.2990    0.0000 C   0  0  0  0  0  0  0  0  0  0  0  0
    1.5000    2.5981    0.0000 N   0  0  0  0  0  0  0  0  0  0  0  0
    2.9918    2.7549    0.0000 C   0  0  0  0  0  0  0  0  0  0  0  0
    3.9955    1.6402    0.0000 O   0  0  0  0  0  0  0  0  0  0  0  0
    3.3037    4.2221    0.0000 N   0  0  0  0  0  0  0  0  0  0  0  0
    2.0046    4.9721    0.0000 C   0  0  0  0  0  0  0  0  0  0  0  0
    1.6927    6.4393    0.0000 N   0  0  0  0  0  0  0  0  0  0  0  0
    0.2662    6.9028    0.0000 C   0  0  0  0  0  0  0  0  0  0  0  0
   -0.8486    5.8991    0.0000 C   0  0  0  0  0  0  0  0  0  0  0  0
   -0.5367    4.4319    0.0000 C   0  0  0  0  0  0  0  0  0  0  0  0
    0.8899    3.9684    0.0000 C   0  0  0  0  0  0  0  0  0  0  0  0
   -0.7500    1.2990    0.0000 C   0  0  0  0  0  0  0  0  0  0  0  0
   -1.5000    0.0000    0.0000 C   0  0  0  0  0  0  0  0  0  0  0  0
   -0.7500   -1.2990    0.0000 C   0  0  0  0  0  0  0  0  0  0  0  0
   -1.5000   -2.5981    0.0000 C   0  0  0  0  0  0  0  0  0  0  0  0
   -3.0000   -2.5981    0.0000 O   0  0  0  0  0  0  0  0  0  0  0  0
   -0.7500   -3.8971    0.0000 N   0  0  0  0  0  0  0  0  0  0  0  0
    0.7500   -3.8971    0.0000 C   0  0  0  0  0  0  0  0  0  0  0  0
    0.4895   -5.3743    0.0000 C   0  0  0  0  0  0  0  0  0  0  0  0
    2.1595   -4.4101    0.0000 C   0  0  0  0  0  0  0  0  0  0  0  0
  1  2  1  0
  2  3  1  0
  3  4  1  0
  4  5  2  0
  5  6  1  0
  6  7  1  0
  7  8  1  0
  8  9  2  0
  8 10  1  0
 10 11  1  0
 11 12  2  0
 12 13  1  0
 13 14  2  0
 14 15  1  0
 15 16  2  0
  6 17  2  0
 17 18  1  0
 18 19  2  0
 19 20  1  0
 20 21  2  0
 20 22  1  0
 22 23  1  0
 23 24  1  0
 23 25  1  0
 23  3  1  0
 19  4  1  0
 16  7  1  0
 16 11  1  0
M  END
>  <Compound_ID>  (582) 
CHEMBL3798933

>  <Molecule Name>  (582) 
nan

>  <Molecular Weight>  (582) 
337.38

>  <AlogP>  (582) 
2.02

>  <Smiles>  (582) 
CCN1c2cc(-n3c(=O)[nH]c4ncccc43)ccc2C(=O)NC1(C)C

>  <Standard Type>  (582) 
Inhibition

>  <Standard Relation>  (582) 
'='

>  <Standard Units>  (582) 
%

>  <Standard Value>  (582) 
7.0

>  <Assay ChEMBL ID>  (582) 
CHEMBL3802865

>  <Assay Description>  (582) 
Inhibition of N-terminal His6-tagged recombinant human c-Met preincubated for 5 mins at 1 uM measured after 10 mins in presence of ATP by AlphaScreen assay

>  <BAO Format ID>  (582) 
BAO_0000357

>  <BAO Label>  (582) 
single protein format

>  <Assay Organism>  (582) 
Homo sapiens

>  <Target ChEMBL ID>  (582) 
CHEMBL3717

>  <Target Name>  (582) 
Hepatocyte growth factor receptor

>  <Target Organism>  (582) 
Homo sapiens

>  <Target Type>  (582) 
SINGLE PROTEIN

>  <Document ChEMBL ID>  (582) 
CHEMBL3797131

>  <Source Description>  (582) 
Scientific Literature

>  <Document Journal>  (582) 
Bioorg Med Chem

>  <Document Year>  (582) 
2016.0

>  <Active>  (582) 
0.0

$$$$

     RDKit          2D

 33 36  0  0  0  0  0  0  0  0999 V2000
   -9.5939  -10.9121    0.0000 C   0  0  0  0  0  0  0  0  0  0  0  0
   -8.1673  -10.4486    0.0000 N   0  0  0  0  0  0  0  0  0  0  0  0
   -7.0526  -11.4523    0.0000 C   0  0  0  0  0  0  0  0  0  0  0  0
   -7.8555   -8.9814    0.0000 C   0  0  0  0  0  0  0  0  0  0  0  0
   -6.4289   -8.5179    0.0000 C   0  0  0  0  0  0  0  0  0  0  0  0
   -6.1170   -7.0506    0.0000 C   0  0  0  0  0  0  0  0  0  0  0  0
   -4.6904   -6.5871    0.0000 N   0  0  0  0  0  0  0  0  0  0  0  0
   -4.3786   -5.1199    0.0000 C   0  0  0  0  0  0  0  0  0  0  0  0
   -5.4933   -4.1162    0.0000 N   0  0  0  0  0  0  0  0  0  0  0  0
   -5.1814   -2.6490    0.0000 C   0  0  0  0  0  0  0  0  0  0  0  0
   -3.7548   -2.1855    0.0000 C   0  0  0  0  0  0  0  0  0  0  0  0
   -2.6401   -3.1891    0.0000 C   0  0  0  0  0  0  0  0  0  0  0  0
   -1.2135   -2.7256    0.0000 C   0  0  0  0  0  0  0  0  0  0  0  0
   -0.0000   -3.6073    0.0000 C   0  0  0  0  0  0  0  0  0  0  0  0
   -0.0000   -5.1073    0.0000 C   0  0  0  0  0  0  0  0  0  0  0  0
   -1.2990   -5.8573    0.0000 C   0  0  0  0  0  0  0  0  0  0  0  0
   -1.2990   -7.3573    0.0000 C   0  0  0  0  0  0  0  0  0  0  0  0
   -0.0000   -8.1073    0.0000 C   0  0  0  0  0  0  0  0  0  0  0  0
    0.0000   -9.6073    0.0000 F   0  0  0  0  0  0  0  0  0  0  0  0
    1.2990   -7.3573    0.0000 C   0  0  0  0  0  0  0  0  0  0  0  0
    1.2990   -5.8573    0.0000 C   0  0  0  0  0  0  0  0  0  0  0  0
    1.2135   -2.7256    0.0000 N   0  0  0  0  0  0  0  0  0  0  0  0
    0.7500   -1.2990    0.0000 N   0  0  0  0  0  0  0  0  0  0  0  0
    1.5000    0.0000    0.0000 C   0  0  0  0  0  0  0  0  0  0  0  0
    0.7500    1.2990    0.0000 C   0  0  0  0  0  0  0  0  0  0  0  0
    1.5000    2.5981    0.0000 C   0  0  0  0  0  0  0  0  0  0  0  0
    2.2500    3.8971    0.0000 F   0  0  0  0  0  0  0  0  0  0  0  0
    2.7990    1.8481    0.0000 F   0  0  0  0  0  0  0  0  0  0  0  0
    0.2010    3.3481    0.0000 F   0  0  0  0  0  0  0  0  0  0  0  0
   -0.7500    1.2990    0.0000 C   0  0  0  0  0  0  0  0  0  0  0  0
   -1.5000    0.0000    0.0000 C   0  0  0  0  0  0  0  0  0  0  0  0
   -0.7500   -1.2990    0.0000 C   0  0  0  0  0  0  0  0  0  0  0  0
   -2.9520   -4.6564    0.0000 N   0  0  0  0  0  0  0  0  0  0  0  0
  1  2  1  0
  2  3  1  0
  2  4  1  0
  4  5  1  0
  5  6  1  0
  6  7  1  0
  7  8  1  0
  8  9  2  0
  9 10  1  0
 10 11  2  0
 11 12  1  0
 12 13  1  0
 13 14  1  0
 14 15  1  0
 15 16  2  0
 16 17  1  0
 17 18  2  0
 18 19  1  0
 18 20  1  0
 20 21  2  0
 14 22  2  0
 22 23  1  0
 23 24  1  0
 24 25  2  0
 25 26  1  0
 26 27  1  0
 26 28  1  0
 26 29  1  0
 25 30  1  0
 30 31  2  0
 31 32  1  0
 12 33  2  0
 33  8  1  0
 32 13  2  0
 21 15  1  0
 32 23  1  0
M  END
>  <Compound_ID>  (583) 
CHEMBL1909405

>  <Molecule Name>  (583) 
GW618013A

>  <Molecular Weight>  (583) 
554.57

>  <AlogP>  (583) 
4.98

>  <Smiles>  (583) 
CN(C)CCCNc1nccc(-c2c(-c3ccc(F)cc3)nn3cc(C(F)(F)F)ccc23)n1

>  <Standard Type>  (583) 
Inhibition

>  <Standard Relation>  (583) 
'='

>  <Standard Units>  (583) 
%

>  <Standard Value>  (583) 
3.45

>  <Assay ChEMBL ID>  (583) 
CHEMBL1962142

>  <Assay Description>  (583) 
GSK_PKIS: MET mean inhibition at 0.1 uM [Nanosyn]

>  <BAO Format ID>  (583) 
BAO_0000357

>  <BAO Label>  (583) 
single protein format

>  <Assay Organism>  (583) 
None

>  <Target ChEMBL ID>  (583) 
CHEMBL3717

>  <Target Name>  (583) 
Hepatocyte growth factor receptor

>  <Target Organism>  (583) 
Homo sapiens

>  <Target Type>  (583) 
SINGLE PROTEIN

>  <Document ChEMBL ID>  (583) 
CHEMBL1961873

>  <Source Description>  (583) 
GSK Published Kinase Inhibitor Set

>  <Document Journal>  (583) 
nan

>  <Document Year>  (583) 
nan

>  <Active>  (583) 
0.0

$$$$

     RDKit          2D

 24 27  0  0  0  0  0  0  0  0999 V2000
    4.2990   -4.4462    0.0000 O   0  0  0  0  0  0  0  0  0  0  0  0
    3.0000   -5.1962    0.0000 S   0  0  0  0  0  0  0  0  0  0  0  0
    1.7010   -5.9462    0.0000 O   0  0  0  0  0  0  0  0  0  0  0  0
    3.7500   -6.4952    0.0000 C   0  0  0  0  0  0  0  0  0  0  0  0
    3.0000   -7.7942    0.0000 C   0  0  0  0  0  0  0  0  0  0  0  0
    3.7500   -9.0933    0.0000 C   0  0  0  0  0  0  0  0  0  0  0  0
    5.2500   -9.0933    0.0000 C   0  0  0  0  0  0  0  0  0  0  0  0
    6.0000   -7.7942    0.0000 C   0  0  0  0  0  0  0  0  0  0  0  0
    7.5000   -7.7942    0.0000 C   0  0  0  0  0  0  0  0  0  0  0  0
    8.2500   -6.4952    0.0000 N   0  0  0  0  0  0  0  0  0  0  0  0
    7.5000   -5.1962    0.0000 C   0  0  0  0  0  0  0  0  0  0  0  0
    6.0000   -5.1962    0.0000 C   0  0  0  0  0  0  0  0  0  0  0  0
    5.2500   -6.4952    0.0000 C   0  0  0  0  0  0  0  0  0  0  0  0
    2.2500   -3.8971    0.0000 N   0  0  0  0  0  0  0  0  0  0  0  0
    3.0000   -2.5981    0.0000 C   0  0  0  0  0  0  0  0  0  0  0  0
    2.2500   -1.2990    0.0000 C   0  0  0  0  0  0  0  0  0  0  0  0
    0.7500   -1.2990    0.0000 C   0  0  0  0  0  0  0  0  0  0  0  0
    1.5000    0.0000    0.0000 C   0  0  0  0  0  0  0  0  0  0  0  0
    0.7500    1.2990    0.0000 C   0  0  0  0  0  0  0  0  0  0  0  0
   -0.7500    1.2990    0.0000 C   0  0  0  0  0  0  0  0  0  0  0  0
   -1.5000    0.0000    0.0000 C   0  0  0  0  0  0  0  0  0  0  0  0
   -0.7500   -1.2990    0.0000 N   0  0  0  0  0  0  0  0  0  0  0  0
   -0.0000   -2.5981    0.0000 C   0  0  0  0  0  0  0  0  0  0  0  0
    0.7500   -3.8971    0.0000 C   0  0  0  0  0  0  0  0  0  0  0  0
  1  2  2  0
  2  3  2  0
  2  4  1  0
  4  5  2  0
  5  6  1  0
  6  7  2  0
  7  8  1  0
  8  9  2  0
  9 10  1  0
 10 11  2  0
 11 12  1  0
 12 13  2  0
  2 14  1  0
 14 15  1  0
 15 16  1  0
 16 17  1  0
 17 18  1  0
 18 19  1  0
 19 20  1  0
 20 21  1  0
 21 22  1  0
 17 23  1  0
 23 24  1  0
 13  4  1  0
 24 14  1  0
 13  8  1  0
 22 17  1  0
M  END
>  <Compound_ID>  (584) 
CHEMBL2420917

>  <Molecule Name>  (584) 
nan

>  <Molecular Weight>  (584) 
345.47

>  <AlogP>  (584) 
2.53

>  <Smiles>  (584) 
O=S(=O)(c1cccc2cnccc12)N1CCC2(CCCCN2)CC1

>  <Standard Type>  (584) 
Inhibition

>  <Standard Relation>  (584) 
'='

>  <Standard Units>  (584) 
%

>  <Standard Value>  (584) 
3.0

>  <Assay ChEMBL ID>  (584) 
CHEMBL2424318

>  <Assay Description>  (584) 
Inhibition of MET (unknown origin) at 30 uM by microfluidic mobility shift assay relative to control

>  <BAO Format ID>  (584) 
BAO_0000357

>  <BAO Label>  (584) 
single protein format

>  <Assay Organism>  (584) 
Homo sapiens

>  <Target ChEMBL ID>  (584) 
CHEMBL3717

>  <Target Name>  (584) 
Hepatocyte growth factor receptor

>  <Target Organism>  (584) 
Homo sapiens

>  <Target Type>  (584) 
SINGLE PROTEIN

>  <Document ChEMBL ID>  (584) 
CHEMBL2417369

>  <Source Description>  (584) 
Scientific Literature

>  <Document Journal>  (584) 
Bioorg Med Chem

>  <Document Year>  (584) 
2013.0

>  <Active>  (584) 
0.0

$$$$

     RDKit          2D

 20 23  0  0  0  0  0  0  0  0999 V2000
    3.0000   -7.7942    0.0000 C   0  0  0  0  0  0  0  0  0  0  0  0
    2.2500   -6.4952    0.0000 N   0  0  0  0  0  0  0  0  0  0  0  0
    3.0000   -5.1962    0.0000 C   0  0  0  0  0  0  0  0  0  0  0  0
    2.2500   -3.8971    0.0000 N   0  0  0  0  0  0  0  0  0  0  0  0
    3.0000   -2.5981    0.0000 C   0  0  0  0  0  0  0  0  0  0  0  0
    2.2500   -1.2990    0.0000 C   0  0  0  0  0  0  0  0  0  0  0  0
    0.7500   -1.2990    0.0000 C   0  0  0  0  0  0  0  0  0  0  0  0
    1.5000    0.0000    0.0000 C   0  0  0  0  0  0  0  0  0  0  0  0
    0.7500    1.2990    0.0000 C   0  0  0  0  0  0  0  0  0  0  0  0
   -0.7500    1.2990    0.0000 C   0  0  0  0  0  0  0  0  0  0  0  0
   -1.5000    0.0000    0.0000 C   0  0  0  0  0  0  0  0  0  0  0  0
   -0.7500   -1.2990    0.0000 N   0  0  0  0  0  0  0  0  0  0  0  0
   -0.0000   -2.5981    0.0000 C   0  0  0  0  0  0  0  0  0  0  0  0
    0.7500   -3.8971    0.0000 C   0  0  0  0  0  0  0  0  0  0  0  0
    4.5000   -5.1962    0.0000 C   0  0  0  0  0  0  0  0  0  0  0  0
    5.5037   -4.0814    0.0000 N   0  0  0  0  0  0  0  0  0  0  0  0
    6.8740   -4.6915    0.0000 C   0  0  0  0  0  0  0  0  0  0  0  0
    6.7172   -6.1833    0.0000 N   0  0  0  0  0  0  0  0  0  0  0  0
    5.2500   -6.4952    0.0000 C   0  0  0  0  0  0  0  0  0  0  0  0
    4.5000   -7.7942    0.0000 N   0  0  0  0  0  0  0  0  0  0  0  0
  1  2  2  0
  2  3  1  0
  3  4  1  0
  4  5  1  0
  5  6  1  0
  6  7  1  0
  7  8  1  0
  8  9  1  0
  9 10  1  0
 10 11  1  0
 11 12  1  0
  7 13  1  0
 13 14  1  0
  3 15  2  0
 15 16  1  0
 16 17  2  0
 17 18  1  0
 18 19  1  0
 19 20  2  0
 20  1  1  0
 14  4  1  0
 19 15  1  0
 12  7  1  0
M  END
>  <Compound_ID>  (585) 
CHEMBL2420909

>  <Molecule Name>  (585) 
nan

>  <Molecular Weight>  (585) 
272.36

>  <AlogP>  (585) 
1.47

>  <Smiles>  (585) 
c1nc(N2CCC3(CCCCN3)CC2)c2nc[nH]c2n1

>  <Standard Type>  (585) 
Inhibition

>  <Standard Relation>  (585) 
'='

>  <Standard Units>  (585) 
%

>  <Standard Value>  (585) 
7.0

>  <Assay ChEMBL ID>  (585) 
CHEMBL2424318

>  <Assay Description>  (585) 
Inhibition of MET (unknown origin) at 30 uM by microfluidic mobility shift assay relative to control

>  <BAO Format ID>  (585) 
BAO_0000357

>  <BAO Label>  (585) 
single protein format

>  <Assay Organism>  (585) 
Homo sapiens

>  <Target ChEMBL ID>  (585) 
CHEMBL3717

>  <Target Name>  (585) 
Hepatocyte growth factor receptor

>  <Target Organism>  (585) 
Homo sapiens

>  <Target Type>  (585) 
SINGLE PROTEIN

>  <Document ChEMBL ID>  (585) 
CHEMBL2417369

>  <Source Description>  (585) 
Scientific Literature

>  <Document Journal>  (585) 
Bioorg Med Chem

>  <Document Year>  (585) 
2013.0

>  <Active>  (585) 
0.0

$$$$

     RDKit          2D

 23 25  0  0  0  0  0  0  0  0999 V2000
    4.5000    0.0000    0.0000 N   0  0  0  0  0  0  0  0  0  0  0  0
    3.0000    0.0000    0.0000 S   0  0  0  0  0  0  0  0  0  0  0  0
    3.0000   -1.5000    0.0000 O   0  0  0  0  0  0  0  0  0  0  0  0
    3.0000    1.5000    0.0000 O   0  0  0  0  0  0  0  0  0  0  0  0
    1.5000    0.0000    0.0000 C   0  0  0  0  0  0  0  0  0  0  0  0
    0.7500   -1.2990    0.0000 C   0  0  0  0  0  0  0  0  0  0  0  0
   -0.7500   -1.2990    0.0000 C   0  0  0  0  0  0  0  0  0  0  0  0
   -1.5000    0.0000    0.0000 C   0  0  0  0  0  0  0  0  0  0  0  0
   -3.0000    0.0000    0.0000 N   0  0  0  0  0  0  0  0  0  0  0  0
   -3.7500    1.2990    0.0000 C   0  0  0  0  0  0  0  0  0  0  0  0
   -5.2418    1.4558    0.0000 C   0  0  0  0  0  0  0  0  0  0  0  0
   -5.5537    2.9231    0.0000 C   0  0  0  0  0  0  0  0  0  0  0  0
   -6.9240    3.5332    0.0000 C   0  0  0  0  0  0  0  0  0  0  0  0
   -7.0808    5.0249    0.0000 C   0  0  0  0  0  0  0  0  0  0  0  0
   -8.4511    5.6350    0.0000 C   0  0  0  0  0  0  0  0  0  0  0  0
   -9.6646    4.7534    0.0000 C   0  0  0  0  0  0  0  0  0  0  0  0
   -9.5078    3.2616    0.0000 C   0  0  0  0  0  0  0  0  0  0  0  0
  -10.7213    2.3799    0.0000 O   0  0  0  0  0  0  0  0  0  0  0  0
   -8.1375    2.6515    0.0000 C   0  0  0  0  0  0  0  0  0  0  0  0
   -4.2546    3.6731    0.0000 N   0  0  0  0  0  0  0  0  0  0  0  0
   -3.1399    2.6694    0.0000 N   0  0  0  0  0  0  0  0  0  0  0  0
   -0.7500    1.2990    0.0000 C   0  0  0  0  0  0  0  0  0  0  0  0
    0.7500    1.2990    0.0000 C   0  0  0  0  0  0  0  0  0  0  0  0
  1  2  1  0
  2  3  2  0
  2  4  2  0
  2  5  1  0
  5  6  2  0
  6  7  1  0
  7  8  2  0
  8  9  1  0
  9 10  1  0
 10 11  2  0
 11 12  1  0
 12 13  1  0
 13 14  2  0
 14 15  1  0
 15 16  2  0
 16 17  1  0
 17 18  1  0
 17 19  2  0
 12 20  2  0
 20 21  1  0
  8 22  1  0
 22 23  2  0
 23  5  1  0
 21 10  1  0
 19 13  1  0
M  END
>  <Compound_ID>  (586) 
CHEMBL103104

>  <Molecule Name>  (586) 
GW831090X

>  <Molecular Weight>  (586) 
330.37

>  <AlogP>  (586) 
2.17

>  <Smiles>  (586) 
NS(=O)(=O)c1ccc(Nc2cc(-c3cccc(O)c3)n[nH]2)cc1

>  <Standard Type>  (586) 
Inhibition

>  <Standard Relation>  (586) 
'='

>  <Standard Units>  (586) 
%

>  <Standard Value>  (586) 
2.36

>  <Assay ChEMBL ID>  (586) 
CHEMBL1962143

>  <Assay Description>  (586) 
GSK_PKIS: MET mean inhibition at 1 uM [Nanosyn]

>  <BAO Format ID>  (586) 
BAO_0000357

>  <BAO Label>  (586) 
single protein format

>  <Assay Organism>  (586) 
None

>  <Target ChEMBL ID>  (586) 
CHEMBL3717

>  <Target Name>  (586) 
Hepatocyte growth factor receptor

>  <Target Organism>  (586) 
Homo sapiens

>  <Target Type>  (586) 
SINGLE PROTEIN

>  <Document ChEMBL ID>  (586) 
CHEMBL1961873

>  <Source Description>  (586) 
GSK Published Kinase Inhibitor Set

>  <Document Journal>  (586) 
nan

>  <Document Year>  (586) 
nan

>  <Active>  (586) 
0.0

$$$$

     RDKit          2D

 26 29  0  0  0  0  0  0  0  0999 V2000
   -4.6904   -6.5871    0.0000 C   0  0  0  0  0  0  0  0  0  0  0  0
   -4.3786   -5.1199    0.0000 O   0  0  0  0  0  0  0  0  0  0  0  0
   -2.9520   -4.6564    0.0000 C   0  0  0  0  0  0  0  0  0  0  0  0
   -1.8373   -5.6601    0.0000 O   0  0  0  0  0  0  0  0  0  0  0  0
   -2.6401   -3.1891    0.0000 N   0  0  0  0  0  0  0  0  0  0  0  0
   -1.2135   -2.7256    0.0000 C   0  0  0  0  0  0  0  0  0  0  0  0
   -0.0000   -3.6073    0.0000 N   0  0  0  0  0  0  0  0  0  0  0  0
    1.2135   -2.7256    0.0000 O   0  0  0  0  0  0  0  0  0  0  0  0
    0.7500   -1.2990    0.0000 C   0  0  0  0  0  0  0  0  0  0  0  0
    1.5000    0.0000    0.0000 C   0  0  0  0  0  0  0  0  0  0  0  0
    0.7500    1.2990    0.0000 C   0  0  0  0  0  0  0  0  0  0  0  0
    1.5000    2.5981    0.0000 C   0  0  0  0  0  0  0  0  0  0  0  0
    0.8899    3.9684    0.0000 C   0  0  0  0  0  0  0  0  0  0  0  0
   -0.5773    4.2803    0.0000 C   0  0  0  0  0  0  0  0  0  0  0  0
   -1.0409    5.7068    0.0000 C   0  0  0  0  0  0  0  0  0  0  0  0
   -2.5081    6.0187    0.0000 C   0  0  0  0  0  0  0  0  0  0  0  0
   -3.5118    4.9040    0.0000 C   0  0  0  0  0  0  0  0  0  0  0  0
   -3.0482    3.4774    0.0000 C   0  0  0  0  0  0  0  0  0  0  0  0
   -1.5810    3.1655    0.0000 N   0  0  0  0  0  0  0  0  0  0  0  0
    2.0046    4.9721    0.0000 N   0  0  0  0  0  0  0  0  0  0  0  0
    3.3037    4.2221    0.0000 N   0  0  0  0  0  0  0  0  0  0  0  0
    2.9918    2.7549    0.0000 C   0  0  0  0  0  0  0  0  0  0  0  0
    3.9955    1.6402    0.0000 C   0  0  0  0  0  0  0  0  0  0  0  0
   -0.7500    1.2990    0.0000 C   0  0  0  0  0  0  0  0  0  0  0  0
   -1.5000    0.0000    0.0000 C   0  0  0  0  0  0  0  0  0  0  0  0
   -0.7500   -1.2990    0.0000 C   0  0  0  0  0  0  0  0  0  0  0  0
  1  2  1  0
  2  3  1  0
  3  4  2  0
  3  5  1  0
  5  6  1  0
  6  7  2  0
  7  8  1  0
  8  9  1  0
  9 10  2  0
 10 11  1  0
 11 12  1  0
 12 13  1  0
 13 14  1  0
 14 15  2  0
 15 16  1  0
 16 17  2  0
 17 18  1  0
 18 19  2  0
 13 20  2  0
 20 21  1  0
 21 22  1  0
 22 23  1  0
 11 24  2  0
 24 25  1  0
 25 26  2  0
 26  6  1  0
 26  9  1  0
 22 12  2  0
 19 14  1  0
M  END
>  <Compound_ID>  (587) 
CHEMBL4066592

>  <Molecule Name>  (587) 
nan

>  <Molecular Weight>  (587) 
349.35

>  <AlogP>  (587) 
3.77

>  <Smiles>  (587) 
COC(=O)Nc1noc2cc(-c3c(-c4ccccn4)n[nH]c3C)ccc12

>  <Standard Type>  (587) 
Inhibition

>  <Standard Relation>  (587) 
'='

>  <Standard Units>  (587) 
%

>  <Standard Value>  (587) 
1.0

>  <Assay ChEMBL ID>  (587) 
CHEMBL4057661

>  <Assay Description>  (587) 
Inhibition of MET (unknown origin) at 0.078 uM relative to control

>  <BAO Format ID>  (587) 
BAO_0000357

>  <BAO Label>  (587) 
single protein format

>  <Assay Organism>  (587) 
Homo sapiens

>  <Target ChEMBL ID>  (587) 
CHEMBL3717

>  <Target Name>  (587) 
Hepatocyte growth factor receptor

>  <Target Organism>  (587) 
Homo sapiens

>  <Target Type>  (587) 
SINGLE PROTEIN

>  <Document ChEMBL ID>  (587) 
CHEMBL4052759

>  <Source Description>  (587) 
Scientific Literature

>  <Document Journal>  (587) 
Bioorg Med Chem Lett

>  <Document Year>  (587) 
2017.0

>  <Active>  (587) 
0.0

$$$$

     RDKit          2D

 23 26  0  0  0  0  0  0  0  0999 V2000
   -7.2296    2.8340    0.0000 C   0  0  0  0  0  0  0  0  0  0  0  0
   -6.1149    1.8303    0.0000 O   0  0  0  0  0  0  0  0  0  0  0  0
   -4.6883    2.2939    0.0000 C   0  0  0  0  0  0  0  0  0  0  0  0
   -4.3764    3.7611    0.0000 O   0  0  0  0  0  0  0  0  0  0  0  0
   -3.5736    1.2902    0.0000 N   0  0  0  0  0  0  0  0  0  0  0  0
   -2.1470    1.7537    0.0000 C   0  0  0  0  0  0  0  0  0  0  0  0
   -1.8351    3.2209    0.0000 C   0  0  0  0  0  0  0  0  0  0  0  0
   -0.4086    3.6844    0.0000 C   0  0  0  0  0  0  0  0  0  0  0  0
   -0.0967    5.1517    0.0000 C   0  0  0  0  0  0  0  0  0  0  0  0
   -1.1004    6.2664    0.0000 C   0  0  0  0  0  0  0  0  0  0  0  0
   -2.5922    6.1096    0.0000 C   0  0  0  0  0  0  0  0  0  0  0  0
   -3.8057    5.2279    0.0000 C   0  0  0  0  0  0  0  0  0  0  0  0
   -3.9625    6.7197    0.0000 C   0  0  0  0  0  0  0  0  0  0  0  0
   -0.3504    7.5654    0.0000 N   0  0  0  0  0  0  0  0  0  0  0  0
    1.1168    7.2536    0.0000 N   0  0  0  0  0  0  0  0  0  0  0  0
    1.2736    5.7618    0.0000 C   0  0  0  0  0  0  0  0  0  0  0  0
    2.5727    5.0118    0.0000 C   0  0  0  0  0  0  0  0  0  0  0  0
    0.7062    2.6807    0.0000 C   0  0  0  0  0  0  0  0  0  0  0  0
    0.3943    1.2135    0.0000 C   0  0  0  0  0  0  0  0  0  0  0  0
    1.2760    0.0000    0.0000 N   0  0  0  0  0  0  0  0  0  0  0  0
    0.3943   -1.2135    0.0000 N   0  0  0  0  0  0  0  0  0  0  0  0
   -1.0323   -0.7500    0.0000 C   0  0  0  0  0  0  0  0  0  0  0  0
   -1.0323    0.7500    0.0000 C   0  0  0  0  0  0  0  0  0  0  0  0
  1  2  1  0
  2  3  1  0
  3  4  2  0
  3  5  1  0
  5  6  1  0
  6  7  2  0
  7  8  1  0
  8  9  1  0
  9 10  1  0
 10 11  1  0
 11 12  1  0
 12 13  1  0
 10 14  2  0
 14 15  1  0
 15 16  1  0
 16 17  1  0
  8 18  2  0
 18 19  1  0
 19 20  1  0
 20 21  1  0
 21 22  2  0
 22 23  1  0
 23  6  1  0
 16  9  2  0
 23 19  2  0
 13 11  1  0
M  END
>  <Compound_ID>  (588) 
CHEMBL4129737

>  <Molecule Name>  (588) 
nan

>  <Molecular Weight>  (588) 
311.35

>  <AlogP>  (588) 
3.32

>  <Smiles>  (588) 
COC(=O)Nc1cc(-c2c(C3CC3)n[nH]c2C)cc2[nH]ncc12

>  <Standard Type>  (588) 
Inhibition

>  <Standard Relation>  (588) 
'='

>  <Standard Units>  (588) 
%

>  <Standard Value>  (588) 
0.0

>  <Assay ChEMBL ID>  (588) 
CHEMBL4120691

>  <Assay Description>  (588) 
Inhibition of MET (unknown origin) at 0.164 uM relative to control

>  <BAO Format ID>  (588) 
BAO_0000357

>  <BAO Label>  (588) 
single protein format

>  <Assay Organism>  (588) 
Homo sapiens

>  <Target ChEMBL ID>  (588) 
CHEMBL3717

>  <Target Name>  (588) 
Hepatocyte growth factor receptor

>  <Target Organism>  (588) 
Homo sapiens

>  <Target Type>  (588) 
SINGLE PROTEIN

>  <Document ChEMBL ID>  (588) 
CHEMBL4118098

>  <Source Description>  (588) 
Scientific Literature

>  <Document Journal>  (588) 
Bioorg Med Chem Lett

>  <Document Year>  (588) 
2017.0

>  <Active>  (588) 
0.0

$$$$

     RDKit          2D

 34 37  0  0  0  0  0  0  0  0999 V2000
   -2.9520   -4.6564    0.0000 C   0  0  0  0  0  0  0  0  0  0  0  0
   -2.6401   -3.1891    0.0000 C   0  0  0  0  0  0  0  0  0  0  0  0
   -3.7548   -2.1855    0.0000 C   0  0  0  0  0  0  0  0  0  0  0  0
   -1.2135   -2.7256    0.0000 N   0  0  0  0  0  0  0  0  0  0  0  0
   -0.0000   -3.6073    0.0000 N   0  0  0  0  0  0  0  0  0  0  0  0
    1.2135   -2.7256    0.0000 C   0  0  0  0  0  0  0  0  0  0  0  0
    2.6401   -3.1891    0.0000 C   0  0  0  0  0  0  0  0  0  0  0  0
    4.0667   -3.6527    0.0000 C   0  0  0  0  0  0  0  0  0  0  0  0
    5.4933   -4.1162    0.0000 C   0  0  0  0  0  0  0  0  0  0  0  0
    5.8051   -5.5834    0.0000 C   0  0  0  0  0  0  0  0  0  0  0  0
    7.2317   -6.0469    0.0000 C   0  0  0  0  0  0  0  0  0  0  0  0
    8.3464   -5.0433    0.0000 C   0  0  0  0  0  0  0  0  0  0  0  0
    8.0346   -3.5760    0.0000 C   0  0  0  0  0  0  0  0  0  0  0  0
    9.1493   -2.5723    0.0000 N   0  0  0  0  0  0  0  0  0  0  0  0
   10.5759   -3.0359    0.0000 C   0  0  0  0  0  0  0  0  0  0  0  0
   10.8878   -4.5031    0.0000 O   0  0  0  0  0  0  0  0  0  0  0  0
   11.6906   -2.0322    0.0000 C   0  0  0  0  0  0  0  0  0  0  0  0
   13.1172   -2.4957    0.0000 C   0  0  0  0  0  0  0  0  0  0  0  0
   14.2319   -1.4920    0.0000 C   0  0  0  0  0  0  0  0  0  0  0  0
   13.9200   -0.0248    0.0000 C   0  0  0  0  0  0  0  0  0  0  0  0
   12.4935    0.4388    0.0000 C   0  0  0  0  0  0  0  0  0  0  0  0
   12.1816    1.9060    0.0000 C   0  0  0  0  0  0  0  0  0  0  0  0
   11.8697    3.3732    0.0000 F   0  0  0  0  0  0  0  0  0  0  0  0
   13.6488    2.2178    0.0000 F   0  0  0  0  0  0  0  0  0  0  0  0
   10.7144    1.5941    0.0000 F   0  0  0  0  0  0  0  0  0  0  0  0
   11.3787   -0.5649    0.0000 C   0  0  0  0  0  0  0  0  0  0  0  0
    6.6080   -3.1125    0.0000 C   0  0  0  0  0  0  0  0  0  0  0  0
    0.7500   -1.2990    0.0000 C   0  0  0  0  0  0  0  0  0  0  0  0
    1.5000    0.0000    0.0000 C   0  0  0  0  0  0  0  0  0  0  0  0
    3.0000    0.0000    0.0000 N   0  0  0  0  0  0  0  0  0  0  0  0
    0.7500    1.2990    0.0000 N   0  0  0  0  0  0  0  0  0  0  0  0
   -0.7500    1.2990    0.0000 C   0  0  0  0  0  0  0  0  0  0  0  0
   -1.5000    0.0000    0.0000 N   0  0  0  0  0  0  0  0  0  0  0  0
   -0.7500   -1.2990    0.0000 C   0  0  0  0  0  0  0  0  0  0  0  0
  1  2  1  0
  2  3  1  0
  2  4  1  0
  4  5  1  0
  5  6  2  0
  6  7  1  0
  7  8  3  0
  8  9  1  0
  9 10  2  0
 10 11  1  0
 11 12  2  0
 12 13  1  0
 13 14  1  0
 14 15  1  0
 15 16  2  0
 15 17  1  0
 17 18  2  0
 18 19  1  0
 19 20  2  0
 20 21  1  0
 21 22  1  0
 22 23  1  0
 22 24  1  0
 22 25  1  0
 21 26  2  0
 13 27  2  0
  6 28  1  0
 28 29  2  0
 29 30  1  0
 29 31  1  0
 31 32  2  0
 32 33  1  0
 33 34  2  0
 34  4  1  0
 27  9  1  0
 34 28  1  0
 26 17  1  0
M  END
>  <Compound_ID>  (589) 
CHEMBL3736320

>  <Molecule Name>  (589) 
nan

>  <Molecular Weight>  (589) 
464.45

>  <AlogP>  (589) 
4.66

>  <Smiles>  (589) 
CC(C)n1nc(C#Cc2cccc(NC(=O)c3cccc(C(F)(F)F)c3)c2)c2c(N)ncnc21

>  <Standard Type>  (589) 
Inhibition

>  <Standard Relation>  (589) 
'='

>  <Standard Units>  (589) 
%

>  <Standard Value>  (589) 
8.0

>  <Assay ChEMBL ID>  (589) 
CHEMBL4230144

>  <Assay Description>  (589) 
Inhibition of MET (unknown origin) at 1 uM by mobility shift microfluidics platform based assay relative to control

>  <BAO Format ID>  (589) 
BAO_0000357

>  <BAO Label>  (589) 
single protein format

>  <Assay Organism>  (589) 
Homo sapiens

>  <Target ChEMBL ID>  (589) 
CHEMBL3717

>  <Target Name>  (589) 
Hepatocyte growth factor receptor

>  <Target Organism>  (589) 
Homo sapiens

>  <Target Type>  (589) 
SINGLE PROTEIN

>  <Document ChEMBL ID>  (589) 
CHEMBL4229333

>  <Source Description>  (589) 
Scientific Literature

>  <Document Journal>  (589) 
Eur J Med Chem

>  <Document Year>  (589) 
2018.0

>  <Active>  (589) 
0.0

$$$$

     RDKit          2D

 30 33  0  0  0  0  0  0  0  0999 V2000
  -12.4471  -11.8392    0.0000 C   0  0  0  0  0  0  0  0  0  0  0  0
  -11.3324  -12.8429    0.0000 O   0  0  0  0  0  0  0  0  0  0  0  0
   -9.9058  -12.3794    0.0000 C   0  0  0  0  0  0  0  0  0  0  0  0
   -9.5939  -10.9121    0.0000 C   0  0  0  0  0  0  0  0  0  0  0  0
   -8.1673  -10.4486    0.0000 C   0  0  0  0  0  0  0  0  0  0  0  0
   -7.0526  -11.4523    0.0000 C   0  0  0  0  0  0  0  0  0  0  0  0
   -5.6260  -10.9888    0.0000 N   0  0  0  0  0  0  0  0  0  0  0  0
   -5.3142   -9.5216    0.0000 C   0  0  0  0  0  0  0  0  0  0  0  0
   -6.4289   -8.5179    0.0000 O   0  0  0  0  0  0  0  0  0  0  0  0
   -3.8876   -9.0580    0.0000 N   0  0  0  0  0  0  0  0  0  0  0  0
   -3.5757   -7.5908    0.0000 C   0  0  0  0  0  0  0  0  0  0  0  0
   -2.1491   -7.1273    0.0000 C   0  0  0  0  0  0  0  0  0  0  0  0
   -1.8373   -5.6601    0.0000 C   0  0  0  0  0  0  0  0  0  0  0  0
   -2.9520   -4.6564    0.0000 C   0  0  0  0  0  0  0  0  0  0  0  0
   -2.6401   -3.1891    0.0000 N   0  0  0  0  0  0  0  0  0  0  0  0
   -1.2135   -2.7256    0.0000 C   0  0  0  0  0  0  0  0  0  0  0  0
   -0.0000   -3.6073    0.0000 N   0  0  0  0  0  0  0  0  0  0  0  0
    1.2135   -2.7256    0.0000 S   0  0  0  0  0  0  0  0  0  0  0  0
    1.9635   -4.0247    0.0000 O   0  0  0  0  0  0  0  0  0  0  0  0
    2.5838   -2.1155    0.0000 O   0  0  0  0  0  0  0  0  0  0  0  0
    0.7500   -1.2990    0.0000 C   0  0  0  0  0  0  0  0  0  0  0  0
    1.5000    0.0000    0.0000 C   0  0  0  0  0  0  0  0  0  0  0  0
    0.7500    1.2990    0.0000 C   0  0  0  0  0  0  0  0  0  0  0  0
   -0.7500    1.2990    0.0000 C   0  0  0  0  0  0  0  0  0  0  0  0
   -1.5000    0.0000    0.0000 C   0  0  0  0  0  0  0  0  0  0  0  0
   -0.7500   -1.2990    0.0000 C   0  0  0  0  0  0  0  0  0  0  0  0
   -4.3786   -5.1199    0.0000 C   0  0  0  0  0  0  0  0  0  0  0  0
   -4.6904   -6.5871    0.0000 C   0  0  0  0  0  0  0  0  0  0  0  0
   -7.3645  -12.9195    0.0000 C   0  0  0  0  0  0  0  0  0  0  0  0
   -8.7911  -13.3831    0.0000 C   0  0  0  0  0  0  0  0  0  0  0  0
  1  2  1  0
  2  3  1  0
  3  4  2  0
  4  5  1  0
  5  6  2  0
  6  7  1  0
  7  8  1  0
  8  9  2  0
  8 10  1  0
 10 11  1  0
 11 12  2  0
 12 13  1  0
 13 14  2  0
 14 15  1  0
 15 16  1  0
 16 17  2  0
 17 18  1  0
 18 19  2  0
 18 20  2  0
 18 21  1  0
 21 22  2  0
 22 23  1  0
 23 24  2  0
 24 25  1  0
 25 26  2  0
 14 27  1  0
 27 28  2  0
  6 29  1  0
 29 30  2  0
 30  3  1  0
 28 11  1  0
 26 16  1  0
 26 21  1  0
M  END
>  <Compound_ID>  (590) 
CHEMBL2334811

>  <Molecule Name>  (590) 
nan

>  <Molecular Weight>  (590) 
422.47

>  <AlogP>  (590) 
3.90

>  <Smiles>  (590) 
COc1ccc(NC(=O)Nc2ccc(NC3=NS(=O)(=O)c4ccccc43)cc2)cc1

>  <Standard Type>  (590) 
Inhibition

>  <Standard Relation>  (590) 
'='

>  <Standard Units>  (590) 
%

>  <Standard Value>  (590) 
15.0

>  <Assay ChEMBL ID>  (590) 
CHEMBL2338948

>  <Assay Description>  (590) 
Inhibition of c-MET tyrosine kinase (unknown origin) using [33P]-ATP at 10 uM after 20 to 40 mins by scintillation counting analysis

>  <BAO Format ID>  (590) 
BAO_0000357

>  <BAO Label>  (590) 
single protein format

>  <Assay Organism>  (590) 
Homo sapiens

>  <Target ChEMBL ID>  (590) 
CHEMBL3717

>  <Target Name>  (590) 
Hepatocyte growth factor receptor

>  <Target Organism>  (590) 
Homo sapiens

>  <Target Type>  (590) 
SINGLE PROTEIN

>  <Document ChEMBL ID>  (590) 
CHEMBL2331514

>  <Source Description>  (590) 
Scientific Literature

>  <Document Journal>  (590) 
Eur J Med Chem

>  <Document Year>  (590) 
2013.0

>  <Active>  (590) 
0.0

$$$$

     RDKit          2D

 29 32  0  0  0  0  0  0  0  0999 V2000
   -6.4289   -8.5179    0.0000 O   0  0  0  0  0  0  0  0  0  0  0  0
   -5.3142   -9.5216    0.0000 C   0  0  0  0  0  0  0  0  0  0  0  0
   -3.8876   -9.0580    0.0000 N   0  0  0  0  0  0  0  0  0  0  0  0
   -3.5757   -7.5908    0.0000 C   0  0  0  0  0  0  0  0  0  0  0  0
   -2.1491   -7.1273    0.0000 C   0  0  0  0  0  0  0  0  0  0  0  0
   -1.8373   -5.6601    0.0000 C   0  0  0  0  0  0  0  0  0  0  0  0
   -2.9520   -4.6564    0.0000 C   0  0  0  0  0  0  0  0  0  0  0  0
   -2.6401   -3.1891    0.0000 O   0  0  0  0  0  0  0  0  0  0  0  0
   -1.2135   -2.7256    0.0000 C   0  0  0  0  0  0  0  0  0  0  0  0
   -0.0000   -3.6073    0.0000 N   0  0  0  0  0  0  0  0  0  0  0  0
    1.2135   -2.7256    0.0000 S   0  0  0  0  0  0  0  0  0  0  0  0
    1.9635   -4.0247    0.0000 O   0  0  0  0  0  0  0  0  0  0  0  0
    2.5838   -2.1155    0.0000 O   0  0  0  0  0  0  0  0  0  0  0  0
    0.7500   -1.2990    0.0000 C   0  0  0  0  0  0  0  0  0  0  0  0
    1.5000    0.0000    0.0000 C   0  0  0  0  0  0  0  0  0  0  0  0
    0.7500    1.2990    0.0000 C   0  0  0  0  0  0  0  0  0  0  0  0
   -0.7500    1.2990    0.0000 C   0  0  0  0  0  0  0  0  0  0  0  0
   -1.5000    0.0000    0.0000 C   0  0  0  0  0  0  0  0  0  0  0  0
   -0.7500   -1.2990    0.0000 C   0  0  0  0  0  0  0  0  0  0  0  0
   -4.3786   -5.1199    0.0000 C   0  0  0  0  0  0  0  0  0  0  0  0
   -4.6904   -6.5871    0.0000 C   0  0  0  0  0  0  0  0  0  0  0  0
   -5.6260  -10.9888    0.0000 N   0  0  0  0  0  0  0  0  0  0  0  0
   -7.0526  -11.4523    0.0000 C   0  0  0  0  0  0  0  0  0  0  0  0
   -8.1673  -10.4486    0.0000 C   0  0  0  0  0  0  0  0  0  0  0  0
   -9.5939  -10.9121    0.0000 C   0  0  0  0  0  0  0  0  0  0  0  0
   -9.9058  -12.3794    0.0000 C   0  0  0  0  0  0  0  0  0  0  0  0
   -8.7911  -13.3831    0.0000 C   0  0  0  0  0  0  0  0  0  0  0  0
   -7.3645  -12.9195    0.0000 C   0  0  0  0  0  0  0  0  0  0  0  0
   -6.2498  -13.9232    0.0000 Cl  0  0  0  0  0  0  0  0  0  0  0  0
  1  2  2  0
  2  3  1  0
  3  4  1  0
  4  5  2  0
  5  6  1  0
  6  7  2  0
  7  8  1  0
  8  9  1  0
  9 10  2  0
 10 11  1  0
 11 12  2  0
 11 13  2  0
 11 14  1  0
 14 15  2  0
 15 16  1  0
 16 17  2  0
 17 18  1  0
 18 19  2  0
  7 20  1  0
 20 21  2  0
  2 22  1  0
 22 23  1  0
 23 24  2  0
 24 25  1  0
 25 26  2  0
 26 27  1  0
 27 28  2  0
 28 29  1  0
 21  4  1  0
 28 23  1  0
 19  9  1  0
 19 14  1  0
M  END
>  <Compound_ID>  (591) 
CHEMBL2334807

>  <Molecule Name>  (591) 
nan

>  <Molecular Weight>  (591) 
427.87

>  <AlogP>  (591) 
4.51

>  <Smiles>  (591) 
O=C(Nc1ccc(OC2=NS(=O)(=O)c3ccccc32)cc1)Nc1ccccc1Cl

>  <Standard Type>  (591) 
Inhibition

>  <Standard Relation>  (591) 
'='

>  <Standard Units>  (591) 
%

>  <Standard Value>  (591) 
11.0

>  <Assay ChEMBL ID>  (591) 
CHEMBL2338948

>  <Assay Description>  (591) 
Inhibition of c-MET tyrosine kinase (unknown origin) using [33P]-ATP at 10 uM after 20 to 40 mins by scintillation counting analysis

>  <BAO Format ID>  (591) 
BAO_0000357

>  <BAO Label>  (591) 
single protein format

>  <Assay Organism>  (591) 
Homo sapiens

>  <Target ChEMBL ID>  (591) 
CHEMBL3717

>  <Target Name>  (591) 
Hepatocyte growth factor receptor

>  <Target Organism>  (591) 
Homo sapiens

>  <Target Type>  (591) 
SINGLE PROTEIN

>  <Document ChEMBL ID>  (591) 
CHEMBL2331514

>  <Source Description>  (591) 
Scientific Literature

>  <Document Journal>  (591) 
Eur J Med Chem

>  <Document Year>  (591) 
2013.0

>  <Active>  (591) 
0.0

$$$$

     RDKit          2D

 32 36  0  0  0  0  0  0  0  0999 V2000
   -9.0165    4.3002    0.0000 F   0  0  0  0  0  0  0  0  0  0  0  0
   -7.9018    3.2966    0.0000 C   0  0  0  0  0  0  0  0  0  0  0  0
   -6.8981    4.4113    0.0000 F   0  0  0  0  0  0  0  0  0  0  0  0
   -8.9055    2.1818    0.0000 F   0  0  0  0  0  0  0  0  0  0  0  0
   -6.7871    2.2929    0.0000 C   0  0  0  0  0  0  0  0  0  0  0  0
   -5.3605    2.7564    0.0000 C   0  0  0  0  0  0  0  0  0  0  0  0
   -4.2458    1.7527    0.0000 C   0  0  0  0  0  0  0  0  0  0  0  0
   -4.5577    0.2855    0.0000 C   0  0  0  0  0  0  0  0  0  0  0  0
   -5.9843   -0.1781    0.0000 C   0  0  0  0  0  0  0  0  0  0  0  0
   -6.2961   -1.6453    0.0000 N   0  0  0  0  0  0  0  0  0  0  0  0
   -5.1814   -2.6490    0.0000 C   0  0  0  0  0  0  0  0  0  0  0  0
   -5.4933   -4.1162    0.0000 N   0  0  0  0  0  0  0  0  0  0  0  0
   -4.3786   -5.1199    0.0000 C   0  0  0  0  0  0  0  0  0  0  0  0
   -2.9520   -4.6564    0.0000 C   0  0  0  0  0  0  0  0  0  0  0  0
   -2.6401   -3.1891    0.0000 C   0  0  0  0  0  0  0  0  0  0  0  0
   -1.2135   -2.7256    0.0000 C   0  0  0  0  0  0  0  0  0  0  0  0
   -0.0000   -3.6073    0.0000 C   0  0  0  0  0  0  0  0  0  0  0  0
    1.2135   -2.7256    0.0000 N   0  0  0  0  0  0  0  0  0  0  0  0
    0.7500   -1.2990    0.0000 N   0  0  0  0  0  0  0  0  0  0  0  0
    1.5000    0.0000    0.0000 N   0  0  0  0  0  0  0  0  0  0  0  0
    0.7500    1.2990    0.0000 C   0  0  0  0  0  0  0  0  0  0  0  0
    1.5000    2.5981    0.0000 C   0  0  0  0  0  0  0  0  0  0  0  0
    3.0000    2.5981    0.0000 C   0  0  0  0  0  0  0  0  0  0  0  0
    3.7500    3.8971    0.0000 C   0  0  0  0  0  0  0  0  0  0  0  0
    3.0000    5.1962    0.0000 C   0  0  0  0  0  0  0  0  0  0  0  0
    1.5000    5.1962    0.0000 C   0  0  0  0  0  0  0  0  0  0  0  0
    0.7500    3.8971    0.0000 C   0  0  0  0  0  0  0  0  0  0  0  0
   -0.7500    1.2990    0.0000 C   0  0  0  0  0  0  0  0  0  0  0  0
   -1.5000    0.0000    0.0000 C   0  0  0  0  0  0  0  0  0  0  0  0
   -0.7500   -1.2990    0.0000 C   0  0  0  0  0  0  0  0  0  0  0  0
   -3.7548   -2.1855    0.0000 N   0  0  0  0  0  0  0  0  0  0  0  0
   -7.0990    0.8256    0.0000 C   0  0  0  0  0  0  0  0  0  0  0  0
  1  2  1  0
  2  3  1  0
  2  4  1  0
  2  5  1  0
  5  6  2  0
  6  7  1  0
  7  8  2  0
  8  9  1  0
  9 10  1  0
 10 11  1  0
 11 12  2  0
 12 13  1  0
 13 14  2  0
 14 15  1  0
 15 16  1  0
 16 17  1  0
 17 18  2  0
 18 19  1  0
 19 20  1  0
 20 21  2  0
 21 22  1  0
 22 23  2  0
 23 24  1  0
 24 25  2  0
 25 26  1  0
 26 27  2  0
 21 28  1  0
 28 29  2  0
 29 30  1  0
 15 31  2  0
  9 32  2  0
 32  5  1  0
 31 11  1  0
 30 16  2  0
 30 19  1  0
 27 22  1  0
M  END
>  <Compound_ID>  (592) 
CHEMBL189415

>  <Molecule Name>  (592) 
GW819077X

>  <Molecular Weight>  (592) 
432.41

>  <AlogP>  (592) 
5.62

>  <Smiles>  (592) 
FC(F)(F)c1cccc(Nc2nccc(-c3cnn4nc(-c5ccccc5)ccc34)n2)c1

>  <Standard Type>  (592) 
Inhibition

>  <Standard Relation>  (592) 
'='

>  <Standard Units>  (592) 
%

>  <Standard Value>  (592) 
0.28

>  <Assay ChEMBL ID>  (592) 
CHEMBL1962143

>  <Assay Description>  (592) 
GSK_PKIS: MET mean inhibition at 1 uM [Nanosyn]

>  <BAO Format ID>  (592) 
BAO_0000357

>  <BAO Label>  (592) 
single protein format

>  <Assay Organism>  (592) 
None

>  <Target ChEMBL ID>  (592) 
CHEMBL3717

>  <Target Name>  (592) 
Hepatocyte growth factor receptor

>  <Target Organism>  (592) 
Homo sapiens

>  <Target Type>  (592) 
SINGLE PROTEIN

>  <Document ChEMBL ID>  (592) 
CHEMBL1961873

>  <Source Description>  (592) 
GSK Published Kinase Inhibitor Set

>  <Document Journal>  (592) 
nan

>  <Document Year>  (592) 
nan

>  <Active>  (592) 
0.0

$$$$

     RDKit          2D

 30 33  0  0  0  0  0  0  0  0999 V2000
    3.7500   -1.2990    0.0000 N   0  0  0  0  0  0  0  0  0  0  0  0
    3.0000    0.0000    0.0000 C   0  0  0  0  0  0  0  0  0  0  0  0
    3.7500    1.2990    0.0000 O   0  0  0  0  0  0  0  0  0  0  0  0
    1.5000    0.0000    0.0000 C   0  0  0  0  0  0  0  0  0  0  0  0
    0.7500   -1.2990    0.0000 C   0  0  0  0  0  0  0  0  0  0  0  0
   -0.7500   -1.2990    0.0000 C   0  0  0  0  0  0  0  0  0  0  0  0
   -1.5000    0.0000    0.0000 C   0  0  0  0  0  0  0  0  0  0  0  0
   -2.9672    0.3119    0.0000 C   0  0  0  0  0  0  0  0  0  0  0  0
   -4.0819   -0.6918    0.0000 C   0  0  0  0  0  0  0  0  0  0  0  0
   -5.5085   -0.2283    0.0000 C   0  0  0  0  0  0  0  0  0  0  0  0
   -6.6232   -1.2320    0.0000 C   0  0  0  0  0  0  0  0  0  0  0  0
   -6.3114   -2.6992    0.0000 N   0  0  0  0  0  0  0  0  0  0  0  0
   -4.8848   -3.1627    0.0000 C   0  0  0  0  0  0  0  0  0  0  0  0
   -4.5729   -4.6300    0.0000 N   0  0  0  0  0  0  0  0  0  0  0  0
   -5.6876   -5.6337    0.0000 C   0  0  0  0  0  0  0  0  0  0  0  0
   -5.3758   -7.1009    0.0000 C   0  0  0  0  0  0  0  0  0  0  0  0
   -6.4905   -8.1046    0.0000 C   0  0  0  0  0  0  0  0  0  0  0  0
   -6.1786   -9.5718    0.0000 O   0  0  0  0  0  0  0  0  0  0  0  0
   -3.7701   -2.1590    0.0000 N   0  0  0  0  0  0  0  0  0  0  0  0
   -3.1240    1.8037    0.0000 C   0  0  0  0  0  0  0  0  0  0  0  0
   -4.4231    2.5537    0.0000 C   0  0  0  0  0  0  0  0  0  0  0  0
   -4.4231    4.0537    0.0000 C   0  0  0  0  0  0  0  0  0  0  0  0
   -5.7221    4.8037    0.0000 C   0  0  0  0  0  0  0  0  0  0  0  0
   -7.0211    4.0537    0.0000 C   0  0  0  0  0  0  0  0  0  0  0  0
   -8.3202    4.8037    0.0000 F   0  0  0  0  0  0  0  0  0  0  0  0
   -7.0211    2.5537    0.0000 C   0  0  0  0  0  0  0  0  0  0  0  0
   -5.7221    1.8037    0.0000 C   0  0  0  0  0  0  0  0  0  0  0  0
   -1.7537    2.4138    0.0000 N   0  0  0  0  0  0  0  0  0  0  0  0
   -0.7500    1.2990    0.0000 N   0  0  0  0  0  0  0  0  0  0  0  0
    0.7500    1.2990    0.0000 C   0  0  0  0  0  0  0  0  0  0  0  0
  1  2  1  0
  2  3  2  0
  2  4  1  0
  4  5  1  0
  5  6  2  0
  6  7  1  0
  7  8  2  0
  8  9  1  0
  9 10  2  0
 10 11  1  0
 11 12  2  0
 12 13  1  0
 13 14  1  0
 14 15  1  0
 15 16  1  0
 16 17  1  0
 17 18  1  0
 13 19  2  0
  8 20  1  0
 20 21  1  0
 21 22  2  0
 22 23  1  0
 23 24  2  0
 24 25  1  0
 24 26  1  0
 26 27  2  0
 20 28  2  0
 28 29  1  0
 29 30  1  0
 30  4  2  0
 29  7  1  0
 19  9  1  0
 27 21  1  0
M  END
>  <Compound_ID>  (593) 
CHEMBL1909404

>  <Molecule Name>  (593) 
GW581744X

>  <Molecular Weight>  (593) 
406.42

>  <AlogP>  (593) 
2.49

>  <Smiles>  (593) 
NC(=O)c1ccc2c(-c3ccnc(NCCCO)n3)c(-c3ccc(F)cc3)nn2c1

>  <Standard Type>  (593) 
Inhibition

>  <Standard Relation>  (593) 
'='

>  <Standard Units>  (593) 
%

>  <Standard Value>  (593) 
15.12

>  <Assay ChEMBL ID>  (593) 
CHEMBL1962143

>  <Assay Description>  (593) 
GSK_PKIS: MET mean inhibition at 1 uM [Nanosyn]

>  <BAO Format ID>  (593) 
BAO_0000357

>  <BAO Label>  (593) 
single protein format

>  <Assay Organism>  (593) 
None

>  <Target ChEMBL ID>  (593) 
CHEMBL3717

>  <Target Name>  (593) 
Hepatocyte growth factor receptor

>  <Target Organism>  (593) 
Homo sapiens

>  <Target Type>  (593) 
SINGLE PROTEIN

>  <Document ChEMBL ID>  (593) 
CHEMBL1961873

>  <Source Description>  (593) 
GSK Published Kinase Inhibitor Set

>  <Document Journal>  (593) 
nan

>  <Document Year>  (593) 
nan

>  <Active>  (593) 
0.0

$$$$

     RDKit          2D

 11 12  0  0  0  0  0  0  0  0999 V2000
    3.0000    0.0000    0.0000 C   0  0  0  0  0  0  0  0  0  0  0  0
    1.5000    0.0000    0.0000 C   0  0  0  0  0  0  0  0  0  0  0  0
    0.7500   -1.2990    0.0000 C   0  0  0  0  0  0  0  0  0  0  0  0
   -0.7500   -1.2990    0.0000 C   0  0  0  0  0  0  0  0  0  0  0  0
   -1.7537   -2.4138    0.0000 N   0  0  0  0  0  0  0  0  0  0  0  0
   -3.1240   -1.8037    0.0000 N   0  0  0  0  0  0  0  0  0  0  0  0
   -2.9672   -0.3119    0.0000 C   0  0  0  0  0  0  0  0  0  0  0  0
   -4.0819    0.6918    0.0000 N   0  0  0  0  0  0  0  0  0  0  0  0
   -1.5000    0.0000    0.0000 C   0  0  0  0  0  0  0  0  0  0  0  0
   -0.7500    1.2990    0.0000 C   0  0  0  0  0  0  0  0  0  0  0  0
    0.7500    1.2990    0.0000 N   0  0  0  0  0  0  0  0  0  0  0  0
  1  2  1  0
  2  3  2  0
  3  4  1  0
  4  5  1  0
  5  6  1  0
  6  7  2  0
  7  8  1  0
  7  9  1  0
  9 10  1  0
 10 11  2  0
 11  2  1  0
  9  4  2  0
M  END
>  <Compound_ID>  (594) 
CHEMBL1813803

>  <Molecule Name>  (594) 
nan

>  <Molecular Weight>  (594) 
148.17

>  <AlogP>  (594) 
0.85

>  <Smiles>  (594) 
Cc1cc2[nH]nc(N)c2cn1

>  <Standard Type>  (594) 
Inhibition

>  <Standard Relation>  (594) 
'='

>  <Standard Units>  (594) 
%

>  <Standard Value>  (594) 
3.0

>  <Assay ChEMBL ID>  (594) 
CHEMBL1815730

>  <Assay Description>  (594) 
Inhibition of MET at 30 uM by microfluidic mobility shift assay

>  <BAO Format ID>  (594) 
BAO_0000357

>  <BAO Label>  (594) 
single protein format

>  <Assay Organism>  (594) 
None

>  <Target ChEMBL ID>  (594) 
CHEMBL3717

>  <Target Name>  (594) 
Hepatocyte growth factor receptor

>  <Target Organism>  (594) 
Homo sapiens

>  <Target Type>  (594) 
SINGLE PROTEIN

>  <Document ChEMBL ID>  (594) 
CHEMBL1811853

>  <Source Description>  (594) 
Scientific Literature

>  <Document Journal>  (594) 
Bioorg Med Chem

>  <Document Year>  (594) 
2011.0

>  <Active>  (594) 
0.0

$$$$

     RDKit          2D

 35 39  0  0  0  0  0  0  0  0999 V2000
    4.5000    0.0000    0.0000 C   0  0  0  0  0  0  0  0  0  0  0  0
    3.0000    0.0000    0.0000 S   0  0  0  0  0  0  0  0  0  0  0  0
    3.0000    1.5000    0.0000 O   0  0  0  0  0  0  0  0  0  0  0  0
    3.0000   -1.5000    0.0000 O   0  0  0  0  0  0  0  0  0  0  0  0
    1.5000    0.0000    0.0000 C   0  0  0  0  0  0  0  0  0  0  0  0
    0.7500   -1.2990    0.0000 C   0  0  0  0  0  0  0  0  0  0  0  0
   -0.7500   -1.2990    0.0000 C   0  0  0  0  0  0  0  0  0  0  0  0
   -1.5000    0.0000    0.0000 C   0  0  0  0  0  0  0  0  0  0  0  0
   -3.0000    0.0000    0.0000 O   0  0  0  0  0  0  0  0  0  0  0  0
   -3.7500    1.2990    0.0000 C   0  0  0  0  0  0  0  0  0  0  0  0
   -3.0000    2.5981    0.0000 N   0  0  0  0  0  0  0  0  0  0  0  0
   -3.7500    3.8971    0.0000 C   0  0  0  0  0  0  0  0  0  0  0  0
   -5.2500    3.8971    0.0000 C   0  0  0  0  0  0  0  0  0  0  0  0
   -6.0000    2.5981    0.0000 C   0  0  0  0  0  0  0  0  0  0  0  0
   -7.5000    2.5981    0.0000 C   0  0  0  0  0  0  0  0  0  0  0  0
   -8.3817    1.3846    0.0000 C   0  0  0  0  0  0  0  0  0  0  0  0
   -7.9182   -0.0420    0.0000 C   0  0  0  0  0  0  0  0  0  0  0  0
   -8.9218   -1.1568    0.0000 C   0  0  0  0  0  0  0  0  0  0  0  0
   -8.4583   -2.5833    0.0000 C   0  0  0  0  0  0  0  0  0  0  0  0
   -6.9911   -2.8952    0.0000 C   0  0  0  0  0  0  0  0  0  0  0  0
   -6.5276   -4.3218    0.0000 F   0  0  0  0  0  0  0  0  0  0  0  0
   -5.9874   -1.7805    0.0000 C   0  0  0  0  0  0  0  0  0  0  0  0
   -6.4509   -0.3539    0.0000 C   0  0  0  0  0  0  0  0  0  0  0  0
   -9.8083    1.8481    0.0000 N   0  0  0  0  0  0  0  0  0  0  0  0
   -9.8083    3.3481    0.0000 C   0  0  0  0  0  0  0  0  0  0  0  0
   -8.3817    3.8116    0.0000 N   0  0  0  0  0  0  0  0  0  0  0  0
   -7.9182    5.2382    0.0000 C   0  0  0  0  0  0  0  0  0  0  0  0
   -6.4509    5.5501    0.0000 C   0  0  0  0  0  0  0  0  0  0  0  0
   -5.9874    6.9766    0.0000 C   0  0  0  0  0  0  0  0  0  0  0  0
   -6.9911    8.0914    0.0000 N   0  0  0  0  0  0  0  0  0  0  0  0
   -8.4583    7.7795    0.0000 C   0  0  0  0  0  0  0  0  0  0  0  0
   -8.9218    6.3529    0.0000 C   0  0  0  0  0  0  0  0  0  0  0  0
   -5.2500    1.2990    0.0000 N   0  0  0  0  0  0  0  0  0  0  0  0
   -0.7500    1.2990    0.0000 C   0  0  0  0  0  0  0  0  0  0  0  0
    0.7500    1.2990    0.0000 C   0  0  0  0  0  0  0  0  0  0  0  0
  1  2  1  0
  2  3  2  0
  2  4  2  0
  2  5  1  0
  5  6  2  0
  6  7  1  0
  7  8  2  0
  8  9  1  0
  9 10  1  0
 10 11  2  0
 11 12  1  0
 12 13  2  0
 13 14  1  0
 14 15  1  0
 15 16  2  0
 16 17  1  0
 17 18  2  0
 18 19  1  0
 19 20  2  0
 20 21  1  0
 20 22  1  0
 22 23  2  0
 16 24  1  0
 24 25  2  0
 25 26  1  0
 26 27  1  0
 27 28  1  0
 28 29  1  0
 29 30  1  0
 30 31  1  0
 31 32  1  0
 14 33  2  0
  8 34  1  0
 34 35  2  0
 35  5  1  0
 33 10  1  0
 26 15  1  0
 32 27  1  0
 23 17  1  0
M  END
>  <Compound_ID>  (595) 
CHEMBL418348

>  <Molecule Name>  (595) 
nan

>  <Molecular Weight>  (595) 
493.56

>  <AlogP>  (595) 
4.27

>  <Smiles>  (595) 
CS(=O)(=O)c1ccc(Oc2nccc(-c3c(-c4ccc(F)cc4)ncn3C3CCNCC3)n2)cc1

>  <Standard Type>  (595) 
Inhibition

>  <Standard Relation>  (595) 
'='

>  <Standard Units>  (595) 
%

>  <Standard Value>  (595) 
5.26

>  <Assay ChEMBL ID>  (595) 
CHEMBL1962142

>  <Assay Description>  (595) 
GSK_PKIS: MET mean inhibition at 0.1 uM [Nanosyn]

>  <BAO Format ID>  (595) 
BAO_0000357

>  <BAO Label>  (595) 
single protein format

>  <Assay Organism>  (595) 
None

>  <Target ChEMBL ID>  (595) 
CHEMBL3717

>  <Target Name>  (595) 
Hepatocyte growth factor receptor

>  <Target Organism>  (595) 
Homo sapiens

>  <Target Type>  (595) 
SINGLE PROTEIN

>  <Document ChEMBL ID>  (595) 
CHEMBL1961873

>  <Source Description>  (595) 
GSK Published Kinase Inhibitor Set

>  <Document Journal>  (595) 
nan

>  <Document Year>  (595) 
nan

>  <Active>  (595) 
0.0

$$$$

     RDKit          2D

 22 24  0  0  0  0  0  0  0  0999 V2000
    1.8478   -6.4639    0.0000 O   0  0  0  0  0  0  0  0  0  0  0  0
    2.0046   -4.9721    0.0000 C   0  0  0  0  0  0  0  0  0  0  0  0
    3.3037   -4.2221    0.0000 N   0  0  0  0  0  0  0  0  0  0  0  0
    2.9918   -2.7549    0.0000 C   0  0  0  0  0  0  0  0  0  0  0  0
    3.9955   -1.6402    0.0000 O   0  0  0  0  0  0  0  0  0  0  0  0
    1.5000   -2.5981    0.0000 C   0  0  0  0  0  0  0  0  0  0  0  0
    0.7500   -1.2990    0.0000 C   0  0  0  0  0  0  0  0  0  0  0  0
    1.5000    0.0000    0.0000 C   0  0  0  0  0  0  0  0  0  0  0  0
    0.7500    1.2990    0.0000 C   0  0  0  0  0  0  0  0  0  0  0  0
   -0.7500    1.2990    0.0000 C   0  0  0  0  0  0  0  0  0  0  0  0
   -1.5000    0.0000    0.0000 C   0  0  0  0  0  0  0  0  0  0  0  0
   -0.7500   -1.2990    0.0000 C   0  0  0  0  0  0  0  0  0  0  0  0
   -1.5000   -2.5981    0.0000 Cl  0  0  0  0  0  0  0  0  0  0  0  0
    0.8899   -3.9684    0.0000 C   0  0  0  0  0  0  0  0  0  0  0  0
   -0.5773   -4.2803    0.0000 N   0  0  0  0  0  0  0  0  0  0  0  0
   -1.0409   -5.7068    0.0000 C   0  0  0  0  0  0  0  0  0  0  0  0
   -2.5081   -6.0187    0.0000 C   0  0  0  0  0  0  0  0  0  0  0  0
   -2.9716   -7.4453    0.0000 C   0  0  0  0  0  0  0  0  0  0  0  0
   -1.9679   -8.5600    0.0000 C   0  0  0  0  0  0  0  0  0  0  0  0
   -0.5007   -8.2481    0.0000 C   0  0  0  0  0  0  0  0  0  0  0  0
    0.5030   -9.3629    0.0000 O   0  0  0  0  0  0  0  0  0  0  0  0
   -0.0372   -6.8216    0.0000 C   0  0  0  0  0  0  0  0  0  0  0  0
  1  2  2  0
  2  3  1  0
  3  4  1  0
  4  5  2  0
  4  6  1  0
  6  7  1  0
  7  8  2  0
  8  9  1  0
  9 10  2  0
 10 11  1  0
 11 12  2  0
 12 13  1  0
  6 14  2  0
 14 15  1  0
 15 16  1  0
 16 17  2  0
 17 18  1  0
 18 19  2  0
 19 20  1  0
 20 21  1  0
 20 22  2  0
 14  2  1  0
 22 16  1  0
 12  7  1  0
M  END
>  <Compound_ID>  (596) 
CHEMBL160937

>  <Molecule Name>  (596) 
nan

>  <Molecular Weight>  (596) 
314.73

>  <AlogP>  (596) 
2.53

>  <Smiles>  (596) 
O=C1NC(=O)C(c2ccccc2Cl)=C1Nc1cccc(O)c1

>  <Standard Type>  (596) 
Inhibition

>  <Standard Relation>  (596) 
'='

>  <Standard Units>  (596) 
%

>  <Standard Value>  (596) 
-0.4

>  <Assay ChEMBL ID>  (596) 
CHEMBL1962143

>  <Assay Description>  (596) 
GSK_PKIS: MET mean inhibition at 1 uM [Nanosyn]

>  <BAO Format ID>  (596) 
BAO_0000357

>  <BAO Label>  (596) 
single protein format

>  <Assay Organism>  (596) 
None

>  <Target ChEMBL ID>  (596) 
CHEMBL3717

>  <Target Name>  (596) 
Hepatocyte growth factor receptor

>  <Target Organism>  (596) 
Homo sapiens

>  <Target Type>  (596) 
SINGLE PROTEIN

>  <Document ChEMBL ID>  (596) 
CHEMBL1961873

>  <Source Description>  (596) 
GSK Published Kinase Inhibitor Set

>  <Document Journal>  (596) 
nan

>  <Document Year>  (596) 
nan

>  <Active>  (596) 
0.0

$$$$

     RDKit          2D

 36 39  0  0  0  0  0  0  0  0999 V2000
   -2.5981   -8.1073    0.0000 C   0  0  0  0  0  0  0  0  0  0  0  0
   -1.2990   -7.3573    0.0000 O   0  0  0  0  0  0  0  0  0  0  0  0
   -1.2990   -5.8573    0.0000 C   0  0  0  0  0  0  0  0  0  0  0  0
   -2.5981   -5.1073    0.0000 O   0  0  0  0  0  0  0  0  0  0  0  0
   -0.0000   -5.1073    0.0000 N   0  0  0  0  0  0  0  0  0  0  0  0
   -0.0000   -3.6073    0.0000 C   0  0  0  0  0  0  0  0  0  0  0  0
    1.2135   -2.7256    0.0000 N   0  0  0  0  0  0  0  0  0  0  0  0
    0.7500   -1.2990    0.0000 C   0  0  0  0  0  0  0  0  0  0  0  0
    1.5000    0.0000    0.0000 C   0  0  0  0  0  0  0  0  0  0  0  0
    0.7500    1.2990    0.0000 C   0  0  0  0  0  0  0  0  0  0  0  0
    1.5000    2.5981    0.0000 O   0  0  0  0  0  0  0  0  0  0  0  0
    3.0000    2.5981    0.0000 C   0  0  0  0  0  0  0  0  0  0  0  0
    3.7500    1.2990    0.0000 C   0  0  0  0  0  0  0  0  0  0  0  0
    5.2500    1.2990    0.0000 C   0  0  0  0  0  0  0  0  0  0  0  0
    6.0000    2.5981    0.0000 C   0  0  0  0  0  0  0  0  0  0  0  0
    5.2500    3.8971    0.0000 C   0  0  0  0  0  0  0  0  0  0  0  0
    6.0000    5.1962    0.0000 N   0  0  0  0  0  0  0  0  0  0  0  0
    7.5000    5.1962    0.0000 C   0  0  0  0  0  0  0  0  0  0  0  0
    8.2500    3.8971    0.0000 O   0  0  0  0  0  0  0  0  0  0  0  0
    8.2500    6.4952    0.0000 N   0  0  0  0  0  0  0  0  0  0  0  0
    9.7500    6.4952    0.0000 C   0  0  0  0  0  0  0  0  0  0  0  0
   10.5000    5.1962    0.0000 C   0  0  0  0  0  0  0  0  0  0  0  0
   12.0000    5.1962    0.0000 C   0  0  0  0  0  0  0  0  0  0  0  0
   12.7500    3.8971    0.0000 C   0  0  0  0  0  0  0  0  0  0  0  0
   13.5000    2.5981    0.0000 F   0  0  0  0  0  0  0  0  0  0  0  0
   11.4510    3.1471    0.0000 F   0  0  0  0  0  0  0  0  0  0  0  0
   14.0490    4.6471    0.0000 F   0  0  0  0  0  0  0  0  0  0  0  0
   12.7500    6.4952    0.0000 C   0  0  0  0  0  0  0  0  0  0  0  0
   12.0000    7.7942    0.0000 C   0  0  0  0  0  0  0  0  0  0  0  0
   10.5000    7.7942    0.0000 C   0  0  0  0  0  0  0  0  0  0  0  0
    9.7500    9.0933    0.0000 F   0  0  0  0  0  0  0  0  0  0  0  0
    3.7500    3.8971    0.0000 C   0  0  0  0  0  0  0  0  0  0  0  0
   -0.7500    1.2990    0.0000 C   0  0  0  0  0  0  0  0  0  0  0  0
   -1.5000    0.0000    0.0000 C   0  0  0  0  0  0  0  0  0  0  0  0
   -0.7500   -1.2990    0.0000 C   0  0  0  0  0  0  0  0  0  0  0  0
   -1.2135   -2.7256    0.0000 N   0  0  0  0  0  0  0  0  0  0  0  0
  1  2  1  0
  2  3  1  0
  3  4  2  0
  3  5  1  0
  5  6  1  0
  6  7  2  0
  7  8  1  0
  8  9  2  0
  9 10  1  0
 10 11  1  0
 11 12  1  0
 12 13  2  0
 13 14  1  0
 14 15  2  0
 15 16  1  0
 16 17  1  0
 17 18  1  0
 18 19  2  0
 18 20  1  0
 20 21  1  0
 21 22  2  0
 22 23  1  0
 23 24  1  0
 24 25  1  0
 24 26  1  0
 24 27  1  0
 23 28  2  0
 28 29  1  0
 29 30  2  0
 30 31  1  0
 16 32  2  0
 10 33  2  0
 33 34  1  0
 34 35  2  0
 35 36  1  0
 36  6  1  0
 35  8  1  0
 32 12  1  0
 30 21  1  0
M  END
>  <Compound_ID>  (597) 
CHEMBL1909366

>  <Molecule Name>  (597) 
GW659386A

>  <Molecular Weight>  (597) 
539.87

>  <AlogP>  (597) 
6.34

>  <Smiles>  (597) 
COC(=O)Nc1nc2cc(Oc3cccc(NC(=O)Nc4cc(C(F)(F)F)ccc4F)c3)ccc2[nH]1

>  <Standard Type>  (597) 
Inhibition

>  <Standard Relation>  (597) 
'='

>  <Standard Units>  (597) 
%

>  <Standard Value>  (597) 
0.32

>  <Assay ChEMBL ID>  (597) 
CHEMBL1962143

>  <Assay Description>  (597) 
GSK_PKIS: MET mean inhibition at 1 uM [Nanosyn]

>  <BAO Format ID>  (597) 
BAO_0000357

>  <BAO Label>  (597) 
single protein format

>  <Assay Organism>  (597) 
None

>  <Target ChEMBL ID>  (597) 
CHEMBL3717

>  <Target Name>  (597) 
Hepatocyte growth factor receptor

>  <Target Organism>  (597) 
Homo sapiens

>  <Target Type>  (597) 
SINGLE PROTEIN

>  <Document ChEMBL ID>  (597) 
CHEMBL1961873

>  <Source Description>  (597) 
GSK Published Kinase Inhibitor Set

>  <Document Journal>  (597) 
nan

>  <Document Year>  (597) 
nan

>  <Active>  (597) 
0.0

$$$$

     RDKit          2D

 40 44  0  0  0  0  0  0  0  0999 V2000
   -3.7500   -6.4952    0.0000 O   0  0  0  0  0  0  0  0  0  0  0  0
   -3.0000   -7.7942    0.0000 C   0  0  0  0  0  0  0  0  0  0  0  0
   -1.5000   -7.7942    0.0000 N   0  0  0  0  0  0  0  0  0  0  0  0
   -0.7500   -6.4952    0.0000 C   0  0  0  0  0  0  0  0  0  0  0  0
    0.7500   -6.4952    0.0000 C   0  0  0  0  0  0  0  0  0  0  0  0
    1.5000   -5.1962    0.0000 C   0  0  0  0  0  0  0  0  0  0  0  0
    0.7500   -3.8971    0.0000 C   0  0  0  0  0  0  0  0  0  0  0  0
    1.5000   -2.5981    0.0000 O   0  0  0  0  0  0  0  0  0  0  0  0
    0.7500   -1.2990    0.0000 C   0  0  0  0  0  0  0  0  0  0  0  0
    1.5000    0.0000    0.0000 C   0  0  0  0  0  0  0  0  0  0  0  0
    0.7500    1.2990    0.0000 C   0  0  0  0  0  0  0  0  0  0  0  0
   -0.7500    1.2990    0.0000 C   0  0  0  0  0  0  0  0  0  0  0  0
   -1.7537    2.4138    0.0000 N   0  0  0  0  0  0  0  0  0  0  0  0
   -3.1240    1.8037    0.0000 C   0  0  0  0  0  0  0  0  0  0  0  0
   -4.4231    2.5537    0.0000 N   0  0  0  0  0  0  0  0  0  0  0  0
   -4.4231    4.0537    0.0000 C   0  0  0  0  0  0  0  0  0  0  0  0
   -3.1240    4.8037    0.0000 O   0  0  0  0  0  0  0  0  0  0  0  0
   -5.7221    4.8037    0.0000 C   0  0  0  0  0  0  0  0  0  0  0  0
   -5.7221    6.3037    0.0000 C   0  0  0  0  0  0  0  0  0  0  0  0
   -7.0211    7.0537    0.0000 C   0  0  0  0  0  0  0  0  0  0  0  0
   -8.3202    6.3037    0.0000 C   0  0  0  0  0  0  0  0  0  0  0  0
   -8.3202    4.8037    0.0000 C   0  0  0  0  0  0  0  0  0  0  0  0
   -7.0211    4.0537    0.0000 C   0  0  0  0  0  0  0  0  0  0  0  0
   -2.9672    0.3119    0.0000 N   0  0  0  0  0  0  0  0  0  0  0  0
   -1.5000    0.0000    0.0000 C   0  0  0  0  0  0  0  0  0  0  0  0
   -0.7500   -1.2990    0.0000 C   0  0  0  0  0  0  0  0  0  0  0  0
   -0.7500   -3.8971    0.0000 C   0  0  0  0  0  0  0  0  0  0  0  0
   -1.5000   -5.1962    0.0000 C   0  0  0  0  0  0  0  0  0  0  0  0
   -3.7500   -9.0933    0.0000 N   0  0  0  0  0  0  0  0  0  0  0  0
   -5.2500   -9.0933    0.0000 C   0  0  0  0  0  0  0  0  0  0  0  0
   -6.0000   -7.7942    0.0000 C   0  0  0  0  0  0  0  0  0  0  0  0
   -7.5000   -7.7942    0.0000 C   0  0  0  0  0  0  0  0  0  0  0  0
   -8.2500   -6.4952    0.0000 C   0  0  0  0  0  0  0  0  0  0  0  0
   -9.0000   -5.1962    0.0000 F   0  0  0  0  0  0  0  0  0  0  0  0
   -6.9510   -5.7452    0.0000 F   0  0  0  0  0  0  0  0  0  0  0  0
   -9.5490   -7.2452    0.0000 F   0  0  0  0  0  0  0  0  0  0  0  0
   -8.2500   -9.0933    0.0000 C   0  0  0  0  0  0  0  0  0  0  0  0
   -7.5000  -10.3923    0.0000 C   0  0  0  0  0  0  0  0  0  0  0  0
   -6.0000  -10.3923    0.0000 C   0  0  0  0  0  0  0  0  0  0  0  0
   -5.2500  -11.6913    0.0000 F   0  0  0  0  0  0  0  0  0  0  0  0
  1  2  2  0
  2  3  1  0
  3  4  1  0
  4  5  2  0
  5  6  1  0
  6  7  2  0
  7  8  1  0
  8  9  1  0
  9 10  2  0
 10 11  1  0
 11 12  2  0
 12 13  1  0
 13 14  1  0
 14 15  1  0
 15 16  1  0
 16 17  2  0
 16 18  1  0
 18 19  2  0
 19 20  1  0
 20 21  2  0
 21 22  1  0
 22 23  2  0
 14 24  2  0
 24 25  1  0
 25 26  2  0
  7 27  1  0
 27 28  2  0
  2 29  1  0
 29 30  1  0
 30 31  2  0
 31 32  1  0
 32 33  1  0
 33 34  1  0
 33 35  1  0
 33 36  1  0
 32 37  2  0
 37 38  1  0
 38 39  2  0
 39 40  1  0
 28  4  1  0
 39 30  1  0
 26  9  1  0
 25 12  1  0
 23 18  1  0
M  END
>  <Compound_ID>  (598) 
CHEMBL1909374

>  <Molecule Name>  (598) 
GW709042A

>  <Molecular Weight>  (598) 
585.95

>  <AlogP>  (598) 
7.41

>  <Smiles>  (598) 
O=C(Nc1ccc(Oc2ccc3[nH]c(NC(=O)c4ccccc4)nc3c2)cc1)Nc1cc(C(F)(F)F)ccc1F

>  <Standard Type>  (598) 
Inhibition

>  <Standard Relation>  (598) 
'='

>  <Standard Units>  (598) 
%

>  <Standard Value>  (598) 
19.23

>  <Assay ChEMBL ID>  (598) 
CHEMBL1962143

>  <Assay Description>  (598) 
GSK_PKIS: MET mean inhibition at 1 uM [Nanosyn]

>  <BAO Format ID>  (598) 
BAO_0000357

>  <BAO Label>  (598) 
single protein format

>  <Assay Organism>  (598) 
None

>  <Target ChEMBL ID>  (598) 
CHEMBL3717

>  <Target Name>  (598) 
Hepatocyte growth factor receptor

>  <Target Organism>  (598) 
Homo sapiens

>  <Target Type>  (598) 
SINGLE PROTEIN

>  <Document ChEMBL ID>  (598) 
CHEMBL1961873

>  <Source Description>  (598) 
GSK Published Kinase Inhibitor Set

>  <Document Journal>  (598) 
nan

>  <Document Year>  (598) 
nan

>  <Active>  (598) 
0.0

$$$$

     RDKit          2D

 28 31  0  0  0  0  0  0  0  0999 V2000
   12.7500   -3.8971    0.0000 C   0  0  0  0  0  0  0  0  0  0  0  0
   12.0000   -2.5981    0.0000 C   0  0  0  0  0  0  0  0  0  0  0  0
   12.7500   -1.2990    0.0000 O   0  0  0  0  0  0  0  0  0  0  0  0
   10.5000   -2.5981    0.0000 N   0  0  0  0  0  0  0  0  0  0  0  0
    9.7500   -3.8971    0.0000 C   0  0  0  0  0  0  0  0  0  0  0  0
    8.2500   -3.8971    0.0000 C   0  0  0  0  0  0  0  0  0  0  0  0
    7.5000   -2.5981    0.0000 N   0  0  0  0  0  0  0  0  0  0  0  0
    6.0000   -2.5981    0.0000 C   0  0  0  0  0  0  0  0  0  0  0  0
    5.2500   -1.2990    0.0000 C   0  0  0  0  0  0  0  0  0  0  0  0
    3.7500   -1.2990    0.0000 C   0  0  0  0  0  0  0  0  0  0  0  0
    3.0000   -2.5981    0.0000 C   0  0  0  0  0  0  0  0  0  0  0  0
    1.5000   -2.5981    0.0000 N   0  0  0  0  0  0  0  0  0  0  0  0
    0.7500   -1.2990    0.0000 C   0  0  0  0  0  0  0  0  0  0  0  0
    1.5000    0.0000    0.0000 N   0  0  0  0  0  0  0  0  0  0  0  0
    0.7500    1.2990    0.0000 C   0  0  0  0  0  0  0  0  0  0  0  0
   -0.7500    1.2990    0.0000 N   0  0  0  0  0  0  0  0  0  0  0  0
   -1.5000    0.0000    0.0000 N   0  0  0  0  0  0  0  0  0  0  0  0
   -2.9672   -0.3119    0.0000 C   0  0  0  0  0  0  0  0  0  0  0  0
   -3.1240   -1.8037    0.0000 C   0  0  0  0  0  0  0  0  0  0  0  0
   -1.7537   -2.4138    0.0000 C   0  0  0  0  0  0  0  0  0  0  0  0
   -1.4418   -3.8810    0.0000 C   0  0  0  0  0  0  0  0  0  0  0  0
   -2.5565   -4.8847    0.0000 C   0  0  0  0  0  0  0  0  0  0  0  0
   -0.0152   -4.3445    0.0000 C   0  0  0  0  0  0  0  0  0  0  0  0
   -0.7500   -1.2990    0.0000 C   0  0  0  0  0  0  0  0  0  0  0  0
    3.7500   -3.8971    0.0000 C   0  0  0  0  0  0  0  0  0  0  0  0
    5.2500   -3.8971    0.0000 C   0  0  0  0  0  0  0  0  0  0  0  0
    8.2500   -1.2990    0.0000 C   0  0  0  0  0  0  0  0  0  0  0  0
    9.7500   -1.2990    0.0000 C   0  0  0  0  0  0  0  0  0  0  0  0
  1  2  1  0
  2  3  2  0
  2  4  1  0
  4  5  1  0
  5  6  1  0
  6  7  1  0
  8  7  1  6
  8  9  1  0
  9 10  1  0
 10 11  1  0
 11 12  1  1
 12 13  1  0
 13 14  2  0
 14 15  1  0
 15 16  2  0
 16 17  1  0
 17 18  1  0
 18 19  2  0
 19 20  1  0
 20 21  1  0
 21 22  1  0
 21 23  1  0
 20 24  2  0
 11 25  1  0
 25 26  1  0
  7 27  1  0
 27 28  1  0
 28  4  1  0
 26  8  1  0
 24 13  1  0
 24 17  1  0
M  END
>  <Compound_ID>  (599) 
CHEMBL4278882

>  <Molecule Name>  (599) 
nan

>  <Molecular Weight>  (599) 
384.53

>  <AlogP>  (599) 
2.74

>  <Smiles>  (599) 
CC(=O)N1CCN([C@H]2CC[C@H](Nc3ncnn4ccc(C(C)C)c34)CC2)CC1

>  <Standard Type>  (599) 
Inhibition

>  <Standard Relation>  (599) 
'='

>  <Standard Units>  (599) 
%

>  <Standard Value>  (599) 
3.0

>  <Assay ChEMBL ID>  (599) 
CHEMBL4266589

>  <Assay Description>  (599) 
Inhibition of human MET at 1 uM relative to control

>  <BAO Format ID>  (599) 
BAO_0000357

>  <BAO Label>  (599) 
single protein format

>  <Assay Organism>  (599) 
Homo sapiens

>  <Target ChEMBL ID>  (599) 
CHEMBL3717

>  <Target Name>  (599) 
Hepatocyte growth factor receptor

>  <Target Organism>  (599) 
Homo sapiens

>  <Target Type>  (599) 
SINGLE PROTEIN

>  <Document ChEMBL ID>  (599) 
CHEMBL4265877

>  <Source Description>  (599) 
Scientific Literature

>  <Document Journal>  (599) 
Bioorg Med Chem

>  <Document Year>  (599) 
2018.0

>  <Active>  (599) 
0.0

$$$$

     RDKit          2D

 18 19  0  0  0  0  0  0  0  0999 V2000
    6.5218   -0.9664    0.0000 O   0  0  0  0  0  0  0  0  0  0  0  0
    5.3083   -1.8481    0.0000 C   0  0  0  0  0  0  0  0  0  0  0  0
    5.3083   -3.3481    0.0000 N   0  0  0  0  0  0  0  0  0  0  0  0
    3.8817   -3.8116    0.0000 C   0  0  0  0  0  0  0  0  0  0  0  0
    3.4182   -5.2382    0.0000 O   0  0  0  0  0  0  0  0  0  0  0  0
    3.0000   -2.5981    0.0000 C   0  0  0  0  0  0  0  0  0  0  0  0
    1.5000   -2.5981    0.0000 C   0  0  0  0  0  0  0  0  0  0  0  0
    0.7500   -1.2990    0.0000 C   0  0  0  0  0  0  0  0  0  0  0  0
    1.5000    0.0000    0.0000 C   0  0  0  0  0  0  0  0  0  0  0  0
    0.7500    1.2990    0.0000 C   0  0  0  0  0  0  0  0  0  0  0  0
   -0.7500    1.2990    0.0000 C   0  0  0  0  0  0  0  0  0  0  0  0
   -1.5000    0.0000    0.0000 C   0  0  0  0  0  0  0  0  0  0  0  0
   -3.0000    0.0000    0.0000 C   0  0  0  0  0  0  0  0  0  0  0  0
   -4.5000    0.0000    0.0000 F   0  0  0  0  0  0  0  0  0  0  0  0
   -3.0000    1.5000    0.0000 F   0  0  0  0  0  0  0  0  0  0  0  0
   -3.0000   -1.5000    0.0000 F   0  0  0  0  0  0  0  0  0  0  0  0
   -0.7500   -1.2990    0.0000 C   0  0  0  0  0  0  0  0  0  0  0  0
    3.8817   -1.3846    0.0000 S   0  0  0  0  0  0  0  0  0  0  0  0
  1  2  2  0
  2  3  1  0
  3  4  1  0
  4  5  2  0
  4  6  1  0
  6  7  2  0
  7  8  1  0
  8  9  2  0
  9 10  1  0
 10 11  2  0
 11 12  1  0
 12 13  1  0
 13 14  1  0
 13 15  1  0
 13 16  1  0
 12 17  2  0
  6 18  1  0
 18  2  1  0
 17  8  1  0
M  END
>  <Compound_ID>  (600) 
CHEMBL183906

>  <Molecule Name>  (600) 
nan

>  <Molecular Weight>  (600) 
273.24

>  <AlogP>  (600) 
3.03

>  <Smiles>  (600) 
O=C1NC(=O)/C(=C/c2cccc(C(F)(F)F)c2)S1

>  <Standard Type>  (600) 
Inhibition

>  <Standard Relation>  (600) 
'='

>  <Standard Units>  (600) 
%

>  <Standard Value>  (600) 
3.0

>  <Assay ChEMBL ID>  (600) 
CHEMBL1012703

>  <Assay Description>  (600) 
Inhibition of MET at 5 uM

>  <BAO Format ID>  (600) 
BAO_0000357

>  <BAO Label>  (600) 
single protein format

>  <Assay Organism>  (600) 
None

>  <Target ChEMBL ID>  (600) 
CHEMBL3717

>  <Target Name>  (600) 
Hepatocyte growth factor receptor

>  <Target Organism>  (600) 
Homo sapiens

>  <Target Type>  (600) 
SINGLE PROTEIN

>  <Document ChEMBL ID>  (600) 
CHEMBL1139352

>  <Source Description>  (600) 
Scientific Literature

>  <Document Journal>  (600) 
J Med Chem

>  <Document Year>  (600) 
2009.0

>  <Active>  (600) 
0.0

$$$$

     RDKit          2D

 28 31  0  0  0  0  0  0  0  0999 V2000
    3.0000    0.0000    0.0000 C   0  0  0  0  0  0  0  0  0  0  0  0
    1.5000    0.0000    0.0000 C   0  0  0  0  0  0  0  0  0  0  0  0
    0.7500   -1.2990    0.0000 C   0  0  0  0  0  0  0  0  0  0  0  0
   -0.7500   -1.2990    0.0000 C   0  0  0  0  0  0  0  0  0  0  0  0
   -1.5000    0.0000    0.0000 C   0  0  0  0  0  0  0  0  0  0  0  0
   -3.0000    0.0000    0.0000 N   0  0  0  0  0  0  0  0  0  0  0  0
   -3.7500    1.2990    0.0000 C   0  0  0  0  0  0  0  0  0  0  0  0
   -3.0000    2.5981    0.0000 O   0  0  0  0  0  0  0  0  0  0  0  0
   -5.2500    1.2990    0.0000 C   0  0  0  0  0  0  0  0  0  0  0  0
   -6.1317    0.0855    0.0000 C   0  0  0  0  0  0  0  0  0  0  0  0
   -7.5583    0.5490    0.0000 C   0  0  0  0  0  0  0  0  0  0  0  0
   -7.5583    2.0490    0.0000 O   0  0  0  0  0  0  0  0  0  0  0  0
   -6.1317    2.5126    0.0000 C   0  0  0  0  0  0  0  0  0  0  0  0
   -0.7500    1.2990    0.0000 C   0  0  0  0  0  0  0  0  0  0  0  0
    0.7500    1.2990    0.0000 C   0  0  0  0  0  0  0  0  0  0  0  0
    1.5000    2.5981    0.0000 C   0  0  0  0  0  0  0  0  0  0  0  0
    3.0000    2.5981    0.0000 C   0  0  0  0  0  0  0  0  0  0  0  0
    3.7500    3.8971    0.0000 C   0  0  0  0  0  0  0  0  0  0  0  0
    3.0000    5.1962    0.0000 C   0  0  0  0  0  0  0  0  0  0  0  0
    3.7500    6.4952    0.0000 C   0  0  0  0  0  0  0  0  0  0  0  0
    3.0000    7.7942    0.0000 O   0  0  0  0  0  0  0  0  0  0  0  0
    5.2500    6.4952    0.0000 N   0  0  0  0  0  0  0  0  0  0  0  0
    6.0000    7.7942    0.0000 C   0  0  0  0  0  0  0  0  0  0  0  0
    7.5000    7.7942    0.0000 C   0  0  0  0  0  0  0  0  0  0  0  0
    8.7990    8.5442    0.0000 C   0  0  0  0  0  0  0  0  0  0  0  0
    8.7990    7.0442    0.0000 C   0  0  0  0  0  0  0  0  0  0  0  0
    1.5000    5.1962    0.0000 C   0  0  0  0  0  0  0  0  0  0  0  0
    0.7500    3.8971    0.0000 C   0  0  0  0  0  0  0  0  0  0  0  0
  1  2  1  0
  2  3  2  0
  3  4  1  0
  4  5  2  0
  5  6  1  0
  6  7  1  0
  7  8  2  0
  7  9  1  0
  9 10  1  0
 10 11  2  0
 11 12  1  0
 12 13  1  0
  5 14  1  0
 14 15  2  0
 15 16  1  0
 16 17  2  0
 17 18  1  0
 18 19  2  0
 19 20  1  0
 20 21  2  0
 20 22  1  0
 22 23  1  0
 23 24  1  0
 24 25  1  0
 25 26  1  0
 19 27  1  0
 27 28  2  0
 15  2  1  0
 28 16  1  0
 13  9  2  0
 26 24  1  0
M  END
>  <Compound_ID>  (601) 
CHEMBL477583

>  <Molecule Name>  (601) 
GW743024X

>  <Molecular Weight>  (601) 
374.44

>  <AlogP>  (601) 
4.65

>  <Smiles>  (601) 
Cc1ccc(NC(=O)c2ccoc2)cc1-c1ccc(C(=O)NCC2CC2)cc1

>  <Standard Type>  (601) 
Inhibition

>  <Standard Relation>  (601) 
'='

>  <Standard Units>  (601) 
%

>  <Standard Value>  (601) 
0.85

>  <Assay ChEMBL ID>  (601) 
CHEMBL1962143

>  <Assay Description>  (601) 
GSK_PKIS: MET mean inhibition at 1 uM [Nanosyn]

>  <BAO Format ID>  (601) 
BAO_0000357

>  <BAO Label>  (601) 
single protein format

>  <Assay Organism>  (601) 
None

>  <Target ChEMBL ID>  (601) 
CHEMBL3717

>  <Target Name>  (601) 
Hepatocyte growth factor receptor

>  <Target Organism>  (601) 
Homo sapiens

>  <Target Type>  (601) 
SINGLE PROTEIN

>  <Document ChEMBL ID>  (601) 
CHEMBL1961873

>  <Source Description>  (601) 
GSK Published Kinase Inhibitor Set

>  <Document Journal>  (601) 
nan

>  <Document Year>  (601) 
nan

>  <Active>  (601) 
0.0

$$$$

     RDKit          2D

 18 20  0  0  0  0  0  0  0  0999 V2000
    1.5000    0.0000    0.0000 C   0  0  0  0  0  0  0  0  0  0  0  0
    0.7500   -1.2990    0.0000 C   0  0  0  0  0  0  0  0  0  0  0  0
   -0.7500   -1.2990    0.0000 C   0  0  0  0  0  0  0  0  0  0  0  0
   -1.5000    0.0000    0.0000 C   0  0  0  0  0  0  0  0  0  0  0  0
   -3.0000    0.0000    0.0000 N   0  0  0  0  0  0  0  0  0  0  0  0
   -3.7500    1.2990    0.0000 C   0  0  0  0  0  0  0  0  0  0  0  0
   -5.2418    1.4558    0.0000 N   0  0  0  0  0  0  0  0  0  0  0  0
   -5.5537    2.9231    0.0000 C   0  0  0  0  0  0  0  0  0  0  0  0
   -4.2546    3.6731    0.0000 C   0  0  0  0  0  0  0  0  0  0  0  0
   -4.0978    5.1648    0.0000 C   0  0  0  0  0  0  0  0  0  0  0  0
   -2.7275    5.7749    0.0000 C   0  0  0  0  0  0  0  0  0  0  0  0
   -2.5707    7.2667    0.0000 C   0  0  0  0  0  0  0  0  0  0  0  0
   -3.7842    8.1484    0.0000 C   0  0  0  0  0  0  0  0  0  0  0  0
   -5.1546    7.5383    0.0000 C   0  0  0  0  0  0  0  0  0  0  0  0
   -5.3113    6.0465    0.0000 C   0  0  0  0  0  0  0  0  0  0  0  0
   -3.1399    2.6694    0.0000 O   0  0  0  0  0  0  0  0  0  0  0  0
   -0.7500    1.2990    0.0000 C   0  0  0  0  0  0  0  0  0  0  0  0
    0.7500    1.2990    0.0000 C   0  0  0  0  0  0  0  0  0  0  0  0
  1  2  2  0
  2  3  1  0
  3  4  2  0
  4  5  1  0
  5  6  1  0
  6  7  2  0
  7  8  1  0
  8  9  2  0
  9 10  1  0
 10 11  2  0
 11 12  1  0
 12 13  2  0
 13 14  1  0
 14 15  2  0
  9 16  1  0
  4 17  1  0
 17 18  2  0
 18  1  1  0
 16  6  1  0
 15 10  1  0
M  END
>  <Compound_ID>  (602) 
CHEMBL318728

>  <Molecule Name>  (602) 
GW549390X

>  <Molecular Weight>  (602) 
236.27

>  <AlogP>  (602) 
4.09

>  <Smiles>  (602) 
c1ccc(Nc2ncc(-c3ccccc3)o2)cc1

>  <Standard Type>  (602) 
Inhibition

>  <Standard Relation>  (602) 
'='

>  <Standard Units>  (602) 
%

>  <Standard Value>  (602) 
3.87

>  <Assay ChEMBL ID>  (602) 
CHEMBL1962142

>  <Assay Description>  (602) 
GSK_PKIS: MET mean inhibition at 0.1 uM [Nanosyn]

>  <BAO Format ID>  (602) 
BAO_0000357

>  <BAO Label>  (602) 
single protein format

>  <Assay Organism>  (602) 
None

>  <Target ChEMBL ID>  (602) 
CHEMBL3717

>  <Target Name>  (602) 
Hepatocyte growth factor receptor

>  <Target Organism>  (602) 
Homo sapiens

>  <Target Type>  (602) 
SINGLE PROTEIN

>  <Document ChEMBL ID>  (602) 
CHEMBL1961873

>  <Source Description>  (602) 
GSK Published Kinase Inhibitor Set

>  <Document Journal>  (602) 
nan

>  <Document Year>  (602) 
nan

>  <Active>  (602) 
0.0

$$$$

     RDKit          2D

 30 33  0  0  0  0  0  0  0  0999 V2000
   -3.7500    1.2990    0.0000 C   0  0  0  0  0  0  0  0  0  0  0  0
   -3.0000    0.0000    0.0000 O   0  0  0  0  0  0  0  0  0  0  0  0
   -3.7500   -1.2990    0.0000 C   0  0  0  0  0  0  0  0  0  0  0  0
   -3.0000   -2.5981    0.0000 C   0  0  0  0  0  0  0  0  0  0  0  0
   -3.7500   -3.8971    0.0000 C   0  0  0  0  0  0  0  0  0  0  0  0
   -3.0000   -5.1962    0.0000 N   0  0  0  0  0  0  0  0  0  0  0  0
   -1.5000   -5.1962    0.0000 C   0  0  0  0  0  0  0  0  0  0  0  0
   -0.7500   -6.4952    0.0000 N   0  0  0  0  0  0  0  0  0  0  0  0
    0.7500   -6.4952    0.0000 C   0  0  0  0  0  0  0  0  0  0  0  0
    1.5000   -5.1962    0.0000 C   0  0  0  0  0  0  0  0  0  0  0  0
    0.7500   -3.8971    0.0000 C   0  0  0  0  0  0  0  0  0  0  0  0
    1.5000   -2.5981    0.0000 N   0  0  0  0  0  0  0  0  0  0  0  0
    0.7500   -1.2990    0.0000 C   0  0  0  0  0  0  0  0  0  0  0  0
   -0.7500   -1.2990    0.0000 C   0  0  0  0  0  0  0  0  0  0  0  0
   -1.5000   -0.0000    0.0000 C   0  0  0  0  0  0  0  0  0  0  0  0
   -0.7500    1.2990    0.0000 C   0  0  0  0  0  0  0  0  0  0  0  0
   -1.2135    2.7256    0.0000 C   0  0  0  0  0  0  0  0  0  0  0  0
   -2.6401    3.1891    0.0000 C   0  0  0  0  0  0  0  0  0  0  0  0
   -0.0000    3.6073    0.0000 N   0  0  0  0  0  0  0  0  0  0  0  0
    1.2135    2.7256    0.0000 N   0  0  0  0  0  0  0  0  0  0  0  0
    0.7500    1.2990    0.0000 C   0  0  0  0  0  0  0  0  0  0  0  0
    1.5000   -0.0000    0.0000 C   0  0  0  0  0  0  0  0  0  0  0  0
   -0.7500   -3.8971    0.0000 N   0  0  0  0  0  0  0  0  0  0  0  0
   -5.2500   -3.8971    0.0000 C   0  0  0  0  0  0  0  0  0  0  0  0
   -6.0000   -2.5981    0.0000 C   0  0  0  0  0  0  0  0  0  0  0  0
   -7.5000   -2.5981    0.0000 O   0  0  0  0  0  0  0  0  0  0  0  0
   -8.2500   -1.2990    0.0000 C   0  0  0  0  0  0  0  0  0  0  0  0
   -5.2500   -1.2990    0.0000 C   0  0  0  0  0  0  0  0  0  0  0  0
   -6.0000    0.0000    0.0000 O   0  0  0  0  0  0  0  0  0  0  0  0
   -7.5000    0.0000    0.0000 C   0  0  0  0  0  0  0  0  0  0  0  0
  1  2  1  0
  2  3  1  0
  3  4  2  0
  4  5  1  0
  5  6  1  0
  6  7  1  0
  7  8  2  0
  8  9  1  0
  9 10  2  0
 10 11  1  0
 11 12  1  0
 12 13  1  0
 13 14  2  0
 14 15  1  0
 15 16  2  0
 16 17  1  0
 17 18  1  0
 17 19  2  0
 19 20  1  0
 20 21  1  0
 21 22  2  0
 11 23  2  0
  5 24  2  0
 24 25  1  0
 25 26  1  0
 26 27  1  0
 25 28  2  0
 28 29  1  0
 29 30  1  0
 28  3  1  0
 23  7  1  0
 22 13  1  0
 21 16  1  0
M  END
>  <Compound_ID>  (603) 
CHEMBL479079

>  <Molecule Name>  (603) 
GW612286X

>  <Molecular Weight>  (603) 
406.45

>  <AlogP>  (603) 
4.17

>  <Smiles>  (603) 
COc1cc(Nc2nccc(Nc3ccc4c(C)n[nH]c4c3)n2)cc(OC)c1OC

>  <Standard Type>  (603) 
Inhibition

>  <Standard Relation>  (603) 
'='

>  <Standard Units>  (603) 
%

>  <Standard Value>  (603) 
12.3

>  <Assay ChEMBL ID>  (603) 
CHEMBL1962143

>  <Assay Description>  (603) 
GSK_PKIS: MET mean inhibition at 1 uM [Nanosyn]

>  <BAO Format ID>  (603) 
BAO_0000357

>  <BAO Label>  (603) 
single protein format

>  <Assay Organism>  (603) 
None

>  <Target ChEMBL ID>  (603) 
CHEMBL3717

>  <Target Name>  (603) 
Hepatocyte growth factor receptor

>  <Target Organism>  (603) 
Homo sapiens

>  <Target Type>  (603) 
SINGLE PROTEIN

>  <Document ChEMBL ID>  (603) 
CHEMBL1961873

>  <Source Description>  (603) 
GSK Published Kinase Inhibitor Set

>  <Document Journal>  (603) 
nan

>  <Document Year>  (603) 
nan

>  <Active>  (603) 
0.0

$$$$

     RDKit          2D

 25 29  0  0  0  0  0  0  0  0999 V2000
    3.0000    0.0000    0.0000 C   0  0  0  0  0  0  0  0  0  0  0  0
    1.5000    0.0000    0.0000 C   0  0  0  0  0  0  0  0  0  0  0  0
    0.7500   -1.2990    0.0000 C   0  0  0  0  0  0  0  0  0  0  0  0
   -0.7500   -1.2990    0.0000 C   0  0  0  0  0  0  0  0  0  0  0  0
   -1.5000    0.0000    0.0000 C   0  0  0  0  0  0  0  0  0  0  0  0
   -2.9672    0.3119    0.0000 C   0  0  0  0  0  0  0  0  0  0  0  0
   -3.1240    1.8037    0.0000 C   0  0  0  0  0  0  0  0  0  0  0  0
   -4.4231    2.5537    0.0000 C   0  0  0  0  0  0  0  0  0  0  0  0
   -4.5798    4.0454    0.0000 N   0  0  0  0  0  0  0  0  0  0  0  0
   -6.0471    4.3573    0.0000 N   0  0  0  0  0  0  0  0  0  0  0  0
   -6.7971    3.0583    0.0000 C   0  0  0  0  0  0  0  0  0  0  0  0
   -8.2643    2.7464    0.0000 C   0  0  0  0  0  0  0  0  0  0  0  0
   -8.7278    1.3198    0.0000 C   0  0  0  0  0  0  0  0  0  0  0  0
   -7.7241    0.2051    0.0000 C   0  0  0  0  0  0  0  0  0  0  0  0
   -8.1876   -1.2215    0.0000 N   0  0  0  0  0  0  0  0  0  0  0  0
   -9.6549   -1.5334    0.0000 C   0  0  0  0  0  0  0  0  0  0  0  0
  -10.2650   -2.9037    0.0000 C   0  0  0  0  0  0  0  0  0  0  0  0
  -11.7568   -2.7469    0.0000 C   0  0  0  0  0  0  0  0  0  0  0  0
  -12.0686   -1.2797    0.0000 N   0  0  0  0  0  0  0  0  0  0  0  0
  -10.7696   -0.5297    0.0000 C   0  0  0  0  0  0  0  0  0  0  0  0
   -6.2569    0.5170    0.0000 C   0  0  0  0  0  0  0  0  0  0  0  0
   -5.7934    1.9435    0.0000 C   0  0  0  0  0  0  0  0  0  0  0  0
   -1.7537    2.4138    0.0000 N   0  0  0  0  0  0  0  0  0  0  0  0
   -0.7500    1.2990    0.0000 C   0  0  0  0  0  0  0  0  0  0  0  0
    0.7500    1.2990    0.0000 C   0  0  0  0  0  0  0  0  0  0  0  0
  1  2  1  0
  2  3  2  0
  3  4  1  0
  4  5  2  0
  5  6  1  0
  6  7  2  0
  7  8  1  0
  8  9  2  0
  9 10  1  0
 10 11  1  0
 11 12  2  0
 12 13  1  0
 13 14  2  0
 14 15  1  0
 15 16  1  0
 16 17  1  0
 17 18  1  0
 18 19  1  0
 19 20  1  0
 14 21  1  0
 21 22  2  0
  7 23  1  0
 23 24  1  0
 24 25  2  0
 25  2  1  0
 24  5  1  0
 22  8  1  0
 22 11  1  0
 20 16  1  0
M  END
>  <Compound_ID>  (604) 
CHEMBL1684654

>  <Molecule Name>  (604) 
nan

>  <Molecular Weight>  (604) 
331.42

>  <AlogP>  (604) 
3.79

>  <Smiles>  (604) 
Cc1ccc2cc(-c3n[nH]c4ccc(NC5CCNC5)cc34)[nH]c2c1

>  <Standard Type>  (604) 
Inhibition

>  <Standard Relation>  (604) 
'='

>  <Standard Units>  (604) 
%

>  <Standard Value>  (604) 
6.0

>  <Assay ChEMBL ID>  (604) 
CHEMBL1686056

>  <Assay Description>  (604) 
Inhibition of Met at 1 uM

>  <BAO Format ID>  (604) 
BAO_0000357

>  <BAO Label>  (604) 
single protein format

>  <Assay Organism>  (604) 
None

>  <Target ChEMBL ID>  (604) 
CHEMBL3717

>  <Target Name>  (604) 
Hepatocyte growth factor receptor

>  <Target Organism>  (604) 
Homo sapiens

>  <Target Type>  (604) 
SINGLE PROTEIN

>  <Document ChEMBL ID>  (604) 
CHEMBL1681705

>  <Source Description>  (604) 
Scientific Literature

>  <Document Journal>  (604) 
Bioorg Med Chem Lett

>  <Document Year>  (604) 
2011.0

>  <Active>  (604) 
0.0

$$$$

     RDKit          2D

 36 40  0  0  0  0  0  0  0  0999 V2000
   -8.2322   -0.7949    0.0000 C   0  0  0  0  0  0  0  0  0  0  0  0
   -6.8056   -1.2584    0.0000 C   0  0  0  0  0  0  0  0  0  0  0  0
   -6.4937   -2.7256    0.0000 O   0  0  0  0  0  0  0  0  0  0  0  0
   -5.0672   -3.1891    0.0000 C   0  0  0  0  0  0  0  0  0  0  0  0
   -3.8536   -2.3075    0.0000 C   0  0  0  0  0  0  0  0  0  0  0  0
   -2.6401   -3.1891    0.0000 C   0  0  0  0  0  0  0  0  0  0  0  0
   -1.2135   -2.7256    0.0000 N   0  0  0  0  0  0  0  0  0  0  0  0
   -0.0000   -3.6073    0.0000 C   0  0  0  0  0  0  0  0  0  0  0  0
    1.2135   -2.7256    0.0000 N   0  0  0  0  0  0  0  0  0  0  0  0
    0.7500   -1.2990    0.0000 C   0  0  0  0  0  0  0  0  0  0  0  0
    1.5000    0.0000    0.0000 C   0  0  0  0  0  0  0  0  0  0  0  0
    0.7500    1.2990    0.0000 C   0  0  0  0  0  0  0  0  0  0  0  0
   -0.7500    1.2990    0.0000 C   0  0  0  0  0  0  0  0  0  0  0  0
   -1.5000    2.5981    0.0000 O   0  0  0  0  0  0  0  0  0  0  0  0
   -0.7500    3.8971    0.0000 C   0  0  0  0  0  0  0  0  0  0  0  0
   -1.5000    5.1962    0.0000 C   0  0  0  0  0  0  0  0  0  0  0  0
   -0.7500    6.4952    0.0000 C   0  0  0  0  0  0  0  0  0  0  0  0
   -1.5000    7.7942    0.0000 C   0  0  0  0  0  0  0  0  0  0  0  0
   -3.0000    7.7942    0.0000 N   0  0  0  0  0  0  0  0  0  0  0  0
   -3.7500    9.0933    0.0000 C   0  0  0  0  0  0  0  0  0  0  0  0
   -3.7500    6.4952    0.0000 C   0  0  0  0  0  0  0  0  0  0  0  0
   -3.0000    5.1962    0.0000 C   0  0  0  0  0  0  0  0  0  0  0  0
   -1.5000    0.0000    0.0000 C   0  0  0  0  0  0  0  0  0  0  0  0
   -0.7500   -1.2990    0.0000 C   0  0  0  0  0  0  0  0  0  0  0  0
   -3.1036   -4.6157    0.0000 S   0  0  0  0  0  0  0  0  0  0  0  0
   -4.6036   -4.6157    0.0000 C   0  0  0  0  0  0  0  0  0  0  0  0
   -5.4853   -5.8293    0.0000 C   0  0  0  0  0  0  0  0  0  0  0  0
   -4.8752   -7.1996    0.0000 N   0  0  0  0  0  0  0  0  0  0  0  0
   -6.9771   -5.6725    0.0000 O   0  0  0  0  0  0  0  0  0  0  0  0
   -5.6909   -0.2547    0.0000 C   0  0  0  0  0  0  0  0  0  0  0  0
   -4.2643   -0.7182    0.0000 C   0  0  0  0  0  0  0  0  0  0  0  0
   -3.1496    0.2855    0.0000 C   0  0  0  0  0  0  0  0  0  0  0  0
   -3.4615    1.7527    0.0000 C   0  0  0  0  0  0  0  0  0  0  0  0
   -4.8880    2.2162    0.0000 C   0  0  0  0  0  0  0  0  0  0  0  0
   -6.0028    1.2125    0.0000 C   0  0  0  0  0  0  0  0  0  0  0  0
   -7.4293    1.6760    0.0000 Cl  0  0  0  0  0  0  0  0  0  0  0  0
  2  1  1  6
  2  3  1  0
  3  4  1  0
  4  5  1  0
  5  6  2  0
  6  7  1  0
  7  8  1  0
  8  9  2  0
  9 10  1  0
 10 11  2  0
 11 12  1  0
 12 13  2  0
 13 14  1  0
 14 15  1  0
 15 16  1  0
 16 17  1  0
 17 18  1  0
 18 19  1  0
 19 20  1  0
 19 21  1  0
 21 22  1  0
 13 23  1  0
 23 24  2  0
  6 25  1  0
 25 26  1  0
 26 27  1  0
 27 28  1  0
 27 29  2  0
  2 30  1  0
 30 31  2  0
 31 32  1  0
 32 33  2  0
 33 34  1  0
 34 35  2  0
 35 36  1  0
 26  4  2  0
 35 30  1  0
 24  7  1  0
 24 10  1  0
 22 16  1  0
M  END
>  <Compound_ID>  (605) 
CHEMBL1794069

>  <Molecule Name>  (605) 
GSK-571989A

>  <Molecular Weight>  (605) 
525.07

>  <AlogP>  (605) 
5.70

>  <Smiles>  (605) 
C[C@@H](Oc1cc(-n2cnc3ccc(OCC4CCN(C)CC4)cc32)sc1C(N)=O)c1ccccc1Cl

>  <Standard Type>  (605) 
Inhibition

>  <Standard Relation>  (605) 
'='

>  <Standard Units>  (605) 
%

>  <Standard Value>  (605) 
9.62

>  <Assay ChEMBL ID>  (605) 
CHEMBL1962143

>  <Assay Description>  (605) 
GSK_PKIS: MET mean inhibition at 1 uM [Nanosyn]

>  <BAO Format ID>  (605) 
BAO_0000357

>  <BAO Label>  (605) 
single protein format

>  <Assay Organism>  (605) 
None

>  <Target ChEMBL ID>  (605) 
CHEMBL3717

>  <Target Name>  (605) 
Hepatocyte growth factor receptor

>  <Target Organism>  (605) 
Homo sapiens

>  <Target Type>  (605) 
SINGLE PROTEIN

>  <Document ChEMBL ID>  (605) 
CHEMBL1961873

>  <Source Description>  (605) 
GSK Published Kinase Inhibitor Set

>  <Document Journal>  (605) 
nan

>  <Document Year>  (605) 
nan

>  <Active>  (605) 
0.0

$$$$

     RDKit          2D

 38 43  0  0  0  0  0  0  0  0999 V2000
    4.5000    0.0000    0.0000 N   0  0  0  0  0  0  0  0  0  0  0  0
    3.0000    0.0000    0.0000 C   0  0  0  0  0  0  0  0  0  0  0  0
    1.5000    0.0000    0.0000 C   0  0  0  0  0  0  0  0  0  0  0  0
    0.7500   -1.2990    0.0000 C   0  0  0  0  0  0  0  0  0  0  0  0
    1.5000   -2.5981    0.0000 C   0  0  0  0  0  0  0  0  0  0  0  0
    0.7500   -3.8971    0.0000 C   0  0  0  0  0  0  0  0  0  0  0  0
    1.5000   -5.1962    0.0000 C   0  0  0  0  0  0  0  0  0  0  0  0
    3.0000   -5.1962    0.0000 C   0  0  0  0  0  0  0  0  0  0  0  0
    3.7500   -3.8971    0.0000 C   0  0  0  0  0  0  0  0  0  0  0  0
    3.0000   -2.5981    0.0000 C   0  0  0  0  0  0  0  0  0  0  0  0
   -0.7500   -1.2990    0.0000 C   0  0  0  0  0  0  0  0  0  0  0  0
   -1.5000    0.0000    0.0000 C   0  0  0  0  0  0  0  0  0  0  0  0
   -3.0000    0.0000    0.0000 C   0  0  0  0  0  0  0  0  0  0  0  0
   -3.7500    1.2990    0.0000 C   0  0  0  0  0  0  0  0  0  0  0  0
   -5.2500    1.2990    0.0000 C   0  0  0  0  0  0  0  0  0  0  0  0
   -6.0000    0.0000    0.0000 C   0  0  0  0  0  0  0  0  0  0  0  0
   -5.2500   -1.2990    0.0000 C   0  0  0  0  0  0  0  0  0  0  0  0
   -3.7500   -1.2990    0.0000 C   0  0  0  0  0  0  0  0  0  0  0  0
   -0.7500    1.2990    0.0000 N   0  0  0  0  0  0  0  0  0  0  0  0
    0.7500    1.2990    0.0000 C   0  0  0  0  0  0  0  0  0  0  0  0
    1.5000    2.5981    0.0000 N   0  0  0  0  0  0  0  0  0  0  0  0
    0.7500    3.8971    0.0000 C   0  0  0  0  0  0  0  0  0  0  0  0
   -0.7418    4.0539    0.0000 S   0  0  0  0  0  0  0  0  0  0  0  0
   -1.0537    5.5211    0.0000 C   0  0  0  0  0  0  0  0  0  0  0  0
    0.2454    6.2711    0.0000 C   0  0  0  0  0  0  0  0  0  0  0  0
    0.4022    7.7629    0.0000 C   0  0  0  0  0  0  0  0  0  0  0  0
    1.7725    8.3730    0.0000 C   0  0  0  0  0  0  0  0  0  0  0  0
    1.9293    9.8648    0.0000 C   0  0  0  0  0  0  0  0  0  0  0  0
    0.7158   10.7465    0.0000 C   0  0  0  0  0  0  0  0  0  0  0  0
   -0.6546   10.1364    0.0000 C   0  0  0  0  0  0  0  0  0  0  0  0
   -0.8113    8.6446    0.0000 C   0  0  0  0  0  0  0  0  0  0  0  0
    1.3601    5.2674    0.0000 N   0  0  0  0  0  0  0  0  0  0  0  0
    2.8273    5.5793    0.0000 C   0  0  0  0  0  0  0  0  0  0  0  0
    3.8310    4.4646    0.0000 C   0  0  0  0  0  0  0  0  0  0  0  0
    5.2982    4.7765    0.0000 C   0  0  0  0  0  0  0  0  0  0  0  0
    5.7618    6.2030    0.0000 C   0  0  0  0  0  0  0  0  0  0  0  0
    4.7581    7.3178    0.0000 C   0  0  0  0  0  0  0  0  0  0  0  0
    3.2909    7.0059    0.0000 C   0  0  0  0  0  0  0  0  0  0  0  0
  1  2  3  0
  2  3  1  0
  3  4  2  0
  4  5  1  0
  5  6  2  0
  6  7  1  0
  7  8  2  0
  8  9  1  0
  9 10  2  0
  4 11  1  0
 11 12  2  0
 12 13  1  0
 13 14  2  0
 14 15  1  0
 15 16  2  0
 16 17  1  0
 17 18  2  0
 12 19  1  0
 19 20  2  0
 20 21  1  0
 21 22  2  0
 22 23  1  0
 23 24  1  0
 24 25  2  0
 25 26  1  0
 26 27  2  0
 27 28  1  0
 28 29  2  0
 29 30  1  0
 30 31  2  0
 25 32  1  0
 32 33  1  0
 33 34  2  0
 34 35  1  0
 35 36  2  0
 36 37  1  0
 37 38  2  0
 20  3  1  0
 32 22  1  0
 38 33  1  0
 10  5  1  0
 18 13  1  0
 31 26  1  0
M  END
>  <Compound_ID>  (606) 
CHEMBL3408392

>  <Molecule Name>  (606) 
nan

>  <Molecular Weight>  (606) 
506.63

>  <AlogP>  (606) 
8.04

>  <Smiles>  (606) 
N#Cc1c(-c2ccccc2)cc(-c2ccccc2)nc1/N=c1\scc(-c2ccccc2)n1-c1ccccc1

>  <Standard Type>  (606) 
Inhibition

>  <Standard Relation>  (606) 
'='

>  <Standard Units>  (606) 
%

>  <Standard Value>  (606) 
0.0

>  <Assay ChEMBL ID>  (606) 
CHEMBL3413727

>  <Assay Description>  (606) 
Inhibition of MET (unknown origin) assessed as inhibition of peptide phosphorylation at 30 uM by based microfluidic mobility shift assay

>  <BAO Format ID>  (606) 
BAO_0000357

>  <BAO Label>  (606) 
single protein format

>  <Assay Organism>  (606) 
Homo sapiens

>  <Target ChEMBL ID>  (606) 
CHEMBL3717

>  <Target Name>  (606) 
Hepatocyte growth factor receptor

>  <Target Organism>  (606) 
Homo sapiens

>  <Target Type>  (606) 
SINGLE PROTEIN

>  <Document ChEMBL ID>  (606) 
CHEMBL3407353

>  <Source Description>  (606) 
Scientific Literature

>  <Document Journal>  (606) 
Eur J Med Chem

>  <Document Year>  (606) 
2015.0

>  <Active>  (606) 
0.0

$$$$

     RDKit          2D

 47 53  0  0  0  0  0  0  0  0999 V2000
    4.8308   -6.3240    0.0000 C   0  0  0  0  0  0  0  0  0  0  0  0
    4.6740   -4.8322    0.0000 C   0  0  0  0  0  0  0  0  0  0  0  0
    5.8875   -3.9505    0.0000 O   0  0  0  0  0  0  0  0  0  0  0  0
    3.3037   -4.2221    0.0000 C   0  0  0  0  0  0  0  0  0  0  0  0
    2.9918   -2.7549    0.0000 N   0  0  0  0  0  0  0  0  0  0  0  0
    1.5000   -2.5981    0.0000 N   0  0  0  0  0  0  0  0  0  0  0  0
    0.7500   -1.2990    0.0000 C   0  0  0  0  0  0  0  0  0  0  0  0
    1.5000    0.0000    0.0000 C   0  0  0  0  0  0  0  0  0  0  0  0
    0.7500    1.2990    0.0000 C   0  0  0  0  0  0  0  0  0  0  0  0
   -0.7500    1.2990    0.0000 C   0  0  0  0  0  0  0  0  0  0  0  0
   -1.5000    0.0000    0.0000 C   0  0  0  0  0  0  0  0  0  0  0  0
   -0.7500   -1.2990    0.0000 C   0  0  0  0  0  0  0  0  0  0  0  0
    0.8899   -3.9684    0.0000 C   0  0  0  0  0  0  0  0  0  0  0  0
   -0.5773   -4.2803    0.0000 C   0  0  0  0  0  0  0  0  0  0  0  0
   -1.1874   -5.6506    0.0000 S   0  0  0  0  0  0  0  0  0  0  0  0
   -2.6792   -5.4938    0.0000 C   0  0  0  0  0  0  0  0  0  0  0  0
   -3.6829   -6.6085    0.0000 N   0  0  0  0  0  0  0  0  0  0  0  0
   -3.2194   -8.0351    0.0000 C   0  0  0  0  0  0  0  0  0  0  0  0
   -4.2231   -9.1498    0.0000 N   0  0  0  0  0  0  0  0  0  0  0  0
   -3.7596  -10.5764    0.0000 C   0  0  0  0  0  0  0  0  0  0  0  0
   -4.7633  -11.6911    0.0000 C   0  0  0  0  0  0  0  0  0  0  0  0
   -6.2305  -11.3792    0.0000 C   0  0  0  0  0  0  0  0  0  0  0  0
   -7.2342  -12.4940    0.0000 C   0  0  0  0  0  0  0  0  0  0  0  0
   -6.7706  -13.9205    0.0000 C   0  0  0  0  0  0  0  0  0  0  0  0
   -5.3034  -14.2324    0.0000 C   0  0  0  0  0  0  0  0  0  0  0  0
   -4.2997  -13.1177    0.0000 C   0  0  0  0  0  0  0  0  0  0  0  0
   -2.2923  -10.8883    0.0000 C   0  0  0  0  0  0  0  0  0  0  0  0
   -1.2886   -9.7735    0.0000 C   0  0  0  0  0  0  0  0  0  0  0  0
    0.1786  -10.0854    0.0000 C   0  0  0  0  0  0  0  0  0  0  0  0
    0.6421  -11.5120    0.0000 C   0  0  0  0  0  0  0  0  0  0  0  0
    2.1093  -11.8239    0.0000 C   0  0  0  0  0  0  0  0  0  0  0  0
    3.1130  -10.7091    0.0000 C   0  0  0  0  0  0  0  0  0  0  0  0
    2.6495   -9.2826    0.0000 C   0  0  0  0  0  0  0  0  0  0  0  0
    1.1823   -8.9707    0.0000 C   0  0  0  0  0  0  0  0  0  0  0  0
   -1.7522   -8.3470    0.0000 C   0  0  0  0  0  0  0  0  0  0  0  0
   -0.7485   -7.2322    0.0000 C   0  0  0  0  0  0  0  0  0  0  0  0
    0.2552   -6.1175    0.0000 N   0  0  0  0  0  0  0  0  0  0  0  0
   -2.9911   -4.0266    0.0000 N   0  0  0  0  0  0  0  0  0  0  0  0
   -4.3614   -3.4165    0.0000 C   0  0  0  0  0  0  0  0  0  0  0  0
   -4.5182   -1.9247    0.0000 C   0  0  0  0  0  0  0  0  0  0  0  0
   -5.8885   -1.3146    0.0000 C   0  0  0  0  0  0  0  0  0  0  0  0
   -7.1020   -2.1963    0.0000 C   0  0  0  0  0  0  0  0  0  0  0  0
   -6.9452   -3.6880    0.0000 C   0  0  0  0  0  0  0  0  0  0  0  0
   -5.5749   -4.2981    0.0000 C   0  0  0  0  0  0  0  0  0  0  0  0
   -1.6920   -3.2766    0.0000 C   0  0  0  0  0  0  0  0  0  0  0  0
   -1.5353   -1.7848    0.0000 O   0  0  0  0  0  0  0  0  0  0  0  0
    2.0046   -4.9721    0.0000 S   0  0  0  0  0  0  0  0  0  0  0  0
  1  2  1  0
  2  3  2  0
  2  4  1  0
  4  5  2  0
  5  6  1  0
  6  7  1  0
  7  8  2  0
  8  9  1  0
  9 10  2  0
 10 11  1  0
 11 12  2  0
  6 13  1  0
 13 14  2  0
 14 15  1  0
 15 16  1  0
 16 17  2  0
 17 18  1  0
 18 19  2  0
 19 20  1  0
 20 21  1  0
 21 22  2  0
 22 23  1  0
 23 24  2  0
 24 25  1  0
 25 26  2  0
 20 27  2  0
 27 28  1  0
 28 29  1  0
 29 30  2  0
 30 31  1  0
 31 32  2  0
 32 33  1  0
 33 34  2  0
 28 35  2  0
 35 36  1  0
 36 37  3  0
 16 38  1  0
 38 39  1  0
 39 40  2  0
 40 41  1  0
 41 42  2  0
 42 43  1  0
 43 44  2  0
 38 45  1  0
 45 46  2  0
 13 47  1  0
 47  4  1  0
 12  7  1  0
 45 14  1  0
 35 18  1  0
 44 39  1  0
 26 21  1  0
 34 29  1  0
M  END
>  <Compound_ID>  (607) 
CHEMBL3408394

>  <Molecule Name>  (607) 
nan

>  <Molecular Weight>  (607) 
648.77

>  <AlogP>  (607) 
8.38

>  <Smiles>  (607) 
CC(=O)C1=NN(c2ccccc2)/C(=C2/S/C(=N\c3nc(-c4ccccc4)cc(-c4ccccc4)c3C#N)N(c3ccccc3)C2=O)S1

>  <Standard Type>  (607) 
Inhibition

>  <Standard Relation>  (607) 
'='

>  <Standard Units>  (607) 
%

>  <Standard Value>  (607) 
3.0

>  <Assay ChEMBL ID>  (607) 
CHEMBL3413727

>  <Assay Description>  (607) 
Inhibition of MET (unknown origin) assessed as inhibition of peptide phosphorylation at 30 uM by based microfluidic mobility shift assay

>  <BAO Format ID>  (607) 
BAO_0000357

>  <BAO Label>  (607) 
single protein format

>  <Assay Organism>  (607) 
Homo sapiens

>  <Target ChEMBL ID>  (607) 
CHEMBL3717

>  <Target Name>  (607) 
Hepatocyte growth factor receptor

>  <Target Organism>  (607) 
Homo sapiens

>  <Target Type>  (607) 
SINGLE PROTEIN

>  <Document ChEMBL ID>  (607) 
CHEMBL3407353

>  <Source Description>  (607) 
Scientific Literature

>  <Document Journal>  (607) 
Eur J Med Chem

>  <Document Year>  (607) 
2015.0

>  <Active>  (607) 
0.0

$$$$

     RDKit          2D

 38 42  0  0  0  0  0  0  0  0999 V2000
   -1.5696   16.9661    0.0000 C   0  0  0  0  0  0  0  0  0  0  0  0
   -1.8815   15.4989    0.0000 C   0  0  0  0  0  0  0  0  0  0  0  0
   -0.7668   14.4952    0.0000 C   0  0  0  0  0  0  0  0  0  0  0  0
   -1.0786   13.0279    0.0000 N   0  0  0  0  0  0  0  0  0  0  0  0
   -2.5052   12.5644    0.0000 C   0  0  0  0  0  0  0  0  0  0  0  0
   -2.8171   11.0972    0.0000 C   0  0  0  0  0  0  0  0  0  0  0  0
   -1.7024   10.0935    0.0000 C   0  0  0  0  0  0  0  0  0  0  0  0
   -2.0143    8.6263    0.0000 C   0  0  0  0  0  0  0  0  0  0  0  0
   -0.8995    7.6226    0.0000 C   0  0  0  0  0  0  0  0  0  0  0  0
   -1.2114    6.1554    0.0000 C   0  0  0  0  0  0  0  0  0  0  0  0
   -2.6380    5.6918    0.0000 C   0  0  0  0  0  0  0  0  0  0  0  0
   -2.9499    4.2246    0.0000 N   0  0  0  0  0  0  0  0  0  0  0  0
   -1.8351    3.2209    0.0000 C   0  0  0  0  0  0  0  0  0  0  0  0
   -0.4086    3.6844    0.0000 N   0  0  0  0  0  0  0  0  0  0  0  0
    0.7062    2.6807    0.0000 C   0  0  0  0  0  0  0  0  0  0  0  0
    2.1328    3.1443    0.0000 N   0  0  0  0  0  0  0  0  0  0  0  0
    2.4446    4.6115    0.0000 C   0  0  0  0  0  0  0  0  0  0  0  0
    1.3299    5.6152    0.0000 C   0  0  0  0  0  0  0  0  0  0  0  0
    1.6418    7.0824    0.0000 C   0  0  0  0  0  0  0  0  0  0  0  0
    0.5271    8.0861    0.0000 F   0  0  0  0  0  0  0  0  0  0  0  0
    3.0684    7.5459    0.0000 C   0  0  0  0  0  0  0  0  0  0  0  0
    4.1831    6.5422    0.0000 C   0  0  0  0  0  0  0  0  0  0  0  0
    3.8712    5.0750    0.0000 C   0  0  0  0  0  0  0  0  0  0  0  0
    4.9859    4.0713    0.0000 C   0  0  0  0  0  0  0  0  0  0  0  0
    6.4125    4.5348    0.0000 N   0  0  0  0  0  0  0  0  0  0  0  0
    4.6741    2.6041    0.0000 O   0  0  0  0  0  0  0  0  0  0  0  0
    0.3943    1.2135    0.0000 C   0  0  0  0  0  0  0  0  0  0  0  0
    1.2760    0.0000    0.0000 C   0  0  0  0  0  0  0  0  0  0  0  0
    0.3943   -1.2135    0.0000 C   0  0  0  0  0  0  0  0  0  0  0  0
   -1.0323   -0.7500    0.0000 N   0  0  0  0  0  0  0  0  0  0  0  0
   -1.0323    0.7500    0.0000 C   0  0  0  0  0  0  0  0  0  0  0  0
   -2.1470    1.7537    0.0000 N   0  0  0  0  0  0  0  0  0  0  0  0
   -3.7527    6.6955    0.0000 C   0  0  0  0  0  0  0  0  0  0  0  0
   -5.1793    6.2320    0.0000 O   0  0  0  0  0  0  0  0  0  0  0  0
   -5.4912    4.7648    0.0000 C   0  0  0  0  0  0  0  0  0  0  0  0
   -3.4408    8.1628    0.0000 C   0  0  0  0  0  0  0  0  0  0  0  0
   -0.2758   10.5570    0.0000 C   0  0  0  0  0  0  0  0  0  0  0  0
    0.0361   12.0242    0.0000 C   0  0  0  0  0  0  0  0  0  0  0  0
  1  2  1  0
  2  3  1  0
  3  4  1  0
  4  5  1  0
  5  6  1  0
  6  7  1  0
  7  8  1  0
  8  9  2  0
  9 10  1  0
 10 11  2  0
 11 12  1  0
 12 13  1  0
 13 14  2  0
 14 15  1  0
 15 16  1  0
 16 17  1  0
 17 18  2  0
 18 19  1  0
 19 20  1  0
 19 21  2  0
 21 22  1  0
 22 23  2  0
 23 24  1  0
 24 25  1  0
 24 26  2  0
 15 27  2  0
 27 28  1  0
 28 29  2  0
 29 30  1  0
 30 31  1  0
 31 32  2  0
 11 33  1  0
 33 34  1  0
 34 35  1  0
 33 36  2  0
  7 37  1  0
 37 38  1  0
 38  4  1  0
 36  8  1  0
 32 13  1  0
 23 17  1  0
 31 27  1  0
M  END
>  <Compound_ID>  (608) 
CHEMBL476259

>  <Molecule Name>  (608) 
GSK-1326255A

>  <Molecular Weight>  (608) 
517.61

>  <AlogP>  (608) 
5.28

>  <Smiles>  (608) 
CCCN1CCC(c2ccc(Nc3nc(Nc4cc(F)ccc4C(N)=O)c4cc[nH]c4n3)c(OC)c2)CC1

>  <Standard Type>  (608) 
Inhibition

>  <Standard Relation>  (608) 
'='

>  <Standard Units>  (608) 
%

>  <Standard Value>  (608) 
8.25

>  <Assay ChEMBL ID>  (608) 
CHEMBL1962142

>  <Assay Description>  (608) 
GSK_PKIS: MET mean inhibition at 0.1 uM [Nanosyn]

>  <BAO Format ID>  (608) 
BAO_0000357

>  <BAO Label>  (608) 
single protein format

>  <Assay Organism>  (608) 
None

>  <Target ChEMBL ID>  (608) 
CHEMBL3717

>  <Target Name>  (608) 
Hepatocyte growth factor receptor

>  <Target Organism>  (608) 
Homo sapiens

>  <Target Type>  (608) 
SINGLE PROTEIN

>  <Document ChEMBL ID>  (608) 
CHEMBL1961873

>  <Source Description>  (608) 
GSK Published Kinase Inhibitor Set

>  <Document Journal>  (608) 
nan

>  <Document Year>  (608) 
nan

>  <Active>  (608) 
0.0

$$$$

     RDKit          2D

 38 42  0  0  0  0  0  0  0  0999 V2000
   -1.3632  -12.1594    0.0000 C   0  0  0  0  0  0  0  0  0  0  0  0
   -1.2064  -10.6676    0.0000 S   0  0  0  0  0  0  0  0  0  0  0  0
    0.2854  -10.8244    0.0000 O   0  0  0  0  0  0  0  0  0  0  0  0
   -2.6982  -10.5109    0.0000 O   0  0  0  0  0  0  0  0  0  0  0  0
   -1.0496   -9.1759    0.0000 C   0  0  0  0  0  0  0  0  0  0  0  0
    0.3207   -8.5658    0.0000 C   0  0  0  0  0  0  0  0  0  0  0  0
    0.4775   -7.0740    0.0000 N   0  0  0  0  0  0  0  0  0  0  0  0
    1.8478   -6.4639    0.0000 C   0  0  0  0  0  0  0  0  0  0  0  0
    2.0046   -4.9721    0.0000 C   0  0  0  0  0  0  0  0  0  0  0  0
    3.3037   -4.2221    0.0000 C   0  0  0  0  0  0  0  0  0  0  0  0
    2.9918   -2.7549    0.0000 O   0  0  0  0  0  0  0  0  0  0  0  0
    1.5000   -2.5981    0.0000 C   0  0  0  0  0  0  0  0  0  0  0  0
    0.7500   -1.2990    0.0000 C   0  0  0  0  0  0  0  0  0  0  0  0
    1.5000    0.0000    0.0000 C   0  0  0  0  0  0  0  0  0  0  0  0
    0.7500    1.2990    0.0000 C   0  0  0  0  0  0  0  0  0  0  0  0
   -0.7500    1.2990    0.0000 C   0  0  0  0  0  0  0  0  0  0  0  0
   -1.5000    2.5981    0.0000 N   0  0  0  0  0  0  0  0  0  0  0  0
   -3.0000    2.5981    0.0000 C   0  0  0  0  0  0  0  0  0  0  0  0
   -3.7500    1.2990    0.0000 N   0  0  0  0  0  0  0  0  0  0  0  0
   -3.0000    0.0000    0.0000 C   0  0  0  0  0  0  0  0  0  0  0  0
   -3.7500   -1.2990    0.0000 N   0  0  0  0  0  0  0  0  0  0  0  0
   -5.2500   -1.2990    0.0000 C   0  0  0  0  0  0  0  0  0  0  0  0
   -6.0000    0.0000    0.0000 C   0  0  0  0  0  0  0  0  0  0  0  0
   -7.5000    0.0000    0.0000 C   0  0  0  0  0  0  0  0  0  0  0  0
   -8.2500   -1.2990    0.0000 C   0  0  0  0  0  0  0  0  0  0  0  0
   -9.7500   -1.2990    0.0000 O   0  0  0  0  0  0  0  0  0  0  0  0
  -10.5000    0.0000    0.0000 C   0  0  0  0  0  0  0  0  0  0  0  0
  -12.0000    0.0000    0.0000 C   0  0  0  0  0  0  0  0  0  0  0  0
  -12.7500    1.2990    0.0000 C   0  0  0  0  0  0  0  0  0  0  0  0
  -14.2500    1.2990    0.0000 C   0  0  0  0  0  0  0  0  0  0  0  0
  -15.0000    0.0000    0.0000 C   0  0  0  0  0  0  0  0  0  0  0  0
  -14.2500   -1.2990    0.0000 C   0  0  0  0  0  0  0  0  0  0  0  0
  -12.7500   -1.2990    0.0000 C   0  0  0  0  0  0  0  0  0  0  0  0
   -7.5000   -2.5981    0.0000 C   0  0  0  0  0  0  0  0  0  0  0  0
   -6.0000   -2.5981    0.0000 C   0  0  0  0  0  0  0  0  0  0  0  0
   -1.5000    0.0000    0.0000 C   0  0  0  0  0  0  0  0  0  0  0  0
   -0.7500   -1.2990    0.0000 C   0  0  0  0  0  0  0  0  0  0  0  0
    0.8899   -3.9684    0.0000 C   0  0  0  0  0  0  0  0  0  0  0  0
  1  2  1  0
  2  3  2  0
  2  4  2  0
  2  5  1  0
  5  6  1  0
  6  7  1  0
  7  8  1  0
  8  9  1  0
  9 10  2  0
 10 11  1  0
 11 12  1  0
 12 13  1  0
 13 14  2  0
 14 15  1  0
 15 16  2  0
 16 17  1  0
 17 18  2  0
 18 19  1  0
 19 20  2  0
 20 21  1  0
 21 22  1  0
 22 23  2  0
 23 24  1  0
 24 25  2  0
 25 26  1  0
 26 27  1  0
 27 28  1  0
 28 29  2  0
 29 30  1  0
 30 31  2  0
 31 32  1  0
 32 33  2  0
 25 34  1  0
 34 35  2  0
 20 36  1  0
 36 37  2  0
 12 38  2  0
 38  9  1  0
 37 13  1  0
 36 16  1  0
 35 22  1  0
 33 28  1  0
M  END
>  <Compound_ID>  (609) 
CHEMBL1909386

>  <Molecule Name>  (609) 
GW566221A

>  <Molecular Weight>  (609) 
565.10

>  <AlogP>  (609) 
5.35

>  <Smiles>  (609) 
CS(=O)(=O)CCNCc1coc(-c2ccc3ncnc(Nc4ccc(OCc5ccccc5)cc4)c3c2)c1

>  <Standard Type>  (609) 
Inhibition

>  <Standard Relation>  (609) 
'='

>  <Standard Units>  (609) 
%

>  <Standard Value>  (609) 
9.58

>  <Assay ChEMBL ID>  (609) 
CHEMBL1962143

>  <Assay Description>  (609) 
GSK_PKIS: MET mean inhibition at 1 uM [Nanosyn]

>  <BAO Format ID>  (609) 
BAO_0000357

>  <BAO Label>  (609) 
single protein format

>  <Assay Organism>  (609) 
None

>  <Target ChEMBL ID>  (609) 
CHEMBL3717

>  <Target Name>  (609) 
Hepatocyte growth factor receptor

>  <Target Organism>  (609) 
Homo sapiens

>  <Target Type>  (609) 
SINGLE PROTEIN

>  <Document ChEMBL ID>  (609) 
CHEMBL1961873

>  <Source Description>  (609) 
GSK Published Kinase Inhibitor Set

>  <Document Journal>  (609) 
nan

>  <Document Year>  (609) 
nan

>  <Active>  (609) 
0.0

$$$$

     RDKit          2D

 38 42  0  0  0  0  0  0  0  0999 V2000
   -5.9060   -8.0690    0.0000 C   0  0  0  0  0  0  0  0  0  0  0  0
   -4.4388   -7.7572    0.0000 S   0  0  0  0  0  0  0  0  0  0  0  0
   -4.7507   -6.2899    0.0000 O   0  0  0  0  0  0  0  0  0  0  0  0
   -4.1270   -9.2244    0.0000 O   0  0  0  0  0  0  0  0  0  0  0  0
   -2.9716   -7.4453    0.0000 C   0  0  0  0  0  0  0  0  0  0  0  0
   -2.5081   -6.0187    0.0000 C   0  0  0  0  0  0  0  0  0  0  0  0
   -1.0409   -5.7068    0.0000 N   0  0  0  0  0  0  0  0  0  0  0  0
   -0.5773   -4.2803    0.0000 C   0  0  0  0  0  0  0  0  0  0  0  0
    0.8899   -3.9684    0.0000 C   0  0  0  0  0  0  0  0  0  0  0  0
    2.0046   -4.9721    0.0000 C   0  0  0  0  0  0  0  0  0  0  0  0
    3.3037   -4.2221    0.0000 C   0  0  0  0  0  0  0  0  0  0  0  0
    2.9918   -2.7549    0.0000 O   0  0  0  0  0  0  0  0  0  0  0  0
    1.5000   -2.5981    0.0000 C   0  0  0  0  0  0  0  0  0  0  0  0
    0.7500   -1.2990    0.0000 C   0  0  0  0  0  0  0  0  0  0  0  0
    1.5000    0.0000    0.0000 C   0  0  0  0  0  0  0  0  0  0  0  0
    0.7500    1.2990    0.0000 C   0  0  0  0  0  0  0  0  0  0  0  0
   -0.7500    1.2990    0.0000 C   0  0  0  0  0  0  0  0  0  0  0  0
   -1.5000    2.5981    0.0000 N   0  0  0  0  0  0  0  0  0  0  0  0
   -3.0000    2.5981    0.0000 C   0  0  0  0  0  0  0  0  0  0  0  0
   -3.7500    1.2990    0.0000 N   0  0  0  0  0  0  0  0  0  0  0  0
   -3.0000    0.0000    0.0000 C   0  0  0  0  0  0  0  0  0  0  0  0
   -3.7500   -1.2990    0.0000 N   0  0  0  0  0  0  0  0  0  0  0  0
   -5.2500   -1.2990    0.0000 C   0  0  0  0  0  0  0  0  0  0  0  0
   -6.0000    0.0000    0.0000 C   0  0  0  0  0  0  0  0  0  0  0  0
   -7.5000    0.0000    0.0000 C   0  0  0  0  0  0  0  0  0  0  0  0
   -8.2500   -1.2990    0.0000 C   0  0  0  0  0  0  0  0  0  0  0  0
   -9.7500   -1.2990    0.0000 O   0  0  0  0  0  0  0  0  0  0  0  0
  -10.5000    0.0000    0.0000 C   0  0  0  0  0  0  0  0  0  0  0  0
  -12.0000    0.0000    0.0000 C   0  0  0  0  0  0  0  0  0  0  0  0
  -12.7500    1.2990    0.0000 C   0  0  0  0  0  0  0  0  0  0  0  0
  -14.2500    1.2990    0.0000 C   0  0  0  0  0  0  0  0  0  0  0  0
  -15.0000    0.0000    0.0000 C   0  0  0  0  0  0  0  0  0  0  0  0
  -14.2500   -1.2990    0.0000 C   0  0  0  0  0  0  0  0  0  0  0  0
  -12.7500   -1.2990    0.0000 C   0  0  0  0  0  0  0  0  0  0  0  0
   -7.5000   -2.5981    0.0000 C   0  0  0  0  0  0  0  0  0  0  0  0
   -6.0000   -2.5981    0.0000 C   0  0  0  0  0  0  0  0  0  0  0  0
   -1.5000    0.0000    0.0000 C   0  0  0  0  0  0  0  0  0  0  0  0
   -0.7500   -1.2990    0.0000 C   0  0  0  0  0  0  0  0  0  0  0  0
  1  2  1  0
  2  3  2  0
  2  4  2  0
  2  5  1  0
  5  6  1  0
  6  7  1  0
  7  8  1  0
  8  9  1  0
  9 10  1  0
 10 11  2  0
 11 12  1  0
 12 13  1  0
 13 14  1  0
 14 15  2  0
 15 16  1  0
 16 17  2  0
 17 18  1  0
 18 19  2  0
 19 20  1  0
 20 21  2  0
 21 22  1  0
 22 23  1  0
 23 24  2  0
 24 25  1  0
 25 26  2  0
 26 27  1  0
 27 28  1  0
 28 29  1  0
 29 30  2  0
 30 31  1  0
 31 32  2  0
 32 33  1  0
 33 34  2  0
 26 35  1  0
 35 36  2  0
 21 37  1  0
 37 38  2  0
 13  9  2  0
 38 14  1  0
 37 17  1  0
 36 23  1  0
 34 29  1  0
M  END
>  <Compound_ID>  (610) 
CHEMBL1909388

>  <Molecule Name>  (610) 
GW568377A

>  <Molecular Weight>  (610) 
565.10

>  <AlogP>  (610) 
5.35

>  <Smiles>  (610) 
CS(=O)(=O)CCNCc1ccoc1-c1ccc2ncnc(Nc3ccc(OCc4ccccc4)cc3)c2c1

>  <Standard Type>  (610) 
Inhibition

>  <Standard Relation>  (610) 
'='

>  <Standard Units>  (610) 
%

>  <Standard Value>  (610) 
3.02

>  <Assay ChEMBL ID>  (610) 
CHEMBL1962142

>  <Assay Description>  (610) 
GSK_PKIS: MET mean inhibition at 0.1 uM [Nanosyn]

>  <BAO Format ID>  (610) 
BAO_0000357

>  <BAO Label>  (610) 
single protein format

>  <Assay Organism>  (610) 
None

>  <Target ChEMBL ID>  (610) 
CHEMBL3717

>  <Target Name>  (610) 
Hepatocyte growth factor receptor

>  <Target Organism>  (610) 
Homo sapiens

>  <Target Type>  (610) 
SINGLE PROTEIN

>  <Document ChEMBL ID>  (610) 
CHEMBL1961873

>  <Source Description>  (610) 
GSK Published Kinase Inhibitor Set

>  <Document Journal>  (610) 
nan

>  <Document Year>  (610) 
nan

>  <Active>  (610) 
0.0

$$$$

     RDKit          2D

 50 56  0  0  0  0  0  0  0  0999 V2000
   -5.2500   -3.8971    0.0000 C   0  0  0  0  0  0  0  0  0  0  0  0
   -3.7500   -3.8971    0.0000 O   0  0  0  0  0  0  0  0  0  0  0  0
   -3.0000   -2.5981    0.0000 C   0  0  0  0  0  0  0  0  0  0  0  0
   -1.5000   -2.5981    0.0000 C   0  0  0  0  0  0  0  0  0  0  0  0
   -0.7500   -1.2990    0.0000 C   0  0  0  0  0  0  0  0  0  0  0  0
    0.7500   -1.2990    0.0000 C   0  0  0  0  0  0  0  0  0  0  0  0
    1.5000   -2.5981    0.0000 O   0  0  0  0  0  0  0  0  0  0  0  0
    3.0000   -2.5981    0.0000 C   0  0  0  0  0  0  0  0  0  0  0  0
    3.7500   -1.2990    0.0000 C   0  0  0  0  0  0  0  0  0  0  0  0
    5.2500   -1.2990    0.0000 C   0  0  0  0  0  0  0  0  0  0  0  0
    6.0000   -2.5981    0.0000 C   0  0  0  0  0  0  0  0  0  0  0  0
    7.5000   -2.5981    0.0000 N   0  0  0  0  0  0  0  0  0  0  0  0
    8.2500   -1.2990    0.0000 C   0  0  0  0  0  0  0  0  0  0  0  0
    7.5000    0.0000    0.0000 O   0  0  0  0  0  0  0  0  0  0  0  0
    9.7500   -1.2990    0.0000 N   0  0  0  0  0  0  0  0  0  0  0  0
   10.5000    0.0000    0.0000 N   0  0  0  0  0  0  0  0  0  0  0  0
    9.8899    1.3703    0.0000 C   0  0  0  0  0  0  0  0  0  0  0  0
    8.4227    1.6822    0.0000 O   0  0  0  0  0  0  0  0  0  0  0  0
   11.0046    2.3740    0.0000 C   0  0  0  0  0  0  0  0  0  0  0  0
   12.3037    1.6240    0.0000 S   0  0  0  0  0  0  0  0  0  0  0  0
   11.9918    0.1568    0.0000 C   0  0  0  0  0  0  0  0  0  0  0  0
   12.9955   -0.9579    0.0000 C   0  0  0  0  0  0  0  0  0  0  0  0
   12.5320   -2.3845    0.0000 C   0  0  0  0  0  0  0  0  0  0  0  0
   11.0647   -2.6964    0.0000 F   0  0  0  0  0  0  0  0  0  0  0  0
   13.5356   -3.4992    0.0000 C   0  0  0  0  0  0  0  0  0  0  0  0
   15.0029   -3.1874    0.0000 C   0  0  0  0  0  0  0  0  0  0  0  0
   15.4664   -1.7608    0.0000 C   0  0  0  0  0  0  0  0  0  0  0  0
   14.4627   -0.6461    0.0000 C   0  0  0  0  0  0  0  0  0  0  0  0
   14.9262    0.7805    0.0000 F   0  0  0  0  0  0  0  0  0  0  0  0
    5.2500   -3.8971    0.0000 C   0  0  0  0  0  0  0  0  0  0  0  0
    6.0000   -5.1962    0.0000 C   0  0  0  0  0  0  0  0  0  0  0  0
    5.2500   -6.4952    0.0000 C   0  0  0  0  0  0  0  0  0  0  0  0
    3.7500   -6.4952    0.0000 C   0  0  0  0  0  0  0  0  0  0  0  0
    3.0000   -5.1962    0.0000 C   0  0  0  0  0  0  0  0  0  0  0  0
    3.7500   -3.8971    0.0000 C   0  0  0  0  0  0  0  0  0  0  0  0
    1.5000    0.0000    0.0000 C   0  0  0  0  0  0  0  0  0  0  0  0
    0.7500    1.2990    0.0000 C   0  0  0  0  0  0  0  0  0  0  0  0
   -0.7500    1.2990    0.0000 N   0  0  0  0  0  0  0  0  0  0  0  0
   -1.5000    0.0000    0.0000 C   0  0  0  0  0  0  0  0  0  0  0  0
   -3.0000    0.0000    0.0000 C   0  0  0  0  0  0  0  0  0  0  0  0
   -3.7500   -1.2990    0.0000 C   0  0  0  0  0  0  0  0  0  0  0  0
   -5.2500   -1.2990    0.0000 O   0  0  0  0  0  0  0  0  0  0  0  0
   -6.0000    0.0000    0.0000 C   0  0  0  0  0  0  0  0  0  0  0  0
   -7.5000    0.0000    0.0000 C   0  0  0  0  0  0  0  0  0  0  0  0
   -8.2500    1.2990    0.0000 C   0  0  0  0  0  0  0  0  0  0  0  0
   -9.7500    1.2990    0.0000 N   0  0  0  0  0  0  0  0  0  0  0  0
  -10.6317    0.0855    0.0000 C   0  0  0  0  0  0  0  0  0  0  0  0
  -12.0583    0.5490    0.0000 C   0  0  0  0  0  0  0  0  0  0  0  0
  -12.0583    2.0490    0.0000 C   0  0  0  0  0  0  0  0  0  0  0  0
  -10.6317    2.5126    0.0000 C   0  0  0  0  0  0  0  0  0  0  0  0
  1  2  1  0
  2  3  1  0
  3  4  2  0
  4  5  1  0
  5  6  2  0
  6  7  1  0
  7  8  1  0
  8  9  2  0
  9 10  1  0
 10 11  2  0
 11 12  1  0
 12 13  1  0
 13 14  2  0
 13 15  1  0
 15 16  1  0
 16 17  1  0
 17 18  2  0
 17 19  1  0
 19 20  1  0
 20 21  1  0
 21 22  1  0
 22 23  2  0
 23 24  1  0
 23 25  1  0
 25 26  2  0
 26 27  1  0
 27 28  2  0
 28 29  1  0
 11 30  1  0
 30 31  2  0
 31 32  1  0
 32 33  2  0
 33 34  1  0
 34 35  2  0
  6 36  1  0
 36 37  2  0
 37 38  1  0
 38 39  2  0
 39 40  1  0
 40 41  2  0
 41 42  1  0
 42 43  1  0
 43 44  1  0
 44 45  1  0
 45 46  1  0
 46 47  1  0
 47 48  1  0
 48 49  1  0
 49 50  1  0
 41  3  1  0
 50 46  1  0
 39  5  1  0
 35  8  1  0
 21 16  1  0
 28 22  1  0
 35 30  1  0
M  END
>  <Compound_ID>  (611) 
CHEMBL4563995

>  <Molecule Name>  (611) 
nan

>  <Molecular Weight>  (611) 
699.78

>  <AlogP>  (611) 
7.64

>  <Smiles>  (611) 
COc1cc2c(Oc3ccc(NC(=O)NN4C(=O)CSC4c4c(F)cccc4F)c4ccccc34)ccnc2cc1OCCCN1CCCC1

>  <Standard Type>  (611) 
Inhibition

>  <Standard Relation>  (611) 
'='

>  <Standard Units>  (611) 
%

>  <Standard Value>  (611) 
6.76

>  <Assay ChEMBL ID>  (611) 
CHEMBL4330419

>  <Assay Description>  (611) 
Inhibition of c-Met (unknown origin) at 0.05 uM using FAM-labelled peptide and ATP incubated for 10 mins by mobility shift assay relative to control

>  <BAO Format ID>  (611) 
BAO_0000357

>  <BAO Label>  (611) 
single protein format

>  <Assay Organism>  (611) 
Homo sapiens

>  <Target ChEMBL ID>  (611) 
CHEMBL3717

>  <Target Name>  (611) 
Hepatocyte growth factor receptor

>  <Target Organism>  (611) 
Homo sapiens

>  <Target Type>  (611) 
SINGLE PROTEIN

>  <Document ChEMBL ID>  (611) 
CHEMBL4330059

>  <Source Description>  (611) 
Scientific Literature

>  <Document Journal>  (611) 
Eur J Med Chem

>  <Document Year>  (611) 
2019.0

>  <Active>  (611) 
0.0

$$$$

     RDKit          2D

 17 19  0  0  0  0  0  0  0  0999 V2000
   -0.0967    5.1517    0.0000 C   0  0  0  0  0  0  0  0  0  0  0  0
   -0.4086    3.6844    0.0000 C   0  0  0  0  0  0  0  0  0  0  0  0
    0.7062    2.6807    0.0000 C   0  0  0  0  0  0  0  0  0  0  0  0
    0.3943    1.2135    0.0000 C   0  0  0  0  0  0  0  0  0  0  0  0
    1.2760    0.0000    0.0000 N   0  0  0  0  0  0  0  0  0  0  0  0
    0.3943   -1.2135    0.0000 N   0  0  0  0  0  0  0  0  0  0  0  0
   -1.0323   -0.7500    0.0000 C   0  0  0  0  0  0  0  0  0  0  0  0
   -2.2458   -1.6317    0.0000 N   0  0  0  0  0  0  0  0  0  0  0  0
   -1.0323    0.7500    0.0000 C   0  0  0  0  0  0  0  0  0  0  0  0
   -2.1470    1.7537    0.0000 C   0  0  0  0  0  0  0  0  0  0  0  0
   -3.5736    1.2902    0.0000 N   0  0  0  0  0  0  0  0  0  0  0  0
   -4.6883    2.2939    0.0000 C   0  0  0  0  0  0  0  0  0  0  0  0
   -6.1149    1.8303    0.0000 C   0  0  0  0  0  0  0  0  0  0  0  0
   -6.4268    0.3631    0.0000 C   0  0  0  0  0  0  0  0  0  0  0  0
   -5.3120   -0.6406    0.0000 C   0  0  0  0  0  0  0  0  0  0  0  0
   -3.8855   -0.1771    0.0000 C   0  0  0  0  0  0  0  0  0  0  0  0
   -1.8351    3.2209    0.0000 N   0  0  0  0  0  0  0  0  0  0  0  0
  1  2  1  0
  2  3  2  0
  3  4  1  0
  4  5  1  0
  5  6  1  0
  6  7  2  0
  7  8  1  0
  7  9  1  0
  9 10  1  0
 10 11  1  0
 11 12  1  0
 12 13  1  0
 13 14  1  0
 14 15  1  0
 15 16  1  0
 10 17  2  0
 17  2  1  0
  9  4  2  0
 16 11  1  0
M  END
>  <Compound_ID>  (612) 
CHEMBL1813618

>  <Molecule Name>  (612) 
nan

>  <Molecular Weight>  (612) 
231.30

>  <AlogP>  (612) 
1.84

>  <Smiles>  (612) 
Cc1cc2[nH]nc(N)c2c(N2CCCCC2)n1

>  <Standard Type>  (612) 
Inhibition

>  <Standard Relation>  (612) 
'='

>  <Standard Units>  (612) 
%

>  <Standard Value>  (612) 
18.0

>  <Assay ChEMBL ID>  (612) 
CHEMBL1815730

>  <Assay Description>  (612) 
Inhibition of MET at 30 uM by microfluidic mobility shift assay

>  <BAO Format ID>  (612) 
BAO_0000357

>  <BAO Label>  (612) 
single protein format

>  <Assay Organism>  (612) 
None

>  <Target ChEMBL ID>  (612) 
CHEMBL3717

>  <Target Name>  (612) 
Hepatocyte growth factor receptor

>  <Target Organism>  (612) 
Homo sapiens

>  <Target Type>  (612) 
SINGLE PROTEIN

>  <Document ChEMBL ID>  (612) 
CHEMBL1811853

>  <Source Description>  (612) 
Scientific Literature

>  <Document Journal>  (612) 
Bioorg Med Chem

>  <Document Year>  (612) 
2011.0

>  <Active>  (612) 
0.0

$$$$

     RDKit          2D

 13 14  0  0  0  0  0  0  0  0999 V2000
    3.0000    0.0000    0.0000 C   0  0  0  0  0  0  0  0  0  0  0  0
    1.5000    0.0000    0.0000 C   0  0  0  0  0  0  0  0  0  0  0  0
    0.7500   -1.2990    0.0000 C   0  0  0  0  0  0  0  0  0  0  0  0
   -0.7500   -1.2990    0.0000 C   0  0  0  0  0  0  0  0  0  0  0  0
   -1.5000    0.0000    0.0000 C   0  0  0  0  0  0  0  0  0  0  0  0
   -2.9672   -0.3119    0.0000 C   0  0  0  0  0  0  0  0  0  0  0  0
   -4.0819    0.6918    0.0000 N   0  0  0  0  0  0  0  0  0  0  0  0
   -3.1240   -1.8037    0.0000 N   0  0  0  0  0  0  0  0  0  0  0  0
   -1.7537   -2.4138    0.0000 N   0  0  0  0  0  0  0  0  0  0  0  0
   -1.4418   -3.8810    0.0000 C   0  0  0  0  0  0  0  0  0  0  0  0
   -0.7500    1.2990    0.0000 C   0  0  0  0  0  0  0  0  0  0  0  0
   -1.5000    2.5981    0.0000 O   0  0  0  0  0  0  0  0  0  0  0  0
    0.7500    1.2990    0.0000 N   0  0  0  0  0  0  0  0  0  0  0  0
  1  2  1  0
  2  3  2  0
  3  4  1  0
  4  5  2  0
  5  6  1  0
  6  7  1  0
  6  8  2  0
  8  9  1  0
  9 10  1  0
  5 11  1  0
 11 12  2  0
 11 13  1  0
 13  2  1  0
  9  4  1  0
M  END
>  <Compound_ID>  (613) 
CHEMBL1813620

>  <Molecule Name>  (613) 
nan

>  <Molecular Weight>  (613) 
178.19

>  <AlogP>  (613) 
0.15

>  <Smiles>  (613) 
Cc1cc2c(c(N)nn2C)c(=O)[nH]1

>  <Standard Type>  (613) 
Inhibition

>  <Standard Relation>  (613) 
'='

>  <Standard Units>  (613) 
%

>  <Standard Value>  (613) 
4.0

>  <Assay ChEMBL ID>  (613) 
CHEMBL1815730

>  <Assay Description>  (613) 
Inhibition of MET at 30 uM by microfluidic mobility shift assay

>  <BAO Format ID>  (613) 
BAO_0000357

>  <BAO Label>  (613) 
single protein format

>  <Assay Organism>  (613) 
None

>  <Target ChEMBL ID>  (613) 
CHEMBL3717

>  <Target Name>  (613) 
Hepatocyte growth factor receptor

>  <Target Organism>  (613) 
Homo sapiens

>  <Target Type>  (613) 
SINGLE PROTEIN

>  <Document ChEMBL ID>  (613) 
CHEMBL1811853

>  <Source Description>  (613) 
Scientific Literature

>  <Document Journal>  (613) 
Bioorg Med Chem

>  <Document Year>  (613) 
2011.0

>  <Active>  (613) 
0.0

$$$$

     RDKit          2D

 22 24  0  0  0  0  0  0  0  0999 V2000
    7.5000   -2.5981    0.0000 C   0  0  0  0  0  0  0  0  0  0  0  0
    6.0000   -2.5981    0.0000 O   0  0  0  0  0  0  0  0  0  0  0  0
    5.2500   -1.2990    0.0000 C   0  0  0  0  0  0  0  0  0  0  0  0
    3.7500   -1.2990    0.0000 C   0  0  0  0  0  0  0  0  0  0  0  0
    3.0000    0.0000    0.0000 N   0  0  0  0  0  0  0  0  0  0  0  0
    1.5000    0.0000    0.0000 C   0  0  0  0  0  0  0  0  0  0  0  0
    0.7500   -1.2990    0.0000 N   0  0  0  0  0  0  0  0  0  0  0  0
   -0.7500   -1.2990    0.0000 C   0  0  0  0  0  0  0  0  0  0  0  0
   -1.5000   -2.5981    0.0000 C   0  0  0  0  0  0  0  0  0  0  0  0
   -3.0000   -2.5981    0.0000 C   0  0  0  0  0  0  0  0  0  0  0  0
   -3.7500   -3.8971    0.0000 C   0  0  0  0  0  0  0  0  0  0  0  0
   -3.0000   -5.1962    0.0000 C   0  0  0  0  0  0  0  0  0  0  0  0
   -1.5000   -5.1962    0.0000 C   0  0  0  0  0  0  0  0  0  0  0  0
   -0.7500   -3.8971    0.0000 C   0  0  0  0  0  0  0  0  0  0  0  0
   -1.5000    0.0000    0.0000 C   0  0  0  0  0  0  0  0  0  0  0  0
   -0.7500    1.2990    0.0000 C   0  0  0  0  0  0  0  0  0  0  0  0
    0.7500    1.2990    0.0000 C   0  0  0  0  0  0  0  0  0  0  0  0
    1.2135    2.7256    0.0000 C   0  0  0  0  0  0  0  0  0  0  0  0
    2.6401    3.1891    0.0000 N   0  0  0  0  0  0  0  0  0  0  0  0
    0.0000    3.6073    0.0000 N   0  0  0  0  0  0  0  0  0  0  0  0
   -1.2135    2.7256    0.0000 N   0  0  0  0  0  0  0  0  0  0  0  0
   -2.6401    3.1891    0.0000 C   0  0  0  0  0  0  0  0  0  0  0  0
  1  2  1  0
  2  3  1  0
  3  4  1  0
  4  5  1  0
  5  6  1  0
  6  7  2  0
  7  8  1  0
  8  9  1  0
  9 10  2  0
 10 11  1  0
 11 12  2  0
 12 13  1  0
 13 14  2  0
  8 15  2  0
 15 16  1  0
 16 17  2  0
 17 18  1  0
 18 19  1  0
 18 20  2  0
 20 21  1  0
 21 22  1  0
 17  6  1  0
 14  9  1  0
 21 16  1  0
M  END
>  <Compound_ID>  (614) 
CHEMBL1813786

>  <Molecule Name>  (614) 
nan

>  <Molecular Weight>  (614) 
297.36

>  <AlogP>  (614) 
2.28

>  <Smiles>  (614) 
COCCNc1nc(-c2ccccc2)cc2c1c(N)nn2C

>  <Standard Type>  (614) 
Inhibition

>  <Standard Relation>  (614) 
'='

>  <Standard Units>  (614) 
%

>  <Standard Value>  (614) 
-5.0

>  <Assay ChEMBL ID>  (614) 
CHEMBL1815730

>  <Assay Description>  (614) 
Inhibition of MET at 30 uM by microfluidic mobility shift assay

>  <BAO Format ID>  (614) 
BAO_0000357

>  <BAO Label>  (614) 
single protein format

>  <Assay Organism>  (614) 
None

>  <Target ChEMBL ID>  (614) 
CHEMBL3717

>  <Target Name>  (614) 
Hepatocyte growth factor receptor

>  <Target Organism>  (614) 
Homo sapiens

>  <Target Type>  (614) 
SINGLE PROTEIN

>  <Document ChEMBL ID>  (614) 
CHEMBL1811853

>  <Source Description>  (614) 
Scientific Literature

>  <Document Journal>  (614) 
Bioorg Med Chem

>  <Document Year>  (614) 
2011.0

>  <Active>  (614) 
0.0

$$$$

     RDKit          2D

 34 38  0  0  0  0  0  0  0  0999 V2000
    3.7500   -6.4952    0.0000 C   0  0  0  0  0  0  0  0  0  0  0  0
    3.0000   -5.1962    0.0000 N   0  0  0  0  0  0  0  0  0  0  0  0
    1.5000   -5.1962    0.0000 C   0  0  0  0  0  0  0  0  0  0  0  0
    0.7500   -3.8971    0.0000 C   0  0  0  0  0  0  0  0  0  0  0  0
    1.5000   -2.5981    0.0000 N   0  0  0  0  0  0  0  0  0  0  0  0
    0.7500   -1.2990    0.0000 C   0  0  0  0  0  0  0  0  0  0  0  0
    1.5000    0.0000    0.0000 C   0  0  0  0  0  0  0  0  0  0  0  0
    0.7500    1.2990    0.0000 N   0  0  0  0  0  0  0  0  0  0  0  0
   -0.7500    1.2990    0.0000 C   0  0  0  0  0  0  0  0  0  0  0  0
   -1.5000    2.5981    0.0000 C   0  0  0  0  0  0  0  0  0  0  0  0
   -3.0000    2.5981    0.0000 C   0  0  0  0  0  0  0  0  0  0  0  0
   -3.7500    1.2990    0.0000 C   0  0  0  0  0  0  0  0  0  0  0  0
   -3.0000    0.0000    0.0000 C   0  0  0  0  0  0  0  0  0  0  0  0
   -3.7500   -1.2990    0.0000 O   0  0  0  0  0  0  0  0  0  0  0  0
   -5.2500   -1.2990    0.0000 C   0  0  0  0  0  0  0  0  0  0  0  0
   -6.0000    0.0000    0.0000 O   0  0  0  0  0  0  0  0  0  0  0  0
   -6.0000   -2.5981    0.0000 C   0  0  0  0  0  0  0  0  0  0  0  0
   -7.5000   -2.5981    0.0000 C   0  0  0  0  0  0  0  0  0  0  0  0
   -8.2500   -3.8971    0.0000 C   0  0  0  0  0  0  0  0  0  0  0  0
   -7.5000   -5.1962    0.0000 C   0  0  0  0  0  0  0  0  0  0  0  0
   -6.0000   -5.1962    0.0000 N   0  0  0  0  0  0  0  0  0  0  0  0
   -5.2500   -6.4952    0.0000 C   0  0  0  0  0  0  0  0  0  0  0  0
   -6.0000   -7.7942    0.0000 C   0  0  0  0  0  0  0  0  0  0  0  0
   -5.2500   -9.0933    0.0000 C   0  0  0  0  0  0  0  0  0  0  0  0
   -3.7500   -9.0933    0.0000 C   0  0  0  0  0  0  0  0  0  0  0  0
   -3.0000  -10.3923    0.0000 F   0  0  0  0  0  0  0  0  0  0  0  0
   -3.0000   -7.7942    0.0000 C   0  0  0  0  0  0  0  0  0  0  0  0
   -3.7500   -6.4952    0.0000 C   0  0  0  0  0  0  0  0  0  0  0  0
   -5.2500   -3.8971    0.0000 C   0  0  0  0  0  0  0  0  0  0  0  0
   -3.7500   -3.8971    0.0000 O   0  0  0  0  0  0  0  0  0  0  0  0
   -1.5000    0.0000    0.0000 C   0  0  0  0  0  0  0  0  0  0  0  0
   -0.7500   -1.2990    0.0000 C   0  0  0  0  0  0  0  0  0  0  0  0
    3.0000   -2.5981    0.0000 C   0  0  0  0  0  0  0  0  0  0  0  0
    3.7500   -3.8971    0.0000 C   0  0  0  0  0  0  0  0  0  0  0  0
  1  2  1  0
  2  3  1  0
  3  4  1  0
  4  5  1  0
  5  6  1  0
  6  7  2  0
  7  8  1  0
  8  9  2  0
  9 10  1  0
 10 11  2  0
 11 12  1  0
 12 13  2  0
 13 14  1  0
 14 15  1  0
 15 16  2  0
 15 17  1  0
 17 18  2  0
 18 19  1  0
 19 20  2  0
 20 21  1  0
 21 22  1  0
 22 23  2  0
 23 24  1  0
 24 25  2  0
 25 26  1  0
 25 27  1  0
 27 28  2  0
 21 29  1  0
 29 30  2  0
 13 31  1  0
 31 32  2  0
  5 33  1  0
 33 34  1  0
 34  2  1  0
 32  6  1  0
 31  9  1  0
 29 17  1  0
 28 22  1  0
M  END
>  <Compound_ID>  (615) 
CHEMBL1766510

>  <Molecule Name>  (615) 
nan

>  <Molecular Weight>  (615) 
458.49

>  <AlogP>  (615) 
3.50

>  <Smiles>  (615) 
CN1CCN(c2cnc3cccc(OC(=O)c4cccn(-c5ccc(F)cc5)c4=O)c3c2)CC1

>  <Standard Type>  (615) 
Inhibition

>  <Standard Relation>  (615) 
'='

>  <Standard Units>  (615) 
%

>  <Standard Value>  (615) 
12.6

>  <Assay ChEMBL ID>  (615) 
CHEMBL1768669

>  <Assay Description>  (615) 
Inhibition of purified recombinant c-Met at 10 uM after 60 mins by ELISA

>  <BAO Format ID>  (615) 
BAO_0000357

>  <BAO Label>  (615) 
single protein format

>  <Assay Organism>  (615) 
None

>  <Target ChEMBL ID>  (615) 
CHEMBL3717

>  <Target Name>  (615) 
Hepatocyte growth factor receptor

>  <Target Organism>  (615) 
Homo sapiens

>  <Target Type>  (615) 
SINGLE PROTEIN

>  <Document ChEMBL ID>  (615) 
CHEMBL1765011

>  <Source Description>  (615) 
Scientific Literature

>  <Document Journal>  (615) 
J Med Chem

>  <Document Year>  (615) 
2011.0

>  <Active>  (615) 
0.0

$$$$

     RDKit          2D

 14 15  0  0  0  0  0  0  0  0999 V2000
    3.0000    0.0000    0.0000 N   0  0  0  0  0  0  0  0  0  0  0  0
    1.5000    0.0000    0.0000 C   0  0  0  0  0  0  0  0  0  0  0  0
    0.7500   -1.2990    0.0000 C   0  0  0  0  0  0  0  0  0  0  0  0
   -0.7500   -1.2990    0.0000 C   0  0  0  0  0  0  0  0  0  0  0  0
   -1.5000   -2.5981    0.0000 C   0  0  0  0  0  0  0  0  0  0  0  0
   -3.0000   -2.5981    0.0000 C   0  0  0  0  0  0  0  0  0  0  0  0
   -3.7500   -3.8971    0.0000 C   0  0  0  0  0  0  0  0  0  0  0  0
   -3.0000   -5.1962    0.0000 N   0  0  0  0  0  0  0  0  0  0  0  0
   -1.5000   -5.1962    0.0000 C   0  0  0  0  0  0  0  0  0  0  0  0
   -0.7500   -3.8971    0.0000 C   0  0  0  0  0  0  0  0  0  0  0  0
   -1.5000    0.0000    0.0000 C   0  0  0  0  0  0  0  0  0  0  0  0
   -0.7500    1.2990    0.0000 N   0  0  0  0  0  0  0  0  0  0  0  0
    0.7500    1.2990    0.0000 C   0  0  0  0  0  0  0  0  0  0  0  0
    1.5000    2.5981    0.0000 O   0  0  0  0  0  0  0  0  0  0  0  0
  1  2  1  0
  2  3  2  0
  3  4  1  0
  4  5  1  0
  5  6  2  0
  6  7  1  0
  7  8  2  0
  8  9  1  0
  9 10  2  0
  4 11  2  0
 11 12  1  0
 12 13  1  0
 13 14  2  0
 13  2  1  0
 10  5  1  0
M  END
>  <Compound_ID>  (616) 
CHEMBL12856

>  <Molecule Name>  (616) 
INAMRINONE

>  <Molecular Weight>  (616) 
187.20

>  <AlogP>  (616) 
1.02

>  <Smiles>  (616) 
Nc1cc(-c2ccncc2)c[nH]c1=O

>  <Standard Type>  (616) 
Inhibition

>  <Standard Relation>  (616) 
'='

>  <Standard Units>  (616) 
%

>  <Standard Value>  (616) 
0.0

>  <Assay ChEMBL ID>  (616) 
CHEMBL4256656

>  <Assay Description>  (616) 
Inhibition of MET (unknown origin) at 100 uM using peptide as substrate in presence of ATP and MgCl2 by mobility shift assay relative to control

>  <BAO Format ID>  (616) 
BAO_0000357

>  <BAO Label>  (616) 
single protein format

>  <Assay Organism>  (616) 
Homo sapiens

>  <Target ChEMBL ID>  (616) 
CHEMBL3717

>  <Target Name>  (616) 
Hepatocyte growth factor receptor

>  <Target Organism>  (616) 
Homo sapiens

>  <Target Type>  (616) 
SINGLE PROTEIN

>  <Document ChEMBL ID>  (616) 
CHEMBL4251747

>  <Source Description>  (616) 
Scientific Literature

>  <Document Journal>  (616) 
Bioorg Med Chem

>  <Document Year>  (616) 
2018.0

>  <Active>  (616) 
0.0

$$$$

     RDKit          2D

 32 36  0  0  0  0  0  0  0  0999 V2000
    3.0000    0.0000    0.0000 F   0  0  0  0  0  0  0  0  0  0  0  0
    1.5000    0.0000    0.0000 C   0  0  0  0  0  0  0  0  0  0  0  0
    0.7500   -1.2990    0.0000 C   0  0  0  0  0  0  0  0  0  0  0  0
   -0.7500   -1.2990    0.0000 C   0  0  0  0  0  0  0  0  0  0  0  0
   -1.5000    0.0000    0.0000 C   0  0  0  0  0  0  0  0  0  0  0  0
   -3.0000    0.0000    0.0000 O   0  0  0  0  0  0  0  0  0  0  0  0
   -3.7500    1.2990    0.0000 C   0  0  0  0  0  0  0  0  0  0  0  0
   -3.0000    2.5981    0.0000 N   0  0  0  0  0  0  0  0  0  0  0  0
   -3.7500    3.8971    0.0000 C   0  0  0  0  0  0  0  0  0  0  0  0
   -5.2500    3.8971    0.0000 C   0  0  0  0  0  0  0  0  0  0  0  0
   -6.0000    2.5981    0.0000 C   0  0  0  0  0  0  0  0  0  0  0  0
   -7.5000    2.5981    0.0000 C   0  0  0  0  0  0  0  0  0  0  0  0
   -8.3817    1.3846    0.0000 C   0  0  0  0  0  0  0  0  0  0  0  0
   -7.9182   -0.0420    0.0000 C   0  0  0  0  0  0  0  0  0  0  0  0
   -8.9218   -1.1568    0.0000 C   0  0  0  0  0  0  0  0  0  0  0  0
   -8.4583   -2.5833    0.0000 C   0  0  0  0  0  0  0  0  0  0  0  0
   -6.9911   -2.8952    0.0000 C   0  0  0  0  0  0  0  0  0  0  0  0
   -6.5276   -4.3218    0.0000 F   0  0  0  0  0  0  0  0  0  0  0  0
   -5.9874   -1.7805    0.0000 C   0  0  0  0  0  0  0  0  0  0  0  0
   -6.4509   -0.3539    0.0000 C   0  0  0  0  0  0  0  0  0  0  0  0
   -9.8083    1.8481    0.0000 N   0  0  0  0  0  0  0  0  0  0  0  0
   -9.8083    3.3481    0.0000 C   0  0  0  0  0  0  0  0  0  0  0  0
   -8.3817    3.8116    0.0000 N   0  0  0  0  0  0  0  0  0  0  0  0
   -7.9182    5.2382    0.0000 C   0  0  0  0  0  0  0  0  0  0  0  0
   -6.4509    5.5501    0.0000 C   0  0  0  0  0  0  0  0  0  0  0  0
   -5.9874    6.9766    0.0000 C   0  0  0  0  0  0  0  0  0  0  0  0
   -6.9911    8.0914    0.0000 N   0  0  0  0  0  0  0  0  0  0  0  0
   -8.4583    7.7795    0.0000 C   0  0  0  0  0  0  0  0  0  0  0  0
   -8.9218    6.3529    0.0000 C   0  0  0  0  0  0  0  0  0  0  0  0
   -5.2500    1.2990    0.0000 N   0  0  0  0  0  0  0  0  0  0  0  0
   -0.7500    1.2990    0.0000 C   0  0  0  0  0  0  0  0  0  0  0  0
    0.7500    1.2990    0.0000 C   0  0  0  0  0  0  0  0  0  0  0  0
  1  2  1  0
  2  3  2  0
  3  4  1  0
  4  5  2  0
  5  6  1  0
  6  7  1  0
  7  8  2  0
  8  9  1  0
  9 10  2  0
 10 11  1  0
 11 12  1  0
 12 13  2  0
 13 14  1  0
 14 15  2  0
 15 16  1  0
 16 17  2  0
 17 18  1  0
 17 19  1  0
 19 20  2  0
 13 21  1  0
 21 22  2  0
 22 23  1  0
 23 24  1  0
 24 25  1  0
 25 26  1  0
 26 27  1  0
 27 28  1  0
 28 29  1  0
 11 30  2  0
  5 31  1  0
 31 32  2  0
 32  2  1  0
 30  7  1  0
 23 12  1  0
 29 24  1  0
 20 14  1  0
M  END
>  <Compound_ID>  (617) 
CHEMBL269450

>  <Molecule Name>  (617) 
nan

>  <Molecular Weight>  (617) 
433.46

>  <AlogP>  (617) 
5.00

>  <Smiles>  (617) 
Fc1ccc(Oc2nccc(-c3c(-c4ccc(F)cc4)ncn3C3CCNCC3)n2)cc1

>  <Standard Type>  (617) 
Inhibition

>  <Standard Relation>  (617) 
'='

>  <Standard Units>  (617) 
%

>  <Standard Value>  (617) 
7.6

>  <Assay ChEMBL ID>  (617) 
CHEMBL1962142

>  <Assay Description>  (617) 
GSK_PKIS: MET mean inhibition at 0.1 uM [Nanosyn]

>  <BAO Format ID>  (617) 
BAO_0000357

>  <BAO Label>  (617) 
single protein format

>  <Assay Organism>  (617) 
None

>  <Target ChEMBL ID>  (617) 
CHEMBL3717

>  <Target Name>  (617) 
Hepatocyte growth factor receptor

>  <Target Organism>  (617) 
Homo sapiens

>  <Target Type>  (617) 
SINGLE PROTEIN

>  <Document ChEMBL ID>  (617) 
CHEMBL1961873

>  <Source Description>  (617) 
GSK Published Kinase Inhibitor Set

>  <Document Journal>  (617) 
nan

>  <Document Year>  (617) 
nan

>  <Active>  (617) 
0.0

$$$$

     RDKit          2D

 28 31  0  0  0  0  0  0  0  0999 V2000
   -6.1577   -6.2752    0.0000 C   0  0  0  0  0  0  0  0  0  0  0  0
   -4.6904   -6.5871    0.0000 C   0  0  0  0  0  0  0  0  0  0  0  0
   -3.2232   -6.8990    0.0000 C   0  0  0  0  0  0  0  0  0  0  0  0
   -5.0023   -8.0543    0.0000 C   0  0  0  0  0  0  0  0  0  0  0  0
   -4.3786   -5.1199    0.0000 C   0  0  0  0  0  0  0  0  0  0  0  0
   -2.9520   -4.6564    0.0000 N   0  0  0  0  0  0  0  0  0  0  0  0
   -2.6401   -3.1891    0.0000 C   0  0  0  0  0  0  0  0  0  0  0  0
   -3.7548   -2.1855    0.0000 O   0  0  0  0  0  0  0  0  0  0  0  0
   -1.2135   -2.7256    0.0000 C   0  0  0  0  0  0  0  0  0  0  0  0
   -0.0000   -3.6073    0.0000 C   0  0  0  0  0  0  0  0  0  0  0  0
    1.2135   -2.7256    0.0000 N   0  0  0  0  0  0  0  0  0  0  0  0
    0.7500   -1.2990    0.0000 C   0  0  0  0  0  0  0  0  0  0  0  0
    1.5000    0.0000    0.0000 N   0  0  0  0  0  0  0  0  0  0  0  0
    0.7500    1.2990    0.0000 C   0  0  0  0  0  0  0  0  0  0  0  0
   -0.7500    1.2990    0.0000 C   0  0  0  0  0  0  0  0  0  0  0  0
   -1.5000    2.5981    0.0000 C   0  0  0  0  0  0  0  0  0  0  0  0
   -2.7990    3.3481    0.0000 C   0  0  0  0  0  0  0  0  0  0  0  0
   -1.5000    4.0981    0.0000 C   0  0  0  0  0  0  0  0  0  0  0  0
   -1.5000    0.0000    0.0000 N   0  0  0  0  0  0  0  0  0  0  0  0
   -0.7500   -1.2990    0.0000 C   0  0  0  0  0  0  0  0  0  0  0  0
   -5.4933   -4.1162    0.0000 C   0  0  0  0  0  0  0  0  0  0  0  0
   -5.1814   -2.6490    0.0000 O   0  0  0  0  0  0  0  0  0  0  0  0
   -6.9199   -4.5797    0.0000 N   0  0  0  0  0  0  0  0  0  0  0  0
   -8.2564   -3.8987    0.0000 C   0  0  0  0  0  0  0  0  0  0  0  0
   -8.9374   -5.2352    0.0000 C   0  0  0  0  0  0  0  0  0  0  0  0
  -10.3639   -5.6988    0.0000 C   0  0  0  0  0  0  0  0  0  0  0  0
  -11.7905   -6.1623    0.0000 N   0  0  0  0  0  0  0  0  0  0  0  0
   -7.6009   -5.9162    0.0000 C   0  0  0  0  0  0  0  0  0  0  0  0
  1  2  1  0
  2  3  1  0
  2  4  1  0
  2  5  1  0
  5  6  1  6
  6  7  1  0
  7  8  2  0
  7  9  1  0
  9 10  2  0
 10 11  1  0
 11 12  1  0
 12 13  2  0
 13 14  1  0
 14 15  2  0
 15 16  1  0
 16 17  1  0
 17 18  1  0
 15 19  1  0
 19 20  2  0
  5 21  1  0
 21 22  2  0
 21 23  1  0
 23 24  1  0
 24 25  1  0
 25 26  1  0
 26 27  3  0
 25 28  1  0
 20  9  1  0
 28 23  1  0
 20 12  1  0
 18 16  1  0
M  END
>  <Compound_ID>  (618) 
CHEMBL2325895

>  <Molecule Name>  (618) 
nan

>  <Molecular Weight>  (618) 
380.45

>  <AlogP>  (618) 
1.96

>  <Smiles>  (618) 
CC(C)(C)[C@@H](NC(=O)c1c[nH]c2ncc(C3CC3)nc12)C(=O)N1CC(C#N)C1

>  <Standard Type>  (618) 
Inhibition

>  <Standard Relation>  (618) 
'='

>  <Standard Units>  (618) 
%

>  <Standard Value>  (618) 
-4.0

>  <Assay ChEMBL ID>  (618) 
CHEMBL2329182

>  <Assay Description>  (618) 
Inhibition of MET (unknown origin) at 1 uM

>  <BAO Format ID>  (618) 
BAO_0000357

>  <BAO Label>  (618) 
single protein format

>  <Assay Organism>  (618) 
Homo sapiens

>  <Target ChEMBL ID>  (618) 
CHEMBL3717

>  <Target Name>  (618) 
Hepatocyte growth factor receptor

>  <Target Organism>  (618) 
Homo sapiens

>  <Target Type>  (618) 
SINGLE PROTEIN

>  <Document ChEMBL ID>  (618) 
CHEMBL2321829

>  <Source Description>  (618) 
Scientific Literature

>  <Document Journal>  (618) 
J Med Chem

>  <Document Year>  (618) 
2013.0

>  <Active>  (618) 
0.0

$$$$

     RDKit          2D

 30 33  0  0  0  0  0  0  0  0999 V2000
   -2.6401   -3.1891    0.0000 C   0  0  0  0  0  0  0  0  0  0  0  0
   -1.2135   -2.7256    0.0000 C   0  0  0  0  0  0  0  0  0  0  0  0
   -0.0000   -3.6073    0.0000 N   0  0  0  0  0  0  0  0  0  0  0  0
    1.2135   -2.7256    0.0000 N   0  0  0  0  0  0  0  0  0  0  0  0
    2.6401   -3.1891    0.0000 C   0  0  0  0  0  0  0  0  0  0  0  0
    0.7500   -1.2990    0.0000 C   0  0  0  0  0  0  0  0  0  0  0  0
    1.5000    0.0000    0.0000 C   0  0  0  0  0  0  0  0  0  0  0  0
    0.7500    1.2990    0.0000 C   0  0  0  0  0  0  0  0  0  0  0  0
    1.5000    2.5981    0.0000 N   0  0  0  0  0  0  0  0  0  0  0  0
    3.0000    2.5981    0.0000 C   0  0  0  0  0  0  0  0  0  0  0  0
    0.7500    3.8971    0.0000 C   0  0  0  0  0  0  0  0  0  0  0  0
    1.5000    5.1962    0.0000 C   0  0  0  0  0  0  0  0  0  0  0  0
    0.7500    6.4952    0.0000 C   0  0  0  0  0  0  0  0  0  0  0  0
   -0.7500    6.4952    0.0000 N   0  0  0  0  0  0  0  0  0  0  0  0
   -1.5000    5.1962    0.0000 C   0  0  0  0  0  0  0  0  0  0  0  0
   -3.0000    5.1962    0.0000 N   0  0  0  0  0  0  0  0  0  0  0  0
   -3.7500    6.4952    0.0000 C   0  0  0  0  0  0  0  0  0  0  0  0
   -3.0000    7.7942    0.0000 C   0  0  0  0  0  0  0  0  0  0  0  0
   -3.7500    9.0933    0.0000 C   0  0  0  0  0  0  0  0  0  0  0  0
   -5.2500    9.0933    0.0000 C   0  0  0  0  0  0  0  0  0  0  0  0
   -6.0000    7.7942    0.0000 C   0  0  0  0  0  0  0  0  0  0  0  0
   -7.5000    7.7942    0.0000 S   0  0  0  0  0  0  0  0  0  0  0  0
   -9.0000    7.7942    0.0000 N   0  0  0  0  0  0  0  0  0  0  0  0
   -7.5000    9.2942    0.0000 O   0  0  0  0  0  0  0  0  0  0  0  0
   -7.5000    6.2942    0.0000 O   0  0  0  0  0  0  0  0  0  0  0  0
   -5.2500    6.4952    0.0000 C   0  0  0  0  0  0  0  0  0  0  0  0
   -0.7500    3.8971    0.0000 N   0  0  0  0  0  0  0  0  0  0  0  0
   -0.7500    1.2990    0.0000 C   0  0  0  0  0  0  0  0  0  0  0  0
   -1.5000    0.0000    0.0000 C   0  0  0  0  0  0  0  0  0  0  0  0
   -0.7500   -1.2990    0.0000 C   0  0  0  0  0  0  0  0  0  0  0  0
  1  2  1  0
  2  3  2  0
  3  4  1  0
  4  5  1  0
  4  6  1  0
  6  7  2  0
  7  8  1  0
  8  9  1  0
  9 10  1  0
  9 11  1  0
 11 12  2  0
 12 13  1  0
 13 14  2  0
 14 15  1  0
 15 16  1  0
 16 17  1  0
 17 18  2  0
 18 19  1  0
 19 20  2  0
 20 21  1  0
 21 22  1  0
 22 23  1  0
 22 24  2  0
 22 25  2  0
 21 26  2  0
 15 27  2  0
  8 28  2  0
 28 29  1  0
 29 30  2  0
 30  2  1  0
 30  6  1  0
 27 11  1  0
 26 17  1  0
M  END
>  <Compound_ID>  (619) 
CHEMBL1794073

>  <Molecule Name>  (619) 
GW770220A

>  <Molecular Weight>  (619) 
459.96

>  <AlogP>  (619) 
2.83

>  <Smiles>  (619) 
Cc1nn(C)c2cc(N(C)c3ccnc(Nc4cccc(S(N)(=O)=O)c4)n3)ccc12

>  <Standard Type>  (619) 
Inhibition

>  <Standard Relation>  (619) 
'='

>  <Standard Units>  (619) 
%

>  <Standard Value>  (619) 
7.18

>  <Assay ChEMBL ID>  (619) 
CHEMBL1962142

>  <Assay Description>  (619) 
GSK_PKIS: MET mean inhibition at 0.1 uM [Nanosyn]

>  <BAO Format ID>  (619) 
BAO_0000357

>  <BAO Label>  (619) 
single protein format

>  <Assay Organism>  (619) 
None

>  <Target ChEMBL ID>  (619) 
CHEMBL3717

>  <Target Name>  (619) 
Hepatocyte growth factor receptor

>  <Target Organism>  (619) 
Homo sapiens

>  <Target Type>  (619) 
SINGLE PROTEIN

>  <Document ChEMBL ID>  (619) 
CHEMBL1961873

>  <Source Description>  (619) 
GSK Published Kinase Inhibitor Set

>  <Document Journal>  (619) 
nan

>  <Document Year>  (619) 
nan

>  <Active>  (619) 
0.0

$$$$

     RDKit          2D

 43 47  0  0  0  0  0  0  0  0999 V2000
    3.7500   -1.2990    0.0000 C   0  0  0  0  0  0  0  0  0  0  0  0
    3.0000    0.0000    0.0000 O   0  0  0  0  0  0  0  0  0  0  0  0
    1.5000    0.0000    0.0000 C   0  0  0  0  0  0  0  0  0  0  0  0
    0.7500   -1.2990    0.0000 C   0  0  0  0  0  0  0  0  0  0  0  0
   -0.7500   -1.2990    0.0000 C   0  0  0  0  0  0  0  0  0  0  0  0
   -1.5000   -2.5981    0.0000 N   0  0  0  0  0  0  0  0  0  0  0  0
   -3.0000   -2.5981    0.0000 C   0  0  0  0  0  0  0  0  0  0  0  0
   -3.7500   -1.2990    0.0000 O   0  0  0  0  0  0  0  0  0  0  0  0
   -3.7500   -3.8971    0.0000 N   0  0  0  0  0  0  0  0  0  0  0  0
   -5.2500   -3.8971    0.0000 C   0  0  0  0  0  0  0  0  0  0  0  0
   -6.0000   -2.5981    0.0000 C   0  0  0  0  0  0  0  0  0  0  0  0
   -7.5000   -2.5981    0.0000 N   0  0  0  0  0  0  0  0  0  0  0  0
   -8.2500   -3.8971    0.0000 C   0  0  0  0  0  0  0  0  0  0  0  0
   -9.7500   -3.8971    0.0000 N   0  0  0  0  0  0  0  0  0  0  0  0
  -10.5000   -2.5981    0.0000 C   0  0  0  0  0  0  0  0  0  0  0  0
   -9.7500   -1.2990    0.0000 C   0  0  0  0  0  0  0  0  0  0  0  0
  -10.5000    0.0000    0.0000 C   0  0  0  0  0  0  0  0  0  0  0  0
  -12.0000    0.0000    0.0000 C   0  0  0  0  0  0  0  0  0  0  0  0
  -12.7500    1.2990    0.0000 N   0  0  0  0  0  0  0  0  0  0  0  0
  -12.0000    2.5981    0.0000 C   0  0  0  0  0  0  0  0  0  0  0  0
  -12.7500    3.8971    0.0000 C   0  0  0  0  0  0  0  0  0  0  0  0
  -14.2500    3.8971    0.0000 O   0  0  0  0  0  0  0  0  0  0  0  0
  -15.0000    2.5981    0.0000 C   0  0  0  0  0  0  0  0  0  0  0  0
  -14.2500    1.2990    0.0000 C   0  0  0  0  0  0  0  0  0  0  0  0
  -12.7500   -1.2990    0.0000 C   0  0  0  0  0  0  0  0  0  0  0  0
  -12.0000   -2.5981    0.0000 C   0  0  0  0  0  0  0  0  0  0  0  0
   -7.5000   -5.1962    0.0000 N   0  0  0  0  0  0  0  0  0  0  0  0
   -6.0000   -5.1962    0.0000 C   0  0  0  0  0  0  0  0  0  0  0  0
   -5.2500   -6.4952    0.0000 O   0  0  0  0  0  0  0  0  0  0  0  0
   -6.0000   -7.7942    0.0000 C   0  0  0  0  0  0  0  0  0  0  0  0
   -7.5000   -7.7942    0.0000 C   0  0  0  0  0  0  0  0  0  0  0  0
   -8.2500   -9.0933    0.0000 C   0  0  0  0  0  0  0  0  0  0  0  0
   -7.5000  -10.3923    0.0000 C   0  0  0  0  0  0  0  0  0  0  0  0
   -8.2500  -11.6913    0.0000 C   0  0  0  0  0  0  0  0  0  0  0  0
   -6.0000  -10.3923    0.0000 C   0  0  0  0  0  0  0  0  0  0  0  0
   -5.2500   -9.0933    0.0000 C   0  0  0  0  0  0  0  0  0  0  0  0
   -3.7500   -9.0933    0.0000 O   0  0  0  0  0  0  0  0  0  0  0  0
   -3.0000  -10.3923    0.0000 C   0  0  0  0  0  0  0  0  0  0  0  0
   -1.5000    0.0000    0.0000 C   0  0  0  0  0  0  0  0  0  0  0  0
   -0.7500    1.2990    0.0000 C   0  0  0  0  0  0  0  0  0  0  0  0
   -1.5000    2.5981    0.0000 O   0  0  0  0  0  0  0  0  0  0  0  0
   -0.7500    3.8971    0.0000 C   0  0  0  0  0  0  0  0  0  0  0  0
    0.7500    1.2990    0.0000 C   0  0  0  0  0  0  0  0  0  0  0  0
  1  2  1  0
  2  3  1  0
  3  4  2  0
  4  5  1  0
  5  6  1  0
  6  7  1  0
  7  8  2  0
  7  9  1  0
  9 10  1  0
 10 11  2  0
 11 12  1  0
 12 13  2  0
 13 14  1  0
 14 15  1  0
 15 16  2  0
 16 17  1  0
 17 18  2  0
 18 19  1  0
 19 20  1  0
 20 21  1  0
 21 22  1  0
 22 23  1  0
 23 24  1  0
 18 25  1  0
 25 26  2  0
 13 27  1  0
 27 28  2  0
 28 29  1  0
 29 30  1  0
 30 31  2  0
 31 32  1  0
 32 33  2  0
 33 34  1  0
 33 35  1  0
 35 36  2  0
 36 37  1  0
 37 38  1  0
  5 39  2  0
 39 40  1  0
 40 41  1  0
 41 42  1  0
 40 43  2  0
 43  3  1  0
 28 10  1  0
 36 30  1  0
 26 15  1  0
 24 19  1  0
M  END
>  <Compound_ID>  (620) 
CHEMBL4159506

>  <Molecule Name>  (620) 
nan

>  <Molecular Weight>  (620) 
586.65

>  <AlogP>  (620) 
5.83

>  <Smiles>  (620) 
COc1cc(NC(=O)Nc2cnc(Nc3ccc(N4CCOCC4)cc3)nc2Oc2ccc(C)cc2OC)cc(OC)c1

>  <Standard Type>  (620) 
Inhibition

>  <Standard Relation>  (620) 
'='

>  <Standard Units>  (620) 
%

>  <Standard Value>  (620) 
1.43

>  <Assay ChEMBL ID>  (620) 
CHEMBL4145803

>  <Assay Description>  (620) 
Inhibition of cMET (unknown origin) at 10 uM relative to control

>  <BAO Format ID>  (620) 
BAO_0000357

>  <BAO Label>  (620) 
single protein format

>  <Assay Organism>  (620) 
Homo sapiens

>  <Target ChEMBL ID>  (620) 
CHEMBL3717

>  <Target Name>  (620) 
Hepatocyte growth factor receptor

>  <Target Organism>  (620) 
Homo sapiens

>  <Target Type>  (620) 
SINGLE PROTEIN

>  <Document ChEMBL ID>  (620) 
CHEMBL4145442

>  <Source Description>  (620) 
Scientific Literature

>  <Document Journal>  (620) 
Eur J Med Chem

>  <Document Year>  (620) 
2017.0

>  <Active>  (620) 
0.0

$$$$

     RDKit          2D

 38 41  0  0  0  0  0  0  0  0999 V2000
    6.0000   -2.5981    0.0000 C   0  0  0  0  0  0  0  0  0  0  0  0
    5.2500   -1.2990    0.0000 C   0  0  0  0  0  0  0  0  0  0  0  0
    6.0000    0.0000    0.0000 O   0  0  0  0  0  0  0  0  0  0  0  0
    3.7500   -1.2990    0.0000 C   0  0  0  0  0  0  0  0  0  0  0  0
    3.0000    0.0000    0.0000 N   0  0  0  0  0  0  0  0  0  0  0  0
    1.5000    0.0000    0.0000 C   0  0  0  0  0  0  0  0  0  0  0  0
    0.7500   -1.2990    0.0000 N   0  0  0  0  0  0  0  0  0  0  0  0
   -0.7500   -1.2990    0.0000 C   0  0  0  0  0  0  0  0  0  0  0  0
   -1.5000    0.0000    0.0000 C   0  0  0  0  0  0  0  0  0  0  0  0
   -0.7500    1.2990    0.0000 C   0  0  0  0  0  0  0  0  0  0  0  0
   -1.5000    2.5981    0.0000 N   0  0  0  0  0  0  0  0  0  0  0  0
   -2.9918    2.7549    0.0000 C   0  0  0  0  0  0  0  0  0  0  0  0
   -3.3037    4.2221    0.0000 C   0  0  0  0  0  0  0  0  0  0  0  0
   -2.0046    4.9721    0.0000 N   0  0  0  0  0  0  0  0  0  0  0  0
   -0.8899    3.9684    0.0000 C   0  0  0  0  0  0  0  0  0  0  0  0
    0.5773    4.2803    0.0000 C   0  0  0  0  0  0  0  0  0  0  0  0
    1.0409    5.7068    0.0000 C   0  0  0  0  0  0  0  0  0  0  0  0
    2.5081    6.0187    0.0000 C   0  0  0  0  0  0  0  0  0  0  0  0
    2.9716    7.4453    0.0000 C   0  0  0  0  0  0  0  0  0  0  0  0
    1.9679    8.5600    0.0000 C   0  0  0  0  0  0  0  0  0  0  0  0
    0.5007    8.2481    0.0000 C   0  0  0  0  0  0  0  0  0  0  0  0
   -0.5030    9.3629    0.0000 N   0  0  0  0  0  0  0  0  0  0  0  0
   -0.0395   10.7895    0.0000 C   0  0  0  0  0  0  0  0  0  0  0  0
    1.4277   11.1013    0.0000 O   0  0  0  0  0  0  0  0  0  0  0  0
   -1.0432   11.9042    0.0000 N   0  0  0  0  0  0  0  0  0  0  0  0
   -0.5797   13.3308    0.0000 C   0  0  0  0  0  0  0  0  0  0  0  0
    0.8876   13.6426    0.0000 C   0  0  0  0  0  0  0  0  0  0  0  0
    1.3511   15.0692    0.0000 C   0  0  0  0  0  0  0  0  0  0  0  0
    0.3474   16.1839    0.0000 C   0  0  0  0  0  0  0  0  0  0  0  0
    0.8109   17.6105    0.0000 Cl  0  0  0  0  0  0  0  0  0  0  0  0
   -1.1198   15.8721    0.0000 C   0  0  0  0  0  0  0  0  0  0  0  0
   -2.1235   16.9868    0.0000 C   0  0  0  0  0  0  0  0  0  0  0  0
   -3.1272   18.1015    0.0000 F   0  0  0  0  0  0  0  0  0  0  0  0
   -3.2382   15.9831    0.0000 F   0  0  0  0  0  0  0  0  0  0  0  0
   -1.0088   17.9905    0.0000 F   0  0  0  0  0  0  0  0  0  0  0  0
   -1.5834   14.4455    0.0000 C   0  0  0  0  0  0  0  0  0  0  0  0
    0.0372    6.8216    0.0000 C   0  0  0  0  0  0  0  0  0  0  0  0
    0.7500    1.2990    0.0000 N   0  0  0  0  0  0  0  0  0  0  0  0
  2  1  1  1
  2  3  1  0
  2  4  1  0
  4  5  1  0
  5  6  1  0
  6  7  2  0
  7  8  1  0
  8  9  2  0
  9 10  1  0
 10 11  1  0
 11 12  1  0
 12 13  2  0
 13 14  1  0
 14 15  2  0
 15 16  1  0
 16 17  1  0
 17 18  2  0
 18 19  1  0
 19 20  2  0
 20 21  1  0
 21 22  1  0
 22 23  1  0
 23 24  2  0
 23 25  1  0
 25 26  1  0
 26 27  2  0
 27 28  1  0
 28 29  2  0
 29 30  1  0
 29 31  1  0
 31 32  1  0
 32 33  1  0
 32 34  1  0
 32 35  1  0
 31 36  2  0
 21 37  2  0
 10 38  2  0
 38  6  1  0
 15 11  1  0
 37 17  1  0
 36 26  1  0
M  END
>  <Compound_ID>  (621) 
CHEMBL3309549

>  <Molecule Name>  (621) 
nan

>  <Molecular Weight>  (621) 
545.95

>  <AlogP>  (621) 
5.36

>  <Smiles>  (621) 
C[C@H](O)CNc1nccc(-n2ccnc2Cc2cccc(NC(=O)Nc3ccc(Cl)c(C(F)(F)F)c3)c2)n1

>  <Standard Type>  (621) 
Inhibition

>  <Standard Relation>  (621) 
'='

>  <Standard Units>  (621) 
%

>  <Standard Value>  (621) 
17.6

>  <Assay ChEMBL ID>  (621) 
CHEMBL3363731

>  <Assay Description>  (621) 
Inhibition of c-MET (unknown origin) at 10 uM

>  <BAO Format ID>  (621) 
BAO_0000357

>  <BAO Label>  (621) 
single protein format

>  <Assay Organism>  (621) 
Homo sapiens

>  <Target ChEMBL ID>  (621) 
CHEMBL3717

>  <Target Name>  (621) 
Hepatocyte growth factor receptor

>  <Target Organism>  (621) 
Homo sapiens

>  <Target Type>  (621) 
SINGLE PROTEIN

>  <Document ChEMBL ID>  (621) 
CHEMBL3351907

>  <Source Description>  (621) 
Scientific Literature

>  <Document Journal>  (621) 
Bioorg Med Chem Lett

>  <Document Year>  (621) 
2014.0

>  <Active>  (621) 
0.0

$$$$

     RDKit          2D

 28 31  0  0  0  0  0  0  0  0999 V2000
   -3.1240   -6.3037    0.0000 C   0  0  0  0  0  0  0  0  0  0  0  0
   -3.1240   -4.8037    0.0000 O   0  0  0  0  0  0  0  0  0  0  0  0
   -4.4231   -4.0537    0.0000 C   0  0  0  0  0  0  0  0  0  0  0  0
   -5.7221   -4.8037    0.0000 C   0  0  0  0  0  0  0  0  0  0  0  0
   -7.0211   -4.0537    0.0000 C   0  0  0  0  0  0  0  0  0  0  0  0
   -8.3202   -4.8037    0.0000 C   0  0  0  0  0  0  0  0  0  0  0  0
   -9.6192   -4.0537    0.0000 O   0  0  0  0  0  0  0  0  0  0  0  0
   -7.0211   -2.5537    0.0000 C   0  0  0  0  0  0  0  0  0  0  0  0
   -5.7221   -1.8037    0.0000 C   0  0  0  0  0  0  0  0  0  0  0  0
   -4.4231   -2.5537    0.0000 C   0  0  0  0  0  0  0  0  0  0  0  0
   -3.1240   -1.8037    0.0000 C   0  0  0  0  0  0  0  0  0  0  0  0
   -1.7537   -2.4138    0.0000 C   0  0  0  0  0  0  0  0  0  0  0  0
   -0.7500   -1.2990    0.0000 C   0  0  0  0  0  0  0  0  0  0  0  0
    0.7500   -1.2990    0.0000 C   0  0  0  0  0  0  0  0  0  0  0  0
    1.5000   -2.5981    0.0000 N   0  0  0  0  0  0  0  0  0  0  0  0
    3.0000   -2.5981    0.0000 C   0  0  0  0  0  0  0  0  0  0  0  0
    3.7500   -3.8971    0.0000 C   0  0  0  0  0  0  0  0  0  0  0  0
    5.2500   -3.8971    0.0000 C   0  0  0  0  0  0  0  0  0  0  0  0
    6.0000   -2.5981    0.0000 C   0  0  0  0  0  0  0  0  0  0  0  0
    7.5000   -2.5981    0.0000 F   0  0  0  0  0  0  0  0  0  0  0  0
    5.2500   -1.2990    0.0000 C   0  0  0  0  0  0  0  0  0  0  0  0
    6.0000   -0.0000    0.0000 Cl  0  0  0  0  0  0  0  0  0  0  0  0
    3.7500   -1.2990    0.0000 C   0  0  0  0  0  0  0  0  0  0  0  0
    1.5000    0.0000    0.0000 N   0  0  0  0  0  0  0  0  0  0  0  0
    0.7500    1.2990    0.0000 C   0  0  0  0  0  0  0  0  0  0  0  0
   -0.7500    1.2990    0.0000 N   0  0  0  0  0  0  0  0  0  0  0  0
   -1.5000    0.0000    0.0000 C   0  0  0  0  0  0  0  0  0  0  0  0
   -2.9672   -0.3119    0.0000 S   0  0  0  0  0  0  0  0  0  0  0  0
  1  2  1  0
  2  3  1  0
  3  4  2  0
  4  5  1  0
  5  6  1  0
  6  7  1  0
  5  8  2  0
  8  9  1  0
  9 10  2  0
 10 11  1  0
 11 12  2  0
 12 13  1  0
 13 14  2  0
 14 15  1  0
 15 16  1  0
 16 17  2  0
 17 18  1  0
 18 19  2  0
 19 20  1  0
 19 21  1  0
 21 22  1  0
 21 23  2  0
 14 24  1  0
 24 25  2  0
 25 26  1  0
 26 27  2  0
 27 28  1  0
 10  3  1  0
 28 11  1  0
 27 13  1  0
 23 16  1  0
M  END
>  <Compound_ID>  (622) 
CHEMBL3758351

>  <Molecule Name>  (622) 
nan

>  <Molecular Weight>  (622) 
415.88

>  <AlogP>  (622) 
5.40

>  <Smiles>  (622) 
COc1cc(CO)ccc1-c1cc2c(Nc3ccc(F)c(Cl)c3)ncnc2s1

>  <Standard Type>  (622) 
Inhibition

>  <Standard Relation>  (622) 
'='

>  <Standard Units>  (622) 
%

>  <Standard Value>  (622) 
-5.0

>  <Assay ChEMBL ID>  (622) 
CHEMBL3761591

>  <Assay Description>  (622) 
Inhibition of MET (unknown origin) at 500 nM

>  <BAO Format ID>  (622) 
BAO_0000357

>  <BAO Label>  (622) 
single protein format

>  <Assay Organism>  (622) 
Homo sapiens

>  <Target ChEMBL ID>  (622) 
CHEMBL3717

>  <Target Name>  (622) 
Hepatocyte growth factor receptor

>  <Target Organism>  (622) 
Homo sapiens

>  <Target Type>  (622) 
SINGLE PROTEIN

>  <Document ChEMBL ID>  (622) 
CHEMBL3758163

>  <Source Description>  (622) 
Scientific Literature

>  <Document Journal>  (622) 
Eur J Med Chem

>  <Document Year>  (622) 
2016.0

>  <Active>  (622) 
0.0

$$$$

     RDKit          2D

 33 37  0  0  0  0  0  0  0  0999 V2000
   10.8458   -4.5594    0.0000 C   0  0  0  0  0  0  0  0  0  0  0  0
    9.6968   -3.5952    0.0000 O   0  0  0  0  0  0  0  0  0  0  0  0
    8.2872   -4.1082    0.0000 C   0  0  0  0  0  0  0  0  0  0  0  0
    8.0268   -5.5854    0.0000 C   0  0  0  0  0  0  0  0  0  0  0  0
    6.6172   -6.0985    0.0000 C   0  0  0  0  0  0  0  0  0  0  0  0
    5.4681   -5.1343    0.0000 C   0  0  0  0  0  0  0  0  0  0  0  0
    4.0586   -5.6473    0.0000 N   0  0  0  0  0  0  0  0  0  0  0  0
    2.9095   -4.6831    0.0000 C   0  0  0  0  0  0  0  0  0  0  0  0
    3.1700   -3.2059    0.0000 O   0  0  0  0  0  0  0  0  0  0  0  0
    1.5000   -5.1962    0.0000 C   0  0  0  0  0  0  0  0  0  0  0  0
    0.7500   -3.8971    0.0000 C   0  0  0  0  0  0  0  0  0  0  0  0
   -0.7500   -3.8971    0.0000 O   0  0  0  0  0  0  0  0  0  0  0  0
    1.5000   -2.5981    0.0000 N   0  0  0  0  0  0  0  0  0  0  0  0
    0.7500   -1.2990    0.0000 C   0  0  0  0  0  0  0  0  0  0  0  0
    1.5000    0.0000    0.0000 C   0  0  0  0  0  0  0  0  0  0  0  0
    0.7500    1.2990    0.0000 C   0  0  0  0  0  0  0  0  0  0  0  0
   -0.7500    1.2990    0.0000 C   0  0  0  0  0  0  0  0  0  0  0  0
   -1.5000    0.0000    0.0000 C   0  0  0  0  0  0  0  0  0  0  0  0
   -0.7500   -1.2990    0.0000 C   0  0  0  0  0  0  0  0  0  0  0  0
   -2.9672    0.3119    0.0000 N   0  0  0  0  0  0  0  0  0  0  0  0
   -3.1240    1.8037    0.0000 C   0  0  0  0  0  0  0  0  0  0  0  0
   -4.4231    2.5537    0.0000 O   0  0  0  0  0  0  0  0  0  0  0  0
   -1.7537    2.4138    0.0000 C   0  0  0  0  0  0  0  0  0  0  0  0
   -1.4418    3.8810    0.0000 C   0  0  0  0  0  0  0  0  0  0  0  0
   -2.5565    4.8847    0.0000 C   0  0  0  0  0  0  0  0  0  0  0  0
   -4.0238    4.5728    0.0000 C   0  0  0  0  0  0  0  0  0  0  0  0
   -4.7738    5.8718    0.0000 C   0  0  0  0  0  0  0  0  0  0  0  0
   -3.7701    6.9866    0.0000 C   0  0  0  0  0  0  0  0  0  0  0  0
   -2.3998    6.3765    0.0000 N   0  0  0  0  0  0  0  0  0  0  0  0
    1.7605   -6.6734    0.0000 C   0  0  0  0  0  0  0  0  0  0  0  0
    0.3509   -6.1603    0.0000 C   0  0  0  0  0  0  0  0  0  0  0  0
    5.7286   -3.6571    0.0000 C   0  0  0  0  0  0  0  0  0  0  0  0
    7.1382   -3.1440    0.0000 C   0  0  0  0  0  0  0  0  0  0  0  0
  1  2  1  0
  2  3  1  0
  3  4  2  0
  4  5  1  0
  5  6  2  0
  6  7  1  0
  7  8  1  0
  8  9  2  0
  8 10  1  0
 10 11  1  0
 11 12  2  0
 11 13  1  0
 13 14  1  0
 14 15  2  0
 15 16  1  0
 16 17  2  0
 17 18  1  0
 18 19  2  0
 18 20  1  0
 20 21  1  0
 21 22  2  0
 21 23  1  0
 23 24  2  0
 24 25  1  0
 25 26  2  0
 26 27  1  0
 27 28  2  0
 28 29  1  0
 10 30  1  0
 30 31  1  0
  6 32  1  0
 32 33  2  0
 33  3  1  0
 31 10  1  0
 19 14  1  0
 29 25  1  0
 23 17  1  0
M  END
>  <Compound_ID>  (623) 
CHEMBL3322568

>  <Molecule Name>  (623) 
nan

>  <Molecular Weight>  (623) 
442.48

>  <AlogP>  (623) 
3.87

>  <Smiles>  (623) 
COc1ccc(NC(=O)C2(C(=O)Nc3ccc4c(c3)NC(=O)/C4=C\c3ccc[nH]3)CC2)cc1

>  <Standard Type>  (623) 
Inhibition

>  <Standard Relation>  (623) 
'='

>  <Standard Units>  (623) 
%

>  <Standard Value>  (623) 
6.0

>  <Assay ChEMBL ID>  (623) 
CHEMBL3362113

>  <Assay Description>  (623) 
Inhibition of c-Met (unknown origin) using KKKSPGEYVNIEFG substrate at 1 uM by radioisotope-based P81 filter-binding assay

>  <BAO Format ID>  (623) 
BAO_0000357

>  <BAO Label>  (623) 
single protein format

>  <Assay Organism>  (623) 
Homo sapiens

>  <Target ChEMBL ID>  (623) 
CHEMBL3717

>  <Target Name>  (623) 
Hepatocyte growth factor receptor

>  <Target Organism>  (623) 
Homo sapiens

>  <Target Type>  (623) 
SINGLE PROTEIN

>  <Document ChEMBL ID>  (623) 
CHEMBL3351387

>  <Source Description>  (623) 
Scientific Literature

>  <Document Journal>  (623) 
Eur J Med Chem

>  <Document Year>  (623) 
2014.0

>  <Active>  (623) 
0.0

$$$$

     RDKit          2D

 36 40  0  0  0  0  0  0  0  0999 V2000
    6.3579   -8.4259    0.0000 C   0  0  0  0  0  0  0  0  0  0  0  0
    6.2011   -6.9341    0.0000 C   0  0  0  0  0  0  0  0  0  0  0  0
    4.8308   -6.3240    0.0000 O   0  0  0  0  0  0  0  0  0  0  0  0
    4.6740   -4.8322    0.0000 C   0  0  0  0  0  0  0  0  0  0  0  0
    5.8875   -3.9505    0.0000 O   0  0  0  0  0  0  0  0  0  0  0  0
    3.3037   -4.2221    0.0000 C   0  0  0  0  0  0  0  0  0  0  0  0
    2.9918   -2.7549    0.0000 N   0  0  0  0  0  0  0  0  0  0  0  0
    1.5000   -2.5981    0.0000 N   0  0  0  0  0  0  0  0  0  0  0  0
    0.7500   -1.2990    0.0000 C   0  0  0  0  0  0  0  0  0  0  0  0
    1.5000    0.0000    0.0000 C   0  0  0  0  0  0  0  0  0  0  0  0
    0.7500    1.2990    0.0000 C   0  0  0  0  0  0  0  0  0  0  0  0
   -0.7500    1.2990    0.0000 C   0  0  0  0  0  0  0  0  0  0  0  0
   -1.5000    0.0000    0.0000 C   0  0  0  0  0  0  0  0  0  0  0  0
   -0.7500   -1.2990    0.0000 C   0  0  0  0  0  0  0  0  0  0  0  0
    0.8899   -3.9684    0.0000 C   0  0  0  0  0  0  0  0  0  0  0  0
    2.0046   -4.9721    0.0000 C   0  0  0  0  0  0  0  0  0  0  0  0
    1.8478   -6.4639    0.0000 C   0  0  0  0  0  0  0  0  0  0  0  0
    3.0613   -7.3456    0.0000 O   0  0  0  0  0  0  0  0  0  0  0  0
    0.4775   -7.0740    0.0000 C   0  0  0  0  0  0  0  0  0  0  0  0
   -0.8215   -6.3240    0.0000 C   0  0  0  0  0  0  0  0  0  0  0  0
   -0.9783   -4.8322    0.0000 C   0  0  0  0  0  0  0  0  0  0  0  0
   -1.9363   -7.3277    0.0000 N   0  0  0  0  0  0  0  0  0  0  0  0
   -1.3261   -8.6980    0.0000 C   0  0  0  0  0  0  0  0  0  0  0  0
   -2.0761   -9.9970    0.0000 C   0  0  0  0  0  0  0  0  0  0  0  0
   -1.3261  -11.2961    0.0000 C   0  0  0  0  0  0  0  0  0  0  0  0
   -2.0761  -12.5951    0.0000 C   0  0  0  0  0  0  0  0  0  0  0  0
   -3.5761  -12.5951    0.0000 C   0  0  0  0  0  0  0  0  0  0  0  0
   -4.3261  -11.2961    0.0000 C   0  0  0  0  0  0  0  0  0  0  0  0
   -3.5761   -9.9970    0.0000 C   0  0  0  0  0  0  0  0  0  0  0  0
    0.1656   -8.5412    0.0000 C   0  0  0  0  0  0  0  0  0  0  0  0
    1.1693   -9.6559    0.0000 C   0  0  0  0  0  0  0  0  0  0  0  0
    0.7058  -11.0825    0.0000 C   0  0  0  0  0  0  0  0  0  0  0  0
    1.7095  -12.1972    0.0000 C   0  0  0  0  0  0  0  0  0  0  0  0
    3.1767  -11.8854    0.0000 C   0  0  0  0  0  0  0  0  0  0  0  0
    3.6402  -10.4588    0.0000 C   0  0  0  0  0  0  0  0  0  0  0  0
    2.6366   -9.3440    0.0000 C   0  0  0  0  0  0  0  0  0  0  0  0
  1  2  1  0
  2  3  1  0
  3  4  1  0
  4  5  2  0
  4  6  1  0
  6  7  2  0
  7  8  1  0
  8  9  1  0
  9 10  2  0
 10 11  1  0
 11 12  2  0
 12 13  1  0
 13 14  2  0
  8 15  1  0
 15 16  2  0
 16 17  1  0
 17 18  2  0
 17 19  1  0
 19 20  2  0
 20 21  1  0
 20 22  1  0
 22 23  1  0
 23 24  1  0
 24 25  2  0
 25 26  1  0
 26 27  2  0
 27 28  1  0
 28 29  2  0
 23 30  2  0
 30 31  1  0
 31 32  2  0
 32 33  1  0
 33 34  2  0
 34 35  1  0
 35 36  2  0
 16  6  1  0
 30 19  1  0
 36 31  1  0
 14  9  1  0
 29 24  1  0
M  END
>  <Compound_ID>  (624) 
CHEMBL3740131

>  <Molecule Name>  (624) 
nan

>  <Molecular Weight>  (624) 
475.55

>  <AlogP>  (624) 
6.25

>  <Smiles>  (624) 
CCOC(=O)c1nn(-c2ccccc2)cc1C(=O)c1c(C)[nH]c(-c2ccccc2)c1-c1ccccc1

>  <Standard Type>  (624) 
Inhibition

>  <Standard Relation>  (624) 
'='

>  <Standard Units>  (624) 
%

>  <Standard Value>  (624) 
6.0

>  <Assay ChEMBL ID>  (624) 
CHEMBL3744318

>  <Assay Description>  (624) 
Inhibition of MET (unknown origin) at 30 uM by microfluidic assay relative to control

>  <BAO Format ID>  (624) 
BAO_0000357

>  <BAO Label>  (624) 
single protein format

>  <Assay Organism>  (624) 
Homo sapiens

>  <Target ChEMBL ID>  (624) 
CHEMBL3717

>  <Target Name>  (624) 
Hepatocyte growth factor receptor

>  <Target Organism>  (624) 
Homo sapiens

>  <Target Type>  (624) 
SINGLE PROTEIN

>  <Document ChEMBL ID>  (624) 
CHEMBL3739348

>  <Source Description>  (624) 
Scientific Literature

>  <Document Journal>  (624) 
Medchemcomm

>  <Document Year>  (624) 
2015.0

>  <Active>  (624) 
0.0

$$$$

     RDKit          2D

 30 34  0  0  0  0  0  0  0  0999 V2000
   -2.0444  -13.4534    0.0000 C   0  0  0  0  0  0  0  0  0  0  0  0
   -3.1591  -12.4497    0.0000 N   0  0  0  0  0  0  0  0  0  0  0  0
   -3.0023  -10.9579    0.0000 C   0  0  0  0  0  0  0  0  0  0  0  0
   -4.3727  -10.3478    0.0000 C   0  0  0  0  0  0  0  0  0  0  0  0
   -4.6845   -8.8806    0.0000 C   0  0  0  0  0  0  0  0  0  0  0  0
   -6.1111   -8.4171    0.0000 C   0  0  0  0  0  0  0  0  0  0  0  0
   -6.4230   -6.9498    0.0000 C   0  0  0  0  0  0  0  0  0  0  0  0
   -7.8496   -6.4863    0.0000 C   0  0  0  0  0  0  0  0  0  0  0  0
   -9.2761   -6.0228    0.0000 F   0  0  0  0  0  0  0  0  0  0  0  0
   -8.3131   -7.9129    0.0000 F   0  0  0  0  0  0  0  0  0  0  0  0
   -7.3860   -5.0597    0.0000 F   0  0  0  0  0  0  0  0  0  0  0  0
   -5.3083   -5.9462    0.0000 C   0  0  0  0  0  0  0  0  0  0  0  0
   -5.3083   -4.4462    0.0000 N   0  0  0  0  0  0  0  0  0  0  0  0
   -3.8817   -3.9826    0.0000 C   0  0  0  0  0  0  0  0  0  0  0  0
   -3.0000   -5.1962    0.0000 C   0  0  0  0  0  0  0  0  0  0  0  0
   -1.5000   -5.1962    0.0000 C   0  0  0  0  0  0  0  0  0  0  0  0
   -0.7500   -3.8971    0.0000 C   0  0  0  0  0  0  0  0  0  0  0  0
    0.7500   -3.8971    0.0000 C   0  0  0  0  0  0  0  0  0  0  0  0
    1.5000   -2.5981    0.0000 C   0  0  0  0  0  0  0  0  0  0  0  0
    0.7500   -1.2990    0.0000 C   0  0  0  0  0  0  0  0  0  0  0  0
    1.5000    0.0000    0.0000 N   0  0  0  0  0  0  0  0  0  0  0  0
    0.7500    1.2990    0.0000 C   0  0  0  0  0  0  0  0  0  0  0  0
   -0.7500    1.2990    0.0000 C   0  0  0  0  0  0  0  0  0  0  0  0
   -1.5000    0.0000    0.0000 C   0  0  0  0  0  0  0  0  0  0  0  0
   -0.7500   -1.2990    0.0000 C   0  0  0  0  0  0  0  0  0  0  0  0
   -1.5000   -2.5981    0.0000 C   0  0  0  0  0  0  0  0  0  0  0  0
   -3.8817   -6.4097    0.0000 N   0  0  0  0  0  0  0  0  0  0  0  0
   -3.5698   -7.8769    0.0000 C   0  0  0  0  0  0  0  0  0  0  0  0
   -5.3764  -11.4625    0.0000 C   0  0  0  0  0  0  0  0  0  0  0  0
   -4.6264  -12.7616    0.0000 N   0  0  0  0  0  0  0  0  0  0  0  0
  1  2  1  0
  2  3  1  0
  3  4  2  0
  4  5  1  0
  5  6  1  0
  6  7  2  0
  7  8  1  0
  8  9  1  0
  8 10  1  0
  8 11  1  0
  7 12  1  0
 12 13  2  0
 13 14  1  0
 14 15  2  0
 15 16  1  0
 16 17  1  0
 17 18  2  0
 18 19  1  0
 19 20  2  0
 20 21  1  0
 21 22  2  0
 22 23  1  0
 23 24  2  0
 24 25  1  0
 25 26  2  0
 15 27  1  0
 27 28  1  0
  4 29  1  0
 29 30  2  0
 30  2  1  0
 28  5  2  0
 27 12  1  0
 26 17  1  0
 25 20  1  0
M  END
>  <Compound_ID>  (625) 
CHEMBL3582275

>  <Molecule Name>  (625) 
nan

>  <Molecular Weight>  (625) 
407.40

>  <AlogP>  (625) 
4.89

>  <Smiles>  (625) 
Cn1cc(-c2cc(C(F)(F)F)c3ncc(Cc4ccc5ncccc5c4)n3c2)cn1

>  <Standard Type>  (625) 
Inhibition

>  <Standard Relation>  (625) 
'='

>  <Standard Units>  (625) 
%

>  <Standard Value>  (625) 
9.6

>  <Assay ChEMBL ID>  (625) 
CHEMBL3583379

>  <Assay Description>  (625) 
Inhibition of C-Met (unknown origin) using polu (Glu,Tyr)4:1 substrate at 1 uM after 30 mins incubation by multi-well spectrophotometry

>  <BAO Format ID>  (625) 
BAO_0000357

>  <BAO Label>  (625) 
single protein format

>  <Assay Organism>  (625) 
Homo sapiens

>  <Target ChEMBL ID>  (625) 
CHEMBL3717

>  <Target Name>  (625) 
Hepatocyte growth factor receptor

>  <Target Organism>  (625) 
Homo sapiens

>  <Target Type>  (625) 
SINGLE PROTEIN

>  <Document ChEMBL ID>  (625) 
CHEMBL3580555

>  <Source Description>  (625) 
Scientific Literature

>  <Document Journal>  (625) 
ACS Med Chem Lett

>  <Document Year>  (625) 
2015.0

>  <Active>  (625) 
0.0

$$$$

     RDKit          2D

 30 34  0  0  0  0  0  0  0  0999 V2000
   -2.0444  -13.4534    0.0000 C   0  0  0  0  0  0  0  0  0  0  0  0
   -3.1591  -12.4497    0.0000 N   0  0  0  0  0  0  0  0  0  0  0  0
   -3.0023  -10.9579    0.0000 C   0  0  0  0  0  0  0  0  0  0  0  0
   -4.3727  -10.3478    0.0000 C   0  0  0  0  0  0  0  0  0  0  0  0
   -4.6845   -8.8806    0.0000 C   0  0  0  0  0  0  0  0  0  0  0  0
   -3.5698   -7.8769    0.0000 C   0  0  0  0  0  0  0  0  0  0  0  0
   -3.8817   -6.4097    0.0000 N   0  0  0  0  0  0  0  0  0  0  0  0
   -3.0000   -5.1962    0.0000 C   0  0  0  0  0  0  0  0  0  0  0  0
   -1.5000   -5.1962    0.0000 C   0  0  0  0  0  0  0  0  0  0  0  0
   -0.7500   -3.8971    0.0000 C   0  0  0  0  0  0  0  0  0  0  0  0
    0.7500   -3.8971    0.0000 C   0  0  0  0  0  0  0  0  0  0  0  0
    1.5000   -2.5981    0.0000 C   0  0  0  0  0  0  0  0  0  0  0  0
    0.7500   -1.2990    0.0000 C   0  0  0  0  0  0  0  0  0  0  0  0
    1.5000    0.0000    0.0000 N   0  0  0  0  0  0  0  0  0  0  0  0
    0.7500    1.2990    0.0000 C   0  0  0  0  0  0  0  0  0  0  0  0
   -0.7500    1.2990    0.0000 C   0  0  0  0  0  0  0  0  0  0  0  0
   -1.5000    0.0000    0.0000 C   0  0  0  0  0  0  0  0  0  0  0  0
   -0.7500   -1.2990    0.0000 C   0  0  0  0  0  0  0  0  0  0  0  0
   -1.5000   -2.5981    0.0000 C   0  0  0  0  0  0  0  0  0  0  0  0
   -3.8817   -3.9826    0.0000 C   0  0  0  0  0  0  0  0  0  0  0  0
   -5.3083   -4.4462    0.0000 N   0  0  0  0  0  0  0  0  0  0  0  0
   -5.3083   -5.9462    0.0000 C   0  0  0  0  0  0  0  0  0  0  0  0
   -6.4230   -6.9498    0.0000 C   0  0  0  0  0  0  0  0  0  0  0  0
   -6.1111   -8.4171    0.0000 C   0  0  0  0  0  0  0  0  0  0  0  0
   -7.2258   -9.4208    0.0000 C   0  0  0  0  0  0  0  0  0  0  0  0
   -8.3405  -10.4245    0.0000 F   0  0  0  0  0  0  0  0  0  0  0  0
   -8.2295   -8.3060    0.0000 F   0  0  0  0  0  0  0  0  0  0  0  0
   -6.2221  -10.5355    0.0000 F   0  0  0  0  0  0  0  0  0  0  0  0
   -5.3764  -11.4625    0.0000 C   0  0  0  0  0  0  0  0  0  0  0  0
   -4.6264  -12.7616    0.0000 N   0  0  0  0  0  0  0  0  0  0  0  0
  1  2  1  0
  2  3  1  0
  3  4  2  0
  4  5  1  0
  5  6  2  0
  6  7  1  0
  7  8  1  0
  8  9  1  0
  9 10  1  0
 10 11  2  0
 11 12  1  0
 12 13  2  0
 13 14  1  0
 14 15  2  0
 15 16  1  0
 16 17  2  0
 17 18  1  0
 18 19  2  0
  8 20  2  0
 20 21  1  0
 21 22  2  0
 22 23  1  0
 23 24  2  0
 24 25  1  0
 25 26  1  0
 25 27  1  0
 25 28  1  0
  4 29  1  0
 29 30  2  0
 30  2  1  0
 24  5  1  0
 22  7  1  0
 19 10  1  0
 18 13  1  0
M  END
>  <Compound_ID>  (626) 
CHEMBL3582276

>  <Molecule Name>  (626) 
nan

>  <Molecular Weight>  (626) 
407.40

>  <AlogP>  (626) 
4.89

>  <Smiles>  (626) 
Cn1cc(-c2cn3c(Cc4ccc5ncccc5c4)cnc3cc2C(F)(F)F)cn1

>  <Standard Type>  (626) 
Inhibition

>  <Standard Relation>  (626) 
'='

>  <Standard Units>  (626) 
%

>  <Standard Value>  (626) 
5.9

>  <Assay ChEMBL ID>  (626) 
CHEMBL3583379

>  <Assay Description>  (626) 
Inhibition of C-Met (unknown origin) using polu (Glu,Tyr)4:1 substrate at 1 uM after 30 mins incubation by multi-well spectrophotometry

>  <BAO Format ID>  (626) 
BAO_0000357

>  <BAO Label>  (626) 
single protein format

>  <Assay Organism>  (626) 
Homo sapiens

>  <Target ChEMBL ID>  (626) 
CHEMBL3717

>  <Target Name>  (626) 
Hepatocyte growth factor receptor

>  <Target Organism>  (626) 
Homo sapiens

>  <Target Type>  (626) 
SINGLE PROTEIN

>  <Document ChEMBL ID>  (626) 
CHEMBL3580555

>  <Source Description>  (626) 
Scientific Literature

>  <Document Journal>  (626) 
ACS Med Chem Lett

>  <Document Year>  (626) 
2015.0

>  <Active>  (626) 
0.0

$$$$

     RDKit          2D

 39 43  0  0  0  0  0  0  0  0999 V2000
   -1.9635   -6.6227    0.0000 C   0  0  0  0  0  0  0  0  0  0  0  0
   -1.2135   -5.3237    0.0000 C   0  0  0  0  0  0  0  0  0  0  0  0
   -2.5838   -4.7136    0.0000 C   0  0  0  0  0  0  0  0  0  0  0  0
   -0.0000   -6.2054    0.0000 C   0  0  0  0  0  0  0  0  0  0  0  0
   -0.0000   -7.7054    0.0000 O   0  0  0  0  0  0  0  0  0  0  0  0
    1.2135   -5.3237    0.0000 N   0  0  0  0  0  0  0  0  0  0  0  0
    0.7500   -3.8971    0.0000 C   0  0  0  0  0  0  0  0  0  0  0  0
    1.5000   -2.5981    0.0000 C   0  0  0  0  0  0  0  0  0  0  0  0
    0.7500   -1.2990    0.0000 C   0  0  0  0  0  0  0  0  0  0  0  0
    1.5000    0.0000    0.0000 N   0  0  0  0  0  0  0  0  0  0  0  0
    0.7500    1.2990    0.0000 C   0  0  0  0  0  0  0  0  0  0  0  0
   -0.7500    1.2990    0.0000 C   0  0  0  0  0  0  0  0  0  0  0  0
   -1.5000    0.0000    0.0000 C   0  0  0  0  0  0  0  0  0  0  0  0
   -3.0000    0.0000    0.0000 O   0  0  0  0  0  0  0  0  0  0  0  0
   -3.7500    1.2990    0.0000 C   0  0  0  0  0  0  0  0  0  0  0  0
   -3.0000    2.5981    0.0000 C   0  0  0  0  0  0  0  0  0  0  0  0
   -3.7500    3.8971    0.0000 C   0  0  0  0  0  0  0  0  0  0  0  0
   -5.2500    3.8971    0.0000 C   0  0  0  0  0  0  0  0  0  0  0  0
   -6.0000    5.1962    0.0000 N   0  0  0  0  0  0  0  0  0  0  0  0
   -5.2500    6.4952    0.0000 C   0  0  0  0  0  0  0  0  0  0  0  0
   -3.7500    6.4952    0.0000 O   0  0  0  0  0  0  0  0  0  0  0  0
   -6.0000    7.7942    0.0000 N   0  0  0  0  0  0  0  0  0  0  0  0
   -5.2500    9.0933    0.0000 C   0  0  0  0  0  0  0  0  0  0  0  0
   -3.7500    9.0933    0.0000 C   0  0  0  0  0  0  0  0  0  0  0  0
   -3.0000   10.3923    0.0000 C   0  0  0  0  0  0  0  0  0  0  0  0
   -3.7500   11.6913    0.0000 C   0  0  0  0  0  0  0  0  0  0  0  0
   -3.0000   12.9904    0.0000 F   0  0  0  0  0  0  0  0  0  0  0  0
   -5.2500   11.6913    0.0000 C   0  0  0  0  0  0  0  0  0  0  0  0
   -6.0000   12.9904    0.0000 C   0  0  0  0  0  0  0  0  0  0  0  0
   -6.7500   14.2894    0.0000 F   0  0  0  0  0  0  0  0  0  0  0  0
   -7.2990   12.2404    0.0000 F   0  0  0  0  0  0  0  0  0  0  0  0
   -4.7010   13.7404    0.0000 F   0  0  0  0  0  0  0  0  0  0  0  0
   -6.0000   10.3923    0.0000 C   0  0  0  0  0  0  0  0  0  0  0  0
   -6.0000    2.5981    0.0000 C   0  0  0  0  0  0  0  0  0  0  0  0
   -5.2500    1.2990    0.0000 C   0  0  0  0  0  0  0  0  0  0  0  0
   -6.0000    0.0000    0.0000 Cl  0  0  0  0  0  0  0  0  0  0  0  0
   -0.7500   -1.2990    0.0000 C   0  0  0  0  0  0  0  0  0  0  0  0
   -1.5000   -2.5981    0.0000 C   0  0  0  0  0  0  0  0  0  0  0  0
   -0.7500   -3.8971    0.0000 C   0  0  0  0  0  0  0  0  0  0  0  0
  1  2  1  0
  2  3  1  0
  2  4  1  0
  4  5  2  0
  4  6  1  0
  6  7  1  0
  7  8  2  0
  8  9  1  0
  9 10  2  0
 10 11  1  0
 11 12  2  0
 12 13  1  0
 13 14  1  0
 14 15  1  0
 15 16  2  0
 16 17  1  0
 17 18  2  0
 18 19  1  0
 19 20  1  0
 20 21  2  0
 20 22  1  0
 22 23  1  0
 23 24  2  0
 24 25  1  0
 25 26  2  0
 26 27  1  0
 26 28  1  0
 28 29  1  0
 29 30  1  0
 29 31  1  0
 29 32  1  0
 28 33  2  0
 18 34  1  0
 34 35  2  0
 35 36  1  0
 13 37  2  0
 37 38  1  0
 38 39  2  0
 39  2  1  0
 39  7  1  0
 37  9  1  0
 35 15  1  0
 33 23  1  0
M  END
>  <Compound_ID>  (627) 
CHEMBL3218350

>  <Molecule Name>  (627) 
nan

>  <Molecular Weight>  (627) 
558.92

>  <AlogP>  (627) 
7.71

>  <Smiles>  (627) 
CC1(C)C(=O)Nc2cc3nccc(Oc4ccc(NC(=O)Nc5ccc(F)c(C(F)(F)F)c5)cc4Cl)c3cc21

>  <Standard Type>  (627) 
Inhibition

>  <Standard Relation>  (627) 
'='

>  <Standard Units>  (627) 
%

>  <Standard Value>  (627) 
1.5

>  <Assay ChEMBL ID>  (627) 
CHEMBL3223841

>  <Assay Description>  (627) 
Inhibition of c-MET (unknown origin) at 10 uM

>  <BAO Format ID>  (627) 
BAO_0000357

>  <BAO Label>  (627) 
single protein format

>  <Assay Organism>  (627) 
Homo sapiens

>  <Target ChEMBL ID>  (627) 
CHEMBL3717

>  <Target Name>  (627) 
Hepatocyte growth factor receptor

>  <Target Organism>  (627) 
Homo sapiens

>  <Target Type>  (627) 
SINGLE PROTEIN

>  <Document ChEMBL ID>  (627) 
CHEMBL3217507

>  <Source Description>  (627) 
Scientific Literature

>  <Document Journal>  (627) 
Medchemcomm

>  <Document Year>  (627) 
2013.0

>  <Active>  (627) 
0.0

$$$$

     RDKit          2D

 35 39  0  0  0  0  0  0  0  0999 V2000
   -1.2990  -10.3573    0.0000 C   0  0  0  0  0  0  0  0  0  0  0  0
    0.0000   -9.6073    0.0000 O   0  0  0  0  0  0  0  0  0  0  0  0
    0.0000   -8.1073    0.0000 C   0  0  0  0  0  0  0  0  0  0  0  0
   -1.2990   -7.3573    0.0000 C   0  0  0  0  0  0  0  0  0  0  0  0
   -1.2990   -5.8573    0.0000 C   0  0  0  0  0  0  0  0  0  0  0  0
   -0.0000   -5.1073    0.0000 C   0  0  0  0  0  0  0  0  0  0  0  0
   -0.0000   -3.6073    0.0000 C   0  0  0  0  0  0  0  0  0  0  0  0
    1.2135   -2.7256    0.0000 N   0  0  0  0  0  0  0  0  0  0  0  0
    0.7500   -1.2990    0.0000 N   0  0  0  0  0  0  0  0  0  0  0  0
    1.5000    0.0000    0.0000 N   0  0  0  0  0  0  0  0  0  0  0  0
    0.7500    1.2990    0.0000 C   0  0  0  0  0  0  0  0  0  0  0  0
   -0.7500    1.2990    0.0000 C   0  0  0  0  0  0  0  0  0  0  0  0
   -1.5000    0.0000    0.0000 C   0  0  0  0  0  0  0  0  0  0  0  0
   -0.7500   -1.2990    0.0000 C   0  0  0  0  0  0  0  0  0  0  0  0
   -1.2135   -2.7256    0.0000 C   0  0  0  0  0  0  0  0  0  0  0  0
   -2.6401   -3.1891    0.0000 C   0  0  0  0  0  0  0  0  0  0  0  0
   -3.7548   -2.1855    0.0000 C   0  0  0  0  0  0  0  0  0  0  0  0
   -5.1814   -2.6490    0.0000 C   0  0  0  0  0  0  0  0  0  0  0  0
   -5.4933   -4.1162    0.0000 N   0  0  0  0  0  0  0  0  0  0  0  0
   -4.3786   -5.1199    0.0000 C   0  0  0  0  0  0  0  0  0  0  0  0
   -4.6904   -6.5871    0.0000 N   0  0  0  0  0  0  0  0  0  0  0  0
   -6.1170   -7.0506    0.0000 C   0  0  0  0  0  0  0  0  0  0  0  0
   -7.2317   -6.0469    0.0000 C   0  0  0  0  0  0  0  0  0  0  0  0
   -8.6583   -6.5105    0.0000 C   0  0  0  0  0  0  0  0  0  0  0  0
   -8.9702   -7.9777    0.0000 C   0  0  0  0  0  0  0  0  0  0  0  0
  -10.3968   -8.4412    0.0000 Cl  0  0  0  0  0  0  0  0  0  0  0  0
   -7.8555   -8.9814    0.0000 C   0  0  0  0  0  0  0  0  0  0  0  0
   -8.1673  -10.4486    0.0000 C   0  0  0  0  0  0  0  0  0  0  0  0
   -8.4792  -11.9158    0.0000 F   0  0  0  0  0  0  0  0  0  0  0  0
   -6.7001  -10.7605    0.0000 F   0  0  0  0  0  0  0  0  0  0  0  0
   -9.6346  -10.1367    0.0000 F   0  0  0  0  0  0  0  0  0  0  0  0
   -6.4289   -8.5179    0.0000 C   0  0  0  0  0  0  0  0  0  0  0  0
   -2.9520   -4.6564    0.0000 N   0  0  0  0  0  0  0  0  0  0  0  0
    1.2990   -5.8573    0.0000 C   0  0  0  0  0  0  0  0  0  0  0  0
    1.2990   -7.3573    0.0000 C   0  0  0  0  0  0  0  0  0  0  0  0
  1  2  1  0
  2  3  1  0
  3  4  2  0
  4  5  1  0
  5  6  2  0
  6  7  1  0
  7  8  2  0
  8  9  1  0
  9 10  1  0
 10 11  2  0
 11 12  1  0
 12 13  2  0
 13 14  1  0
 14 15  2  0
 15 16  1  0
 16 17  2  0
 17 18  1  0
 18 19  2  0
 19 20  1  0
 20 21  1  0
 21 22  1  0
 22 23  2  0
 23 24  1  0
 24 25  2  0
 25 26  1  0
 25 27  1  0
 27 28  1  0
 28 29  1  0
 28 30  1  0
 28 31  1  0
 27 32  2  0
 20 33  2  0
  6 34  1  0
 34 35  2  0
 35  3  1  0
 15  7  1  0
 33 16  1  0
 14  9  1  0
 32 22  1  0
M  END
>  <Compound_ID>  (628) 
CHEMBL188794

>  <Molecule Name>  (628) 
GW829115X

>  <Molecular Weight>  (628) 
496.88

>  <AlogP>  (628) 
6.28

>  <Smiles>  (628) 
COc1ccc(-c2nn3ncccc3c2-c2ccnc(Nc3ccc(Cl)c(C(F)(F)F)c3)n2)cc1

>  <Standard Type>  (628) 
Inhibition

>  <Standard Relation>  (628) 
'='

>  <Standard Units>  (628) 
%

>  <Standard Value>  (628) 
7.55

>  <Assay ChEMBL ID>  (628) 
CHEMBL1962142

>  <Assay Description>  (628) 
GSK_PKIS: MET mean inhibition at 0.1 uM [Nanosyn]

>  <BAO Format ID>  (628) 
BAO_0000357

>  <BAO Label>  (628) 
single protein format

>  <Assay Organism>  (628) 
None

>  <Target ChEMBL ID>  (628) 
CHEMBL3717

>  <Target Name>  (628) 
Hepatocyte growth factor receptor

>  <Target Organism>  (628) 
Homo sapiens

>  <Target Type>  (628) 
SINGLE PROTEIN

>  <Document ChEMBL ID>  (628) 
CHEMBL1961873

>  <Source Description>  (628) 
GSK Published Kinase Inhibitor Set

>  <Document Journal>  (628) 
nan

>  <Document Year>  (628) 
nan

>  <Active>  (628) 
0.0

$$$$

     RDKit          2D

 23 26  0  0  0  0  0  0  0  0999 V2000
    3.0000    0.0000    0.0000 C   0  0  0  0  0  0  0  0  0  0  0  0
    1.5000    0.0000    0.0000 C   0  0  0  0  0  0  0  0  0  0  0  0
    0.7500   -1.2990    0.0000 C   0  0  0  0  0  0  0  0  0  0  0  0
   -0.7500   -1.2990    0.0000 C   0  0  0  0  0  0  0  0  0  0  0  0
   -1.7537   -2.4138    0.0000 N   0  0  0  0  0  0  0  0  0  0  0  0
   -3.1240   -1.8037    0.0000 N   0  0  0  0  0  0  0  0  0  0  0  0
   -4.4231   -2.5537    0.0000 C   0  0  0  0  0  0  0  0  0  0  0  0
   -5.7221   -1.8037    0.0000 C   0  0  0  0  0  0  0  0  0  0  0  0
   -7.0211   -2.5537    0.0000 C   0  0  0  0  0  0  0  0  0  0  0  0
   -7.0211   -4.0537    0.0000 C   0  0  0  0  0  0  0  0  0  0  0  0
   -5.7221   -4.8037    0.0000 C   0  0  0  0  0  0  0  0  0  0  0  0
   -4.4231   -4.0537    0.0000 C   0  0  0  0  0  0  0  0  0  0  0  0
   -2.9672   -0.3119    0.0000 C   0  0  0  0  0  0  0  0  0  0  0  0
   -4.0819    0.6918    0.0000 N   0  0  0  0  0  0  0  0  0  0  0  0
   -1.5000    0.0000    0.0000 C   0  0  0  0  0  0  0  0  0  0  0  0
   -0.7500    1.2990    0.0000 C   0  0  0  0  0  0  0  0  0  0  0  0
   -1.5000    2.5981    0.0000 N   0  0  0  0  0  0  0  0  0  0  0  0
   -0.7500    3.8971    0.0000 C   0  0  0  0  0  0  0  0  0  0  0  0
   -1.5000    5.1962    0.0000 C   0  0  0  0  0  0  0  0  0  0  0  0
   -3.0000    5.1962    0.0000 C   0  0  0  0  0  0  0  0  0  0  0  0
   -3.7500    3.8971    0.0000 C   0  0  0  0  0  0  0  0  0  0  0  0
   -3.0000    2.5981    0.0000 C   0  0  0  0  0  0  0  0  0  0  0  0
    0.7500    1.2990    0.0000 N   0  0  0  0  0  0  0  0  0  0  0  0
  1  2  1  0
  2  3  2  0
  3  4  1  0
  4  5  2  0
  5  6  1  0
  6  7  1  0
  7  8  2  0
  8  9  1  0
  9 10  2  0
 10 11  1  0
 11 12  2  0
  6 13  1  0
 13 14  1  0
 13 15  2  0
 15 16  1  0
 16 17  1  0
 17 18  1  0
 18 19  1  0
 19 20  1  0
 20 21  1  0
 21 22  1  0
 16 23  2  0
 23  2  1  0
 15  4  1  0
 22 17  1  0
 12  7  1  0
M  END
>  <Compound_ID>  (629) 
CHEMBL1813797

>  <Molecule Name>  (629) 
nan

>  <Molecular Weight>  (629) 
307.40

>  <AlogP>  (629) 
3.30

>  <Smiles>  (629) 
Cc1cc2nn(-c3ccccc3)c(N)c2c(N2CCCCC2)n1

>  <Standard Type>  (629) 
Inhibition

>  <Standard Relation>  (629) 
'='

>  <Standard Units>  (629) 
%

>  <Standard Value>  (629) 
1.0

>  <Assay ChEMBL ID>  (629) 
CHEMBL1815730

>  <Assay Description>  (629) 
Inhibition of MET at 30 uM by microfluidic mobility shift assay

>  <BAO Format ID>  (629) 
BAO_0000357

>  <BAO Label>  (629) 
single protein format

>  <Assay Organism>  (629) 
None

>  <Target ChEMBL ID>  (629) 
CHEMBL3717

>  <Target Name>  (629) 
Hepatocyte growth factor receptor

>  <Target Organism>  (629) 
Homo sapiens

>  <Target Type>  (629) 
SINGLE PROTEIN

>  <Document ChEMBL ID>  (629) 
CHEMBL1811853

>  <Source Description>  (629) 
Scientific Literature

>  <Document Journal>  (629) 
Bioorg Med Chem

>  <Document Year>  (629) 
2011.0

>  <Active>  (629) 
0.0

$$$$

     RDKit          2D

 22 25  0  0  0  0  0  0  0  0999 V2000
   -0.0000   -5.1073    0.0000 O   0  0  0  0  0  0  0  0  0  0  0  0
   -0.0000   -3.6073    0.0000 C   0  0  0  0  0  0  0  0  0  0  0  0
    1.2135   -2.7256    0.0000 N   0  0  0  0  0  0  0  0  0  0  0  0
    0.7500   -1.2990    0.0000 C   0  0  0  0  0  0  0  0  0  0  0  0
    1.5000    0.0000    0.0000 C   0  0  0  0  0  0  0  0  0  0  0  0
    0.7500    1.2990    0.0000 C   0  0  0  0  0  0  0  0  0  0  0  0
   -0.7500    1.2990    0.0000 C   0  0  0  0  0  0  0  0  0  0  0  0
   -1.5000    0.0000    0.0000 C   0  0  0  0  0  0  0  0  0  0  0  0
   -0.7500   -1.2990    0.0000 C   0  0  0  0  0  0  0  0  0  0  0  0
   -1.2135   -2.7256    0.0000 C   0  0  0  0  0  0  0  0  0  0  0  0
   -2.6401   -3.1891    0.0000 C   0  0  0  0  0  0  0  0  0  0  0  0
   -2.9520   -4.6564    0.0000 N   0  0  0  0  0  0  0  0  0  0  0  0
   -4.3786   -5.1199    0.0000 C   0  0  0  0  0  0  0  0  0  0  0  0
   -5.4933   -4.1162    0.0000 C   0  0  0  0  0  0  0  0  0  0  0  0
   -6.9199   -4.5797    0.0000 C   0  0  0  0  0  0  0  0  0  0  0  0
   -7.2317   -6.0469    0.0000 C   0  0  0  0  0  0  0  0  0  0  0  0
   -8.5308   -6.7969    0.0000 N   0  0  0  0  0  0  0  0  0  0  0  0
   -8.2189   -8.2642    0.0000 C   0  0  0  0  0  0  0  0  0  0  0  0
   -9.2226   -9.3789    0.0000 O   0  0  0  0  0  0  0  0  0  0  0  0
   -6.7271   -8.4210    0.0000 N   0  0  0  0  0  0  0  0  0  0  0  0
   -6.1170   -7.0506    0.0000 C   0  0  0  0  0  0  0  0  0  0  0  0
   -4.6904   -6.5871    0.0000 C   0  0  0  0  0  0  0  0  0  0  0  0
  1  2  2  0
  2  3  1  0
  3  4  1  0
  4  5  2  0
  5  6  1  0
  6  7  2  0
  7  8  1  0
  8  9  2  0
  9 10  1  0
 10 11  2  0
 11 12  1  0
 12 13  1  0
 13 14  2  0
 14 15  1  0
 15 16  2  0
 16 17  1  0
 17 18  1  0
 18 19  2  0
 18 20  1  0
 20 21  1  0
 21 22  2  0
 10  2  1  0
 22 13  1  0
  9  4  1  0
 21 16  1  0
M  END
>  <Compound_ID>  (630) 
CHEMBL1794057

>  <Molecule Name>  (630) 
GW284408X

>  <Molecular Weight>  (630) 
292.30

>  <AlogP>  (630) 
2.26

>  <Smiles>  (630) 
O=C1Nc2ccccc2/C1=C/Nc1ccc2[nH]c(=O)[nH]c2c1

>  <Standard Type>  (630) 
Inhibition

>  <Standard Relation>  (630) 
'='

>  <Standard Units>  (630) 
%

>  <Standard Value>  (630) 
7.49

>  <Assay ChEMBL ID>  (630) 
CHEMBL1962142

>  <Assay Description>  (630) 
GSK_PKIS: MET mean inhibition at 0.1 uM [Nanosyn]

>  <BAO Format ID>  (630) 
BAO_0000357

>  <BAO Label>  (630) 
single protein format

>  <Assay Organism>  (630) 
None

>  <Target ChEMBL ID>  (630) 
CHEMBL3717

>  <Target Name>  (630) 
Hepatocyte growth factor receptor

>  <Target Organism>  (630) 
Homo sapiens

>  <Target Type>  (630) 
SINGLE PROTEIN

>  <Document ChEMBL ID>  (630) 
CHEMBL1961873

>  <Source Description>  (630) 
GSK Published Kinase Inhibitor Set

>  <Document Journal>  (630) 
nan

>  <Document Year>  (630) 
nan

>  <Active>  (630) 
0.0

$$$$

     RDKit          2D

 34 38  0  0  0  0  0  0  0  0999 V2000
   -5.0487    4.2236    0.0000 F   0  0  0  0  0  0  0  0  0  0  0  0
   -5.3605    2.7564    0.0000 C   0  0  0  0  0  0  0  0  0  0  0  0
   -4.2458    1.7527    0.0000 C   0  0  0  0  0  0  0  0  0  0  0  0
   -4.5577    0.2855    0.0000 C   0  0  0  0  0  0  0  0  0  0  0  0
   -5.9843   -0.1781    0.0000 C   0  0  0  0  0  0  0  0  0  0  0  0
   -6.2961   -1.6453    0.0000 N   0  0  0  0  0  0  0  0  0  0  0  0
   -5.1814   -2.6490    0.0000 C   0  0  0  0  0  0  0  0  0  0  0  0
   -5.4933   -4.1162    0.0000 N   0  0  0  0  0  0  0  0  0  0  0  0
   -4.3786   -5.1199    0.0000 C   0  0  0  0  0  0  0  0  0  0  0  0
   -2.9520   -4.6564    0.0000 C   0  0  0  0  0  0  0  0  0  0  0  0
   -2.6401   -3.1891    0.0000 C   0  0  0  0  0  0  0  0  0  0  0  0
   -1.2135   -2.7256    0.0000 C   0  0  0  0  0  0  0  0  0  0  0  0
   -0.0000   -3.6073    0.0000 C   0  0  0  0  0  0  0  0  0  0  0  0
   -0.0000   -5.1073    0.0000 C   0  0  0  0  0  0  0  0  0  0  0  0
   -1.2990   -5.8573    0.0000 C   0  0  0  0  0  0  0  0  0  0  0  0
   -1.2990   -7.3573    0.0000 C   0  0  0  0  0  0  0  0  0  0  0  0
   -0.0000   -8.1073    0.0000 C   0  0  0  0  0  0  0  0  0  0  0  0
    0.0000   -9.6073    0.0000 C   0  0  0  0  0  0  0  0  0  0  0  0
    0.0000  -11.1073    0.0000 F   0  0  0  0  0  0  0  0  0  0  0  0
   -1.5000   -9.6073    0.0000 F   0  0  0  0  0  0  0  0  0  0  0  0
    1.5000   -9.6073    0.0000 F   0  0  0  0  0  0  0  0  0  0  0  0
    1.2990   -7.3573    0.0000 C   0  0  0  0  0  0  0  0  0  0  0  0
    1.2990   -5.8573    0.0000 C   0  0  0  0  0  0  0  0  0  0  0  0
    1.2135   -2.7256    0.0000 N   0  0  0  0  0  0  0  0  0  0  0  0
    0.7500   -1.2990    0.0000 N   0  0  0  0  0  0  0  0  0  0  0  0
    1.5000    0.0000    0.0000 N   0  0  0  0  0  0  0  0  0  0  0  0
    0.7500    1.2990    0.0000 C   0  0  0  0  0  0  0  0  0  0  0  0
   -0.7500    1.2990    0.0000 C   0  0  0  0  0  0  0  0  0  0  0  0
   -1.5000    0.0000    0.0000 C   0  0  0  0  0  0  0  0  0  0  0  0
   -0.7500   -1.2990    0.0000 C   0  0  0  0  0  0  0  0  0  0  0  0
   -3.7548   -2.1855    0.0000 N   0  0  0  0  0  0  0  0  0  0  0  0
   -7.0990    0.8256    0.0000 C   0  0  0  0  0  0  0  0  0  0  0  0
   -6.7871    2.2929    0.0000 C   0  0  0  0  0  0  0  0  0  0  0  0
   -7.9018    3.2966    0.0000 F   0  0  0  0  0  0  0  0  0  0  0  0
  1  2  1  0
  2  3  2  0
  3  4  1  0
  4  5  2  0
  5  6  1  0
  6  7  1  0
  7  8  2  0
  8  9  1  0
  9 10  2  0
 10 11  1  0
 11 12  1  0
 12 13  1  0
 13 14  1  0
 14 15  2  0
 15 16  1  0
 16 17  2  0
 17 18  1  0
 18 19  1  0
 18 20  1  0
 18 21  1  0
 17 22  1  0
 22 23  2  0
 13 24  2  0
 24 25  1  0
 25 26  1  0
 26 27  2  0
 27 28  1  0
 28 29  2  0
 29 30  1  0
 11 31  2  0
  5 32  1  0
 32 33  2  0
 33 34  1  0
 33  2  1  0
 31  7  1  0
 30 12  2  0
 23 14  1  0
 30 25  1  0
M  END
>  <Compound_ID>  (631) 
CHEMBL188784

>  <Molecule Name>  (631) 
GW828529X

>  <Molecular Weight>  (631) 
468.39

>  <AlogP>  (631) 
5.89

>  <Smiles>  (631) 
Fc1ccc(Nc2nccc(-c3c(-c4ccc(C(F)(F)F)cc4)nn4ncccc34)n2)cc1F

>  <Standard Type>  (631) 
Inhibition

>  <Standard Relation>  (631) 
'='

>  <Standard Units>  (631) 
%

>  <Standard Value>  (631) 
4.74

>  <Assay ChEMBL ID>  (631) 
CHEMBL1962143

>  <Assay Description>  (631) 
GSK_PKIS: MET mean inhibition at 1 uM [Nanosyn]

>  <BAO Format ID>  (631) 
BAO_0000357

>  <BAO Label>  (631) 
single protein format

>  <Assay Organism>  (631) 
None

>  <Target ChEMBL ID>  (631) 
CHEMBL3717

>  <Target Name>  (631) 
Hepatocyte growth factor receptor

>  <Target Organism>  (631) 
Homo sapiens

>  <Target Type>  (631) 
SINGLE PROTEIN

>  <Document ChEMBL ID>  (631) 
CHEMBL1961873

>  <Source Description>  (631) 
GSK Published Kinase Inhibitor Set

>  <Document Journal>  (631) 
nan

>  <Document Year>  (631) 
nan

>  <Active>  (631) 
0.0

$$$$

     RDKit          2D

 19 20  0  0  0  0  0  0  0  0999 V2000
   -8.6562    2.3705    0.0000 C   0  0  0  0  0  0  0  0  0  0  0  0
   -7.2296    2.8340    0.0000 O   0  0  0  0  0  0  0  0  0  0  0  0
   -6.1149    1.8303    0.0000 C   0  0  0  0  0  0  0  0  0  0  0  0
   -6.4268    0.3631    0.0000 O   0  0  0  0  0  0  0  0  0  0  0  0
   -4.6883    2.2939    0.0000 C   0  0  0  0  0  0  0  0  0  0  0  0
   -3.5736    1.2902    0.0000 C   0  0  0  0  0  0  0  0  0  0  0  0
   -2.1470    1.7537    0.0000 C   0  0  0  0  0  0  0  0  0  0  0  0
   -1.8351    3.2209    0.0000 C   0  0  0  0  0  0  0  0  0  0  0  0
   -2.9499    4.2246    0.0000 C   0  0  0  0  0  0  0  0  0  0  0  0
   -0.4086    3.6844    0.0000 N   0  0  0  0  0  0  0  0  0  0  0  0
    0.7062    2.6807    0.0000 C   0  0  0  0  0  0  0  0  0  0  0  0
    2.1328    3.1443    0.0000 O   0  0  0  0  0  0  0  0  0  0  0  0
    0.3943    1.2135    0.0000 C   0  0  0  0  0  0  0  0  0  0  0  0
    1.2760    0.0000    0.0000 C   0  0  0  0  0  0  0  0  0  0  0  0
    2.7760    0.0000    0.0000 N   0  0  0  0  0  0  0  0  0  0  0  0
    0.3943   -1.2135    0.0000 N   0  0  0  0  0  0  0  0  0  0  0  0
   -1.0323   -0.7500    0.0000 N   0  0  0  0  0  0  0  0  0  0  0  0
   -2.2458   -1.6317    0.0000 C   0  0  0  0  0  0  0  0  0  0  0  0
   -1.0323    0.7500    0.0000 C   0  0  0  0  0  0  0  0  0  0  0  0
  1  2  1  0
  2  3  1  0
  3  4  2  0
  3  5  1  0
  5  6  1  0
  6  7  1  0
  7  8  2  0
  8  9  1  0
  8 10  1  0
 10 11  1  0
 11 12  2  0
 11 13  1  0
 13 14  1  0
 14 15  1  0
 14 16  2  0
 16 17  1  0
 17 18  1  0
 17 19  1  0
 19  7  1  0
 19 13  2  0
M  END
>  <Compound_ID>  (632) 
CHEMBL1813627

>  <Molecule Name>  (632) 
nan

>  <Molecular Weight>  (632) 
264.29

>  <AlogP>  (632) 
0.26

>  <Smiles>  (632) 
COC(=O)CCc1c(C)[nH]c(=O)c2c(N)nn(C)c12

>  <Standard Type>  (632) 
Inhibition

>  <Standard Relation>  (632) 
'='

>  <Standard Units>  (632) 
%

>  <Standard Value>  (632) 
9.0

>  <Assay ChEMBL ID>  (632) 
CHEMBL1815730

>  <Assay Description>  (632) 
Inhibition of MET at 30 uM by microfluidic mobility shift assay

>  <BAO Format ID>  (632) 
BAO_0000357

>  <BAO Label>  (632) 
single protein format

>  <Assay Organism>  (632) 
None

>  <Target ChEMBL ID>  (632) 
CHEMBL3717

>  <Target Name>  (632) 
Hepatocyte growth factor receptor

>  <Target Organism>  (632) 
Homo sapiens

>  <Target Type>  (632) 
SINGLE PROTEIN

>  <Document ChEMBL ID>  (632) 
CHEMBL1811853

>  <Source Description>  (632) 
Scientific Literature

>  <Document Journal>  (632) 
Bioorg Med Chem

>  <Document Year>  (632) 
2011.0

>  <Active>  (632) 
0.0

$$$$

     RDKit          2D

 43 47  0  0  0  0  0  0  0  0999 V2000
    3.7500   -1.2990    0.0000 C   0  0  0  0  0  0  0  0  0  0  0  0
    3.0000    0.0000    0.0000 C   0  0  0  0  0  0  0  0  0  0  0  0
    3.7500    1.2990    0.0000 O   0  0  0  0  0  0  0  0  0  0  0  0
    1.5000    0.0000    0.0000 N   0  0  0  0  0  0  0  0  0  0  0  0
    0.7500   -1.2990    0.0000 C   0  0  0  0  0  0  0  0  0  0  0  0
   -0.7500   -1.2990    0.0000 C   0  0  0  0  0  0  0  0  0  0  0  0
   -1.5000    0.0000    0.0000 N   0  0  0  0  0  0  0  0  0  0  0  0
   -3.0000    0.0000    0.0000 C   0  0  0  0  0  0  0  0  0  0  0  0
   -3.7500   -1.2990    0.0000 O   0  0  0  0  0  0  0  0  0  0  0  0
   -3.7500    1.2990    0.0000 C   0  0  0  0  0  0  0  0  0  0  0  0
   -5.2500    1.2990    0.0000 C   0  0  0  0  0  0  0  0  0  0  0  0
   -6.0000    2.5981    0.0000 C   0  0  0  0  0  0  0  0  0  0  0  0
   -7.5000    2.5981    0.0000 C   0  0  0  0  0  0  0  0  0  0  0  0
   -8.2500    1.2990    0.0000 C   0  0  0  0  0  0  0  0  0  0  0  0
   -9.7500    1.2990    0.0000 N   0  0  0  0  0  0  0  0  0  0  0  0
  -10.5000    2.5981    0.0000 C   0  0  0  0  0  0  0  0  0  0  0  0
   -9.7500    3.8971    0.0000 N   0  0  0  0  0  0  0  0  0  0  0  0
  -10.5000    5.1962    0.0000 C   0  0  0  0  0  0  0  0  0  0  0  0
  -12.0000    5.1962    0.0000 C   0  0  0  0  0  0  0  0  0  0  0  0
  -12.7500    6.4952    0.0000 F   0  0  0  0  0  0  0  0  0  0  0  0
  -12.7500    3.8971    0.0000 C   0  0  0  0  0  0  0  0  0  0  0  0
  -14.2500    3.8971    0.0000 N   0  0  0  0  0  0  0  0  0  0  0  0
  -15.0000    2.5981    0.0000 C   0  0  0  0  0  0  0  0  0  0  0  0
  -16.5000    2.5981    0.0000 C   0  0  0  0  0  0  0  0  0  0  0  0
  -17.2500    1.2990    0.0000 C   0  0  0  0  0  0  0  0  0  0  0  0
  -16.5000    0.0000    0.0000 C   0  0  0  0  0  0  0  0  0  0  0  0
  -17.2500   -1.2990    0.0000 C   0  0  0  0  0  0  0  0  0  0  0  0
  -16.5000   -2.5981    0.0000 O   0  0  0  0  0  0  0  0  0  0  0  0
  -18.7500   -1.2990    0.0000 N   0  0  0  0  0  0  0  0  0  0  0  0
  -19.5000   -2.5981    0.0000 C   0  0  0  0  0  0  0  0  0  0  0  0
  -21.0000   -2.5981    0.0000 C   0  0  0  0  0  0  0  0  0  0  0  0
  -21.7500   -3.8971    0.0000 C   0  0  0  0  0  0  0  0  0  0  0  0
  -21.0000   -5.1962    0.0000 C   0  0  0  0  0  0  0  0  0  0  0  0
  -19.5000   -5.1962    0.0000 C   0  0  0  0  0  0  0  0  0  0  0  0
  -18.7500   -3.8971    0.0000 C   0  0  0  0  0  0  0  0  0  0  0  0
  -17.2500   -3.8971    0.0000 Cl  0  0  0  0  0  0  0  0  0  0  0  0
  -15.0000    0.0000    0.0000 C   0  0  0  0  0  0  0  0  0  0  0  0
  -14.2500    1.2990    0.0000 C   0  0  0  0  0  0  0  0  0  0  0  0
  -12.0000    2.5981    0.0000 N   0  0  0  0  0  0  0  0  0  0  0  0
   -7.5000    0.0000    0.0000 C   0  0  0  0  0  0  0  0  0  0  0  0
   -6.0000    0.0000    0.0000 C   0  0  0  0  0  0  0  0  0  0  0  0
   -0.7500    1.2990    0.0000 C   0  0  0  0  0  0  0  0  0  0  0  0
    0.7500    1.2990    0.0000 C   0  0  0  0  0  0  0  0  0  0  0  0
  1  2  1  0
  2  3  2  0
  2  4  1  0
  4  5  1  0
  5  6  1  0
  6  7  1  0
  7  8  1  0
  8  9  2  0
  8 10  1  0
 10 11  1  0
 11 12  2  0
 12 13  1  0
 13 14  2  0
 14 15  1  0
 15 16  1  0
 16 17  2  0
 17 18  1  0
 18 19  2  0
 19 20  1  0
 19 21  1  0
 21 22  1  0
 22 23  1  0
 23 24  2  0
 24 25  1  0
 25 26  2  0
 26 27  1  0
 27 28  2  0
 27 29  1  0
 29 30  1  0
 30 31  2  0
 31 32  1  0
 32 33  2  0
 33 34  1  0
 34 35  2  0
 35 36  1  0
 26 37  1  0
 37 38  2  0
 21 39  2  0
 14 40  1  0
 40 41  2  0
  7 42  1  0
 42 43  1  0
 43  4  1  0
 41 11  1  0
 39 16  1  0
 38 23  1  0
 35 30  1  0
M  END
>  <Compound_ID>  (633) 
CHEMBL508307

>  <Molecule Name>  (633) 
nan

>  <Molecular Weight>  (633) 
602.07

>  <AlogP>  (633) 
5.24

>  <Smiles>  (633) 
CC(=O)N1CCN(C(=O)Cc2ccc(Nc3ncc(F)c(Nc4ccc(C(=O)Nc5ccccc5Cl)cc4)n3)cc2)CC1

>  <Standard Type>  (633) 
Inhibition

>  <Standard Relation>  (633) 
'='

>  <Standard Units>  (633) 
%

>  <Standard Value>  (633) 
14.0

>  <Assay ChEMBL ID>  (633) 
CHEMBL973480

>  <Assay Description>  (633) 
Inhibition of c-Met at 1 uM

>  <BAO Format ID>  (633) 
BAO_0000357

>  <BAO Label>  (633) 
single protein format

>  <Assay Organism>  (633) 
None

>  <Target ChEMBL ID>  (633) 
CHEMBL3717

>  <Target Name>  (633) 
Hepatocyte growth factor receptor

>  <Target Organism>  (633) 
Homo sapiens

>  <Target Type>  (633) 
SINGLE PROTEIN

>  <Document ChEMBL ID>  (633) 
CHEMBL1138512

>  <Source Description>  (633) 
Scientific Literature

>  <Document Journal>  (633) 
J Med Chem

>  <Document Year>  (633) 
2009.0

>  <Active>  (633) 
0.0

$$$$

     RDKit          2D

 23 26  0  0  0  0  0  0  0  0999 V2000
    2.6401   -3.1891    0.0000 N   0  0  0  0  0  0  0  0  0  0  0  0
    1.2135   -2.7256    0.0000 C   0  0  0  0  0  0  0  0  0  0  0  0
    0.7500   -1.2990    0.0000 C   0  0  0  0  0  0  0  0  0  0  0  0
    1.5000    0.0000    0.0000 C   0  0  0  0  0  0  0  0  0  0  0  0
    3.0000    0.0000    0.0000 O   0  0  0  0  0  0  0  0  0  0  0  0
    0.7500    1.2990    0.0000 N   0  0  0  0  0  0  0  0  0  0  0  0
   -0.7500    1.2990    0.0000 C   0  0  0  0  0  0  0  0  0  0  0  0
   -1.5000    2.5981    0.0000 C   0  0  0  0  0  0  0  0  0  0  0  0
   -0.7500    3.8971    0.0000 C   0  0  0  0  0  0  0  0  0  0  0  0
   -1.5000    5.1962    0.0000 C   0  0  0  0  0  0  0  0  0  0  0  0
   -3.0000    5.1962    0.0000 C   0  0  0  0  0  0  0  0  0  0  0  0
   -3.7500    3.8971    0.0000 C   0  0  0  0  0  0  0  0  0  0  0  0
   -3.0000    2.5981    0.0000 C   0  0  0  0  0  0  0  0  0  0  0  0
   -1.5000    0.0000    0.0000 C   0  0  0  0  0  0  0  0  0  0  0  0
   -0.7500   -1.2990    0.0000 C   0  0  0  0  0  0  0  0  0  0  0  0
   -1.2135   -2.7256    0.0000 N   0  0  0  0  0  0  0  0  0  0  0  0
   -0.0000   -3.6073    0.0000 N   0  0  0  0  0  0  0  0  0  0  0  0
   -0.0000   -5.1073    0.0000 C   0  0  0  0  0  0  0  0  0  0  0  0
   -1.2990   -5.8573    0.0000 C   0  0  0  0  0  0  0  0  0  0  0  0
   -1.2990   -7.3573    0.0000 C   0  0  0  0  0  0  0  0  0  0  0  0
   -0.0000   -8.1073    0.0000 C   0  0  0  0  0  0  0  0  0  0  0  0
    1.2990   -7.3573    0.0000 C   0  0  0  0  0  0  0  0  0  0  0  0
    1.2990   -5.8573    0.0000 C   0  0  0  0  0  0  0  0  0  0  0  0
  1  2  1  0
  2  3  2  0
  3  4  1  0
  4  5  2  0
  4  6  1  0
  6  7  1  0
  7  8  1  0
  8  9  2  0
  9 10  1  0
 10 11  2  0
 11 12  1  0
 12 13  2  0
  7 14  2  0
 14 15  1  0
 15 16  2  0
 16 17  1  0
 17 18  1  0
 18 19  2  0
 19 20  1  0
 20 21  2  0
 21 22  1  0
 22 23  2  0
 17  2  1  0
 23 18  1  0
 15  3  1  0
 13  8  1  0
M  END
>  <Compound_ID>  (634) 
CHEMBL1813790

>  <Molecule Name>  (634) 
nan

>  <Molecular Weight>  (634) 
302.34

>  <AlogP>  (634) 
2.96

>  <Smiles>  (634) 
Nc1c2c(=O)[nH]c(-c3ccccc3)cc2nn1-c1ccccc1

>  <Standard Type>  (634) 
Inhibition

>  <Standard Relation>  (634) 
'='

>  <Standard Units>  (634) 
%

>  <Standard Value>  (634) 
10.0

>  <Assay ChEMBL ID>  (634) 
CHEMBL1815730

>  <Assay Description>  (634) 
Inhibition of MET at 30 uM by microfluidic mobility shift assay

>  <BAO Format ID>  (634) 
BAO_0000357

>  <BAO Label>  (634) 
single protein format

>  <Assay Organism>  (634) 
None

>  <Target ChEMBL ID>  (634) 
CHEMBL3717

>  <Target Name>  (634) 
Hepatocyte growth factor receptor

>  <Target Organism>  (634) 
Homo sapiens

>  <Target Type>  (634) 
SINGLE PROTEIN

>  <Document ChEMBL ID>  (634) 
CHEMBL1811853

>  <Source Description>  (634) 
Scientific Literature

>  <Document Journal>  (634) 
Bioorg Med Chem

>  <Document Year>  (634) 
2011.0

>  <Active>  (634) 
0.0

$$$$

     RDKit          2D

 30 33  0  0  0  0  0  0  0  0999 V2000
   -3.1240   -6.3037    0.0000 C   0  0  0  0  0  0  0  0  0  0  0  0
   -3.1240   -4.8037    0.0000 O   0  0  0  0  0  0  0  0  0  0  0  0
   -4.4231   -4.0537    0.0000 C   0  0  0  0  0  0  0  0  0  0  0  0
   -5.7221   -4.8037    0.0000 C   0  0  0  0  0  0  0  0  0  0  0  0
   -7.0211   -4.0537    0.0000 C   0  0  0  0  0  0  0  0  0  0  0  0
   -8.3202   -4.8037    0.0000 C   0  0  0  0  0  0  0  0  0  0  0  0
   -9.6192   -4.0537    0.0000 N   0  0  0  0  0  0  0  0  0  0  0  0
   -8.3202   -6.3037    0.0000 O   0  0  0  0  0  0  0  0  0  0  0  0
   -7.0211   -2.5537    0.0000 C   0  0  0  0  0  0  0  0  0  0  0  0
   -5.7221   -1.8037    0.0000 C   0  0  0  0  0  0  0  0  0  0  0  0
   -4.4231   -2.5537    0.0000 C   0  0  0  0  0  0  0  0  0  0  0  0
   -3.1240   -1.8037    0.0000 C   0  0  0  0  0  0  0  0  0  0  0  0
   -1.7537   -2.4138    0.0000 C   0  0  0  0  0  0  0  0  0  0  0  0
   -0.7500   -1.2990    0.0000 C   0  0  0  0  0  0  0  0  0  0  0  0
    0.7500   -1.2990    0.0000 C   0  0  0  0  0  0  0  0  0  0  0  0
    1.5000   -2.5981    0.0000 N   0  0  0  0  0  0  0  0  0  0  0  0
    3.0000   -2.5981    0.0000 C   0  0  0  0  0  0  0  0  0  0  0  0
    3.7500   -1.2990    0.0000 C   0  0  0  0  0  0  0  0  0  0  0  0
    5.2500   -1.2990    0.0000 O   0  0  0  0  0  0  0  0  0  0  0  0
    3.7500   -3.8971    0.0000 C   0  0  0  0  0  0  0  0  0  0  0  0
    3.0000   -5.1962    0.0000 C   0  0  0  0  0  0  0  0  0  0  0  0
    3.7500   -6.4952    0.0000 C   0  0  0  0  0  0  0  0  0  0  0  0
    5.2500   -6.4952    0.0000 C   0  0  0  0  0  0  0  0  0  0  0  0
    6.0000   -5.1962    0.0000 C   0  0  0  0  0  0  0  0  0  0  0  0
    5.2500   -3.8971    0.0000 C   0  0  0  0  0  0  0  0  0  0  0  0
    1.5000    0.0000    0.0000 N   0  0  0  0  0  0  0  0  0  0  0  0
    0.7500    1.2990    0.0000 C   0  0  0  0  0  0  0  0  0  0  0  0
   -0.7500    1.2990    0.0000 N   0  0  0  0  0  0  0  0  0  0  0  0
   -1.5000    0.0000    0.0000 C   0  0  0  0  0  0  0  0  0  0  0  0
   -2.9672   -0.3119    0.0000 S   0  0  0  0  0  0  0  0  0  0  0  0
  1  2  1  0
  2  3  1  0
  3  4  2  0
  4  5  1  0
  5  6  1  0
  6  7  1  0
  6  8  2  0
  5  9  2  0
  9 10  1  0
 10 11  2  0
 11 12  1  0
 12 13  2  0
 13 14  1  0
 14 15  2  0
 15 16  1  0
 16 17  1  0
 17 18  1  6
 18 19  1  0
 17 20  1  0
 20 21  2  0
 21 22  1  0
 22 23  2  0
 23 24  1  0
 24 25  2  0
 15 26  1  0
 26 27  2  0
 27 28  1  0
 28 29  2  0
 29 30  1  0
 11  3  1  0
 30 12  1  0
 29 14  1  0
 25 20  1  0
M  END
>  <Compound_ID>  (635) 
CHEMBL3759480

>  <Molecule Name>  (635) 
nan

>  <Molecular Weight>  (635) 
420.49

>  <AlogP>  (635) 
3.61

>  <Smiles>  (635) 
COc1cc(C(N)=O)ccc1-c1cc2c(N[C@H](CO)c3ccccc3)ncnc2s1

>  <Standard Type>  (635) 
Inhibition

>  <Standard Relation>  (635) 
'='

>  <Standard Units>  (635) 
%

>  <Standard Value>  (635) 
-5.0

>  <Assay ChEMBL ID>  (635) 
CHEMBL3761591

>  <Assay Description>  (635) 
Inhibition of MET (unknown origin) at 500 nM

>  <BAO Format ID>  (635) 
BAO_0000357

>  <BAO Label>  (635) 
single protein format

>  <Assay Organism>  (635) 
Homo sapiens

>  <Target ChEMBL ID>  (635) 
CHEMBL3717

>  <Target Name>  (635) 
Hepatocyte growth factor receptor

>  <Target Organism>  (635) 
Homo sapiens

>  <Target Type>  (635) 
SINGLE PROTEIN

>  <Document ChEMBL ID>  (635) 
CHEMBL3758163

>  <Source Description>  (635) 
Scientific Literature

>  <Document Journal>  (635) 
Eur J Med Chem

>  <Document Year>  (635) 
2016.0

>  <Active>  (635) 
0.0

$$$$

     RDKit          2D

 19 20  0  0  0  0  0  0  0  0999 V2000
    5.2500   -1.2990    0.0000 C   0  0  0  0  0  0  0  0  0  0  0  0
    3.7500   -1.2990    0.0000 N   0  0  0  0  0  0  0  0  0  0  0  0
    3.0000    0.0000    0.0000 C   0  0  0  0  0  0  0  0  0  0  0  0
    3.7500    1.2990    0.0000 O   0  0  0  0  0  0  0  0  0  0  0  0
    1.5000    0.0000    0.0000 C   0  0  0  0  0  0  0  0  0  0  0  0
    0.7500   -1.2990    0.0000 C   0  0  0  0  0  0  0  0  0  0  0  0
   -0.7500   -1.2990    0.0000 N   0  0  0  0  0  0  0  0  0  0  0  0
   -1.5000    0.0000    0.0000 C   0  0  0  0  0  0  0  0  0  0  0  0
   -0.7500    1.2990    0.0000 C   0  0  0  0  0  0  0  0  0  0  0  0
   -1.5000    2.5981    0.0000 C   0  0  0  0  0  0  0  0  0  0  0  0
   -0.7500    3.8971    0.0000 C   0  0  0  0  0  0  0  0  0  0  0  0
   -1.5000    5.1962    0.0000 C   0  0  0  0  0  0  0  0  0  0  0  0
   -0.7500    6.4952    0.0000 C   0  0  0  0  0  0  0  0  0  0  0  0
   -1.5000    7.7942    0.0000 C   0  0  0  0  0  0  0  0  0  0  0  0
   -3.0000    7.7942    0.0000 C   0  0  0  0  0  0  0  0  0  0  0  0
   -3.7500    6.4952    0.0000 C   0  0  0  0  0  0  0  0  0  0  0  0
   -3.0000    5.1962    0.0000 C   0  0  0  0  0  0  0  0  0  0  0  0
   -3.7500    3.8971    0.0000 Cl  0  0  0  0  0  0  0  0  0  0  0  0
    0.7500    1.2990    0.0000 C   0  0  0  0  0  0  0  0  0  0  0  0
  1  2  1  0
  2  3  1  0
  3  4  2  0
  3  5  1  0
  5  6  2  0
  6  7  1  0
  7  8  2  0
  8  9  1  0
  9 10  1  0
 10 11  2  0
 11 12  1  0
 12 13  2  0
 13 14  1  0
 14 15  2  0
 15 16  1  0
 16 17  2  0
 17 18  1  0
  9 19  2  0
 19  5  1  0
 17 12  1  0
M  END
>  <Compound_ID>  (636) 
CHEMBL218970

>  <Molecule Name>  (636) 
GW445017X

>  <Molecular Weight>  (636) 
272.74

>  <AlogP>  (636) 
3.27

>  <Smiles>  (636) 
CNC(=O)c1cncc(/C=C/c2ccccc2Cl)c1

>  <Standard Type>  (636) 
Inhibition

>  <Standard Relation>  (636) 
'='

>  <Standard Units>  (636) 
%

>  <Standard Value>  (636) 
3.72

>  <Assay ChEMBL ID>  (636) 
CHEMBL1962142

>  <Assay Description>  (636) 
GSK_PKIS: MET mean inhibition at 0.1 uM [Nanosyn]

>  <BAO Format ID>  (636) 
BAO_0000357

>  <BAO Label>  (636) 
single protein format

>  <Assay Organism>  (636) 
None

>  <Target ChEMBL ID>  (636) 
CHEMBL3717

>  <Target Name>  (636) 
Hepatocyte growth factor receptor

>  <Target Organism>  (636) 
Homo sapiens

>  <Target Type>  (636) 
SINGLE PROTEIN

>  <Document ChEMBL ID>  (636) 
CHEMBL1961873

>  <Source Description>  (636) 
GSK Published Kinase Inhibitor Set

>  <Document Journal>  (636) 
nan

>  <Document Year>  (636) 
nan

>  <Active>  (636) 
0.0

$$$$

     RDKit          2D

 32 36  0  0  0  0  0  0  0  0999 V2000
    1.5000    0.0000    0.0000 C   0  0  0  0  0  0  0  0  0  0  0  0
    0.7500   -1.2990    0.0000 C   0  0  0  0  0  0  0  0  0  0  0  0
   -0.7500   -1.2990    0.0000 C   0  0  0  0  0  0  0  0  0  0  0  0
   -1.5000    0.0000    0.0000 C   0  0  0  0  0  0  0  0  0  0  0  0
   -3.0000    0.0000    0.0000 C   0  0  0  0  0  0  0  0  0  0  0  0
   -3.8817   -1.2135    0.0000 N   0  0  0  0  0  0  0  0  0  0  0  0
   -5.3083   -0.7500    0.0000 N   0  0  0  0  0  0  0  0  0  0  0  0
   -5.3083    0.7500    0.0000 C   0  0  0  0  0  0  0  0  0  0  0  0
   -3.8817    1.2135    0.0000 C   0  0  0  0  0  0  0  0  0  0  0  0
   -3.4182    2.6401    0.0000 C   0  0  0  0  0  0  0  0  0  0  0  0
   -1.9509    2.9520    0.0000 C   0  0  0  0  0  0  0  0  0  0  0  0
   -1.4874    4.3786    0.0000 C   0  0  0  0  0  0  0  0  0  0  0  0
   -2.4911    5.4933    0.0000 N   0  0  0  0  0  0  0  0  0  0  0  0
   -3.9583    5.1814    0.0000 C   0  0  0  0  0  0  0  0  0  0  0  0
   -4.9620    6.2961    0.0000 C   0  0  0  0  0  0  0  0  0  0  0  0
   -4.4985    7.7227    0.0000 C   0  0  0  0  0  0  0  0  0  0  0  0
   -5.5022    8.8374    0.0000 C   0  0  0  0  0  0  0  0  0  0  0  0
   -6.9694    8.5256    0.0000 C   0  0  0  0  0  0  0  0  0  0  0  0
   -7.9731    9.6403    0.0000 O   0  0  0  0  0  0  0  0  0  0  0  0
   -7.5096   11.0669    0.0000 C   0  0  0  0  0  0  0  0  0  0  0  0
   -8.5133   12.1816    0.0000 C   0  0  0  0  0  0  0  0  0  0  0  0
   -8.0498   13.6082    0.0000 N   0  0  0  0  0  0  0  0  0  0  0  0
   -6.5825   13.9200    0.0000 C   0  0  0  0  0  0  0  0  0  0  0  0
   -6.1190   15.3466    0.0000 C   0  0  0  0  0  0  0  0  0  0  0  0
   -7.1227   16.4613    0.0000 O   0  0  0  0  0  0  0  0  0  0  0  0
   -8.5899   16.1495    0.0000 C   0  0  0  0  0  0  0  0  0  0  0  0
   -9.0534   14.7229    0.0000 C   0  0  0  0  0  0  0  0  0  0  0  0
   -7.4329    7.0990    0.0000 C   0  0  0  0  0  0  0  0  0  0  0  0
   -6.4292    5.9843    0.0000 C   0  0  0  0  0  0  0  0  0  0  0  0
   -4.4218    3.7548    0.0000 C   0  0  0  0  0  0  0  0  0  0  0  0
   -0.7500    1.2990    0.0000 N   0  0  0  0  0  0  0  0  0  0  0  0
    0.7500    1.2990    0.0000 C   0  0  0  0  0  0  0  0  0  0  0  0
  1  2  2  0
  2  3  1  0
  3  4  2  0
  4  5  1  0
  5  6  2  0
  6  7  1  0
  7  8  1  0
  8  9  2  0
  9 10  1  0
 10 11  2  0
 11 12  1  0
 12 13  2  0
 13 14  1  0
 14 15  1  0
 15 16  2  0
 16 17  1  0
 17 18  2  0
 18 19  1  0
 19 20  1  0
 20 21  1  0
 21 22  1  0
 22 23  1  0
 23 24  1  0
 24 25  1  0
 25 26  1  0
 26 27  1  0
 18 28  1  0
 28 29  2  0
 14 30  2  0
  4 31  1  0
 31 32  2  0
 32  1  1  0
  9  5  1  0
 30 10  1  0
 29 15  1  0
 27 22  1  0
M  END
>  <Compound_ID>  (637) 
CHEMBL205158

>  <Molecule Name>  (637) 
GW695874X

>  <Molecular Weight>  (637) 
427.51

>  <AlogP>  (637) 
3.91

>  <Smiles>  (637) 
c1ccc(-c2n[nH]cc2-c2ccnc(-c3ccc(OCCN4CCOCC4)cc3)c2)nc1

>  <Standard Type>  (637) 
Inhibition

>  <Standard Relation>  (637) 
'='

>  <Standard Units>  (637) 
%

>  <Standard Value>  (637) 
5.59

>  <Assay ChEMBL ID>  (637) 
CHEMBL1962143

>  <Assay Description>  (637) 
GSK_PKIS: MET mean inhibition at 1 uM [Nanosyn]

>  <BAO Format ID>  (637) 
BAO_0000357

>  <BAO Label>  (637) 
single protein format

>  <Assay Organism>  (637) 
None

>  <Target ChEMBL ID>  (637) 
CHEMBL3717

>  <Target Name>  (637) 
Hepatocyte growth factor receptor

>  <Target Organism>  (637) 
Homo sapiens

>  <Target Type>  (637) 
SINGLE PROTEIN

>  <Document ChEMBL ID>  (637) 
CHEMBL1961873

>  <Source Description>  (637) 
GSK Published Kinase Inhibitor Set

>  <Document Journal>  (637) 
nan

>  <Document Year>  (637) 
nan

>  <Active>  (637) 
0.0

$$$$

     RDKit          2D

 34 37  0  0  0  0  0  0  0  0999 V2000
   -1.2064  -10.6676    0.0000 C   0  0  0  0  0  0  0  0  0  0  0  0
   -1.0496   -9.1759    0.0000 C   0  0  0  0  0  0  0  0  0  0  0  0
    0.3207   -8.5658    0.0000 C   0  0  0  0  0  0  0  0  0  0  0  0
    1.5342   -9.4474    0.0000 O   0  0  0  0  0  0  0  0  0  0  0  0
    0.4775   -7.0740    0.0000 N   0  0  0  0  0  0  0  0  0  0  0  0
    1.8478   -6.4639    0.0000 C   0  0  0  0  0  0  0  0  0  0  0  0
    2.0046   -4.9721    0.0000 C   0  0  0  0  0  0  0  0  0  0  0  0
    3.3037   -4.2221    0.0000 C   0  0  0  0  0  0  0  0  0  0  0  0
    2.9918   -2.7549    0.0000 O   0  0  0  0  0  0  0  0  0  0  0  0
    1.5000   -2.5981    0.0000 C   0  0  0  0  0  0  0  0  0  0  0  0
    0.7500   -1.2990    0.0000 C   0  0  0  0  0  0  0  0  0  0  0  0
    1.5000    0.0000    0.0000 C   0  0  0  0  0  0  0  0  0  0  0  0
    3.0000    0.0000    0.0000 N   0  0  0  0  0  0  0  0  0  0  0  0
    0.7500    1.2990    0.0000 N   0  0  0  0  0  0  0  0  0  0  0  0
   -0.7500    1.2990    0.0000 C   0  0  0  0  0  0  0  0  0  0  0  0
   -1.5000    0.0000    0.0000 N   0  0  0  0  0  0  0  0  0  0  0  0
   -0.7500   -1.2990    0.0000 C   0  0  0  0  0  0  0  0  0  0  0  0
   -1.5000   -2.5981    0.0000 N   0  0  0  0  0  0  0  0  0  0  0  0
   -3.0000   -2.5981    0.0000 C   0  0  0  0  0  0  0  0  0  0  0  0
   -3.7500   -1.2990    0.0000 C   0  0  0  0  0  0  0  0  0  0  0  0
   -5.2500   -1.2990    0.0000 C   0  0  0  0  0  0  0  0  0  0  0  0
   -6.0000   -2.5981    0.0000 C   0  0  0  0  0  0  0  0  0  0  0  0
   -7.5000   -2.5981    0.0000 O   0  0  0  0  0  0  0  0  0  0  0  0
   -8.2500   -1.2990    0.0000 C   0  0  0  0  0  0  0  0  0  0  0  0
   -9.7500   -1.2990    0.0000 C   0  0  0  0  0  0  0  0  0  0  0  0
  -10.5000    0.0000    0.0000 C   0  0  0  0  0  0  0  0  0  0  0  0
  -12.0000    0.0000    0.0000 C   0  0  0  0  0  0  0  0  0  0  0  0
  -12.7500   -1.2990    0.0000 C   0  0  0  0  0  0  0  0  0  0  0  0
  -12.0000   -2.5981    0.0000 C   0  0  0  0  0  0  0  0  0  0  0  0
  -10.5000   -2.5981    0.0000 N   0  0  0  0  0  0  0  0  0  0  0  0
   -5.2500   -3.8971    0.0000 C   0  0  0  0  0  0  0  0  0  0  0  0
   -6.0000   -5.1962    0.0000 Cl  0  0  0  0  0  0  0  0  0  0  0  0
   -3.7500   -3.8971    0.0000 C   0  0  0  0  0  0  0  0  0  0  0  0
    0.8899   -3.9684    0.0000 N   0  0  0  0  0  0  0  0  0  0  0  0
  1  2  2  0
  2  3  1  0
  3  4  2  0
  3  5  1  0
  5  6  1  0
  6  7  1  0
  7  8  2  0
  8  9  1  0
  9 10  1  0
 10 11  1  0
 11 12  2  0
 12 13  1  0
 12 14  1  0
 14 15  2  0
 15 16  1  0
 16 17  2  0
 17 18  1  0
 18 19  1  0
 19 20  2  0
 20 21  1  0
 21 22  2  0
 22 23  1  0
 23 24  1  0
 24 25  1  0
 25 26  2  0
 26 27  1  0
 27 28  2  0
 28 29  1  0
 29 30  2  0
 22 31  1  0
 31 32  1  0
 31 33  2  0
 10 34  2  0
 34  7  1  0
 17 11  1  0
 33 19  1  0
 30 25  1  0
M  END
>  <Compound_ID>  (638) 
CHEMBL2035810

>  <Molecule Name>  (638) 
nan

>  <Molecular Weight>  (638) 
477.91

>  <AlogP>  (638) 
3.89

>  <Smiles>  (638) 
C=CC(=O)NCc1coc(-c2c(N)ncnc2Nc2ccc(OCc3ccccn3)c(Cl)c2)n1

>  <Standard Type>  (638) 
Inhibition

>  <Standard Relation>  (638) 
'='

>  <Standard Units>  (638) 
%

>  <Standard Value>  (638) 
13.0

>  <Assay ChEMBL ID>  (638) 
CHEMBL2039245

>  <Assay Description>  (638) 
Inhibition of MET at 3 uM

>  <BAO Format ID>  (638) 
BAO_0000357

>  <BAO Label>  (638) 
single protein format

>  <Assay Organism>  (638) 
None

>  <Target ChEMBL ID>  (638) 
CHEMBL3717

>  <Target Name>  (638) 
Hepatocyte growth factor receptor

>  <Target Organism>  (638) 
Homo sapiens

>  <Target Type>  (638) 
SINGLE PROTEIN

>  <Document ChEMBL ID>  (638) 
CHEMBL2034880

>  <Source Description>  (638) 
Scientific Literature

>  <Document Journal>  (638) 
J Med Chem

>  <Document Year>  (638) 
2012.0

>  <Active>  (638) 
0.0

$$$$

     RDKit          2D

 27 29  0  0  0  0  0  0  0  0999 V2000
    4.5000   -2.5981    0.0000 C   0  0  0  0  0  0  0  0  0  0  0  0
    3.7500   -1.2990    0.0000 S   0  0  0  0  0  0  0  0  0  0  0  0
    2.4510   -2.0490    0.0000 O   0  0  0  0  0  0  0  0  0  0  0  0
    5.0490   -0.5490    0.0000 O   0  0  0  0  0  0  0  0  0  0  0  0
    3.0000    0.0000    0.0000 N   0  0  0  0  0  0  0  0  0  0  0  0
    1.5000    0.0000    0.0000 C   0  0  0  0  0  0  0  0  0  0  0  0
    0.7500   -1.2990    0.0000 C   0  0  0  0  0  0  0  0  0  0  0  0
   -0.7500   -1.2990    0.0000 C   0  0  0  0  0  0  0  0  0  0  0  0
   -1.5000    0.0000    0.0000 C   0  0  0  0  0  0  0  0  0  0  0  0
   -3.0000    0.0000    0.0000 C   0  0  0  0  0  0  0  0  0  0  0  0
   -3.7500    1.2990    0.0000 C   0  0  0  0  0  0  0  0  0  0  0  0
   -5.2500    1.2990    0.0000 C   0  0  0  0  0  0  0  0  0  0  0  0
   -6.0000    2.5981    0.0000 C   0  0  0  0  0  0  0  0  0  0  0  0
   -5.2500    3.8971    0.0000 C   0  0  0  0  0  0  0  0  0  0  0  0
   -6.0000    5.1962    0.0000 C   0  0  0  0  0  0  0  0  0  0  0  0
   -7.5000    5.1962    0.0000 C   0  0  0  0  0  0  0  0  0  0  0  0
   -8.2500    3.8971    0.0000 C   0  0  0  0  0  0  0  0  0  0  0  0
   -7.5000    2.5981    0.0000 C   0  0  0  0  0  0  0  0  0  0  0  0
   -6.0000    0.0000    0.0000 C   0  0  0  0  0  0  0  0  0  0  0  0
   -5.2500   -1.2990    0.0000 C   0  0  0  0  0  0  0  0  0  0  0  0
   -6.0000   -2.5981    0.0000 C   0  0  0  0  0  0  0  0  0  0  0  0
   -7.5000   -2.5981    0.0000 N   0  0  0  0  0  0  0  0  0  0  0  0
   -5.2500   -3.8971    0.0000 O   0  0  0  0  0  0  0  0  0  0  0  0
   -3.7500   -1.2990    0.0000 C   0  0  0  0  0  0  0  0  0  0  0  0
   -3.0000   -2.5981    0.0000 N   0  0  0  0  0  0  0  0  0  0  0  0
   -0.7500    1.2990    0.0000 C   0  0  0  0  0  0  0  0  0  0  0  0
    0.7500    1.2990    0.0000 C   0  0  0  0  0  0  0  0  0  0  0  0
  1  2  1  0
  2  3  2  0
  2  4  2  0
  2  5  1  0
  5  6  1  0
  6  7  2  0
  7  8  1  0
  8  9  2  0
  9 10  1  0
 10 11  2  0
 11 12  1  0
 12 13  1  0
 13 14  2  0
 14 15  1  0
 15 16  2  0
 16 17  1  0
 17 18  2  0
 12 19  2  0
 19 20  1  0
 20 21  1  0
 21 22  1  0
 21 23  2  0
 20 24  2  0
 24 25  1  0
  9 26  1  0
 26 27  2  0
 27  6  1  0
 24 10  1  0
 18 13  1  0
M  END
>  <Compound_ID>  (639) 
CHEMBL230597

>  <Molecule Name>  (639) 
GSK-586581A

>  <Molecular Weight>  (639) 
381.46

>  <AlogP>  (639) 
3.07

>  <Smiles>  (639) 
CS(=O)(=O)Nc1ccc(-c2cc(-c3ccccc3)cc(C(N)=O)c2N)cc1

>  <Standard Type>  (639) 
Inhibition

>  <Standard Relation>  (639) 
'='

>  <Standard Units>  (639) 
%

>  <Standard Value>  (639) 
2.34

>  <Assay ChEMBL ID>  (639) 
CHEMBL1962143

>  <Assay Description>  (639) 
GSK_PKIS: MET mean inhibition at 1 uM [Nanosyn]

>  <BAO Format ID>  (639) 
BAO_0000357

>  <BAO Label>  (639) 
single protein format

>  <Assay Organism>  (639) 
None

>  <Target ChEMBL ID>  (639) 
CHEMBL3717

>  <Target Name>  (639) 
Hepatocyte growth factor receptor

>  <Target Organism>  (639) 
Homo sapiens

>  <Target Type>  (639) 
SINGLE PROTEIN

>  <Document ChEMBL ID>  (639) 
CHEMBL1961873

>  <Source Description>  (639) 
GSK Published Kinase Inhibitor Set

>  <Document Journal>  (639) 
nan

>  <Document Year>  (639) 
nan

>  <Active>  (639) 
0.0

$$$$

     RDKit          2D

 27 30  0  0  0  0  0  0  0  0999 V2000
   -2.0882   -8.4404    0.0000 C   0  0  0  0  0  0  0  0  0  0  0  0
   -2.6983   -7.0701    0.0000 C   0  0  0  0  0  0  0  0  0  0  0  0
   -1.9483   -5.7711    0.0000 N   0  0  0  0  0  0  0  0  0  0  0  0
   -2.9520   -4.6564    0.0000 C   0  0  0  0  0  0  0  0  0  0  0  0
   -2.6401   -3.1891    0.0000 C   0  0  0  0  0  0  0  0  0  0  0  0
   -1.2135   -2.7256    0.0000 C   0  0  0  0  0  0  0  0  0  0  0  0
   -0.0000   -3.6073    0.0000 C   0  0  0  0  0  0  0  0  0  0  0  0
    0.0000   -5.1073    0.0000 O   0  0  0  0  0  0  0  0  0  0  0  0
    1.2135   -2.7256    0.0000 N   0  0  0  0  0  0  0  0  0  0  0  0
    0.7500   -1.2990    0.0000 C   0  0  0  0  0  0  0  0  0  0  0  0
    1.5000    0.0000    0.0000 C   0  0  0  0  0  0  0  0  0  0  0  0
    0.7500    1.2990    0.0000 C   0  0  0  0  0  0  0  0  0  0  0  0
   -0.7500    1.2990    0.0000 C   0  0  0  0  0  0  0  0  0  0  0  0
   -1.5000    2.5981    0.0000 F   0  0  0  0  0  0  0  0  0  0  0  0
   -1.5000    0.0000    0.0000 C   0  0  0  0  0  0  0  0  0  0  0  0
   -0.7500   -1.2990    0.0000 C   0  0  0  0  0  0  0  0  0  0  0  0
   -4.3223   -5.2665    0.0000 C   0  0  0  0  0  0  0  0  0  0  0  0
   -5.6213   -4.5165    0.0000 C   0  0  0  0  0  0  0  0  0  0  0  0
   -4.1655   -6.7583    0.0000 C   0  0  0  0  0  0  0  0  0  0  0  0
   -5.2802   -7.7620    0.0000 N   0  0  0  0  0  0  0  0  0  0  0  0
   -6.7068   -7.2984    0.0000 C   0  0  0  0  0  0  0  0  0  0  0  0
   -7.0187   -5.8312    0.0000 O   0  0  0  0  0  0  0  0  0  0  0  0
   -7.8215   -8.3021    0.0000 C   0  0  0  0  0  0  0  0  0  0  0  0
   -7.6647   -9.7939    0.0000 C   0  0  0  0  0  0  0  0  0  0  0  0
   -9.0350  -10.4040    0.0000 C   0  0  0  0  0  0  0  0  0  0  0  0
  -10.0387   -9.2893    0.0000 C   0  0  0  0  0  0  0  0  0  0  0  0
   -9.2887   -7.9903    0.0000 N   0  0  0  0  0  0  0  0  0  0  0  0
  1  2  1  0
  2  3  1  0
  3  4  1  0
  4  5  1  0
  5  6  2  0
  6  7  1  0
  7  8  2  0
  7  9  1  0
  9 10  1  0
 10 11  2  0
 11 12  1  0
 12 13  2  0
 13 14  1  0
 13 15  1  0
 15 16  2  0
  4 17  2  0
 17 18  1  0
 17 19  1  0
 19 20  1  0
 20 21  1  0
 21 22  2  0
 23 21  1  1
 23 24  1  0
 24 25  1  0
 25 26  1  0
 26 27  1  0
 19  2  2  0
 27 23  1  0
 16  6  1  0
 16 10  1  0
M  END
>  <Compound_ID>  (640) 
CHEMBL4093614

>  <Molecule Name>  (640) 
nan

>  <Molecular Weight>  (640) 
404.87

>  <AlogP>  (640) 
2.95

>  <Smiles>  (640) 
Cc1[nH]c(/C=C2\C(=O)Nc3ccc(F)cc32)c(C)c1NC(=O)[C@H]1CCCN1

>  <Standard Type>  (640) 
Inhibition

>  <Standard Relation>  (640) 
'='

>  <Standard Units>  (640) 
%

>  <Standard Value>  (640) 
-8.0

>  <Assay ChEMBL ID>  (640) 
CHEMBL4007915

>  <Assay Description>  (640) 
Inhibition of human c-MET at 0.1 uM relative to control

>  <BAO Format ID>  (640) 
BAO_0000357

>  <BAO Label>  (640) 
single protein format

>  <Assay Organism>  (640) 
Homo sapiens

>  <Target ChEMBL ID>  (640) 
CHEMBL3717

>  <Target Name>  (640) 
Hepatocyte growth factor receptor

>  <Target Organism>  (640) 
Homo sapiens

>  <Target Type>  (640) 
SINGLE PROTEIN

>  <Document ChEMBL ID>  (640) 
CHEMBL4007390

>  <Source Description>  (640) 
Scientific Literature

>  <Document Journal>  (640) 
Eur J Med Chem

>  <Document Year>  (640) 
2017.0

>  <Active>  (640) 
0.0

$$$$

     RDKit          2D

 23 25  0  0  0  0  0  0  0  0999 V2000
   -7.0526  -11.4523    0.0000 C   0  0  0  0  0  0  0  0  0  0  0  0
   -5.6260  -10.9888    0.0000 O   0  0  0  0  0  0  0  0  0  0  0  0
   -5.3142   -9.5216    0.0000 C   0  0  0  0  0  0  0  0  0  0  0  0
   -6.4289   -8.5179    0.0000 C   0  0  0  0  0  0  0  0  0  0  0  0
   -6.1170   -7.0506    0.0000 C   0  0  0  0  0  0  0  0  0  0  0  0
   -4.6904   -6.5871    0.0000 C   0  0  0  0  0  0  0  0  0  0  0  0
   -4.3786   -5.1199    0.0000 C   0  0  0  0  0  0  0  0  0  0  0  0
   -5.4933   -4.1162    0.0000 O   0  0  0  0  0  0  0  0  0  0  0  0
   -2.9520   -4.6564    0.0000 N   0  0  0  0  0  0  0  0  0  0  0  0
   -2.6401   -3.1891    0.0000 N   0  0  0  0  0  0  0  0  0  0  0  0
   -1.2135   -2.7256    0.0000 C   0  0  0  0  0  0  0  0  0  0  0  0
   -0.0000   -3.6073    0.0000 C   0  0  0  0  0  0  0  0  0  0  0  0
    0.0000   -5.1073    0.0000 O   0  0  0  0  0  0  0  0  0  0  0  0
    1.2135   -2.7256    0.0000 N   0  0  0  0  0  0  0  0  0  0  0  0
    0.7500   -1.2990    0.0000 C   0  0  0  0  0  0  0  0  0  0  0  0
    1.5000    0.0000    0.0000 C   0  0  0  0  0  0  0  0  0  0  0  0
    0.7500    1.2990    0.0000 C   0  0  0  0  0  0  0  0  0  0  0  0
   -0.7500    1.2990    0.0000 C   0  0  0  0  0  0  0  0  0  0  0  0
   -1.5000    2.5981    0.0000 Cl  0  0  0  0  0  0  0  0  0  0  0  0
   -1.5000    0.0000    0.0000 C   0  0  0  0  0  0  0  0  0  0  0  0
   -0.7500   -1.2990    0.0000 C   0  0  0  0  0  0  0  0  0  0  0  0
   -3.5757   -7.5908    0.0000 C   0  0  0  0  0  0  0  0  0  0  0  0
   -3.8876   -9.0580    0.0000 C   0  0  0  0  0  0  0  0  0  0  0  0
  1  2  1  0
  2  3  1  0
  3  4  2  0
  4  5  1  0
  5  6  2  0
  6  7  1  0
  7  8  2  0
  7  9  1  0
  9 10  1  0
 10 11  2  0
 11 12  1  0
 12 13  2  0
 12 14  1  0
 14 15  1  0
 15 16  2  0
 16 17  1  0
 17 18  2  0
 18 19  1  0
 18 20  1  0
 20 21  2  0
  6 22  1  0
 22 23  2  0
 23  3  1  0
 21 11  1  0
 21 15  1  0
M  END
>  <Compound_ID>  (641) 
CHEMBL1779076

>  <Molecule Name>  (641) 
nan

>  <Molecular Weight>  (641) 
329.74

>  <AlogP>  (641) 
2.43

>  <Smiles>  (641) 
COc1ccc(C(=O)N/N=C2\C(=O)Nc3ccc(Cl)cc32)cc1

>  <Standard Type>  (641) 
Inhibition

>  <Standard Relation>  (641) 
'='

>  <Standard Units>  (641) 
%

>  <Standard Value>  (641) 
6.7

>  <Assay ChEMBL ID>  (641) 
CHEMBL1781430

>  <Assay Description>  (641) 
Inhibition of purified c-Met using poly(glu,tyr) as substrate at 10 uM after 60 mins by ELISA

>  <BAO Format ID>  (641) 
BAO_0000357

>  <BAO Label>  (641) 
single protein format

>  <Assay Organism>  (641) 
None

>  <Target ChEMBL ID>  (641) 
CHEMBL3717

>  <Target Name>  (641) 
Hepatocyte growth factor receptor

>  <Target Organism>  (641) 
Homo sapiens

>  <Target Type>  (641) 
SINGLE PROTEIN

>  <Document ChEMBL ID>  (641) 
CHEMBL1777704

>  <Source Description>  (641) 
Scientific Literature

>  <Document Journal>  (641) 
Bioorg Med Chem Lett

>  <Document Year>  (641) 
2011.0

>  <Active>  (641) 
0.0

$$$$

     RDKit          2D

 37 40  0  0  0  0  0  0  0  0999 V2000
   -0.7500   -3.8971    0.0000 O   0  0  0  0  0  0  0  0  0  0  0  0
    0.7500   -3.8971    0.0000 C   0  0  0  0  0  0  0  0  0  0  0  0
    1.5000   -2.5981    0.0000 N   0  0  0  0  0  0  0  0  0  0  0  0
    0.7500   -1.2990    0.0000 C   0  0  0  0  0  0  0  0  0  0  0  0
    1.5000    0.0000    0.0000 C   0  0  0  0  0  0  0  0  0  0  0  0
    0.7500    1.2990    0.0000 C   0  0  0  0  0  0  0  0  0  0  0  0
   -0.7500    1.2990    0.0000 C   0  0  0  0  0  0  0  0  0  0  0  0
   -1.5000    2.5981    0.0000 O   0  0  0  0  0  0  0  0  0  0  0  0
   -0.7500    3.8971    0.0000 C   0  0  0  0  0  0  0  0  0  0  0  0
    0.7500    3.8971    0.0000 C   0  0  0  0  0  0  0  0  0  0  0  0
    1.5000    5.1962    0.0000 C   0  0  0  0  0  0  0  0  0  0  0  0
    0.7500    6.4952    0.0000 N   0  0  0  0  0  0  0  0  0  0  0  0
   -0.7500    6.4952    0.0000 C   0  0  0  0  0  0  0  0  0  0  0  0
   -1.5000    7.7942    0.0000 C   0  0  0  0  0  0  0  0  0  0  0  0
   -2.9918    7.9510    0.0000 N   0  0  0  0  0  0  0  0  0  0  0  0
   -3.3037    9.4182    0.0000 C   0  0  0  0  0  0  0  0  0  0  0  0
   -2.0046   10.1682    0.0000 C   0  0  0  0  0  0  0  0  0  0  0  0
   -1.8478   11.6600    0.0000 C   0  0  0  0  0  0  0  0  0  0  0  0
   -1.6910   13.1518    0.0000 F   0  0  0  0  0  0  0  0  0  0  0  0
   -0.3560   11.5032    0.0000 F   0  0  0  0  0  0  0  0  0  0  0  0
   -3.3396   11.8168    0.0000 F   0  0  0  0  0  0  0  0  0  0  0  0
   -0.8899    9.1645    0.0000 N   0  0  0  0  0  0  0  0  0  0  0  0
   -1.5000    5.1962    0.0000 C   0  0  0  0  0  0  0  0  0  0  0  0
   -1.5000    0.0000    0.0000 C   0  0  0  0  0  0  0  0  0  0  0  0
   -0.7500   -1.2990    0.0000 C   0  0  0  0  0  0  0  0  0  0  0  0
    1.5000   -5.1962    0.0000 N   0  0  0  0  0  0  0  0  0  0  0  0
    0.7500   -6.4952    0.0000 C   0  0  0  0  0  0  0  0  0  0  0  0
   -0.7500   -6.4952    0.0000 C   0  0  0  0  0  0  0  0  0  0  0  0
   -1.5000   -7.7942    0.0000 C   0  0  0  0  0  0  0  0  0  0  0  0
   -0.7500   -9.0933    0.0000 C   0  0  0  0  0  0  0  0  0  0  0  0
   -1.5000  -10.3923    0.0000 Cl  0  0  0  0  0  0  0  0  0  0  0  0
    0.7500   -9.0933    0.0000 C   0  0  0  0  0  0  0  0  0  0  0  0
    1.5000  -10.3923    0.0000 C   0  0  0  0  0  0  0  0  0  0  0  0
    2.2500  -11.6913    0.0000 F   0  0  0  0  0  0  0  0  0  0  0  0
    2.7990   -9.6423    0.0000 F   0  0  0  0  0  0  0  0  0  0  0  0
    0.2010  -11.1423    0.0000 F   0  0  0  0  0  0  0  0  0  0  0  0
    1.5000   -7.7942    0.0000 C   0  0  0  0  0  0  0  0  0  0  0  0
  1  2  2  0
  2  3  1  0
  3  4  1  0
  4  5  2  0
  5  6  1  0
  6  7  2  0
  7  8  1  0
  8  9  1  0
  9 10  2  0
 10 11  1  0
 11 12  2  0
 12 13  1  0
 13 14  1  0
 14 15  2  0
 15 16  1  0
 16 17  2  0
 17 18  1  0
 18 19  1  0
 18 20  1  0
 18 21  1  0
 17 22  1  0
 13 23  2  0
  7 24  1  0
 24 25  2  0
  2 26  1  0
 26 27  1  0
 27 28  2  0
 28 29  1  0
 29 30  2  0
 30 31  1  0
 30 32  1  0
 32 33  1  0
 33 34  1  0
 33 35  1  0
 33 36  1  0
 32 37  2  0
 25  4  1  0
 37 27  1  0
 23  9  1  0
 22 14  1  0
M  END
>  <Compound_ID>  (642) 
CHEMBL2047981

>  <Molecule Name>  (642) 
nan

>  <Molecular Weight>  (642) 
541.84

>  <AlogP>  (642) 
7.60

>  <Smiles>  (642) 
O=C(Nc1ccc(Oc2ccnc(-c3ncc(C(F)(F)F)[nH]3)c2)cc1)Nc1ccc(Cl)c(C(F)(F)F)c1

>  <Standard Type>  (642) 
Inhibition

>  <Standard Relation>  (642) 
'='

>  <Standard Units>  (642) 
%

>  <Standard Value>  (642) 
2.2

>  <Assay ChEMBL ID>  (642) 
CHEMBL2051512

>  <Assay Description>  (642) 
Inhibition of c-MET at 10 uM

>  <BAO Format ID>  (642) 
BAO_0000357

>  <BAO Label>  (642) 
single protein format

>  <Assay Organism>  (642) 
None

>  <Target ChEMBL ID>  (642) 
CHEMBL3717

>  <Target Name>  (642) 
Hepatocyte growth factor receptor

>  <Target Organism>  (642) 
Homo sapiens

>  <Target Type>  (642) 
SINGLE PROTEIN

>  <Document ChEMBL ID>  (642) 
CHEMBL2046400

>  <Source Description>  (642) 
Scientific Literature

>  <Document Journal>  (642) 
Bioorg Med Chem

>  <Document Year>  (642) 
2012.0

>  <Active>  (642) 
0.0

$$$$

     RDKit          2D

 20 23  0  0  0  0  0  0  0  0999 V2000
    3.0000   -7.7942    0.0000 C   0  0  0  0  0  0  0  0  0  0  0  0
    2.2500   -6.4952    0.0000 N   0  0  0  0  0  0  0  0  0  0  0  0
    3.0000   -5.1962    0.0000 C   0  0  0  0  0  0  0  0  0  0  0  0
    2.2500   -3.8971    0.0000 N   0  0  0  0  0  0  0  0  0  0  0  0
    3.0000   -2.5981    0.0000 C   0  0  0  0  0  0  0  0  0  0  0  0
    2.2500   -1.2990    0.0000 C   0  0  0  0  0  0  0  0  0  0  0  0
    0.7500   -1.2990    0.0000 C   0  0  0  0  0  0  0  0  0  0  0  0
    1.5000    0.0000    0.0000 C   0  0  0  0  0  0  0  0  0  0  0  0
    0.7500    1.2990    0.0000 C   0  0  0  0  0  0  0  0  0  0  0  0
   -0.7500    1.2990    0.0000 C   0  0  0  0  0  0  0  0  0  0  0  0
   -1.5000    0.0000    0.0000 C   0  0  0  0  0  0  0  0  0  0  0  0
   -0.7500   -1.2990    0.0000 C   0  0  0  0  0  0  0  0  0  0  0  0
   -0.0000   -2.5981    0.0000 C   0  0  0  0  0  0  0  0  0  0  0  0
    0.7500   -3.8971    0.0000 C   0  0  0  0  0  0  0  0  0  0  0  0
    4.5000   -5.1962    0.0000 C   0  0  0  0  0  0  0  0  0  0  0  0
    5.5037   -4.0814    0.0000 N   0  0  0  0  0  0  0  0  0  0  0  0
    6.8740   -4.6915    0.0000 C   0  0  0  0  0  0  0  0  0  0  0  0
    6.7172   -6.1833    0.0000 N   0  0  0  0  0  0  0  0  0  0  0  0
    5.2500   -6.4952    0.0000 C   0  0  0  0  0  0  0  0  0  0  0  0
    4.5000   -7.7942    0.0000 N   0  0  0  0  0  0  0  0  0  0  0  0
  1  2  2  0
  2  3  1  0
  3  4  1  0
  4  5  1  0
  5  6  1  0
  6  7  1  0
  7  8  1  0
  8  9  1  0
  9 10  1  0
 10 11  1  0
 11 12  1  0
  7 13  1  0
 13 14  1  0
  3 15  2  0
 15 16  1  0
 16 17  2  0
 17 18  1  0
 18 19  1  0
 19 20  2  0
 20  1  1  0
 14  4  1  0
 19 15  1  0
 12  7  1  0
M  END
>  <Compound_ID>  (643) 
CHEMBL2420924

>  <Molecule Name>  (643) 
nan

>  <Molecular Weight>  (643) 
271.37

>  <AlogP>  (643) 
2.90

>  <Smiles>  (643) 
c1nc(N2CCC3(CCCCC3)CC2)c2nc[nH]c2n1

>  <Standard Type>  (643) 
Inhibition

>  <Standard Relation>  (643) 
'='

>  <Standard Units>  (643) 
%

>  <Standard Value>  (643) 
11.0

>  <Assay ChEMBL ID>  (643) 
CHEMBL2424318

>  <Assay Description>  (643) 
Inhibition of MET (unknown origin) at 30 uM by microfluidic mobility shift assay relative to control

>  <BAO Format ID>  (643) 
BAO_0000357

>  <BAO Label>  (643) 
single protein format

>  <Assay Organism>  (643) 
Homo sapiens

>  <Target ChEMBL ID>  (643) 
CHEMBL3717

>  <Target Name>  (643) 
Hepatocyte growth factor receptor

>  <Target Organism>  (643) 
Homo sapiens

>  <Target Type>  (643) 
SINGLE PROTEIN

>  <Document ChEMBL ID>  (643) 
CHEMBL2417369

>  <Source Description>  (643) 
Scientific Literature

>  <Document Journal>  (643) 
Bioorg Med Chem

>  <Document Year>  (643) 
2013.0

>  <Active>  (643) 
0.0

$$$$

     RDKit          2D

 28 31  0  0  0  0  0  0  0  0999 V2000
   -5.4933   -4.1162    0.0000 O   0  0  0  0  0  0  0  0  0  0  0  0
   -4.3786   -5.1199    0.0000 C   0  0  0  0  0  0  0  0  0  0  0  0
   -2.9520   -4.6564    0.0000 N   0  0  0  0  0  0  0  0  0  0  0  0
   -2.6401   -3.1891    0.0000 N   0  0  0  0  0  0  0  0  0  0  0  0
   -1.2135   -2.7256    0.0000 C   0  0  0  0  0  0  0  0  0  0  0  0
   -0.0000   -3.6073    0.0000 C   0  0  0  0  0  0  0  0  0  0  0  0
    0.0000   -5.1073    0.0000 O   0  0  0  0  0  0  0  0  0  0  0  0
    1.2135   -2.7256    0.0000 N   0  0  0  0  0  0  0  0  0  0  0  0
    2.6401   -3.1891    0.0000 C   0  0  0  0  0  0  0  0  0  0  0  0
    2.9520   -4.6564    0.0000 N   0  0  0  0  0  0  0  0  0  0  0  0
    1.8373   -5.6601    0.0000 C   0  0  0  0  0  0  0  0  0  0  0  0
    2.1491   -7.1273    0.0000 C   0  0  0  0  0  0  0  0  0  0  0  0
    3.5757   -7.5908    0.0000 O   0  0  0  0  0  0  0  0  0  0  0  0
    4.6904   -6.5871    0.0000 C   0  0  0  0  0  0  0  0  0  0  0  0
    4.3786   -5.1199    0.0000 C   0  0  0  0  0  0  0  0  0  0  0  0
    0.7500   -1.2990    0.0000 C   0  0  0  0  0  0  0  0  0  0  0  0
    1.5000    0.0000    0.0000 C   0  0  0  0  0  0  0  0  0  0  0  0
    0.7500    1.2990    0.0000 C   0  0  0  0  0  0  0  0  0  0  0  0
   -0.7500    1.2990    0.0000 C   0  0  0  0  0  0  0  0  0  0  0  0
   -1.5000    2.5981    0.0000 F   0  0  0  0  0  0  0  0  0  0  0  0
   -1.5000    0.0000    0.0000 C   0  0  0  0  0  0  0  0  0  0  0  0
   -0.7500   -1.2990    0.0000 C   0  0  0  0  0  0  0  0  0  0  0  0
   -4.6904   -6.5871    0.0000 C   0  0  0  0  0  0  0  0  0  0  0  0
   -6.1170   -7.0506    0.0000 C   0  0  0  0  0  0  0  0  0  0  0  0
   -6.4289   -8.5179    0.0000 C   0  0  0  0  0  0  0  0  0  0  0  0
   -5.3142   -9.5216    0.0000 C   0  0  0  0  0  0  0  0  0  0  0  0
   -3.8876   -9.0580    0.0000 C   0  0  0  0  0  0  0  0  0  0  0  0
   -3.5757   -7.5908    0.0000 C   0  0  0  0  0  0  0  0  0  0  0  0
  1  2  2  0
  2  3  1  0
  3  4  1  0
  4  5  2  0
  5  6  1  0
  6  7  2  0
  6  8  1  0
  8  9  1  0
  9 10  1  0
 10 11  1  0
 11 12  1  0
 12 13  1  0
 13 14  1  0
 14 15  1  0
  8 16  1  0
 16 17  2  0
 17 18  1  0
 18 19  2  0
 19 20  1  0
 19 21  1  0
 21 22  2  0
  2 23  1  0
 23 24  2  0
 24 25  1  0
 25 26  2  0
 26 27  1  0
 27 28  2  0
 22  5  1  0
 28 23  1  0
 15 10  1  0
 22 16  1  0
M  END
>  <Compound_ID>  (644) 
CHEMBL1779091

>  <Molecule Name>  (644) 
nan

>  <Molecular Weight>  (644) 
382.40

>  <AlogP>  (644) 
1.60

>  <Smiles>  (644) 
O=C(N/N=C1\C(=O)N(CN2CCOCC2)c2ccc(F)cc21)c1ccccc1

>  <Standard Type>  (644) 
Inhibition

>  <Standard Relation>  (644) 
'='

>  <Standard Units>  (644) 
%

>  <Standard Value>  (644) 
1.4

>  <Assay ChEMBL ID>  (644) 
CHEMBL1781430

>  <Assay Description>  (644) 
Inhibition of purified c-Met using poly(glu,tyr) as substrate at 10 uM after 60 mins by ELISA

>  <BAO Format ID>  (644) 
BAO_0000357

>  <BAO Label>  (644) 
single protein format

>  <Assay Organism>  (644) 
None

>  <Target ChEMBL ID>  (644) 
CHEMBL3717

>  <Target Name>  (644) 
Hepatocyte growth factor receptor

>  <Target Organism>  (644) 
Homo sapiens

>  <Target Type>  (644) 
SINGLE PROTEIN

>  <Document ChEMBL ID>  (644) 
CHEMBL1777704

>  <Source Description>  (644) 
Scientific Literature

>  <Document Journal>  (644) 
Bioorg Med Chem Lett

>  <Document Year>  (644) 
2011.0

>  <Active>  (644) 
0.0

$$$$

     RDKit          2D

 21 23  0  0  0  0  0  0  0  0999 V2000
   -0.0000   -5.1073    0.0000 O   0  0  0  0  0  0  0  0  0  0  0  0
   -0.0000   -3.6073    0.0000 C   0  0  0  0  0  0  0  0  0  0  0  0
    1.2135   -2.7256    0.0000 N   0  0  0  0  0  0  0  0  0  0  0  0
    0.7500   -1.2990    0.0000 C   0  0  0  0  0  0  0  0  0  0  0  0
    1.5000    0.0000    0.0000 C   0  0  0  0  0  0  0  0  0  0  0  0
    0.7500    1.2990    0.0000 C   0  0  0  0  0  0  0  0  0  0  0  0
   -0.7500    1.2990    0.0000 C   0  0  0  0  0  0  0  0  0  0  0  0
   -1.5000    2.5981    0.0000 F   0  0  0  0  0  0  0  0  0  0  0  0
   -1.5000    0.0000    0.0000 C   0  0  0  0  0  0  0  0  0  0  0  0
   -0.7500   -1.2990    0.0000 C   0  0  0  0  0  0  0  0  0  0  0  0
   -1.2135   -2.7256    0.0000 C   0  0  0  0  0  0  0  0  0  0  0  0
   -2.6401   -3.1891    0.0000 N   0  0  0  0  0  0  0  0  0  0  0  0
   -2.9520   -4.6564    0.0000 N   0  0  0  0  0  0  0  0  0  0  0  0
   -4.3786   -5.1199    0.0000 C   0  0  0  0  0  0  0  0  0  0  0  0
   -5.4933   -4.1162    0.0000 O   0  0  0  0  0  0  0  0  0  0  0  0
   -4.6904   -6.5871    0.0000 C   0  0  0  0  0  0  0  0  0  0  0  0
   -6.1170   -7.0506    0.0000 C   0  0  0  0  0  0  0  0  0  0  0  0
   -6.4289   -8.5179    0.0000 C   0  0  0  0  0  0  0  0  0  0  0  0
   -5.3142   -9.5216    0.0000 C   0  0  0  0  0  0  0  0  0  0  0  0
   -3.8876   -9.0580    0.0000 C   0  0  0  0  0  0  0  0  0  0  0  0
   -3.5757   -7.5908    0.0000 C   0  0  0  0  0  0  0  0  0  0  0  0
  1  2  2  0
  2  3  1  0
  3  4  1  0
  4  5  2  0
  5  6  1  0
  6  7  2  0
  7  8  1  0
  7  9  1  0
  9 10  2  0
 10 11  1  0
 11 12  2  0
 12 13  1  0
 13 14  1  0
 14 15  2  0
 14 16  1  0
 16 17  2  0
 17 18  1  0
 18 19  2  0
 19 20  1  0
 20 21  2  0
 11  2  1  0
 21 16  1  0
 10  4  1  0
M  END
>  <Compound_ID>  (645) 
CHEMBL1779072

>  <Molecule Name>  (645) 
nan

>  <Molecular Weight>  (645) 
283.26

>  <AlogP>  (645) 
1.91

>  <Smiles>  (645) 
O=C1Nc2ccc(F)cc2/C1=N/NC(=O)c1ccccc1

>  <Standard Type>  (645) 
Inhibition

>  <Standard Relation>  (645) 
'='

>  <Standard Units>  (645) 
%

>  <Standard Value>  (645) 
5.7

>  <Assay ChEMBL ID>  (645) 
CHEMBL1781430

>  <Assay Description>  (645) 
Inhibition of purified c-Met using poly(glu,tyr) as substrate at 10 uM after 60 mins by ELISA

>  <BAO Format ID>  (645) 
BAO_0000357

>  <BAO Label>  (645) 
single protein format

>  <Assay Organism>  (645) 
None

>  <Target ChEMBL ID>  (645) 
CHEMBL3717

>  <Target Name>  (645) 
Hepatocyte growth factor receptor

>  <Target Organism>  (645) 
Homo sapiens

>  <Target Type>  (645) 
SINGLE PROTEIN

>  <Document ChEMBL ID>  (645) 
CHEMBL1777704

>  <Source Description>  (645) 
Scientific Literature

>  <Document Journal>  (645) 
Bioorg Med Chem Lett

>  <Document Year>  (645) 
2011.0

>  <Active>  (645) 
0.0

$$$$

     RDKit          2D

 25 27  0  0  0  0  0  0  0  0999 V2000
   -3.7548   -2.1855    0.0000 C   0  0  0  0  0  0  0  0  0  0  0  0
   -2.6401   -3.1891    0.0000 C   0  0  0  0  0  0  0  0  0  0  0  0
   -1.2135   -2.7256    0.0000 N   0  0  0  0  0  0  0  0  0  0  0  0
   -0.0000   -3.6073    0.0000 C   0  0  0  0  0  0  0  0  0  0  0  0
   -0.0000   -5.1073    0.0000 O   0  0  0  0  0  0  0  0  0  0  0  0
    1.2135   -2.7256    0.0000 C   0  0  0  0  0  0  0  0  0  0  0  0
    2.6401   -3.1891    0.0000 N   0  0  0  0  0  0  0  0  0  0  0  0
    2.9520   -4.6564    0.0000 N   0  0  0  0  0  0  0  0  0  0  0  0
    4.3786   -5.1199    0.0000 C   0  0  0  0  0  0  0  0  0  0  0  0
    5.4933   -4.1162    0.0000 O   0  0  0  0  0  0  0  0  0  0  0  0
    4.6904   -6.5871    0.0000 C   0  0  0  0  0  0  0  0  0  0  0  0
    3.5757   -7.5908    0.0000 C   0  0  0  0  0  0  0  0  0  0  0  0
    3.8876   -9.0580    0.0000 C   0  0  0  0  0  0  0  0  0  0  0  0
    5.3142   -9.5216    0.0000 C   0  0  0  0  0  0  0  0  0  0  0  0
    5.6260  -10.9888    0.0000 N   0  0  0  0  0  4  0  0  0  0  0  0
    7.0526  -11.4523    0.0000 O   0  0  0  0  0  0  0  0  0  0  0  0
    4.5113  -11.9925    0.0000 O   0  0  0  0  0  1  0  0  0  0  0  0
    6.4289   -8.5179    0.0000 C   0  0  0  0  0  0  0  0  0  0  0  0
    6.1170   -7.0506    0.0000 C   0  0  0  0  0  0  0  0  0  0  0  0
    0.7500   -1.2990    0.0000 C   0  0  0  0  0  0  0  0  0  0  0  0
    1.5000    0.0000    0.0000 C   0  0  0  0  0  0  0  0  0  0  0  0
    0.7500    1.2990    0.0000 C   0  0  0  0  0  0  0  0  0  0  0  0
   -0.7500    1.2990    0.0000 C   0  0  0  0  0  0  0  0  0  0  0  0
   -1.5000    0.0000    0.0000 C   0  0  0  0  0  0  0  0  0  0  0  0
   -0.7500   -1.2990    0.0000 C   0  0  0  0  0  0  0  0  0  0  0  0
  1  2  1  0
  2  3  1  0
  3  4  1  0
  4  5  2  0
  4  6  1  0
  6  7  2  0
  7  8  1  0
  8  9  1  0
  9 10  2  0
  9 11  1  0
 11 12  2  0
 12 13  1  0
 13 14  2  0
 14 15  1  0
 15 16  2  0
 15 17  1  0
 14 18  1  0
 18 19  2  0
  6 20  1  0
 20 21  2  0
 21 22  1  0
 22 23  2  0
 23 24  1  0
 24 25  2  0
 25  3  1  0
 19 11  1  0
 25 20  1  0
M  CHG  2  15   1  17  -1
M  END
>  <Compound_ID>  (646) 
CHEMBL1779082

>  <Molecule Name>  (646) 
nan

>  <Molecular Weight>  (646) 
338.32

>  <AlogP>  (646) 
2.10

>  <Smiles>  (646) 
CCN1C(=O)/C(=N\NC(=O)c2ccc([N+](=O)[O-])cc2)c2ccccc21

>  <Standard Type>  (646) 
Inhibition

>  <Standard Relation>  (646) 
'='

>  <Standard Units>  (646) 
%

>  <Standard Value>  (646) 
2.7

>  <Assay ChEMBL ID>  (646) 
CHEMBL1781430

>  <Assay Description>  (646) 
Inhibition of purified c-Met using poly(glu,tyr) as substrate at 10 uM after 60 mins by ELISA

>  <BAO Format ID>  (646) 
BAO_0000357

>  <BAO Label>  (646) 
single protein format

>  <Assay Organism>  (646) 
None

>  <Target ChEMBL ID>  (646) 
CHEMBL3717

>  <Target Name>  (646) 
Hepatocyte growth factor receptor

>  <Target Organism>  (646) 
Homo sapiens

>  <Target Type>  (646) 
SINGLE PROTEIN

>  <Document ChEMBL ID>  (646) 
CHEMBL1777704

>  <Source Description>  (646) 
Scientific Literature

>  <Document Journal>  (646) 
Bioorg Med Chem Lett

>  <Document Year>  (646) 
2011.0

>  <Active>  (646) 
0.0

$$$$

     RDKit          2D

 33 37  0  0  0  0  0  0  0  0999 V2000
   -4.6904   -6.5871    0.0000 C   0  0  0  0  0  0  0  0  0  0  0  0
   -4.3786   -5.1199    0.0000 C   0  0  0  0  0  0  0  0  0  0  0  0
   -2.9520   -4.6564    0.0000 N   0  0  0  0  0  0  0  0  0  0  0  0
   -2.6401   -3.1891    0.0000 C   0  0  0  0  0  0  0  0  0  0  0  0
   -3.7548   -2.1855    0.0000 O   0  0  0  0  0  0  0  0  0  0  0  0
   -1.2135   -2.7256    0.0000 C   0  0  0  0  0  0  0  0  0  0  0  0
   -0.0000   -3.6073    0.0000 C   0  0  0  0  0  0  0  0  0  0  0  0
    1.2135   -2.7256    0.0000 N   0  0  0  0  0  0  0  0  0  0  0  0
    0.7500   -1.2990    0.0000 C   0  0  0  0  0  0  0  0  0  0  0  0
    1.5000    0.0000    0.0000 N   0  0  0  0  0  0  0  0  0  0  0  0
    0.7500    1.2990    0.0000 C   0  0  0  0  0  0  0  0  0  0  0  0
   -0.7500    1.2990    0.0000 C   0  0  0  0  0  0  0  0  0  0  0  0
   -1.5000    2.5981    0.0000 C   0  0  0  0  0  0  0  0  0  0  0  0
   -2.9918    2.7549    0.0000 N   0  0  0  0  0  0  0  0  0  0  0  0
   -3.3037    4.2221    0.0000 C   0  0  0  0  0  0  0  0  0  0  0  0
   -2.0046    4.9721    0.0000 N   0  0  0  0  0  0  0  0  0  0  0  0
   -1.6927    6.4393    0.0000 C   0  0  0  0  0  0  0  0  0  0  0  0
   -0.2662    6.9028    0.0000 C   0  0  0  0  0  0  0  0  0  0  0  0
    0.0457    8.3701    0.0000 F   0  0  0  0  0  0  0  0  0  0  0  0
    0.8486    5.8991    0.0000 C   0  0  0  0  0  0  0  0  0  0  0  0
    0.5367    4.4319    0.0000 C   0  0  0  0  0  0  0  0  0  0  0  0
    1.6514    3.4282    0.0000 F   0  0  0  0  0  0  0  0  0  0  0  0
   -0.8899    3.9684    0.0000 C   0  0  0  0  0  0  0  0  0  0  0  0
   -1.5000    0.0000    0.0000 N   0  0  0  0  0  0  0  0  0  0  0  0
   -0.7500   -1.2990    0.0000 C   0  0  0  0  0  0  0  0  0  0  0  0
   -5.4933   -4.1162    0.0000 C   0  0  0  0  0  0  0  0  0  0  0  0
   -5.1814   -2.6490    0.0000 O   0  0  0  0  0  0  0  0  0  0  0  0
   -6.9199   -4.5797    0.0000 N   0  0  0  0  0  0  0  0  0  0  0  0
   -8.2564   -3.8987    0.0000 C   0  0  0  0  0  0  0  0  0  0  0  0
   -8.9374   -5.2352    0.0000 C   0  0  0  0  0  0  0  0  0  0  0  0
  -10.3639   -5.6988    0.0000 C   0  0  0  0  0  0  0  0  0  0  0  0
  -11.7905   -6.1623    0.0000 N   0  0  0  0  0  0  0  0  0  0  0  0
   -7.6009   -5.9162    0.0000 C   0  0  0  0  0  0  0  0  0  0  0  0
  2  1  1  6
  2  3  1  0
  3  4  1  0
  4  5  2  0
  4  6  1  0
  6  7  2  0
  7  8  1  0
  8  9  1  0
  9 10  2  0
 10 11  1  0
 11 12  2  0
 12 13  1  0
 13 14  1  0
 14 15  2  0
 15 16  1  0
 16 17  1  0
 17 18  2  0
 18 19  1  0
 18 20  1  0
 20 21  2  0
 21 22  1  0
 21 23  1  0
 12 24  1  0
 24 25  2  0
  2 26  1  0
 26 27  2  0
 26 28  1  0
 28 29  1  0
 29 30  1  0
 30 31  1  0
 31 32  3  0
 30 33  1  0
 25  6  1  0
 33 28  1  0
 25  9  1  0
 23 13  2  0
 23 16  1  0
M  END
>  <Compound_ID>  (647) 
CHEMBL2376158

>  <Molecule Name>  (647) 
nan

>  <Molecular Weight>  (647) 
450.41

>  <AlogP>  (647) 
1.65

>  <Smiles>  (647) 
C[C@@H](NC(=O)c1c[nH]c2ncc(-c3ncn4cc(F)cc(F)c34)nc12)C(=O)N1CC(C#N)C1

>  <Standard Type>  (647) 
Inhibition

>  <Standard Relation>  (647) 
'='

>  <Standard Units>  (647) 
%

>  <Standard Value>  (647) 
-1.0

>  <Assay ChEMBL ID>  (647) 
CHEMBL2378435

>  <Assay Description>  (647) 
Inhibition of MET (unknown origin) at 10 uM relative to control

>  <BAO Format ID>  (647) 
BAO_0000357

>  <BAO Label>  (647) 
single protein format

>  <Assay Organism>  (647) 
Homo sapiens

>  <Target ChEMBL ID>  (647) 
CHEMBL3717

>  <Target Name>  (647) 
Hepatocyte growth factor receptor

>  <Target Organism>  (647) 
Homo sapiens

>  <Target Type>  (647) 
SINGLE PROTEIN

>  <Document ChEMBL ID>  (647) 
CHEMBL2375236

>  <Source Description>  (647) 
Scientific Literature

>  <Document Journal>  (647) 
Bioorg Med Chem Lett

>  <Document Year>  (647) 
2013.0

>  <Active>  (647) 
0.0

$$$$

     RDKit          2D

 22 25  0  0  0  0  0  0  0  0999 V2000
   -6.1170   -7.0506    0.0000 O   0  0  0  0  0  0  0  0  0  0  0  0
   -4.6904   -6.5871    0.0000 C   0  0  0  0  0  0  0  0  0  0  0  0
   -4.3786   -5.1199    0.0000 C   0  0  0  0  0  0  0  0  0  0  0  0
   -5.4933   -4.1162    0.0000 C   0  0  0  0  0  0  0  0  0  0  0  0
   -5.1814   -2.6490    0.0000 C   0  0  0  0  0  0  0  0  0  0  0  0
   -3.7548   -2.1855    0.0000 C   0  0  0  0  0  0  0  0  0  0  0  0
   -2.6401   -3.1891    0.0000 C   0  0  0  0  0  0  0  0  0  0  0  0
   -1.2135   -2.7256    0.0000 C   0  0  0  0  0  0  0  0  0  0  0  0
   -0.0000   -3.6073    0.0000 C   0  0  0  0  0  0  0  0  0  0  0  0
    1.2135   -2.7256    0.0000 N   0  0  0  0  0  0  0  0  0  0  0  0
    0.7500   -1.2990    0.0000 C   0  0  0  0  0  0  0  0  0  0  0  0
    1.5000    0.0000    0.0000 N   0  0  0  0  0  0  0  0  0  0  0  0
    0.7500    1.2990    0.0000 C   0  0  0  0  0  0  0  0  0  0  0  0
   -0.7500    1.2990    0.0000 C   0  0  0  0  0  0  0  0  0  0  0  0
   -1.5000    2.5981    0.0000 C   0  0  0  0  0  0  0  0  0  0  0  0
   -2.9918    2.7549    0.0000 C   0  0  0  0  0  0  0  0  0  0  0  0
   -3.3037    4.2221    0.0000 N   0  0  0  0  0  0  0  0  0  0  0  0
   -2.0046    4.9721    0.0000 N   0  0  0  0  0  0  0  0  0  0  0  0
   -0.8899    3.9684    0.0000 C   0  0  0  0  0  0  0  0  0  0  0  0
   -1.5000    0.0000    0.0000 C   0  0  0  0  0  0  0  0  0  0  0  0
   -0.7500   -1.2990    0.0000 N   0  0  0  0  0  0  0  0  0  0  0  0
   -2.9520   -4.6564    0.0000 C   0  0  0  0  0  0  0  0  0  0  0  0
  1  2  1  0
  2  3  1  0
  3  4  2  0
  4  5  1  0
  5  6  2  0
  6  7  1  0
  7  8  1  0
  8  9  2  0
  9 10  1  0
 10 11  2  0
 11 12  1  0
 12 13  2  0
 13 14  1  0
 14 15  1  0
 15 16  1  0
 16 17  2  0
 17 18  1  0
 18 19  1  0
 14 20  2  0
 20 21  1  0
  7 22  2  0
 22  3  1  0
 21  8  1  0
 21 11  1  0
 19 15  2  0
M  END
>  <Compound_ID>  (648) 
CHEMBL1171699

>  <Molecule Name>  (648) 
nan

>  <Molecular Weight>  (648) 
291.31

>  <AlogP>  (648) 
2.28

>  <Smiles>  (648) 
OCc1cccc(-c2cnc3ncc(-c4cn[nH]c4)cn23)c1

>  <Standard Type>  (648) 
Inhibition

>  <Standard Relation>  (648) 
'='

>  <Standard Units>  (648) 
%

>  <Standard Value>  (648) 
4.0

>  <Assay ChEMBL ID>  (648) 
CHEMBL1173995

>  <Assay Description>  (648) 
Inhibition of MET at 10 uM by mobility shift assay

>  <BAO Format ID>  (648) 
BAO_0000357

>  <BAO Label>  (648) 
single protein format

>  <Assay Organism>  (648) 
None

>  <Target ChEMBL ID>  (648) 
CHEMBL3717

>  <Target Name>  (648) 
Hepatocyte growth factor receptor

>  <Target Organism>  (648) 
Homo sapiens

>  <Target Type>  (648) 
SINGLE PROTEIN

>  <Document ChEMBL ID>  (648) 
CHEMBL1177828

>  <Source Description>  (648) 
Scientific Literature

>  <Document Journal>  (648) 
Bioorg Med Chem Lett

>  <Document Year>  (648) 
2010.0

>  <Active>  (648) 
0.0

$$$$

     RDKit          2D

 19 21  0  0  0  0  0  0  0  0999 V2000
    3.0000    0.0000    0.0000 C   0  0  0  0  0  0  0  0  0  0  0  0
    1.5000    0.0000    0.0000 C   0  0  0  0  0  0  0  0  0  0  0  0
    0.7500   -1.2990    0.0000 C   0  0  0  0  0  0  0  0  0  0  0  0
   -0.7500   -1.2990    0.0000 C   0  0  0  0  0  0  0  0  0  0  0  0
   -1.5000   -2.5981    0.0000 N   0  0  0  0  0  0  0  0  0  0  0  0
   -3.0000   -2.5981    0.0000 C   0  0  0  0  0  0  0  0  0  0  0  0
   -3.7500   -3.8971    0.0000 C   0  0  0  0  0  0  0  0  0  0  0  0
   -5.2500   -3.8971    0.0000 C   0  0  0  0  0  0  0  0  0  0  0  0
   -6.0000   -5.1962    0.0000 C   0  0  0  0  0  0  0  0  0  0  0  0
   -5.2500   -6.4952    0.0000 C   0  0  0  0  0  0  0  0  0  0  0  0
   -3.7500   -6.4952    0.0000 C   0  0  0  0  0  0  0  0  0  0  0  0
   -3.0000   -5.1962    0.0000 C   0  0  0  0  0  0  0  0  0  0  0  0
   -3.7500   -1.2990    0.0000 N   0  0  0  0  0  0  0  0  0  0  0  0
   -3.0000    0.0000    0.0000 C   0  0  0  0  0  0  0  0  0  0  0  0
   -3.7500    1.2990    0.0000 N   0  0  0  0  0  0  0  0  0  0  0  0
   -1.5000    0.0000    0.0000 C   0  0  0  0  0  0  0  0  0  0  0  0
   -0.7500    1.2990    0.0000 C   0  0  0  0  0  0  0  0  0  0  0  0
   -1.5000    2.5981    0.0000 O   0  0  0  0  0  0  0  0  0  0  0  0
    0.7500    1.2990    0.0000 N   0  0  0  0  0  0  0  0  0  0  0  0
  1  2  1  0
  2  3  2  0
  3  4  1  0
  4  5  2  0
  5  6  1  0
  6  7  1  0
  7  8  2  0
  8  9  1  0
  9 10  2  0
 10 11  1  0
 11 12  2  0
  6 13  2  0
 13 14  1  0
 14 15  1  0
 14 16  2  0
 16 17  1  0
 17 18  2  0
 17 19  1  0
 19  2  1  0
 16  4  1  0
 12  7  1  0
M  END
>  <Compound_ID>  (649) 
CHEMBL1813806

>  <Molecule Name>  (649) 
nan

>  <Molecular Weight>  (649) 
252.28

>  <AlogP>  (649) 
1.88

>  <Smiles>  (649) 
Cc1cc2nc(-c3ccccc3)nc(N)c2c(=O)[nH]1

>  <Standard Type>  (649) 
Inhibition

>  <Standard Relation>  (649) 
'='

>  <Standard Units>  (649) 
%

>  <Standard Value>  (649) 
-1.0

>  <Assay ChEMBL ID>  (649) 
CHEMBL1815730

>  <Assay Description>  (649) 
Inhibition of MET at 30 uM by microfluidic mobility shift assay

>  <BAO Format ID>  (649) 
BAO_0000357

>  <BAO Label>  (649) 
single protein format

>  <Assay Organism>  (649) 
None

>  <Target ChEMBL ID>  (649) 
CHEMBL3717

>  <Target Name>  (649) 
Hepatocyte growth factor receptor

>  <Target Organism>  (649) 
Homo sapiens

>  <Target Type>  (649) 
SINGLE PROTEIN

>  <Document ChEMBL ID>  (649) 
CHEMBL1811853

>  <Source Description>  (649) 
Scientific Literature

>  <Document Journal>  (649) 
Bioorg Med Chem

>  <Document Year>  (649) 
2011.0

>  <Active>  (649) 
0.0

$$$$

     RDKit          2D

 28 31  0  0  0  0  0  0  0  0999 V2000
   -6.4289   -8.5179    0.0000 O   0  0  0  0  0  0  0  0  0  0  0  0
   -5.3142   -9.5216    0.0000 C   0  0  0  0  0  0  0  0  0  0  0  0
   -5.6260  -10.9888    0.0000 N   0  0  0  0  0  0  0  0  0  0  0  0
   -7.0526  -11.4523    0.0000 C   0  0  0  0  0  0  0  0  0  0  0  0
   -8.1673  -10.4486    0.0000 C   0  0  0  0  0  0  0  0  0  0  0  0
   -9.5939  -10.9121    0.0000 C   0  0  0  0  0  0  0  0  0  0  0  0
   -9.9058  -12.3794    0.0000 C   0  0  0  0  0  0  0  0  0  0  0  0
   -8.7911  -13.3831    0.0000 C   0  0  0  0  0  0  0  0  0  0  0  0
   -7.3645  -12.9195    0.0000 C   0  0  0  0  0  0  0  0  0  0  0  0
   -3.8876   -9.0580    0.0000 N   0  0  0  0  0  0  0  0  0  0  0  0
   -3.5757   -7.5908    0.0000 C   0  0  0  0  0  0  0  0  0  0  0  0
   -2.1491   -7.1273    0.0000 C   0  0  0  0  0  0  0  0  0  0  0  0
   -1.8373   -5.6601    0.0000 C   0  0  0  0  0  0  0  0  0  0  0  0
   -2.9520   -4.6564    0.0000 C   0  0  0  0  0  0  0  0  0  0  0  0
   -2.6401   -3.1891    0.0000 N   0  0  0  0  0  0  0  0  0  0  0  0
   -1.2135   -2.7256    0.0000 C   0  0  0  0  0  0  0  0  0  0  0  0
   -0.0000   -3.6073    0.0000 N   0  0  0  0  0  0  0  0  0  0  0  0
    1.2135   -2.7256    0.0000 S   0  0  0  0  0  0  0  0  0  0  0  0
    1.9635   -4.0247    0.0000 O   0  0  0  0  0  0  0  0  0  0  0  0
    2.5838   -2.1155    0.0000 O   0  0  0  0  0  0  0  0  0  0  0  0
    0.7500   -1.2990    0.0000 C   0  0  0  0  0  0  0  0  0  0  0  0
    1.5000    0.0000    0.0000 C   0  0  0  0  0  0  0  0  0  0  0  0
    0.7500    1.2990    0.0000 C   0  0  0  0  0  0  0  0  0  0  0  0
   -0.7500    1.2990    0.0000 C   0  0  0  0  0  0  0  0  0  0  0  0
   -1.5000    0.0000    0.0000 C   0  0  0  0  0  0  0  0  0  0  0  0
   -0.7500   -1.2990    0.0000 C   0  0  0  0  0  0  0  0  0  0  0  0
   -4.3786   -5.1199    0.0000 C   0  0  0  0  0  0  0  0  0  0  0  0
   -4.6904   -6.5871    0.0000 C   0  0  0  0  0  0  0  0  0  0  0  0
  1  2  2  0
  2  3  1  0
  3  4  1  0
  4  5  2  0
  5  6  1  0
  6  7  2  0
  7  8  1  0
  8  9  2  0
  2 10  1  0
 10 11  1  0
 11 12  2  0
 12 13  1  0
 13 14  2  0
 14 15  1  0
 15 16  1  0
 16 17  2  0
 17 18  1  0
 18 19  2  0
 18 20  2  0
 18 21  1  0
 21 22  2  0
 22 23  1  0
 23 24  2  0
 24 25  1  0
 25 26  2  0
 14 27  1  0
 27 28  2  0
  9  4  1  0
 28 11  1  0
 26 16  1  0
 26 21  1  0
M  END
>  <Compound_ID>  (650) 
CHEMBL2334810

>  <Molecule Name>  (650) 
nan

>  <Molecular Weight>  (650) 
392.44

>  <AlogP>  (650) 
3.89

>  <Smiles>  (650) 
O=C(Nc1ccccc1)Nc1ccc(NC2=NS(=O)(=O)c3ccccc32)cc1

>  <Standard Type>  (650) 
Inhibition

>  <Standard Relation>  (650) 
'='

>  <Standard Units>  (650) 
%

>  <Standard Value>  (650) 
13.0

>  <Assay ChEMBL ID>  (650) 
CHEMBL2338948

>  <Assay Description>  (650) 
Inhibition of c-MET tyrosine kinase (unknown origin) using [33P]-ATP at 10 uM after 20 to 40 mins by scintillation counting analysis

>  <BAO Format ID>  (650) 
BAO_0000357

>  <BAO Label>  (650) 
single protein format

>  <Assay Organism>  (650) 
Homo sapiens

>  <Target ChEMBL ID>  (650) 
CHEMBL3717

>  <Target Name>  (650) 
Hepatocyte growth factor receptor

>  <Target Organism>  (650) 
Homo sapiens

>  <Target Type>  (650) 
SINGLE PROTEIN

>  <Document ChEMBL ID>  (650) 
CHEMBL2331514

>  <Source Description>  (650) 
Scientific Literature

>  <Document Journal>  (650) 
Eur J Med Chem

>  <Document Year>  (650) 
2013.0

>  <Active>  (650) 
0.0

$$$$

     RDKit          2D

 33 38  0  0  0  0  0  0  0  0999 V2000
   -3.5736    1.2902    0.0000 O   0  0  0  0  0  0  0  0  0  0  0  0
   -2.1470    1.7537    0.0000 C   0  0  0  0  0  0  0  0  0  0  0  0
   -1.8351    3.2209    0.0000 N   0  0  0  0  0  0  0  0  0  0  0  0
   -0.4086    3.6844    0.0000 N   0  0  0  0  0  0  0  0  0  0  0  0
    0.7062    2.6807    0.0000 C   0  0  0  0  0  0  0  0  0  0  0  0
    2.1328    3.1443    0.0000 C   0  0  0  0  0  0  0  0  0  0  0  0
    2.5963    4.5709    0.0000 C   0  0  0  0  0  0  0  0  0  0  0  0
    4.0963    4.5709    0.0000 N   0  0  0  0  0  0  0  0  0  0  0  0
    4.5598    3.1443    0.0000 C   0  0  0  0  0  0  0  0  0  0  0  0
    5.9864    2.6807    0.0000 C   0  0  0  0  0  0  0  0  0  0  0  0
    6.2983    1.2135    0.0000 C   0  0  0  0  0  0  0  0  0  0  0  0
    7.7248    0.7500    0.0000 C   0  0  0  0  0  0  0  0  0  0  0  0
    8.8396    1.7537    0.0000 C   0  0  0  0  0  0  0  0  0  0  0  0
    8.5277    3.2209    0.0000 C   0  0  0  0  0  0  0  0  0  0  0  0
    7.1011    3.6844    0.0000 C   0  0  0  0  0  0  0  0  0  0  0  0
    3.3463    2.2626    0.0000 C   0  0  0  0  0  0  0  0  0  0  0  0
    3.3463    0.7626    0.0000 C   0  0  0  0  0  0  0  0  0  0  0  0
    2.0472    0.0126    0.0000 C   0  0  0  0  0  0  0  0  0  0  0  0
    2.0472   -1.4874    0.0000 C   0  0  0  0  0  0  0  0  0  0  0  0
    3.3463   -2.2374    0.0000 C   0  0  0  0  0  0  0  0  0  0  0  0
    4.6453   -1.4874    0.0000 C   0  0  0  0  0  0  0  0  0  0  0  0
    4.6453    0.0126    0.0000 C   0  0  0  0  0  0  0  0  0  0  0  0
    0.3943    1.2135    0.0000 C   0  0  0  0  0  0  0  0  0  0  0  0
    1.2760    0.0000    0.0000 C   0  0  0  0  0  0  0  0  0  0  0  0
    0.3943   -1.2135    0.0000 N   0  0  0  0  0  0  0  0  0  0  0  0
    0.8578   -2.6401    0.0000 C   0  0  0  0  0  0  0  0  0  0  0  0
   -0.1459   -3.7548    0.0000 C   0  0  0  0  0  0  0  0  0  0  0  0
    0.3177   -5.1814    0.0000 C   0  0  0  0  0  0  0  0  0  0  0  0
    1.7849   -5.4933    0.0000 C   0  0  0  0  0  0  0  0  0  0  0  0
    2.7886   -4.3786    0.0000 C   0  0  0  0  0  0  0  0  0  0  0  0
    2.3250   -2.9520    0.0000 C   0  0  0  0  0  0  0  0  0  0  0  0
   -1.0323   -0.7500    0.0000 N   0  0  0  0  0  0  0  0  0  0  0  0
   -1.0323    0.7500    0.0000 C   0  0  0  0  0  0  0  0  0  0  0  0
  1  2  1  0
  2  3  2  0
  3  4  1  0
  4  5  2  0
  5  6  1  0
  6  7  2  0
  7  8  1  0
  8  9  1  0
  9 10  1  0
 10 11  2  0
 11 12  1  0
 12 13  2  0
 13 14  1  0
 14 15  2  0
  9 16  2  0
 16 17  1  0
 17 18  2  0
 18 19  1  0
 19 20  2  0
 20 21  1  0
 21 22  2  0
  5 23  1  0
 23 24  2  0
 24 25  1  0
 25 26  1  0
 26 27  2  0
 27 28  1  0
 28 29  2  0
 29 30  1  0
 30 31  2  0
 25 32  1  0
 32 33  2  0
 33  2  1  0
 16  6  1  0
 22 17  1  0
 33 23  1  0
 15 10  1  0
 31 26  1  0
M  END
>  <Compound_ID>  (651) 
CHEMBL3740923

>  <Molecule Name>  (651) 
nan

>  <Molecular Weight>  (651) 
429.48

>  <AlogP>  (651) 
5.85

>  <Smiles>  (651) 
Oc1nnc(-c2c[nH]c(-c3ccccc3)c2-c2ccccc2)c2cn(-c3ccccc3)nc12

>  <Standard Type>  (651) 
Inhibition

>  <Standard Relation>  (651) 
'='

>  <Standard Units>  (651) 
%

>  <Standard Value>  (651) 
4.0

>  <Assay ChEMBL ID>  (651) 
CHEMBL3744318

>  <Assay Description>  (651) 
Inhibition of MET (unknown origin) at 30 uM by microfluidic assay relative to control

>  <BAO Format ID>  (651) 
BAO_0000357

>  <BAO Label>  (651) 
single protein format

>  <Assay Organism>  (651) 
Homo sapiens

>  <Target ChEMBL ID>  (651) 
CHEMBL3717

>  <Target Name>  (651) 
Hepatocyte growth factor receptor

>  <Target Organism>  (651) 
Homo sapiens

>  <Target Type>  (651) 
SINGLE PROTEIN

>  <Document ChEMBL ID>  (651) 
CHEMBL3739348

>  <Source Description>  (651) 
Scientific Literature

>  <Document Journal>  (651) 
Medchemcomm

>  <Document Year>  (651) 
2015.0

>  <Active>  (651) 
0.0

$$$$

     RDKit          2D

 46 51  0  0  0  0  0  0  0  0999 V2000
    4.5000    0.0000    0.0000 C   0  0  0  0  0  0  0  0  0  0  0  0
    3.0000    0.0000    0.0000 S   0  0  0  0  0  0  0  0  0  0  0  0
    3.0000    1.5000    0.0000 O   0  0  0  0  0  0  0  0  0  0  0  0
    3.0000   -1.5000    0.0000 O   0  0  0  0  0  0  0  0  0  0  0  0
    1.5000    0.0000    0.0000 C   0  0  0  0  0  0  0  0  0  0  0  0
    0.7500   -1.2990    0.0000 C   0  0  0  0  0  0  0  0  0  0  0  0
   -0.7500   -1.2990    0.0000 C   0  0  0  0  0  0  0  0  0  0  0  0
   -1.5000    0.0000    0.0000 C   0  0  0  0  0  0  0  0  0  0  0  0
   -0.7500    1.2990    0.0000 C   0  0  0  0  0  0  0  0  0  0  0  0
   -1.5000    2.5981    0.0000 N   0  0  0  0  0  0  0  0  0  0  0  0
   -0.7500    3.8971    0.0000 C   0  0  0  0  0  0  0  0  0  0  0  0
    0.7500    3.8971    0.0000 N   0  0  0  0  0  0  0  0  0  0  0  0
    1.5000    5.1962    0.0000 C   0  0  0  0  0  0  0  0  0  0  0  0
    0.7500    6.4952    0.0000 C   0  0  0  0  0  0  0  0  0  0  0  0
   -0.7500    6.4952    0.0000 C   0  0  0  0  0  0  0  0  0  0  0  0
   -1.5000    7.7942    0.0000 C   0  0  0  0  0  0  0  0  0  0  0  0
   -2.9918    7.9510    0.0000 S   0  0  0  0  0  0  0  0  0  0  0  0
   -3.3037    9.4182    0.0000 C   0  0  0  0  0  0  0  0  0  0  0  0
   -4.6740   10.0283    0.0000 N   0  0  0  0  0  0  0  0  0  0  0  0
   -4.8308   11.5201    0.0000 C   0  0  0  0  0  0  0  0  0  0  0  0
   -6.2011   12.1302    0.0000 C   0  0  0  0  0  0  0  0  0  0  0  0
   -7.4146   11.2486    0.0000 O   0  0  0  0  0  0  0  0  0  0  0  0
   -7.2578    9.7568    0.0000 C   0  0  0  0  0  0  0  0  0  0  0  0
   -5.8875    9.1467    0.0000 C   0  0  0  0  0  0  0  0  0  0  0  0
   -2.0046   10.1682    0.0000 N   0  0  0  0  0  0  0  0  0  0  0  0
   -0.8899    9.1645    0.0000 C   0  0  0  0  0  0  0  0  0  0  0  0
    0.5773    9.4764    0.0000 C   0  0  0  0  0  0  0  0  0  0  0  0
    1.5810    8.3617    0.0000 C   0  0  0  0  0  0  0  0  0  0  0  0
    3.0482    8.6736    0.0000 C   0  0  0  0  0  0  0  0  0  0  0  0
    3.5118   10.1001    0.0000 C   0  0  0  0  0  0  0  0  0  0  0  0
    2.5081   11.2149    0.0000 C   0  0  0  0  0  0  0  0  0  0  0  0
    2.9716   12.6415    0.0000 N   0  0  0  0  0  0  0  0  0  0  0  0
    4.4388   12.9533    0.0000 S   0  0  0  0  0  0  0  0  0  0  0  0
    4.7507   11.4861    0.0000 O   0  0  0  0  0  0  0  0  0  0  0  0
    4.1270   14.4205    0.0000 O   0  0  0  0  0  0  0  0  0  0  0  0
    5.9060   13.2652    0.0000 C   0  0  0  0  0  0  0  0  0  0  0  0
    6.9097   12.1505    0.0000 C   0  0  0  0  0  0  0  0  0  0  0  0
    6.4462   10.7239    0.0000 F   0  0  0  0  0  0  0  0  0  0  0  0
    8.3770   12.4623    0.0000 C   0  0  0  0  0  0  0  0  0  0  0  0
    8.8405   13.8889    0.0000 C   0  0  0  0  0  0  0  0  0  0  0  0
    7.8368   15.0036    0.0000 C   0  0  0  0  0  0  0  0  0  0  0  0
    6.3696   14.6918    0.0000 C   0  0  0  0  0  0  0  0  0  0  0  0
    5.3659   15.8065    0.0000 F   0  0  0  0  0  0  0  0  0  0  0  0
    1.0409   10.9030    0.0000 C   0  0  0  0  0  0  0  0  0  0  0  0
   -1.5000    5.1962    0.0000 N   0  0  0  0  0  0  0  0  0  0  0  0
    0.7500    1.2990    0.0000 C   0  0  0  0  0  0  0  0  0  0  0  0
  1  2  1  0
  2  3  2  0
  2  4  2  0
  2  5  1  0
  5  6  2  0
  6  7  1  0
  7  8  2  0
  8  9  1  0
  9 10  1  0
 10 11  1  0
 11 12  2  0
 12 13  1  0
 13 14  2  0
 14 15  1  0
 15 16  1  0
 16 17  1  0
 17 18  1  0
 18 19  1  0
 19 20  1  0
 20 21  1  0
 21 22  1  0
 22 23  1  0
 23 24  1  0
 18 25  2  0
 25 26  1  0
 26 27  1  0
 27 28  2  0
 28 29  1  0
 29 30  2  0
 30 31  1  0
 31 32  1  0
 32 33  1  0
 33 34  2  0
 33 35  2  0
 33 36  1  0
 36 37  2  0
 37 38  1  0
 37 39  1  0
 39 40  2  0
 40 41  1  0
 41 42  2  0
 42 43  1  0
 31 44  2  0
 15 45  2  0
  9 46  2  0
 46  5  1  0
 45 11  1  0
 26 16  2  0
 44 27  1  0
 24 19  1  0
 42 36  1  0
M  END
>  <Compound_ID>  (652) 
CHEMBL3628627

>  <Molecule Name>  (652) 
nan

>  <Molecular Weight>  (652) 
684.77

>  <AlogP>  (652) 
5.33

>  <Smiles>  (652) 
CS(=O)(=O)c1cccc(Nc2nccc(-c3sc(N4CCOCC4)nc3-c3cccc(NS(=O)(=O)c4c(F)cccc4F)c3)n2)c1

>  <Standard Type>  (652) 
Inhibition

>  <Standard Relation>  (652) 
'='

>  <Standard Units>  (652) 
%

>  <Standard Value>  (652) 
16.78

>  <Assay ChEMBL ID>  (652) 
CHEMBL3632174

>  <Assay Description>  (652) 
Inhibition of c-MET (unknown origin) at 10 uM after 120 mins P33 radiolabeled kinase activity assay

>  <BAO Format ID>  (652) 
BAO_0000357

>  <BAO Label>  (652) 
single protein format

>  <Assay Organism>  (652) 
Homo sapiens

>  <Target ChEMBL ID>  (652) 
CHEMBL3717

>  <Target Name>  (652) 
Hepatocyte growth factor receptor

>  <Target Organism>  (652) 
Homo sapiens

>  <Target Type>  (652) 
SINGLE PROTEIN

>  <Document ChEMBL ID>  (652) 
CHEMBL3627608

>  <Source Description>  (652) 
Scientific Literature

>  <Document Journal>  (652) 
Bioorg Med Chem

>  <Document Year>  (652) 
2015.0

>  <Active>  (652) 
0.0

$$$$

     RDKit          2D

 38 43  0  0  0  0  0  0  0  0999 V2000
   -5.1962   -9.6073    0.0000 C   0  0  0  0  0  0  0  0  0  0  0  0
   -3.8971  -10.3573    0.0000 C   0  0  0  0  0  0  0  0  0  0  0  0
   -2.5981   -9.6073    0.0000 C   0  0  0  0  0  0  0  0  0  0  0  0
   -2.5981   -8.1073    0.0000 C   0  0  0  0  0  0  0  0  0  0  0  0
   -1.2990   -7.3573    0.0000 C   0  0  0  0  0  0  0  0  0  0  0  0
   -1.2990   -5.8573    0.0000 C   0  0  0  0  0  0  0  0  0  0  0  0
   -0.0000   -5.1073    0.0000 N   0  0  0  0  0  0  0  0  0  0  0  0
   -0.0000   -3.6073    0.0000 C   0  0  0  0  0  0  0  0  0  0  0  0
   -1.2135   -2.7256    0.0000 C   0  0  0  0  0  0  0  0  0  0  0  0
   -0.7500   -1.2990    0.0000 C   0  0  0  0  0  0  0  0  0  0  0  0
    0.7500   -1.2990    0.0000 N   0  0  0  0  0  0  0  0  0  0  0  0
    1.2135   -2.7256    0.0000 N   0  0  0  0  0  0  0  0  0  0  0  0
    1.5000    0.0000    0.0000 C   0  0  0  0  0  0  0  0  0  0  0  0
    0.7500    1.2990    0.0000 C   0  0  0  0  0  0  0  0  0  0  0  0
   -0.7500    1.2990    0.0000 N   0  0  0  0  0  0  0  0  0  0  0  0
   -1.5000    2.5981    0.0000 C   0  0  0  0  0  0  0  0  0  0  0  0
   -1.5000    0.0000    0.0000 C   0  0  0  0  0  0  0  0  0  0  0  0
   -2.5981   -5.1073    0.0000 C   0  0  0  0  0  0  0  0  0  0  0  0
   -2.5981   -3.6073    0.0000 O   0  0  0  0  0  0  0  0  0  0  0  0
   -3.8971   -5.8573    0.0000 N   0  0  0  0  0  0  0  0  0  0  0  0
   -3.8971   -7.3573    0.0000 N   0  0  0  0  0  0  0  0  0  0  0  0
   -1.2990  -10.3573    0.0000 C   0  0  0  0  0  0  0  0  0  0  0  0
   -1.2990  -11.8573    0.0000 C   0  0  0  0  0  0  0  0  0  0  0  0
   -2.5981  -12.6073    0.0000 C   0  0  0  0  0  0  0  0  0  0  0  0
   -2.5981  -14.1073    0.0000 F   0  0  0  0  0  0  0  0  0  0  0  0
   -3.8971  -11.8573    0.0000 C   0  0  0  0  0  0  0  0  0  0  0  0
   -5.1962  -12.6073    0.0000 N   0  0  0  0  0  0  0  0  0  0  0  0
   -6.4952  -11.8573    0.0000 C   0  0  0  0  0  0  0  0  0  0  0  0
   -6.4952  -10.3573    0.0000 O   0  0  0  0  0  0  0  0  0  0  0  0
   -7.7942  -12.6073    0.0000 C   0  0  0  0  0  0  0  0  0  0  0  0
   -9.1645  -11.9972    0.0000 C   0  0  0  0  0  0  0  0  0  0  0  0
  -10.1682  -13.1119    0.0000 C   0  0  0  0  0  0  0  0  0  0  0  0
  -11.6682  -13.1119    0.0000 C   0  0  0  0  0  0  0  0  0  0  0  0
  -12.4182  -14.4110    0.0000 C   0  0  0  0  0  0  0  0  0  0  0  0
  -11.6682  -15.7100    0.0000 C   0  0  0  0  0  0  0  0  0  0  0  0
  -10.1682  -15.7100    0.0000 C   0  0  0  0  0  0  0  0  0  0  0  0
   -9.4182  -14.4110    0.0000 C   0  0  0  0  0  0  0  0  0  0  0  0
   -7.9510  -14.0991    0.0000 S   0  0  0  0  0  0  0  0  0  0  0  0
  1  2  1  0
  2  3  2  0
  3  4  1  0
  4  5  1  0
  5  6  2  0
  6  7  1  0
  7  8  1  0
  8  9  1  0
  9 10  2  0
 10 11  1  0
 11 12  1  0
 11 13  1  0
 13 14  1  0
 14 15  1  0
 15 16  1  0
 15 17  1  0
  6 18  1  0
 18 19  2  0
 18 20  1  0
 20 21  1  0
  3 22  1  0
 22 23  2  0
 23 24  1  0
 24 25  1  0
 24 26  2  0
 26 27  1  0
 27 28  1  0
 28 29  2  0
 28 30  1  0
 30 31  2  0
 31 32  1  0
 32 33  2  0
 33 34  1  0
 34 35  2  0
 35 36  1  0
 36 37  2  0
 37 38  1  0
 26  2  1  0
 38 30  1  0
 21  4  2  0
 37 32  1  0
 12  8  2  0
 17 10  1  0
M  END
>  <Compound_ID>  (653) 
CHEMBL3746293

>  <Molecule Name>  (653) 
nan

>  <Molecular Weight>  (653) 
529.60

>  <AlogP>  (653) 
4.74

>  <Smiles>  (653) 
Cc1c(-c2cc(Nc3cc4n(n3)CCN(C)C4)c(=O)[nH]n2)ccc(F)c1NC(=O)c1cc2ccccc2s1

>  <Standard Type>  (653) 
Inhibition

>  <Standard Relation>  (653) 
'='

>  <Standard Units>  (653) 
%

>  <Standard Value>  (653) 
-12.9

>  <Assay ChEMBL ID>  (653) 
CHEMBL3750461

>  <Assay Description>  (653) 
Inhibition of Met (unknown origin) at 1 uM

>  <BAO Format ID>  (653) 
BAO_0000357

>  <BAO Label>  (653) 
single protein format

>  <Assay Organism>  (653) 
Homo sapiens

>  <Target ChEMBL ID>  (653) 
CHEMBL3717

>  <Target Name>  (653) 
Hepatocyte growth factor receptor

>  <Target Organism>  (653) 
Homo sapiens

>  <Target Type>  (653) 
SINGLE PROTEIN

>  <Document ChEMBL ID>  (653) 
CHEMBL3745631

>  <Source Description>  (653) 
Scientific Literature

>  <Document Journal>  (653) 
Bioorg Med Chem Lett

>  <Document Year>  (653) 
2016.0

>  <Active>  (653) 
0.0

$$$$

     RDKit          2D

 22 25  0  0  0  0  0  0  0  0999 V2000
    6.0000   -5.1962    0.0000 O   0  0  0  0  0  0  0  0  0  0  0  0
    5.2500   -3.8971    0.0000 C   0  0  0  0  0  0  0  0  0  0  0  0
    3.7500   -3.8971    0.0000 C   0  0  0  0  0  0  0  0  0  0  0  0
    3.0000   -5.1962    0.0000 C   0  0  0  0  0  0  0  0  0  0  0  0
    1.5000   -5.1962    0.0000 C   0  0  0  0  0  0  0  0  0  0  0  0
    0.7500   -3.8971    0.0000 C   0  0  0  0  0  0  0  0  0  0  0  0
    1.5000   -2.5981    0.0000 C   0  0  0  0  0  0  0  0  0  0  0  0
    0.7500   -1.2990    0.0000 C   0  0  0  0  0  0  0  0  0  0  0  0
    1.5000    0.0000    0.0000 C   0  0  0  0  0  0  0  0  0  0  0  0
    0.7500    1.2990    0.0000 N   0  0  0  0  0  0  0  0  0  0  0  0
    1.2135    2.7256    0.0000 C   0  0  0  0  0  0  0  0  0  0  0  0
    2.6401    3.1891    0.0000 C   0  0  0  0  0  0  0  0  0  0  0  0
    3.1036    4.6157    0.0000 C   0  0  0  0  0  0  0  0  0  0  0  0
    4.6036    4.6157    0.0000 N   0  0  0  0  0  0  0  0  0  0  0  0
    5.0672    3.1891    0.0000 N   0  0  0  0  0  0  0  0  0  0  0  0
    3.8536    2.3075    0.0000 C   0  0  0  0  0  0  0  0  0  0  0  0
   -0.0000    3.6073    0.0000 C   0  0  0  0  0  0  0  0  0  0  0  0
   -1.2135    2.7256    0.0000 N   0  0  0  0  0  0  0  0  0  0  0  0
   -0.7500    1.2990    0.0000 C   0  0  0  0  0  0  0  0  0  0  0  0
   -1.5000    0.0000    0.0000 C   0  0  0  0  0  0  0  0  0  0  0  0
   -0.7500   -1.2990    0.0000 N   0  0  0  0  0  0  0  0  0  0  0  0
    3.0000   -2.5981    0.0000 C   0  0  0  0  0  0  0  0  0  0  0  0
  1  2  1  0
  2  3  1  0
  3  4  2  0
  4  5  1  0
  5  6  2  0
  6  7  1  0
  7  8  1  0
  8  9  2  0
  9 10  1  0
 10 11  1  0
 11 12  1  0
 12 13  1  0
 13 14  2  0
 14 15  1  0
 15 16  1  0
 11 17  2  0
 17 18  1  0
 18 19  2  0
 19 20  1  0
 20 21  2  0
  7 22  2  0
 22  3  1  0
 21  8  1  0
 19 10  1  0
 16 12  2  0
M  END
>  <Compound_ID>  (654) 
CHEMBL1170748

>  <Molecule Name>  (654) 
nan

>  <Molecular Weight>  (654) 
291.31

>  <AlogP>  (654) 
2.28

>  <Smiles>  (654) 
OCc1cccc(-c2cn3c(-c4cn[nH]c4)cnc3cn2)c1

>  <Standard Type>  (654) 
Inhibition

>  <Standard Relation>  (654) 
'='

>  <Standard Units>  (654) 
%

>  <Standard Value>  (654) 
12.0

>  <Assay ChEMBL ID>  (654) 
CHEMBL1173995

>  <Assay Description>  (654) 
Inhibition of MET at 10 uM by mobility shift assay

>  <BAO Format ID>  (654) 
BAO_0000357

>  <BAO Label>  (654) 
single protein format

>  <Assay Organism>  (654) 
None

>  <Target ChEMBL ID>  (654) 
CHEMBL3717

>  <Target Name>  (654) 
Hepatocyte growth factor receptor

>  <Target Organism>  (654) 
Homo sapiens

>  <Target Type>  (654) 
SINGLE PROTEIN

>  <Document ChEMBL ID>  (654) 
CHEMBL1177828

>  <Source Description>  (654) 
Scientific Literature

>  <Document Journal>  (654) 
Bioorg Med Chem Lett

>  <Document Year>  (654) 
2010.0

>  <Active>  (654) 
0.0

$$$$

     RDKit          2D

 16 18  0  0  0  0  0  0  0  0999 V2000
    2.6401   -3.1891    0.0000 O   0  0  0  0  0  0  0  0  0  0  0  0
    1.2135   -2.7256    0.0000 C   0  0  0  0  0  0  0  0  0  0  0  0
    0.7500   -1.2990    0.0000 C   0  0  0  0  0  0  0  0  0  0  0  0
    1.5000    0.0000    0.0000 C   0  0  0  0  0  0  0  0  0  0  0  0
    0.7500    1.2990    0.0000 C   0  0  0  0  0  0  0  0  0  0  0  0
   -0.7500    1.2990    0.0000 C   0  0  0  0  0  0  0  0  0  0  0  0
   -1.5000    0.0000    0.0000 C   0  0  0  0  0  0  0  0  0  0  0  0
   -0.7500   -1.2990    0.0000 C   0  0  0  0  0  0  0  0  0  0  0  0
   -1.2135   -2.7256    0.0000 Se  0  0  0  0  0  2  0  0  0  0  0  0
   -0.0000   -3.6073    0.0000 N   0  0  0  0  0  0  0  0  0  0  0  0
   -0.0000   -5.1073    0.0000 C   0  0  0  0  0  0  0  0  0  0  0  0
   -1.2990   -5.8573    0.0000 C   0  0  0  0  0  0  0  0  0  0  0  0
   -1.2990   -7.3573    0.0000 C   0  0  0  0  0  0  0  0  0  0  0  0
   -0.0000   -8.1073    0.0000 C   0  0  0  0  0  0  0  0  0  0  0  0
    1.2990   -7.3573    0.0000 C   0  0  0  0  0  0  0  0  0  0  0  0
    1.2990   -5.8573    0.0000 C   0  0  0  0  0  0  0  0  0  0  0  0
  1  2  2  0
  2  3  1  0
  3  4  2  0
  4  5  1  0
  5  6  2  0
  6  7  1  0
  7  8  2  0
  8  9  1  0
  9 10  1  0
 10 11  1  0
 11 12  2  0
 12 13  1  0
 13 14  2  0
 14 15  1  0
 15 16  2  0
 10  2  1  0
 16 11  1  0
  8  3  1  0
M  END
>  <Compound_ID>  (655) 
CHEMBL51085

>  <Molecule Name>  (655) 
EBSELEN

>  <Molecular Weight>  (655) 
274.18

>  <AlogP>  (655) 
None

>  <Smiles>  (655) 
O=c1c2ccccc2[se]n1-c1ccccc1

>  <Standard Type>  (655) 
Inhibition

>  <Standard Relation>  (655) 
'='

>  <Standard Units>  (655) 
%

>  <Standard Value>  (655) 
0.0

>  <Assay ChEMBL ID>  (655) 
CHEMBL1943931

>  <Assay Description>  (655) 
Inhibition of MET at 1 uM

>  <BAO Format ID>  (655) 
BAO_0000357

>  <BAO Label>  (655) 
single protein format

>  <Assay Organism>  (655) 
None

>  <Target ChEMBL ID>  (655) 
CHEMBL3717

>  <Target Name>  (655) 
Hepatocyte growth factor receptor

>  <Target Organism>  (655) 
Homo sapiens

>  <Target Type>  (655) 
SINGLE PROTEIN

>  <Document ChEMBL ID>  (655) 
CHEMBL1938284

>  <Source Description>  (655) 
Scientific Literature

>  <Document Journal>  (655) 
Eur J Med Chem

>  <Document Year>  (655) 
2012.0

>  <Active>  (655) 
0.0

$$$$

     RDKit          2D

 19 22  0  0  0  0  0  0  0  0999 V2000
    0.8899   -3.9684    0.0000 C   0  0  0  0  0  0  0  0  0  0  0  0
    2.0046   -4.9721    0.0000 N   0  0  0  0  0  0  0  0  0  0  0  0
    3.3037   -4.2221    0.0000 N   0  0  0  0  0  0  0  0  0  0  0  0
    2.9918   -2.7549    0.0000 C   0  0  0  0  0  0  0  0  0  0  0  0
    1.5000   -2.5981    0.0000 C   0  0  0  0  0  0  0  0  0  0  0  0
    0.7500   -1.2990    0.0000 C   0  0  0  0  0  0  0  0  0  0  0  0
    1.5000    0.0000    0.0000 C   0  0  0  0  0  0  0  0  0  0  0  0
    0.7500    1.2990    0.0000 N   0  0  0  0  0  0  0  0  0  0  0  0
   -0.7500    1.2990    0.0000 C   0  0  0  0  0  0  0  0  0  0  0  0
   -1.7537    2.4138    0.0000 N   0  0  0  0  0  0  0  0  0  0  0  0
   -3.1240    1.8037    0.0000 C   0  0  0  0  0  0  0  0  0  0  0  0
   -2.9672    0.3119    0.0000 C   0  0  0  0  0  0  0  0  0  0  0  0
   -4.0819   -0.6918    0.0000 C   0  0  0  0  0  0  0  0  0  0  0  0
   -3.9251   -2.1836    0.0000 C   0  0  0  0  0  0  0  0  0  0  0  0
   -5.2955   -2.7937    0.0000 N   0  0  0  0  0  0  0  0  0  0  0  0
   -6.2992   -1.6790    0.0000 N   0  0  0  0  0  0  0  0  0  0  0  0
   -5.5492   -0.3800    0.0000 C   0  0  0  0  0  0  0  0  0  0  0  0
   -1.5000    0.0000    0.0000 N   0  0  0  0  0  0  0  0  0  0  0  0
   -0.7500   -1.2990    0.0000 C   0  0  0  0  0  0  0  0  0  0  0  0
  1  2  2  0
  2  3  1  0
  3  4  1  0
  4  5  2  0
  5  6  1  0
  6  7  1  0
  7  8  2  0
  8  9  1  0
  9 10  2  0
 10 11  1  0
 11 12  2  0
 12 13  1  0
 13 14  1  0
 14 15  2  0
 15 16  1  0
 16 17  1  0
 12 18  1  0
 18 19  1  0
  5  1  1  0
 19  6  2  0
 18  9  1  0
 17 13  2  0
M  END
>  <Compound_ID>  (656) 
CHEMBL1171532

>  <Molecule Name>  (656) 
nan

>  <Molecular Weight>  (656) 
251.25

>  <AlogP>  (656) 
1.51

>  <Smiles>  (656) 
c1n[nH]cc1-c1cnc2ncc(-c3cn[nH]c3)n2c1

>  <Standard Type>  (656) 
Inhibition

>  <Standard Relation>  (656) 
'='

>  <Standard Units>  (656) 
%

>  <Standard Value>  (656) 
5.0

>  <Assay ChEMBL ID>  (656) 
CHEMBL1173995

>  <Assay Description>  (656) 
Inhibition of MET at 10 uM by mobility shift assay

>  <BAO Format ID>  (656) 
BAO_0000357

>  <BAO Label>  (656) 
single protein format

>  <Assay Organism>  (656) 
None

>  <Target ChEMBL ID>  (656) 
CHEMBL3717

>  <Target Name>  (656) 
Hepatocyte growth factor receptor

>  <Target Organism>  (656) 
Homo sapiens

>  <Target Type>  (656) 
SINGLE PROTEIN

>  <Document ChEMBL ID>  (656) 
CHEMBL1177828

>  <Source Description>  (656) 
Scientific Literature

>  <Document Journal>  (656) 
Bioorg Med Chem Lett

>  <Document Year>  (656) 
2010.0

>  <Active>  (656) 
0.0

$$$$

     RDKit          2D

 22 24  0  0  0  0  0  0  0  0999 V2000
    3.7500   -1.2990    0.0000 N   0  0  0  0  0  0  0  0  0  0  0  0
    3.0000    0.0000    0.0000 C   0  0  0  0  0  0  0  0  0  0  0  0
    3.7500    1.2990    0.0000 O   0  0  0  0  0  0  0  0  0  0  0  0
    1.5000    0.0000    0.0000 C   0  0  0  0  0  0  0  0  0  0  0  0
    0.7500   -1.2990    0.0000 C   0  0  0  0  0  0  0  0  0  0  0  0
   -0.7500   -1.2990    0.0000 C   0  0  0  0  0  0  0  0  0  0  0  0
   -1.5000   -2.5981    0.0000 C   0  0  0  0  0  0  0  0  0  0  0  0
   -3.0000   -2.5981    0.0000 C   0  0  0  0  0  0  0  0  0  0  0  0
   -3.7500   -3.8971    0.0000 C   0  0  0  0  0  0  0  0  0  0  0  0
   -3.0000   -5.1962    0.0000 N   0  0  0  0  0  0  0  0  0  0  0  0
   -1.5000   -5.1962    0.0000 C   0  0  0  0  0  0  0  0  0  0  0  0
   -0.7500   -3.8971    0.0000 C   0  0  0  0  0  0  0  0  0  0  0  0
   -1.5000    0.0000    0.0000 C   0  0  0  0  0  0  0  0  0  0  0  0
   -0.7500    1.2990    0.0000 C   0  0  0  0  0  0  0  0  0  0  0  0
   -1.5000    2.5981    0.0000 C   0  0  0  0  0  0  0  0  0  0  0  0
   -0.7500    3.8971    0.0000 C   0  0  0  0  0  0  0  0  0  0  0  0
   -1.5000    5.1962    0.0000 C   0  0  0  0  0  0  0  0  0  0  0  0
   -3.0000    5.1962    0.0000 C   0  0  0  0  0  0  0  0  0  0  0  0
   -3.7500    3.8971    0.0000 C   0  0  0  0  0  0  0  0  0  0  0  0
   -3.0000    2.5981    0.0000 C   0  0  0  0  0  0  0  0  0  0  0  0
    0.7500    1.2990    0.0000 C   0  0  0  0  0  0  0  0  0  0  0  0
    1.5000    2.5981    0.0000 N   0  0  0  0  0  0  0  0  0  0  0  0
  1  2  1  0
  2  3  2  0
  2  4  1  0
  4  5  2  0
  5  6  1  0
  6  7  1  0
  7  8  2  0
  8  9  1  0
  9 10  2  0
 10 11  1  0
 11 12  2  0
  6 13  2  0
 13 14  1  0
 14 15  1  0
 15 16  2  0
 16 17  1  0
 17 18  2  0
 18 19  1  0
 19 20  2  0
 14 21  2  0
 21 22  1  0
 21  4  1  0
 12  7  1  0
 20 15  1  0
M  END
>  <Compound_ID>  (657) 
CHEMBL230911

>  <Molecule Name>  (657) 
GSK-625137A

>  <Molecular Weight>  (657) 
289.34

>  <AlogP>  (657) 
3.10

>  <Smiles>  (657) 
NC(=O)c1cc(-c2ccncc2)cc(-c2ccccc2)c1N

>  <Standard Type>  (657) 
Inhibition

>  <Standard Relation>  (657) 
'='

>  <Standard Units>  (657) 
%

>  <Standard Value>  (657) 
0.99

>  <Assay ChEMBL ID>  (657) 
CHEMBL1962142

>  <Assay Description>  (657) 
GSK_PKIS: MET mean inhibition at 0.1 uM [Nanosyn]

>  <BAO Format ID>  (657) 
BAO_0000357

>  <BAO Label>  (657) 
single protein format

>  <Assay Organism>  (657) 
None

>  <Target ChEMBL ID>  (657) 
CHEMBL3717

>  <Target Name>  (657) 
Hepatocyte growth factor receptor

>  <Target Organism>  (657) 
Homo sapiens

>  <Target Type>  (657) 
SINGLE PROTEIN

>  <Document ChEMBL ID>  (657) 
CHEMBL1961873

>  <Source Description>  (657) 
GSK Published Kinase Inhibitor Set

>  <Document Journal>  (657) 
nan

>  <Document Year>  (657) 
nan

>  <Active>  (657) 
0.0

$$$$

     RDKit          2D

 44 49  0  0  0  0  0  0  0  0999 V2000
   -4.9294   -3.0000    0.0000 C   0  0  0  0  0  0  0  0  0  0  0  0
   -4.9294   -1.5000    0.0000 O   0  0  0  0  0  0  0  0  0  0  0  0
   -3.6304   -0.7500    0.0000 C   0  0  0  0  0  0  0  0  0  0  0  0
   -2.3313   -1.5000    0.0000 C   0  0  0  0  0  0  0  0  0  0  0  0
   -1.0323   -0.7500    0.0000 C   0  0  0  0  0  0  0  0  0  0  0  0
   -1.0323    0.7500    0.0000 C   0  0  0  0  0  0  0  0  0  0  0  0
   -2.3313    1.5000    0.0000 C   0  0  0  0  0  0  0  0  0  0  0  0
   -3.6304    0.7500    0.0000 C   0  0  0  0  0  0  0  0  0  0  0  0
   -4.9294    1.5000    0.0000 N   0  0  0  0  0  0  0  0  0  0  0  0
   -6.2284    0.7500    0.0000 C   0  0  0  0  0  0  0  0  0  0  0  0
   -6.2284   -0.7500    0.0000 N   0  0  0  0  0  0  0  0  0  0  0  0
   -7.5275   -1.5000    0.0000 C   0  0  0  0  0  0  0  0  0  0  0  0
   -7.5275   -3.0000    0.0000 N   0  0  0  0  0  0  0  0  0  0  0  0
   -8.8265   -3.7500    0.0000 C   0  0  0  0  0  0  0  0  0  0  0  0
  -10.1256   -3.0000    0.0000 C   0  0  0  0  0  0  0  0  0  0  0  0
  -11.4246   -3.7500    0.0000 C   0  0  0  0  0  0  0  0  0  0  0  0
  -11.4246   -5.2500    0.0000 C   0  0  0  0  0  0  0  0  0  0  0  0
  -10.1256   -6.0000    0.0000 C   0  0  0  0  0  0  0  0  0  0  0  0
  -10.1256   -7.5000    0.0000 F   0  0  0  0  0  0  0  0  0  0  0  0
   -8.8265   -5.2500    0.0000 C   0  0  0  0  0  0  0  0  0  0  0  0
   -7.5275   -6.0000    0.0000 C   0  0  0  0  0  0  0  0  0  0  0  0
   -6.2284   -5.2500    0.0000 N   0  0  0  0  0  0  0  0  0  0  0  0
   -7.5275   -7.5000    0.0000 O   0  0  0  0  0  0  0  0  0  0  0  0
   -8.8265   -0.7500    0.0000 C   0  0  0  0  0  0  0  0  0  0  0  0
  -10.2531   -1.2135    0.0000 C   0  0  0  0  0  0  0  0  0  0  0  0
  -11.1348    0.0000    0.0000 C   0  0  0  0  0  0  0  0  0  0  0  0
  -10.2531    1.2135    0.0000 N   0  0  0  0  0  0  0  0  0  0  0  0
   -8.8265    0.7500    0.0000 C   0  0  0  0  0  0  0  0  0  0  0  0
   -7.5275    1.5000    0.0000 N   0  0  0  0  0  0  0  0  0  0  0  0
    0.3943    1.2135    0.0000 N   0  0  0  0  0  0  0  0  0  0  0  0
    0.8578    2.6401    0.0000 C   0  0  0  0  0  0  0  0  0  0  0  0
   -0.1459    3.7548    0.0000 O   0  0  0  0  0  0  0  0  0  0  0  0
    2.3250    2.9520    0.0000 C   0  0  0  0  0  0  0  0  0  0  0  0
    2.7886    4.3786    0.0000 N   0  0  0  0  0  0  0  0  0  0  0  0
    4.2558    4.6904    0.0000 C   0  0  0  0  0  0  0  0  0  0  0  0
    4.7193    6.1170    0.0000 C   0  0  0  0  0  0  0  0  0  0  0  0
    3.7156    7.2317    0.0000 N   0  0  0  0  0  0  0  0  0  0  0  0
    4.1791    8.6583    0.0000 C   0  0  0  0  0  0  0  0  0  0  0  0
    5.6464    8.9702    0.0000 C   0  0  0  0  0  0  0  0  0  0  0  0
    3.1755    9.7730    0.0000 C   0  0  0  0  0  0  0  0  0  0  0  0
    2.2484    6.9199    0.0000 C   0  0  0  0  0  0  0  0  0  0  0  0
    1.7849    5.4933    0.0000 C   0  0  0  0  0  0  0  0  0  0  0  0
    1.2760    0.0000    0.0000 C   0  0  0  0  0  0  0  0  0  0  0  0
    0.3943   -1.2135    0.0000 C   0  0  0  0  0  0  0  0  0  0  0  0
  1  2  1  0
  2  3  1  0
  3  4  2  0
  4  5  1  0
  5  6  2  0
  6  7  1  0
  7  8  2  0
  8  9  1  0
  9 10  1  0
 10 11  2  0
 11 12  1  0
 12 13  1  0
 13 14  1  0
 14 15  2  0
 15 16  1  0
 16 17  2  0
 17 18  1  0
 18 19  1  0
 18 20  2  0
 20 21  1  0
 21 22  1  0
 21 23  2  0
 12 24  2  0
 24 25  1  0
 25 26  2  0
 26 27  1  0
 27 28  1  0
 28 29  2  0
  6 30  1  0
 30 31  1  0
 31 32  2  0
 31 33  1  0
 33 34  1  0
 34 35  1  0
 35 36  1  0
 36 37  1  0
 37 38  1  0
 38 39  1  0
 38 40  1  0
 37 41  1  0
 41 42  1  0
 30 43  1  0
 43 44  1  0
  8  3  1  0
 29 10  1  0
 42 34  1  0
 44  5  1  0
 20 14  1  0
 28 24  1  0
M  END
>  <Compound_ID>  (658) 
CHEMBL505915

>  <Molecule Name>  (658) 
GSK-1751853A

>  <Molecular Weight>  (658) 
601.69

>  <AlogP>  (658) 
3.61

>  <Smiles>  (658) 
COc1cc2c(cc1Nc1nc(Nc3cccc(F)c3C(N)=O)c3cc[nH]c3n1)N(C(=O)CN1CCN(C(C)C)CC1)CC2

>  <Standard Type>  (658) 
Inhibition

>  <Standard Relation>  (658) 
'='

>  <Standard Units>  (658) 
%

>  <Standard Value>  (658) 
1.99

>  <Assay ChEMBL ID>  (658) 
CHEMBL1962143

>  <Assay Description>  (658) 
GSK_PKIS: MET mean inhibition at 1 uM [Nanosyn]

>  <BAO Format ID>  (658) 
BAO_0000357

>  <BAO Label>  (658) 
single protein format

>  <Assay Organism>  (658) 
None

>  <Target ChEMBL ID>  (658) 
CHEMBL3717

>  <Target Name>  (658) 
Hepatocyte growth factor receptor

>  <Target Organism>  (658) 
Homo sapiens

>  <Target Type>  (658) 
SINGLE PROTEIN

>  <Document ChEMBL ID>  (658) 
CHEMBL1961873

>  <Source Description>  (658) 
GSK Published Kinase Inhibitor Set

>  <Document Journal>  (658) 
nan

>  <Document Year>  (658) 
nan

>  <Active>  (658) 
0.0

$$$$

     RDKit          2D

 22 25  0  0  0  0  0  0  0  0999 V2000
    3.0000   -7.7942    0.0000 N   0  0  0  0  0  0  0  0  0  0  0  0
    3.7500   -6.4952    0.0000 C   0  0  0  0  0  0  0  0  0  0  0  0
    3.0000   -5.1962    0.0000 C   0  0  0  0  0  0  0  0  0  0  0  0
    1.5000   -5.1962    0.0000 C   0  0  0  0  0  0  0  0  0  0  0  0
    0.7500   -3.8971    0.0000 C   0  0  0  0  0  0  0  0  0  0  0  0
    1.5000   -2.5981    0.0000 C   0  0  0  0  0  0  0  0  0  0  0  0
    0.7500   -1.2990    0.0000 C   0  0  0  0  0  0  0  0  0  0  0  0
    1.5000    0.0000    0.0000 C   0  0  0  0  0  0  0  0  0  0  0  0
    0.7500    1.2990    0.0000 N   0  0  0  0  0  0  0  0  0  0  0  0
    1.2135    2.7256    0.0000 C   0  0  0  0  0  0  0  0  0  0  0  0
    2.6401    3.1891    0.0000 C   0  0  0  0  0  0  0  0  0  0  0  0
    3.1036    4.6157    0.0000 C   0  0  0  0  0  0  0  0  0  0  0  0
    4.6036    4.6157    0.0000 N   0  0  0  0  0  0  0  0  0  0  0  0
    5.0672    3.1891    0.0000 N   0  0  0  0  0  0  0  0  0  0  0  0
    3.8536    2.3075    0.0000 C   0  0  0  0  0  0  0  0  0  0  0  0
   -0.0000    3.6073    0.0000 C   0  0  0  0  0  0  0  0  0  0  0  0
   -1.2135    2.7256    0.0000 N   0  0  0  0  0  0  0  0  0  0  0  0
   -0.7500    1.2990    0.0000 C   0  0  0  0  0  0  0  0  0  0  0  0
   -1.5000    0.0000    0.0000 C   0  0  0  0  0  0  0  0  0  0  0  0
   -0.7500   -1.2990    0.0000 N   0  0  0  0  0  0  0  0  0  0  0  0
    3.0000   -2.5981    0.0000 C   0  0  0  0  0  0  0  0  0  0  0  0
    3.7500   -3.8971    0.0000 C   0  0  0  0  0  0  0  0  0  0  0  0
  1  2  1  0
  2  3  1  0
  3  4  2  0
  4  5  1  0
  5  6  2  0
  6  7  1  0
  7  8  2  0
  8  9  1  0
  9 10  1  0
 10 11  1  0
 11 12  1  0
 12 13  2  0
 13 14  1  0
 14 15  1  0
 10 16  2  0
 16 17  1  0
 17 18  2  0
 18 19  1  0
 19 20  2  0
  6 21  1  0
 21 22  2  0
 22  3  1  0
 20  7  1  0
 18  9  1  0
 15 11  2  0
M  END
>  <Compound_ID>  (659) 
CHEMBL1170747

>  <Molecule Name>  (659) 
nan

>  <Molecular Weight>  (659) 
290.33

>  <AlogP>  (659) 
2.25

>  <Smiles>  (659) 
NCc1ccc(-c2cn3c(-c4cn[nH]c4)cnc3cn2)cc1

>  <Standard Type>  (659) 
Inhibition

>  <Standard Relation>  (659) 
'='

>  <Standard Units>  (659) 
%

>  <Standard Value>  (659) 
8.0

>  <Assay ChEMBL ID>  (659) 
CHEMBL1173995

>  <Assay Description>  (659) 
Inhibition of MET at 10 uM by mobility shift assay

>  <BAO Format ID>  (659) 
BAO_0000357

>  <BAO Label>  (659) 
single protein format

>  <Assay Organism>  (659) 
None

>  <Target ChEMBL ID>  (659) 
CHEMBL3717

>  <Target Name>  (659) 
Hepatocyte growth factor receptor

>  <Target Organism>  (659) 
Homo sapiens

>  <Target Type>  (659) 
SINGLE PROTEIN

>  <Document ChEMBL ID>  (659) 
CHEMBL1177828

>  <Source Description>  (659) 
Scientific Literature

>  <Document Journal>  (659) 
Bioorg Med Chem Lett

>  <Document Year>  (659) 
2010.0

>  <Active>  (659) 
0.0

$$$$

     RDKit          2D

 36 41  0  0  0  0  0  0  0  0999 V2000
   -1.5641    0.5522    0.0000 F   0  0  0  0  0  0  0  0  0  0  0  0
   -2.0276   -0.8744    0.0000 C   0  0  0  0  0  0  0  0  0  0  0  0
   -3.4542   -0.4108    0.0000 F   0  0  0  0  0  0  0  0  0  0  0  0
   -0.6010   -1.3379    0.0000 F   0  0  0  0  0  0  0  0  0  0  0  0
   -2.4911   -2.3009    0.0000 C   0  0  0  0  0  0  0  0  0  0  0  0
   -1.4874   -3.4157    0.0000 C   0  0  0  0  0  0  0  0  0  0  0  0
   -1.9509   -4.8423    0.0000 C   0  0  0  0  0  0  0  0  0  0  0  0
   -3.4182   -5.1541    0.0000 C   0  0  0  0  0  0  0  0  0  0  0  0
   -3.8817   -6.5807    0.0000 C   0  0  0  0  0  0  0  0  0  0  0  0
   -5.3083   -7.0442    0.0000 N   0  0  0  0  0  0  0  0  0  0  0  0
   -5.3083   -8.5442    0.0000 N   0  0  0  0  0  0  0  0  0  0  0  0
   -6.4230   -9.5479    0.0000 N   0  0  0  0  0  0  0  0  0  0  0  0
   -6.1111  -11.0151    0.0000 C   0  0  0  0  0  0  0  0  0  0  0  0
   -4.6845  -11.4787    0.0000 C   0  0  0  0  0  0  0  0  0  0  0  0
   -3.5698  -10.4750    0.0000 C   0  0  0  0  0  0  0  0  0  0  0  0
   -3.8817   -9.0078    0.0000 C   0  0  0  0  0  0  0  0  0  0  0  0
   -3.0000   -7.7942    0.0000 C   0  0  0  0  0  0  0  0  0  0  0  0
   -1.5000   -7.7942    0.0000 C   0  0  0  0  0  0  0  0  0  0  0  0
   -0.7500   -9.0933    0.0000 C   0  0  0  0  0  0  0  0  0  0  0  0
    0.7500   -9.0933    0.0000 C   0  0  0  0  0  0  0  0  0  0  0  0
    1.5000   -7.7942    0.0000 N   0  0  0  0  0  0  0  0  0  0  0  0
    0.7500   -6.4952    0.0000 C   0  0  0  0  0  0  0  0  0  0  0  0
    1.5000   -5.1962    0.0000 N   0  0  0  0  0  0  0  0  0  0  0  0
    3.0000   -5.1962    0.0000 C   0  0  0  0  0  0  0  0  0  0  0  0
    3.7500   -6.4952    0.0000 C   0  0  0  0  0  0  0  0  0  0  0  0
    5.2500   -6.4952    0.0000 C   0  0  0  0  0  0  0  0  0  0  0  0
    6.0000   -5.1962    0.0000 C   0  0  0  0  0  0  0  0  0  0  0  0
    5.2500   -3.8971    0.0000 C   0  0  0  0  0  0  0  0  0  0  0  0
    3.7500   -3.8971    0.0000 C   0  0  0  0  0  0  0  0  0  0  0  0
    6.0000   -2.5981    0.0000 O   0  0  0  0  0  0  0  0  0  0  0  0
    7.5000   -2.5981    0.0000 C   0  0  0  0  0  0  0  0  0  0  0  0
    8.2500   -3.8971    0.0000 C   0  0  0  0  0  0  0  0  0  0  0  0
    7.5000   -5.1962    0.0000 O   0  0  0  0  0  0  0  0  0  0  0  0
   -0.7500   -6.4952    0.0000 N   0  0  0  0  0  0  0  0  0  0  0  0
   -4.4218   -4.0394    0.0000 C   0  0  0  0  0  0  0  0  0  0  0  0
   -3.9583   -2.6128    0.0000 C   0  0  0  0  0  0  0  0  0  0  0  0
  1  2  1  0
  2  3  1  0
  2  4  1  0
  2  5  1  0
  5  6  2  0
  6  7  1  0
  7  8  2  0
  8  9  1  0
  9 10  2  0
 10 11  1  0
 11 12  1  0
 12 13  2  0
 13 14  1  0
 14 15  2  0
 15 16  1  0
 16 17  2  0
 17 18  1  0
 18 19  2  0
 19 20  1  0
 20 21  2  0
 21 22  1  0
 22 23  1  0
 23 24  1  0
 24 25  2  0
 25 26  1  0
 26 27  2  0
 27 28  1  0
 28 29  2  0
 28 30  1  0
 30 31  1  0
 31 32  1  0
 32 33  1  0
 22 34  2  0
  8 35  1  0
 35 36  2  0
 36  5  1  0
 17  9  1  0
 34 18  1  0
 16 11  1  0
 29 24  1  0
 33 27  1  0
M  END
>  <Compound_ID>  (660) 
CHEMBL185939

>  <Molecule Name>  (660) 
GW828525X

>  <Molecular Weight>  (660) 
490.45

>  <AlogP>  (660) 
5.39

>  <Smiles>  (660) 
FC(F)(F)c1ccc(-c2nn3ncccc3c2-c2ccnc(Nc3ccc4c(c3)OCCO4)n2)cc1

>  <Standard Type>  (660) 
Inhibition

>  <Standard Relation>  (660) 
'='

>  <Standard Units>  (660) 
%

>  <Standard Value>  (660) 
5.94

>  <Assay ChEMBL ID>  (660) 
CHEMBL1962142

>  <Assay Description>  (660) 
GSK_PKIS: MET mean inhibition at 0.1 uM [Nanosyn]

>  <BAO Format ID>  (660) 
BAO_0000357

>  <BAO Label>  (660) 
single protein format

>  <Assay Organism>  (660) 
None

>  <Target ChEMBL ID>  (660) 
CHEMBL3717

>  <Target Name>  (660) 
Hepatocyte growth factor receptor

>  <Target Organism>  (660) 
Homo sapiens

>  <Target Type>  (660) 
SINGLE PROTEIN

>  <Document ChEMBL ID>  (660) 
CHEMBL1961873

>  <Source Description>  (660) 
GSK Published Kinase Inhibitor Set

>  <Document Journal>  (660) 
nan

>  <Document Year>  (660) 
nan

>  <Active>  (660) 
0.0

$$$$

     RDKit          2D

 32 35  0  0  0  0  0  0  0  0999 V2000
    3.0000    0.0000    0.0000 N   0  0  0  0  0  0  0  0  0  0  0  0
    1.5000    0.0000    0.0000 C   0  0  0  0  0  0  0  0  0  0  0  0
    0.7500   -1.2990    0.0000 C   0  0  0  0  0  0  0  0  0  0  0  0
   -0.7500   -1.2990    0.0000 C   0  0  0  0  0  0  0  0  0  0  0  0
   -1.5000    0.0000    0.0000 C   0  0  0  0  0  0  0  0  0  0  0  0
   -3.0000    0.0000    0.0000 C   0  0  0  0  0  0  0  0  0  0  0  0
   -4.5000    0.0000    0.0000 C   0  0  0  0  0  0  0  0  0  0  0  0
   -6.0000    0.0000    0.0000 C   0  0  0  0  0  0  0  0  0  0  0  0
   -6.7500    1.2990    0.0000 C   0  0  0  0  0  0  0  0  0  0  0  0
   -8.2500    1.2990    0.0000 N   0  0  0  0  0  0  0  0  0  0  0  0
   -9.0000    0.0000    0.0000 C   0  0  0  0  0  0  0  0  0  0  0  0
   -8.2500   -1.2990    0.0000 N   0  0  0  0  0  0  0  0  0  0  0  0
   -6.7500   -1.2990    0.0000 C   0  0  0  0  0  0  0  0  0  0  0  0
   -6.0000   -2.5981    0.0000 N   0  0  0  0  0  0  0  0  0  0  0  0
   -6.7500   -3.8971    0.0000 C   0  0  0  0  0  0  0  0  0  0  0  0
   -8.2500   -3.8971    0.0000 C   0  0  0  0  0  0  0  0  0  0  0  0
   -9.0000   -5.1962    0.0000 C   0  0  0  0  0  0  0  0  0  0  0  0
   -8.2500   -6.4952    0.0000 C   0  0  0  0  0  0  0  0  0  0  0  0
   -9.0000   -7.7942    0.0000 O   0  0  0  0  0  0  0  0  0  0  0  0
  -10.5000   -7.7942    0.0000 C   0  0  0  0  0  0  0  0  0  0  0  0
  -11.2500   -9.0933    0.0000 C   0  0  0  0  0  0  0  0  0  0  0  0
  -12.7500   -9.0933    0.0000 C   0  0  0  0  0  0  0  0  0  0  0  0
  -13.5000  -10.3923    0.0000 C   0  0  0  0  0  0  0  0  0  0  0  0
  -12.7500  -11.6913    0.0000 C   0  0  0  0  0  0  0  0  0  0  0  0
  -11.2500  -11.6913    0.0000 C   0  0  0  0  0  0  0  0  0  0  0  0
  -10.5000  -12.9904    0.0000 F   0  0  0  0  0  0  0  0  0  0  0  0
  -10.5000  -10.3923    0.0000 C   0  0  0  0  0  0  0  0  0  0  0  0
   -6.7500   -6.4952    0.0000 C   0  0  0  0  0  0  0  0  0  0  0  0
   -6.0000   -7.7942    0.0000 Cl  0  0  0  0  0  0  0  0  0  0  0  0
   -6.0000   -5.1962    0.0000 C   0  0  0  0  0  0  0  0  0  0  0  0
   -0.7500    1.2990    0.0000 C   0  0  0  0  0  0  0  0  0  0  0  0
    0.7500    1.2990    0.0000 C   0  0  0  0  0  0  0  0  0  0  0  0
  1  2  1  0
  2  3  2  0
  3  4  1  0
  4  5  2  0
  5  6  1  0
  6  7  3  0
  7  8  1  0
  8  9  2  0
  9 10  1  0
 10 11  2  0
 11 12  1  0
 12 13  2  0
 13 14  1  0
 14 15  1  0
 15 16  2  0
 16 17  1  0
 17 18  2  0
 18 19  1  0
 19 20  1  0
 20 21  1  0
 21 22  2  0
 22 23  1  0
 23 24  2  0
 24 25  1  0
 25 26  1  0
 25 27  2  0
 18 28  1  0
 28 29  1  0
 28 30  2  0
  5 31  1  0
 31 32  2  0
 32  2  1  0
 13  8  1  0
 30 15  1  0
 27 21  1  0
M  END
>  <Compound_ID>  (661) 
CHEMBL205966

>  <Molecule Name>  (661) 
GW659893X

>  <Molecular Weight>  (661) 
444.90

>  <AlogP>  (661) 
5.57

>  <Smiles>  (661) 
Nc1ccc(C#Cc2cncnc2Nc2ccc(OCc3cccc(F)c3)c(Cl)c2)cc1

>  <Standard Type>  (661) 
Inhibition

>  <Standard Relation>  (661) 
'='

>  <Standard Units>  (661) 
%

>  <Standard Value>  (661) 
3.8

>  <Assay ChEMBL ID>  (661) 
CHEMBL1962143

>  <Assay Description>  (661) 
GSK_PKIS: MET mean inhibition at 1 uM [Nanosyn]

>  <BAO Format ID>  (661) 
BAO_0000357

>  <BAO Label>  (661) 
single protein format

>  <Assay Organism>  (661) 
None

>  <Target ChEMBL ID>  (661) 
CHEMBL3717

>  <Target Name>  (661) 
Hepatocyte growth factor receptor

>  <Target Organism>  (661) 
Homo sapiens

>  <Target Type>  (661) 
SINGLE PROTEIN

>  <Document ChEMBL ID>  (661) 
CHEMBL1961873

>  <Source Description>  (661) 
GSK Published Kinase Inhibitor Set

>  <Document Journal>  (661) 
nan

>  <Document Year>  (661) 
nan

>  <Active>  (661) 
0.0

$$$$

     RDKit          2D

 38 43  0  0  0  0  0  0  0  0999 V2000
    3.0000    0.0000    0.0000 F   0  0  0  0  0  0  0  0  0  0  0  0
    1.5000    0.0000    0.0000 C   0  0  0  0  0  0  0  0  0  0  0  0
    0.7500   -1.2990    0.0000 C   0  0  0  0  0  0  0  0  0  0  0  0
   -0.7500   -1.2990    0.0000 C   0  0  0  0  0  0  0  0  0  0  0  0
   -1.5000    0.0000    0.0000 C   0  0  0  0  0  0  0  0  0  0  0  0
   -3.0000    0.0000    0.0000 C   0  0  0  0  0  0  0  0  0  0  0  0
   -3.8817   -1.2135    0.0000 N   0  0  0  0  0  0  0  0  0  0  0  0
   -5.3083   -0.7500    0.0000 C   0  0  0  0  0  0  0  0  0  0  0  0
   -5.3083    0.7500    0.0000 N   0  0  0  0  0  0  0  0  0  0  0  0
   -6.5218    1.6317    0.0000 C   0  0  0  0  0  0  0  0  0  0  0  0
   -6.3650    3.1235    0.0000 C   0  0  0  0  0  0  0  0  0  0  0  0
   -7.5785    4.0051    0.0000 C   0  0  0  0  0  0  0  0  0  0  0  0
   -8.9488    3.3950    0.0000 N   0  0  0  0  0  0  0  0  0  0  0  0
   -9.1056    1.9033    0.0000 C   0  0  0  0  0  0  0  0  0  0  0  0
   -7.8921    1.0216    0.0000 C   0  0  0  0  0  0  0  0  0  0  0  0
   -3.8817    1.2135    0.0000 C   0  0  0  0  0  0  0  0  0  0  0  0
   -3.4182    2.6401    0.0000 C   0  0  0  0  0  0  0  0  0  0  0  0
   -1.9509    2.9520    0.0000 C   0  0  0  0  0  0  0  0  0  0  0  0
   -1.4874    4.3786    0.0000 C   0  0  0  0  0  0  0  0  0  0  0  0
   -2.4911    5.4933    0.0000 N   0  0  0  0  0  0  0  0  0  0  0  0
   -3.9583    5.1814    0.0000 C   0  0  0  0  0  0  0  0  0  0  0  0
   -4.9620    6.2961    0.0000 O   0  0  0  0  0  0  0  0  0  0  0  0
   -4.4985    7.7227    0.0000 C   0  0  0  0  0  0  0  0  0  0  0  0
   -3.0313    8.0346    0.0000 C   0  0  0  0  0  0  0  0  0  0  0  0
   -2.5677    9.4612    0.0000 C   0  0  0  0  0  0  0  0  0  0  0  0
   -3.5714   10.5759    0.0000 C   0  0  0  0  0  0  0  0  0  0  0  0
   -3.1079   12.0025    0.0000 O   0  0  0  0  0  0  0  0  0  0  0  0
   -1.6407   12.3143    0.0000 C   0  0  0  0  0  0  0  0  0  0  0  0
   -0.6370   11.1996    0.0000 C   0  0  0  0  0  0  0  0  0  0  0  0
    0.8302   11.5115    0.0000 C   0  0  0  0  0  0  0  0  0  0  0  0
    1.2937   12.9381    0.0000 C   0  0  0  0  0  0  0  0  0  0  0  0
    0.2901   14.0528    0.0000 C   0  0  0  0  0  0  0  0  0  0  0  0
   -1.1772   13.7409    0.0000 C   0  0  0  0  0  0  0  0  0  0  0  0
   -5.0387   10.2640    0.0000 C   0  0  0  0  0  0  0  0  0  0  0  0
   -5.5022    8.8374    0.0000 C   0  0  0  0  0  0  0  0  0  0  0  0
   -4.4218    3.7548    0.0000 N   0  0  0  0  0  0  0  0  0  0  0  0
   -0.7500    1.2990    0.0000 C   0  0  0  0  0  0  0  0  0  0  0  0
    0.7500    1.2990    0.0000 C   0  0  0  0  0  0  0  0  0  0  0  0
  1  2  1  0
  2  3  2  0
  3  4  1  0
  4  5  2  0
  5  6  1  0
  6  7  1  0
  7  8  2  0
  8  9  1  0
  9 10  1  0
 10 11  1  0
 11 12  1  0
 12 13  1  0
 13 14  1  0
 14 15  1  0
  9 16  1  0
 16 17  1  0
 17 18  2  0
 18 19  1  0
 19 20  2  0
 20 21  1  0
 21 22  1  0
 22 23  1  0
 23 24  2  0
 24 25  1  0
 25 26  2  0
 26 27  1  0
 27 28  1  0
 28 29  2  0
 29 30  1  0
 30 31  2  0
 31 32  1  0
 32 33  2  0
 26 34  1  0
 34 35  2  0
 21 36  2  0
  5 37  1  0
 37 38  2  0
 38  2  1  0
 16  6  2  0
 36 17  1  0
 15 10  1  0
 35 23  1  0
 33 28  1  0
M  END
>  <Compound_ID>  (662) 
CHEMBL13868

>  <Molecule Name>  (662) 
nan

>  <Molecular Weight>  (662) 
507.57

>  <AlogP>  (662) 
6.66

>  <Smiles>  (662) 
Fc1ccc(-c2ncn(C3CCNCC3)c2-c2ccnc(Oc3ccc(Oc4ccccc4)cc3)n2)cc1

>  <Standard Type>  (662) 
Inhibition

>  <Standard Relation>  (662) 
'='

>  <Standard Units>  (662) 
%

>  <Standard Value>  (662) 
0.02

>  <Assay ChEMBL ID>  (662) 
CHEMBL1962143

>  <Assay Description>  (662) 
GSK_PKIS: MET mean inhibition at 1 uM [Nanosyn]

>  <BAO Format ID>  (662) 
BAO_0000357

>  <BAO Label>  (662) 
single protein format

>  <Assay Organism>  (662) 
None

>  <Target ChEMBL ID>  (662) 
CHEMBL3717

>  <Target Name>  (662) 
Hepatocyte growth factor receptor

>  <Target Organism>  (662) 
Homo sapiens

>  <Target Type>  (662) 
SINGLE PROTEIN

>  <Document ChEMBL ID>  (662) 
CHEMBL1961873

>  <Source Description>  (662) 
GSK Published Kinase Inhibitor Set

>  <Document Journal>  (662) 
nan

>  <Document Year>  (662) 
nan

>  <Active>  (662) 
0.0

$$$$

     RDKit          2D

 24 26  0  0  0  0  0  0  0  0999 V2000
   -2.6401   -3.1891    0.0000 C   0  0  0  0  0  0  0  0  0  0  0  0
   -1.2135   -2.7256    0.0000 N   0  0  0  0  0  0  0  0  0  0  0  0
   -0.0000   -3.6073    0.0000 C   0  0  0  0  0  0  0  0  0  0  0  0
   -0.0000   -5.1073    0.0000 O   0  0  0  0  0  0  0  0  0  0  0  0
    1.2135   -2.7256    0.0000 C   0  0  0  0  0  0  0  0  0  0  0  0
    2.6401   -3.1891    0.0000 N   0  0  0  0  0  0  0  0  0  0  0  0
    2.9520   -4.6564    0.0000 N   0  0  0  0  0  0  0  0  0  0  0  0
    4.3786   -5.1199    0.0000 C   0  0  0  0  0  0  0  0  0  0  0  0
    5.4933   -4.1162    0.0000 O   0  0  0  0  0  0  0  0  0  0  0  0
    4.6904   -6.5871    0.0000 C   0  0  0  0  0  0  0  0  0  0  0  0
    3.5757   -7.5908    0.0000 C   0  0  0  0  0  0  0  0  0  0  0  0
    3.8876   -9.0580    0.0000 C   0  0  0  0  0  0  0  0  0  0  0  0
    5.3142   -9.5216    0.0000 C   0  0  0  0  0  0  0  0  0  0  0  0
    6.4289   -8.5179    0.0000 C   0  0  0  0  0  0  0  0  0  0  0  0
    7.8555   -8.9814    0.0000 N   0  0  0  0  0  4  0  0  0  0  0  0
    8.9702   -7.9777    0.0000 O   0  0  0  0  0  0  0  0  0  0  0  0
    8.1673  -10.4486    0.0000 O   0  0  0  0  0  1  0  0  0  0  0  0
    6.1170   -7.0506    0.0000 C   0  0  0  0  0  0  0  0  0  0  0  0
    0.7500   -1.2990    0.0000 C   0  0  0  0  0  0  0  0  0  0  0  0
    1.5000    0.0000    0.0000 C   0  0  0  0  0  0  0  0  0  0  0  0
    0.7500    1.2990    0.0000 C   0  0  0  0  0  0  0  0  0  0  0  0
   -0.7500    1.2990    0.0000 C   0  0  0  0  0  0  0  0  0  0  0  0
   -1.5000    0.0000    0.0000 C   0  0  0  0  0  0  0  0  0  0  0  0
   -0.7500   -1.2990    0.0000 C   0  0  0  0  0  0  0  0  0  0  0  0
  1  2  1  0
  2  3  1  0
  3  4  2  0
  3  5  1  0
  5  6  2  0
  6  7  1  0
  7  8  1  0
  8  9  2  0
  8 10  1  0
 10 11  2  0
 11 12  1  0
 12 13  2  0
 13 14  1  0
 14 15  1  0
 15 16  2  0
 15 17  1  0
 14 18  2  0
  5 19  1  0
 19 20  2  0
 20 21  1  0
 21 22  2  0
 22 23  1  0
 23 24  2  0
 24  2  1  0
 18 10  1  0
 24 19  1  0
M  CHG  2  15   1  17  -1
M  END
>  <Compound_ID>  (663) 
CHEMBL1779079

>  <Molecule Name>  (663) 
nan

>  <Molecular Weight>  (663) 
324.30

>  <AlogP>  (663) 
1.71

>  <Smiles>  (663) 
CN1C(=O)/C(=N\NC(=O)c2cccc([N+](=O)[O-])c2)c2ccccc21

>  <Standard Type>  (663) 
Inhibition

>  <Standard Relation>  (663) 
'='

>  <Standard Units>  (663) 
%

>  <Standard Value>  (663) 
12.3

>  <Assay ChEMBL ID>  (663) 
CHEMBL1781430

>  <Assay Description>  (663) 
Inhibition of purified c-Met using poly(glu,tyr) as substrate at 10 uM after 60 mins by ELISA

>  <BAO Format ID>  (663) 
BAO_0000357

>  <BAO Label>  (663) 
single protein format

>  <Assay Organism>  (663) 
None

>  <Target ChEMBL ID>  (663) 
CHEMBL3717

>  <Target Name>  (663) 
Hepatocyte growth factor receptor

>  <Target Organism>  (663) 
Homo sapiens

>  <Target Type>  (663) 
SINGLE PROTEIN

>  <Document ChEMBL ID>  (663) 
CHEMBL1777704

>  <Source Description>  (663) 
Scientific Literature

>  <Document Journal>  (663) 
Bioorg Med Chem Lett

>  <Document Year>  (663) 
2011.0

>  <Active>  (663) 
0.0

$$$$

     RDKit          2D

 22 24  0  0  0  0  0  0  0  0999 V2000
   -0.0000   -5.1073    0.0000 O   0  0  0  0  0  0  0  0  0  0  0  0
   -0.0000   -3.6073    0.0000 C   0  0  0  0  0  0  0  0  0  0  0  0
    1.2135   -2.7256    0.0000 N   0  0  0  0  0  0  0  0  0  0  0  0
    0.7500   -1.2990    0.0000 C   0  0  0  0  0  0  0  0  0  0  0  0
    1.5000    0.0000    0.0000 C   0  0  0  0  0  0  0  0  0  0  0  0
    0.7500    1.2990    0.0000 C   0  0  0  0  0  0  0  0  0  0  0  0
   -0.7500    1.2990    0.0000 C   0  0  0  0  0  0  0  0  0  0  0  0
   -1.5000    2.5981    0.0000 F   0  0  0  0  0  0  0  0  0  0  0  0
   -1.5000    0.0000    0.0000 C   0  0  0  0  0  0  0  0  0  0  0  0
   -0.7500   -1.2990    0.0000 C   0  0  0  0  0  0  0  0  0  0  0  0
   -1.2135   -2.7256    0.0000 C   0  0  0  0  0  0  0  0  0  0  0  0
   -2.6401   -3.1891    0.0000 N   0  0  0  0  0  0  0  0  0  0  0  0
   -2.9520   -4.6564    0.0000 N   0  0  0  0  0  0  0  0  0  0  0  0
   -4.3786   -5.1199    0.0000 C   0  0  0  0  0  0  0  0  0  0  0  0
   -5.4933   -4.1162    0.0000 O   0  0  0  0  0  0  0  0  0  0  0  0
   -4.6904   -6.5871    0.0000 C   0  0  0  0  0  0  0  0  0  0  0  0
   -6.1170   -7.0506    0.0000 C   0  0  0  0  0  0  0  0  0  0  0  0
   -6.4289   -8.5179    0.0000 C   0  0  0  0  0  0  0  0  0  0  0  0
   -5.3142   -9.5216    0.0000 C   0  0  0  0  0  0  0  0  0  0  0  0
   -5.6260  -10.9888    0.0000 F   0  0  0  0  0  0  0  0  0  0  0  0
   -3.8876   -9.0580    0.0000 C   0  0  0  0  0  0  0  0  0  0  0  0
   -3.5757   -7.5908    0.0000 C   0  0  0  0  0  0  0  0  0  0  0  0
  1  2  2  0
  2  3  1  0
  3  4  1  0
  4  5  2  0
  5  6  1  0
  6  7  2  0
  7  8  1  0
  7  9  1  0
  9 10  2  0
 10 11  1  0
 11 12  2  0
 12 13  1  0
 13 14  1  0
 14 15  2  0
 14 16  1  0
 16 17  2  0
 17 18  1  0
 18 19  2  0
 19 20  1  0
 19 21  1  0
 21 22  2  0
 11  2  1  0
 22 16  1  0
 10  4  1  0
M  END
>  <Compound_ID>  (664) 
CHEMBL1779077

>  <Molecule Name>  (664) 
nan

>  <Molecular Weight>  (664) 
301.25

>  <AlogP>  (664) 
2.05

>  <Smiles>  (664) 
O=C1Nc2ccc(F)cc2/C1=N/NC(=O)c1ccc(F)cc1

>  <Standard Type>  (664) 
Inhibition

>  <Standard Relation>  (664) 
'='

>  <Standard Units>  (664) 
%

>  <Standard Value>  (664) 
13.3

>  <Assay ChEMBL ID>  (664) 
CHEMBL1781430

>  <Assay Description>  (664) 
Inhibition of purified c-Met using poly(glu,tyr) as substrate at 10 uM after 60 mins by ELISA

>  <BAO Format ID>  (664) 
BAO_0000357

>  <BAO Label>  (664) 
single protein format

>  <Assay Organism>  (664) 
None

>  <Target ChEMBL ID>  (664) 
CHEMBL3717

>  <Target Name>  (664) 
Hepatocyte growth factor receptor

>  <Target Organism>  (664) 
Homo sapiens

>  <Target Type>  (664) 
SINGLE PROTEIN

>  <Document ChEMBL ID>  (664) 
CHEMBL1777704

>  <Source Description>  (664) 
Scientific Literature

>  <Document Journal>  (664) 
Bioorg Med Chem Lett

>  <Document Year>  (664) 
2011.0

>  <Active>  (664) 
0.0

$$$$

     RDKit          2D

 26 28  0  0  0  0  0  0  0  0999 V2000
    1.8478   -6.4639    0.0000 O   0  0  0  0  0  0  0  0  0  0  0  0
    2.0046   -4.9721    0.0000 C   0  0  0  0  0  0  0  0  0  0  0  0
    3.3037   -4.2221    0.0000 N   0  0  0  0  0  0  0  0  0  0  0  0
    2.9918   -2.7549    0.0000 C   0  0  0  0  0  0  0  0  0  0  0  0
    3.9955   -1.6402    0.0000 O   0  0  0  0  0  0  0  0  0  0  0  0
    1.5000   -2.5981    0.0000 C   0  0  0  0  0  0  0  0  0  0  0  0
    0.7500   -1.2990    0.0000 C   0  0  0  0  0  0  0  0  0  0  0  0
    1.5000    0.0000    0.0000 C   0  0  0  0  0  0  0  0  0  0  0  0
    0.7500    1.2990    0.0000 C   0  0  0  0  0  0  0  0  0  0  0  0
   -0.7500    1.2990    0.0000 C   0  0  0  0  0  0  0  0  0  0  0  0
   -1.5000    0.0000    0.0000 C   0  0  0  0  0  0  0  0  0  0  0  0
   -3.0000    0.0000    0.0000 N   0  0  0  0  0  4  0  0  0  0  0  0
   -3.7500   -1.2990    0.0000 O   0  0  0  0  0  0  0  0  0  0  0  0
   -3.7500    1.2990    0.0000 O   0  0  0  0  0  1  0  0  0  0  0  0
   -0.7500   -1.2990    0.0000 C   0  0  0  0  0  0  0  0  0  0  0  0
    0.8899   -3.9684    0.0000 C   0  0  0  0  0  0  0  0  0  0  0  0
   -0.5773   -4.2803    0.0000 N   0  0  0  0  0  0  0  0  0  0  0  0
   -1.0409   -5.7068    0.0000 C   0  0  0  0  0  0  0  0  0  0  0  0
   -2.5081   -6.0187    0.0000 C   0  0  0  0  0  0  0  0  0  0  0  0
   -2.9716   -7.4453    0.0000 C   0  0  0  0  0  0  0  0  0  0  0  0
   -4.4388   -7.7572    0.0000 Cl  0  0  0  0  0  0  0  0  0  0  0  0
   -1.9679   -8.5600    0.0000 C   0  0  0  0  0  0  0  0  0  0  0  0
   -2.4314   -9.9866    0.0000 O   0  0  0  0  0  0  0  0  0  0  0  0
   -0.5007   -8.2481    0.0000 C   0  0  0  0  0  0  0  0  0  0  0  0
    0.5030   -9.3629    0.0000 Cl  0  0  0  0  0  0  0  0  0  0  0  0
   -0.0372   -6.8216    0.0000 C   0  0  0  0  0  0  0  0  0  0  0  0
  1  2  2  0
  2  3  1  0
  3  4  1  0
  4  5  2  0
  4  6  1  0
  6  7  1  0
  7  8  2  0
  8  9  1  0
  9 10  2  0
 10 11  1  0
 11 12  1  0
 12 13  2  0
 12 14  1  0
 11 15  2  0
  6 16  2  0
 16 17  1  0
 17 18  1  0
 18 19  2  0
 19 20  1  0
 20 21  1  0
 20 22  2  0
 22 23  1  0
 22 24  1  0
 24 25  1  0
 24 26  2  0
 16  2  1  0
 26 18  1  0
 15  7  1  0
M  CHG  2  12   1  14  -1
M  END
>  <Compound_ID>  (665) 
CHEMBL352222

>  <Molecule Name>  (665) 
nan

>  <Molecular Weight>  (665) 
394.17

>  <AlogP>  (665) 
3.09

>  <Smiles>  (665) 
O=C1NC(=O)C(c2cccc([N+](=O)[O-])c2)=C1Nc1cc(Cl)c(O)c(Cl)c1

>  <Standard Type>  (665) 
Inhibition

>  <Standard Relation>  (665) 
'='

>  <Standard Units>  (665) 
%

>  <Standard Value>  (665) 
6.61

>  <Assay ChEMBL ID>  (665) 
CHEMBL1962142

>  <Assay Description>  (665) 
GSK_PKIS: MET mean inhibition at 0.1 uM [Nanosyn]

>  <BAO Format ID>  (665) 
BAO_0000357

>  <BAO Label>  (665) 
single protein format

>  <Assay Organism>  (665) 
None

>  <Target ChEMBL ID>  (665) 
CHEMBL3717

>  <Target Name>  (665) 
Hepatocyte growth factor receptor

>  <Target Organism>  (665) 
Homo sapiens

>  <Target Type>  (665) 
SINGLE PROTEIN

>  <Document ChEMBL ID>  (665) 
CHEMBL1961873

>  <Source Description>  (665) 
GSK Published Kinase Inhibitor Set

>  <Document Journal>  (665) 
nan

>  <Document Year>  (665) 
nan

>  <Active>  (665) 
0.0

$$$$

     RDKit          2D

 38 42  0  0  0  0  0  0  0  0999 V2000
   -2.5767  -16.4739    0.0000 C   0  0  0  0  0  0  0  0  0  0  0  0
   -1.2064  -15.8638    0.0000 O   0  0  0  0  0  0  0  0  0  0  0  0
   -1.0496  -14.3720    0.0000 C   0  0  0  0  0  0  0  0  0  0  0  0
   -2.2631  -13.4903    0.0000 O   0  0  0  0  0  0  0  0  0  0  0  0
    0.3207  -13.7619    0.0000 C   0  0  0  0  0  0  0  0  0  0  0  0
    0.4775  -12.2701    0.0000 C   0  0  0  0  0  0  0  0  0  0  0  0
    1.8478  -11.6600    0.0000 C   0  0  0  0  0  0  0  0  0  0  0  0
    2.0046  -10.1682    0.0000 C   0  0  0  0  0  0  0  0  0  0  0  0
    3.3037   -9.4182    0.0000 C   0  0  0  0  0  0  0  0  0  0  0  0
    2.9918   -7.9510    0.0000 C   0  0  0  0  0  0  0  0  0  0  0  0
    1.5000   -7.7942    0.0000 C   0  0  0  0  0  0  0  0  0  0  0  0
    0.7500   -6.4952    0.0000 C   0  0  0  0  0  0  0  0  0  0  0  0
    1.5000   -5.1962    0.0000 N   0  0  0  0  0  0  0  0  0  0  0  0
    0.7500   -3.8971    0.0000 C   0  0  0  0  0  0  0  0  0  0  0  0
    1.5000   -2.5981    0.0000 C   0  0  0  0  0  0  0  0  0  0  0  0
    0.7500   -1.2990    0.0000 C   0  0  0  0  0  0  0  0  0  0  0  0
    1.5000    0.0000    0.0000 C   0  0  0  0  0  0  0  0  0  0  0  0
    0.7500    1.2990    0.0000 C   0  0  0  0  0  0  0  0  0  0  0  0
   -0.7500    1.2990    0.0000 C   0  0  0  0  0  0  0  0  0  0  0  0
   -1.5000    0.0000    0.0000 C   0  0  0  0  0  0  0  0  0  0  0  0
   -0.7500   -1.2990    0.0000 C   0  0  0  0  0  0  0  0  0  0  0  0
   -1.5000   -2.5981    0.0000 C   0  0  0  0  0  0  0  0  0  0  0  0
   -0.7500   -3.8971    0.0000 C   0  0  0  0  0  0  0  0  0  0  0  0
   -1.5000   -5.1962    0.0000 N   0  0  0  0  0  0  0  0  0  0  0  0
   -0.7500   -6.4952    0.0000 C   0  0  0  0  0  0  0  0  0  0  0  0
   -1.5000   -7.7942    0.0000 C   0  0  0  0  0  0  0  0  0  0  0  0
   -0.8899   -9.1645    0.0000 C   0  0  0  0  0  0  0  0  0  0  0  0
   -2.0046  -10.1682    0.0000 C   0  0  0  0  0  0  0  0  0  0  0  0
   -3.3037   -9.4182    0.0000 C   0  0  0  0  0  0  0  0  0  0  0  0
   -4.6740  -10.0283    0.0000 C   0  0  0  0  0  0  0  0  0  0  0  0
   -5.8875   -9.1467    0.0000 C   0  0  0  0  0  0  0  0  0  0  0  0
   -7.2578   -9.7568    0.0000 C   0  0  0  0  0  0  0  0  0  0  0  0
   -8.4713   -8.8751    0.0000 C   0  0  0  0  0  0  0  0  0  0  0  0
   -8.3145   -7.3833    0.0000 O   0  0  0  0  0  0  0  0  0  0  0  0
   -9.8417   -9.4852    0.0000 O   0  0  0  0  0  0  0  0  0  0  0  0
  -11.0552   -8.6035    0.0000 C   0  0  0  0  0  0  0  0  0  0  0  0
   -2.9918   -7.9510    0.0000 S   0  0  0  0  0  0  0  0  0  0  0  0
    0.8899   -9.1645    0.0000 S   0  0  0  0  0  0  0  0  0  0  0  0
  1  2  1  0
  2  3  1  0
  3  4  2  0
  3  5  1  0
  5  6  1  0
  6  7  1  0
  7  8  1  0
  8  9  2  0
  9 10  1  0
 10 11  2  0
 11 12  1  0
 12 13  2  0
 13 14  1  0
 14 15  2  0
 15 16  1  0
 16 17  2  0
 17 18  1  0
 18 19  2  0
 19 20  1  0
 20 21  2  0
 21 22  1  0
 22 23  2  0
 23 24  1  0
 24 25  2  0
 25 26  1  0
 26 27  2  0
 27 28  1  0
 28 29  2  0
 29 30  1  0
 30 31  1  0
 31 32  1  0
 32 33  1  0
 33 34  2  0
 33 35  1  0
 35 36  1  0
 29 37  1  0
 11 38  1  0
 38  8  1  0
 25 12  1  0
 37 26  1  0
 23 14  1  0
 21 16  1  0
M  END
>  <Compound_ID>  (666) 
CHEMBL189104

>  <Molecule Name>  (666) 
nan

>  <Molecular Weight>  (666) 
544.70

>  <AlogP>  (666) 
7.23

>  <Smiles>  (666) 
COC(=O)CCCc1ccc(-c2nc3cc4ccccc4cc3nc2-c2ccc(CCCC(=O)OC)s2)s1

>  <Standard Type>  (666) 
Inhibition

>  <Standard Relation>  (666) 
'='

>  <Standard Units>  (666) 
%

>  <Standard Value>  (666) 
12.0

>  <Assay ChEMBL ID>  (666) 
CHEMBL835467

>  <Assay Description>  (666) 
In vitro percent inhibition of Met proto-oncogene tyrosine kinase at 10 uM concentration of compound dissolved in 100% DMSO using 5''-[gamma-33P]-triphosphate

>  <BAO Format ID>  (666) 
BAO_0000357

>  <BAO Label>  (666) 
single protein format

>  <Assay Organism>  (666) 
None

>  <Target ChEMBL ID>  (666) 
CHEMBL3717

>  <Target Name>  (666) 
Hepatocyte growth factor receptor

>  <Target Organism>  (666) 
Homo sapiens

>  <Target Type>  (666) 
SINGLE PROTEIN

>  <Document ChEMBL ID>  (666) 
CHEMBL1140238

>  <Source Description>  (666) 
Scientific Literature

>  <Document Journal>  (666) 
Bioorg Med Chem Lett

>  <Document Year>  (666) 
2005.0

>  <Active>  (666) 
0.0

$$$$

     RDKit          2D

 27 29  0  0  0  0  0  0  0  0999 V2000
    1.5000   -5.1962    0.0000 C   0  0  0  0  0  0  0  0  0  0  0  0
    0.7500   -3.8971    0.0000 N   0  0  0  0  0  0  0  0  0  0  0  0
    1.5000   -2.5981    0.0000 C   0  0  0  0  0  0  0  0  0  0  0  0
    3.0000   -2.5981    0.0000 C   0  0  0  0  0  0  0  0  0  0  0  0
    3.7500   -1.2990    0.0000 C   0  0  0  0  0  0  0  0  0  0  0  0
    3.0000   -0.0000    0.0000 F   0  0  0  0  0  0  0  0  0  0  0  0
    5.2500   -1.2990    0.0000 C   0  0  0  0  0  0  0  0  0  0  0  0
    6.0000   -2.5981    0.0000 C   0  0  0  0  0  0  0  0  0  0  0  0
    5.2500   -3.8971    0.0000 C   0  0  0  0  0  0  0  0  0  0  0  0
    6.0000   -5.1962    0.0000 Cl  0  0  0  0  0  0  0  0  0  0  0  0
    3.7500   -3.8971    0.0000 C   0  0  0  0  0  0  0  0  0  0  0  0
    3.0000   -5.1962    0.0000 Cl  0  0  0  0  0  0  0  0  0  0  0  0
   -0.7500   -3.8971    0.0000 C   0  0  0  0  0  0  0  0  0  0  0  0
   -1.5000   -2.5981    0.0000 O   0  0  0  0  0  0  0  0  0  0  0  0
   -1.5000   -5.1962    0.0000 C   0  0  0  0  0  0  0  0  0  0  0  0
   -3.0000   -5.1962    0.0000 C   0  0  0  0  0  0  0  0  0  0  0  0
   -3.7500   -6.4952    0.0000 C   0  0  0  0  0  0  0  0  0  0  0  0
   -5.2500   -6.4952    0.0000 C   0  0  0  0  0  0  0  0  0  0  0  0
   -6.1317   -7.7087    0.0000 C   0  0  0  0  0  0  0  0  0  0  0  0
   -7.5583   -7.2452    0.0000 N   0  0  0  0  0  0  0  0  0  0  0  0
   -7.5583   -5.7452    0.0000 N   0  0  0  0  0  0  0  0  0  0  0  0
   -8.7718   -4.8635    0.0000 C   0  0  0  0  0  0  0  0  0  0  0  0
   -6.1317   -5.2817    0.0000 C   0  0  0  0  0  0  0  0  0  0  0  0
   -3.0000   -7.7942    0.0000 C   0  0  0  0  0  0  0  0  0  0  0  0
   -1.5000   -7.7942    0.0000 N   0  0  0  0  0  0  0  0  0  0  0  0
   -0.7500   -6.4952    0.0000 C   0  0  0  0  0  0  0  0  0  0  0  0
    0.7500   -6.4952    0.0000 N   0  0  0  0  0  0  0  0  0  0  0  0
  1  2  1  0
  2  3  1  0
  3  4  1  0
  4  5  2  0
  5  6  1  0
  5  7  1  0
  7  8  2  0
  8  9  1  0
  9 10  1  0
  9 11  2  0
 11 12  1  0
  2 13  1  0
 13 14  2  0
 13 15  1  0
 15 16  2  0
 16 17  1  0
 17 18  1  0
 18 19  1  0
 19 20  2  0
 20 21  1  0
 21 22  1  0
 21 23  1  0
 17 24  2  0
 24 25  1  0
 25 26  2  0
 26 27  1  0
 11  4  1  0
 26 15  1  0
 23 18  2  0
M  END
>  <Compound_ID>  (667) 
CHEMBL2071447

>  <Molecule Name>  (667) 
nan

>  <Molecular Weight>  (667) 
408.26

>  <AlogP>  (667) 
3.78

>  <Smiles>  (667) 
CN(Cc1c(F)ccc(Cl)c1Cl)C(=O)c1cc(-c2cnn(C)c2)cnc1N

>  <Standard Type>  (667) 
Inhibition

>  <Standard Relation>  (667) 
'='

>  <Standard Units>  (667) 
%

>  <Standard Value>  (667) 
13.1

>  <Assay ChEMBL ID>  (667) 
CHEMBL2072591

>  <Assay Description>  (667) 
Inhibition of c-Met at 1 uM incubated for 60 mins by spectrophotometry

>  <BAO Format ID>  (667) 
BAO_0000357

>  <BAO Label>  (667) 
single protein format

>  <Assay Organism>  (667) 
Homo sapiens

>  <Target ChEMBL ID>  (667) 
CHEMBL3717

>  <Target Name>  (667) 
Hepatocyte growth factor receptor

>  <Target Organism>  (667) 
Homo sapiens

>  <Target Type>  (667) 
SINGLE PROTEIN

>  <Document ChEMBL ID>  (667) 
CHEMBL2069216

>  <Source Description>  (667) 
Scientific Literature

>  <Document Journal>  (667) 
Bioorg Med Chem

>  <Document Year>  (667) 
2012.0

>  <Active>  (667) 
0.0

$$$$

     RDKit          2D

 21 22  0  0  0  0  0  0  0  0999 V2000
   -0.7500   -3.8971    0.0000 O   0  0  0  0  0  0  0  0  0  0  0  0
    0.7500   -3.8971    0.0000 C   0  0  0  0  0  0  0  0  0  0  0  0
    1.5000   -2.5981    0.0000 C   0  0  0  0  0  0  0  0  0  0  0  0
    0.7500   -1.2990    0.0000 C   0  0  0  0  0  0  0  0  0  0  0  0
    1.5000    0.0000    0.0000 C   0  0  0  0  0  0  0  0  0  0  0  0
    0.7500    1.2990    0.0000 C   0  0  0  0  0  0  0  0  0  0  0  0
   -0.7500    1.2990    0.0000 C   0  0  0  0  0  0  0  0  0  0  0  0
   -1.5000    2.5981    0.0000 O   0  0  0  0  0  0  0  0  0  0  0  0
   -1.5000    0.0000    0.0000 C   0  0  0  0  0  0  0  0  0  0  0  0
   -3.0000    0.0000    0.0000 O   0  0  0  0  0  0  0  0  0  0  0  0
   -0.7500   -1.2990    0.0000 C   0  0  0  0  0  0  0  0  0  0  0  0
    1.5000   -5.1962    0.0000 O   0  0  0  0  0  0  0  0  0  0  0  0
    0.7500   -6.4952    0.0000 C   0  0  0  0  0  0  0  0  0  0  0  0
    1.5000   -7.7942    0.0000 C   0  0  0  0  0  0  0  0  0  0  0  0
    0.7500   -9.0933    0.0000 C   0  0  0  0  0  0  0  0  0  0  0  0
   -0.7500   -9.0933    0.0000 C   0  0  0  0  0  0  0  0  0  0  0  0
   -1.5000  -10.3923    0.0000 C   0  0  0  0  0  0  0  0  0  0  0  0
   -0.7500  -11.6913    0.0000 C   0  0  0  0  0  0  0  0  0  0  0  0
   -1.5000  -12.9904    0.0000 O   0  0  0  0  0  0  0  0  0  0  0  0
    0.7500  -11.6913    0.0000 C   0  0  0  0  0  0  0  0  0  0  0  0
    1.5000  -10.3923    0.0000 C   0  0  0  0  0  0  0  0  0  0  0  0
  1  2  2  0
  2  3  1  0
  3  4  1  0
  4  5  2  0
  5  6  1  0
  6  7  2  0
  7  8  1  0
  7  9  1  0
  9 10  1  0
  9 11  2  0
  2 12  1  0
 12 13  1  0
 13 14  1  0
 14 15  1  0
 15 16  2  0
 16 17  1  0
 17 18  2  0
 18 19  1  0
 18 20  1  0
 20 21  2  0
 11  4  1  0
 21 15  1  0
M  END
>  <Compound_ID>  (668) 
CHEMBL2348315

>  <Molecule Name>  (668) 
nan

>  <Molecular Weight>  (668) 
288.30

>  <AlogP>  (668) 
2.13

>  <Smiles>  (668) 
O=C(Cc1ccc(O)c(O)c1)OCCc1ccc(O)cc1

>  <Standard Type>  (668) 
Inhibition

>  <Standard Relation>  (668) 
'='

>  <Standard Units>  (668) 
%

>  <Standard Value>  (668) 
0.0

>  <Assay ChEMBL ID>  (668) 
CHEMBL2350425

>  <Assay Description>  (668) 
Inhibition of c-MET phosphorylation (unknown origin) at 25 uM after 1 hr by Z'-LYTE kinase assay

>  <BAO Format ID>  (668) 
BAO_0000357

>  <BAO Label>  (668) 
single protein format

>  <Assay Organism>  (668) 
Homo sapiens

>  <Target ChEMBL ID>  (668) 
CHEMBL3717

>  <Target Name>  (668) 
Hepatocyte growth factor receptor

>  <Target Organism>  (668) 
Homo sapiens

>  <Target Type>  (668) 
SINGLE PROTEIN

>  <Document ChEMBL ID>  (668) 
CHEMBL2346504

>  <Source Description>  (668) 
Scientific Literature

>  <Document Journal>  (668) 
Bioorg Med Chem

>  <Document Year>  (668) 
2013.0

>  <Active>  (668) 
0.0

$$$$

     RDKit          2D

 25 28  0  0  0  0  0  0  0  0999 V2000
    1.8478   -6.4639    0.0000 C   0  0  0  0  0  0  0  0  0  0  0  0
    2.0046   -4.9721    0.0000 C   0  0  0  0  0  0  0  0  0  0  0  0
    3.3037   -4.2221    0.0000 N   0  0  0  0  0  0  0  0  0  0  0  0
    2.9918   -2.7549    0.0000 N   0  0  0  0  0  0  0  0  0  0  0  0
    1.5000   -2.5981    0.0000 C   0  0  0  0  0  0  0  0  0  0  0  0
    0.7500   -1.2990    0.0000 C   0  0  0  0  0  0  0  0  0  0  0  0
    1.5000    0.0000    0.0000 C   0  0  0  0  0  0  0  0  0  0  0  0
    0.7500    1.2990    0.0000 C   0  0  0  0  0  0  0  0  0  0  0  0
   -0.7500    1.2990    0.0000 C   0  0  0  0  0  0  0  0  0  0  0  0
   -1.5000    0.0000    0.0000 C   0  0  0  0  0  0  0  0  0  0  0  0
   -3.0000    0.0000    0.0000 C   0  0  0  0  0  0  0  0  0  0  0  0
   -3.7500    1.2990    0.0000 C   0  0  0  0  0  0  0  0  0  0  0  0
   -5.2500    1.2990    0.0000 C   0  0  0  0  0  0  0  0  0  0  0  0
   -6.0000    0.0000    0.0000 C   0  0  0  0  0  0  0  0  0  0  0  0
   -7.5000    0.0000    0.0000 C   0  0  0  0  0  0  0  0  0  0  0  0
   -8.2500   -1.2990    0.0000 O   0  0  0  0  0  0  0  0  0  0  0  0
   -8.2500    1.2990    0.0000 N   0  0  0  0  0  0  0  0  0  0  0  0
   -9.7500    1.2990    0.0000 C   0  0  0  0  0  0  0  0  0  0  0  0
  -10.5000    2.5981    0.0000 C   0  0  0  0  0  0  0  0  0  0  0  0
  -11.7990    3.3481    0.0000 C   0  0  0  0  0  0  0  0  0  0  0  0
  -10.5000    4.0981    0.0000 C   0  0  0  0  0  0  0  0  0  0  0  0
   -5.2500   -1.2990    0.0000 C   0  0  0  0  0  0  0  0  0  0  0  0
   -3.7500   -1.2990    0.0000 C   0  0  0  0  0  0  0  0  0  0  0  0
   -0.7500   -1.2990    0.0000 C   0  0  0  0  0  0  0  0  0  0  0  0
    0.8899   -3.9684    0.0000 O   0  0  0  0  0  0  0  0  0  0  0  0
  1  2  1  0
  2  3  2  0
  3  4  1  0
  4  5  2  0
  5  6  1  0
  6  7  2  0
  7  8  1  0
  8  9  2  0
  9 10  1  0
 10 11  1  0
 11 12  2  0
 12 13  1  0
 13 14  2  0
 14 15  1  0
 15 16  2  0
 15 17  1  0
 17 18  1  0
 18 19  1  0
 19 20  1  0
 20 21  1  0
 14 22  1  0
 22 23  2  0
 10 24  2  0
  5 25  1  0
 25  2  1  0
 24  6  1  0
 23 11  1  0
 21 19  1  0
M  END
>  <Compound_ID>  (669) 
CHEMBL257113

>  <Molecule Name>  (669) 
GW734508X

>  <Molecular Weight>  (669) 
333.39

>  <AlogP>  (669) 
3.85

>  <Smiles>  (669) 
Cc1nnc(-c2cccc(-c3ccc(C(=O)NCC4CC4)cc3)c2)o1

>  <Standard Type>  (669) 
Inhibition

>  <Standard Relation>  (669) 
'='

>  <Standard Units>  (669) 
%

>  <Standard Value>  (669) 
7.87

>  <Assay ChEMBL ID>  (669) 
CHEMBL1962143

>  <Assay Description>  (669) 
GSK_PKIS: MET mean inhibition at 1 uM [Nanosyn]

>  <BAO Format ID>  (669) 
BAO_0000357

>  <BAO Label>  (669) 
single protein format

>  <Assay Organism>  (669) 
None

>  <Target ChEMBL ID>  (669) 
CHEMBL3717

>  <Target Name>  (669) 
Hepatocyte growth factor receptor

>  <Target Organism>  (669) 
Homo sapiens

>  <Target Type>  (669) 
SINGLE PROTEIN

>  <Document ChEMBL ID>  (669) 
CHEMBL1961873

>  <Source Description>  (669) 
GSK Published Kinase Inhibitor Set

>  <Document Journal>  (669) 
nan

>  <Document Year>  (669) 
nan

>  <Active>  (669) 
0.0

$$$$

     RDKit          2D

 44 48  0  0  0  0  0  0  0  0999 V2000
    3.7500   -1.2990    0.0000 C   0  0  0  0  0  0  0  0  0  0  0  0
    3.0000    0.0000    0.0000 O   0  0  0  0  0  0  0  0  0  0  0  0
    1.5000    0.0000    0.0000 C   0  0  0  0  0  0  0  0  0  0  0  0
    0.7500   -1.2990    0.0000 C   0  0  0  0  0  0  0  0  0  0  0  0
   -0.7500   -1.2990    0.0000 C   0  0  0  0  0  0  0  0  0  0  0  0
   -1.5000   -2.5981    0.0000 Cl  0  0  0  0  0  0  0  0  0  0  0  0
   -1.5000    0.0000    0.0000 C   0  0  0  0  0  0  0  0  0  0  0  0
   -0.7500    1.2990    0.0000 C   0  0  0  0  0  0  0  0  0  0  0  0
   -1.5000    2.5981    0.0000 C   0  0  0  0  0  0  0  0  0  0  0  0
   -2.9918    2.7549    0.0000 N   0  0  0  0  0  0  0  0  0  0  0  0
   -3.3037    4.2221    0.0000 N   0  0  0  0  0  0  0  0  0  0  0  0
   -4.6740    4.8322    0.0000 C   0  0  0  0  0  0  0  0  0  0  0  0
   -4.8308    6.3240    0.0000 C   0  0  0  0  0  0  0  0  0  0  0  0
   -6.2011    6.9341    0.0000 C   0  0  0  0  0  0  0  0  0  0  0  0
   -7.4146    6.0524    0.0000 C   0  0  0  0  0  0  0  0  0  0  0  0
   -7.2578    4.5606    0.0000 C   0  0  0  0  0  0  0  0  0  0  0  0
   -8.4713    3.6789    0.0000 N   0  0  0  0  0  0  0  0  0  0  0  0
   -9.8417    4.2890    0.0000 C   0  0  0  0  0  0  0  0  0  0  0  0
   -9.9984    5.7808    0.0000 O   0  0  0  0  0  0  0  0  0  0  0  0
  -11.0552    3.4074    0.0000 N   0  0  0  0  0  0  0  0  0  0  0  0
  -12.4255    4.0175    0.0000 C   0  0  0  0  0  0  0  0  0  0  0  0
  -12.5823    5.5093    0.0000 C   0  0  0  0  0  0  0  0  0  0  0  0
  -13.9526    6.1194    0.0000 C   0  0  0  0  0  0  0  0  0  0  0  0
  -14.1094    7.6111    0.0000 C   0  0  0  0  0  0  0  0  0  0  0  0
  -14.2662    9.1029    0.0000 F   0  0  0  0  0  0  0  0  0  0  0  0
  -12.6176    7.7679    0.0000 F   0  0  0  0  0  0  0  0  0  0  0  0
  -15.6012    7.4544    0.0000 F   0  0  0  0  0  0  0  0  0  0  0  0
  -15.1661    5.2377    0.0000 C   0  0  0  0  0  0  0  0  0  0  0  0
  -15.0093    3.7459    0.0000 C   0  0  0  0  0  0  0  0  0  0  0  0
  -16.2229    2.8642    0.0000 C   0  0  0  0  0  0  0  0  0  0  0  0
  -17.4364    1.9825    0.0000 F   0  0  0  0  0  0  0  0  0  0  0  0
  -17.1045    4.0778    0.0000 F   0  0  0  0  0  0  0  0  0  0  0  0
  -15.3412    1.6507    0.0000 F   0  0  0  0  0  0  0  0  0  0  0  0
  -13.6390    3.1358    0.0000 C   0  0  0  0  0  0  0  0  0  0  0  0
   -5.8875    3.9505    0.0000 C   0  0  0  0  0  0  0  0  0  0  0  0
   -2.0046    4.9721    0.0000 C   0  0  0  0  0  0  0  0  0  0  0  0
   -0.8899    3.9684    0.0000 C   0  0  0  0  0  0  0  0  0  0  0  0
    0.5773    4.2803    0.0000 C   0  0  0  0  0  0  0  0  0  0  0  0
    1.5810    3.1655    0.0000 C   0  0  0  0  0  0  0  0  0  0  0  0
    3.0482    3.4774    0.0000 C   0  0  0  0  0  0  0  0  0  0  0  0
    3.5118    4.9040    0.0000 N   0  0  0  0  0  0  0  0  0  0  0  0
    2.5081    6.0187    0.0000 C   0  0  0  0  0  0  0  0  0  0  0  0
    1.0409    5.7068    0.0000 C   0  0  0  0  0  0  0  0  0  0  0  0
    0.7500    1.2990    0.0000 C   0  0  0  0  0  0  0  0  0  0  0  0
  1  2  1  0
  2  3  1  0
  3  4  2  0
  4  5  1  0
  5  6  1  0
  5  7  2  0
  7  8  1  0
  8  9  1  0
  9 10  2  0
 10 11  1  0
 11 12  1  0
 12 13  2  0
 13 14  1  0
 14 15  2  0
 15 16  1  0
 16 17  1  0
 17 18  1  0
 18 19  2  0
 18 20  1  0
 20 21  1  0
 21 22  2  0
 22 23  1  0
 23 24  1  0
 24 25  1  0
 24 26  1  0
 24 27  1  0
 23 28  2  0
 28 29  1  0
 29 30  1  0
 30 31  1  0
 30 32  1  0
 30 33  1  0
 29 34  2  0
 16 35  2  0
 11 36  1  0
 36 37  2  0
 37 38  1  0
 38 39  2  0
 39 40  1  0
 40 41  2  0
 41 42  1  0
 42 43  2  0
  8 44  2  0
 44  3  1  0
 37  9  1  0
 43 38  1  0
 35 12  1  0
 34 21  1  0
M  END
>  <Compound_ID>  (670) 
CHEMBL4436746

>  <Molecule Name>  (670) 
nan

>  <Molecular Weight>  (670) 
631.96

>  <AlogP>  (670) 
8.94

>  <Smiles>  (670) 
COc1cc(Cl)cc(-c2nn(-c3cccc(NC(=O)Nc4cc(C(F)(F)F)cc(C(F)(F)F)c4)c3)cc2-c2ccncc2)c1

>  <Standard Type>  (670) 
Inhibition

>  <Standard Relation>  (670) 
'='

>  <Standard Units>  (670) 
%

>  <Standard Value>  (670) 
5.66

>  <Assay ChEMBL ID>  (670) 
CHEMBL4309581

>  <Assay Description>  (670) 
Inhibition of human c-MET at 10 uM using KKKSPGEYVNIEFG as substrate after 40 mins in presence of [gamma33P]ATP by scintillation counting method relative to control

>  <BAO Format ID>  (670) 
BAO_0000357

>  <BAO Label>  (670) 
single protein format

>  <Assay Organism>  (670) 
Homo sapiens

>  <Target ChEMBL ID>  (670) 
CHEMBL3717

>  <Target Name>  (670) 
Hepatocyte growth factor receptor

>  <Target Organism>  (670) 
Homo sapiens

>  <Target Type>  (670) 
SINGLE PROTEIN

>  <Document ChEMBL ID>  (670) 
CHEMBL4308841

>  <Source Description>  (670) 
Scientific Literature

>  <Document Journal>  (670) 
Eur J Med Chem

>  <Document Year>  (670) 
2018.0

>  <Active>  (670) 
0.0

$$$$

     RDKit          2D

 30 33  0  0  0  0  0  0  0  0999 V2000
  -12.3122    3.9144    0.0000 C   0  0  0  0  0  0  0  0  0  0  0  0
  -11.1975    2.9107    0.0000 C   0  0  0  0  0  0  0  0  0  0  0  0
   -9.7709    3.3742    0.0000 C   0  0  0  0  0  0  0  0  0  0  0  0
   -9.4590    4.8414    0.0000 O   0  0  0  0  0  0  0  0  0  0  0  0
   -8.6562    2.3705    0.0000 N   0  0  0  0  0  0  0  0  0  0  0  0
   -7.2296    2.8340    0.0000 C   0  0  0  0  0  0  0  0  0  0  0  0
   -6.9177    4.3013    0.0000 C   0  0  0  0  0  0  0  0  0  0  0  0
   -5.4912    4.7648    0.0000 C   0  0  0  0  0  0  0  0  0  0  0  0
   -4.3764    3.7611    0.0000 C   0  0  0  0  0  0  0  0  0  0  0  0
   -4.6883    2.2939    0.0000 C   0  0  0  0  0  0  0  0  0  0  0  0
   -3.5736    1.2902    0.0000 O   0  0  0  0  0  0  0  0  0  0  0  0
   -2.1470    1.7537    0.0000 C   0  0  0  0  0  0  0  0  0  0  0  0
   -1.8351    3.2209    0.0000 N   0  0  0  0  0  0  0  0  0  0  0  0
   -0.4086    3.6844    0.0000 C   0  0  0  0  0  0  0  0  0  0  0  0
   -0.0967    5.1517    0.0000 N   0  0  0  0  0  0  0  0  0  0  0  0
    1.3299    5.6152    0.0000 C   0  0  0  0  0  0  0  0  0  0  0  0
    2.4446    4.6115    0.0000 C   0  0  0  0  0  0  0  0  0  0  0  0
    3.8712    5.0750    0.0000 C   0  0  0  0  0  0  0  0  0  0  0  0
    4.1831    6.5422    0.0000 C   0  0  0  0  0  0  0  0  0  0  0  0
    3.0684    7.5459    0.0000 C   0  0  0  0  0  0  0  0  0  0  0  0
    3.3802    9.0132    0.0000 O   0  0  0  0  0  0  0  0  0  0  0  0
    4.8068    9.4767    0.0000 C   0  0  0  0  0  0  0  0  0  0  0  0
    1.6418    7.0824    0.0000 C   0  0  0  0  0  0  0  0  0  0  0  0
    0.7062    2.6807    0.0000 N   0  0  0  0  0  0  0  0  0  0  0  0
    0.3943    1.2135    0.0000 C   0  0  0  0  0  0  0  0  0  0  0  0
    1.2760    0.0000    0.0000 C   0  0  0  0  0  0  0  0  0  0  0  0
    0.3943   -1.2135    0.0000 C   0  0  0  0  0  0  0  0  0  0  0  0
   -1.0323   -0.7500    0.0000 S   0  0  0  0  0  0  0  0  0  0  0  0
   -1.0323    0.7500    0.0000 C   0  0  0  0  0  0  0  0  0  0  0  0
   -6.1149    1.8303    0.0000 C   0  0  0  0  0  0  0  0  0  0  0  0
  1  2  2  0
  2  3  1  0
  3  4  2  0
  3  5  1  0
  5  6  1  0
  6  7  2  0
  7  8  1  0
  8  9  2  0
  9 10  1  0
 10 11  1  0
 11 12  1  0
 12 13  2  0
 13 14  1  0
 14 15  1  0
 15 16  1  0
 16 17  2  0
 17 18  1  0
 18 19  2  0
 19 20  1  0
 20 21  1  0
 21 22  1  0
 20 23  2  0
 14 24  2  0
 24 25  1  0
 25 26  1  0
 26 27  2  0
 27 28  1  0
 28 29  1  0
 10 30  2  0
 30  6  1  0
 29 12  1  0
 23 16  1  0
 29 25  2  0
M  END
>  <Compound_ID>  (671) 
CHEMBL4787616

>  <Molecule Name>  (671) 
nan

>  <Molecular Weight>  (671) 
418.48

>  <AlogP>  (671) 
5.36

>  <Smiles>  (671) 
C=CC(=O)Nc1cccc(Oc2nc(Nc3cccc(OC)c3)nc3ccsc23)c1

>  <Standard Type>  (671) 
Inhibition

>  <Standard Relation>  (671) 
'='

>  <Standard Units>  (671) 
%

>  <Standard Value>  (671) 
0.5

>  <Assay ChEMBL ID>  (671) 
CHEMBL4708509

>  <Assay Description>  (671) 
Inhibition of c-MET (unknown origin) using FAM-labelled peptide as substrate at 1 uM incubated for 10 mins in presence of ATP measured by mobility shift assay

>  <BAO Format ID>  (671) 
BAO_0000357

>  <BAO Label>  (671) 
single protein format

>  <Assay Organism>  (671) 
Homo sapiens

>  <Target ChEMBL ID>  (671) 
CHEMBL3717

>  <Target Name>  (671) 
Hepatocyte growth factor receptor

>  <Target Organism>  (671) 
Homo sapiens

>  <Target Type>  (671) 
SINGLE PROTEIN

>  <Document ChEMBL ID>  (671) 
CHEMBL4706512

>  <Source Description>  (671) 
Scientific Literature

>  <Document Journal>  (671) 
Eur J Med Chem

>  <Document Year>  (671) 
2020.0

>  <Active>  (671) 
0.0

$$$$

     RDKit          2D

 35 39  0  0  0  0  0  0  0  0999 V2000
   -3.0000   -2.5981    0.0000 C   0  0  0  0  0  0  0  0  0  0  0  0
   -1.5000   -2.5981    0.0000 N   0  0  0  0  0  0  0  0  0  0  0  0
   -0.7500   -3.8971    0.0000 C   0  0  0  0  0  0  0  0  0  0  0  0
   -1.5000   -5.1962    0.0000 O   0  0  0  0  0  0  0  0  0  0  0  0
    0.7500   -3.8971    0.0000 C   0  0  0  0  0  0  0  0  0  0  0  0
    1.5000   -5.1962    0.0000 O   0  0  0  0  0  0  0  0  0  0  0  0
    0.7500   -6.4952    0.0000 C   0  0  0  0  0  0  0  0  0  0  0  0
   -0.7500   -6.4952    0.0000 C   0  0  0  0  0  0  0  0  0  0  0  0
   -1.5000   -7.7942    0.0000 C   0  0  0  0  0  0  0  0  0  0  0  0
   -0.7500   -9.0933    0.0000 C   0  0  0  0  0  0  0  0  0  0  0  0
   -1.5000  -10.3923    0.0000 F   0  0  0  0  0  0  0  0  0  0  0  0
    0.7500   -9.0933    0.0000 C   0  0  0  0  0  0  0  0  0  0  0  0
    1.5000   -7.7942    0.0000 C   0  0  0  0  0  0  0  0  0  0  0  0
    3.0000   -7.7942    0.0000 F   0  0  0  0  0  0  0  0  0  0  0  0
    1.5000   -2.5981    0.0000 C   0  0  0  0  0  0  0  0  0  0  0  0
    0.7500   -1.2990    0.0000 C   0  0  0  0  0  0  0  0  0  0  0  0
    1.5000    0.0000    0.0000 C   0  0  0  0  0  0  0  0  0  0  0  0
    0.7500    1.2990    0.0000 N   0  0  0  0  0  0  0  0  0  0  0  0
   -0.7500    1.2990    0.0000 C   0  0  0  0  0  0  0  0  0  0  0  0
   -1.5000    2.5981    0.0000 N   0  0  0  0  0  0  0  0  0  0  0  0
   -0.7500    3.8971    0.0000 C   0  0  0  0  0  0  0  0  0  0  0  0
    0.7500    3.8971    0.0000 C   0  0  0  0  0  0  0  0  0  0  0  0
    1.5000    5.1962    0.0000 C   0  0  0  0  0  0  0  0  0  0  0  0
    0.7500    6.4952    0.0000 C   0  0  0  0  0  0  0  0  0  0  0  0
    1.5000    7.7942    0.0000 N   0  0  0  0  0  0  0  0  0  0  0  0
    3.0000    7.7942    0.0000 C   0  0  0  0  0  0  0  0  0  0  0  0
    3.7500    9.0933    0.0000 C   0  0  0  0  0  0  0  0  0  0  0  0
    3.0000   10.3923    0.0000 C   0  0  0  0  0  0  0  0  0  0  0  0
    3.7500   11.6913    0.0000 O   0  0  0  0  0  0  0  0  0  0  0  0
    1.5000   10.3923    0.0000 C   0  0  0  0  0  0  0  0  0  0  0  0
    0.7500    9.0933    0.0000 C   0  0  0  0  0  0  0  0  0  0  0  0
   -0.7500    6.4952    0.0000 C   0  0  0  0  0  0  0  0  0  0  0  0
   -1.5000    5.1962    0.0000 C   0  0  0  0  0  0  0  0  0  0  0  0
   -1.5000    0.0000    0.0000 N   0  0  0  0  0  0  0  0  0  0  0  0
   -0.7500   -1.2990    0.0000 C   0  0  0  0  0  0  0  0  0  0  0  0
  1  2  1  0
  2  3  1  0
  3  4  2  0
  3  5  1  0
  5  6  1  0
  6  7  1  0
  7  8  2  0
  8  9  1  0
  9 10  2  0
 10 11  1  0
 10 12  1  0
 12 13  2  0
 13 14  1  0
  5 15  2  0
 15 16  1  0
 16 17  2  0
 17 18  1  0
 18 19  2  0
 19 20  1  0
 20 21  1  0
 21 22  2  0
 22 23  1  0
 23 24  2  0
 24 25  1  0
 25 26  1  0
 26 27  1  0
 27 28  1  0
 28 29  1  0
 28 30  1  0
 30 31  1  0
 24 32  1  0
 32 33  2  0
 19 34  1  0
 34 35  2  0
 35  2  1  0
 13  7  1  0
 35 16  1  0
 33 21  1  0
 31 25  1  0
M  END
>  <Compound_ID>  (672) 
CHEMBL3746959

>  <Molecule Name>  (672) 
nan

>  <Molecular Weight>  (672) 
479.49

>  <AlogP>  (672) 
4.10

>  <Smiles>  (672) 
Cn1c(=O)c(Oc2ccc(F)cc2F)cc2cnc(Nc3ccc(N4CCC(O)CC4)cc3)nc21

>  <Standard Type>  (672) 
Inhibition

>  <Standard Relation>  (672) 
'='

>  <Standard Units>  (672) 
%

>  <Standard Value>  (672) 
11.0

>  <Assay ChEMBL ID>  (672) 
CHEMBL3750644

>  <Assay Description>  (672) 
Inhibition of cMET (unknown origin) at 10 uM

>  <BAO Format ID>  (672) 
BAO_0000357

>  <BAO Label>  (672) 
single protein format

>  <Assay Organism>  (672) 
Homo sapiens

>  <Target ChEMBL ID>  (672) 
CHEMBL3717

>  <Target Name>  (672) 
Hepatocyte growth factor receptor

>  <Target Organism>  (672) 
Homo sapiens

>  <Target Type>  (672) 
SINGLE PROTEIN

>  <Document ChEMBL ID>  (672) 
CHEMBL3745672

>  <Source Description>  (672) 
Scientific Literature

>  <Document Journal>  (672) 
Bioorg Med Chem Lett

>  <Document Year>  (672) 
2016.0

>  <Active>  (672) 
0.0

$$$$

     RDKit          2D

 38 40  0  0  0  0  0  0  0  0999 V2000
   24.0000  -15.5885    0.0000 C   0  0  0  0  0  0  0  0  0  0  0  0
   23.2500  -14.2894    0.0000 C   0  0  0  0  0  0  0  0  0  0  0  0
   21.7500  -14.2894    0.0000 C   0  0  0  0  0  0  0  0  0  0  0  0
   21.0000  -12.9904    0.0000 C   0  0  0  0  0  0  0  0  0  0  0  0
   19.5000  -12.9904    0.0000 C   0  0  0  0  0  0  0  0  0  0  0  0
   18.7500  -11.6913    0.0000 C   0  0  0  0  0  0  0  0  0  0  0  0
   17.2500  -11.6913    0.0000 C   0  0  0  0  0  0  0  0  0  0  0  0
   16.5000  -10.3923    0.0000 C   0  0  0  0  0  0  0  0  0  0  0  0
   15.0000  -10.3923    0.0000 C   0  0  0  0  0  0  0  0  0  0  0  0
   14.2500   -9.0933    0.0000 C   0  0  0  0  0  0  0  0  0  0  0  0
   12.7500   -9.0933    0.0000 C   0  0  0  0  0  0  0  0  0  0  0  0
   12.0000   -7.7942    0.0000 C   0  0  0  0  0  0  0  0  0  0  0  0
   10.5000   -7.7942    0.0000 C   0  0  0  0  0  0  0  0  0  0  0  0
    9.7500   -6.4952    0.0000 C   0  0  0  0  0  0  0  0  0  0  0  0
    8.2500   -6.4952    0.0000 C   0  0  0  0  0  0  0  0  0  0  0  0
    7.5000   -7.7942    0.0000 O   0  0  0  0  0  0  0  0  0  0  0  0
    7.5000   -5.1962    0.0000 N   0  0  0  0  0  0  0  0  0  0  0  0
    6.0000   -5.1962    0.0000 C   0  0  0  0  0  0  0  0  0  0  0  0
    5.2500   -6.4952    0.0000 C   0  0  0  0  0  0  0  0  0  0  0  0
    3.7500   -6.4952    0.0000 C   0  0  0  0  0  0  0  0  0  0  0  0
    3.0000   -5.1962    0.0000 N   0  0  0  0  0  0  0  0  0  0  0  0
    1.5000   -5.1962    0.0000 C   0  0  0  0  0  0  0  0  0  0  0  0
    0.7500   -6.4952    0.0000 O   0  0  0  0  0  0  0  0  0  0  0  0
    0.7500   -3.8971    0.0000 C   0  0  0  0  0  0  0  0  0  0  0  0
    1.5000   -2.5981    0.0000 S   0  0  0  0  0  0  0  0  0  0  0  0
    0.7500   -1.2990    0.0000 C   0  0  0  0  0  0  0  0  0  0  0  0
    1.5000    0.0000    0.0000 C   0  0  0  0  0  0  0  0  0  0  0  0
    0.7500    1.2990    0.0000 C   0  0  0  0  0  0  0  0  0  0  0  0
   -0.7500    1.2990    0.0000 C   0  0  0  0  0  0  0  0  0  0  0  0
   -1.5000    0.0000    0.0000 C   0  0  0  0  0  0  0  0  0  0  0  0
   -0.7500   -1.2990    0.0000 C   0  0  0  0  0  0  0  0  0  0  0  0
   -1.5000   -2.5981    0.0000 N   0  0  0  0  0  0  0  0  0  0  0  0
   -3.0000   -2.5981    0.0000 C   0  0  0  0  0  0  0  0  0  0  0  0
   -3.7500   -1.2990    0.0000 C   0  0  0  0  0  0  0  0  0  0  0  0
   -0.7500   -3.8971    0.0000 C   0  0  0  0  0  0  0  0  0  0  0  0
   -1.5000   -5.1962    0.0000 O   0  0  0  0  0  0  0  0  0  0  0  0
    3.7500   -3.8971    0.0000 C   0  0  0  0  0  0  0  0  0  0  0  0
    5.2500   -3.8971    0.0000 C   0  0  0  0  0  0  0  0  0  0  0  0
  1  2  1  0
  2  3  1  0
  3  4  1  0
  4  5  1  0
  5  6  1  0
  6  7  1  0
  7  8  1  0
  8  9  1  0
  9 10  1  0
 10 11  1  0
 11 12  1  0
 12 13  1  0
 13 14  1  0
 14 15  1  0
 15 16  2  0
 15 17  1  0
 17 18  1  0
 18 19  1  0
 19 20  1  0
 20 21  1  0
 21 22  1  0
 22 23  2  0
 22 24  1  0
 24 25  1  0
 25 26  1  0
 26 27  2  0
 27 28  1  0
 28 29  2  0
 29 30  1  0
 30 31  2  0
 31 32  1  0
 32 33  1  0
 33 34  1  0
 32 35  1  0
 35 36  2  0
 21 37  1  0
 37 38  1  0
 38 18  1  0
 35 24  1  0
 31 26  1  0
M  END
>  <Compound_ID>  (673) 
CHEMBL4081419

>  <Molecule Name>  (673) 
nan

>  <Molecular Weight>  (673) 
543.82

>  <AlogP>  (673) 
6.71

>  <Smiles>  (673) 
CCCCCCCCCCCCCCC(=O)NC1CCN(C(=O)C2Sc3ccccc3N(CC)C2=O)CC1

>  <Standard Type>  (673) 
Inhibition

>  <Standard Relation>  (673) 
'='

>  <Standard Units>  (673) 
%

>  <Standard Value>  (673) 
-4.8

>  <Assay ChEMBL ID>  (673) 
CHEMBL4054284

>  <Assay Description>  (673) 
Inhibition of c-Met (unknown origin) using poly (Glu, Tyr) 4:1 as substrate at 100 uM after 1 hr by ELISA relative to control

>  <BAO Format ID>  (673) 
BAO_0000357

>  <BAO Label>  (673) 
single protein format

>  <Assay Organism>  (673) 
Homo sapiens

>  <Target ChEMBL ID>  (673) 
CHEMBL3717

>  <Target Name>  (673) 
Hepatocyte growth factor receptor

>  <Target Organism>  (673) 
Homo sapiens

>  <Target Type>  (673) 
SINGLE PROTEIN

>  <Document ChEMBL ID>  (673) 
CHEMBL4052632

>  <Source Description>  (673) 
Scientific Literature

>  <Document Journal>  (673) 
Eur J Med Chem

>  <Document Year>  (673) 
2017.0

>  <Active>  (673) 
0.0

$$$$

     RDKit          2D

 27 31  0  0  0  0  0  0  0  0999 V2000
  -12.8202   -5.4998    0.0000 C   0  0  0  0  0  0  0  0  0  0  0  0
  -11.5211   -4.7498    0.0000 C   0  0  0  0  0  0  0  0  0  0  0  0
  -10.2221   -5.4998    0.0000 C   0  0  0  0  0  0  0  0  0  0  0  0
  -10.2221   -6.9998    0.0000 C   0  0  0  0  0  0  0  0  0  0  0  0
   -8.9231   -7.7498    0.0000 C   0  0  0  0  0  0  0  0  0  0  0  0
   -7.6240   -6.9998    0.0000 C   0  0  0  0  0  0  0  0  0  0  0  0
   -6.2537   -7.6099    0.0000 N   0  0  0  0  0  0  0  0  0  0  0  0
   -5.2500   -6.4952    0.0000 C   0  0  0  0  0  0  0  0  0  0  0  0
   -3.7500   -6.4952    0.0000 C   0  0  0  0  0  0  0  0  0  0  0  0
   -3.0000   -5.1962    0.0000 C   0  0  0  0  0  0  0  0  0  0  0  0
   -3.7500   -3.8971    0.0000 C   0  0  0  0  0  0  0  0  0  0  0  0
   -3.0000   -2.5981    0.0000 N   0  0  0  0  0  0  0  0  0  0  0  0
   -1.5000   -2.5981    0.0000 C   0  0  0  0  0  0  0  0  0  0  0  0
   -0.7500   -3.8971    0.0000 N   0  0  0  0  0  0  0  0  0  0  0  0
    0.7500   -3.8971    0.0000 C   0  0  0  0  0  0  0  0  0  0  0  0
    1.5000   -2.5981    0.0000 N   0  0  0  0  0  0  0  0  0  0  0  0
    0.7500   -1.2990    0.0000 C   0  0  0  0  0  0  0  0  0  0  0  0
    1.5000    0.0000    0.0000 C   0  0  0  0  0  0  0  0  0  0  0  0
    0.7500    1.2990    0.0000 C   0  0  0  0  0  0  0  0  0  0  0  0
   -0.7500    1.2990    0.0000 C   0  0  0  0  0  0  0  0  0  0  0  0
   -1.5000    0.0000    0.0000 C   0  0  0  0  0  0  0  0  0  0  0  0
   -0.7500   -1.2990    0.0000 C   0  0  0  0  0  0  0  0  0  0  0  0
   -5.2500   -3.8971    0.0000 C   0  0  0  0  0  0  0  0  0  0  0  0
   -6.0000   -5.1962    0.0000 C   0  0  0  0  0  0  0  0  0  0  0  0
   -7.4672   -5.5080    0.0000 N   0  0  0  0  0  0  0  0  0  0  0  0
  -11.5211   -7.7498    0.0000 C   0  0  0  0  0  0  0  0  0  0  0  0
  -12.8202   -6.9998    0.0000 C   0  0  0  0  0  0  0  0  0  0  0  0
  1  2  2  0
  2  3  1  0
  3  4  2  0
  4  5  1  0
  5  6  1  0
  6  7  2  0
  7  8  1  0
  8  9  2  0
  9 10  1  0
 10 11  2  0
 11 12  1  0
 12 13  1  0
 13 14  2  0
 14 15  1  0
 15 16  2  0
 16 17  1  0
 17 18  2  0
 18 19  1  0
 19 20  2  0
 20 21  1  0
 21 22  2  0
 11 23  1  0
 23 24  2  0
 24 25  1  0
  4 26  1  0
 26 27  2  0
 27  1  1  0
 25  6  1  0
 24  8  1  0
 22 13  1  0
 22 17  1  0
M  END
>  <Compound_ID>  (674) 
CHEMBL1909379

>  <Molecule Name>  (674) 
nan

>  <Molecular Weight>  (674) 
387.87

>  <AlogP>  (674) 
4.84

>  <Smiles>  (674) 
c1ccc(Cc2nc3ccc(Nc4ncnc5ccccc45)cc3[nH]2)cc1

>  <Standard Type>  (674) 
Inhibition

>  <Standard Relation>  (674) 
'='

>  <Standard Units>  (674) 
%

>  <Standard Value>  (674) 
7.9

>  <Assay ChEMBL ID>  (674) 
CHEMBL1962143

>  <Assay Description>  (674) 
GSK_PKIS: MET mean inhibition at 1 uM [Nanosyn]

>  <BAO Format ID>  (674) 
BAO_0000357

>  <BAO Label>  (674) 
single protein format

>  <Assay Organism>  (674) 
None

>  <Target ChEMBL ID>  (674) 
CHEMBL3717

>  <Target Name>  (674) 
Hepatocyte growth factor receptor

>  <Target Organism>  (674) 
Homo sapiens

>  <Target Type>  (674) 
SINGLE PROTEIN

>  <Document ChEMBL ID>  (674) 
CHEMBL1961873

>  <Source Description>  (674) 
GSK Published Kinase Inhibitor Set

>  <Document Journal>  (674) 
nan

>  <Document Year>  (674) 
nan

>  <Active>  (674) 
0.0

$$$$

     RDKit          2D

 34 38  0  0  0  0  0  0  0  0999 V2000
   -3.0000   -2.5981    0.0000 C   0  0  0  0  0  0  0  0  0  0  0  0
   -1.5000   -2.5981    0.0000 N   0  0  0  0  0  0  0  0  0  0  0  0
   -0.7500   -3.8971    0.0000 C   0  0  0  0  0  0  0  0  0  0  0  0
   -1.5000   -5.1962    0.0000 O   0  0  0  0  0  0  0  0  0  0  0  0
    0.7500   -3.8971    0.0000 C   0  0  0  0  0  0  0  0  0  0  0  0
    1.5000   -5.1962    0.0000 O   0  0  0  0  0  0  0  0  0  0  0  0
    0.7500   -6.4952    0.0000 C   0  0  0  0  0  0  0  0  0  0  0  0
   -0.7500   -6.4952    0.0000 C   0  0  0  0  0  0  0  0  0  0  0  0
   -1.5000   -7.7942    0.0000 C   0  0  0  0  0  0  0  0  0  0  0  0
   -0.7500   -9.0933    0.0000 C   0  0  0  0  0  0  0  0  0  0  0  0
   -1.5000  -10.3923    0.0000 F   0  0  0  0  0  0  0  0  0  0  0  0
    0.7500   -9.0933    0.0000 C   0  0  0  0  0  0  0  0  0  0  0  0
    1.5000   -7.7942    0.0000 C   0  0  0  0  0  0  0  0  0  0  0  0
    3.0000   -7.7942    0.0000 F   0  0  0  0  0  0  0  0  0  0  0  0
    1.5000   -2.5981    0.0000 C   0  0  0  0  0  0  0  0  0  0  0  0
    0.7500   -1.2990    0.0000 C   0  0  0  0  0  0  0  0  0  0  0  0
    1.5000    0.0000    0.0000 C   0  0  0  0  0  0  0  0  0  0  0  0
    0.7500    1.2990    0.0000 N   0  0  0  0  0  0  0  0  0  0  0  0
   -0.7500    1.2990    0.0000 C   0  0  0  0  0  0  0  0  0  0  0  0
   -1.5000    2.5981    0.0000 N   0  0  0  0  0  0  0  0  0  0  0  0
   -0.7500    3.8971    0.0000 C   0  0  0  0  0  0  0  0  0  0  0  0
    0.7500    3.8971    0.0000 C   0  0  0  0  0  0  0  0  0  0  0  0
    1.5000    5.1962    0.0000 C   0  0  0  0  0  0  0  0  0  0  0  0
    0.7500    6.4952    0.0000 C   0  0  0  0  0  0  0  0  0  0  0  0
    1.5000    7.7942    0.0000 N   0  0  0  0  0  0  0  0  0  0  0  0
    3.0000    7.7942    0.0000 C   0  0  0  0  0  0  0  0  0  0  0  0
    3.7500    9.0933    0.0000 C   0  0  0  0  0  0  0  0  0  0  0  0
    3.0000   10.3923    0.0000 C   0  0  0  0  0  0  0  0  0  0  0  0
    1.5000   10.3923    0.0000 C   0  0  0  0  0  0  0  0  0  0  0  0
    0.7500    9.0933    0.0000 C   0  0  0  0  0  0  0  0  0  0  0  0
   -0.7500    6.4952    0.0000 C   0  0  0  0  0  0  0  0  0  0  0  0
   -1.5000    5.1962    0.0000 C   0  0  0  0  0  0  0  0  0  0  0  0
   -1.5000    0.0000    0.0000 N   0  0  0  0  0  0  0  0  0  0  0  0
   -0.7500   -1.2990    0.0000 C   0  0  0  0  0  0  0  0  0  0  0  0
  1  2  1  0
  2  3  1  0
  3  4  2  0
  3  5  1  0
  5  6  1  0
  6  7  1  0
  7  8  2  0
  8  9  1  0
  9 10  2  0
 10 11  1  0
 10 12  1  0
 12 13  2  0
 13 14  1  0
  5 15  2  0
 15 16  1  0
 16 17  2  0
 17 18  1  0
 18 19  2  0
 19 20  1  0
 20 21  1  0
 21 22  2  0
 22 23  1  0
 23 24  2  0
 24 25  1  0
 25 26  1  0
 26 27  1  0
 27 28  1  0
 28 29  1  0
 29 30  1  0
 24 31  1  0
 31 32  2  0
 19 33  1  0
 33 34  2  0
 34  2  1  0
 13  7  1  0
 34 16  1  0
 32 21  1  0
 30 25  1  0
M  END
>  <Compound_ID>  (675) 
CHEMBL3746973

>  <Molecule Name>  (675) 
nan

>  <Molecular Weight>  (675) 
463.49

>  <AlogP>  (675) 
5.13

>  <Smiles>  (675) 
Cn1c(=O)c(Oc2ccc(F)cc2F)cc2cnc(Nc3ccc(N4CCCCC4)cc3)nc21

>  <Standard Type>  (675) 
Inhibition

>  <Standard Relation>  (675) 
'='

>  <Standard Units>  (675) 
%

>  <Standard Value>  (675) 
8.0

>  <Assay ChEMBL ID>  (675) 
CHEMBL3750644

>  <Assay Description>  (675) 
Inhibition of cMET (unknown origin) at 10 uM

>  <BAO Format ID>  (675) 
BAO_0000357

>  <BAO Label>  (675) 
single protein format

>  <Assay Organism>  (675) 
Homo sapiens

>  <Target ChEMBL ID>  (675) 
CHEMBL3717

>  <Target Name>  (675) 
Hepatocyte growth factor receptor

>  <Target Organism>  (675) 
Homo sapiens

>  <Target Type>  (675) 
SINGLE PROTEIN

>  <Document ChEMBL ID>  (675) 
CHEMBL3745672

>  <Source Description>  (675) 
Scientific Literature

>  <Document Journal>  (675) 
Bioorg Med Chem Lett

>  <Document Year>  (675) 
2016.0

>  <Active>  (675) 
0.0

$$$$

     RDKit          2D

 33 38  0  0  0  0  0  0  0  0999 V2000
   -4.4231   -5.1517    0.0000 O   0  0  0  0  0  0  0  0  0  0  0  0
   -3.1240   -4.4017    0.0000 C   0  0  0  0  0  0  0  0  0  0  0  0
   -1.7537   -5.0118    0.0000 N   0  0  0  0  0  0  0  0  0  0  0  0
   -0.7500   -3.8971    0.0000 C   0  0  0  0  0  0  0  0  0  0  0  0
    0.7500   -3.8971    0.0000 N   0  0  0  0  0  0  0  0  0  0  0  0
    1.5000   -2.5981    0.0000 C   0  0  0  0  0  0  0  0  0  0  0  0
    0.7500   -1.2990    0.0000 C   0  0  0  0  0  0  0  0  0  0  0  0
    1.5000    0.0000    0.0000 C   0  0  0  0  0  0  0  0  0  0  0  0
    0.7500    1.2990    0.0000 C   0  0  0  0  0  0  0  0  0  0  0  0
   -0.7500    1.2990    0.0000 C   0  0  0  0  0  0  0  0  0  0  0  0
   -1.5000    2.5981    0.0000 C   0  0  0  0  0  0  0  0  0  0  0  0
   -0.7500    3.8971    0.0000 N   0  0  0  0  0  0  0  0  0  0  0  0
   -1.5000    5.1962    0.0000 C   0  0  0  0  0  0  0  0  0  0  0  0
   -3.0000    5.1962    0.0000 C   0  0  0  0  0  0  0  0  0  0  0  0
   -3.7500    6.4952    0.0000 C   0  0  0  0  0  0  0  0  0  0  0  0
   -3.0000    7.7942    0.0000 C   0  0  0  0  0  0  0  0  0  0  0  0
   -3.7500    9.0933    0.0000 N   0  0  0  0  0  0  0  0  0  0  0  0
   -3.0000   10.3923    0.0000 C   0  0  0  0  0  0  0  0  0  0  0  0
   -1.5000   10.3923    0.0000 C   0  0  0  0  0  0  0  0  0  0  0  0
   -0.7500    9.0933    0.0000 C   0  0  0  0  0  0  0  0  0  0  0  0
   -1.5000    7.7942    0.0000 C   0  0  0  0  0  0  0  0  0  0  0  0
   -0.7500    6.4952    0.0000 C   0  0  0  0  0  0  0  0  0  0  0  0
   -1.5000    0.0000    0.0000 N   0  0  0  0  0  0  0  0  0  0  0  0
   -0.7500   -1.2990    0.0000 C   0  0  0  0  0  0  0  0  0  0  0  0
   -1.5000   -2.5981    0.0000 C   0  0  0  0  0  0  0  0  0  0  0  0
   -2.9672   -2.9099    0.0000 N   0  0  0  0  0  0  0  0  0  0  0  0
   -4.0819   -1.9062    0.0000 C   0  0  0  0  0  0  0  0  0  0  0  0
   -5.5085   -2.3698    0.0000 C   0  0  0  0  0  0  0  0  0  0  0  0
   -6.6232   -1.3661    0.0000 C   0  0  0  0  0  0  0  0  0  0  0  0
   -8.0498   -1.8296    0.0000 C   0  0  0  0  0  0  0  0  0  0  0  0
   -8.3617   -3.2968    0.0000 C   0  0  0  0  0  0  0  0  0  0  0  0
   -7.2470   -4.3005    0.0000 C   0  0  0  0  0  0  0  0  0  0  0  0
   -5.8204   -3.8370    0.0000 C   0  0  0  0  0  0  0  0  0  0  0  0
  1  2  2  0
  2  3  1  0
  3  4  1  0
  4  5  2  0
  5  6  1  0
  6  7  2  0
  7  8  1  0
  8  9  2  0
  9 10  1  0
 10 11  1  0
 11 12  1  0
 12 13  1  0
 13 14  2  0
 14 15  1  0
 15 16  2  0
 16 17  1  0
 17 18  2  0
 18 19  1  0
 19 20  2  0
 20 21  1  0
 21 22  2  0
 10 23  2  0
 23 24  1  0
 24 25  2  0
 25 26  1  0
 26 27  1  0
 27 28  1  0
 28 29  1  0
 29 30  1  0
 30 31  1  0
 31 32  1  0
 32 33  1  0
 26  2  1  0
 33 28  1  0
 25  4  1  0
 24  7  1  0
 22 13  1  0
 21 16  1  0
M  END
>  <Compound_ID>  (676) 
CHEMBL3360186

>  <Molecule Name>  (676) 
nan

>  <Molecular Weight>  (676) 
438.54

>  <AlogP>  (676) 
5.01

>  <Smiles>  (676) 
O=c1[nH]c2ncc3ccc(CNc4ccc5ncccc5c4)nc3c2n1CC1CCCCC1

>  <Standard Type>  (676) 
Inhibition

>  <Standard Relation>  (676) 
'='

>  <Standard Units>  (676) 
%

>  <Standard Value>  (676) 
15.7

>  <Assay ChEMBL ID>  (676) 
CHEMBL3374142

>  <Assay Description>  (676) 
Inhibition of recombinant c-Met (unknown origin) at 10 uM using poly (Glu,Tyr)4:1 substrate incubated for 60 mins by ELISA method

>  <BAO Format ID>  (676) 
BAO_0000357

>  <BAO Label>  (676) 
single protein format

>  <Assay Organism>  (676) 
Homo sapiens

>  <Target ChEMBL ID>  (676) 
CHEMBL3717

>  <Target Name>  (676) 
Hepatocyte growth factor receptor

>  <Target Organism>  (676) 
Homo sapiens

>  <Target Type>  (676) 
SINGLE PROTEIN

>  <Document ChEMBL ID>  (676) 
CHEMBL3352075

>  <Source Description>  (676) 
Scientific Literature

>  <Document Journal>  (676) 
Bioorg Med Chem Lett

>  <Document Year>  (676) 
2015.0

>  <Active>  (676) 
0.0

$$$$

     RDKit          2D

 21 24  0  0  0  0  0  0  0  0999 V2000
   -2.6401   -5.5255    0.0000 N   0  0  0  0  0  0  0  0  0  0  0  0
   -1.2135   -5.9890    0.0000 C   0  0  0  0  0  0  0  0  0  0  0  0
   -0.7500   -7.4156    0.0000 N   0  0  0  0  0  0  0  0  0  0  0  0
    0.7500   -7.4156    0.0000 O   0  0  0  0  0  0  0  0  0  0  0  0
    1.2135   -5.9890    0.0000 N   0  0  0  0  0  0  0  0  0  0  0  0
   -0.0000   -5.1073    0.0000 C   0  0  0  0  0  0  0  0  0  0  0  0
   -0.0000   -3.6073    0.0000 C   0  0  0  0  0  0  0  0  0  0  0  0
    1.2135   -2.7256    0.0000 N   0  0  0  0  0  0  0  0  0  0  0  0
    0.7500   -1.2990    0.0000 C   0  0  0  0  0  0  0  0  0  0  0  0
    1.5000    0.0000    0.0000 C   0  0  0  0  0  0  0  0  0  0  0  0
    0.7500    1.2990    0.0000 N   0  0  0  0  0  0  0  0  0  0  0  0
   -0.7500    1.2990    0.0000 C   0  0  0  0  0  0  0  0  0  0  0  0
   -1.5000    0.0000    0.0000 C   0  0  0  0  0  0  0  0  0  0  0  0
   -0.7500   -1.2990    0.0000 C   0  0  0  0  0  0  0  0  0  0  0  0
   -1.2135   -2.7256    0.0000 N   0  0  0  0  0  0  0  0  0  0  0  0
   -2.6401   -3.1891    0.0000 C   0  0  0  0  0  0  0  0  0  0  0  0
   -3.7548   -2.1855    0.0000 C   0  0  0  0  0  0  0  0  0  0  0  0
   -5.1814   -2.6490    0.0000 C   0  0  0  0  0  0  0  0  0  0  0  0
   -5.4933   -4.1162    0.0000 C   0  0  0  0  0  0  0  0  0  0  0  0
   -4.3786   -5.1199    0.0000 C   0  0  0  0  0  0  0  0  0  0  0  0
   -2.9520   -4.6564    0.0000 C   0  0  0  0  0  0  0  0  0  0  0  0
  1  2  1  0
  2  3  2  0
  3  4  1  0
  4  5  1  0
  5  6  2  0
  6  7  1  0
  7  8  2  0
  8  9  1  0
  9 10  2  0
 10 11  1  0
 11 12  2  0
 12 13  1  0
 13 14  2  0
 14 15  1  0
 15 16  1  0
 16 17  1  0
 17 18  1  0
 18 19  1  0
 19 20  1  0
 20 21  1  0
  6  2  1  0
 15  7  1  0
 21 16  1  0
 14  9  1  0
M  END
>  <Compound_ID>  (677) 
CHEMBL189231

>  <Molecule Name>  (677) 
nan

>  <Molecular Weight>  (677) 
284.32

>  <AlogP>  (677) 
2.57

>  <Smiles>  (677) 
Nc1nonc1-c1nc2cnccc2n1C1CCCCC1

>  <Standard Type>  (677) 
Inhibition

>  <Standard Relation>  (677) 
'='

>  <Standard Units>  (677) 
%

>  <Standard Value>  (677) 
-2.89

>  <Assay ChEMBL ID>  (677) 
CHEMBL1962142

>  <Assay Description>  (677) 
GSK_PKIS: MET mean inhibition at 0.1 uM [Nanosyn]

>  <BAO Format ID>  (677) 
BAO_0000357

>  <BAO Label>  (677) 
single protein format

>  <Assay Organism>  (677) 
None

>  <Target ChEMBL ID>  (677) 
CHEMBL3717

>  <Target Name>  (677) 
Hepatocyte growth factor receptor

>  <Target Organism>  (677) 
Homo sapiens

>  <Target Type>  (677) 
SINGLE PROTEIN

>  <Document ChEMBL ID>  (677) 
CHEMBL1961873

>  <Source Description>  (677) 
GSK Published Kinase Inhibitor Set

>  <Document Journal>  (677) 
nan

>  <Document Year>  (677) 
nan

>  <Active>  (677) 
0.0

$$$$

     RDKit          2D

 34 39  0  0  0  0  0  0  0  0999 V2000
   -4.4231   -5.1517    0.0000 O   0  0  0  0  0  0  0  0  0  0  0  0
   -3.1240   -4.4017    0.0000 C   0  0  0  0  0  0  0  0  0  0  0  0
   -1.7537   -5.0118    0.0000 N   0  0  0  0  0  0  0  0  0  0  0  0
   -0.7500   -3.8971    0.0000 C   0  0  0  0  0  0  0  0  0  0  0  0
    0.7500   -3.8971    0.0000 N   0  0  0  0  0  0  0  0  0  0  0  0
    1.5000   -2.5981    0.0000 C   0  0  0  0  0  0  0  0  0  0  0  0
    0.7500   -1.2990    0.0000 C   0  0  0  0  0  0  0  0  0  0  0  0
    1.5000    0.0000    0.0000 C   0  0  0  0  0  0  0  0  0  0  0  0
    0.7500    1.2990    0.0000 C   0  0  0  0  0  0  0  0  0  0  0  0
   -0.7500    1.2990    0.0000 C   0  0  0  0  0  0  0  0  0  0  0  0
   -1.5000    2.5981    0.0000 C   0  0  0  0  0  0  0  0  0  0  0  0
   -0.7500    3.8971    0.0000 N   0  0  0  0  0  0  0  0  0  0  0  0
   -1.5000    5.1962    0.0000 C   0  0  0  0  0  0  0  0  0  0  0  0
   -3.0000    5.1962    0.0000 C   0  0  0  0  0  0  0  0  0  0  0  0
   -3.7500    6.4952    0.0000 C   0  0  0  0  0  0  0  0  0  0  0  0
   -3.0000    7.7942    0.0000 C   0  0  0  0  0  0  0  0  0  0  0  0
   -3.7500    9.0933    0.0000 N   0  0  0  0  0  0  0  0  0  0  0  0
   -3.0000   10.3923    0.0000 C   0  0  0  0  0  0  0  0  0  0  0  0
   -1.5000   10.3923    0.0000 C   0  0  0  0  0  0  0  0  0  0  0  0
   -0.7500    9.0933    0.0000 C   0  0  0  0  0  0  0  0  0  0  0  0
   -1.5000    7.7942    0.0000 C   0  0  0  0  0  0  0  0  0  0  0  0
   -0.7500    6.4952    0.0000 C   0  0  0  0  0  0  0  0  0  0  0  0
   -1.5000    0.0000    0.0000 N   0  0  0  0  0  0  0  0  0  0  0  0
   -0.7500   -1.2990    0.0000 C   0  0  0  0  0  0  0  0  0  0  0  0
   -1.5000   -2.5981    0.0000 C   0  0  0  0  0  0  0  0  0  0  0  0
   -2.9672   -2.9099    0.0000 N   0  0  0  0  0  0  0  0  0  0  0  0
   -4.0819   -1.9062    0.0000 C   0  0  0  0  0  0  0  0  0  0  0  0
   -5.5085   -2.3698    0.0000 C   0  0  0  0  0  0  0  0  0  0  0  0
   -6.6232   -1.3661    0.0000 C   0  0  0  0  0  0  0  0  0  0  0  0
   -6.3114    0.1011    0.0000 C   0  0  0  0  0  0  0  0  0  0  0  0
   -7.4261    1.1048    0.0000 C   0  0  0  0  0  0  0  0  0  0  0  0
   -8.8527    0.6413    0.0000 C   0  0  0  0  0  0  0  0  0  0  0  0
   -9.1645   -0.8259    0.0000 C   0  0  0  0  0  0  0  0  0  0  0  0
   -8.0498   -1.8296    0.0000 C   0  0  0  0  0  0  0  0  0  0  0  0
  1  2  2  0
  2  3  1  0
  3  4  1  0
  4  5  2  0
  5  6  1  0
  6  7  2  0
  7  8  1  0
  8  9  2  0
  9 10  1  0
 10 11  1  0
 11 12  1  0
 12 13  1  0
 13 14  2  0
 14 15  1  0
 15 16  2  0
 16 17  1  0
 17 18  2  0
 18 19  1  0
 19 20  2  0
 20 21  1  0
 21 22  2  0
 10 23  2  0
 23 24  1  0
 24 25  2  0
 25 26  1  0
 26 27  1  0
 27 28  1  0
 28 29  1  0
 29 30  2  0
 30 31  1  0
 31 32  2  0
 32 33  1  0
 33 34  2  0
 26  2  1  0
 34 29  1  0
 25  4  1  0
 24  7  1  0
 22 13  1  0
 21 16  1  0
M  END
>  <Compound_ID>  (678) 
CHEMBL3360184

>  <Molecule Name>  (678) 
nan

>  <Molecular Weight>  (678) 
446.51

>  <AlogP>  (678) 
4.68

>  <Smiles>  (678) 
O=c1[nH]c2ncc3ccc(CNc4ccc5ncccc5c4)nc3c2n1CCc1ccccc1

>  <Standard Type>  (678) 
Inhibition

>  <Standard Relation>  (678) 
'='

>  <Standard Units>  (678) 
%

>  <Standard Value>  (678) 
6.4

>  <Assay ChEMBL ID>  (678) 
CHEMBL3374142

>  <Assay Description>  (678) 
Inhibition of recombinant c-Met (unknown origin) at 10 uM using poly (Glu,Tyr)4:1 substrate incubated for 60 mins by ELISA method

>  <BAO Format ID>  (678) 
BAO_0000357

>  <BAO Label>  (678) 
single protein format

>  <Assay Organism>  (678) 
Homo sapiens

>  <Target ChEMBL ID>  (678) 
CHEMBL3717

>  <Target Name>  (678) 
Hepatocyte growth factor receptor

>  <Target Organism>  (678) 
Homo sapiens

>  <Target Type>  (678) 
SINGLE PROTEIN

>  <Document ChEMBL ID>  (678) 
CHEMBL3352075

>  <Source Description>  (678) 
Scientific Literature

>  <Document Journal>  (678) 
Bioorg Med Chem Lett

>  <Document Year>  (678) 
2015.0

>  <Active>  (678) 
0.0

$$$$

     RDKit          2D

 30 34  0  0  0  0  0  0  0  0999 V2000
   -4.4231   -5.1517    0.0000 O   0  0  0  0  0  0  0  0  0  0  0  0
   -3.1240   -4.4017    0.0000 C   0  0  0  0  0  0  0  0  0  0  0  0
   -1.7537   -5.0118    0.0000 N   0  0  0  0  0  0  0  0  0  0  0  0
   -0.7500   -3.8971    0.0000 C   0  0  0  0  0  0  0  0  0  0  0  0
    0.7500   -3.8971    0.0000 N   0  0  0  0  0  0  0  0  0  0  0  0
    1.5000   -2.5981    0.0000 C   0  0  0  0  0  0  0  0  0  0  0  0
    0.7500   -1.2990    0.0000 C   0  0  0  0  0  0  0  0  0  0  0  0
    1.5000    0.0000    0.0000 C   0  0  0  0  0  0  0  0  0  0  0  0
    0.7500    1.2990    0.0000 C   0  0  0  0  0  0  0  0  0  0  0  0
   -0.7500    1.2990    0.0000 C   0  0  0  0  0  0  0  0  0  0  0  0
   -1.5000    2.5981    0.0000 C   0  0  0  0  0  0  0  0  0  0  0  0
   -0.7500    3.8971    0.0000 N   0  0  0  0  0  0  0  0  0  0  0  0
   -1.5000    5.1962    0.0000 C   0  0  0  0  0  0  0  0  0  0  0  0
   -0.7500    6.4952    0.0000 C   0  0  0  0  0  0  0  0  0  0  0  0
   -1.5000    7.7942    0.0000 C   0  0  0  0  0  0  0  0  0  0  0  0
   -3.0000    7.7942    0.0000 C   0  0  0  0  0  0  0  0  0  0  0  0
   -3.7500    9.0933    0.0000 O   0  0  0  0  0  0  0  0  0  0  0  0
   -3.7500    6.4952    0.0000 C   0  0  0  0  0  0  0  0  0  0  0  0
   -3.0000    5.1962    0.0000 C   0  0  0  0  0  0  0  0  0  0  0  0
   -1.5000    0.0000    0.0000 N   0  0  0  0  0  0  0  0  0  0  0  0
   -0.7500   -1.2990    0.0000 C   0  0  0  0  0  0  0  0  0  0  0  0
   -1.5000   -2.5981    0.0000 C   0  0  0  0  0  0  0  0  0  0  0  0
   -2.9672   -2.9099    0.0000 N   0  0  0  0  0  0  0  0  0  0  0  0
   -4.0819   -1.9062    0.0000 C   0  0  0  0  0  0  0  0  0  0  0  0
   -5.5085   -2.3698    0.0000 C   0  0  0  0  0  0  0  0  0  0  0  0
   -6.6232   -1.3661    0.0000 C   0  0  0  0  0  0  0  0  0  0  0  0
   -8.0498   -1.8296    0.0000 C   0  0  0  0  0  0  0  0  0  0  0  0
   -8.3617   -3.2968    0.0000 C   0  0  0  0  0  0  0  0  0  0  0  0
   -7.2470   -4.3005    0.0000 C   0  0  0  0  0  0  0  0  0  0  0  0
   -5.8204   -3.8370    0.0000 C   0  0  0  0  0  0  0  0  0  0  0  0
  1  2  2  0
  2  3  1  0
  3  4  1  0
  4  5  2  0
  5  6  1  0
  6  7  2  0
  7  8  1  0
  8  9  2  0
  9 10  1  0
 10 11  1  0
 11 12  1  0
 12 13  1  0
 13 14  2  0
 14 15  1  0
 15 16  2  0
 16 17  1  0
 16 18  1  0
 18 19  2  0
 10 20  2  0
 20 21  1  0
 21 22  2  0
 22 23  1  0
 23 24  1  0
 24 25  1  0
 25 26  2  0
 26 27  1  0
 27 28  2  0
 28 29  1  0
 29 30  2  0
 23  2  1  0
 30 25  1  0
 22  4  1  0
 21  7  1  0
 19 13  1  0
M  END
>  <Compound_ID>  (679) 
CHEMBL3360182

>  <Molecule Name>  (679) 
nan

>  <Molecular Weight>  (679) 
397.44

>  <AlogP>  (679) 
3.64

>  <Smiles>  (679) 
O=c1[nH]c2ncc3ccc(CNc4ccc(O)cc4)nc3c2n1Cc1ccccc1

>  <Standard Type>  (679) 
Inhibition

>  <Standard Relation>  (679) 
'='

>  <Standard Units>  (679) 
%

>  <Standard Value>  (679) 
19.4

>  <Assay ChEMBL ID>  (679) 
CHEMBL3374142

>  <Assay Description>  (679) 
Inhibition of recombinant c-Met (unknown origin) at 10 uM using poly (Glu,Tyr)4:1 substrate incubated for 60 mins by ELISA method

>  <BAO Format ID>  (679) 
BAO_0000357

>  <BAO Label>  (679) 
single protein format

>  <Assay Organism>  (679) 
Homo sapiens

>  <Target ChEMBL ID>  (679) 
CHEMBL3717

>  <Target Name>  (679) 
Hepatocyte growth factor receptor

>  <Target Organism>  (679) 
Homo sapiens

>  <Target Type>  (679) 
SINGLE PROTEIN

>  <Document ChEMBL ID>  (679) 
CHEMBL3352075

>  <Source Description>  (679) 
Scientific Literature

>  <Document Journal>  (679) 
Bioorg Med Chem Lett

>  <Document Year>  (679) 
2015.0

>  <Active>  (679) 
0.0

$$$$

     RDKit          2D

 25 28  0  0  0  0  0  0  0  0999 V2000
    3.0000   -2.5981    0.0000 O   0  0  0  0  0  0  0  0  0  0  0  0
    1.5000   -2.5981    0.0000 C   0  0  0  0  0  0  0  0  0  0  0  0
    0.7500   -3.8971    0.0000 N   0  0  0  0  0  0  0  0  0  0  0  0
    1.5000   -5.1962    0.0000 C   0  0  0  0  0  0  0  0  0  0  0  0
    0.7500   -6.4952    0.0000 C   0  0  0  0  0  0  0  0  0  0  0  0
    0.7500   -7.9952    0.0000 C   0  0  0  0  0  0  0  0  0  0  0  0
   -0.5490   -7.2452    0.0000 C   0  0  0  0  0  0  0  0  0  0  0  0
    0.7500   -1.2990    0.0000 C   0  0  0  0  0  0  0  0  0  0  0  0
    1.5000    0.0000    0.0000 C   0  0  0  0  0  0  0  0  0  0  0  0
    0.7500    1.2990    0.0000 C   0  0  0  0  0  0  0  0  0  0  0  0
   -0.7500    1.2990    0.0000 C   0  0  0  0  0  0  0  0  0  0  0  0
   -1.5000    2.5981    0.0000 C   0  0  0  0  0  0  0  0  0  0  0  0
   -0.7500    3.8971    0.0000 C   0  0  0  0  0  0  0  0  0  0  0  0
   -1.5000    5.1962    0.0000 C   0  0  0  0  0  0  0  0  0  0  0  0
   -3.0000    5.1962    0.0000 C   0  0  0  0  0  0  0  0  0  0  0  0
   -3.7500    3.8971    0.0000 C   0  0  0  0  0  0  0  0  0  0  0  0
   -5.2500    3.8971    0.0000 C   0  0  0  0  0  0  0  0  0  0  0  0
   -6.0000    2.5981    0.0000 O   0  0  0  0  0  0  0  0  0  0  0  0
   -6.0000    5.1962    0.0000 N   0  0  0  0  0  0  0  0  0  0  0  0
   -7.5000    5.1962    0.0000 C   0  0  0  0  0  0  0  0  0  0  0  0
   -8.7990    4.4462    0.0000 C   0  0  0  0  0  0  0  0  0  0  0  0
   -8.7990    5.9462    0.0000 C   0  0  0  0  0  0  0  0  0  0  0  0
   -3.0000    2.5981    0.0000 C   0  0  0  0  0  0  0  0  0  0  0  0
   -1.5000    0.0000    0.0000 C   0  0  0  0  0  0  0  0  0  0  0  0
   -0.7500   -1.2990    0.0000 C   0  0  0  0  0  0  0  0  0  0  0  0
  1  2  2  0
  2  3  1  0
  3  4  1  0
  4  5  1  0
  5  6  1  0
  6  7  1  0
  2  8  1  0
  8  9  2  0
  9 10  1  0
 10 11  2  0
 11 12  1  0
 12 13  2  0
 13 14  1  0
 14 15  2  0
 15 16  1  0
 16 17  1  0
 17 18  2  0
 17 19  1  0
 19 20  1  0
 20 21  1  0
 21 22  1  0
 16 23  2  0
 11 24  1  0
 24 25  2  0
  7  5  1  0
 25  8  1  0
 23 12  1  0
 22 20  1  0
M  END
>  <Compound_ID>  (680) 
CHEMBL479038

>  <Molecule Name>  (680) 
GW806776X

>  <Molecular Weight>  (680) 
334.42

>  <AlogP>  (680) 
3.39

>  <Smiles>  (680) 
O=C(NCC1CC1)c1ccc(-c2cccc(C(=O)NC3CC3)c2)cc1

>  <Standard Type>  (680) 
Inhibition

>  <Standard Relation>  (680) 
'='

>  <Standard Units>  (680) 
%

>  <Standard Value>  (680) 
-2.79

>  <Assay ChEMBL ID>  (680) 
CHEMBL1962143

>  <Assay Description>  (680) 
GSK_PKIS: MET mean inhibition at 1 uM [Nanosyn]

>  <BAO Format ID>  (680) 
BAO_0000357

>  <BAO Label>  (680) 
single protein format

>  <Assay Organism>  (680) 
None

>  <Target ChEMBL ID>  (680) 
CHEMBL3717

>  <Target Name>  (680) 
Hepatocyte growth factor receptor

>  <Target Organism>  (680) 
Homo sapiens

>  <Target Type>  (680) 
SINGLE PROTEIN

>  <Document ChEMBL ID>  (680) 
CHEMBL1961873

>  <Source Description>  (680) 
GSK Published Kinase Inhibitor Set

>  <Document Journal>  (680) 
nan

>  <Document Year>  (680) 
nan

>  <Active>  (680) 
0.0

$$$$

     RDKit          2D

 32 35  0  0  0  0  0  0  0  0999 V2000
    9.0985   -9.6461    0.0000 C   0  0  0  0  0  0  0  0  0  0  0  0
    7.7282   -9.0360    0.0000 S   0  0  0  0  0  0  0  0  0  0  0  0
    8.3383   -7.6657    0.0000 O   0  0  0  0  0  0  0  0  0  0  0  0
    7.1181  -10.4063    0.0000 O   0  0  0  0  0  0  0  0  0  0  0  0
    6.3579   -8.4259    0.0000 C   0  0  0  0  0  0  0  0  0  0  0  0
    6.2011   -6.9341    0.0000 C   0  0  0  0  0  0  0  0  0  0  0  0
    4.8308   -6.3240    0.0000 N   0  0  0  0  0  0  0  0  0  0  0  0
    4.6740   -4.8322    0.0000 C   0  0  0  0  0  0  0  0  0  0  0  0
    3.3037   -4.2221    0.0000 C   0  0  0  0  0  0  0  0  0  0  0  0
    2.9918   -2.7549    0.0000 N   0  0  0  0  0  0  0  0  0  0  0  0
    1.5000   -2.5981    0.0000 C   0  0  0  0  0  0  0  0  0  0  0  0
    0.7500   -1.2990    0.0000 C   0  0  0  0  0  0  0  0  0  0  0  0
    1.5000    0.0000    0.0000 C   0  0  0  0  0  0  0  0  0  0  0  0
    0.7500    1.2990    0.0000 C   0  0  0  0  0  0  0  0  0  0  0  0
   -0.7500    1.2990    0.0000 C   0  0  0  0  0  0  0  0  0  0  0  0
   -1.5000    2.5981    0.0000 N   0  0  0  0  0  0  0  0  0  0  0  0
   -3.0000    2.5981    0.0000 C   0  0  0  0  0  0  0  0  0  0  0  0
   -3.7500    1.2990    0.0000 N   0  0  0  0  0  0  0  0  0  0  0  0
   -3.0000    0.0000    0.0000 C   0  0  0  0  0  0  0  0  0  0  0  0
   -3.7500   -1.2990    0.0000 N   0  0  0  0  0  0  0  0  0  0  0  0
   -5.2500   -1.2990    0.0000 C   0  0  0  0  0  0  0  0  0  0  0  0
   -6.0000    0.0000    0.0000 C   0  0  0  0  0  0  0  0  0  0  0  0
   -7.5000    0.0000    0.0000 C   0  0  0  0  0  0  0  0  0  0  0  0
   -8.2500   -1.2990    0.0000 C   0  0  0  0  0  0  0  0  0  0  0  0
   -9.7500   -1.2990    0.0000 F   0  0  0  0  0  0  0  0  0  0  0  0
   -7.5000   -2.5981    0.0000 C   0  0  0  0  0  0  0  0  0  0  0  0
   -8.2500   -3.8971    0.0000 Cl  0  0  0  0  0  0  0  0  0  0  0  0
   -6.0000   -2.5981    0.0000 C   0  0  0  0  0  0  0  0  0  0  0  0
   -1.5000    0.0000    0.0000 C   0  0  0  0  0  0  0  0  0  0  0  0
   -0.7500   -1.2990    0.0000 C   0  0  0  0  0  0  0  0  0  0  0  0
    0.8899   -3.9684    0.0000 C   0  0  0  0  0  0  0  0  0  0  0  0
    2.0046   -4.9721    0.0000 S   0  0  0  0  0  0  0  0  0  0  0  0
  1  2  1  0
  2  3  2  0
  2  4  2  0
  2  5  1  0
  5  6  1  0
  6  7  1  0
  7  8  1  0
  8  9  1  0
  9 10  2  0
 10 11  1  0
 11 12  1  0
 12 13  2  0
 13 14  1  0
 14 15  2  0
 15 16  1  0
 16 17  2  0
 17 18  1  0
 18 19  2  0
 19 20  1  0
 20 21  1  0
 21 22  2  0
 22 23  1  0
 23 24  2  0
 24 25  1  0
 24 26  1  0
 26 27  1  0
 26 28  2  0
 19 29  1  0
 29 30  2  0
 11 31  2  0
 31 32  1  0
 32  9  1  0
 30 12  1  0
 29 15  1  0
 28 21  1  0
M  END
>  <Compound_ID>  (681) 
CHEMBL1909355

>  <Molecule Name>  (681) 
GW461104A

>  <Molecular Weight>  (681) 
528.46

>  <AlogP>  (681) 
4.42

>  <Smiles>  (681) 
CS(=O)(=O)CCNCc1nc(-c2ccc3ncnc(Nc4ccc(F)c(Cl)c4)c3c2)cs1

>  <Standard Type>  (681) 
Inhibition

>  <Standard Relation>  (681) 
'='

>  <Standard Units>  (681) 
%

>  <Standard Value>  (681) 
9.65

>  <Assay ChEMBL ID>  (681) 
CHEMBL1962143

>  <Assay Description>  (681) 
GSK_PKIS: MET mean inhibition at 1 uM [Nanosyn]

>  <BAO Format ID>  (681) 
BAO_0000357

>  <BAO Label>  (681) 
single protein format

>  <Assay Organism>  (681) 
None

>  <Target ChEMBL ID>  (681) 
CHEMBL3717

>  <Target Name>  (681) 
Hepatocyte growth factor receptor

>  <Target Organism>  (681) 
Homo sapiens

>  <Target Type>  (681) 
SINGLE PROTEIN

>  <Document ChEMBL ID>  (681) 
CHEMBL1961873

>  <Source Description>  (681) 
GSK Published Kinase Inhibitor Set

>  <Document Journal>  (681) 
nan

>  <Document Year>  (681) 
nan

>  <Active>  (681) 
0.0

$$$$

     RDKit          2D

 25 27  0  0  0  0  0  0  0  0999 V2000
    3.7500   -1.2990    0.0000 C   0  0  0  0  0  0  0  0  0  0  0  0
    3.0000    0.0000    0.0000 N   0  0  0  0  0  0  0  0  0  0  0  0
    3.7500    1.2990    0.0000 C   0  0  0  0  0  0  0  0  0  0  0  0
    1.5000    0.0000    0.0000 C   0  0  0  0  0  0  0  0  0  0  0  0
    0.7500   -1.2990    0.0000 C   0  0  0  0  0  0  0  0  0  0  0  0
   -0.7500   -1.2990    0.0000 C   0  0  0  0  0  0  0  0  0  0  0  0
   -1.5000    0.0000    0.0000 C   0  0  0  0  0  0  0  0  0  0  0  0
   -0.7500    1.2990    0.0000 C   0  0  0  0  0  0  0  0  0  0  0  0
    0.7500    1.2990    0.0000 C   0  0  0  0  0  0  0  0  0  0  0  0
   -1.7537    2.4138    0.0000 C   0  0  0  0  0  0  0  0  0  0  0  0
   -1.4418    3.8810    0.0000 C   0  0  0  0  0  0  0  0  0  0  0  0
   -2.5565    4.8847    0.0000 N   0  0  0  0  0  0  0  0  0  0  0  0
   -2.2447    6.3519    0.0000 C   0  0  0  0  0  0  0  0  0  0  0  0
   -0.8181    6.8154    0.0000 C   0  0  0  0  0  0  0  0  0  0  0  0
   -0.5062    8.2826    0.0000 C   0  0  0  0  0  0  0  0  0  0  0  0
   -1.6209    9.2863    0.0000 C   0  0  0  0  0  0  0  0  0  0  0  0
   -1.3091   10.7536    0.0000 S   0  0  0  0  0  0  0  0  0  0  0  0
   -0.9972   12.2208    0.0000 N   0  0  0  0  0  0  0  0  0  0  0  0
    0.1581   10.4417    0.0000 O   0  0  0  0  0  0  0  0  0  0  0  0
   -2.7763   11.0654    0.0000 O   0  0  0  0  0  0  0  0  0  0  0  0
   -3.0475    8.8228    0.0000 C   0  0  0  0  0  0  0  0  0  0  0  0
   -3.3594    7.3556    0.0000 C   0  0  0  0  0  0  0  0  0  0  0  0
   -3.1240    1.8037    0.0000 C   0  0  0  0  0  0  0  0  0  0  0  0
   -4.4231    2.5537    0.0000 O   0  0  0  0  0  0  0  0  0  0  0  0
   -2.9672    0.3119    0.0000 N   0  0  0  0  0  0  0  0  0  0  0  0
  1  2  1  0
  2  3  1  0
  2  4  1  0
  4  5  2  0
  5  6  1  0
  6  7  2  0
  7  8  1  0
  8  9  2  0
  8 10  1  0
 10 11  2  0
 11 12  1  0
 12 13  1  0
 13 14  2  0
 14 15  1  0
 15 16  2  0
 16 17  1  0
 17 18  1  0
 17 19  2  0
 17 20  2  0
 16 21  1  0
 21 22  2  0
 10 23  1  0
 23 24  2  0
 23 25  1  0
  9  4  1  0
 22 13  1  0
 25  7  1  0
M  END
>  <Compound_ID>  (682) 
CHEMBL272414

>  <Molecule Name>  (682) 
GW416469X

>  <Molecular Weight>  (682) 
358.42

>  <AlogP>  (682) 
1.81

>  <Smiles>  (682) 
CN(C)c1ccc2c(c1)/C(=C/Nc1ccc(S(N)(=O)=O)cc1)C(=O)N2

>  <Standard Type>  (682) 
Inhibition

>  <Standard Relation>  (682) 
'='

>  <Standard Units>  (682) 
%

>  <Standard Value>  (682) 
4.48

>  <Assay ChEMBL ID>  (682) 
CHEMBL1962143

>  <Assay Description>  (682) 
GSK_PKIS: MET mean inhibition at 1 uM [Nanosyn]

>  <BAO Format ID>  (682) 
BAO_0000357

>  <BAO Label>  (682) 
single protein format

>  <Assay Organism>  (682) 
None

>  <Target ChEMBL ID>  (682) 
CHEMBL3717

>  <Target Name>  (682) 
Hepatocyte growth factor receptor

>  <Target Organism>  (682) 
Homo sapiens

>  <Target Type>  (682) 
SINGLE PROTEIN

>  <Document ChEMBL ID>  (682) 
CHEMBL1961873

>  <Source Description>  (682) 
GSK Published Kinase Inhibitor Set

>  <Document Journal>  (682) 
nan

>  <Document Year>  (682) 
nan

>  <Active>  (682) 
0.0

$$$$

     RDKit          2D

 21 24  0  0  0  0  0  0  0  0999 V2000
   -0.0000   -5.1073    0.0000 O   0  0  0  0  0  0  0  0  0  0  0  0
   -0.0000   -3.6073    0.0000 C   0  0  0  0  0  0  0  0  0  0  0  0
    1.2135   -2.7256    0.0000 N   0  0  0  0  0  0  0  0  0  0  0  0
    0.7500   -1.2990    0.0000 C   0  0  0  0  0  0  0  0  0  0  0  0
    1.5000    0.0000    0.0000 C   0  0  0  0  0  0  0  0  0  0  0  0
    0.7500    1.2990    0.0000 C   0  0  0  0  0  0  0  0  0  0  0  0
   -0.7500    1.2990    0.0000 C   0  0  0  0  0  0  0  0  0  0  0  0
   -1.5000    0.0000    0.0000 C   0  0  0  0  0  0  0  0  0  0  0  0
   -0.7500   -1.2990    0.0000 C   0  0  0  0  0  0  0  0  0  0  0  0
   -1.2135   -2.7256    0.0000 C   0  0  0  0  0  0  0  0  0  0  0  0
   -2.6401   -3.1891    0.0000 N   0  0  0  0  0  0  0  0  0  0  0  0
   -2.9520   -4.6564    0.0000 N   0  0  0  0  0  0  0  0  0  0  0  0
   -4.3786   -5.1199    0.0000 C   0  0  0  0  0  0  0  0  0  0  0  0
   -5.4933   -4.1162    0.0000 O   0  0  0  0  0  0  0  0  0  0  0  0
   -4.6904   -6.5871    0.0000 C   0  0  0  0  0  0  0  0  0  0  0  0
   -3.6867   -7.7018    0.0000 C   0  0  0  0  0  0  0  0  0  0  0  0
   -4.4367   -9.0009    0.0000 C   0  0  0  0  0  0  0  0  0  0  0  0
   -5.8071   -9.6110    0.0000 C   0  0  0  0  0  0  0  0  0  0  0  0
   -6.8107   -8.4963    0.0000 C   0  0  0  0  0  0  0  0  0  0  0  0
   -6.0607   -7.1972    0.0000 C   0  0  0  0  0  0  0  0  0  0  0  0
   -4.5935   -7.5091    0.0000 C   0  0  0  0  0  0  0  0  0  0  0  0
  1  2  2  0
  2  3  1  0
  3  4  1  0
  4  5  2  0
  5  6  1  0
  6  7  2  0
  7  8  1  0
  8  9  2  0
  9 10  1  0
 10 11  2  0
 11 12  1  0
 12 13  1  0
 13 14  2  0
 13 15  1  0
 15 16  1  0
 16 17  1  0
 17 18  1  0
 18 19  1  0
 19 20  1  0
 20 21  1  0
 10  2  1  0
 20 15  1  0
  9  4  1  0
 21 17  1  0
M  END
>  <Compound_ID>  (683) 
CHEMBL1779071

>  <Molecule Name>  (683) 
nan

>  <Molecular Weight>  (683) 
283.33

>  <AlogP>  (683) 
1.90

>  <Smiles>  (683) 
O=C1Nc2ccccc2/C1=N/NC(=O)C1CC2CCC1C2

>  <Standard Type>  (683) 
Inhibition

>  <Standard Relation>  (683) 
'='

>  <Standard Units>  (683) 
%

>  <Standard Value>  (683) 
12.8

>  <Assay ChEMBL ID>  (683) 
CHEMBL1781430

>  <Assay Description>  (683) 
Inhibition of purified c-Met using poly(glu,tyr) as substrate at 10 uM after 60 mins by ELISA

>  <BAO Format ID>  (683) 
BAO_0000357

>  <BAO Label>  (683) 
single protein format

>  <Assay Organism>  (683) 
None

>  <Target ChEMBL ID>  (683) 
CHEMBL3717

>  <Target Name>  (683) 
Hepatocyte growth factor receptor

>  <Target Organism>  (683) 
Homo sapiens

>  <Target Type>  (683) 
SINGLE PROTEIN

>  <Document ChEMBL ID>  (683) 
CHEMBL1777704

>  <Source Description>  (683) 
Scientific Literature

>  <Document Journal>  (683) 
Bioorg Med Chem Lett

>  <Document Year>  (683) 
2011.0

>  <Active>  (683) 
0.0

$$$$

     RDKit          2D

 21 24  0  0  0  0  0  0  0  0999 V2000
    5.2484    6.2402    0.0000 F   0  0  0  0  0  0  0  0  0  0  0  0
    4.0349    5.3586    0.0000 C   0  0  0  0  0  0  0  0  0  0  0  0
    4.1917    3.8668    0.0000 C   0  0  0  0  0  0  0  0  0  0  0  0
    2.9781    2.9851    0.0000 C   0  0  0  0  0  0  0  0  0  0  0  0
    1.6078    3.5952    0.0000 C   0  0  0  0  0  0  0  0  0  0  0  0
    0.3943    2.7135    0.0000 C   0  0  0  0  0  0  0  0  0  0  0  0
   -1.0323    3.1771    0.0000 C   0  0  0  0  0  0  0  0  0  0  0  0
   -1.4958    4.6036    0.0000 C   0  0  0  0  0  0  0  0  0  0  0  0
   -0.4921    5.7184    0.0000 C   0  0  0  0  0  0  0  0  0  0  0  0
   -0.9556    7.1449    0.0000 C   0  0  0  0  0  0  0  0  0  0  0  0
   -2.4229    7.4568    0.0000 N   0  0  0  0  0  0  0  0  0  0  0  0
   -3.4266    6.3421    0.0000 C   0  0  0  0  0  0  0  0  0  0  0  0
   -2.9630    4.9155    0.0000 C   0  0  0  0  0  0  0  0  0  0  0  0
   -1.9140    1.9635    0.0000 N   0  0  0  0  0  0  0  0  0  0  0  0
   -1.0323    0.7500    0.0000 C   0  0  0  0  0  0  0  0  0  0  0  0
    0.3943    1.2135    0.0000 N   0  0  0  0  0  0  0  0  0  0  0  0
    1.2760    0.0000    0.0000 C   0  0  0  0  0  0  0  0  0  0  0  0
    0.3943   -1.2135    0.0000 C   0  0  0  0  0  0  0  0  0  0  0  0
   -1.0323   -0.7500    0.0000 S   0  0  0  0  0  0  0  0  0  0  0  0
    1.4510    5.0870    0.0000 C   0  0  0  0  0  0  0  0  0  0  0  0
    2.6646    5.9687    0.0000 C   0  0  0  0  0  0  0  0  0  0  0  0
  1  2  1  0
  2  3  2  0
  3  4  1  0
  4  5  2  0
  5  6  1  0
  6  7  2  0
  7  8  1  0
  8  9  2  0
  9 10  1  0
 10 11  2  0
 11 12  1  0
 12 13  2  0
  7 14  1  0
 14 15  2  0
 15 16  1  0
 16 17  1  0
 17 18  1  0
 18 19  1  0
  5 20  1  0
 20 21  2  0
 21  2  1  0
 16  6  1  0
 13  8  1  0
 19 15  1  0
M  END
>  <Compound_ID>  (684) 
CHEMBL266707

>  <Molecule Name>  (684) 
nan

>  <Molecular Weight>  (684) 
297.36

>  <AlogP>  (684) 
3.86

>  <Smiles>  (684) 
Fc1ccc(-c2c(-c3ccncc3)nc3n2CCS3)cc1

>  <Standard Type>  (684) 
Inhibition

>  <Standard Relation>  (684) 
'='

>  <Standard Units>  (684) 
%

>  <Standard Value>  (684) 
3.45

>  <Assay ChEMBL ID>  (684) 
CHEMBL1962142

>  <Assay Description>  (684) 
GSK_PKIS: MET mean inhibition at 0.1 uM [Nanosyn]

>  <BAO Format ID>  (684) 
BAO_0000357

>  <BAO Label>  (684) 
single protein format

>  <Assay Organism>  (684) 
None

>  <Target ChEMBL ID>  (684) 
CHEMBL3717

>  <Target Name>  (684) 
Hepatocyte growth factor receptor

>  <Target Organism>  (684) 
Homo sapiens

>  <Target Type>  (684) 
SINGLE PROTEIN

>  <Document ChEMBL ID>  (684) 
CHEMBL1961873

>  <Source Description>  (684) 
GSK Published Kinase Inhibitor Set

>  <Document Journal>  (684) 
nan

>  <Document Year>  (684) 
nan

>  <Active>  (684) 
0.0

$$$$

     RDKit          2D

 26 29  0  0  0  0  0  0  0  0999 V2000
   -0.0000   -5.1073    0.0000 O   0  0  0  0  0  0  0  0  0  0  0  0
   -0.0000   -3.6073    0.0000 C   0  0  0  0  0  0  0  0  0  0  0  0
    1.2135   -2.7256    0.0000 N   0  0  0  0  0  0  0  0  0  0  0  0
    0.7500   -1.2990    0.0000 C   0  0  0  0  0  0  0  0  0  0  0  0
    1.5000    0.0000    0.0000 C   0  0  0  0  0  0  0  0  0  0  0  0
    0.7500    1.2990    0.0000 C   0  0  0  0  0  0  0  0  0  0  0  0
   -0.7500    1.2990    0.0000 C   0  0  0  0  0  0  0  0  0  0  0  0
   -1.5000    0.0000    0.0000 C   0  0  0  0  0  0  0  0  0  0  0  0
   -0.7500   -1.2990    0.0000 C   0  0  0  0  0  0  0  0  0  0  0  0
   -1.2135   -2.7256    0.0000 C   0  0  0  0  0  0  0  0  0  0  0  0
   -2.6401   -3.1891    0.0000 N   0  0  0  0  0  0  0  0  0  0  0  0
   -2.9520   -4.6564    0.0000 N   0  0  0  0  0  0  0  0  0  0  0  0
   -4.3786   -5.1199    0.0000 C   0  0  0  0  0  0  0  0  0  0  0  0
   -5.4933   -4.1162    0.0000 O   0  0  0  0  0  0  0  0  0  0  0  0
   -4.6904   -6.5871    0.0000 C   0  0  0  0  0  0  0  0  0  0  0  0
   -6.1170   -7.0506    0.0000 C   0  0  0  0  0  0  0  0  0  0  0  0
   -6.4289   -8.5179    0.0000 C   0  0  0  0  0  0  0  0  0  0  0  0
   -5.3142   -9.5216    0.0000 C   0  0  0  0  0  0  0  0  0  0  0  0
   -5.6260  -10.9888    0.0000 N   0  0  0  0  0  0  0  0  0  0  0  0
   -7.0526  -11.4523    0.0000 C   0  0  0  0  0  0  0  0  0  0  0  0
   -8.1673  -10.4486    0.0000 O   0  0  0  0  0  0  0  0  0  0  0  0
   -7.3645  -12.9195    0.0000 C   0  0  0  0  0  0  0  0  0  0  0  0
   -6.9010  -14.3461    0.0000 C   0  0  0  0  0  0  0  0  0  0  0  0
   -8.3682  -14.0342    0.0000 C   0  0  0  0  0  0  0  0  0  0  0  0
   -3.8876   -9.0580    0.0000 C   0  0  0  0  0  0  0  0  0  0  0  0
   -3.5757   -7.5908    0.0000 C   0  0  0  0  0  0  0  0  0  0  0  0
  1  2  2  0
  2  3  1  0
  3  4  1  0
  4  5  2  0
  5  6  1  0
  6  7  2  0
  7  8  1  0
  8  9  2  0
  9 10  1  0
 10 11  2  0
 11 12  1  0
 12 13  1  0
 13 14  2  0
 13 15  1  0
 15 16  2  0
 16 17  1  0
 17 18  2  0
 18 19  1  0
 19 20  1  0
 20 21  2  0
 20 22  1  0
 22 23  1  0
 23 24  1  0
 18 25  1  0
 25 26  2  0
 10  2  1  0
 26 15  1  0
  9  4  1  0
 24 22  1  0
M  END
>  <Compound_ID>  (685) 
CHEMBL1779066

>  <Molecule Name>  (685) 
nan

>  <Molecular Weight>  (685) 
348.36

>  <AlogP>  (685) 
2.12

>  <Smiles>  (685) 
O=C1Nc2ccccc2/C1=N/NC(=O)c1ccc(NC(=O)C2CC2)cc1

>  <Standard Type>  (685) 
Inhibition

>  <Standard Relation>  (685) 
'='

>  <Standard Units>  (685) 
%

>  <Standard Value>  (685) 
11.2

>  <Assay ChEMBL ID>  (685) 
CHEMBL1781430

>  <Assay Description>  (685) 
Inhibition of purified c-Met using poly(glu,tyr) as substrate at 10 uM after 60 mins by ELISA

>  <BAO Format ID>  (685) 
BAO_0000357

>  <BAO Label>  (685) 
single protein format

>  <Assay Organism>  (685) 
None

>  <Target ChEMBL ID>  (685) 
CHEMBL3717

>  <Target Name>  (685) 
Hepatocyte growth factor receptor

>  <Target Organism>  (685) 
Homo sapiens

>  <Target Type>  (685) 
SINGLE PROTEIN

>  <Document ChEMBL ID>  (685) 
CHEMBL1777704

>  <Source Description>  (685) 
Scientific Literature

>  <Document Journal>  (685) 
Bioorg Med Chem Lett

>  <Document Year>  (685) 
2011.0

>  <Active>  (685) 
0.0

$$$$

     RDKit          2D

 27 30  0  0  0  0  0  0  0  0999 V2000
    3.7500   -1.2990    0.0000 N   0  0  0  0  0  0  0  0  0  0  0  0
    3.0000    0.0000    0.0000 C   0  0  0  0  0  0  0  0  0  0  0  0
    1.5000    0.0000    0.0000 C   0  0  0  0  0  0  0  0  0  0  0  0
    0.7500   -1.2990    0.0000 C   0  0  0  0  0  0  0  0  0  0  0  0
   -0.7500   -1.2990    0.0000 C   0  0  0  0  0  0  0  0  0  0  0  0
   -1.5000    0.0000    0.0000 C   0  0  0  0  0  0  0  0  0  0  0  0
   -3.0000    0.0000    0.0000 C   0  0  0  0  0  0  0  0  0  0  0  0
   -3.8817   -1.2135    0.0000 N   0  0  0  0  0  0  0  0  0  0  0  0
   -5.3083   -0.7500    0.0000 C   0  0  0  0  0  0  0  0  0  0  0  0
   -6.5218   -1.6317    0.0000 C   0  0  0  0  0  0  0  0  0  0  0  0
   -7.8921   -1.0216    0.0000 C   0  0  0  0  0  0  0  0  0  0  0  0
   -9.1056   -1.9033    0.0000 C   0  0  0  0  0  0  0  0  0  0  0  0
   -8.9488   -3.3950    0.0000 C   0  0  0  0  0  0  0  0  0  0  0  0
  -10.1624   -4.2767    0.0000 Cl  0  0  0  0  0  0  0  0  0  0  0  0
   -7.5785   -4.0051    0.0000 C   0  0  0  0  0  0  0  0  0  0  0  0
   -7.4217   -5.4969    0.0000 O   0  0  0  0  0  0  0  0  0  0  0  0
   -6.3650   -3.1235    0.0000 C   0  0  0  0  0  0  0  0  0  0  0  0
   -5.3083    0.7500    0.0000 C   0  0  0  0  0  0  0  0  0  0  0  0
   -6.5218    1.6317    0.0000 C   0  0  0  0  0  0  0  0  0  0  0  0
   -6.3650    3.1235    0.0000 C   0  0  0  0  0  0  0  0  0  0  0  0
   -7.5785    4.0051    0.0000 C   0  0  0  0  0  0  0  0  0  0  0  0
   -8.9488    3.3950    0.0000 N   0  0  0  0  0  0  0  0  0  0  0  0
   -9.1056    1.9033    0.0000 C   0  0  0  0  0  0  0  0  0  0  0  0
   -7.8921    1.0216    0.0000 C   0  0  0  0  0  0  0  0  0  0  0  0
   -3.8817    1.2135    0.0000 N   0  0  0  0  0  0  0  0  0  0  0  0
   -0.7500    1.2990    0.0000 C   0  0  0  0  0  0  0  0  0  0  0  0
    0.7500    1.2990    0.0000 C   0  0  0  0  0  0  0  0  0  0  0  0
  1  2  1  0
  2  3  1  0
  3  4  2  0
  4  5  1  0
  5  6  2  0
  6  7  1  0
  7  8  2  0
  8  9  1  0
  9 10  1  0
 10 11  2  0
 11 12  1  0
 12 13  2  0
 13 14  1  0
 13 15  1  0
 15 16  1  0
 15 17  2  0
  9 18  2  0
 18 19  1  0
 19 20  2  0
 20 21  1  0
 21 22  2  0
 22 23  1  0
 23 24  2  0
 18 25  1  0
  6 26  1  0
 26 27  2  0
 27  3  1  0
 25  7  1  0
 17 10  1  0
 24 19  1  0
M  END
>  <Compound_ID>  (686) 
CHEMBL1909412

>  <Molecule Name>  (686) 
nan

>  <Molecular Weight>  (686) 
413.31

>  <AlogP>  (686) 
4.62

>  <Smiles>  (686) 
NCc1ccc(-c2nc(-c3ccc(Cl)c(O)c3)c(-c3ccncc3)[nH]2)cc1

>  <Standard Type>  (686) 
Inhibition

>  <Standard Relation>  (686) 
'='

>  <Standard Units>  (686) 
%

>  <Standard Value>  (686) 
14.52

>  <Assay ChEMBL ID>  (686) 
CHEMBL1962143

>  <Assay Description>  (686) 
GSK_PKIS: MET mean inhibition at 1 uM [Nanosyn]

>  <BAO Format ID>  (686) 
BAO_0000357

>  <BAO Label>  (686) 
single protein format

>  <Assay Organism>  (686) 
None

>  <Target ChEMBL ID>  (686) 
CHEMBL3717

>  <Target Name>  (686) 
Hepatocyte growth factor receptor

>  <Target Organism>  (686) 
Homo sapiens

>  <Target Type>  (686) 
SINGLE PROTEIN

>  <Document ChEMBL ID>  (686) 
CHEMBL1961873

>  <Source Description>  (686) 
GSK Published Kinase Inhibitor Set

>  <Document Journal>  (686) 
nan

>  <Document Year>  (686) 
nan

>  <Active>  (686) 
0.0

$$$$

     RDKit          2D

 34 39  0  0  0  0  0  0  0  0999 V2000
    0.3943    6.4937    0.0000 C   0  0  0  0  0  0  0  0  0  0  0  0
    0.8578    5.0672    0.0000 N   0  0  0  0  0  0  0  0  0  0  0  0
   -0.0239    3.8536    0.0000 C   0  0  0  0  0  0  0  0  0  0  0  0
    0.8578    2.6401    0.0000 C   0  0  0  0  0  0  0  0  0  0  0  0
    0.3943    1.2135    0.0000 N   0  0  0  0  0  0  0  0  0  0  0  0
    1.2760    0.0000    0.0000 C   0  0  0  0  0  0  0  0  0  0  0  0
    0.3943   -1.2135    0.0000 N   0  0  0  0  0  0  0  0  0  0  0  0
   -1.0323   -0.7500    0.0000 C   0  0  0  0  0  0  0  0  0  0  0  0
   -2.3313   -1.5000    0.0000 C   0  0  0  0  0  0  0  0  0  0  0  0
   -2.3313   -3.0000    0.0000 N   0  0  0  0  0  0  0  0  0  0  0  0
   -3.6304   -3.7500    0.0000 C   0  0  0  0  0  0  0  0  0  0  0  0
   -3.6304   -5.2500    0.0000 C   0  0  0  0  0  0  0  0  0  0  0  0
   -2.4168   -6.1317    0.0000 N   0  0  0  0  0  0  0  0  0  0  0  0
   -2.8804   -7.5583    0.0000 C   0  0  0  0  0  0  0  0  0  0  0  0
   -2.1304   -8.8573    0.0000 C   0  0  0  0  0  0  0  0  0  0  0  0
   -2.8804  -10.1563    0.0000 C   0  0  0  0  0  0  0  0  0  0  0  0
   -2.1304  -11.4554    0.0000 Cl  0  0  0  0  0  0  0  0  0  0  0  0
   -4.3804  -10.1563    0.0000 C   0  0  0  0  0  0  0  0  0  0  0  0
   -5.1304  -11.4554    0.0000 Cl  0  0  0  0  0  0  0  0  0  0  0  0
   -5.1304   -8.8573    0.0000 C   0  0  0  0  0  0  0  0  0  0  0  0
   -4.3804   -7.5583    0.0000 C   0  0  0  0  0  0  0  0  0  0  0  0
   -4.8439   -6.1317    0.0000 N   0  0  0  0  0  0  0  0  0  0  0  0
   -3.6304   -0.7500    0.0000 N   0  0  0  0  0  0  0  0  0  0  0  0
   -3.6304    0.7500    0.0000 C   0  0  0  0  0  0  0  0  0  0  0  0
   -4.9294    1.5000    0.0000 N   0  0  0  0  0  0  0  0  0  0  0  0
   -4.9294    3.0000    0.0000 C   0  0  0  0  0  0  0  0  0  0  0  0
   -6.2284    3.7500    0.0000 C   0  0  0  0  0  0  0  0  0  0  0  0
   -7.5275    3.0000    0.0000 O   0  0  0  0  0  0  0  0  0  0  0  0
   -7.5275    1.5000    0.0000 C   0  0  0  0  0  0  0  0  0  0  0  0
   -6.2284    0.7500    0.0000 C   0  0  0  0  0  0  0  0  0  0  0  0
   -2.3313    1.5000    0.0000 N   0  0  0  0  0  0  0  0  0  0  0  0
   -1.0323    0.7500    0.0000 C   0  0  0  0  0  0  0  0  0  0  0  0
    2.2844    3.1036    0.0000 C   0  0  0  0  0  0  0  0  0  0  0  0
    2.2844    4.6036    0.0000 N   0  0  0  0  0  0  0  0  0  0  0  0
  1  2  1  0
  2  3  1  0
  3  4  2  0
  4  5  1  0
  5  6  1  0
  6  7  2  0
  7  8  1  0
  8  9  2  0
  9 10  1  0
 10 11  1  0
 11 12  1  0
 12 13  2  0
 13 14  1  0
 14 15  2  0
 15 16  1  0
 16 17  1  0
 16 18  2  0
 18 19  1  0
 18 20  1  0
 20 21  2  0
 21 22  1  0
  9 23  1  0
 23 24  2  0
 24 25  1  0
 25 26  1  0
 26 27  1  0
 27 28  1  0
 28 29  1  0
 29 30  1  0
 24 31  1  0
 31 32  2  0
  4 33  1  0
 33 34  2  0
 34  2  1  0
 32  5  1  0
 32  8  1  0
 22 12  1  0
 30 25  1  0
 21 14  1  0
M  END
>  <Compound_ID>  (687) 
CHEMBL4877117

>  <Molecule Name>  (687) 
nan

>  <Molecular Weight>  (687) 
499.37

>  <AlogP>  (687) 
3.18

>  <Smiles>  (687) 
Cn1cc(-n2cnc3c(NCc4nc5cc(Cl)c(Cl)cc5[nH]4)nc(N4CCOCC4)nc32)cn1

>  <Standard Type>  (687) 
Inhibition

>  <Standard Relation>  (687) 
'='

>  <Standard Units>  (687) 
%

>  <Standard Value>  (687) 
0.0

>  <Assay ChEMBL ID>  (687) 
CHEMBL4806325

>  <Assay Description>  (687) 
Inhibition of c-MET (unknown origin) at 10 uM relative to control

>  <BAO Format ID>  (687) 
BAO_0000357

>  <BAO Label>  (687) 
single protein format

>  <Assay Organism>  (687) 
Homo sapiens

>  <Target ChEMBL ID>  (687) 
CHEMBL3717

>  <Target Name>  (687) 
Hepatocyte growth factor receptor

>  <Target Organism>  (687) 
Homo sapiens

>  <Target Type>  (687) 
SINGLE PROTEIN

>  <Document ChEMBL ID>  (687) 
CHEMBL4804285

>  <Source Description>  (687) 
Patent Bioactivity Data

>  <Document Journal>  (687) 
nan

>  <Document Year>  (687) 
nan

>  <Active>  (687) 
0.0

$$$$

     RDKit          2D

 30 34  0  0  0  0  0  0  0  0999 V2000
    3.7500   -1.2990    0.0000 C   0  0  0  0  0  0  0  0  0  0  0  0
    3.0000    0.0000    0.0000 O   0  0  0  0  0  0  0  0  0  0  0  0
    1.5000    0.0000    0.0000 C   0  0  0  0  0  0  0  0  0  0  0  0
    0.7500   -1.2990    0.0000 C   0  0  0  0  0  0  0  0  0  0  0  0
   -0.7500   -1.2990    0.0000 C   0  0  0  0  0  0  0  0  0  0  0  0
   -1.5000    0.0000    0.0000 C   0  0  0  0  0  0  0  0  0  0  0  0
   -0.7500    1.2990    0.0000 C   0  0  0  0  0  0  0  0  0  0  0  0
    0.7500    1.2990    0.0000 C   0  0  0  0  0  0  0  0  0  0  0  0
    1.5000    2.5981    0.0000 C   0  0  0  0  0  0  0  0  0  0  0  0
    3.0000    2.5981    0.0000 C   0  0  0  0  0  0  0  0  0  0  0  0
    0.7500    3.8971    0.0000 N   0  0  0  0  0  0  0  0  0  0  0  0
    1.5000    5.1962    0.0000 C   0  0  0  0  0  0  0  0  0  0  0  0
    0.7500    6.4952    0.0000 C   0  0  0  0  0  0  0  0  0  0  0  0
   -0.7500    6.4952    0.0000 N   0  0  0  0  0  0  0  0  0  0  0  0
   -1.5000    5.1962    0.0000 C   0  0  0  0  0  0  0  0  0  0  0  0
   -0.7500    3.8971    0.0000 C   0  0  0  0  0  0  0  0  0  0  0  0
   -1.7537    2.4138    0.0000 O   0  0  0  0  0  0  0  0  0  0  0  0
   -3.1240    1.8037    0.0000 C   0  0  0  0  0  0  0  0  0  0  0  0
   -4.4231    2.5537    0.0000 C   0  0  0  0  0  0  0  0  0  0  0  0
   -4.4231    4.0537    0.0000 C   0  0  0  0  0  0  0  0  0  0  0  0
   -3.2095    4.9353    0.0000 N   0  0  0  0  0  0  0  0  0  0  0  0
   -3.6731    6.3619    0.0000 N   0  0  0  0  0  0  0  0  0  0  0  0
   -5.1731    6.3619    0.0000 C   0  0  0  0  0  0  0  0  0  0  0  0
   -6.1767    7.4766    0.0000 N   0  0  0  0  0  0  0  0  0  0  0  0
   -7.6440    7.1648    0.0000 C   0  0  0  0  0  0  0  0  0  0  0  0
   -8.1075    5.7382    0.0000 C   0  0  0  0  0  0  0  0  0  0  0  0
   -7.1038    4.6235    0.0000 C   0  0  0  0  0  0  0  0  0  0  0  0
   -5.6366    4.9353    0.0000 C   0  0  0  0  0  0  0  0  0  0  0  0
   -2.9672    0.3119    0.0000 C   0  0  0  0  0  0  0  0  0  0  0  0
   -4.0819   -0.6918    0.0000 O   0  0  0  0  0  0  0  0  0  0  0  0
  1  2  1  0
  2  3  1  0
  3  4  2  0
  4  5  1  0
  5  6  2  0
  6  7  1  0
  7  8  2  0
  8  9  1  0
  9 10  1  0
  9 11  1  0
 11 12  1  0
 12 13  1  0
 13 14  1  0
 14 15  1  0
 15 16  1  0
  7 17  1  0
 17 18  1  0
 18 19  2  0
 19 20  1  0
 20 21  2  0
 21 22  1  0
 22 23  1  0
 23 24  2  0
 24 25  1  0
 25 26  2  0
 26 27  1  0
 27 28  2  0
 18 29  1  0
 29 30  2  0
  8  3  1  0
 16 11  1  0
 28 20  1  0
 29  6  1  0
 28 23  1  0
M  END
>  <Compound_ID>  (688) 
CHEMBL3735890

>  <Molecule Name>  (688) 
nan

>  <Molecular Weight>  (688) 
405.46

>  <AlogP>  (688) 
2.55

>  <Smiles>  (688) 
COc1ccc2c(c1C(C)N1CCNCC1)O/C(=C\c1n[nH]c3ncccc13)C2=O

>  <Standard Type>  (688) 
Inhibition

>  <Standard Relation>  (688) 
'='

>  <Standard Units>  (688) 
%

>  <Standard Value>  (688) 
0.5

>  <Assay ChEMBL ID>  (688) 
CHEMBL3738540

>  <Assay Description>  (688) 
Inhibition of MET (unknown origin) at 200 nM by electrophoretic mobility shift assay

>  <BAO Format ID>  (688) 
BAO_0000357

>  <BAO Label>  (688) 
single protein format

>  <Assay Organism>  (688) 
Homo sapiens

>  <Target ChEMBL ID>  (688) 
CHEMBL3717

>  <Target Name>  (688) 
Hepatocyte growth factor receptor

>  <Target Organism>  (688) 
Homo sapiens

>  <Target Type>  (688) 
SINGLE PROTEIN

>  <Document ChEMBL ID>  (688) 
CHEMBL3734671

>  <Source Description>  (688) 
Scientific Literature

>  <Document Journal>  (688) 
Bioorg Med Chem Lett

>  <Document Year>  (688) 
2015.0

>  <Active>  (688) 
0.0

$$$$

     RDKit          2D

 29 33  0  0  0  0  0  0  0  0999 V2000
   -0.0000   -5.1073    0.0000 O   0  0  0  0  0  0  0  0  0  0  0  0
   -0.0000   -3.6073    0.0000 C   0  0  0  0  0  0  0  0  0  0  0  0
    1.2135   -2.7256    0.0000 N   0  0  0  0  0  0  0  0  0  0  0  0
    0.7500   -1.2990    0.0000 C   0  0  0  0  0  0  0  0  0  0  0  0
    1.5000    0.0000    0.0000 C   0  0  0  0  0  0  0  0  0  0  0  0
    0.7500    1.2990    0.0000 C   0  0  0  0  0  0  0  0  0  0  0  0
   -0.7500    1.2990    0.0000 C   0  0  0  0  0  0  0  0  0  0  0  0
   -1.5000    0.0000    0.0000 C   0  0  0  0  0  0  0  0  0  0  0  0
   -0.7500   -1.2990    0.0000 C   0  0  0  0  0  0  0  0  0  0  0  0
   -1.2135   -2.7256    0.0000 C   0  0  0  0  0  0  0  0  0  0  0  0
   -2.6401   -3.1891    0.0000 C   0  0  0  0  0  0  0  0  0  0  0  0
   -3.8536   -2.3075    0.0000 C   0  0  0  0  0  0  0  0  0  0  0  0
   -3.8536   -0.8075    0.0000 O   0  0  0  0  0  0  0  0  0  0  0  0
   -5.0672   -3.1891    0.0000 N   0  0  0  0  0  0  0  0  0  0  0  0
   -6.4937   -2.7256    0.0000 C   0  0  0  0  0  0  0  0  0  0  0  0
   -6.8056   -1.2584    0.0000 C   0  0  0  0  0  0  0  0  0  0  0  0
   -8.2322   -0.7949    0.0000 C   0  0  0  0  0  0  0  0  0  0  0  0
   -8.5441    0.6723    0.0000 C   0  0  0  0  0  0  0  0  0  0  0  0
   -7.4293    1.6760    0.0000 C   0  0  0  0  0  0  0  0  0  0  0  0
   -7.7412    3.1433    0.0000 C   0  0  0  0  0  0  0  0  0  0  0  0
   -9.1678    3.6068    0.0000 C   0  0  0  0  0  0  0  0  0  0  0  0
  -10.2825    2.6031    0.0000 C   0  0  0  0  0  0  0  0  0  0  0  0
   -9.9707    1.1359    0.0000 C   0  0  0  0  0  0  0  0  0  0  0  0
   -4.6036   -4.6157    0.0000 C   0  0  0  0  0  0  0  0  0  0  0  0
   -5.3536   -5.9148    0.0000 C   0  0  0  0  0  0  0  0  0  0  0  0
   -4.6036   -7.2138    0.0000 C   0  0  0  0  0  0  0  0  0  0  0  0
   -3.1036   -7.2138    0.0000 C   0  0  0  0  0  0  0  0  0  0  0  0
   -2.3536   -5.9148    0.0000 C   0  0  0  0  0  0  0  0  0  0  0  0
   -3.1036   -4.6157    0.0000 C   0  0  0  0  0  0  0  0  0  0  0  0
  1  2  2  0
  2  3  1  0
  3  4  1  0
  4  5  2  0
  5  6  1  0
  6  7  2  0
  7  8  1  0
  8  9  2  0
  9 10  1  0
 10 11  2  0
 11 12  1  0
 12 13  2  0
 12 14  1  0
 14 15  1  0
 15 16  1  0
 16 17  1  0
 17 18  1  0
 18 19  2  0
 19 20  1  0
 20 21  2  0
 21 22  1  0
 22 23  2  0
 14 24  1  0
 24 25  2  0
 25 26  1  0
 26 27  2  0
 27 28  1  0
 28 29  2  0
 10  2  1  0
 29 11  1  0
  9  4  1  0
 23 18  1  0
 29 24  1  0
M  END
>  <Compound_ID>  (689) 
CHEMBL607196

>  <Molecule Name>  (689) 
nan

>  <Molecular Weight>  (689) 
380.45

>  <AlogP>  (689) 
4.53

>  <Smiles>  (689) 
O=C1Nc2ccccc2/C1=C1\C(=O)N(CCCc2ccccc2)c2ccccc21

>  <Standard Type>  (689) 
Inhibition

>  <Standard Relation>  (689) 
'='

>  <Standard Units>  (689) 
%

>  <Standard Value>  (689) 
0.0

>  <Assay ChEMBL ID>  (689) 
CHEMBL1066072

>  <Assay Description>  (689) 
Inhibition of MET at 10 uM

>  <BAO Format ID>  (689) 
BAO_0000357

>  <BAO Label>  (689) 
single protein format

>  <Assay Organism>  (689) 
None

>  <Target ChEMBL ID>  (689) 
CHEMBL3717

>  <Target Name>  (689) 
Hepatocyte growth factor receptor

>  <Target Organism>  (689) 
Homo sapiens

>  <Target Type>  (689) 
SINGLE PROTEIN

>  <Document ChEMBL ID>  (689) 
CHEMBL1152632

>  <Source Description>  (689) 
Scientific Literature

>  <Document Journal>  (689) 
Bioorg Med Chem

>  <Document Year>  (689) 
2009.0

>  <Active>  (689) 
0.0

$$$$

     RDKit          2D

 39 44  0  0  0  0  0  0  0  0999 V2000
    5.3011  -10.7993    0.0000 O   0  0  0  0  0  1  0  0  0  0  0  0
    5.1443   -9.3075    0.0000 S   0  0  0  0  0  3  0  0  0  0  0  0
    3.7740   -8.6974    0.0000 C   0  0  0  0  0  0  0  0  0  0  0  0
    3.6172   -7.2057    0.0000 C   0  0  0  0  0  0  0  0  0  0  0  0
    4.8308   -6.3240    0.0000 N   0  0  0  0  0  0  0  0  0  0  0  0
    4.6740   -4.8322    0.0000 C   0  0  0  0  0  0  0  0  0  0  0  0
    3.3037   -4.2221    0.0000 C   0  0  0  0  0  0  0  0  0  0  0  0
    2.0046   -4.9721    0.0000 C   0  0  0  0  0  0  0  0  0  0  0  0
    0.8899   -3.9684    0.0000 C   0  0  0  0  0  0  0  0  0  0  0  0
    1.5000   -2.5981    0.0000 C   0  0  0  0  0  0  0  0  0  0  0  0
    0.7500   -1.2990    0.0000 C   0  0  0  0  0  0  0  0  0  0  0  0
    1.5000    0.0000    0.0000 C   0  0  0  0  0  0  0  0  0  0  0  0
    0.7500    1.2990    0.0000 C   0  0  0  0  0  0  0  0  0  0  0  0
   -0.7500    1.2990    0.0000 C   0  0  0  0  0  0  0  0  0  0  0  0
   -1.5000    2.5981    0.0000 N   0  0  0  0  0  0  0  0  0  0  0  0
   -3.0000    2.5981    0.0000 C   0  0  0  0  0  0  0  0  0  0  0  0
   -3.7500    1.2990    0.0000 N   0  0  0  0  0  0  0  0  0  0  0  0
   -3.0000    0.0000    0.0000 C   0  0  0  0  0  0  0  0  0  0  0  0
   -3.7500   -1.2990    0.0000 N   0  0  0  0  0  0  0  0  0  0  0  0
   -5.2500   -1.2990    0.0000 C   0  0  0  0  0  0  0  0  0  0  0  0
   -6.0000    0.0000    0.0000 C   0  0  0  0  0  0  0  0  0  0  0  0
   -7.5000    0.0000    0.0000 C   0  0  0  0  0  0  0  0  0  0  0  0
   -8.2500   -1.2990    0.0000 C   0  0  0  0  0  0  0  0  0  0  0  0
   -9.7500   -1.2990    0.0000 O   0  0  0  0  0  0  0  0  0  0  0  0
  -10.5000    0.0000    0.0000 C   0  0  0  0  0  0  0  0  0  0  0  0
  -12.0000    0.0000    0.0000 C   0  0  0  0  0  0  0  0  0  0  0  0
  -12.7500    1.2990    0.0000 C   0  0  0  0  0  0  0  0  0  0  0  0
  -14.2500    1.2990    0.0000 C   0  0  0  0  0  0  0  0  0  0  0  0
  -15.0000    0.0000    0.0000 C   0  0  0  0  0  0  0  0  0  0  0  0
  -14.2500   -1.2990    0.0000 C   0  0  0  0  0  0  0  0  0  0  0  0
  -12.7500   -1.2990    0.0000 C   0  0  0  0  0  0  0  0  0  0  0  0
   -7.5000   -2.5981    0.0000 C   0  0  0  0  0  0  0  0  0  0  0  0
   -8.2500   -3.8971    0.0000 F   0  0  0  0  0  0  0  0  0  0  0  0
   -6.0000   -2.5981    0.0000 C   0  0  0  0  0  0  0  0  0  0  0  0
   -1.5000    0.0000    0.0000 C   0  0  0  0  0  0  0  0  0  0  0  0
   -0.7500   -1.2990    0.0000 C   0  0  0  0  0  0  0  0  0  0  0  0
    2.9918   -2.7549    0.0000 O   0  0  0  0  0  0  0  0  0  0  0  0
    6.2011   -6.9341    0.0000 C   0  0  0  0  0  0  0  0  0  0  0  0
    6.3579   -8.4259    0.0000 C   0  0  0  0  0  0  0  0  0  0  0  0
  1  2  1  0
  2  3  1  0
  3  4  1  0
  4  5  1  0
  5  6  1  0
  6  7  1  0
  7  8  2  0
  8  9  1  0
  9 10  2  0
 10 11  1  0
 11 12  2  0
 12 13  1  0
 13 14  2  0
 14 15  1  0
 15 16  2  0
 16 17  1  0
 17 18  2  0
 18 19  1  0
 19 20  1  0
 20 21  2  0
 21 22  1  0
 22 23  2  0
 23 24  1  0
 24 25  1  0
 25 26  1  0
 26 27  2  0
 27 28  1  0
 28 29  2  0
 29 30  1  0
 30 31  2  0
 23 32  1  0
 32 33  1  0
 32 34  2  0
 18 35  1  0
 35 36  2  0
 10 37  1  0
  5 38  1  0
 38 39  1  0
 39  2  1  0
 37  7  1  0
 36 11  1  0
 35 14  1  0
 34 20  1  0
 31 26  1  0
M  CHG  2   1  -1   2   1
M  END
>  <Compound_ID>  (690) 
CHEMBL1909391

>  <Molecule Name>  (690) 
GW576924A

>  <Molecular Weight>  (690) 
579.10

>  <AlogP>  (690) 
5.92

>  <Smiles>  (690) 
[O-][S+]1CCN(Cc2ccc(-c3ccc4ncnc(Nc5ccc(OCc6ccccc6)c(F)c5)c4c3)o2)CC1

>  <Standard Type>  (690) 
Inhibition

>  <Standard Relation>  (690) 
'='

>  <Standard Units>  (690) 
%

>  <Standard Value>  (690) 
6.51

>  <Assay ChEMBL ID>  (690) 
CHEMBL1962142

>  <Assay Description>  (690) 
GSK_PKIS: MET mean inhibition at 0.1 uM [Nanosyn]

>  <BAO Format ID>  (690) 
BAO_0000357

>  <BAO Label>  (690) 
single protein format

>  <Assay Organism>  (690) 
None

>  <Target ChEMBL ID>  (690) 
CHEMBL3717

>  <Target Name>  (690) 
Hepatocyte growth factor receptor

>  <Target Organism>  (690) 
Homo sapiens

>  <Target Type>  (690) 
SINGLE PROTEIN

>  <Document ChEMBL ID>  (690) 
CHEMBL1961873

>  <Source Description>  (690) 
GSK Published Kinase Inhibitor Set

>  <Document Journal>  (690) 
nan

>  <Document Year>  (690) 
nan

>  <Active>  (690) 
0.0

$$$$

     RDKit          2D

 21 23  0  0  0  0  0  0  0  0999 V2000
    3.0000    0.0000    0.0000 Cl  0  0  0  0  0  0  0  0  0  0  0  0
    1.5000    0.0000    0.0000 C   0  0  0  0  0  0  0  0  0  0  0  0
    0.7500   -1.2990    0.0000 C   0  0  0  0  0  0  0  0  0  0  0  0
   -0.7500   -1.2990    0.0000 C   0  0  0  0  0  0  0  0  0  0  0  0
   -1.5000    0.0000    0.0000 C   0  0  0  0  0  0  0  0  0  0  0  0
   -0.7500    1.2990    0.0000 C   0  0  0  0  0  0  0  0  0  0  0  0
   -1.5000    2.5981    0.0000 N   0  0  0  0  0  0  0  0  0  0  0  0
   -0.7500    3.8971    0.0000 C   0  0  0  0  0  0  0  0  0  0  0  0
    0.7500    3.8971    0.0000 N   0  0  0  0  0  0  0  0  0  0  0  0
    1.5000    5.1962    0.0000 C   0  0  0  0  0  0  0  0  0  0  0  0
    3.0000    5.1962    0.0000 N   0  0  0  0  0  0  0  0  0  0  0  0
    3.7500    3.8971    0.0000 C   0  0  0  0  0  0  0  0  0  0  0  0
    5.2418    3.7403    0.0000 C   0  0  0  0  0  0  0  0  0  0  0  0
    5.5537    2.2731    0.0000 N   0  0  0  0  0  0  0  0  0  0  0  0
    4.2546    1.5231    0.0000 N   0  0  0  0  0  0  0  0  0  0  0  0
    3.1399    2.5268    0.0000 C   0  0  0  0  0  0  0  0  0  0  0  0
    0.7500    6.4952    0.0000 N   0  0  0  0  0  0  0  0  0  0  0  0
   -0.7500    6.4952    0.0000 C   0  0  0  0  0  0  0  0  0  0  0  0
   -1.5000    5.1962    0.0000 C   0  0  0  0  0  0  0  0  0  0  0  0
   -3.0000    5.1962    0.0000 Cl  0  0  0  0  0  0  0  0  0  0  0  0
    0.7500    1.2990    0.0000 C   0  0  0  0  0  0  0  0  0  0  0  0
  1  2  1  0
  2  3  2  0
  3  4  1  0
  4  5  2  0
  5  6  1  0
  6  7  1  0
  7  8  1  0
  8  9  2  0
  9 10  1  0
 10 11  1  0
 11 12  1  0
 12 13  1  0
 13 14  2  0
 14 15  1  0
 15 16  1  0
 10 17  2  0
 17 18  1  0
 18 19  2  0
 19 20  1  0
  6 21  2  0
 21  2  1  0
 19  8  1  0
 16 12  2  0
M  END
>  <Compound_ID>  (691) 
CHEMBL4453646

>  <Molecule Name>  (691) 
nan

>  <Molecular Weight>  (691) 
321.17

>  <AlogP>  (691) 
3.99

>  <Smiles>  (691) 
Clc1cccc(Nc2nc(Nc3cn[nH]c3)ncc2Cl)c1

>  <Standard Type>  (691) 
Inhibition

>  <Standard Relation>  (691) 
'='

>  <Standard Units>  (691) 
%

>  <Standard Value>  (691) 
17.9

>  <Assay ChEMBL ID>  (691) 
CHEMBL4431279

>  <Assay Description>  (691) 
Inhibition of c-Met (unknown origin) at 20 nM relative to control

>  <BAO Format ID>  (691) 
BAO_0000357

>  <BAO Label>  (691) 
single protein format

>  <Assay Organism>  (691) 
Homo sapiens

>  <Target ChEMBL ID>  (691) 
CHEMBL3717

>  <Target Name>  (691) 
Hepatocyte growth factor receptor

>  <Target Organism>  (691) 
Homo sapiens

>  <Target Type>  (691) 
SINGLE PROTEIN

>  <Document ChEMBL ID>  (691) 
CHEMBL4428138

>  <Source Description>  (691) 
Scientific Literature

>  <Document Journal>  (691) 
ACS Med Chem Lett

>  <Document Year>  (691) 
2016.0

>  <Active>  (691) 
0.0

$$$$

     RDKit          2D

 31 34  0  0  0  0  0  0  0  0999 V2000
   10.5000   -7.7942    0.0000 C   0  0  0  0  0  0  0  0  0  0  0  0
    9.7500   -6.4952    0.0000 C   0  0  0  0  0  0  0  0  0  0  0  0
    8.2500   -6.4952    0.0000 C   0  0  0  0  0  0  0  0  0  0  0  0
    7.5000   -7.7942    0.0000 O   0  0  0  0  0  0  0  0  0  0  0  0
    7.5000   -5.1962    0.0000 N   0  0  0  0  0  0  0  0  0  0  0  0
    6.0000   -5.1962    0.0000 C   0  0  0  0  0  0  0  0  0  0  0  0
    5.2500   -6.4952    0.0000 C   0  0  0  0  0  0  0  0  0  0  0  0
    3.7500   -6.4952    0.0000 C   0  0  0  0  0  0  0  0  0  0  0  0
    3.0000   -5.1962    0.0000 C   0  0  0  0  0  0  0  0  0  0  0  0
    3.7500   -3.8971    0.0000 C   0  0  0  0  0  0  0  0  0  0  0  0
    3.0000   -2.5981    0.0000 O   0  0  0  0  0  0  0  0  0  0  0  0
    1.5000   -2.5981    0.0000 C   0  0  0  0  0  0  0  0  0  0  0  0
    0.7500   -3.8971    0.0000 N   0  0  0  0  0  0  0  0  0  0  0  0
   -0.7500   -3.8971    0.0000 C   0  0  0  0  0  0  0  0  0  0  0  0
   -1.5000   -5.1962    0.0000 N   0  0  0  0  0  0  0  0  0  0  0  0
   -3.0000   -5.1962    0.0000 C   0  0  0  0  0  0  0  0  0  0  0  0
   -3.7500   -3.8971    0.0000 C   0  0  0  0  0  0  0  0  0  0  0  0
   -5.2500   -3.8971    0.0000 C   0  0  0  0  0  0  0  0  0  0  0  0
   -6.0000   -5.1962    0.0000 C   0  0  0  0  0  0  0  0  0  0  0  0
   -7.5000   -5.1962    0.0000 O   0  0  0  0  0  0  0  0  0  0  0  0
   -8.2500   -3.8971    0.0000 C   0  0  0  0  0  0  0  0  0  0  0  0
   -5.2500   -6.4952    0.0000 C   0  0  0  0  0  0  0  0  0  0  0  0
   -3.7500   -6.4952    0.0000 C   0  0  0  0  0  0  0  0  0  0  0  0
   -1.5000   -2.5981    0.0000 N   0  0  0  0  0  0  0  0  0  0  0  0
   -0.7500   -1.2990    0.0000 C   0  0  0  0  0  0  0  0  0  0  0  0
    0.7500   -1.2990    0.0000 C   0  0  0  0  0  0  0  0  0  0  0  0
    1.5000    0.0000    0.0000 C   0  0  0  0  0  0  0  0  0  0  0  0
    0.7500    1.2990    0.0000 S   0  0  0  0  0  0  0  0  0  0  0  0
   -0.7500    1.2990    0.0000 C   0  0  0  0  0  0  0  0  0  0  0  0
   -1.5000    0.0000    0.0000 C   0  0  0  0  0  0  0  0  0  0  0  0
    5.2500   -3.8971    0.0000 C   0  0  0  0  0  0  0  0  0  0  0  0
  1  2  2  0
  2  3  1  0
  3  4  2  0
  3  5  1  0
  5  6  1  0
  6  7  2  0
  7  8  1  0
  8  9  2  0
  9 10  1  0
 10 11  1  0
 11 12  1  0
 12 13  2  0
 13 14  1  0
 14 15  1  0
 15 16  1  0
 16 17  2  0
 17 18  1  0
 18 19  2  0
 19 20  1  0
 20 21  1  0
 19 22  1  0
 22 23  2  0
 14 24  2  0
 24 25  1  0
 25 26  2  0
 26 27  1  0
 27 28  1  0
 28 29  1  0
 29 30  1  0
 10 31  2  0
 31  6  1  0
 26 12  1  0
 23 16  1  0
 30 25  1  0
M  END
>  <Compound_ID>  (692) 
CHEMBL4780534

>  <Molecule Name>  (692) 
nan

>  <Molecular Weight>  (692) 
434.52

>  <AlogP>  (692) 
4.93

>  <Smiles>  (692) 
C=CC(=O)Nc1cccc(Oc2nc(Nc3ccc(OC)cc3)nc3c2CSCC3)c1

>  <Standard Type>  (692) 
Inhibition

>  <Standard Relation>  (692) 
'='

>  <Standard Units>  (692) 
%

>  <Standard Value>  (692) 
0.5

>  <Assay ChEMBL ID>  (692) 
CHEMBL4730210

>  <Assay Description>  (692) 
Inhibition of C-MET (unknown origin) at 1 uM relative to control

>  <BAO Format ID>  (692) 
BAO_0000357

>  <BAO Label>  (692) 
single protein format

>  <Assay Organism>  (692) 
Homo sapiens

>  <Target ChEMBL ID>  (692) 
CHEMBL3717

>  <Target Name>  (692) 
Hepatocyte growth factor receptor

>  <Target Organism>  (692) 
Homo sapiens

>  <Target Type>  (692) 
SINGLE PROTEIN

>  <Document ChEMBL ID>  (692) 
CHEMBL4725402

>  <Source Description>  (692) 
Scientific Literature

>  <Document Journal>  (692) 
Bioorg Med Chem

>  <Document Year>  (692) 
2020.0

>  <Active>  (692) 
0.0

$$$$

     RDKit          2D

 14 15  0  0  0  0  0  0  0  0999 V2000
    3.0000    0.0000    0.0000 C   0  0  0  0  0  0  0  0  0  0  0  0
    1.5000    0.0000    0.0000 C   0  0  0  0  0  0  0  0  0  0  0  0
    0.7500   -1.2990    0.0000 C   0  0  0  0  0  0  0  0  0  0  0  0
   -0.7500   -1.2990    0.0000 C   0  0  0  0  0  0  0  0  0  0  0  0
   -1.5000   -2.5981    0.0000 N   0  0  0  0  0  0  0  0  0  0  0  0
   -3.0000   -2.5981    0.0000 C   0  0  0  0  0  0  0  0  0  0  0  0
   -3.7500   -3.8971    0.0000 N   0  0  0  0  0  0  0  0  0  0  0  0
   -3.7500   -1.2990    0.0000 N   0  0  0  0  0  0  0  0  0  0  0  0
   -3.0000    0.0000    0.0000 C   0  0  0  0  0  0  0  0  0  0  0  0
   -3.7500    1.2990    0.0000 N   0  0  0  0  0  0  0  0  0  0  0  0
   -1.5000    0.0000    0.0000 C   0  0  0  0  0  0  0  0  0  0  0  0
   -0.7500    1.2990    0.0000 C   0  0  0  0  0  0  0  0  0  0  0  0
   -1.5000    2.5981    0.0000 O   0  0  0  0  0  0  0  0  0  0  0  0
    0.7500    1.2990    0.0000 N   0  0  0  0  0  0  0  0  0  0  0  0
  1  2  1  0
  2  3  2  0
  3  4  1  0
  4  5  2  0
  5  6  1  0
  6  7  1  0
  6  8  2  0
  8  9  1  0
  9 10  1  0
  9 11  2  0
 11 12  1  0
 12 13  2  0
 12 14  1  0
 14  2  1  0
 11  4  1  0
M  END
>  <Compound_ID>  (693) 
CHEMBL1813805

>  <Molecule Name>  (693) 
nan

>  <Molecular Weight>  (693) 
191.19

>  <AlogP>  (693) 
-0.21

>  <Smiles>  (693) 
Cc1cc2nc(N)nc(N)c2c(=O)[nH]1

>  <Standard Type>  (693) 
Inhibition

>  <Standard Relation>  (693) 
'='

>  <Standard Units>  (693) 
%

>  <Standard Value>  (693) 
4.0

>  <Assay ChEMBL ID>  (693) 
CHEMBL1815730

>  <Assay Description>  (693) 
Inhibition of MET at 30 uM by microfluidic mobility shift assay

>  <BAO Format ID>  (693) 
BAO_0000357

>  <BAO Label>  (693) 
single protein format

>  <Assay Organism>  (693) 
None

>  <Target ChEMBL ID>  (693) 
CHEMBL3717

>  <Target Name>  (693) 
Hepatocyte growth factor receptor

>  <Target Organism>  (693) 
Homo sapiens

>  <Target Type>  (693) 
SINGLE PROTEIN

>  <Document ChEMBL ID>  (693) 
CHEMBL1811853

>  <Source Description>  (693) 
Scientific Literature

>  <Document Journal>  (693) 
Bioorg Med Chem

>  <Document Year>  (693) 
2011.0

>  <Active>  (693) 
0.0

$$$$

     RDKit          2D

 21 24  0  0  0  0  0  0  0  0999 V2000
   -5.4933   -4.1162    0.0000 C   0  0  0  0  0  0  0  0  0  0  0  0
   -5.1814   -2.6490    0.0000 C   0  0  0  0  0  0  0  0  0  0  0  0
   -3.7548   -2.1855    0.0000 C   0  0  0  0  0  0  0  0  0  0  0  0
   -2.6401   -3.1891    0.0000 C   0  0  0  0  0  0  0  0  0  0  0  0
   -1.2135   -2.7256    0.0000 C   0  0  0  0  0  0  0  0  0  0  0  0
   -0.0000   -3.6073    0.0000 C   0  0  0  0  0  0  0  0  0  0  0  0
    1.2135   -2.7256    0.0000 N   0  0  0  0  0  0  0  0  0  0  0  0
    0.7500   -1.2990    0.0000 C   0  0  0  0  0  0  0  0  0  0  0  0
    1.5000    0.0000    0.0000 C   0  0  0  0  0  0  0  0  0  0  0  0
    0.7500    1.2990    0.0000 N   0  0  0  0  0  0  0  0  0  0  0  0
   -0.7500    1.2990    0.0000 C   0  0  0  0  0  0  0  0  0  0  0  0
   -1.5000    2.5981    0.0000 C   0  0  0  0  0  0  0  0  0  0  0  0
   -0.7500    3.8971    0.0000 C   0  0  0  0  0  0  0  0  0  0  0  0
   -1.5000    5.1962    0.0000 C   0  0  0  0  0  0  0  0  0  0  0  0
   -3.0000    5.1962    0.0000 N   0  0  0  0  0  0  0  0  0  0  0  0
   -3.7500    3.8971    0.0000 C   0  0  0  0  0  0  0  0  0  0  0  0
   -3.0000    2.5981    0.0000 C   0  0  0  0  0  0  0  0  0  0  0  0
   -1.5000    0.0000    0.0000 C   0  0  0  0  0  0  0  0  0  0  0  0
   -0.7500   -1.2990    0.0000 N   0  0  0  0  0  0  0  0  0  0  0  0
   -2.9520   -4.6564    0.0000 C   0  0  0  0  0  0  0  0  0  0  0  0
   -4.3786   -5.1199    0.0000 C   0  0  0  0  0  0  0  0  0  0  0  0
  1  2  2  0
  2  3  1  0
  3  4  2  0
  4  5  1  0
  5  6  2  0
  6  7  1  0
  7  8  2  0
  8  9  1  0
  9 10  2  0
 10 11  1  0
 11 12  1  0
 12 13  2  0
 13 14  1  0
 14 15  2  0
 15 16  1  0
 16 17  2  0
 11 18  2  0
 18 19  1  0
  4 20  1  0
 20 21  2  0
 21  1  1  0
 19  5  1  0
 19  8  1  0
 17 12  1  0
M  END
>  <Compound_ID>  (694) 
CHEMBL1170317

>  <Molecule Name>  (694) 
nan

>  <Molecular Weight>  (694) 
272.31

>  <AlogP>  (694) 
3.46

>  <Smiles>  (694) 
c1ccc(-c2cnc3cnc(-c4ccncc4)cn23)cc1

>  <Standard Type>  (694) 
Inhibition

>  <Standard Relation>  (694) 
'='

>  <Standard Units>  (694) 
%

>  <Standard Value>  (694) 
-2.0

>  <Assay ChEMBL ID>  (694) 
CHEMBL1173995

>  <Assay Description>  (694) 
Inhibition of MET at 10 uM by mobility shift assay

>  <BAO Format ID>  (694) 
BAO_0000357

>  <BAO Label>  (694) 
single protein format

>  <Assay Organism>  (694) 
None

>  <Target ChEMBL ID>  (694) 
CHEMBL3717

>  <Target Name>  (694) 
Hepatocyte growth factor receptor

>  <Target Organism>  (694) 
Homo sapiens

>  <Target Type>  (694) 
SINGLE PROTEIN

>  <Document ChEMBL ID>  (694) 
CHEMBL1177828

>  <Source Description>  (694) 
Scientific Literature

>  <Document Journal>  (694) 
Bioorg Med Chem Lett

>  <Document Year>  (694) 
2010.0

>  <Active>  (694) 
0.0

$$$$

     RDKit          2D

 33 37  0  0  0  0  0  0  0  0999 V2000
   -7.5000  -18.1865    0.0000 C   0  0  0  0  0  0  0  0  0  0  0  0
   -6.0000  -18.1865    0.0000 O   0  0  0  0  0  0  0  0  0  0  0  0
   -5.2500  -16.8875    0.0000 C   0  0  0  0  0  0  0  0  0  0  0  0
   -6.0000  -15.5885    0.0000 C   0  0  0  0  0  0  0  0  0  0  0  0
   -5.2500  -14.2894    0.0000 C   0  0  0  0  0  0  0  0  0  0  0  0
   -3.7500  -14.2894    0.0000 C   0  0  0  0  0  0  0  0  0  0  0  0
   -3.0000  -12.9904    0.0000 C   0  0  0  0  0  0  0  0  0  0  0  0
   -1.5000  -12.9904    0.0000 C   0  0  0  0  0  0  0  0  0  0  0  0
   -0.7500  -11.6913    0.0000 N   0  0  0  0  0  0  0  0  0  0  0  0
    0.7500  -11.6913    0.0000 C   0  0  0  0  0  0  0  0  0  0  0  0
    1.5000  -10.3923    0.0000 C   0  0  0  0  0  0  0  0  0  0  0  0
    0.7500   -9.0933    0.0000 C   0  0  0  0  0  0  0  0  0  0  0  0
    1.5000   -7.7942    0.0000 N   0  0  0  0  0  0  0  0  0  0  0  0
    0.7500   -6.4952    0.0000 C   0  0  0  0  0  0  0  0  0  0  0  0
    1.5000   -5.1962    0.0000 N   0  0  0  0  0  0  0  0  0  0  0  0
    0.7500   -3.8971    0.0000 C   0  0  0  0  0  0  0  0  0  0  0  0
    1.5000   -2.5981    0.0000 N   0  0  0  0  0  0  0  0  0  0  0  0
    0.7500   -1.2990    0.0000 C   0  0  0  0  0  0  0  0  0  0  0  0
    1.5000    0.0000    0.0000 C   0  0  0  0  0  0  0  0  0  0  0  0
    0.7500    1.2990    0.0000 C   0  0  0  0  0  0  0  0  0  0  0  0
   -0.7500    1.2990    0.0000 C   0  0  0  0  0  0  0  0  0  0  0  0
   -1.5000    2.5981    0.0000 C   0  0  0  0  0  0  0  0  0  0  0  0
   -1.5000    0.0000    0.0000 C   0  0  0  0  0  0  0  0  0  0  0  0
   -0.7500   -1.2990    0.0000 C   0  0  0  0  0  0  0  0  0  0  0  0
   -1.5000   -2.5981    0.0000 N   0  0  0  0  0  0  0  0  0  0  0  0
   -0.7500   -3.8971    0.0000 C   0  0  0  0  0  0  0  0  0  0  0  0
   -1.5000   -5.1962    0.0000 C   0  0  0  0  0  0  0  0  0  0  0  0
   -3.0000   -5.1962    0.0000 O   0  0  0  0  0  0  0  0  0  0  0  0
   -0.7500   -6.4952    0.0000 N   0  0  0  0  0  0  0  0  0  0  0  0
   -0.7500   -9.0933    0.0000 C   0  0  0  0  0  0  0  0  0  0  0  0
   -1.5000  -10.3923    0.0000 C   0  0  0  0  0  0  0  0  0  0  0  0
   -3.0000  -15.5885    0.0000 C   0  0  0  0  0  0  0  0  0  0  0  0
   -3.7500  -16.8875    0.0000 C   0  0  0  0  0  0  0  0  0  0  0  0
  1  2  1  0
  2  3  1  0
  3  4  2  0
  4  5  1  0
  5  6  2  0
  6  7  1  0
  7  8  1  0
  8  9  1  0
  9 10  1  0
 10 11  1  0
 11 12  1  0
 12 13  1  0
 13 14  1  0
 14 15  2  0
 15 16  1  0
 16 17  2  0
 17 18  1  0
 18 19  2  0
 19 20  1  0
 20 21  2  0
 21 22  1  0
 21 23  1  0
 23 24  2  0
 24 25  1  0
 25 26  2  0
 26 27  1  0
 27 28  2  0
 27 29  1  0
 12 30  1  0
 30 31  1  0
  6 32  1  0
 32 33  2  0
 33  3  1  0
 31  9  1  0
 29 14  1  0
 26 16  1  0
 24 18  1  0
M  END
>  <Compound_ID>  (695) 
CHEMBL4167512

>  <Molecule Name>  (695) 
nan

>  <Molecular Weight>  (695) 
444.54

>  <AlogP>  (695) 
3.30

>  <Smiles>  (695) 
COc1ccc(CCN2CCC(Nc3nc4nc5ccc(C)cc5nc4c(=O)[nH]3)CC2)cc1

>  <Standard Type>  (695) 
Inhibition

>  <Standard Relation>  (695) 
'='

>  <Standard Units>  (695) 
%

>  <Standard Value>  (695) 
7.0

>  <Assay ChEMBL ID>  (695) 
CHEMBL4153883

>  <Assay Description>  (695) 
Inhibition of MET (unknown origin) at 10 uM by [33P]-ATP radiometric assay

>  <BAO Format ID>  (695) 
BAO_0000357

>  <BAO Label>  (695) 
single protein format

>  <Assay Organism>  (695) 
Homo sapiens

>  <Target ChEMBL ID>  (695) 
CHEMBL3717

>  <Target Name>  (695) 
Hepatocyte growth factor receptor

>  <Target Organism>  (695) 
Homo sapiens

>  <Target Type>  (695) 
SINGLE PROTEIN

>  <Document ChEMBL ID>  (695) 
CHEMBL4152228

>  <Source Description>  (695) 
Scientific Literature

>  <Document Journal>  (695) 
Eur J Med Chem

>  <Document Year>  (695) 
2018.0

>  <Active>  (695) 
0.0

$$$$

     RDKit          2D

 29 32  0  0  0  0  0  0  0  0999 V2000
    3.7500   -1.2990    0.0000 C   0  0  0  0  0  0  0  0  0  0  0  0
    3.0000    0.0000    0.0000 O   0  0  0  0  0  0  0  0  0  0  0  0
    1.5000    0.0000    0.0000 C   0  0  0  0  0  0  0  0  0  0  0  0
    0.7500   -1.2990    0.0000 C   0  0  0  0  0  0  0  0  0  0  0  0
   -0.7500   -1.2990    0.0000 C   0  0  0  0  0  0  0  0  0  0  0  0
   -1.5000    0.0000    0.0000 C   0  0  0  0  0  0  0  0  0  0  0  0
   -2.9672    0.3119    0.0000 N   0  0  0  0  0  0  0  0  0  0  0  0
   -3.1240    1.8037    0.0000 C   0  0  0  0  0  0  0  0  0  0  0  0
   -1.7537    2.4138    0.0000 N   0  0  0  0  0  0  0  0  0  0  0  0
   -1.4418    3.8810    0.0000 C   0  0  0  0  0  0  0  0  0  0  0  0
   -2.4455    4.9957    0.0000 C   0  0  0  0  0  0  0  0  0  0  0  0
   -1.6955    6.2947    0.0000 C   0  0  0  0  0  0  0  0  0  0  0  0
   -2.3056    7.6651    0.0000 O   0  0  0  0  0  0  0  0  0  0  0  0
   -3.7974    7.8218    0.0000 C   0  0  0  0  0  0  0  0  0  0  0  0
   -4.4075    9.1922    0.0000 C   0  0  0  0  0  0  0  0  0  0  0  0
   -4.6791    6.6083    0.0000 C   0  0  0  0  0  0  0  0  0  0  0  0
   -4.0690    5.2380    0.0000 C   0  0  0  0  0  0  0  0  0  0  0  0
   -4.9507    4.0245    0.0000 C   0  0  0  0  0  0  0  0  0  0  0  0
   -6.4424    4.1813    0.0000 C   0  0  0  0  0  0  0  0  0  0  0  0
   -7.0526    5.5516    0.0000 C   0  0  0  0  0  0  0  0  0  0  0  0
   -6.1709    6.7651    0.0000 C   0  0  0  0  0  0  0  0  0  0  0  0
   -6.7810    8.1354    0.0000 Cl  0  0  0  0  0  0  0  0  0  0  0  0
   -0.2283    5.9829    0.0000 C   0  0  0  0  0  0  0  0  0  0  0  0
    0.8864    6.9866    0.0000 C   0  0  0  0  0  0  0  0  0  0  0  0
    2.3130    6.5230    0.0000 N   0  0  0  0  0  0  0  0  0  0  0  0
    0.5745    8.4538    0.0000 O   0  0  0  0  0  0  0  0  0  0  0  0
   -0.0715    4.4911    0.0000 S   0  0  0  0  0  0  0  0  0  0  0  0
   -0.7500    1.2990    0.0000 C   0  0  0  0  0  0  0  0  0  0  0  0
    0.7500    1.2990    0.0000 C   0  0  0  0  0  0  0  0  0  0  0  0
  1  2  1  0
  2  3  1  0
  3  4  2  0
  4  5  1  0
  5  6  2  0
  6  7  1  0
  7  8  2  0
  8  9  1  0
  9 10  1  0
 10 11  2  0
 11 12  1  0
 12 13  1  0
 13 14  1  0
 14 15  1  1
 14 16  1  0
 16 17  2  0
 17 18  1  0
 18 19  2  0
 19 20  1  0
 20 21  2  0
 21 22  1  0
 12 23  2  0
 23 24  1  0
 24 25  1  0
 24 26  2  0
 23 27  1  0
  9 28  1  0
 28 29  2  0
 29  3  1  0
 28  6  1  0
 27 10  1  0
 21 16  1  0
M  END
>  <Compound_ID>  (696) 
CHEMBL493326

>  <Molecule Name>  (696) 
GSK-317314A

>  <Molecular Weight>  (696) 
427.91

>  <AlogP>  (696) 
4.99

>  <Smiles>  (696) 
COc1ccc2ncn(-c3cc(O[C@H](C)c4ccccc4Cl)c(C(N)=O)s3)c2c1

>  <Standard Type>  (696) 
Inhibition

>  <Standard Relation>  (696) 
'='

>  <Standard Units>  (696) 
%

>  <Standard Value>  (696) 
4.23

>  <Assay ChEMBL ID>  (696) 
CHEMBL1962143

>  <Assay Description>  (696) 
GSK_PKIS: MET mean inhibition at 1 uM [Nanosyn]

>  <BAO Format ID>  (696) 
BAO_0000357

>  <BAO Label>  (696) 
single protein format

>  <Assay Organism>  (696) 
None

>  <Target ChEMBL ID>  (696) 
CHEMBL3717

>  <Target Name>  (696) 
Hepatocyte growth factor receptor

>  <Target Organism>  (696) 
Homo sapiens

>  <Target Type>  (696) 
SINGLE PROTEIN

>  <Document ChEMBL ID>  (696) 
CHEMBL1961873

>  <Source Description>  (696) 
GSK Published Kinase Inhibitor Set

>  <Document Journal>  (696) 
nan

>  <Document Year>  (696) 
nan

>  <Active>  (696) 
0.0

$$$$

     RDKit          2D

 28 31  0  0  0  0  0  0  0  0999 V2000
   -2.0143    8.6263    0.0000 C   0  0  0  0  0  0  0  0  0  0  0  0
   -3.4408    8.1628    0.0000 C   0  0  0  0  0  0  0  0  0  0  0  0
   -3.7527    6.6955    0.0000 C   0  0  0  0  0  0  0  0  0  0  0  0
   -2.6380    5.6918    0.0000 C   0  0  0  0  0  0  0  0  0  0  0  0
   -1.2114    6.1554    0.0000 O   0  0  0  0  0  0  0  0  0  0  0  0
   -2.9499    4.2246    0.0000 N   0  0  0  0  0  0  0  0  0  0  0  0
   -1.8351    3.2209    0.0000 C   0  0  0  0  0  0  0  0  0  0  0  0
   -0.4086    3.6844    0.0000 C   0  0  0  0  0  0  0  0  0  0  0  0
    0.7062    2.6807    0.0000 C   0  0  0  0  0  0  0  0  0  0  0  0
    0.3943    1.2135    0.0000 C   0  0  0  0  0  0  0  0  0  0  0  0
    1.2760    0.0000    0.0000 N   0  0  0  0  0  0  0  0  0  0  0  0
    0.3943   -1.2135    0.0000 N   0  0  0  0  0  0  0  0  0  0  0  0
   -1.0323   -0.7500    0.0000 C   0  0  0  0  0  0  0  0  0  0  0  0
   -1.0323    0.7500    0.0000 C   0  0  0  0  0  0  0  0  0  0  0  0
   -2.1470    1.7537    0.0000 C   0  0  0  0  0  0  0  0  0  0  0  0
   -5.1793    6.2320    0.0000 C   0  0  0  0  0  0  0  0  0  0  0  0
   -5.4912    4.7648    0.0000 C   0  0  0  0  0  0  0  0  0  0  0  0
   -6.9177    4.3013    0.0000 C   0  0  0  0  0  0  0  0  0  0  0  0
   -7.2296    2.8340    0.0000 C   0  0  0  0  0  0  0  0  0  0  0  0
   -6.1149    1.8303    0.0000 C   0  0  0  0  0  0  0  0  0  0  0  0
   -6.4268    0.3631    0.0000 Cl  0  0  0  0  0  0  0  0  0  0  0  0
   -4.6883    2.2939    0.0000 C   0  0  0  0  0  0  0  0  0  0  0  0
   -3.5736    1.2902    0.0000 Cl  0  0  0  0  0  0  0  0  0  0  0  0
   -4.3764    3.7611    0.0000 C   0  0  0  0  0  0  0  0  0  0  0  0
   -6.2940    7.2357    0.0000 C   0  0  0  0  0  0  0  0  0  0  0  0
   -5.9821    8.7029    0.0000 C   0  0  0  0  0  0  0  0  0  0  0  0
   -7.0969    9.7066    0.0000 O   0  0  0  0  0  0  0  0  0  0  0  0
   -4.5556    9.1664    0.0000 N   0  0  0  0  0  0  0  0  0  0  0  0
  1  2  1  0
  2  3  2  0
  3  4  1  0
  4  5  2  0
  4  6  1  0
  6  7  1  0
  7  8  2  0
  8  9  1  0
  9 10  2  0
 10 11  1  0
 11 12  1  0
 12 13  2  0
 13 14  1  0
 14 15  2  0
  3 16  1  0
 16 17  1  0
 17 18  2  0
 18 19  1  0
 19 20  2  0
 20 21  1  0
 20 22  1  0
 22 23  1  0
 22 24  2  0
 16 25  1  0
 25 26  1  0
 26 27  2  0
 26 28  1  0
 28  2  1  0
 15  7  1  0
 24 17  1  0
 14 10  1  0
M  END
>  <Compound_ID>  (697) 
CHEMBL374453

>  <Molecule Name>  (697) 
GSK-299115A

>  <Molecular Weight>  (697) 
415.28

>  <AlogP>  (697) 
4.39

>  <Smiles>  (697) 
CC1=C(C(=O)Nc2ccc3[nH]ncc3c2)C(c2ccc(Cl)c(Cl)c2)CC(=O)N1

>  <Standard Type>  (697) 
Inhibition

>  <Standard Relation>  (697) 
'='

>  <Standard Units>  (697) 
%

>  <Standard Value>  (697) 
5.85

>  <Assay ChEMBL ID>  (697) 
CHEMBL1962143

>  <Assay Description>  (697) 
GSK_PKIS: MET mean inhibition at 1 uM [Nanosyn]

>  <BAO Format ID>  (697) 
BAO_0000357

>  <BAO Label>  (697) 
single protein format

>  <Assay Organism>  (697) 
None

>  <Target ChEMBL ID>  (697) 
CHEMBL3717

>  <Target Name>  (697) 
Hepatocyte growth factor receptor

>  <Target Organism>  (697) 
Homo sapiens

>  <Target Type>  (697) 
SINGLE PROTEIN

>  <Document ChEMBL ID>  (697) 
CHEMBL1961873

>  <Source Description>  (697) 
GSK Published Kinase Inhibitor Set

>  <Document Journal>  (697) 
nan

>  <Document Year>  (697) 
nan

>  <Active>  (697) 
0.0

$$$$

     RDKit          2D

 19 21  0  0  0  0  0  0  0  0999 V2000
    4.6740   -4.8322    0.0000 O   0  0  0  0  0  0  0  0  0  0  0  0
    3.3037   -4.2221    0.0000 C   0  0  0  0  0  0  0  0  0  0  0  0
    2.9918   -2.7549    0.0000 O   0  0  0  0  0  0  0  0  0  0  0  0
    1.5000   -2.5981    0.0000 C   0  0  0  0  0  0  0  0  0  0  0  0
    0.7500   -1.2990    0.0000 C   0  0  0  0  0  0  0  0  0  0  0  0
    1.5000    0.0000    0.0000 C   0  0  0  0  0  0  0  0  0  0  0  0
    0.7500    1.2990    0.0000 C   0  0  0  0  0  0  0  0  0  0  0  0
   -0.7500    1.2990    0.0000 C   0  0  0  0  0  0  0  0  0  0  0  0
   -1.5000    0.0000    0.0000 C   0  0  0  0  0  0  0  0  0  0  0  0
   -0.7500   -1.2990    0.0000 C   0  0  0  0  0  0  0  0  0  0  0  0
    0.8899   -3.9684    0.0000 N   0  0  0  0  0  0  0  0  0  0  0  0
    2.0046   -4.9721    0.0000 C   0  0  0  0  0  0  0  0  0  0  0  0
    1.8478   -6.4639    0.0000 C   0  0  0  0  0  0  0  0  0  0  0  0
    0.4775   -7.0740    0.0000 C   0  0  0  0  0  0  0  0  0  0  0  0
   -0.7360   -6.1923    0.0000 C   0  0  0  0  0  0  0  0  0  0  0  0
   -2.1063   -6.8024    0.0000 C   0  0  0  0  0  0  0  0  0  0  0  0
   -2.2631   -8.2942    0.0000 C   0  0  0  0  0  0  0  0  0  0  0  0
   -1.0496   -9.1759    0.0000 N   0  0  0  0  0  0  0  0  0  0  0  0
    0.3207   -8.5658    0.0000 C   0  0  0  0  0  0  0  0  0  0  0  0
  1  2  2  0
  2  3  1  0
  3  4  1  0
  4  5  1  0
  5  6  2  0
  6  7  1  0
  7  8  2  0
  8  9  1  0
  9 10  2  0
  4 11  2  0
 11 12  1  0
 12 13  2  0
 13 14  1  0
 14 15  2  0
 15 16  1  0
 16 17  2  0
 17 18  1  0
 18 19  2  0
 12  2  1  0
 19 14  1  0
 10  5  1  0
M  END
>  <Compound_ID>  (698) 
CHEMBL579387

>  <Molecule Name>  (698) 
nan

>  <Molecular Weight>  (698) 
250.26

>  <AlogP>  (698) 
2.43

>  <Smiles>  (698) 
O=C1OC(c2ccccc2)=N/C1=C\c1cccnc1

>  <Standard Type>  (698) 
Inhibition

>  <Standard Relation>  (698) 
'='

>  <Standard Units>  (698) 
%

>  <Standard Value>  (698) 
3.0

>  <Assay ChEMBL ID>  (698) 
CHEMBL1113454

>  <Assay Description>  (698) 
Inhibition of MET at 10 uM

>  <BAO Format ID>  (698) 
BAO_0000357

>  <BAO Label>  (698) 
single protein format

>  <Assay Organism>  (698) 
None

>  <Target ChEMBL ID>  (698) 
CHEMBL3717

>  <Target Name>  (698) 
Hepatocyte growth factor receptor

>  <Target Organism>  (698) 
Homo sapiens

>  <Target Type>  (698) 
SINGLE PROTEIN

>  <Document ChEMBL ID>  (698) 
CHEMBL1156313

>  <Source Description>  (698) 
Scientific Literature

>  <Document Journal>  (698) 
Bioorg Med Chem

>  <Document Year>  (698) 
2010.0

>  <Active>  (698) 
0.0

$$$$

     RDKit          2D

 21 24  0  0  0  0  0  0  0  0999 V2000
    0.7500   -6.4952    0.0000 O   0  0  0  0  0  0  0  0  0  0  0  0
    1.5000   -5.1962    0.0000 C   0  0  0  0  0  0  0  0  0  0  0  0
    3.0000   -5.1962    0.0000 C   0  0  0  0  0  0  0  0  0  0  0  0
    3.7500   -3.8971    0.0000 C   0  0  0  0  0  0  0  0  0  0  0  0
    5.2500   -3.8971    0.0000 N   0  0  0  0  0  0  0  0  0  0  0  0
    6.0000   -5.1962    0.0000 C   0  0  0  0  0  0  0  0  0  0  0  0
    7.5000   -5.1962    0.0000 C   0  0  0  0  0  0  0  0  0  0  0  0
    8.2500   -3.8971    0.0000 O   0  0  0  0  0  0  0  0  0  0  0  0
    7.5000   -2.5981    0.0000 C   0  0  0  0  0  0  0  0  0  0  0  0
    6.0000   -2.5981    0.0000 C   0  0  0  0  0  0  0  0  0  0  0  0
    3.0000   -2.5981    0.0000 N   0  0  0  0  0  0  0  0  0  0  0  0
    1.5000   -2.5981    0.0000 C   0  0  0  0  0  0  0  0  0  0  0  0
    0.7500   -1.2990    0.0000 C   0  0  0  0  0  0  0  0  0  0  0  0
    1.5000    0.0000    0.0000 C   0  0  0  0  0  0  0  0  0  0  0  0
    0.7500    1.2990    0.0000 C   0  0  0  0  0  0  0  0  0  0  0  0
   -0.7500    1.2990    0.0000 C   0  0  0  0  0  0  0  0  0  0  0  0
   -1.5000    0.0000    0.0000 C   0  0  0  0  0  0  0  0  0  0  0  0
   -0.7500   -1.2990    0.0000 C   0  0  0  0  0  0  0  0  0  0  0  0
   -1.5000   -2.5981    0.0000 C   0  0  0  0  0  0  0  0  0  0  0  0
   -0.7500   -3.8971    0.0000 C   0  0  0  0  0  0  0  0  0  0  0  0
    0.7500   -3.8971    0.0000 N   0  0  0  0  0  0  0  0  0  0  0  0
  1  2  2  0
  2  3  1  0
  3  4  2  0
  4  5  1  0
  5  6  1  0
  6  7  1  0
  7  8  1  0
  8  9  1  0
  9 10  1  0
  4 11  1  0
 11 12  2  0
 12 13  1  0
 13 14  2  0
 14 15  1  0
 15 16  2  0
 16 17  1  0
 17 18  2  0
 18 19  1  0
 19 20  2  0
 20 21  1  0
 21  2  1  0
 10  5  1  0
 21 12  1  0
 18 13  1  0
M  END
>  <Compound_ID>  (699) 
CHEMBL179242

>  <Molecule Name>  (699) 
nan

>  <Molecular Weight>  (699) 
281.31

>  <AlogP>  (699) 
1.68

>  <Smiles>  (699) 
O=c1cc(N2CCOCC2)nc2c3ccccc3ccn12

>  <Standard Type>  (699) 
Inhibition

>  <Standard Relation>  (699) 
'='

>  <Standard Units>  (699) 
%

>  <Standard Value>  (699) 
19.0

>  <Assay ChEMBL ID>  (699) 
CHEMBL941450

>  <Assay Description>  (699) 
Inhibition of MET at 5 uM

>  <BAO Format ID>  (699) 
BAO_0000357

>  <BAO Label>  (699) 
single protein format

>  <Assay Organism>  (699) 
None

>  <Target ChEMBL ID>  (699) 
CHEMBL3717

>  <Target Name>  (699) 
Hepatocyte growth factor receptor

>  <Target Organism>  (699) 
Homo sapiens

>  <Target Type>  (699) 
SINGLE PROTEIN

>  <Document ChEMBL ID>  (699) 
CHEMBL1156476

>  <Source Description>  (699) 
Scientific Literature

>  <Document Journal>  (699) 
J Biol Chem

>  <Document Year>  (699) 
2007.0

>  <Active>  (699) 
0.0

$$$$

     RDKit          2D

 18 20  0  0  0  0  0  0  0  0999 V2000
    3.0000    0.0000    0.0000 C   0  0  0  0  0  0  0  0  0  0  0  0
    1.5000    0.0000    0.0000 C   0  0  0  0  0  0  0  0  0  0  0  0
    0.7500   -1.2990    0.0000 C   0  0  0  0  0  0  0  0  0  0  0  0
   -0.7500   -1.2990    0.0000 C   0  0  0  0  0  0  0  0  0  0  0  0
   -1.7537   -2.4138    0.0000 N   0  0  0  0  0  0  0  0  0  0  0  0
   -3.1240   -1.8037    0.0000 N   0  0  0  0  0  0  0  0  0  0  0  0
   -4.4231   -2.5537    0.0000 C   0  0  0  0  0  0  0  0  0  0  0  0
   -5.7221   -1.8037    0.0000 C   0  0  0  0  0  0  0  0  0  0  0  0
   -7.0211   -2.5537    0.0000 C   0  0  0  0  0  0  0  0  0  0  0  0
   -7.0211   -4.0537    0.0000 C   0  0  0  0  0  0  0  0  0  0  0  0
   -5.7221   -4.8037    0.0000 C   0  0  0  0  0  0  0  0  0  0  0  0
   -4.4231   -4.0537    0.0000 C   0  0  0  0  0  0  0  0  0  0  0  0
   -2.9672   -0.3119    0.0000 C   0  0  0  0  0  0  0  0  0  0  0  0
   -4.0819    0.6918    0.0000 N   0  0  0  0  0  0  0  0  0  0  0  0
   -1.5000    0.0000    0.0000 C   0  0  0  0  0  0  0  0  0  0  0  0
   -0.7500    1.2990    0.0000 C   0  0  0  0  0  0  0  0  0  0  0  0
   -1.5000    2.5981    0.0000 O   0  0  0  0  0  0  0  0  0  0  0  0
    0.7500    1.2990    0.0000 N   0  0  0  0  0  0  0  0  0  0  0  0
  1  2  1  0
  2  3  2  0
  3  4  1  0
  4  5  2  0
  5  6  1  0
  6  7  1  0
  7  8  2  0
  8  9  1  0
  9 10  2  0
 10 11  1  0
 11 12  2  0
  6 13  1  0
 13 14  1  0
 13 15  2  0
 15 16  1  0
 16 17  2  0
 16 18  1  0
 18  2  1  0
 15  4  1  0
 12  7  1  0
M  END
>  <Compound_ID>  (700) 
CHEMBL1813788

>  <Molecule Name>  (700) 
nan

>  <Molecular Weight>  (700) 
240.27

>  <AlogP>  (700) 
1.60

>  <Smiles>  (700) 
Cc1cc2nn(-c3ccccc3)c(N)c2c(=O)[nH]1

>  <Standard Type>  (700) 
Inhibition

>  <Standard Relation>  (700) 
'='

>  <Standard Units>  (700) 
%

>  <Standard Value>  (700) 
9.0

>  <Assay ChEMBL ID>  (700) 
CHEMBL1815730

>  <Assay Description>  (700) 
Inhibition of MET at 30 uM by microfluidic mobility shift assay

>  <BAO Format ID>  (700) 
BAO_0000357

>  <BAO Label>  (700) 
single protein format

>  <Assay Organism>  (700) 
None

>  <Target ChEMBL ID>  (700) 
CHEMBL3717

>  <Target Name>  (700) 
Hepatocyte growth factor receptor

>  <Target Organism>  (700) 
Homo sapiens

>  <Target Type>  (700) 
SINGLE PROTEIN

>  <Document ChEMBL ID>  (700) 
CHEMBL1811853

>  <Source Description>  (700) 
Scientific Literature

>  <Document Journal>  (700) 
Bioorg Med Chem

>  <Document Year>  (700) 
2011.0

>  <Active>  (700) 
0.0

$$$$

     RDKit          2D

 31 34  0  0  0  0  0  0  0  0999 V2000
    1.3299    5.6152    0.0000 C   0  0  0  0  0  0  0  0  0  0  0  0
   -0.0967    5.1517    0.0000 O   0  0  0  0  0  0  0  0  0  0  0  0
   -0.4086    3.6844    0.0000 C   0  0  0  0  0  0  0  0  0  0  0  0
    0.7062    2.6807    0.0000 C   0  0  0  0  0  0  0  0  0  0  0  0
    0.3943    1.2135    0.0000 C   0  0  0  0  0  0  0  0  0  0  0  0
    1.2760    0.0000    0.0000 N   0  0  0  0  0  0  0  0  0  0  0  0
    0.3943   -1.2135    0.0000 C   0  0  0  0  0  0  0  0  0  0  0  0
   -1.0323   -0.7500    0.0000 N   0  0  0  0  0  0  0  0  0  0  0  0
   -2.2458   -1.6317    0.0000 C   0  0  0  0  0  0  0  0  0  0  0  0
   -2.2458   -3.1317    0.0000 C   0  0  0  0  0  0  0  0  0  0  0  0
   -3.6724   -3.5952    0.0000 C   0  0  0  0  0  0  0  0  0  0  0  0
   -4.1359   -5.0218    0.0000 O   0  0  0  0  0  0  0  0  0  0  0  0
   -3.1322   -6.1365    0.0000 C   0  0  0  0  0  0  0  0  0  0  0  0
   -3.5958   -7.5631    0.0000 C   0  0  0  0  0  0  0  0  0  0  0  0
   -1.6650   -5.8246    0.0000 C   0  0  0  0  0  0  0  0  0  0  0  0
   -1.2015   -4.3981    0.0000 C   0  0  0  0  0  0  0  0  0  0  0  0
    0.2657   -4.0862    0.0000 C   0  0  0  0  0  0  0  0  0  0  0  0
    1.2694   -5.2009    0.0000 C   0  0  0  0  0  0  0  0  0  0  0  0
    0.8059   -6.6275    0.0000 C   0  0  0  0  0  0  0  0  0  0  0  0
   -0.6613   -6.9394    0.0000 C   0  0  0  0  0  0  0  0  0  0  0  0
   -1.1248   -8.3659    0.0000 Cl  0  0  0  0  0  0  0  0  0  0  0  0
   -4.5541   -2.3817    0.0000 C   0  0  0  0  0  0  0  0  0  0  0  0
   -6.0541   -2.3817    0.0000 C   0  0  0  0  0  0  0  0  0  0  0  0
   -6.8041   -1.0826    0.0000 N   0  0  0  0  0  0  0  0  0  0  0  0
   -6.8041   -3.6807    0.0000 O   0  0  0  0  0  0  0  0  0  0  0  0
   -3.6724   -1.1682    0.0000 S   0  0  0  0  0  0  0  0  0  0  0  0
   -1.0323    0.7500    0.0000 C   0  0  0  0  0  0  0  0  0  0  0  0
   -2.1470    1.7537    0.0000 C   0  0  0  0  0  0  0  0  0  0  0  0
   -1.8351    3.2209    0.0000 C   0  0  0  0  0  0  0  0  0  0  0  0
   -2.9499    4.2246    0.0000 O   0  0  0  0  0  0  0  0  0  0  0  0
   -4.3764    3.7611    0.0000 C   0  0  0  0  0  0  0  0  0  0  0  0
  1  2  1  0
  2  3  1  0
  3  4  2  0
  4  5  1  0
  5  6  1  0
  6  7  2  0
  7  8  1  0
  8  9  1  0
  9 10  2  0
 10 11  1  0
 11 12  1  0
 12 13  1  0
 13 14  1  1
 13 15  1  0
 15 16  2  0
 16 17  1  0
 17 18  2  0
 18 19  1  0
 19 20  2  0
 20 21  1  0
 11 22  2  0
 22 23  1  0
 23 24  1  0
 23 25  2  0
 22 26  1  0
  8 27  1  0
 27 28  1  0
 28 29  2  0
 29 30  1  0
 30 31  1  0
 29  3  1  0
 27  5  2  0
 26  9  1  0
 20 15  1  0
M  END
>  <Compound_ID>  (701) 
CHEMBL222419

>  <Molecule Name>  (701) 
GSK-237701A

>  <Molecular Weight>  (701) 
457.94

>  <AlogP>  (701) 
5.00

>  <Smiles>  (701) 
COc1cc2ncn(-c3cc(O[C@H](C)c4ccccc4Cl)c(C(N)=O)s3)c2cc1OC

>  <Standard Type>  (701) 
Inhibition

>  <Standard Relation>  (701) 
'='

>  <Standard Units>  (701) 
%

>  <Standard Value>  (701) 
16.99

>  <Assay ChEMBL ID>  (701) 
CHEMBL1962143

>  <Assay Description>  (701) 
GSK_PKIS: MET mean inhibition at 1 uM [Nanosyn]

>  <BAO Format ID>  (701) 
BAO_0000357

>  <BAO Label>  (701) 
single protein format

>  <Assay Organism>  (701) 
None

>  <Target ChEMBL ID>  (701) 
CHEMBL3717

>  <Target Name>  (701) 
Hepatocyte growth factor receptor

>  <Target Organism>  (701) 
Homo sapiens

>  <Target Type>  (701) 
SINGLE PROTEIN

>  <Document ChEMBL ID>  (701) 
CHEMBL1961873

>  <Source Description>  (701) 
GSK Published Kinase Inhibitor Set

>  <Document Journal>  (701) 
nan

>  <Document Year>  (701) 
nan

>  <Active>  (701) 
0.0

$$$$

     RDKit          2D

 33 37  0  0  0  0  0  0  0  0999 V2000
    3.7500   -1.2990    0.0000 C   0  0  0  0  0  0  0  0  0  0  0  0
    3.0000    0.0000    0.0000 O   0  0  0  0  0  0  0  0  0  0  0  0
    1.5000    0.0000    0.0000 C   0  0  0  0  0  0  0  0  0  0  0  0
    0.7500   -1.2990    0.0000 C   0  0  0  0  0  0  0  0  0  0  0  0
   -0.7500   -1.2990    0.0000 C   0  0  0  0  0  0  0  0  0  0  0  0
   -1.5000    0.0000    0.0000 C   0  0  0  0  0  0  0  0  0  0  0  0
   -0.7500    1.2990    0.0000 C   0  0  0  0  0  0  0  0  0  0  0  0
    0.7500    1.2990    0.0000 C   0  0  0  0  0  0  0  0  0  0  0  0
    1.5000    2.5981    0.0000 O   0  0  0  0  0  0  0  0  0  0  0  0
    0.7500    3.8971    0.0000 C   0  0  0  0  0  0  0  0  0  0  0  0
    1.5000    5.1962    0.0000 N   0  0  0  0  0  0  0  0  0  0  0  0
    0.7500    6.4952    0.0000 C   0  0  0  0  0  0  0  0  0  0  0  0
   -0.7500    6.4952    0.0000 C   0  0  0  0  0  0  0  0  0  0  0  0
   -1.5000    5.1962    0.0000 C   0  0  0  0  0  0  0  0  0  0  0  0
   -3.0000    5.1962    0.0000 C   0  0  0  0  0  0  0  0  0  0  0  0
   -3.8817    3.9826    0.0000 C   0  0  0  0  0  0  0  0  0  0  0  0
   -3.4182    2.5560    0.0000 C   0  0  0  0  0  0  0  0  0  0  0  0
   -4.4218    1.4413    0.0000 C   0  0  0  0  0  0  0  0  0  0  0  0
   -3.9583    0.0147    0.0000 C   0  0  0  0  0  0  0  0  0  0  0  0
   -2.4911   -0.2971    0.0000 C   0  0  0  0  0  0  0  0  0  0  0  0
   -2.0276   -1.7237    0.0000 F   0  0  0  0  0  0  0  0  0  0  0  0
   -1.4874    0.8176    0.0000 C   0  0  0  0  0  0  0  0  0  0  0  0
   -1.9509    2.2442    0.0000 C   0  0  0  0  0  0  0  0  0  0  0  0
   -5.3083    4.4462    0.0000 N   0  0  0  0  0  0  0  0  0  0  0  0
   -5.3083    5.9462    0.0000 C   0  0  0  0  0  0  0  0  0  0  0  0
   -3.8817    6.4097    0.0000 N   0  0  0  0  0  0  0  0  0  0  0  0
   -3.4182    7.8363    0.0000 C   0  0  0  0  0  0  0  0  0  0  0  0
   -1.9509    8.1481    0.0000 C   0  0  0  0  0  0  0  0  0  0  0  0
   -1.4874    9.5747    0.0000 C   0  0  0  0  0  0  0  0  0  0  0  0
   -2.4911   10.6894    0.0000 N   0  0  0  0  0  0  0  0  0  0  0  0
   -3.9583   10.3776    0.0000 C   0  0  0  0  0  0  0  0  0  0  0  0
   -4.4218    8.9510    0.0000 C   0  0  0  0  0  0  0  0  0  0  0  0
   -0.7500    3.8971    0.0000 N   0  0  0  0  0  0  0  0  0  0  0  0
  1  2  1  0
  2  3  1  0
  3  4  2  0
  4  5  1  0
  5  6  2  0
  6  7  1  0
  7  8  2  0
  8  9  1  0
  9 10  1  0
 10 11  2  0
 11 12  1  0
 12 13  2  0
 13 14  1  0
 14 15  1  0
 15 16  2  0
 16 17  1  0
 17 18  2  0
 18 19  1  0
 19 20  2  0
 20 21  1  0
 20 22  1  0
 22 23  2  0
 16 24  1  0
 24 25  2  0
 25 26  1  0
 26 27  1  0
 27 28  1  0
 28 29  1  0
 29 30  1  0
 30 31  1  0
 31 32  1  0
 14 33  2  0
  8  3  1  0
 33 10  1  0
 26 15  1  0
 32 27  1  0
 23 17  1  0
M  END
>  <Compound_ID>  (702) 
CHEMBL417804

>  <Molecule Name>  (702) 
nan

>  <Molecular Weight>  (702) 
445.50

>  <AlogP>  (702) 
4.87

>  <Smiles>  (702) 
COc1ccccc1Oc1nccc(-c2c(-c3ccc(F)cc3)ncn2C2CCNCC2)n1

>  <Standard Type>  (702) 
Inhibition

>  <Standard Relation>  (702) 
'='

>  <Standard Units>  (702) 
%

>  <Standard Value>  (702) 
8.14

>  <Assay ChEMBL ID>  (702) 
CHEMBL1962143

>  <Assay Description>  (702) 
GSK_PKIS: MET mean inhibition at 1 uM [Nanosyn]

>  <BAO Format ID>  (702) 
BAO_0000357

>  <BAO Label>  (702) 
single protein format

>  <Assay Organism>  (702) 
None

>  <Target ChEMBL ID>  (702) 
CHEMBL3717

>  <Target Name>  (702) 
Hepatocyte growth factor receptor

>  <Target Organism>  (702) 
Homo sapiens

>  <Target Type>  (702) 
SINGLE PROTEIN

>  <Document ChEMBL ID>  (702) 
CHEMBL1961873

>  <Source Description>  (702) 
GSK Published Kinase Inhibitor Set

>  <Document Journal>  (702) 
nan

>  <Document Year>  (702) 
nan

>  <Active>  (702) 
0.0

$$$$

     RDKit          2D

 45 50  0  0  0  0  0  0  0  0999 V2000
    7.1181  -10.4063    0.0000 O   0  0  0  0  0  0  0  0  0  0  0  0
    7.7282   -9.0360    0.0000 S   0  0  0  0  0  0  0  0  0  0  0  0
    8.3383   -7.6657    0.0000 O   0  0  0  0  0  0  0  0  0  0  0  0
    6.3579   -8.4259    0.0000 C   0  0  0  0  0  0  0  0  0  0  0  0
    6.2011   -6.9341    0.0000 C   0  0  0  0  0  0  0  0  0  0  0  0
    4.8308   -6.3240    0.0000 O   0  0  0  0  0  0  0  0  0  0  0  0
    4.6740   -4.8322    0.0000 C   0  0  0  0  0  0  0  0  0  0  0  0
    3.3037   -4.2221    0.0000 C   0  0  0  0  0  0  0  0  0  0  0  0
    2.0046   -4.9721    0.0000 C   0  0  0  0  0  0  0  0  0  0  0  0
    0.8899   -3.9684    0.0000 C   0  0  0  0  0  0  0  0  0  0  0  0
    1.5000   -2.5981    0.0000 C   0  0  0  0  0  0  0  0  0  0  0  0
    0.7500   -1.2990    0.0000 C   0  0  0  0  0  0  0  0  0  0  0  0
    1.5000    0.0000    0.0000 C   0  0  0  0  0  0  0  0  0  0  0  0
    0.7500    1.2990    0.0000 C   0  0  0  0  0  0  0  0  0  0  0  0
   -0.7500    1.2990    0.0000 C   0  0  0  0  0  0  0  0  0  0  0  0
   -1.5000    2.5981    0.0000 N   0  0  0  0  0  0  0  0  0  0  0  0
   -3.0000    2.5981    0.0000 C   0  0  0  0  0  0  0  0  0  0  0  0
   -3.7500    1.2990    0.0000 N   0  0  0  0  0  0  0  0  0  0  0  0
   -3.0000    0.0000    0.0000 C   0  0  0  0  0  0  0  0  0  0  0  0
   -3.7500   -1.2990    0.0000 N   0  0  0  0  0  0  0  0  0  0  0  0
   -5.2500   -1.2990    0.0000 C   0  0  0  0  0  0  0  0  0  0  0  0
   -6.0000    0.0000    0.0000 C   0  0  0  0  0  0  0  0  0  0  0  0
   -7.5000    0.0000    0.0000 C   0  0  0  0  0  0  0  0  0  0  0  0
   -8.2500   -1.2990    0.0000 C   0  0  0  0  0  0  0  0  0  0  0  0
   -9.7500   -1.2990    0.0000 O   0  0  0  0  0  0  0  0  0  0  0  0
  -10.5000    0.0000    0.0000 C   0  0  0  0  0  0  0  0  0  0  0  0
  -12.0000    0.0000    0.0000 C   0  0  0  0  0  0  0  0  0  0  0  0
  -12.7500    1.2990    0.0000 C   0  0  0  0  0  0  0  0  0  0  0  0
  -14.2500    1.2990    0.0000 C   0  0  0  0  0  0  0  0  0  0  0  0
  -15.0000    0.0000    0.0000 C   0  0  0  0  0  0  0  0  0  0  0  0
  -14.2500   -1.2990    0.0000 C   0  0  0  0  0  0  0  0  0  0  0  0
  -15.0000   -2.5981    0.0000 F   0  0  0  0  0  0  0  0  0  0  0  0
  -12.7500   -1.2990    0.0000 C   0  0  0  0  0  0  0  0  0  0  0  0
   -7.5000   -2.5981    0.0000 C   0  0  0  0  0  0  0  0  0  0  0  0
   -8.2500   -3.8971    0.0000 Cl  0  0  0  0  0  0  0  0  0  0  0  0
   -6.0000   -2.5981    0.0000 C   0  0  0  0  0  0  0  0  0  0  0  0
   -1.5000    0.0000    0.0000 C   0  0  0  0  0  0  0  0  0  0  0  0
   -0.7500   -1.2990    0.0000 C   0  0  0  0  0  0  0  0  0  0  0  0
    2.9918   -2.7549    0.0000 O   0  0  0  0  0  0  0  0  0  0  0  0
    9.0985   -9.6461    0.0000 C   0  0  0  0  0  0  0  0  0  0  0  0
    9.2553  -11.1379    0.0000 C   0  0  0  0  0  0  0  0  0  0  0  0
   10.6256  -11.7480    0.0000 C   0  0  0  0  0  0  0  0  0  0  0  0
   11.8391  -10.8663    0.0000 C   0  0  0  0  0  0  0  0  0  0  0  0
   11.6824   -9.3745    0.0000 C   0  0  0  0  0  0  0  0  0  0  0  0
   10.3120   -8.7644    0.0000 C   0  0  0  0  0  0  0  0  0  0  0  0
  1  2  2  0
  2  3  2  0
  2  4  1  0
  4  5  1  0
  5  6  1  0
  6  7  1  0
  7  8  1  0
  8  9  2  0
  9 10  1  0
 10 11  2  0
 11 12  1  0
 12 13  2  0
 13 14  1  0
 14 15  2  0
 15 16  1  0
 16 17  2  0
 17 18  1  0
 18 19  2  0
 19 20  1  0
 20 21  1  0
 21 22  2  0
 22 23  1  0
 23 24  2  0
 24 25  1  0
 25 26  1  0
 26 27  1  0
 27 28  2  0
 28 29  1  0
 29 30  2  0
 30 31  1  0
 31 32  1  0
 31 33  2  0
 24 34  1  0
 34 35  1  0
 34 36  2  0
 19 37  1  0
 37 38  2  0
 11 39  1  0
  2 40  1  0
 40 41  2  0
 41 42  1  0
 42 43  2  0
 43 44  1  0
 44 45  2  0
 39  8  1  0
 45 40  1  0
 38 12  1  0
 37 15  1  0
 36 21  1  0
 33 27  1  0
M  END
>  <Compound_ID>  (703) 
CHEMBL212250

>  <Molecule Name>  (703) 
GW615311X

>  <Molecular Weight>  (703) 
644.12

>  <AlogP>  (703) 
8.00

>  <Smiles>  (703) 
O=S(=O)(CCOCc1ccc(-c2ccc3ncnc(Nc4ccc(OCc5cccc(F)c5)c(Cl)c4)c3c2)o1)c1ccccc1

>  <Standard Type>  (703) 
Inhibition

>  <Standard Relation>  (703) 
'='

>  <Standard Units>  (703) 
%

>  <Standard Value>  (703) 
8.46

>  <Assay ChEMBL ID>  (703) 
CHEMBL1962143

>  <Assay Description>  (703) 
GSK_PKIS: MET mean inhibition at 1 uM [Nanosyn]

>  <BAO Format ID>  (703) 
BAO_0000357

>  <BAO Label>  (703) 
single protein format

>  <Assay Organism>  (703) 
None

>  <Target ChEMBL ID>  (703) 
CHEMBL3717

>  <Target Name>  (703) 
Hepatocyte growth factor receptor

>  <Target Organism>  (703) 
Homo sapiens

>  <Target Type>  (703) 
SINGLE PROTEIN

>  <Document ChEMBL ID>  (703) 
CHEMBL1961873

>  <Source Description>  (703) 
GSK Published Kinase Inhibitor Set

>  <Document Journal>  (703) 
nan

>  <Document Year>  (703) 
nan

>  <Active>  (703) 
0.0

$$$$

     RDKit          2D

 39 43  0  0  0  0  0  0  0  0999 V2000
   -5.0121   25.0419    0.0000 C   0  0  0  0  0  0  0  0  0  0  0  0
   -5.0121   23.5419    0.0000 N   0  0  0  0  0  0  0  0  0  0  0  0
   -3.7130   22.7919    0.0000 C   0  0  0  0  0  0  0  0  0  0  0  0
   -6.3111   22.7919    0.0000 C   0  0  0  0  0  0  0  0  0  0  0  0
   -6.3111   21.2919    0.0000 C   0  0  0  0  0  0  0  0  0  0  0  0
   -7.6102   20.5419    0.0000 N   0  0  0  0  0  0  0  0  0  0  0  0
   -8.9805   21.1520    0.0000 C   0  0  0  0  0  0  0  0  0  0  0  0
   -9.9842   20.0373    0.0000 N   0  0  0  0  0  0  0  0  0  0  0  0
   -9.2342   18.7382    0.0000 N   0  0  0  0  0  0  0  0  0  0  0  0
   -7.7670   19.0501    0.0000 C   0  0  0  0  0  0  0  0  0  0  0  0
   -6.6522   18.0464    0.0000 C   0  0  0  0  0  0  0  0  0  0  0  0
   -6.9641   16.5792    0.0000 C   0  0  0  0  0  0  0  0  0  0  0  0
   -5.8494   15.5755    0.0000 C   0  0  0  0  0  0  0  0  0  0  0  0
   -6.1613   14.1083    0.0000 O   0  0  0  0  0  0  0  0  0  0  0  0
   -5.0465   13.1046    0.0000 C   0  0  0  0  0  0  0  0  0  0  0  0
   -5.3584   11.6374    0.0000 C   0  0  0  0  0  0  0  0  0  0  0  0
   -4.2437   10.6337    0.0000 C   0  0  0  0  0  0  0  0  0  0  0  0
   -2.8171   11.0972    0.0000 C   0  0  0  0  0  0  0  0  0  0  0  0
   -1.7024   10.0935    0.0000 N   0  0  0  0  0  0  0  0  0  0  0  0
   -2.0143    8.6263    0.0000 C   0  0  0  0  0  0  0  0  0  0  0  0
   -3.4408    8.1628    0.0000 O   0  0  0  0  0  0  0  0  0  0  0  0
   -0.8995    7.6226    0.0000 N   0  0  0  0  0  0  0  0  0  0  0  0
   -1.2114    6.1554    0.0000 N   0  0  0  0  0  0  0  0  0  0  0  0
   -0.0967    5.1517    0.0000 C   0  0  0  0  0  0  0  0  0  0  0  0
   -0.4086    3.6844    0.0000 C   0  0  0  0  0  0  0  0  0  0  0  0
   -1.8351    3.2209    0.0000 C   0  0  0  0  0  0  0  0  0  0  0  0
   -2.1470    1.7537    0.0000 C   0  0  0  0  0  0  0  0  0  0  0  0
   -1.0323    0.7500    0.0000 C   0  0  0  0  0  0  0  0  0  0  0  0
    0.3943    1.2135    0.0000 C   0  0  0  0  0  0  0  0  0  0  0  0
    0.7062    2.6807    0.0000 C   0  0  0  0  0  0  0  0  0  0  0  0
    1.2760    0.0000    0.0000 O   0  0  0  0  0  0  0  0  0  0  0  0
    0.3943   -1.2135    0.0000 C   0  0  0  0  0  0  0  0  0  0  0  0
   -1.0323   -0.7500    0.0000 O   0  0  0  0  0  0  0  0  0  0  0  0
   -2.5052   12.5644    0.0000 C   0  0  0  0  0  0  0  0  0  0  0  0
   -3.6200   13.5681    0.0000 C   0  0  0  0  0  0  0  0  0  0  0  0
   -3.3081   15.0353    0.0000 F   0  0  0  0  0  0  0  0  0  0  0  0
   -4.4228   16.0390    0.0000 C   0  0  0  0  0  0  0  0  0  0  0  0
   -4.1109   17.5063    0.0000 C   0  0  0  0  0  0  0  0  0  0  0  0
   -5.2256   18.5099    0.0000 N   0  0  0  0  0  0  0  0  0  0  0  0
  1  2  1  0
  2  3  1  0
  2  4  1  0
  4  5  1  0
  5  6  1  0
  6  7  1  0
  7  8  2  0
  8  9  1  0
  9 10  2  0
 10 11  1  0
 11 12  2  0
 12 13  1  0
 13 14  1  0
 14 15  1  0
 15 16  2  0
 16 17  1  0
 17 18  2  0
 18 19  1  0
 19 20  1  0
 20 21  2  0
 20 22  1  0
 22 23  1  0
 23 24  2  0
 24 25  1  0
 25 26  2  0
 26 27  1  0
 27 28  2  0
 28 29  1  0
 29 30  2  0
 29 31  1  0
 31 32  1  0
 32 33  1  0
 18 34  1  0
 34 35  2  0
 35 36  1  0
 13 37  2  0
 37 38  1  0
 38 39  2  0
 10  6  1  0
 39 11  1  0
 35 15  1  0
 30 25  1  0
 33 28  1  0
M  END
>  <Compound_ID>  (704) 
CHEMBL3263125

>  <Molecule Name>  (704) 
nan

>  <Molecular Weight>  (704) 
532.54

>  <AlogP>  (704) 
3.72

>  <Smiles>  (704) 
CN(C)CCn1cnnc1-c1cc(Oc2ccc(NC(=O)N/N=C/c3ccc4c(c3)OCO4)cc2F)ccn1

>  <Standard Type>  (704) 
Inhibition

>  <Standard Relation>  (704) 
'='

>  <Standard Units>  (704) 
%

>  <Standard Value>  (704) 
5.8

>  <Assay ChEMBL ID>  (704) 
CHEMBL3271573

>  <Assay Description>  (704) 
Inhibition of c-MET (unknown origin) at 10 uM after 20 mins by HTRF method

>  <BAO Format ID>  (704) 
BAO_0000357

>  <BAO Label>  (704) 
single protein format

>  <Assay Organism>  (704) 
Homo sapiens

>  <Target ChEMBL ID>  (704) 
CHEMBL3717

>  <Target Name>  (704) 
Hepatocyte growth factor receptor

>  <Target Organism>  (704) 
Homo sapiens

>  <Target Type>  (704) 
SINGLE PROTEIN

>  <Document ChEMBL ID>  (704) 
CHEMBL3259649

>  <Source Description>  (704) 
Scientific Literature

>  <Document Journal>  (704) 
Eur J Med Chem

>  <Document Year>  (704) 
2014.0

>  <Active>  (704) 
0.0

$$$$

     RDKit          2D

 34 37  0  0  0  0  0  0  0  0999 V2000
   14.2500   -9.0933    0.0000 C   0  0  0  0  0  0  0  0  0  0  0  0
   12.7500   -9.0933    0.0000 C   0  0  0  0  0  0  0  0  0  0  0  0
   12.0000   -7.7942    0.0000 C   0  0  0  0  0  0  0  0  0  0  0  0
   10.5000   -7.7942    0.0000 C   0  0  0  0  0  0  0  0  0  0  0  0
    9.7500   -6.4952    0.0000 C   0  0  0  0  0  0  0  0  0  0  0  0
    8.2500   -6.4952    0.0000 C   0  0  0  0  0  0  0  0  0  0  0  0
    7.5000   -7.7942    0.0000 O   0  0  0  0  0  0  0  0  0  0  0  0
    7.5000   -5.1962    0.0000 N   0  0  0  0  0  0  0  0  0  0  0  0
    6.0000   -5.1962    0.0000 C   0  0  0  0  0  0  0  0  0  0  0  0
    5.2500   -6.4952    0.0000 C   0  0  0  0  0  0  0  0  0  0  0  0
    3.7500   -6.4952    0.0000 C   0  0  0  0  0  0  0  0  0  0  0  0
    3.0000   -5.1962    0.0000 C   0  0  0  0  0  0  0  0  0  0  0  0
    3.7500   -3.8971    0.0000 C   0  0  0  0  0  0  0  0  0  0  0  0
    3.0000   -2.5981    0.0000 O   0  0  0  0  0  0  0  0  0  0  0  0
    1.5000   -2.5981    0.0000 C   0  0  0  0  0  0  0  0  0  0  0  0
    0.7500   -3.8971    0.0000 N   0  0  0  0  0  0  0  0  0  0  0  0
   -0.7500   -3.8971    0.0000 C   0  0  0  0  0  0  0  0  0  0  0  0
   -1.5000   -5.1962    0.0000 N   0  0  0  0  0  0  0  0  0  0  0  0
   -3.0000   -5.1962    0.0000 C   0  0  0  0  0  0  0  0  0  0  0  0
   -3.7500   -3.8971    0.0000 C   0  0  0  0  0  0  0  0  0  0  0  0
   -5.2500   -3.8971    0.0000 C   0  0  0  0  0  0  0  0  0  0  0  0
   -6.0000   -5.1962    0.0000 C   0  0  0  0  0  0  0  0  0  0  0  0
   -5.2500   -6.4952    0.0000 C   0  0  0  0  0  0  0  0  0  0  0  0
   -6.0000   -7.7942    0.0000 C   0  0  0  0  0  0  0  0  0  0  0  0
   -6.7500   -9.0933    0.0000 N   0  0  0  0  0  0  0  0  0  0  0  0
   -3.7500   -6.4952    0.0000 C   0  0  0  0  0  0  0  0  0  0  0  0
   -1.5000   -2.5981    0.0000 N   0  0  0  0  0  0  0  0  0  0  0  0
   -0.7500   -1.2990    0.0000 C   0  0  0  0  0  0  0  0  0  0  0  0
    0.7500   -1.2990    0.0000 C   0  0  0  0  0  0  0  0  0  0  0  0
    1.5000    0.0000    0.0000 C   0  0  0  0  0  0  0  0  0  0  0  0
    0.7500    1.2990    0.0000 S   0  0  0  0  0  0  0  0  0  0  0  0
   -0.7500    1.2990    0.0000 C   0  0  0  0  0  0  0  0  0  0  0  0
   -1.5000    0.0000    0.0000 C   0  0  0  0  0  0  0  0  0  0  0  0
    5.2500   -3.8971    0.0000 C   0  0  0  0  0  0  0  0  0  0  0  0
  1  2  1  0
  2  3  1  0
  3  4  1  0
  4  5  2  0
  5  6  1  0
  6  7  2  0
  6  8  1  0
  8  9  1  0
  9 10  2  0
 10 11  1  0
 11 12  2  0
 12 13  1  0
 13 14  1  0
 14 15  1  0
 15 16  2  0
 16 17  1  0
 17 18  1  0
 18 19  1  0
 19 20  2  0
 20 21  1  0
 21 22  2  0
 22 23  1  0
 23 24  1  0
 24 25  3  0
 23 26  2  0
 17 27  2  0
 27 28  1  0
 28 29  2  0
 29 30  1  0
 30 31  1  0
 31 32  1  0
 32 33  1  0
 13 34  2  0
 34  9  1  0
 29 15  1  0
 26 19  1  0
 33 28  1  0
M  END
>  <Compound_ID>  (705) 
CHEMBL4754481

>  <Molecule Name>  (705) 
nan

>  <Molecular Weight>  (705) 
471.59

>  <AlogP>  (705) 
5.97

>  <Smiles>  (705) 
CCC/C=C/C(=O)Nc1cccc(Oc2nc(Nc3cccc(C#N)c3)nc3c2CSCC3)c1

>  <Standard Type>  (705) 
Inhibition

>  <Standard Relation>  (705) 
'='

>  <Standard Units>  (705) 
%

>  <Standard Value>  (705) 
3.6

>  <Assay ChEMBL ID>  (705) 
CHEMBL4730210

>  <Assay Description>  (705) 
Inhibition of C-MET (unknown origin) at 1 uM relative to control

>  <BAO Format ID>  (705) 
BAO_0000357

>  <BAO Label>  (705) 
single protein format

>  <Assay Organism>  (705) 
Homo sapiens

>  <Target ChEMBL ID>  (705) 
CHEMBL3717

>  <Target Name>  (705) 
Hepatocyte growth factor receptor

>  <Target Organism>  (705) 
Homo sapiens

>  <Target Type>  (705) 
SINGLE PROTEIN

>  <Document ChEMBL ID>  (705) 
CHEMBL4725402

>  <Source Description>  (705) 
Scientific Literature

>  <Document Journal>  (705) 
Bioorg Med Chem

>  <Document Year>  (705) 
2020.0

>  <Active>  (705) 
0.0

$$$$

     RDKit          2D

 31 35  0  0  0  0  0  0  0  0999 V2000
    3.0000    0.0000    0.0000 F   0  0  0  0  0  0  0  0  0  0  0  0
    1.5000    0.0000    0.0000 C   0  0  0  0  0  0  0  0  0  0  0  0
    0.7500   -1.2990    0.0000 C   0  0  0  0  0  0  0  0  0  0  0  0
   -0.7500   -1.2990    0.0000 C   0  0  0  0  0  0  0  0  0  0  0  0
   -1.5000    0.0000    0.0000 C   0  0  0  0  0  0  0  0  0  0  0  0
   -3.0000    0.0000    0.0000 C   0  0  0  0  0  0  0  0  0  0  0  0
   -3.8817   -1.2135    0.0000 N   0  0  0  0  0  0  0  0  0  0  0  0
   -5.3083   -0.7500    0.0000 C   0  0  0  0  0  0  0  0  0  0  0  0
   -5.3083    0.7500    0.0000 N   0  0  0  0  0  0  0  0  0  0  0  0
   -6.5218    1.6317    0.0000 C   0  0  0  0  0  0  0  0  0  0  0  0
   -6.3650    3.1235    0.0000 C   0  0  0  0  0  0  0  0  0  0  0  0
   -7.5785    4.0051    0.0000 C   0  0  0  0  0  0  0  0  0  0  0  0
   -8.9488    3.3950    0.0000 N   0  0  0  0  0  0  0  0  0  0  0  0
   -9.1056    1.9033    0.0000 C   0  0  0  0  0  0  0  0  0  0  0  0
   -7.8921    1.0216    0.0000 C   0  0  0  0  0  0  0  0  0  0  0  0
   -3.8817    1.2135    0.0000 C   0  0  0  0  0  0  0  0  0  0  0  0
   -3.4182    2.6401    0.0000 C   0  0  0  0  0  0  0  0  0  0  0  0
   -1.9509    2.9520    0.0000 C   0  0  0  0  0  0  0  0  0  0  0  0
   -1.4874    4.3786    0.0000 C   0  0  0  0  0  0  0  0  0  0  0  0
   -2.4911    5.4933    0.0000 N   0  0  0  0  0  0  0  0  0  0  0  0
   -3.9583    5.1814    0.0000 C   0  0  0  0  0  0  0  0  0  0  0  0
   -4.9620    6.2961    0.0000 O   0  0  0  0  0  0  0  0  0  0  0  0
   -4.4985    7.7227    0.0000 C   0  0  0  0  0  0  0  0  0  0  0  0
   -3.0313    8.0346    0.0000 C   0  0  0  0  0  0  0  0  0  0  0  0
   -2.5677    9.4612    0.0000 C   0  0  0  0  0  0  0  0  0  0  0  0
   -3.5714   10.5759    0.0000 C   0  0  0  0  0  0  0  0  0  0  0  0
   -5.0387   10.2640    0.0000 C   0  0  0  0  0  0  0  0  0  0  0  0
   -5.5022    8.8374    0.0000 C   0  0  0  0  0  0  0  0  0  0  0  0
   -4.4218    3.7548    0.0000 N   0  0  0  0  0  0  0  0  0  0  0  0
   -0.7500    1.2990    0.0000 C   0  0  0  0  0  0  0  0  0  0  0  0
    0.7500    1.2990    0.0000 C   0  0  0  0  0  0  0  0  0  0  0  0
  1  2  1  0
  2  3  2  0
  3  4  1  0
  4  5  2  0
  5  6  1  0
  6  7  1  0
  7  8  2  0
  8  9  1  0
  9 10  1  0
 10 11  1  0
 11 12  1  0
 12 13  1  0
 13 14  1  0
 14 15  1  0
  9 16  1  0
 16 17  1  0
 17 18  2  0
 18 19  1  0
 19 20  2  0
 20 21  1  0
 21 22  1  0
 22 23  1  0
 23 24  2  0
 24 25  1  0
 25 26  2  0
 26 27  1  0
 27 28  2  0
 21 29  2  0
  5 30  1  0
 30 31  2  0
 31  2  1  0
 16  6  2  0
 29 17  1  0
 15 10  1  0
 28 23  1  0
M  END
>  <Compound_ID>  (706) 
CHEMBL275798

>  <Molecule Name>  (706) 
nan

>  <Molecular Weight>  (706) 
415.47

>  <AlogP>  (706) 
4.86

>  <Smiles>  (706) 
Fc1ccc(-c2ncn(C3CCNCC3)c2-c2ccnc(Oc3ccccc3)n2)cc1

>  <Standard Type>  (706) 
Inhibition

>  <Standard Relation>  (706) 
'='

>  <Standard Units>  (706) 
%

>  <Standard Value>  (706) 
5.19

>  <Assay ChEMBL ID>  (706) 
CHEMBL1962142

>  <Assay Description>  (706) 
GSK_PKIS: MET mean inhibition at 0.1 uM [Nanosyn]

>  <BAO Format ID>  (706) 
BAO_0000357

>  <BAO Label>  (706) 
single protein format

>  <Assay Organism>  (706) 
None

>  <Target ChEMBL ID>  (706) 
CHEMBL3717

>  <Target Name>  (706) 
Hepatocyte growth factor receptor

>  <Target Organism>  (706) 
Homo sapiens

>  <Target Type>  (706) 
SINGLE PROTEIN

>  <Document ChEMBL ID>  (706) 
CHEMBL1961873

>  <Source Description>  (706) 
GSK Published Kinase Inhibitor Set

>  <Document Journal>  (706) 
nan

>  <Document Year>  (706) 
nan

>  <Active>  (706) 
0.0

$$$$

     RDKit          2D

 27 29  0  0  0  0  0  0  0  0999 V2000
    7.5000   -2.5981    0.0000 C   0  0  0  0  0  0  0  0  0  0  0  0
    6.0000   -2.5981    0.0000 N   0  0  0  0  0  0  0  0  0  0  0  0
    5.2500   -3.8971    0.0000 C   0  0  0  0  0  0  0  0  0  0  0  0
    5.2500   -1.2990    0.0000 C   0  0  0  0  0  0  0  0  0  0  0  0
    3.7500   -1.2990    0.0000 C   0  0  0  0  0  0  0  0  0  0  0  0
    3.0000    0.0000    0.0000 N   0  0  0  0  0  0  0  0  0  0  0  0
    1.5000    0.0000    0.0000 C   0  0  0  0  0  0  0  0  0  0  0  0
    0.7500   -1.2990    0.0000 N   0  0  0  0  0  0  0  0  0  0  0  0
   -0.7500   -1.2990    0.0000 C   0  0  0  0  0  0  0  0  0  0  0  0
   -1.5000    0.0000    0.0000 C   0  0  0  0  0  0  0  0  0  0  0  0
   -3.0000    0.0000    0.0000 C   0  0  0  0  0  0  0  0  0  0  0  0
   -3.7500    1.2990    0.0000 C   0  0  0  0  0  0  0  0  0  0  0  0
   -5.2500    1.2990    0.0000 O   0  0  0  0  0  0  0  0  0  0  0  0
   -6.0000    2.5981    0.0000 C   0  0  0  0  0  0  0  0  0  0  0  0
   -5.2500    3.8971    0.0000 C   0  0  0  0  0  0  0  0  0  0  0  0
   -6.0000    5.1962    0.0000 C   0  0  0  0  0  0  0  0  0  0  0  0
   -7.5000    5.1962    0.0000 C   0  0  0  0  0  0  0  0  0  0  0  0
   -8.2500    6.4952    0.0000 F   0  0  0  0  0  0  0  0  0  0  0  0
   -8.2500    3.8971    0.0000 C   0  0  0  0  0  0  0  0  0  0  0  0
   -7.5000    2.5981    0.0000 C   0  0  0  0  0  0  0  0  0  0  0  0
   -8.2500    1.2990    0.0000 F   0  0  0  0  0  0  0  0  0  0  0  0
   -3.0000    2.5981    0.0000 C   0  0  0  0  0  0  0  0  0  0  0  0
   -3.7500    3.8971    0.0000 O   0  0  0  0  0  0  0  0  0  0  0  0
   -1.5000    2.5981    0.0000 N   0  0  0  0  0  0  0  0  0  0  0  0
   -0.7500    3.8971    0.0000 C   0  0  0  0  0  0  0  0  0  0  0  0
   -0.7500    1.2990    0.0000 C   0  0  0  0  0  0  0  0  0  0  0  0
    0.7500    1.2990    0.0000 N   0  0  0  0  0  0  0  0  0  0  0  0
  1  2  1  0
  2  3  1  0
  2  4  1  0
  4  5  1  0
  5  6  1  0
  6  7  1  0
  7  8  2  0
  8  9  1  0
  9 10  2  0
 10 11  1  0
 11 12  2  0
 12 13  1  0
 13 14  1  0
 14 15  2  0
 15 16  1  0
 16 17  2  0
 17 18  1  0
 17 19  1  0
 19 20  2  0
 20 21  1  0
 12 22  1  0
 22 23  2  0
 22 24  1  0
 24 25  1  0
 24 26  1  0
 26 27  2  0
 27  7  1  0
 26 10  1  0
 20 14  1  0
M  END
>  <Compound_ID>  (707) 
CHEMBL3745857

>  <Molecule Name>  (707) 
nan

>  <Molecular Weight>  (707) 
375.38

>  <AlogP>  (707) 
2.37

>  <Smiles>  (707) 
CN(C)CCNc1ncc2cc(Oc3ccc(F)cc3F)c(=O)n(C)c2n1

>  <Standard Type>  (707) 
Inhibition

>  <Standard Relation>  (707) 
'='

>  <Standard Units>  (707) 
%

>  <Standard Value>  (707) 
0.0

>  <Assay ChEMBL ID>  (707) 
CHEMBL3750644

>  <Assay Description>  (707) 
Inhibition of cMET (unknown origin) at 10 uM

>  <BAO Format ID>  (707) 
BAO_0000357

>  <BAO Label>  (707) 
single protein format

>  <Assay Organism>  (707) 
Homo sapiens

>  <Target ChEMBL ID>  (707) 
CHEMBL3717

>  <Target Name>  (707) 
Hepatocyte growth factor receptor

>  <Target Organism>  (707) 
Homo sapiens

>  <Target Type>  (707) 
SINGLE PROTEIN

>  <Document ChEMBL ID>  (707) 
CHEMBL3745672

>  <Source Description>  (707) 
Scientific Literature

>  <Document Journal>  (707) 
Bioorg Med Chem Lett

>  <Document Year>  (707) 
2016.0

>  <Active>  (707) 
0.0

$$$$

     RDKit          2D

 18 20  0  0  0  0  0  0  0  0999 V2000
   -6.0000    0.0000    0.0000 N   0  0  0  0  0  0  0  0  0  0  0  0
   -5.2500   -1.2990    0.0000 C   0  0  0  0  0  0  0  0  0  0  0  0
   -3.7500   -1.2990    0.0000 C   0  0  0  0  0  0  0  0  0  0  0  0
   -3.0000   -2.5981    0.0000 C   0  0  0  0  0  0  0  0  0  0  0  0
   -1.5000   -2.5981    0.0000 C   0  0  0  0  0  0  0  0  0  0  0  0
   -0.7500   -3.8971    0.0000 C   0  0  0  0  0  0  0  0  0  0  0  0
    0.7500   -3.8971    0.0000 C   0  0  0  0  0  0  0  0  0  0  0  0
    1.5000   -2.5981    0.0000 N   0  0  0  0  0  0  0  0  0  0  0  0
    0.7500   -1.2990    0.0000 C   0  0  0  0  0  0  0  0  0  0  0  0
    1.5000    0.0000    0.0000 C   0  0  0  0  0  0  0  0  0  0  0  0
    0.7500    1.2990    0.0000 C   0  0  0  0  0  0  0  0  0  0  0  0
   -0.7500    1.2990    0.0000 C   0  0  0  0  0  0  0  0  0  0  0  0
   -1.5000    0.0000    0.0000 C   0  0  0  0  0  0  0  0  0  0  0  0
   -0.7500   -1.2990    0.0000 C   0  0  0  0  0  0  0  0  0  0  0  0
   -3.7500   -3.8971    0.0000 C   0  0  0  0  0  0  0  0  0  0  0  0
   -5.2500   -3.8971    0.0000 N   0  0  0  0  0  0  0  0  0  0  0  0
   -6.0000   -2.5981    0.0000 C   0  0  0  0  0  0  0  0  0  0  0  0
   -7.5000   -2.5981    0.0000 O   0  0  0  0  0  0  0  0  0  0  0  0
  1  2  1  0
  2  3  2  0
  3  4  1  0
  4  5  1  0
  5  6  2  0
  6  7  1  0
  7  8  2  0
  8  9  1  0
  9 10  2  0
 10 11  1  0
 11 12  2  0
 12 13  1  0
 13 14  2  0
  4 15  2  0
 15 16  1  0
 16 17  1  0
 17 18  2  0
 17  2  1  0
 14  5  1  0
 14  9  1  0
M  END
>  <Compound_ID>  (708) 
CHEMBL4280308

>  <Molecule Name>  (708) 
nan

>  <Molecular Weight>  (708) 
237.26

>  <AlogP>  (708) 
2.17

>  <Smiles>  (708) 
Nc1cc(-c2ccnc3ccccc23)c[nH]c1=O

>  <Standard Type>  (708) 
Inhibition

>  <Standard Relation>  (708) 
'='

>  <Standard Units>  (708) 
%

>  <Standard Value>  (708) 
19.0

>  <Assay ChEMBL ID>  (708) 
CHEMBL4256656

>  <Assay Description>  (708) 
Inhibition of MET (unknown origin) at 100 uM using peptide as substrate in presence of ATP and MgCl2 by mobility shift assay relative to control

>  <BAO Format ID>  (708) 
BAO_0000357

>  <BAO Label>  (708) 
single protein format

>  <Assay Organism>  (708) 
Homo sapiens

>  <Target ChEMBL ID>  (708) 
CHEMBL3717

>  <Target Name>  (708) 
Hepatocyte growth factor receptor

>  <Target Organism>  (708) 
Homo sapiens

>  <Target Type>  (708) 
SINGLE PROTEIN

>  <Document ChEMBL ID>  (708) 
CHEMBL4251747

>  <Source Description>  (708) 
Scientific Literature

>  <Document Journal>  (708) 
Bioorg Med Chem

>  <Document Year>  (708) 
2018.0

>  <Active>  (708) 
0.0

$$$$

     RDKit          2D

 35 40  0  0  0  0  0  0  0  0999 V2000
    2.2484    6.9199    0.0000 C   0  0  0  0  0  0  0  0  0  0  0  0
    1.7849    5.4933    0.0000 C   0  0  0  0  0  0  0  0  0  0  0  0
    2.7886    4.3786    0.0000 C   0  0  0  0  0  0  0  0  0  0  0  0
    2.3250    2.9520    0.0000 C   0  0  0  0  0  0  0  0  0  0  0  0
    0.8578    2.6401    0.0000 C   0  0  0  0  0  0  0  0  0  0  0  0
    0.3943    1.2135    0.0000 N   0  0  0  0  0  0  0  0  0  0  0  0
    1.2760    0.0000    0.0000 C   0  0  0  0  0  0  0  0  0  0  0  0
    0.3943   -1.2135    0.0000 C   0  0  0  0  0  0  0  0  0  0  0  0
    0.7062   -2.6807    0.0000 C   0  0  0  0  0  0  0  0  0  0  0  0
    2.1328   -3.1443    0.0000 C   0  0  0  0  0  0  0  0  0  0  0  0
    3.3463   -2.2626    0.0000 C   0  0  0  0  0  0  0  0  0  0  0  0
    3.3463   -0.7626    0.0000 C   0  0  0  0  0  0  0  0  0  0  0  0
    4.5598   -3.1443    0.0000 N   0  0  0  0  0  0  0  0  0  0  0  0
    4.0963   -4.5709    0.0000 C   0  0  0  0  0  0  0  0  0  0  0  0
    4.9780   -5.7844    0.0000 C   0  0  0  0  0  0  0  0  0  0  0  0
    4.3678   -7.1547    0.0000 C   0  0  0  0  0  0  0  0  0  0  0  0
    5.2495   -8.3682    0.0000 C   0  0  0  0  0  0  0  0  0  0  0  0
    6.7413   -8.2114    0.0000 C   0  0  0  0  0  0  0  0  0  0  0  0
    7.3514   -6.8411    0.0000 C   0  0  0  0  0  0  0  0  0  0  0  0
    6.4697   -5.6276    0.0000 C   0  0  0  0  0  0  0  0  0  0  0  0
    2.5963   -4.5709    0.0000 C   0  0  0  0  0  0  0  0  0  0  0  0
    1.7146   -5.7844    0.0000 C   0  0  0  0  0  0  0  0  0  0  0  0
    0.2228   -5.6276    0.0000 C   0  0  0  0  0  0  0  0  0  0  0  0
   -0.6589   -6.8411    0.0000 C   0  0  0  0  0  0  0  0  0  0  0  0
   -0.0488   -8.2114    0.0000 C   0  0  0  0  0  0  0  0  0  0  0  0
    1.4430   -8.3682    0.0000 C   0  0  0  0  0  0  0  0  0  0  0  0
    2.3247   -7.1547    0.0000 C   0  0  0  0  0  0  0  0  0  0  0  0
   -0.4086   -3.6844    0.0000 N   0  0  0  0  0  0  0  0  0  0  0  0
   -1.8351   -3.2209    0.0000 N   0  0  0  0  0  0  0  0  0  0  0  0
   -2.1470   -1.7537    0.0000 C   0  0  0  0  0  0  0  0  0  0  0  0
   -3.5736   -1.2902    0.0000 C   0  0  0  0  0  0  0  0  0  0  0  0
   -1.0323   -0.7500    0.0000 C   0  0  0  0  0  0  0  0  0  0  0  0
   -1.0323    0.7500    0.0000 N   0  0  0  0  0  0  0  0  0  0  0  0
   -0.1459    3.7548    0.0000 C   0  0  0  0  0  0  0  0  0  0  0  0
    0.3177    5.1814    0.0000 C   0  0  0  0  0  0  0  0  0  0  0  0
  1  2  1  0
  2  3  2  0
  3  4  1  0
  4  5  2  0
  5  6  1  0
  6  7  1  0
  7  8  2  0
  8  9  1  0
  9 10  1  0
 10 11  2  0
 11 12  1  0
 11 13  1  0
 13 14  1  0
 14 15  1  0
 15 16  2  0
 16 17  1  0
 17 18  2  0
 18 19  1  0
 19 20  2  0
 14 21  2  0
 21 22  1  0
 22 23  2  0
 23 24  1  0
 24 25  2  0
 25 26  1  0
 26 27  2  0
  9 28  2  0
 28 29  1  0
 29 30  2  0
 30 31  1  0
 30 32  1  0
 32 33  2  0
  5 34  1  0
 34 35  2  0
 35  2  1  0
 33  6  1  0
 32  8  1  0
 21 10  1  0
 27 22  1  0
 20 15  1  0
M  END
>  <Compound_ID>  (709) 
CHEMBL3742060

>  <Molecule Name>  (709) 
nan

>  <Molecular Weight>  (709) 
455.57

>  <AlogP>  (709) 
7.07

>  <Smiles>  (709) 
Cc1ccc(-n2cc3c(-c4c(C)[nH]c(-c5ccccc5)c4-c4ccccc4)nnc(C)c3n2)cc1

>  <Standard Type>  (709) 
Inhibition

>  <Standard Relation>  (709) 
'='

>  <Standard Units>  (709) 
%

>  <Standard Value>  (709) 
3.0

>  <Assay ChEMBL ID>  (709) 
CHEMBL3744318

>  <Assay Description>  (709) 
Inhibition of MET (unknown origin) at 30 uM by microfluidic assay relative to control

>  <BAO Format ID>  (709) 
BAO_0000357

>  <BAO Label>  (709) 
single protein format

>  <Assay Organism>  (709) 
Homo sapiens

>  <Target ChEMBL ID>  (709) 
CHEMBL3717

>  <Target Name>  (709) 
Hepatocyte growth factor receptor

>  <Target Organism>  (709) 
Homo sapiens

>  <Target Type>  (709) 
SINGLE PROTEIN

>  <Document ChEMBL ID>  (709) 
CHEMBL3739348

>  <Source Description>  (709) 
Scientific Literature

>  <Document Journal>  (709) 
Medchemcomm

>  <Document Year>  (709) 
2015.0

>  <Active>  (709) 
0.0

$$$$

     RDKit          2D

 18 20  0  0  0  0  0  0  0  0999 V2000
    3.0000    0.0000    0.0000 C   0  0  0  0  0  0  0  0  0  0  0  0
    1.5000    0.0000    0.0000 C   0  0  0  0  0  0  0  0  0  0  0  0
    0.7500   -1.2990    0.0000 C   0  0  0  0  0  0  0  0  0  0  0  0
   -0.7500   -1.2990    0.0000 C   0  0  0  0  0  0  0  0  0  0  0  0
   -1.5000    0.0000    0.0000 C   0  0  0  0  0  0  0  0  0  0  0  0
   -2.9672   -0.3119    0.0000 C   0  0  0  0  0  0  0  0  0  0  0  0
   -4.0819    0.6918    0.0000 N   0  0  0  0  0  0  0  0  0  0  0  0
   -3.1240   -1.8037    0.0000 N   0  0  0  0  0  0  0  0  0  0  0  0
   -1.7537   -2.4138    0.0000 N   0  0  0  0  0  0  0  0  0  0  0  0
   -1.4418   -3.8810    0.0000 C   0  0  0  0  0  0  0  0  0  0  0  0
   -0.7500    1.2990    0.0000 C   0  0  0  0  0  0  0  0  0  0  0  0
   -1.5000    2.5981    0.0000 N   0  0  0  0  0  0  0  0  0  0  0  0
   -2.9918    2.7549    0.0000 C   0  0  0  0  0  0  0  0  0  0  0  0
   -3.3037    4.2221    0.0000 C   0  0  0  0  0  0  0  0  0  0  0  0
   -2.0046    4.9721    0.0000 C   0  0  0  0  0  0  0  0  0  0  0  0
   -1.8478    6.4639    0.0000 O   0  0  0  0  0  0  0  0  0  0  0  0
   -0.8899    3.9684    0.0000 C   0  0  0  0  0  0  0  0  0  0  0  0
    0.7500    1.2990    0.0000 N   0  0  0  0  0  0  0  0  0  0  0  0
  1  2  1  0
  2  3  2  0
  3  4  1  0
  4  5  2  0
  5  6  1  0
  6  7  1  0
  6  8  2  0
  8  9  1  0
  9 10  1  0
  5 11  1  0
 11 12  1  0
 12 13  1  0
 13 14  1  0
 14 15  1  0
 15 16  1  6
 15 17  1  0
 11 18  2  0
 18  2  1  0
  9  4  1  0
 17 12  1  0
M  END
>  <Compound_ID>  (710) 
CHEMBL1813784

>  <Molecule Name>  (710) 
nan

>  <Molecular Weight>  (710) 
247.30

>  <AlogP>  (710) 
0.43

>  <Smiles>  (710) 
Cc1cc2c(c(N)nn2C)c(N2CC[C@H](O)C2)n1

>  <Standard Type>  (710) 
Inhibition

>  <Standard Relation>  (710) 
'='

>  <Standard Units>  (710) 
%

>  <Standard Value>  (710) 
0.0

>  <Assay ChEMBL ID>  (710) 
CHEMBL1815730

>  <Assay Description>  (710) 
Inhibition of MET at 30 uM by microfluidic mobility shift assay

>  <BAO Format ID>  (710) 
BAO_0000357

>  <BAO Label>  (710) 
single protein format

>  <Assay Organism>  (710) 
None

>  <Target ChEMBL ID>  (710) 
CHEMBL3717

>  <Target Name>  (710) 
Hepatocyte growth factor receptor

>  <Target Organism>  (710) 
Homo sapiens

>  <Target Type>  (710) 
SINGLE PROTEIN

>  <Document ChEMBL ID>  (710) 
CHEMBL1811853

>  <Source Description>  (710) 
Scientific Literature

>  <Document Journal>  (710) 
Bioorg Med Chem

>  <Document Year>  (710) 
2011.0

>  <Active>  (710) 
0.0

$$$$

     RDKit          2D

 22 25  0  0  0  0  0  0  0  0999 V2000
    3.0000   -7.7942    0.0000 O   0  0  0  0  0  0  0  0  0  0  0  0
    3.7500   -6.4952    0.0000 C   0  0  0  0  0  0  0  0  0  0  0  0
    3.0000   -5.1962    0.0000 C   0  0  0  0  0  0  0  0  0  0  0  0
    1.5000   -5.1962    0.0000 C   0  0  0  0  0  0  0  0  0  0  0  0
    0.7500   -3.8971    0.0000 C   0  0  0  0  0  0  0  0  0  0  0  0
    1.5000   -2.5981    0.0000 C   0  0  0  0  0  0  0  0  0  0  0  0
    0.7500   -1.2990    0.0000 C   0  0  0  0  0  0  0  0  0  0  0  0
    1.5000    0.0000    0.0000 C   0  0  0  0  0  0  0  0  0  0  0  0
    0.7500    1.2990    0.0000 N   0  0  0  0  0  0  0  0  0  0  0  0
    1.2135    2.7256    0.0000 C   0  0  0  0  0  0  0  0  0  0  0  0
    2.6401    3.1891    0.0000 C   0  0  0  0  0  0  0  0  0  0  0  0
    3.1036    4.6157    0.0000 C   0  0  0  0  0  0  0  0  0  0  0  0
    4.6036    4.6157    0.0000 N   0  0  0  0  0  0  0  0  0  0  0  0
    5.0672    3.1891    0.0000 N   0  0  0  0  0  0  0  0  0  0  0  0
    3.8536    2.3075    0.0000 C   0  0  0  0  0  0  0  0  0  0  0  0
   -0.0000    3.6073    0.0000 C   0  0  0  0  0  0  0  0  0  0  0  0
   -1.2135    2.7256    0.0000 N   0  0  0  0  0  0  0  0  0  0  0  0
   -0.7500    1.2990    0.0000 C   0  0  0  0  0  0  0  0  0  0  0  0
   -1.5000    0.0000    0.0000 C   0  0  0  0  0  0  0  0  0  0  0  0
   -0.7500   -1.2990    0.0000 N   0  0  0  0  0  0  0  0  0  0  0  0
    3.0000   -2.5981    0.0000 C   0  0  0  0  0  0  0  0  0  0  0  0
    3.7500   -3.8971    0.0000 C   0  0  0  0  0  0  0  0  0  0  0  0
  1  2  1  0
  2  3  1  0
  3  4  2  0
  4  5  1  0
  5  6  2  0
  6  7  1  0
  7  8  2  0
  8  9  1  0
  9 10  1  0
 10 11  1  0
 11 12  1  0
 12 13  2  0
 13 14  1  0
 14 15  1  0
 10 16  2  0
 16 17  1  0
 17 18  2  0
 18 19  1  0
 19 20  2  0
  6 21  1  0
 21 22  2  0
 22  3  1  0
 20  7  1  0
 18  9  1  0
 15 11  2  0
M  END
>  <Compound_ID>  (711) 
CHEMBL1170749

>  <Molecule Name>  (711) 
nan

>  <Molecular Weight>  (711) 
291.31

>  <AlogP>  (711) 
2.28

>  <Smiles>  (711) 
OCc1ccc(-c2cn3c(-c4cn[nH]c4)cnc3cn2)cc1

>  <Standard Type>  (711) 
Inhibition

>  <Standard Relation>  (711) 
'='

>  <Standard Units>  (711) 
%

>  <Standard Value>  (711) 
10.0

>  <Assay ChEMBL ID>  (711) 
CHEMBL1173995

>  <Assay Description>  (711) 
Inhibition of MET at 10 uM by mobility shift assay

>  <BAO Format ID>  (711) 
BAO_0000357

>  <BAO Label>  (711) 
single protein format

>  <Assay Organism>  (711) 
None

>  <Target ChEMBL ID>  (711) 
CHEMBL3717

>  <Target Name>  (711) 
Hepatocyte growth factor receptor

>  <Target Organism>  (711) 
Homo sapiens

>  <Target Type>  (711) 
SINGLE PROTEIN

>  <Document ChEMBL ID>  (711) 
CHEMBL1177828

>  <Source Description>  (711) 
Scientific Literature

>  <Document Journal>  (711) 
Bioorg Med Chem Lett

>  <Document Year>  (711) 
2010.0

>  <Active>  (711) 
0.0

$$$$

     RDKit          2D

 40 43  0  0  0  0  0  0  0  0999 V2000
    3.7500   -1.2990    0.0000 C   0  0  0  0  0  0  0  0  0  0  0  0
    3.0000    0.0000    0.0000 O   0  0  0  0  0  0  0  0  0  0  0  0
    1.5000    0.0000    0.0000 C   0  0  0  0  0  0  0  0  0  0  0  0
    0.7500   -1.2990    0.0000 C   0  0  0  0  0  0  0  0  0  0  0  0
   -0.7500   -1.2990    0.0000 C   0  0  0  0  0  0  0  0  0  0  0  0
   -1.5000    0.0000    0.0000 C   0  0  0  0  0  0  0  0  0  0  0  0
   -3.0000    0.0000    0.0000 C   0  0  0  0  0  0  0  0  0  0  0  0
   -3.7500    1.2990    0.0000 N   0  0  0  0  0  0  0  0  0  0  0  0
   -5.2500    1.2990    0.0000 N   0  0  0  0  0  0  0  0  0  0  0  0
   -6.0000    2.5981    0.0000 C   0  0  0  0  0  0  0  0  0  0  0  0
   -5.2500    3.8971    0.0000 O   0  0  0  0  0  0  0  0  0  0  0  0
   -7.5000    2.5981    0.0000 N   0  0  0  0  0  0  0  0  0  0  0  0
   -8.2500    3.8971    0.0000 C   0  0  0  0  0  0  0  0  0  0  0  0
   -7.5000    5.1962    0.0000 C   0  0  0  0  0  0  0  0  0  0  0  0
   -8.2500    6.4952    0.0000 C   0  0  0  0  0  0  0  0  0  0  0  0
   -9.7500    6.4952    0.0000 C   0  0  0  0  0  0  0  0  0  0  0  0
  -10.5000    7.7942    0.0000 O   0  0  0  0  0  0  0  0  0  0  0  0
   -9.7500    9.0933    0.0000 C   0  0  0  0  0  0  0  0  0  0  0  0
   -8.2500    9.0933    0.0000 C   0  0  0  0  0  0  0  0  0  0  0  0
   -7.5000   10.3923    0.0000 C   0  0  0  0  0  0  0  0  0  0  0  0
   -8.2500   11.6913    0.0000 N   0  0  0  0  0  0  0  0  0  0  0  0
   -9.7500   11.6913    0.0000 C   0  0  0  0  0  0  0  0  0  0  0  0
  -10.5000   12.9904    0.0000 C   0  0  0  0  0  0  0  0  0  0  0  0
  -11.9918   13.1472    0.0000 N   0  0  0  0  0  0  0  0  0  0  0  0
  -12.3037   14.6144    0.0000 N   0  0  0  0  0  0  0  0  0  0  0  0
  -11.0046   15.3644    0.0000 C   0  0  0  0  0  0  0  0  0  0  0  0
   -9.8899   14.3607    0.0000 N   0  0  0  0  0  0  0  0  0  0  0  0
   -8.4227   14.6726    0.0000 C   0  0  0  0  0  0  0  0  0  0  0  0
   -7.9591   16.0992    0.0000 C   0  0  0  0  0  0  0  0  0  0  0  0
   -6.4919   16.4110    0.0000 N   0  0  0  0  0  0  0  0  0  0  0  0
   -6.0284   17.8376    0.0000 C   0  0  0  0  0  0  0  0  0  0  0  0
   -5.4882   15.2963    0.0000 C   0  0  0  0  0  0  0  0  0  0  0  0
  -10.5000   10.3923    0.0000 C   0  0  0  0  0  0  0  0  0  0  0  0
  -10.5000    5.1962    0.0000 C   0  0  0  0  0  0  0  0  0  0  0  0
  -12.0000    5.1962    0.0000 F   0  0  0  0  0  0  0  0  0  0  0  0
   -9.7500    3.8971    0.0000 C   0  0  0  0  0  0  0  0  0  0  0  0
   -0.7500    1.2990    0.0000 C   0  0  0  0  0  0  0  0  0  0  0  0
   -1.5000    2.5981    0.0000 O   0  0  0  0  0  0  0  0  0  0  0  0
   -0.7500    3.8971    0.0000 C   0  0  0  0  0  0  0  0  0  0  0  0
    0.7500    1.2990    0.0000 C   0  0  0  0  0  0  0  0  0  0  0  0
  1  2  1  0
  2  3  1  0
  3  4  2  0
  4  5  1  0
  5  6  2  0
  6  7  1  0
  7  8  2  0
  8  9  1  0
  9 10  1  0
 10 11  2  0
 10 12  1  0
 12 13  1  0
 13 14  2  0
 14 15  1  0
 15 16  2  0
 16 17  1  0
 17 18  1  0
 18 19  2  0
 19 20  1  0
 20 21  2  0
 21 22  1  0
 22 23  1  0
 23 24  2  0
 24 25  1  0
 25 26  2  0
 26 27  1  0
 27 28  1  0
 28 29  1  0
 29 30  1  0
 30 31  1  0
 30 32  1  0
 22 33  2  0
 16 34  1  0
 34 35  1  0
 34 36  2  0
  6 37  1  0
 37 38  1  0
 38 39  1  0
 37 40  2  0
 40  3  1  0
 36 13  1  0
 33 18  1  0
 27 23  1  0
M  END
>  <Compound_ID>  (712) 
CHEMBL3262867

>  <Molecule Name>  (712) 
nan

>  <Molecular Weight>  (712) 
548.58

>  <AlogP>  (712) 
4.01

>  <Smiles>  (712) 
COc1ccc(/C=N/NC(=O)Nc2ccc(Oc3ccnc(-c4nncn4CCN(C)C)c3)c(F)c2)c(OC)c1

>  <Standard Type>  (712) 
Inhibition

>  <Standard Relation>  (712) 
'='

>  <Standard Units>  (712) 
%

>  <Standard Value>  (712) 
6.1

>  <Assay ChEMBL ID>  (712) 
CHEMBL3271573

>  <Assay Description>  (712) 
Inhibition of c-MET (unknown origin) at 10 uM after 20 mins by HTRF method

>  <BAO Format ID>  (712) 
BAO_0000357

>  <BAO Label>  (712) 
single protein format

>  <Assay Organism>  (712) 
Homo sapiens

>  <Target ChEMBL ID>  (712) 
CHEMBL3717

>  <Target Name>  (712) 
Hepatocyte growth factor receptor

>  <Target Organism>  (712) 
Homo sapiens

>  <Target Type>  (712) 
SINGLE PROTEIN

>  <Document ChEMBL ID>  (712) 
CHEMBL3259649

>  <Source Description>  (712) 
Scientific Literature

>  <Document Journal>  (712) 
Eur J Med Chem

>  <Document Year>  (712) 
2014.0

>  <Active>  (712) 
0.0

$$$$

     RDKit          2D

 19 21  0  0  0  0  0  0  0  0999 V2000
    3.0000    0.0000    0.0000 C   0  0  0  0  0  0  0  0  0  0  0  0
    1.5000    0.0000    0.0000 C   0  0  0  0  0  0  0  0  0  0  0  0
    0.7500   -1.2990    0.0000 C   0  0  0  0  0  0  0  0  0  0  0  0
   -0.7500   -1.2990    0.0000 C   0  0  0  0  0  0  0  0  0  0  0  0
   -1.5000    0.0000    0.0000 C   0  0  0  0  0  0  0  0  0  0  0  0
   -0.7500    1.2990    0.0000 C   0  0  0  0  0  0  0  0  0  0  0  0
   -1.5000    2.5981    0.0000 N   0  0  0  0  0  0  0  0  0  0  0  0
   -0.7500    3.8971    0.0000 C   0  0  0  0  0  0  0  0  0  0  0  0
   -1.3601    5.2674    0.0000 N   0  0  0  0  0  0  0  0  0  0  0  0
   -0.2454    6.2711    0.0000 C   0  0  0  0  0  0  0  0  0  0  0  0
    1.0537    5.5211    0.0000 C   0  0  0  0  0  0  0  0  0  0  0  0
    2.4240    6.1312    0.0000 C   0  0  0  0  0  0  0  0  0  0  0  0
    3.6375    5.2496    0.0000 C   0  0  0  0  0  0  0  0  0  0  0  0
    5.0078    5.8597    0.0000 C   0  0  0  0  0  0  0  0  0  0  0  0
    5.1646    7.3514    0.0000 C   0  0  0  0  0  0  0  0  0  0  0  0
    3.9511    8.2331    0.0000 C   0  0  0  0  0  0  0  0  0  0  0  0
    2.5808    7.6230    0.0000 C   0  0  0  0  0  0  0  0  0  0  0  0
    0.7418    4.0539    0.0000 O   0  0  0  0  0  0  0  0  0  0  0  0
    0.7500    1.2990    0.0000 C   0  0  0  0  0  0  0  0  0  0  0  0
  1  2  1  0
  2  3  2  0
  3  4  1  0
  4  5  2  0
  5  6  1  0
  6  7  1  0
  7  8  1  0
  8  9  2  0
  9 10  1  0
 10 11  2  0
 11 12  1  0
 12 13  2  0
 13 14  1  0
 14 15  2  0
 15 16  1  0
 16 17  2  0
 11 18  1  0
  6 19  2  0
 19  2  1  0
 18  8  1  0
 17 12  1  0
M  END
>  <Compound_ID>  (713) 
CHEMBL192417

>  <Molecule Name>  (713) 
GW632046X

>  <Molecular Weight>  (713) 
250.30

>  <AlogP>  (713) 
4.39

>  <Smiles>  (713) 
Cc1cccc(Nc2ncc(-c3ccccc3)o2)c1

>  <Standard Type>  (713) 
Inhibition

>  <Standard Relation>  (713) 
'='

>  <Standard Units>  (713) 
%

>  <Standard Value>  (713) 
3.88

>  <Assay ChEMBL ID>  (713) 
CHEMBL1962142

>  <Assay Description>  (713) 
GSK_PKIS: MET mean inhibition at 0.1 uM [Nanosyn]

>  <BAO Format ID>  (713) 
BAO_0000357

>  <BAO Label>  (713) 
single protein format

>  <Assay Organism>  (713) 
None

>  <Target ChEMBL ID>  (713) 
CHEMBL3717

>  <Target Name>  (713) 
Hepatocyte growth factor receptor

>  <Target Organism>  (713) 
Homo sapiens

>  <Target Type>  (713) 
SINGLE PROTEIN

>  <Document ChEMBL ID>  (713) 
CHEMBL1961873

>  <Source Description>  (713) 
GSK Published Kinase Inhibitor Set

>  <Document Journal>  (713) 
nan

>  <Document Year>  (713) 
nan

>  <Active>  (713) 
0.0

$$$$

     RDKit          2D

 20 22  0  0  0  0  0  0  0  0999 V2000
    3.7500   -1.2990    0.0000 C   0  0  0  0  0  0  0  0  0  0  0  0
    3.0000    0.0000    0.0000 O   0  0  0  0  0  0  0  0  0  0  0  0
    1.5000    0.0000    0.0000 C   0  0  0  0  0  0  0  0  0  0  0  0
    0.7500   -1.2990    0.0000 C   0  0  0  0  0  0  0  0  0  0  0  0
   -0.7500   -1.2990    0.0000 C   0  0  0  0  0  0  0  0  0  0  0  0
   -1.5000    0.0000    0.0000 C   0  0  0  0  0  0  0  0  0  0  0  0
   -0.7500    1.2990    0.0000 C   0  0  0  0  0  0  0  0  0  0  0  0
    0.7500    1.2990    0.0000 C   0  0  0  0  0  0  0  0  0  0  0  0
    1.5000    2.5981    0.0000 N   0  0  0  0  0  0  0  0  0  0  0  0
    3.0000    2.5981    0.0000 C   0  0  0  0  0  0  0  0  0  0  0  0
    3.8817    3.8116    0.0000 N   0  0  0  0  0  0  0  0  0  0  0  0
    5.3083    3.3481    0.0000 C   0  0  0  0  0  0  0  0  0  0  0  0
    5.3083    1.8481    0.0000 C   0  0  0  0  0  0  0  0  0  0  0  0
    6.5218    0.9664    0.0000 C   0  0  0  0  0  0  0  0  0  0  0  0
    6.3650   -0.5254    0.0000 C   0  0  0  0  0  0  0  0  0  0  0  0
    7.5785   -1.4071    0.0000 C   0  0  0  0  0  0  0  0  0  0  0  0
    8.9488   -0.7970    0.0000 C   0  0  0  0  0  0  0  0  0  0  0  0
    9.1056    0.6948    0.0000 C   0  0  0  0  0  0  0  0  0  0  0  0
    7.8921    1.5765    0.0000 C   0  0  0  0  0  0  0  0  0  0  0  0
    3.8817    1.3846    0.0000 O   0  0  0  0  0  0  0  0  0  0  0  0
  1  2  1  0
  2  3  1  0
  3  4  2  0
  4  5  1  0
  5  6  2  0
  6  7  1  0
  7  8  2  0
  8  9  1  0
  9 10  1  0
 10 11  2  0
 11 12  1  0
 12 13  2  0
 13 14  1  0
 14 15  2  0
 15 16  1  0
 16 17  2  0
 17 18  1  0
 18 19  2  0
 13 20  1  0
  8  3  1  0
 20 10  1  0
 19 14  1  0
M  END
>  <Compound_ID>  (714) 
CHEMBL1794062

>  <Molecule Name>  (714) 
GW577921A

>  <Molecular Weight>  (714) 
302.76

>  <AlogP>  (714) 
4.09

>  <Smiles>  (714) 
COc1ccccc1Nc1ncc(-c2ccccc2)o1

>  <Standard Type>  (714) 
Inhibition

>  <Standard Relation>  (714) 
'='

>  <Standard Units>  (714) 
%

>  <Standard Value>  (714) 
10.07

>  <Assay ChEMBL ID>  (714) 
CHEMBL1962142

>  <Assay Description>  (714) 
GSK_PKIS: MET mean inhibition at 0.1 uM [Nanosyn]

>  <BAO Format ID>  (714) 
BAO_0000357

>  <BAO Label>  (714) 
single protein format

>  <Assay Organism>  (714) 
None

>  <Target ChEMBL ID>  (714) 
CHEMBL3717

>  <Target Name>  (714) 
Hepatocyte growth factor receptor

>  <Target Organism>  (714) 
Homo sapiens

>  <Target Type>  (714) 
SINGLE PROTEIN

>  <Document ChEMBL ID>  (714) 
CHEMBL1961873

>  <Source Description>  (714) 
GSK Published Kinase Inhibitor Set

>  <Document Journal>  (714) 
nan

>  <Document Year>  (714) 
nan

>  <Active>  (714) 
0.0

$$$$

     RDKit          2D

 28 31  0  0  0  0  0  0  0  0999 V2000
   -3.1240   -6.3037    0.0000 C   0  0  0  0  0  0  0  0  0  0  0  0
   -3.1240   -4.8037    0.0000 O   0  0  0  0  0  0  0  0  0  0  0  0
   -4.4231   -4.0537    0.0000 C   0  0  0  0  0  0  0  0  0  0  0  0
   -5.7221   -4.8037    0.0000 C   0  0  0  0  0  0  0  0  0  0  0  0
   -7.0211   -4.0537    0.0000 C   0  0  0  0  0  0  0  0  0  0  0  0
   -8.3202   -4.8037    0.0000 C   0  0  0  0  0  0  0  0  0  0  0  0
   -9.6192   -4.0537    0.0000 O   0  0  0  0  0  0  0  0  0  0  0  0
   -7.0211   -2.5537    0.0000 C   0  0  0  0  0  0  0  0  0  0  0  0
   -5.7221   -1.8037    0.0000 C   0  0  0  0  0  0  0  0  0  0  0  0
   -4.4231   -2.5537    0.0000 C   0  0  0  0  0  0  0  0  0  0  0  0
   -3.1240   -1.8037    0.0000 C   0  0  0  0  0  0  0  0  0  0  0  0
   -1.7537   -2.4138    0.0000 C   0  0  0  0  0  0  0  0  0  0  0  0
   -0.7500   -1.2990    0.0000 C   0  0  0  0  0  0  0  0  0  0  0  0
    0.7500   -1.2990    0.0000 C   0  0  0  0  0  0  0  0  0  0  0  0
    1.5000   -2.5981    0.0000 N   0  0  0  0  0  0  0  0  0  0  0  0
    3.0000   -2.5981    0.0000 C   0  0  0  0  0  0  0  0  0  0  0  0
    3.7500   -3.8971    0.0000 C   0  0  0  0  0  0  0  0  0  0  0  0
    3.7500   -1.2990    0.0000 C   0  0  0  0  0  0  0  0  0  0  0  0
    5.2500   -1.2990    0.0000 C   0  0  0  0  0  0  0  0  0  0  0  0
    6.0000   -0.0000    0.0000 C   0  0  0  0  0  0  0  0  0  0  0  0
    5.2500    1.2990    0.0000 C   0  0  0  0  0  0  0  0  0  0  0  0
    3.7500    1.2990    0.0000 C   0  0  0  0  0  0  0  0  0  0  0  0
    3.0000   -0.0000    0.0000 C   0  0  0  0  0  0  0  0  0  0  0  0
    1.5000    0.0000    0.0000 N   0  0  0  0  0  0  0  0  0  0  0  0
    0.7500    1.2990    0.0000 C   0  0  0  0  0  0  0  0  0  0  0  0
   -0.7500    1.2990    0.0000 N   0  0  0  0  0  0  0  0  0  0  0  0
   -1.5000    0.0000    0.0000 C   0  0  0  0  0  0  0  0  0  0  0  0
   -2.9672   -0.3119    0.0000 S   0  0  0  0  0  0  0  0  0  0  0  0
  1  2  1  0
  2  3  1  0
  3  4  2  0
  4  5  1  0
  5  6  1  0
  6  7  1  0
  5  8  2  0
  8  9  1  0
  9 10  2  0
 10 11  1  0
 11 12  2  0
 12 13  1  0
 13 14  2  0
 14 15  1  0
 15 16  1  0
 16 17  1  1
 16 18  1  0
 18 19  2  0
 19 20  1  0
 20 21  2  0
 21 22  1  0
 22 23  2  0
 14 24  1  0
 24 25  2  0
 25 26  1  0
 26 27  2  0
 27 28  1  0
 10  3  1  0
 28 11  1  0
 27 13  1  0
 23 18  1  0
M  END
>  <Compound_ID>  (715) 
CHEMBL3759559

>  <Molecule Name>  (715) 
nan

>  <Molecular Weight>  (715) 
391.50

>  <AlogP>  (715) 
5.03

>  <Smiles>  (715) 
COc1cc(CO)ccc1-c1cc2c(N[C@H](C)c3ccccc3)ncnc2s1

>  <Standard Type>  (715) 
Inhibition

>  <Standard Relation>  (715) 
'='

>  <Standard Units>  (715) 
%

>  <Standard Value>  (715) 
15.0

>  <Assay ChEMBL ID>  (715) 
CHEMBL3761591

>  <Assay Description>  (715) 
Inhibition of MET (unknown origin) at 500 nM

>  <BAO Format ID>  (715) 
BAO_0000357

>  <BAO Label>  (715) 
single protein format

>  <Assay Organism>  (715) 
Homo sapiens

>  <Target ChEMBL ID>  (715) 
CHEMBL3717

>  <Target Name>  (715) 
Hepatocyte growth factor receptor

>  <Target Organism>  (715) 
Homo sapiens

>  <Target Type>  (715) 
SINGLE PROTEIN

>  <Document ChEMBL ID>  (715) 
CHEMBL3758163

>  <Source Description>  (715) 
Scientific Literature

>  <Document Journal>  (715) 
Eur J Med Chem

>  <Document Year>  (715) 
2016.0

>  <Active>  (715) 
0.0

$$$$

     RDKit          2D

 29 32  0  0  0  0  0  0  0  0999 V2000
   -3.1240   -6.3037    0.0000 C   0  0  0  0  0  0  0  0  0  0  0  0
   -3.1240   -4.8037    0.0000 O   0  0  0  0  0  0  0  0  0  0  0  0
   -4.4231   -4.0537    0.0000 C   0  0  0  0  0  0  0  0  0  0  0  0
   -5.7221   -4.8037    0.0000 C   0  0  0  0  0  0  0  0  0  0  0  0
   -7.0211   -4.0537    0.0000 C   0  0  0  0  0  0  0  0  0  0  0  0
   -8.3202   -4.8037    0.0000 C   0  0  0  0  0  0  0  0  0  0  0  0
   -9.6192   -4.0537    0.0000 O   0  0  0  0  0  0  0  0  0  0  0  0
   -7.0211   -2.5537    0.0000 C   0  0  0  0  0  0  0  0  0  0  0  0
   -5.7221   -1.8037    0.0000 C   0  0  0  0  0  0  0  0  0  0  0  0
   -4.4231   -2.5537    0.0000 C   0  0  0  0  0  0  0  0  0  0  0  0
   -3.1240   -1.8037    0.0000 C   0  0  0  0  0  0  0  0  0  0  0  0
   -1.7537   -2.4138    0.0000 C   0  0  0  0  0  0  0  0  0  0  0  0
   -0.7500   -1.2990    0.0000 C   0  0  0  0  0  0  0  0  0  0  0  0
    0.7500   -1.2990    0.0000 C   0  0  0  0  0  0  0  0  0  0  0  0
    1.5000   -2.5981    0.0000 N   0  0  0  0  0  0  0  0  0  0  0  0
    3.0000   -2.5981    0.0000 C   0  0  0  0  0  0  0  0  0  0  0  0
    3.7500   -1.2990    0.0000 C   0  0  0  0  0  0  0  0  0  0  0  0
    5.2500   -1.2990    0.0000 O   0  0  0  0  0  0  0  0  0  0  0  0
    3.7500   -3.8971    0.0000 C   0  0  0  0  0  0  0  0  0  0  0  0
    3.0000   -5.1962    0.0000 C   0  0  0  0  0  0  0  0  0  0  0  0
    3.7500   -6.4952    0.0000 C   0  0  0  0  0  0  0  0  0  0  0  0
    5.2500   -6.4952    0.0000 C   0  0  0  0  0  0  0  0  0  0  0  0
    6.0000   -5.1962    0.0000 C   0  0  0  0  0  0  0  0  0  0  0  0
    5.2500   -3.8971    0.0000 C   0  0  0  0  0  0  0  0  0  0  0  0
    1.5000    0.0000    0.0000 N   0  0  0  0  0  0  0  0  0  0  0  0
    0.7500    1.2990    0.0000 C   0  0  0  0  0  0  0  0  0  0  0  0
   -0.7500    1.2990    0.0000 N   0  0  0  0  0  0  0  0  0  0  0  0
   -1.5000    0.0000    0.0000 C   0  0  0  0  0  0  0  0  0  0  0  0
   -2.9672   -0.3119    0.0000 S   0  0  0  0  0  0  0  0  0  0  0  0
  1  2  1  0
  2  3  1  0
  3  4  2  0
  4  5  1  0
  5  6  1  0
  6  7  1  0
  5  8  2  0
  8  9  1  0
  9 10  2  0
 10 11  1  0
 11 12  2  0
 12 13  1  0
 13 14  2  0
 14 15  1  0
 15 16  1  0
 16 17  1  6
 17 18  1  0
 16 19  1  0
 19 20  2  0
 20 21  1  0
 21 22  2  0
 22 23  1  0
 23 24  2  0
 14 25  1  0
 25 26  2  0
 26 27  1  0
 27 28  2  0
 28 29  1  0
 10  3  1  0
 29 11  1  0
 28 13  1  0
 24 19  1  0
M  END
>  <Compound_ID>  (716) 
CHEMBL3758682

>  <Molecule Name>  (716) 
nan

>  <Molecular Weight>  (716) 
407.50

>  <AlogP>  (716) 
4.00

>  <Smiles>  (716) 
COc1cc(CO)ccc1-c1cc2c(N[C@H](CO)c3ccccc3)ncnc2s1

>  <Standard Type>  (716) 
Inhibition

>  <Standard Relation>  (716) 
'='

>  <Standard Units>  (716) 
%

>  <Standard Value>  (716) 
3.0

>  <Assay ChEMBL ID>  (716) 
CHEMBL3761591

>  <Assay Description>  (716) 
Inhibition of MET (unknown origin) at 500 nM

>  <BAO Format ID>  (716) 
BAO_0000357

>  <BAO Label>  (716) 
single protein format

>  <Assay Organism>  (716) 
Homo sapiens

>  <Target ChEMBL ID>  (716) 
CHEMBL3717

>  <Target Name>  (716) 
Hepatocyte growth factor receptor

>  <Target Organism>  (716) 
Homo sapiens

>  <Target Type>  (716) 
SINGLE PROTEIN

>  <Document ChEMBL ID>  (716) 
CHEMBL3758163

>  <Source Description>  (716) 
Scientific Literature

>  <Document Journal>  (716) 
Eur J Med Chem

>  <Document Year>  (716) 
2016.0

>  <Active>  (716) 
0.0

$$$$

     RDKit          2D

 53 59  0  0  0  0  0  0  0  0999 V2000
   -5.2500   -3.8971    0.0000 C   0  0  0  0  0  0  0  0  0  0  0  0
   -3.7500   -3.8971    0.0000 O   0  0  0  0  0  0  0  0  0  0  0  0
   -3.0000   -2.5981    0.0000 C   0  0  0  0  0  0  0  0  0  0  0  0
   -1.5000   -2.5981    0.0000 C   0  0  0  0  0  0  0  0  0  0  0  0
   -0.7500   -1.2990    0.0000 C   0  0  0  0  0  0  0  0  0  0  0  0
    0.7500   -1.2990    0.0000 C   0  0  0  0  0  0  0  0  0  0  0  0
    1.5000   -2.5981    0.0000 O   0  0  0  0  0  0  0  0  0  0  0  0
    3.0000   -2.5981    0.0000 C   0  0  0  0  0  0  0  0  0  0  0  0
    3.7500   -3.8971    0.0000 C   0  0  0  0  0  0  0  0  0  0  0  0
    3.0000   -5.1962    0.0000 F   0  0  0  0  0  0  0  0  0  0  0  0
    5.2500   -3.8971    0.0000 C   0  0  0  0  0  0  0  0  0  0  0  0
    6.0000   -2.5981    0.0000 C   0  0  0  0  0  0  0  0  0  0  0  0
    7.5000   -2.5981    0.0000 N   0  0  0  0  0  0  0  0  0  0  0  0
    8.2500   -3.8971    0.0000 C   0  0  0  0  0  0  0  0  0  0  0  0
    7.5000   -5.1962    0.0000 O   0  0  0  0  0  0  0  0  0  0  0  0
    9.7500   -3.8971    0.0000 N   0  0  0  0  0  0  0  0  0  0  0  0
   10.5000   -5.1962    0.0000 N   0  0  0  0  0  0  0  0  0  0  0  0
    9.7500   -6.4952    0.0000 C   0  0  0  0  0  0  0  0  0  0  0  0
    8.2500   -6.4952    0.0000 O   0  0  0  0  0  0  0  0  0  0  0  0
   10.5000   -7.7942    0.0000 C   0  0  0  0  0  0  0  0  0  0  0  0
   12.0000   -7.7942    0.0000 C   0  0  0  0  0  0  0  0  0  0  0  0
   12.7500   -6.4952    0.0000 S   0  0  0  0  0  0  0  0  0  0  0  0
   12.0000   -5.1962    0.0000 C   0  0  0  0  0  0  0  0  0  0  0  0
   12.7500   -3.8971    0.0000 C   0  0  0  0  0  0  0  0  0  0  0  0
   14.2500   -3.8971    0.0000 C   0  0  0  0  0  0  0  0  0  0  0  0
   15.0000   -5.1962    0.0000 F   0  0  0  0  0  0  0  0  0  0  0  0
   15.0000   -2.5981    0.0000 C   0  0  0  0  0  0  0  0  0  0  0  0
   14.2500   -1.2990    0.0000 C   0  0  0  0  0  0  0  0  0  0  0  0
   12.7500   -1.2990    0.0000 C   0  0  0  0  0  0  0  0  0  0  0  0
   12.0000   -2.5981    0.0000 C   0  0  0  0  0  0  0  0  0  0  0  0
   10.5000   -2.5981    0.0000 F   0  0  0  0  0  0  0  0  0  0  0  0
    5.2500   -1.2990    0.0000 C   0  0  0  0  0  0  0  0  0  0  0  0
    3.7500   -1.2990    0.0000 C   0  0  0  0  0  0  0  0  0  0  0  0
    3.0000   -0.0000    0.0000 F   0  0  0  0  0  0  0  0  0  0  0  0
    1.5000    0.0000    0.0000 C   0  0  0  0  0  0  0  0  0  0  0  0
    0.7500    1.2990    0.0000 C   0  0  0  0  0  0  0  0  0  0  0  0
   -0.7500    1.2990    0.0000 N   0  0  0  0  0  0  0  0  0  0  0  0
   -1.5000    0.0000    0.0000 C   0  0  0  0  0  0  0  0  0  0  0  0
   -3.0000    0.0000    0.0000 C   0  0  0  0  0  0  0  0  0  0  0  0
   -3.7500   -1.2990    0.0000 C   0  0  0  0  0  0  0  0  0  0  0  0
   -5.2500   -1.2990    0.0000 O   0  0  0  0  0  0  0  0  0  0  0  0
   -6.0000    0.0000    0.0000 C   0  0  0  0  0  0  0  0  0  0  0  0
   -7.5000    0.0000    0.0000 C   0  0  0  0  0  0  0  0  0  0  0  0
   -8.2500    1.2990    0.0000 C   0  0  0  0  0  0  0  0  0  0  0  0
   -9.7500    1.2990    0.0000 N   0  0  0  0  0  0  0  0  0  0  0  0
  -10.5000    0.0000    0.0000 C   0  0  0  0  0  0  0  0  0  0  0  0
  -12.0000    0.0000    0.0000 C   0  0  0  0  0  0  0  0  0  0  0  0
  -12.7500    1.2990    0.0000 C   0  0  0  0  0  0  0  0  0  0  0  0
  -14.2172    1.6109    0.0000 S   0  0  0  0  0  0  0  0  0  0  0  0
  -14.3740    3.1027    0.0000 C   0  0  0  0  0  0  0  0  0  0  0  0
  -13.0037    3.7128    0.0000 C   0  0  0  0  0  0  0  0  0  0  0  0
  -12.0000    2.5981    0.0000 C   0  0  0  0  0  0  0  0  0  0  0  0
  -10.5000    2.5981    0.0000 C   0  0  0  0  0  0  0  0  0  0  0  0
  1  2  1  0
  2  3  1  0
  3  4  2  0
  4  5  1  0
  5  6  2  0
  6  7  1  0
  7  8  1  0
  8  9  2  0
  9 10  1  0
  9 11  1  0
 11 12  2  0
 12 13  1  0
 13 14  1  0
 14 15  2  0
 14 16  1  0
 16 17  1  0
 17 18  1  0
 18 19  2  0
 18 20  1  0
 20 21  1  0
 21 22  1  0
 22 23  1  0
 23 24  1  0
 24 25  2  0
 25 26  1  0
 25 27  1  0
 27 28  2  0
 28 29  1  0
 29 30  2  0
 30 31  1  0
 12 32  1  0
 32 33  2  0
 33 34  1  0
  6 35  1  0
 35 36  2  0
 36 37  1  0
 37 38  2  0
 38 39  1  0
 39 40  2  0
 40 41  1  0
 41 42  1  0
 42 43  1  0
 43 44  1  0
 44 45  1  0
 45 46  1  0
 46 47  1  0
 47 48  1  0
 48 49  1  0
 49 50  1  0
 50 51  2  0
 51 52  1  0
 52 53  1  0
 40  3  1  0
 53 45  1  0
 38  5  1  0
 52 48  2  0
 33  8  1  0
 23 17  1  0
 30 24  1  0
M  END
>  <Compound_ID>  (717) 
CHEMBL4446714

>  <Molecule Name>  (717) 
nan

>  <Molecular Weight>  (717) 
767.83

>  <AlogP>  (717) 
8.18

>  <Smiles>  (717) 
COc1cc2c(Oc3c(F)cc(NC(=O)NN4C(=O)CCSC4c4c(F)cccc4F)cc3F)ccnc2cc1OCCCN1CCc2sccc2C1

>  <Standard Type>  (717) 
Inhibition

>  <Standard Relation>  (717) 
'='

>  <Standard Units>  (717) 
%

>  <Standard Value>  (717) 
16.79

>  <Assay ChEMBL ID>  (717) 
CHEMBL4330419

>  <Assay Description>  (717) 
Inhibition of c-Met (unknown origin) at 0.05 uM using FAM-labelled peptide and ATP incubated for 10 mins by mobility shift assay relative to control

>  <BAO Format ID>  (717) 
BAO_0000357

>  <BAO Label>  (717) 
single protein format

>  <Assay Organism>  (717) 
Homo sapiens

>  <Target ChEMBL ID>  (717) 
CHEMBL3717

>  <Target Name>  (717) 
Hepatocyte growth factor receptor

>  <Target Organism>  (717) 
Homo sapiens

>  <Target Type>  (717) 
SINGLE PROTEIN

>  <Document ChEMBL ID>  (717) 
CHEMBL4330059

>  <Source Description>  (717) 
Scientific Literature

>  <Document Journal>  (717) 
Eur J Med Chem

>  <Document Year>  (717) 
2019.0

>  <Active>  (717) 
0.0

$$$$

     RDKit          2D

 21 23  0  0  0  0  0  0  0  0999 V2000
   -4.6904   -6.5871    0.0000 C   0  0  0  0  0  0  0  0  0  0  0  0
   -4.3786   -5.1199    0.0000 C   0  0  0  0  0  0  0  0  0  0  0  0
   -2.9520   -4.6564    0.0000 N   0  0  0  0  0  0  0  0  0  0  0  0
   -2.6401   -3.1891    0.0000 C   0  0  0  0  0  0  0  0  0  0  0  0
   -3.7548   -2.1855    0.0000 O   0  0  0  0  0  0  0  0  0  0  0  0
   -1.2135   -2.7256    0.0000 C   0  0  0  0  0  0  0  0  0  0  0  0
   -0.0000   -3.6073    0.0000 C   0  0  0  0  0  0  0  0  0  0  0  0
    1.2135   -2.7256    0.0000 N   0  0  0  0  0  0  0  0  0  0  0  0
    0.7500   -1.2990    0.0000 C   0  0  0  0  0  0  0  0  0  0  0  0
    1.5000    0.0000    0.0000 N   0  0  0  0  0  0  0  0  0  0  0  0
    0.7500    1.2990    0.0000 C   0  0  0  0  0  0  0  0  0  0  0  0
   -0.7500    1.2990    0.0000 C   0  0  0  0  0  0  0  0  0  0  0  0
   -1.5000    2.5981    0.0000 C   0  0  0  0  0  0  0  0  0  0  0  0
   -2.7990    3.3481    0.0000 C   0  0  0  0  0  0  0  0  0  0  0  0
   -1.5000    4.0981    0.0000 C   0  0  0  0  0  0  0  0  0  0  0  0
   -1.5000    0.0000    0.0000 N   0  0  0  0  0  0  0  0  0  0  0  0
   -0.7500   -1.2990    0.0000 C   0  0  0  0  0  0  0  0  0  0  0  0
   -5.4933   -4.1162    0.0000 C   0  0  0  0  0  0  0  0  0  0  0  0
   -6.4970   -5.2309    0.0000 C   0  0  0  0  0  0  0  0  0  0  0  0
   -4.4896   -3.0015    0.0000 C   0  0  0  0  0  0  0  0  0  0  0  0
   -6.6080   -3.1125    0.0000 C   0  0  0  0  0  0  0  0  0  0  0  0
  2  1  1  1
  2  3  1  0
  3  4  1  0
  4  5  2  0
  4  6  1  0
  6  7  2  0
  7  8  1  0
  8  9  1  0
  9 10  2  0
 10 11  1  0
 11 12  2  0
 12 13  1  0
 13 14  1  0
 14 15  1  0
 12 16  1  0
 16 17  2  0
  2 18  1  0
 18 19  1  0
 18 20  1  0
 18 21  1  0
 17  6  1  0
 17  9  1  0
 15 13  1  0
M  END
>  <Compound_ID>  (718) 
CHEMBL2325903

>  <Molecule Name>  (718) 
nan

>  <Molecular Weight>  (718) 
286.38

>  <AlogP>  (718) 
3.00

>  <Smiles>  (718) 
C[C@H](NC(=O)c1c[nH]c2ncc(C3CC3)nc12)C(C)(C)C

>  <Standard Type>  (718) 
Inhibition

>  <Standard Relation>  (718) 
'='

>  <Standard Units>  (718) 
%

>  <Standard Value>  (718) 
3.0

>  <Assay ChEMBL ID>  (718) 
CHEMBL2329182

>  <Assay Description>  (718) 
Inhibition of MET (unknown origin) at 1 uM

>  <BAO Format ID>  (718) 
BAO_0000357

>  <BAO Label>  (718) 
single protein format

>  <Assay Organism>  (718) 
Homo sapiens

>  <Target ChEMBL ID>  (718) 
CHEMBL3717

>  <Target Name>  (718) 
Hepatocyte growth factor receptor

>  <Target Organism>  (718) 
Homo sapiens

>  <Target Type>  (718) 
SINGLE PROTEIN

>  <Document ChEMBL ID>  (718) 
CHEMBL2321829

>  <Source Description>  (718) 
Scientific Literature

>  <Document Journal>  (718) 
J Med Chem

>  <Document Year>  (718) 
2013.0

>  <Active>  (718) 
0.0

$$$$

     RDKit          2D

 18 20  0  0  0  0  0  0  0  0999 V2000
   -2.6401   -3.1891    0.0000 C   0  0  0  0  0  0  0  0  0  0  0  0
   -1.2135   -2.7256    0.0000 N   0  0  0  0  0  0  0  0  0  0  0  0
   -0.0000   -3.6073    0.0000 N   0  0  0  0  0  0  0  0  0  0  0  0
    1.2135   -2.7256    0.0000 C   0  0  0  0  0  0  0  0  0  0  0  0
    2.6401   -3.1891    0.0000 N   0  0  0  0  0  0  0  0  0  0  0  0
    0.7500   -1.2990    0.0000 C   0  0  0  0  0  0  0  0  0  0  0  0
    1.5000    0.0000    0.0000 C   0  0  0  0  0  0  0  0  0  0  0  0
    3.0000    0.0000    0.0000 O   0  0  0  0  0  0  0  0  0  0  0  0
    0.7500    1.2990    0.0000 N   0  0  0  0  0  0  0  0  0  0  0  0
   -0.7500    1.2990    0.0000 C   0  0  0  0  0  0  0  0  0  0  0  0
   -1.5000    2.5981    0.0000 C   0  0  0  0  0  0  0  0  0  0  0  0
   -0.7500    3.8971    0.0000 C   0  0  0  0  0  0  0  0  0  0  0  0
   -1.5000    5.1962    0.0000 C   0  0  0  0  0  0  0  0  0  0  0  0
   -3.0000    5.1962    0.0000 C   0  0  0  0  0  0  0  0  0  0  0  0
   -3.7500    3.8971    0.0000 C   0  0  0  0  0  0  0  0  0  0  0  0
   -3.0000    2.5981    0.0000 N   0  0  0  0  0  0  0  0  0  0  0  0
   -1.5000    0.0000    0.0000 C   0  0  0  0  0  0  0  0  0  0  0  0
   -0.7500   -1.2990    0.0000 C   0  0  0  0  0  0  0  0  0  0  0  0
  1  2  1  0
  2  3  1  0
  3  4  2  0
  4  5  1  0
  4  6  1  0
  6  7  1  0
  7  8  2  0
  7  9  1  0
  9 10  1  0
 10 11  1  0
 11 12  2  0
 12 13  1  0
 13 14  2  0
 14 15  1  0
 15 16  2  0
 10 17  2  0
 17 18  1  0
 18  2  1  0
 18  6  2  0
 16 11  1  0
M  END
>  <Compound_ID>  (719) 
CHEMBL1813622

>  <Molecule Name>  (719) 
nan

>  <Molecular Weight>  (719) 
241.25

>  <AlogP>  (719) 
0.91

>  <Smiles>  (719) 
Cn1nc(N)c2c(=O)[nH]c(-c3ccccn3)cc21

>  <Standard Type>  (719) 
Inhibition

>  <Standard Relation>  (719) 
'='

>  <Standard Units>  (719) 
%

>  <Standard Value>  (719) 
6.0

>  <Assay ChEMBL ID>  (719) 
CHEMBL1815730

>  <Assay Description>  (719) 
Inhibition of MET at 30 uM by microfluidic mobility shift assay

>  <BAO Format ID>  (719) 
BAO_0000357

>  <BAO Label>  (719) 
single protein format

>  <Assay Organism>  (719) 
None

>  <Target ChEMBL ID>  (719) 
CHEMBL3717

>  <Target Name>  (719) 
Hepatocyte growth factor receptor

>  <Target Organism>  (719) 
Homo sapiens

>  <Target Type>  (719) 
SINGLE PROTEIN

>  <Document ChEMBL ID>  (719) 
CHEMBL1811853

>  <Source Description>  (719) 
Scientific Literature

>  <Document Journal>  (719) 
Bioorg Med Chem

>  <Document Year>  (719) 
2011.0

>  <Active>  (719) 
0.0

$$$$

     RDKit          2D

 17 18  0  0  0  0  0  0  0  0999 V2000
    3.0000    0.0000    0.0000 C   0  0  0  0  0  0  0  0  0  0  0  0
    1.5000    0.0000    0.0000 C   0  0  0  0  0  0  0  0  0  0  0  0
    0.7500   -1.2990    0.0000 C   0  0  0  0  0  0  0  0  0  0  0  0
   -0.7500   -1.2990    0.0000 C   0  0  0  0  0  0  0  0  0  0  0  0
   -1.5000    0.0000    0.0000 C   0  0  0  0  0  0  0  0  0  0  0  0
   -2.9672   -0.3119    0.0000 C   0  0  0  0  0  0  0  0  0  0  0  0
   -4.0819    0.6918    0.0000 N   0  0  0  0  0  0  0  0  0  0  0  0
   -5.5085    0.2283    0.0000 S   0  0  0  0  0  0  0  0  0  0  0  0
   -6.9351   -0.2352    0.0000 C   0  0  0  0  0  0  0  0  0  0  0  0
   -5.0450   -1.1983    0.0000 O   0  0  0  0  0  0  0  0  0  0  0  0
   -5.9720    1.6549    0.0000 O   0  0  0  0  0  0  0  0  0  0  0  0
   -3.1240   -1.8037    0.0000 N   0  0  0  0  0  0  0  0  0  0  0  0
   -1.7537   -2.4138    0.0000 N   0  0  0  0  0  0  0  0  0  0  0  0
   -1.4418   -3.8810    0.0000 C   0  0  0  0  0  0  0  0  0  0  0  0
   -0.7500    1.2990    0.0000 C   0  0  0  0  0  0  0  0  0  0  0  0
   -1.5000    2.5981    0.0000 O   0  0  0  0  0  0  0  0  0  0  0  0
    0.7500    1.2990    0.0000 N   0  0  0  0  0  0  0  0  0  0  0  0
  1  2  1  0
  2  3  2  0
  3  4  1  0
  4  5  2  0
  5  6  1  0
  6  7  1  0
  7  8  1  0
  8  9  1  0
  8 10  2  0
  8 11  2  0
  6 12  2  0
 12 13  1  0
 13 14  1  0
  5 15  1  0
 15 16  2  0
 15 17  1  0
 17  2  1  0
 13  4  1  0
M  END
>  <Compound_ID>  (720) 
CHEMBL1813778

>  <Molecule Name>  (720) 
nan

>  <Molecular Weight>  (720) 
256.29

>  <AlogP>  (720) 
-0.06

>  <Smiles>  (720) 
Cc1cc2c(c(NS(C)(=O)=O)nn2C)c(=O)[nH]1

>  <Standard Type>  (720) 
Inhibition

>  <Standard Relation>  (720) 
'='

>  <Standard Units>  (720) 
%

>  <Standard Value>  (720) 
18.0

>  <Assay ChEMBL ID>  (720) 
CHEMBL1815730

>  <Assay Description>  (720) 
Inhibition of MET at 30 uM by microfluidic mobility shift assay

>  <BAO Format ID>  (720) 
BAO_0000357

>  <BAO Label>  (720) 
single protein format

>  <Assay Organism>  (720) 
None

>  <Target ChEMBL ID>  (720) 
CHEMBL3717

>  <Target Name>  (720) 
Hepatocyte growth factor receptor

>  <Target Organism>  (720) 
Homo sapiens

>  <Target Type>  (720) 
SINGLE PROTEIN

>  <Document ChEMBL ID>  (720) 
CHEMBL1811853

>  <Source Description>  (720) 
Scientific Literature

>  <Document Journal>  (720) 
Bioorg Med Chem

>  <Document Year>  (720) 
2011.0

>  <Active>  (720) 
0.0

$$$$

     RDKit          2D

 17 18  0  0  0  0  0  0  0  0999 V2000
    7.5000   -2.5981    0.0000 C   0  0  0  0  0  0  0  0  0  0  0  0
    6.0000   -2.5981    0.0000 O   0  0  0  0  0  0  0  0  0  0  0  0
    5.2500   -1.2990    0.0000 C   0  0  0  0  0  0  0  0  0  0  0  0
    3.7500   -1.2990    0.0000 C   0  0  0  0  0  0  0  0  0  0  0  0
    3.0000    0.0000    0.0000 N   0  0  0  0  0  0  0  0  0  0  0  0
    1.5000    0.0000    0.0000 C   0  0  0  0  0  0  0  0  0  0  0  0
    0.7500   -1.2990    0.0000 N   0  0  0  0  0  0  0  0  0  0  0  0
   -0.7500   -1.2990    0.0000 C   0  0  0  0  0  0  0  0  0  0  0  0
   -1.5000   -2.5981    0.0000 C   0  0  0  0  0  0  0  0  0  0  0  0
   -1.5000    0.0000    0.0000 C   0  0  0  0  0  0  0  0  0  0  0  0
   -0.7500    1.2990    0.0000 C   0  0  0  0  0  0  0  0  0  0  0  0
    0.7500    1.2990    0.0000 C   0  0  0  0  0  0  0  0  0  0  0  0
    1.2135    2.7256    0.0000 C   0  0  0  0  0  0  0  0  0  0  0  0
    2.6401    3.1891    0.0000 N   0  0  0  0  0  0  0  0  0  0  0  0
    0.0000    3.6073    0.0000 N   0  0  0  0  0  0  0  0  0  0  0  0
   -1.2135    2.7256    0.0000 N   0  0  0  0  0  0  0  0  0  0  0  0
   -2.6401    3.1891    0.0000 C   0  0  0  0  0  0  0  0  0  0  0  0
  1  2  1  0
  2  3  1  0
  3  4  1  0
  4  5  1  0
  5  6  1  0
  6  7  2  0
  7  8  1  0
  8  9  1  0
  8 10  2  0
 10 11  1  0
 11 12  2  0
 12 13  1  0
 13 14  1  0
 13 15  2  0
 15 16  1  0
 16 17  1  0
 12  6  1  0
 16 11  1  0
M  END
>  <Compound_ID>  (721) 
CHEMBL1813785

>  <Molecule Name>  (721) 
nan

>  <Molecular Weight>  (721) 
235.29

>  <AlogP>  (721) 
0.92

>  <Smiles>  (721) 
COCCNc1nc(C)cc2c1c(N)nn2C

>  <Standard Type>  (721) 
Inhibition

>  <Standard Relation>  (721) 
'='

>  <Standard Units>  (721) 
%

>  <Standard Value>  (721) 
-5.0

>  <Assay ChEMBL ID>  (721) 
CHEMBL1815730

>  <Assay Description>  (721) 
Inhibition of MET at 30 uM by microfluidic mobility shift assay

>  <BAO Format ID>  (721) 
BAO_0000357

>  <BAO Label>  (721) 
single protein format

>  <Assay Organism>  (721) 
None

>  <Target ChEMBL ID>  (721) 
CHEMBL3717

>  <Target Name>  (721) 
Hepatocyte growth factor receptor

>  <Target Organism>  (721) 
Homo sapiens

>  <Target Type>  (721) 
SINGLE PROTEIN

>  <Document ChEMBL ID>  (721) 
CHEMBL1811853

>  <Source Description>  (721) 
Scientific Literature

>  <Document Journal>  (721) 
Bioorg Med Chem

>  <Document Year>  (721) 
2011.0

>  <Active>  (721) 
0.0

$$$$

     RDKit          2D

 24 27  0  0  0  0  0  0  0  0999 V2000
   -2.9499    4.2246    0.0000 C   0  0  0  0  0  0  0  0  0  0  0  0
   -1.8351    3.2209    0.0000 C   0  0  0  0  0  0  0  0  0  0  0  0
   -0.4086    3.6844    0.0000 N   0  0  0  0  0  0  0  0  0  0  0  0
    0.7062    2.6807    0.0000 C   0  0  0  0  0  0  0  0  0  0  0  0
    2.1328    3.1443    0.0000 O   0  0  0  0  0  0  0  0  0  0  0  0
    0.3943    1.2135    0.0000 C   0  0  0  0  0  0  0  0  0  0  0  0
    1.2760    0.0000    0.0000 C   0  0  0  0  0  0  0  0  0  0  0  0
    2.7760    0.0000    0.0000 N   0  0  0  0  0  0  0  0  0  0  0  0
    0.3943   -1.2135    0.0000 N   0  0  0  0  0  0  0  0  0  0  0  0
    0.8578   -2.6401    0.0000 C   0  0  0  0  0  0  0  0  0  0  0  0
   -0.1459   -3.7548    0.0000 C   0  0  0  0  0  0  0  0  0  0  0  0
    0.3177   -5.1814    0.0000 C   0  0  0  0  0  0  0  0  0  0  0  0
    1.7849   -5.4933    0.0000 C   0  0  0  0  0  0  0  0  0  0  0  0
    2.7886   -4.3786    0.0000 C   0  0  0  0  0  0  0  0  0  0  0  0
    2.3250   -2.9520    0.0000 C   0  0  0  0  0  0  0  0  0  0  0  0
   -1.0323   -0.7500    0.0000 N   0  0  0  0  0  0  0  0  0  0  0  0
   -1.0323    0.7500    0.0000 C   0  0  0  0  0  0  0  0  0  0  0  0
   -2.1470    1.7537    0.0000 C   0  0  0  0  0  0  0  0  0  0  0  0
   -3.5736    1.2902    0.0000 C   0  0  0  0  0  0  0  0  0  0  0  0
   -4.6883    2.2939    0.0000 C   0  0  0  0  0  0  0  0  0  0  0  0
   -6.1149    1.8303    0.0000 C   0  0  0  0  0  0  0  0  0  0  0  0
   -6.4268    0.3631    0.0000 C   0  0  0  0  0  0  0  0  0  0  0  0
   -5.3120   -0.6406    0.0000 C   0  0  0  0  0  0  0  0  0  0  0  0
   -3.8855   -0.1771    0.0000 C   0  0  0  0  0  0  0  0  0  0  0  0
  1  2  1  0
  2  3  1  0
  3  4  1  0
  4  5  2  0
  4  6  1  0
  6  7  2  0
  7  8  1  0
  7  9  1  0
  9 10  1  0
 10 11  2  0
 11 12  1  0
 12 13  2  0
 13 14  1  0
 14 15  2  0
  9 16  1  0
 16 17  2  0
 17 18  1  0
 18 19  1  0
 19 20  2  0
 20 21  1  0
 21 22  2  0
 22 23  1  0
 23 24  2  0
 18  2  2  0
 24 19  1  0
 17  6  1  0
 15 10  1  0
M  END
>  <Compound_ID>  (722) 
CHEMBL1813798

>  <Molecule Name>  (722) 
nan

>  <Molecular Weight>  (722) 
316.36

>  <AlogP>  (722) 
3.27

>  <Smiles>  (722) 
Cc1[nH]c(=O)c2c(N)n(-c3ccccc3)nc2c1-c1ccccc1

>  <Standard Type>  (722) 
Inhibition

>  <Standard Relation>  (722) 
'='

>  <Standard Units>  (722) 
%

>  <Standard Value>  (722) 
8.0

>  <Assay ChEMBL ID>  (722) 
CHEMBL1815730

>  <Assay Description>  (722) 
Inhibition of MET at 30 uM by microfluidic mobility shift assay

>  <BAO Format ID>  (722) 
BAO_0000357

>  <BAO Label>  (722) 
single protein format

>  <Assay Organism>  (722) 
None

>  <Target ChEMBL ID>  (722) 
CHEMBL3717

>  <Target Name>  (722) 
Hepatocyte growth factor receptor

>  <Target Organism>  (722) 
Homo sapiens

>  <Target Type>  (722) 
SINGLE PROTEIN

>  <Document ChEMBL ID>  (722) 
CHEMBL1811853

>  <Source Description>  (722) 
Scientific Literature

>  <Document Journal>  (722) 
Bioorg Med Chem

>  <Document Year>  (722) 
2011.0

>  <Active>  (722) 
0.0

$$$$

     RDKit          2D

 15 16  0  0  0  0  0  0  0  0999 V2000
    3.0000    0.0000    0.0000 C   0  0  0  0  0  0  0  0  0  0  0  0
    1.5000    0.0000    0.0000 C   0  0  0  0  0  0  0  0  0  0  0  0
    0.7500   -1.2990    0.0000 N   0  0  0  0  0  0  0  0  0  0  0  0
   -0.7500   -1.2990    0.0000 C   0  0  0  0  0  0  0  0  0  0  0  0
   -1.5000   -2.5981    0.0000 O   0  0  0  0  0  0  0  0  0  0  0  0
   -1.5000    0.0000    0.0000 C   0  0  0  0  0  0  0  0  0  0  0  0
   -3.0000    0.0000    0.0000 N   0  0  0  0  0  0  0  0  0  0  0  0
   -0.7500    1.2990    0.0000 C   0  0  0  0  0  0  0  0  0  0  0  0
    0.7500    1.2990    0.0000 C   0  0  0  0  0  0  0  0  0  0  0  0
    1.5000    2.5981    0.0000 C   0  0  0  0  0  0  0  0  0  0  0  0
    3.0000    2.5981    0.0000 C   0  0  0  0  0  0  0  0  0  0  0  0
    3.7500    3.8971    0.0000 C   0  0  0  0  0  0  0  0  0  0  0  0
    3.0000    5.1962    0.0000 N   0  0  0  0  0  0  0  0  0  0  0  0
    1.5000    5.1962    0.0000 C   0  0  0  0  0  0  0  0  0  0  0  0
    0.7500    3.8971    0.0000 C   0  0  0  0  0  0  0  0  0  0  0  0
  1  2  1  0
  2  3  2  0
  3  4  1  0
  4  5  1  0
  4  6  2  0
  6  7  1  0
  6  8  1  0
  8  9  2  0
  9 10  1  0
 10 11  2  0
 11 12  1  0
 12 13  2  0
 13 14  1  0
 14 15  2  0
  9  2  1  0
 15 10  1  0
M  END
>  <Compound_ID>  (723) 
CHEMBL302219

>  <Molecule Name>  (723) 
nan

>  <Molecular Weight>  (723) 
201.23

>  <AlogP>  (723) 
1.74

>  <Smiles>  (723) 
Cc1nc(O)c(N)cc1-c1ccncc1

>  <Standard Type>  (723) 
Inhibition

>  <Standard Relation>  (723) 
'='

>  <Standard Units>  (723) 
%

>  <Standard Value>  (723) 
14.0

>  <Assay ChEMBL ID>  (723) 
CHEMBL4256656

>  <Assay Description>  (723) 
Inhibition of MET (unknown origin) at 100 uM using peptide as substrate in presence of ATP and MgCl2 by mobility shift assay relative to control

>  <BAO Format ID>  (723) 
BAO_0000357

>  <BAO Label>  (723) 
single protein format

>  <Assay Organism>  (723) 
Homo sapiens

>  <Target ChEMBL ID>  (723) 
CHEMBL3717

>  <Target Name>  (723) 
Hepatocyte growth factor receptor

>  <Target Organism>  (723) 
Homo sapiens

>  <Target Type>  (723) 
SINGLE PROTEIN

>  <Document ChEMBL ID>  (723) 
CHEMBL4251747

>  <Source Description>  (723) 
Scientific Literature

>  <Document Journal>  (723) 
Bioorg Med Chem

>  <Document Year>  (723) 
2018.0

>  <Active>  (723) 
0.0

$$$$

     RDKit          2D

 35 39  0  0  0  0  0  0  0  0999 V2000
    1.9775   -9.6721    0.0000 C   0  0  0  0  0  0  0  0  0  0  0  0
    3.3478   -9.0619    0.0000 C   0  0  0  0  0  0  0  0  0  0  0  0
    4.5613   -9.9436    0.0000 C   0  0  0  0  0  0  0  0  0  0  0  0
    3.5046   -7.5702    0.0000 N   0  0  0  0  0  0  0  0  0  0  0  0
    2.3899   -6.5665    0.0000 N   0  0  0  0  0  0  0  0  0  0  0  0
    3.0000   -5.1962    0.0000 C   0  0  0  0  0  0  0  0  0  0  0  0
    2.2500   -3.8971    0.0000 C   0  0  0  0  0  0  0  0  0  0  0  0
    1.5000   -2.5981    0.0000 C   0  0  0  0  0  0  0  0  0  0  0  0
    0.7500   -1.2990    0.0000 C   0  0  0  0  0  0  0  0  0  0  0  0
    1.5000    0.0000    0.0000 C   0  0  0  0  0  0  0  0  0  0  0  0
    0.7500    1.2990    0.0000 C   0  0  0  0  0  0  0  0  0  0  0  0
   -0.7500    1.2990    0.0000 C   0  0  0  0  0  0  0  0  0  0  0  0
   -1.5000    0.0000    0.0000 C   0  0  0  0  0  0  0  0  0  0  0  0
   -3.0000    0.0000    0.0000 C   0  0  0  0  0  0  0  0  0  0  0  0
   -3.7500   -1.2990    0.0000 C   0  0  0  0  0  0  0  0  0  0  0  0
   -5.2500   -1.2990    0.0000 C   0  0  0  0  0  0  0  0  0  0  0  0
   -6.0000    0.0000    0.0000 C   0  0  0  0  0  0  0  0  0  0  0  0
   -7.5000    0.0000    0.0000 C   0  0  0  0  0  0  0  0  0  0  0  0
   -8.2500   -1.2990    0.0000 C   0  0  0  0  0  0  0  0  0  0  0  0
   -7.5000   -2.5981    0.0000 C   0  0  0  0  0  0  0  0  0  0  0  0
   -8.2500   -3.8971    0.0000 C   0  0  0  0  0  0  0  0  0  0  0  0
   -9.0000   -5.1962    0.0000 F   0  0  0  0  0  0  0  0  0  0  0  0
   -9.5490   -3.1471    0.0000 F   0  0  0  0  0  0  0  0  0  0  0  0
   -6.9510   -4.6471    0.0000 F   0  0  0  0  0  0  0  0  0  0  0  0
   -6.0000   -2.5981    0.0000 C   0  0  0  0  0  0  0  0  0  0  0  0
   -3.0000   -2.5981    0.0000 N   0  0  0  0  0  0  0  0  0  0  0  0
   -1.5000   -2.5981    0.0000 C   0  0  0  0  0  0  0  0  0  0  0  0
   -0.7500   -1.2990    0.0000 C   0  0  0  0  0  0  0  0  0  0  0  0
    4.4918   -5.3529    0.0000 C   0  0  0  0  0  0  0  0  0  0  0  0
    5.6065   -4.3492    0.0000 C   0  0  0  0  0  0  0  0  0  0  0  0
    5.2946   -2.8820    0.0000 N   0  0  0  0  0  0  0  0  0  0  0  0
    7.0331   -4.8128    0.0000 N   0  0  0  0  0  0  0  0  0  0  0  0
    7.3450   -6.2800    0.0000 C   0  0  0  0  0  0  0  0  0  0  0  0
    6.2302   -7.2837    0.0000 N   0  0  0  0  0  0  0  0  0  0  0  0
    4.8037   -6.8202    0.0000 C   0  0  0  0  0  0  0  0  0  0  0  0
  1  2  1  0
  2  3  1  0
  2  4  1  0
  4  5  1  0
  5  6  2  0
  6  7  1  0
  7  8  3  0
  8  9  1  0
  9 10  2  0
 10 11  1  0
 11 12  2  0
 12 13  1  0
 13 14  2  0
 14 15  1  0
 15 16  1  0
 16 17  2  0
 17 18  1  0
 18 19  2  0
 19 20  1  0
 20 21  1  0
 21 22  1  0
 21 23  1  0
 21 24  1  0
 20 25  2  0
 15 26  2  0
 26 27  1  0
 27 28  2  0
  6 29  1  0
 29 30  2  0
 30 31  1  0
 30 32  1  0
 32 33  2  0
 33 34  1  0
 34 35  2  0
 35  4  1  0
 28  9  1  0
 35 29  1  0
 28 13  1  0
 25 16  1  0
M  END
>  <Compound_ID>  (724) 
CHEMBL4247506

>  <Molecule Name>  (724) 
nan

>  <Molecular Weight>  (724) 
472.47

>  <AlogP>  (724) 
5.62

>  <Smiles>  (724) 
CC(C)n1nc(C#Cc2cccc3cc(-c4cccc(C(F)(F)F)c4)ncc23)c2c(N)ncnc21

>  <Standard Type>  (724) 
Inhibition

>  <Standard Relation>  (724) 
'='

>  <Standard Units>  (724) 
%

>  <Standard Value>  (724) 
-1.0

>  <Assay ChEMBL ID>  (724) 
CHEMBL4230144

>  <Assay Description>  (724) 
Inhibition of MET (unknown origin) at 1 uM by mobility shift microfluidics platform based assay relative to control

>  <BAO Format ID>  (724) 
BAO_0000357

>  <BAO Label>  (724) 
single protein format

>  <Assay Organism>  (724) 
Homo sapiens

>  <Target ChEMBL ID>  (724) 
CHEMBL3717

>  <Target Name>  (724) 
Hepatocyte growth factor receptor

>  <Target Organism>  (724) 
Homo sapiens

>  <Target Type>  (724) 
SINGLE PROTEIN

>  <Document ChEMBL ID>  (724) 
CHEMBL4229333

>  <Source Description>  (724) 
Scientific Literature

>  <Document Journal>  (724) 
Eur J Med Chem

>  <Document Year>  (724) 
2018.0

>  <Active>  (724) 
0.0

$$$$

     RDKit          2D

 22 25  0  0  0  0  0  0  0  0999 V2000
   -6.9177    4.3013    0.0000 C   0  0  0  0  0  0  0  0  0  0  0  0
   -5.4912    4.7648    0.0000 C   0  0  0  0  0  0  0  0  0  0  0  0
   -4.3764    3.7611    0.0000 C   0  0  0  0  0  0  0  0  0  0  0  0
   -4.6883    2.2939    0.0000 C   0  0  0  0  0  0  0  0  0  0  0  0
   -3.5736    1.2902    0.0000 N   0  0  0  0  0  0  0  0  0  0  0  0
   -2.1470    1.7537    0.0000 C   0  0  0  0  0  0  0  0  0  0  0  0
   -1.8351    3.2209    0.0000 N   0  0  0  0  0  0  0  0  0  0  0  0
   -0.4086    3.6844    0.0000 C   0  0  0  0  0  0  0  0  0  0  0  0
   -0.0967    5.1517    0.0000 N   0  0  0  0  0  0  0  0  0  0  0  0
    1.3299    5.6152    0.0000 C   0  0  0  0  0  0  0  0  0  0  0  0
    1.7934    7.0418    0.0000 C   0  0  0  0  0  0  0  0  0  0  0  0
    3.2934    7.0418    0.0000 N   0  0  0  0  0  0  0  0  0  0  0  0
    3.7570    5.6152    0.0000 N   0  0  0  0  0  0  0  0  0  0  0  0
    2.5434    4.7335    0.0000 C   0  0  0  0  0  0  0  0  0  0  0  0
    0.7062    2.6807    0.0000 N   0  0  0  0  0  0  0  0  0  0  0  0
    0.3943    1.2135    0.0000 C   0  0  0  0  0  0  0  0  0  0  0  0
    1.2760    0.0000    0.0000 N   0  0  0  0  0  0  0  0  0  0  0  0
    0.3943   -1.2135    0.0000 C   0  0  0  0  0  0  0  0  0  0  0  0
   -1.0323   -0.7500    0.0000 C   0  0  0  0  0  0  0  0  0  0  0  0
   -1.0323    0.7500    0.0000 C   0  0  0  0  0  0  0  0  0  0  0  0
   -6.1149    1.8303    0.0000 C   0  0  0  0  0  0  0  0  0  0  0  0
   -7.2296    2.8340    0.0000 C   0  0  0  0  0  0  0  0  0  0  0  0
  1  2  2  0
  2  3  1  0
  3  4  2  0
  4  5  1  0
  5  6  1  0
  6  7  2  0
  7  8  1  0
  8  9  1  0
  9 10  1  0
 10 11  1  0
 11 12  2  0
 12 13  1  0
 13 14  1  0
  8 15  2  0
 15 16  1  0
 16 17  1  0
 17 18  1  0
 18 19  2  0
 19 20  1  0
  4 21  1  0
 21 22  2  0
 22  1  1  0
 20  6  1  0
 14 10  2  0
 20 16  2  0
M  END
>  <Compound_ID>  (725) 
CHEMBL4448847

>  <Molecule Name>  (725) 
nan

>  <Molecular Weight>  (725) 
291.32

>  <AlogP>  (725) 
3.17

>  <Smiles>  (725) 
c1ccc(Nc2nc(Nc3cn[nH]c3)nc3[nH]ccc23)cc1

>  <Standard Type>  (725) 
Inhibition

>  <Standard Relation>  (725) 
'='

>  <Standard Units>  (725) 
%

>  <Standard Value>  (725) 
6.3

>  <Assay ChEMBL ID>  (725) 
CHEMBL4431279

>  <Assay Description>  (725) 
Inhibition of c-Met (unknown origin) at 20 nM relative to control

>  <BAO Format ID>  (725) 
BAO_0000357

>  <BAO Label>  (725) 
single protein format

>  <Assay Organism>  (725) 
Homo sapiens

>  <Target ChEMBL ID>  (725) 
CHEMBL3717

>  <Target Name>  (725) 
Hepatocyte growth factor receptor

>  <Target Organism>  (725) 
Homo sapiens

>  <Target Type>  (725) 
SINGLE PROTEIN

>  <Document ChEMBL ID>  (725) 
CHEMBL4428138

>  <Source Description>  (725) 
Scientific Literature

>  <Document Journal>  (725) 
ACS Med Chem Lett

>  <Document Year>  (725) 
2016.0

>  <Active>  (725) 
0.0

$$$$

     RDKit          2D

 31 35  0  0  0  0  0  0  0  0999 V2000
   12.7500   -3.8971    0.0000 C   0  0  0  0  0  0  0  0  0  0  0  0
   12.0000   -2.5981    0.0000 C   0  0  0  0  0  0  0  0  0  0  0  0
   12.7500   -1.2990    0.0000 O   0  0  0  0  0  0  0  0  0  0  0  0
   10.5000   -2.5981    0.0000 N   0  0  0  0  0  0  0  0  0  0  0  0
    9.7500   -3.8971    0.0000 C   0  0  0  0  0  0  0  0  0  0  0  0
    8.2500   -3.8971    0.0000 C   0  0  0  0  0  0  0  0  0  0  0  0
    7.5000   -2.5981    0.0000 N   0  0  0  0  0  0  0  0  0  0  0  0
    6.0000   -2.5981    0.0000 C   0  0  0  0  0  0  0  0  0  0  0  0
    5.2500   -1.2990    0.0000 C   0  0  0  0  0  0  0  0  0  0  0  0
    3.7500   -1.2990    0.0000 C   0  0  0  0  0  0  0  0  0  0  0  0
    3.0000   -2.5981    0.0000 C   0  0  0  0  0  0  0  0  0  0  0  0
    1.5000   -2.5981    0.0000 N   0  0  0  0  0  0  0  0  0  0  0  0
    0.7500   -1.2990    0.0000 C   0  0  0  0  0  0  0  0  0  0  0  0
    1.5000    0.0000    0.0000 N   0  0  0  0  0  0  0  0  0  0  0  0
    0.7500    1.2990    0.0000 C   0  0  0  0  0  0  0  0  0  0  0  0
   -0.7500    1.2990    0.0000 N   0  0  0  0  0  0  0  0  0  0  0  0
   -1.5000    0.0000    0.0000 N   0  0  0  0  0  0  0  0  0  0  0  0
   -2.9672   -0.3119    0.0000 C   0  0  0  0  0  0  0  0  0  0  0  0
   -3.1240   -1.8037    0.0000 C   0  0  0  0  0  0  0  0  0  0  0  0
   -1.7537   -2.4138    0.0000 C   0  0  0  0  0  0  0  0  0  0  0  0
   -1.4418   -3.8810    0.0000 C   0  0  0  0  0  0  0  0  0  0  0  0
   -2.5565   -4.8847    0.0000 C   0  0  0  0  0  0  0  0  0  0  0  0
   -2.2447   -6.3519    0.0000 C   0  0  0  0  0  0  0  0  0  0  0  0
   -0.8181   -6.8154    0.0000 O   0  0  0  0  0  0  0  0  0  0  0  0
    0.2966   -5.8117    0.0000 C   0  0  0  0  0  0  0  0  0  0  0  0
   -0.0152   -4.3445    0.0000 C   0  0  0  0  0  0  0  0  0  0  0  0
   -0.7500   -1.2990    0.0000 C   0  0  0  0  0  0  0  0  0  0  0  0
    3.7500   -3.8971    0.0000 C   0  0  0  0  0  0  0  0  0  0  0  0
    5.2500   -3.8971    0.0000 C   0  0  0  0  0  0  0  0  0  0  0  0
    8.2500   -1.2990    0.0000 C   0  0  0  0  0  0  0  0  0  0  0  0
    9.7500   -1.2990    0.0000 C   0  0  0  0  0  0  0  0  0  0  0  0
  1  2  1  0
  2  3  2  0
  2  4  1  0
  4  5  1  0
  5  6  1  0
  6  7  1  0
  8  7  1  6
  8  9  1  0
  9 10  1  0
 10 11  1  0
 11 12  1  1
 12 13  1  0
 13 14  2  0
 14 15  1  0
 15 16  2  0
 16 17  1  0
 17 18  1  0
 18 19  2  0
 19 20  1  0
 20 21  1  0
 21 22  1  0
 22 23  1  0
 23 24  1  0
 24 25  1  0
 25 26  1  0
 20 27  2  0
 11 28  1  0
 28 29  1  0
  7 30  1  0
 30 31  1  0
 31  4  1  0
 29  8  1  0
 27 13  1  0
 27 17  1  0
 26 21  1  0
M  END
>  <Compound_ID>  (726) 
CHEMBL4290222

>  <Molecule Name>  (726) 
nan

>  <Molecular Weight>  (726) 
426.57

>  <AlogP>  (726) 
2.51

>  <Smiles>  (726) 
CC(=O)N1CCN([C@H]2CC[C@H](Nc3ncnn4ccc(C5CCOCC5)c34)CC2)CC1

>  <Standard Type>  (726) 
Inhibition

>  <Standard Relation>  (726) 
'='

>  <Standard Units>  (726) 
%

>  <Standard Value>  (726) 
6.0

>  <Assay ChEMBL ID>  (726) 
CHEMBL4266589

>  <Assay Description>  (726) 
Inhibition of human MET at 1 uM relative to control

>  <BAO Format ID>  (726) 
BAO_0000357

>  <BAO Label>  (726) 
single protein format

>  <Assay Organism>  (726) 
Homo sapiens

>  <Target ChEMBL ID>  (726) 
CHEMBL3717

>  <Target Name>  (726) 
Hepatocyte growth factor receptor

>  <Target Organism>  (726) 
Homo sapiens

>  <Target Type>  (726) 
SINGLE PROTEIN

>  <Document ChEMBL ID>  (726) 
CHEMBL4265877

>  <Source Description>  (726) 
Scientific Literature

>  <Document Journal>  (726) 
Bioorg Med Chem

>  <Document Year>  (726) 
2018.0

>  <Active>  (726) 
0.0

$$$$

     RDKit          2D

 50 57  0  0  0  0  0  0  0  0999 V2000
    4.5000    0.0000    0.0000 N   0  0  0  0  0  0  0  0  0  0  0  0
    3.0000    0.0000    0.0000 C   0  0  0  0  0  0  0  0  0  0  0  0
    1.5000    0.0000    0.0000 C   0  0  0  0  0  0  0  0  0  0  0  0
    0.7500   -1.2990    0.0000 C   0  0  0  0  0  0  0  0  0  0  0  0
    1.5000   -2.5981    0.0000 C   0  0  0  0  0  0  0  0  0  0  0  0
    0.7500   -3.8971    0.0000 C   0  0  0  0  0  0  0  0  0  0  0  0
    1.5000   -5.1962    0.0000 C   0  0  0  0  0  0  0  0  0  0  0  0
    3.0000   -5.1962    0.0000 C   0  0  0  0  0  0  0  0  0  0  0  0
    3.7500   -3.8971    0.0000 C   0  0  0  0  0  0  0  0  0  0  0  0
    3.0000   -2.5981    0.0000 C   0  0  0  0  0  0  0  0  0  0  0  0
   -0.7500   -1.2990    0.0000 C   0  0  0  0  0  0  0  0  0  0  0  0
   -1.5000    0.0000    0.0000 C   0  0  0  0  0  0  0  0  0  0  0  0
   -3.0000    0.0000    0.0000 C   0  0  0  0  0  0  0  0  0  0  0  0
   -3.7500    1.2990    0.0000 C   0  0  0  0  0  0  0  0  0  0  0  0
   -5.2500    1.2990    0.0000 C   0  0  0  0  0  0  0  0  0  0  0  0
   -6.0000    0.0000    0.0000 C   0  0  0  0  0  0  0  0  0  0  0  0
   -5.2500   -1.2990    0.0000 C   0  0  0  0  0  0  0  0  0  0  0  0
   -3.7500   -1.2990    0.0000 C   0  0  0  0  0  0  0  0  0  0  0  0
   -0.7500    1.2990    0.0000 N   0  0  0  0  0  0  0  0  0  0  0  0
    0.7500    1.2990    0.0000 C   0  0  0  0  0  0  0  0  0  0  0  0
    1.5000    2.5981    0.0000 N   0  0  0  0  0  0  0  0  0  0  0  0
    0.7500    3.8971    0.0000 C   0  0  0  0  0  0  0  0  0  0  0  0
   -0.7418    4.0539    0.0000 S   0  0  0  0  0  0  0  0  0  0  0  0
   -1.0537    5.5211    0.0000 C   0  0  0  0  0  0  0  0  0  0  0  0
   -2.4240    6.1312    0.0000 C   0  0  0  0  0  0  0  0  0  0  0  0
   -3.7230    5.3812    0.0000 S   0  0  0  0  0  0  0  0  0  0  0  0
   -4.8377    6.3849    0.0000 C   0  0  0  0  0  0  0  0  0  0  0  0
   -6.3049    6.0731    0.0000 C   0  0  0  0  0  0  0  0  0  0  0  0
   -7.3086    7.1878    0.0000 C   0  0  0  0  0  0  0  0  0  0  0  0
   -8.7759    6.8759    0.0000 C   0  0  0  0  0  0  0  0  0  0  0  0
   -9.2394    5.4493    0.0000 C   0  0  0  0  0  0  0  0  0  0  0  0
   -8.2357    4.3346    0.0000 C   0  0  0  0  0  0  0  0  0  0  0  0
   -6.7685    4.6465    0.0000 C   0  0  0  0  0  0  0  0  0  0  0  0
   -4.2276    7.7552    0.0000 N   0  0  0  0  0  0  0  0  0  0  0  0
   -2.7358    7.5985    0.0000 N   0  0  0  0  0  0  0  0  0  0  0  0
   -1.7321    8.7132    0.0000 C   0  0  0  0  0  0  0  0  0  0  0  0
   -0.2649    8.4013    0.0000 C   0  0  0  0  0  0  0  0  0  0  0  0
    0.7388    9.5160    0.0000 C   0  0  0  0  0  0  0  0  0  0  0  0
    0.2753   10.9426    0.0000 C   0  0  0  0  0  0  0  0  0  0  0  0
   -1.1920   11.2545    0.0000 C   0  0  0  0  0  0  0  0  0  0  0  0
   -2.1957   10.1398    0.0000 C   0  0  0  0  0  0  0  0  0  0  0  0
    0.2454    6.2711    0.0000 C   0  0  0  0  0  0  0  0  0  0  0  0
    0.4022    7.7629    0.0000 O   0  0  0  0  0  0  0  0  0  0  0  0
    1.3601    5.2674    0.0000 N   0  0  0  0  0  0  0  0  0  0  0  0
    2.8273    5.5793    0.0000 C   0  0  0  0  0  0  0  0  0  0  0  0
    3.8310    4.4646    0.0000 C   0  0  0  0  0  0  0  0  0  0  0  0
    5.2982    4.7765    0.0000 C   0  0  0  0  0  0  0  0  0  0  0  0
    5.7618    6.2030    0.0000 C   0  0  0  0  0  0  0  0  0  0  0  0
    4.7581    7.3178    0.0000 C   0  0  0  0  0  0  0  0  0  0  0  0
    3.2909    7.0059    0.0000 C   0  0  0  0  0  0  0  0  0  0  0  0
  1  2  3  0
  2  3  1  0
  3  4  2  0
  4  5  1  0
  5  6  2  0
  6  7  1  0
  7  8  2  0
  8  9  1  0
  9 10  2  0
  4 11  1  0
 11 12  2  0
 12 13  1  0
 13 14  2  0
 14 15  1  0
 15 16  2  0
 16 17  1  0
 17 18  2  0
 12 19  1  0
 19 20  2  0
 20 21  1  0
 21 22  2  0
 22 23  1  0
 23 24  1  0
 24 25  2  0
 25 26  1  0
 26 27  1  0
 27 28  1  0
 28 29  2  0
 29 30  1  0
 30 31  2  0
 31 32  1  0
 32 33  2  0
 27 34  2  0
 34 35  1  0
 35 36  1  0
 36 37  2  0
 37 38  1  0
 38 39  2  0
 39 40  1  0
 40 41  2  0
 24 42  1  0
 42 43  2  0
 42 44  1  0
 44 45  1  0
 45 46  2  0
 46 47  1  0
 47 48  2  0
 48 49  1  0
 49 50  2  0
 20  3  1  0
 44 22  1  0
 50 45  1  0
 10  5  1  0
 18 13  1  0
 35 25  1  0
 41 36  1  0
 33 28  1  0
M  END
>  <Compound_ID>  (727) 
CHEMBL3408393

>  <Molecule Name>  (727) 
nan

>  <Molecular Weight>  (727) 
682.83

>  <AlogP>  (727) 
9.84

>  <Smiles>  (727) 
N#Cc1c(-c2ccccc2)cc(-c2ccccc2)nc1/N=C1\S/C(=C2\SC(c3ccccc3)=NN2c2ccccc2)C(=O)N1c1ccccc1

>  <Standard Type>  (727) 
Inhibition

>  <Standard Relation>  (727) 
'='

>  <Standard Units>  (727) 
%

>  <Standard Value>  (727) 
4.0

>  <Assay ChEMBL ID>  (727) 
CHEMBL3413727

>  <Assay Description>  (727) 
Inhibition of MET (unknown origin) assessed as inhibition of peptide phosphorylation at 30 uM by based microfluidic mobility shift assay

>  <BAO Format ID>  (727) 
BAO_0000357

>  <BAO Label>  (727) 
single protein format

>  <Assay Organism>  (727) 
Homo sapiens

>  <Target ChEMBL ID>  (727) 
CHEMBL3717

>  <Target Name>  (727) 
Hepatocyte growth factor receptor

>  <Target Organism>  (727) 
Homo sapiens

>  <Target Type>  (727) 
SINGLE PROTEIN

>  <Document ChEMBL ID>  (727) 
CHEMBL3407353

>  <Source Description>  (727) 
Scientific Literature

>  <Document Journal>  (727) 
Eur J Med Chem

>  <Document Year>  (727) 
2015.0

>  <Active>  (727) 
0.0

$$$$

     RDKit          2D

 23 26  0  0  0  0  0  0  0  0999 V2000
    2.6401   -3.1891    0.0000 N   0  0  0  0  0  0  0  0  0  0  0  0
    1.2135   -2.7256    0.0000 C   0  0  0  0  0  0  0  0  0  0  0  0
    0.7500   -1.2990    0.0000 C   0  0  0  0  0  0  0  0  0  0  0  0
    1.5000    0.0000    0.0000 C   0  0  0  0  0  0  0  0  0  0  0  0
    3.0000    0.0000    0.0000 O   0  0  0  0  0  0  0  0  0  0  0  0
    0.7500    1.2990    0.0000 N   0  0  0  0  0  0  0  0  0  0  0  0
   -0.7500    1.2990    0.0000 C   0  0  0  0  0  0  0  0  0  0  0  0
   -1.5000    2.5981    0.0000 C   0  0  0  0  0  0  0  0  0  0  0  0
   -0.7500    3.8971    0.0000 C   0  0  0  0  0  0  0  0  0  0  0  0
   -1.5000    5.1962    0.0000 C   0  0  0  0  0  0  0  0  0  0  0  0
   -3.0000    5.1962    0.0000 C   0  0  0  0  0  0  0  0  0  0  0  0
   -3.7500    3.8971    0.0000 C   0  0  0  0  0  0  0  0  0  0  0  0
   -3.0000    2.5981    0.0000 N   0  0  0  0  0  0  0  0  0  0  0  0
   -1.5000    0.0000    0.0000 C   0  0  0  0  0  0  0  0  0  0  0  0
   -0.7500   -1.2990    0.0000 C   0  0  0  0  0  0  0  0  0  0  0  0
   -1.2135   -2.7256    0.0000 N   0  0  0  0  0  0  0  0  0  0  0  0
   -0.0000   -3.6073    0.0000 N   0  0  0  0  0  0  0  0  0  0  0  0
   -0.0000   -5.1073    0.0000 C   0  0  0  0  0  0  0  0  0  0  0  0
   -1.2990   -5.8573    0.0000 C   0  0  0  0  0  0  0  0  0  0  0  0
   -1.2990   -7.3573    0.0000 C   0  0  0  0  0  0  0  0  0  0  0  0
   -0.0000   -8.1073    0.0000 C   0  0  0  0  0  0  0  0  0  0  0  0
    1.2990   -7.3573    0.0000 C   0  0  0  0  0  0  0  0  0  0  0  0
    1.2990   -5.8573    0.0000 C   0  0  0  0  0  0  0  0  0  0  0  0
  1  2  1  0
  2  3  2  0
  3  4  1  0
  4  5  2  0
  4  6  1  0
  6  7  1  0
  7  8  1  0
  8  9  2  0
  9 10  1  0
 10 11  2  0
 11 12  1  0
 12 13  2  0
  7 14  2  0
 14 15  1  0
 15 16  2  0
 16 17  1  0
 17 18  1  0
 18 19  2  0
 19 20  1  0
 20 21  2  0
 21 22  1  0
 22 23  2  0
 17  2  1  0
 23 18  1  0
 15  3  1  0
 13  8  1  0
M  END
>  <Compound_ID>  (728) 
CHEMBL1813791

>  <Molecule Name>  (728) 
nan

>  <Molecular Weight>  (728) 
303.33

>  <AlogP>  (728) 
2.36

>  <Smiles>  (728) 
Nc1c2c(=O)[nH]c(-c3ccccn3)cc2nn1-c1ccccc1

>  <Standard Type>  (728) 
Inhibition

>  <Standard Relation>  (728) 
'='

>  <Standard Units>  (728) 
%

>  <Standard Value>  (728) 
8.0

>  <Assay ChEMBL ID>  (728) 
CHEMBL1815730

>  <Assay Description>  (728) 
Inhibition of MET at 30 uM by microfluidic mobility shift assay

>  <BAO Format ID>  (728) 
BAO_0000357

>  <BAO Label>  (728) 
single protein format

>  <Assay Organism>  (728) 
None

>  <Target ChEMBL ID>  (728) 
CHEMBL3717

>  <Target Name>  (728) 
Hepatocyte growth factor receptor

>  <Target Organism>  (728) 
Homo sapiens

>  <Target Type>  (728) 
SINGLE PROTEIN

>  <Document ChEMBL ID>  (728) 
CHEMBL1811853

>  <Source Description>  (728) 
Scientific Literature

>  <Document Journal>  (728) 
Bioorg Med Chem

>  <Document Year>  (728) 
2011.0

>  <Active>  (728) 
0.0

$$$$

     RDKit          2D

 32 35  0  0  0  0  0  0  0  0999 V2000
   -2.1491   -7.1273    0.0000 C   0  0  0  0  0  0  0  0  0  0  0  0
   -1.8373   -5.6601    0.0000 O   0  0  0  0  0  0  0  0  0  0  0  0
   -2.9520   -4.6564    0.0000 C   0  0  0  0  0  0  0  0  0  0  0  0
   -4.3786   -5.1199    0.0000 C   0  0  0  0  0  0  0  0  0  0  0  0
   -5.4933   -4.1162    0.0000 C   0  0  0  0  0  0  0  0  0  0  0  0
   -5.1814   -2.6490    0.0000 C   0  0  0  0  0  0  0  0  0  0  0  0
   -6.2961   -1.6453    0.0000 C   0  0  0  0  0  0  0  0  0  0  0  0
   -7.4108   -0.6416    0.0000 C   0  0  0  0  0  0  0  0  0  0  0  0
   -8.5256    0.3621    0.0000 C   0  0  0  0  0  0  0  0  0  0  0  0
   -9.5293   -0.7526    0.0000 C   0  0  0  0  0  0  0  0  0  0  0  0
   -7.5219    1.4768    0.0000 C   0  0  0  0  0  0  0  0  0  0  0  0
   -9.6403    1.3658    0.0000 N   0  0  0  0  0  0  0  0  0  0  0  0
   -3.7548   -2.1855    0.0000 C   0  0  0  0  0  0  0  0  0  0  0  0
   -2.6401   -3.1891    0.0000 C   0  0  0  0  0  0  0  0  0  0  0  0
   -1.2135   -2.7256    0.0000 C   0  0  0  0  0  0  0  0  0  0  0  0
   -0.0000   -3.6073    0.0000 N   0  0  0  0  0  0  0  0  0  0  0  0
    1.2135   -2.7256    0.0000 N   0  0  0  0  0  0  0  0  0  0  0  0
    0.7500   -1.2990    0.0000 C   0  0  0  0  0  0  0  0  0  0  0  0
    1.5000    0.0000    0.0000 N   0  0  0  0  0  0  0  0  0  0  0  0
    0.7500    1.2990    0.0000 C   0  0  0  0  0  0  0  0  0  0  0  0
    1.5000    2.5981    0.0000 N   0  0  0  0  0  0  0  0  0  0  0  0
    3.0000    2.5981    0.0000 C   0  0  0  0  0  0  0  0  0  0  0  0
    3.7500    1.2990    0.0000 C   0  0  0  0  0  0  0  0  0  0  0  0
    5.2500    1.2990    0.0000 C   0  0  0  0  0  0  0  0  0  0  0  0
    6.0000    2.5981    0.0000 C   0  0  0  0  0  0  0  0  0  0  0  0
    7.5000    2.5981    0.0000 F   0  0  0  0  0  0  0  0  0  0  0  0
    5.2500    3.8971    0.0000 C   0  0  0  0  0  0  0  0  0  0  0  0
    3.7500    3.8971    0.0000 C   0  0  0  0  0  0  0  0  0  0  0  0
    3.0000    5.1962    0.0000 F   0  0  0  0  0  0  0  0  0  0  0  0
   -0.7500    1.2990    0.0000 C   0  0  0  0  0  0  0  0  0  0  0  0
   -1.5000    0.0000    0.0000 C   0  0  0  0  0  0  0  0  0  0  0  0
   -0.7500   -1.2990    0.0000 C   0  0  0  0  0  0  0  0  0  0  0  0
  1  2  1  0
  2  3  1  0
  3  4  2  0
  4  5  1  0
  5  6  2  0
  6  7  1  0
  7  8  3  0
  8  9  1  0
  9 10  1  0
  9 11  1  0
  9 12  1  0
  6 13  1  0
 13 14  2  0
 14 15  1  0
 15 16  1  0
 16 17  1  0
 17 18  2  0
 18 19  1  0
 19 20  2  0
 20 21  1  0
 21 22  1  0
 22 23  2  0
 23 24  1  0
 24 25  2  0
 25 26  1  0
 25 27  1  0
 27 28  2  0
 28 29  1  0
 20 30  1  0
 30 31  2  0
 31 32  1  0
 14  3  1  0
 32 15  2  0
 32 18  1  0
 28 22  1  0
M  END
>  <Compound_ID>  (729) 
CHEMBL200820

>  <Molecule Name>  (729) 
nan

>  <Molecular Weight>  (729) 
433.46

>  <AlogP>  (729) 
4.74

>  <Smiles>  (729) 
COc1ccc(C#CC(C)(C)N)cc1-c1[nH]nc2nc(Nc3ccc(F)cc3F)ccc12

>  <Standard Type>  (729) 
Inhibition

>  <Standard Relation>  (729) 
'='

>  <Standard Units>  (729) 
%

>  <Standard Value>  (729) 
-38.0

>  <Assay ChEMBL ID>  (729) 
CHEMBL863468

>  <Assay Description>  (729) 
Inhibition of c-Met at 10 uM

>  <BAO Format ID>  (729) 
BAO_0000357

>  <BAO Label>  (729) 
single protein format

>  <Assay Organism>  (729) 
Homo sapiens

>  <Target ChEMBL ID>  (729) 
CHEMBL3717

>  <Target Name>  (729) 
Hepatocyte growth factor receptor

>  <Target Organism>  (729) 
Homo sapiens

>  <Target Type>  (729) 
SINGLE PROTEIN

>  <Document ChEMBL ID>  (729) 
CHEMBL1147752

>  <Source Description>  (729) 
Scientific Literature

>  <Document Journal>  (729) 
Bioorg Med Chem Lett

>  <Document Year>  (729) 
2006.0

>  <Active>  (729) 
0.0

$$$$

     RDKit          2D

 33 36  0  0  0  0  0  0  0  0999 V2000
    3.0000    0.0000    0.0000 C   0  0  0  0  0  0  0  0  0  0  0  0
    1.5000    0.0000    0.0000 C   0  0  0  0  0  0  0  0  0  0  0  0
    0.7500   -1.2990    0.0000 N   0  0  0  0  0  0  0  0  0  0  0  0
   -0.7500   -1.2990    0.0000 C   0  0  0  0  0  0  0  0  0  0  0  0
   -1.5000   -2.5981    0.0000 N   0  0  0  0  0  0  0  0  0  0  0  0
   -3.0000   -2.5981    0.0000 C   0  0  0  0  0  0  0  0  0  0  0  0
   -3.8817   -3.8116    0.0000 N   0  0  0  0  0  0  0  0  0  0  0  0
   -5.3083   -3.3481    0.0000 C   0  0  0  0  0  0  0  0  0  0  0  0
   -5.3083   -1.8481    0.0000 C   0  0  0  0  0  0  0  0  0  0  0  0
   -6.5218   -0.9664    0.0000 C   0  0  0  0  0  0  0  0  0  0  0  0
   -7.8921   -1.5765    0.0000 O   0  0  0  0  0  0  0  0  0  0  0  0
   -6.3650    0.5254    0.0000 N   0  0  0  0  0  0  0  0  0  0  0  0
   -7.5785    1.4071    0.0000 C   0  0  0  0  0  0  0  0  0  0  0  0
   -7.4217    2.8988    0.0000 C   0  0  0  0  0  0  0  0  0  0  0  0
   -6.0514    3.5090    0.0000 C   0  0  0  0  0  0  0  0  0  0  0  0
   -8.6353    3.7805    0.0000 C   0  0  0  0  0  0  0  0  0  0  0  0
  -10.0056    3.1704    0.0000 C   0  0  0  0  0  0  0  0  0  0  0  0
  -10.1624    1.6786    0.0000 C   0  0  0  0  0  0  0  0  0  0  0  0
   -8.9488    0.7970    0.0000 C   0  0  0  0  0  0  0  0  0  0  0  0
   -9.1056   -0.6948    0.0000 Cl  0  0  0  0  0  0  0  0  0  0  0  0
   -3.8817   -1.3846    0.0000 S   0  0  0  0  0  0  0  0  0  0  0  0
   -1.5000    0.0000    0.0000 C   0  0  0  0  0  0  0  0  0  0  0  0
   -0.7500    1.2990    0.0000 C   0  0  0  0  0  0  0  0  0  0  0  0
   -1.5000    2.5981    0.0000 N   0  0  0  0  0  0  0  0  0  0  0  0
   -0.7500    3.8971    0.0000 C   0  0  0  0  0  0  0  0  0  0  0  0
   -1.5000    5.1962    0.0000 C   0  0  0  0  0  0  0  0  0  0  0  0
   -3.0000    5.1962    0.0000 N   0  0  0  0  0  0  0  0  0  0  0  0
   -3.7500    6.4952    0.0000 C   0  0  0  0  0  0  0  0  0  0  0  0
   -3.0000    7.7942    0.0000 C   0  0  0  0  0  0  0  0  0  0  0  0
   -3.7500    9.0933    0.0000 F   0  0  0  0  0  0  0  0  0  0  0  0
   -3.7500    3.8971    0.0000 C   0  0  0  0  0  0  0  0  0  0  0  0
   -3.0000    2.5981    0.0000 C   0  0  0  0  0  0  0  0  0  0  0  0
    0.7500    1.2990    0.0000 N   0  0  0  0  0  0  0  0  0  0  0  0
  1  2  1  0
  2  3  2  0
  3  4  1  0
  4  5  1  0
  5  6  1  0
  6  7  2  0
  7  8  1  0
  8  9  2  0
  9 10  1  0
 10 11  2  0
 10 12  1  0
 12 13  1  0
 13 14  2  0
 14 15  1  0
 14 16  1  0
 16 17  2  0
 17 18  1  0
 18 19  2  0
 19 20  1  0
  9 21  1  0
  4 22  2  0
 22 23  1  0
 23 24  1  0
 24 25  1  0
 25 26  1  0
 26 27  1  0
 27 28  1  0
 28 29  1  0
 29 30  1  0
 27 31  1  0
 31 32  1  0
 23 33  2  0
 33  2  1  0
 21  6  1  0
 32 24  1  0
 19 13  1  0
M  END
>  <Compound_ID>  (730) 
CHEMBL240158

>  <Molecule Name>  (730) 
nan

>  <Molecular Weight>  (730) 
490.01

>  <AlogP>  (730) 
4.29

>  <Smiles>  (730) 
Cc1nc(Nc2ncc(C(=O)Nc3c(C)cccc3Cl)s2)cc(N2CCN(CCF)CC2)n1

>  <Standard Type>  (730) 
Inhibition

>  <Standard Relation>  (730) 
'='

>  <Standard Units>  (730) 
%

>  <Standard Value>  (730) 
7.2

>  <Assay ChEMBL ID>  (730) 
CHEMBL901552

>  <Assay Description>  (730) 
Inhibition of Met kinase at 10 nM

>  <BAO Format ID>  (730) 
BAO_0000357

>  <BAO Label>  (730) 
single protein format

>  <Assay Organism>  (730) 
Homo sapiens

>  <Target ChEMBL ID>  (730) 
CHEMBL3717

>  <Target Name>  (730) 
Hepatocyte growth factor receptor

>  <Target Organism>  (730) 
Homo sapiens

>  <Target Type>  (730) 
SINGLE PROTEIN

>  <Document ChEMBL ID>  (730) 
CHEMBL1138257

>  <Source Description>  (730) 
Scientific Literature

>  <Document Journal>  (730) 
J Med Chem

>  <Document Year>  (730) 
2007.0

>  <Active>  (730) 
0.0

$$$$

     RDKit          2D

 33 37  0  0  0  0  0  0  0  0999 V2000
   -0.0000   -5.1073    0.0000 O   0  0  0  0  0  0  0  0  0  0  0  0
   -0.0000   -3.6073    0.0000 C   0  0  0  0  0  0  0  0  0  0  0  0
    1.2135   -2.7256    0.0000 N   0  0  0  0  0  0  0  0  0  0  0  0
    0.7500   -1.2990    0.0000 C   0  0  0  0  0  0  0  0  0  0  0  0
    1.5000    0.0000    0.0000 C   0  0  0  0  0  0  0  0  0  0  0  0
    0.7500    1.2990    0.0000 C   0  0  0  0  0  0  0  0  0  0  0  0
    1.5000    2.5981    0.0000 N   0  0  0  0  0  0  0  0  0  0  0  0
    3.0000    2.5981    0.0000 C   0  0  0  0  0  0  0  0  0  0  0  0
    3.7500    1.2990    0.0000 O   0  0  0  0  0  0  0  0  0  0  0  0
    3.7500    3.8971    0.0000 C   0  0  0  0  0  0  0  0  0  0  0  0
    5.2500    3.8971    0.0000 C   0  0  0  0  0  0  0  0  0  0  0  0
    6.0000    5.1962    0.0000 N   0  0  0  0  0  0  0  0  0  0  0  0
    5.2500    6.4952    0.0000 C   0  0  0  0  0  0  0  0  0  0  0  0
    3.7500    6.4952    0.0000 C   0  0  0  0  0  0  0  0  0  0  0  0
    3.0000    7.7942    0.0000 C   0  0  0  0  0  0  0  0  0  0  0  0
    3.7500    9.0933    0.0000 C   0  0  0  0  0  0  0  0  0  0  0  0
    3.0000   10.3923    0.0000 C   0  0  0  0  0  0  0  0  0  0  0  0
    1.5000   10.3923    0.0000 C   0  0  0  0  0  0  0  0  0  0  0  0
    0.7500    9.0933    0.0000 C   0  0  0  0  0  0  0  0  0  0  0  0
    1.5000    7.7942    0.0000 C   0  0  0  0  0  0  0  0  0  0  0  0
    0.7500    6.4952    0.0000 F   0  0  0  0  0  0  0  0  0  0  0  0
    3.0000    5.1962    0.0000 C   0  0  0  0  0  0  0  0  0  0  0  0
    1.5000    5.1962    0.0000 O   0  0  0  0  0  0  0  0  0  0  0  0
   -0.7500    1.2990    0.0000 C   0  0  0  0  0  0  0  0  0  0  0  0
   -1.5000    0.0000    0.0000 C   0  0  0  0  0  0  0  0  0  0  0  0
   -0.7500   -1.2990    0.0000 C   0  0  0  0  0  0  0  0  0  0  0  0
   -1.2135   -2.7256    0.0000 C   0  0  0  0  0  0  0  0  0  0  0  0
   -2.6401   -3.1891    0.0000 C   0  0  0  0  0  0  0  0  0  0  0  0
   -2.9520   -4.6564    0.0000 C   0  0  0  0  0  0  0  0  0  0  0  0
   -1.9483   -5.7711    0.0000 C   0  0  0  0  0  0  0  0  0  0  0  0
   -2.6983   -7.0701    0.0000 C   0  0  0  0  0  0  0  0  0  0  0  0
   -4.1655   -6.7583    0.0000 C   0  0  0  0  0  0  0  0  0  0  0  0
   -4.3223   -5.2665    0.0000 N   0  0  0  0  0  0  0  0  0  0  0  0
  1  2  2  0
  2  3  1  0
  3  4  1  0
  4  5  2  0
  5  6  1  0
  6  7  1  0
  7  8  1  0
  8  9  2  0
  8 10  1  0
 10 11  2  0
 11 12  1  0
 12 13  1  0
 13 14  2  0
 14 15  1  0
 15 16  2  0
 16 17  1  0
 17 18  2  0
 18 19  1  0
 19 20  2  0
 20 21  1  0
 14 22  1  0
 22 23  2  0
  6 24  2  0
 24 25  1  0
 25 26  2  0
 26 27  1  0
 27 28  2  0
 28 29  1  0
 29 30  2  0
 30 31  1  0
 31 32  2  0
 32 33  1  0
 27  2  1  0
 33 29  1  0
 26  4  1  0
 22 10  1  0
 20 15  1  0
M  END
>  <Compound_ID>  (731) 
CHEMBL3322590

>  <Molecule Name>  (731) 
nan

>  <Molecular Weight>  (731) 
440.43

>  <AlogP>  (731) 
4.25

>  <Smiles>  (731) 
O=C1Nc2cc(NC(=O)c3c[nH]cc(-c4ccccc4F)c3=O)ccc2/C1=C/c1ccc[nH]1

>  <Standard Type>  (731) 
Inhibition

>  <Standard Relation>  (731) 
'='

>  <Standard Units>  (731) 
%

>  <Standard Value>  (731) 
12.2

>  <Assay ChEMBL ID>  (731) 
CHEMBL3362113

>  <Assay Description>  (731) 
Inhibition of c-Met (unknown origin) using KKKSPGEYVNIEFG substrate at 1 uM by radioisotope-based P81 filter-binding assay

>  <BAO Format ID>  (731) 
BAO_0000357

>  <BAO Label>  (731) 
single protein format

>  <Assay Organism>  (731) 
Homo sapiens

>  <Target ChEMBL ID>  (731) 
CHEMBL3717

>  <Target Name>  (731) 
Hepatocyte growth factor receptor

>  <Target Organism>  (731) 
Homo sapiens

>  <Target Type>  (731) 
SINGLE PROTEIN

>  <Document ChEMBL ID>  (731) 
CHEMBL3351387

>  <Source Description>  (731) 
Scientific Literature

>  <Document Journal>  (731) 
Eur J Med Chem

>  <Document Year>  (731) 
2014.0

>  <Active>  (731) 
0.0

$$$$

     RDKit          2D

 23 25  0  0  0  0  0  0  0  0999 V2000
   -7.0526  -11.4523    0.0000 C   0  0  0  0  0  0  0  0  0  0  0  0
   -5.6260  -10.9888    0.0000 O   0  0  0  0  0  0  0  0  0  0  0  0
   -5.3142   -9.5216    0.0000 C   0  0  0  0  0  0  0  0  0  0  0  0
   -6.4289   -8.5179    0.0000 C   0  0  0  0  0  0  0  0  0  0  0  0
   -6.1170   -7.0506    0.0000 C   0  0  0  0  0  0  0  0  0  0  0  0
   -4.6904   -6.5871    0.0000 C   0  0  0  0  0  0  0  0  0  0  0  0
   -4.3786   -5.1199    0.0000 C   0  0  0  0  0  0  0  0  0  0  0  0
   -5.4933   -4.1162    0.0000 O   0  0  0  0  0  0  0  0  0  0  0  0
   -2.9520   -4.6564    0.0000 N   0  0  0  0  0  0  0  0  0  0  0  0
   -2.6401   -3.1891    0.0000 N   0  0  0  0  0  0  0  0  0  0  0  0
   -1.2135   -2.7256    0.0000 C   0  0  0  0  0  0  0  0  0  0  0  0
   -0.0000   -3.6073    0.0000 C   0  0  0  0  0  0  0  0  0  0  0  0
    0.0000   -5.1073    0.0000 O   0  0  0  0  0  0  0  0  0  0  0  0
    1.2135   -2.7256    0.0000 N   0  0  0  0  0  0  0  0  0  0  0  0
    0.7500   -1.2990    0.0000 C   0  0  0  0  0  0  0  0  0  0  0  0
    1.5000    0.0000    0.0000 C   0  0  0  0  0  0  0  0  0  0  0  0
    0.7500    1.2990    0.0000 C   0  0  0  0  0  0  0  0  0  0  0  0
   -0.7500    1.2990    0.0000 C   0  0  0  0  0  0  0  0  0  0  0  0
   -1.5000    2.5981    0.0000 F   0  0  0  0  0  0  0  0  0  0  0  0
   -1.5000    0.0000    0.0000 C   0  0  0  0  0  0  0  0  0  0  0  0
   -0.7500   -1.2990    0.0000 C   0  0  0  0  0  0  0  0  0  0  0  0
   -3.5757   -7.5908    0.0000 C   0  0  0  0  0  0  0  0  0  0  0  0
   -3.8876   -9.0580    0.0000 C   0  0  0  0  0  0  0  0  0  0  0  0
  1  2  1  0
  2  3  1  0
  3  4  2  0
  4  5  1  0
  5  6  2  0
  6  7  1  0
  7  8  2  0
  7  9  1  0
  9 10  1  0
 10 11  2  0
 11 12  1  0
 12 13  2  0
 12 14  1  0
 14 15  1  0
 15 16  2  0
 16 17  1  0
 17 18  2  0
 18 19  1  0
 18 20  1  0
 20 21  2  0
  6 22  1  0
 22 23  2  0
 23  3  1  0
 21 11  1  0
 21 15  1  0
M  END
>  <Compound_ID>  (732) 
CHEMBL1779073

>  <Molecule Name>  (732) 
nan

>  <Molecular Weight>  (732) 
313.29

>  <AlogP>  (732) 
1.92

>  <Smiles>  (732) 
COc1ccc(C(=O)N/N=C2\C(=O)Nc3ccc(F)cc32)cc1

>  <Standard Type>  (732) 
Inhibition

>  <Standard Relation>  (732) 
'='

>  <Standard Units>  (732) 
%

>  <Standard Value>  (732) 
0.0

>  <Assay ChEMBL ID>  (732) 
CHEMBL1781430

>  <Assay Description>  (732) 
Inhibition of purified c-Met using poly(glu,tyr) as substrate at 10 uM after 60 mins by ELISA

>  <BAO Format ID>  (732) 
BAO_0000357

>  <BAO Label>  (732) 
single protein format

>  <Assay Organism>  (732) 
None

>  <Target ChEMBL ID>  (732) 
CHEMBL3717

>  <Target Name>  (732) 
Hepatocyte growth factor receptor

>  <Target Organism>  (732) 
Homo sapiens

>  <Target Type>  (732) 
SINGLE PROTEIN

>  <Document ChEMBL ID>  (732) 
CHEMBL1777704

>  <Source Description>  (732) 
Scientific Literature

>  <Document Journal>  (732) 
Bioorg Med Chem Lett

>  <Document Year>  (732) 
2011.0

>  <Active>  (732) 
0.0

$$$$

     RDKit          2D

 30 33  0  0  0  0  0  0  0  0999 V2000
    4.6740   -4.8322    0.0000 C   0  0  0  0  0  0  0  0  0  0  0  0
    3.3037   -4.2221    0.0000 N   0  0  0  0  0  0  0  0  0  0  0  0
    2.9918   -2.7549    0.0000 C   0  0  0  0  0  0  0  0  0  0  0  0
    1.5000   -2.5981    0.0000 C   0  0  0  0  0  0  0  0  0  0  0  0
    0.7500   -1.2990    0.0000 C   0  0  0  0  0  0  0  0  0  0  0  0
    1.5000    0.0000    0.0000 C   0  0  0  0  0  0  0  0  0  0  0  0
    0.7500    1.2990    0.0000 N   0  0  0  0  0  0  0  0  0  0  0  0
   -0.7500    1.2990    0.0000 C   0  0  0  0  0  0  0  0  0  0  0  0
   -1.5000    2.5981    0.0000 C   0  0  0  0  0  0  0  0  0  0  0  0
   -3.0000    2.5981    0.0000 C   0  0  0  0  0  0  0  0  0  0  0  0
   -3.7500    1.2990    0.0000 N   0  0  0  0  0  0  0  0  0  0  0  0
   -3.0000    0.0000    0.0000 C   0  0  0  0  0  0  0  0  0  0  0  0
   -3.7500   -1.2990    0.0000 N   0  0  0  0  0  0  0  0  0  0  0  0
   -5.2500   -1.2990    0.0000 S   0  0  0  0  0  0  0  0  0  0  0  0
   -5.2500    0.2010    0.0000 O   0  0  0  0  0  0  0  0  0  0  0  0
   -5.2500   -2.7990    0.0000 O   0  0  0  0  0  0  0  0  0  0  0  0
   -6.7500   -1.2990    0.0000 C   0  0  0  0  0  0  0  0  0  0  0  0
   -7.5000    0.0000    0.0000 C   0  0  0  0  0  0  0  0  0  0  0  0
   -9.0000    0.0000    0.0000 C   0  0  0  0  0  0  0  0  0  0  0  0
   -9.7500   -1.2990    0.0000 C   0  0  0  0  0  0  0  0  0  0  0  0
  -11.2500   -1.2990    0.0000 C   0  0  0  0  0  0  0  0  0  0  0  0
  -12.7500   -1.2990    0.0000 F   0  0  0  0  0  0  0  0  0  0  0  0
  -11.2500    0.2010    0.0000 F   0  0  0  0  0  0  0  0  0  0  0  0
  -11.2500   -2.7990    0.0000 F   0  0  0  0  0  0  0  0  0  0  0  0
   -9.0000   -2.5981    0.0000 C   0  0  0  0  0  0  0  0  0  0  0  0
   -7.5000   -2.5981    0.0000 C   0  0  0  0  0  0  0  0  0  0  0  0
   -1.5000    0.0000    0.0000 C   0  0  0  0  0  0  0  0  0  0  0  0
   -0.7500   -1.2990    0.0000 C   0  0  0  0  0  0  0  0  0  0  0  0
    0.8899   -3.9684    0.0000 C   0  0  0  0  0  0  0  0  0  0  0  0
    2.0046   -4.9721    0.0000 N   0  0  0  0  0  0  0  0  0  0  0  0
  1  2  1  0
  2  3  1  0
  3  4  2  0
  4  5  1  0
  5  6  2  0
  6  7  1  0
  7  8  2  0
  8  9  1  0
  9 10  2  0
 10 11  1  0
 11 12  2  0
 12 13  1  0
 13 14  1  0
 14 15  2  0
 14 16  2  0
 14 17  1  0
 17 18  2  0
 18 19  1  0
 19 20  2  0
 20 21  1  0
 21 22  1  0
 21 23  1  0
 21 24  1  0
 20 25  1  0
 25 26  2  0
 12 27  1  0
 27 28  2  0
  4 29  1  0
 29 30  2  0
 30  2  1  0
 28  5  1  0
 27  8  1  0
 26 17  1  0
M  END
>  <Compound_ID>  (733) 
CHEMBL3600488

>  <Molecule Name>  (733) 
nan

>  <Molecular Weight>  (733) 
433.42

>  <AlogP>  (733) 
3.85

>  <Smiles>  (733) 
Cn1cc(-c2cnc3ccnc(NS(=O)(=O)c4ccc(C(F)(F)F)cc4)c3c2)cn1

>  <Standard Type>  (733) 
Inhibition

>  <Standard Relation>  (733) 
'='

>  <Standard Units>  (733) 
%

>  <Standard Value>  (733) 
18.6

>  <Assay ChEMBL ID>  (733) 
CHEMBL3602584

>  <Assay Description>  (733) 
Inhibition of c-Met (unknown origin) at 10 uM

>  <BAO Format ID>  (733) 
BAO_0000357

>  <BAO Label>  (733) 
single protein format

>  <Assay Organism>  (733) 
Homo sapiens

>  <Target ChEMBL ID>  (733) 
CHEMBL3717

>  <Target Name>  (733) 
Hepatocyte growth factor receptor

>  <Target Organism>  (733) 
Homo sapiens

>  <Target Type>  (733) 
SINGLE PROTEIN

>  <Document ChEMBL ID>  (733) 
CHEMBL3600358

>  <Source Description>  (733) 
Scientific Literature

>  <Document Journal>  (733) 
Bioorg Med Chem Lett

>  <Document Year>  (733) 
2015.0

>  <Active>  (733) 
0.0

$$$$

     RDKit          2D

 27 30  0  0  0  0  0  0  0  0999 V2000
    3.0000    0.0000    0.0000 C   0  0  0  0  0  0  0  0  0  0  0  0
    1.5000    0.0000    0.0000 C   0  0  0  0  0  0  0  0  0  0  0  0
    0.7500   -1.2990    0.0000 C   0  0  0  0  0  0  0  0  0  0  0  0
   -0.7500   -1.2990    0.0000 C   0  0  0  0  0  0  0  0  0  0  0  0
   -1.5000    0.0000    0.0000 C   0  0  0  0  0  0  0  0  0  0  0  0
   -3.0000    0.0000    0.0000 N   0  0  0  0  0  0  0  0  0  0  0  0
   -3.7500    1.2990    0.0000 C   0  0  0  0  0  0  0  0  0  0  0  0
   -3.0000    2.5981    0.0000 O   0  0  0  0  0  0  0  0  0  0  0  0
   -5.2500    1.2990    0.0000 C   0  0  0  0  0  0  0  0  0  0  0  0
   -6.0000    2.5981    0.0000 C   0  0  0  0  0  0  0  0  0  0  0  0
   -7.2990    3.3481    0.0000 C   0  0  0  0  0  0  0  0  0  0  0  0
   -6.0000    4.0981    0.0000 C   0  0  0  0  0  0  0  0  0  0  0  0
   -0.7500    1.2990    0.0000 C   0  0  0  0  0  0  0  0  0  0  0  0
    0.7500    1.2990    0.0000 C   0  0  0  0  0  0  0  0  0  0  0  0
    1.5000    2.5981    0.0000 C   0  0  0  0  0  0  0  0  0  0  0  0
    3.0000    2.5981    0.0000 C   0  0  0  0  0  0  0  0  0  0  0  0
    3.7500    3.8971    0.0000 C   0  0  0  0  0  0  0  0  0  0  0  0
    3.0000    5.1962    0.0000 C   0  0  0  0  0  0  0  0  0  0  0  0
    3.7500    6.4952    0.0000 C   0  0  0  0  0  0  0  0  0  0  0  0
    3.0000    7.7942    0.0000 O   0  0  0  0  0  0  0  0  0  0  0  0
    5.2500    6.4952    0.0000 N   0  0  0  0  0  0  0  0  0  0  0  0
    6.0000    7.7942    0.0000 C   0  0  0  0  0  0  0  0  0  0  0  0
    7.5000    7.7942    0.0000 C   0  0  0  0  0  0  0  0  0  0  0  0
    8.7990    8.5442    0.0000 C   0  0  0  0  0  0  0  0  0  0  0  0
    8.7990    7.0442    0.0000 C   0  0  0  0  0  0  0  0  0  0  0  0
    1.5000    5.1962    0.0000 C   0  0  0  0  0  0  0  0  0  0  0  0
    0.7500    3.8971    0.0000 C   0  0  0  0  0  0  0  0  0  0  0  0
  1  2  1  0
  2  3  2  0
  3  4  1  0
  4  5  2  0
  5  6  1  0
  6  7  1  0
  7  8  2  0
  7  9  1  0
  9 10  1  0
 10 11  1  0
 11 12  1  0
  5 13  1  0
 13 14  2  0
 14 15  1  0
 15 16  2  0
 16 17  1  0
 17 18  2  0
 18 19  1  0
 19 20  2  0
 19 21  1  0
 21 22  1  0
 22 23  1  0
 23 24  1  0
 24 25  1  0
 18 26  1  0
 26 27  2  0
 14  2  1  0
 27 15  1  0
 12 10  1  0
 25 23  1  0
M  END
>  <Compound_ID>  (734) 
CHEMBL516908

>  <Molecule Name>  (734) 
GW796920X

>  <Molecular Weight>  (734) 
362.47

>  <AlogP>  (734) 
4.54

>  <Smiles>  (734) 
Cc1ccc(NC(=O)CC2CC2)cc1-c1ccc(C(=O)NCC2CC2)cc1

>  <Standard Type>  (734) 
Inhibition

>  <Standard Relation>  (734) 
'='

>  <Standard Units>  (734) 
%

>  <Standard Value>  (734) 
9.0

>  <Assay ChEMBL ID>  (734) 
CHEMBL1962143

>  <Assay Description>  (734) 
GSK_PKIS: MET mean inhibition at 1 uM [Nanosyn]

>  <BAO Format ID>  (734) 
BAO_0000357

>  <BAO Label>  (734) 
single protein format

>  <Assay Organism>  (734) 
None

>  <Target ChEMBL ID>  (734) 
CHEMBL3717

>  <Target Name>  (734) 
Hepatocyte growth factor receptor

>  <Target Organism>  (734) 
Homo sapiens

>  <Target Type>  (734) 
SINGLE PROTEIN

>  <Document ChEMBL ID>  (734) 
CHEMBL1961873

>  <Source Description>  (734) 
GSK Published Kinase Inhibitor Set

>  <Document Journal>  (734) 
nan

>  <Document Year>  (734) 
nan

>  <Active>  (734) 
0.0

$$$$

     RDKit          2D

 27 30  0  0  0  0  0  0  0  0999 V2000
   -9.1645    1.7722    0.0000 C   0  0  0  0  0  0  0  0  0  0  0  0
   -8.0498    0.7685    0.0000 O   0  0  0  0  0  0  0  0  0  0  0  0
   -6.6232    1.2320    0.0000 C   0  0  0  0  0  0  0  0  0  0  0  0
   -6.3114    2.6992    0.0000 C   0  0  0  0  0  0  0  0  0  0  0  0
   -4.8848    3.1627    0.0000 C   0  0  0  0  0  0  0  0  0  0  0  0
   -3.7701    2.1590    0.0000 C   0  0  0  0  0  0  0  0  0  0  0  0
   -4.0819    0.6918    0.0000 C   0  0  0  0  0  0  0  0  0  0  0  0
   -2.9672   -0.3119    0.0000 N   0  0  0  0  0  0  0  0  0  0  0  0
   -3.1240   -1.8037    0.0000 N   0  0  0  0  0  0  0  0  0  0  0  0
   -1.7537   -2.4138    0.0000 C   0  0  0  0  0  0  0  0  0  0  0  0
   -0.7500   -1.2990    0.0000 C   0  0  0  0  0  0  0  0  0  0  0  0
    0.7500   -1.2990    0.0000 C   0  0  0  0  0  0  0  0  0  0  0  0
    1.5000   -2.5981    0.0000 N   0  0  0  0  0  0  0  0  0  0  0  0
    3.0000   -2.5981    0.0000 N   0  0  0  0  0  0  0  0  0  0  0  0
    3.7500   -3.8971    0.0000 C   0  0  0  0  0  0  0  0  0  0  0  0
    5.2500   -3.8971    0.0000 C   0  0  0  0  0  0  0  0  0  0  0  0
    6.0000   -5.1962    0.0000 C   0  0  0  0  0  0  0  0  0  0  0  0
    7.5000   -5.1962    0.0000 C   0  0  0  0  0  0  0  0  0  0  0  0
    8.2500   -3.8971    0.0000 C   0  0  0  0  0  0  0  0  0  0  0  0
    9.7500   -3.8971    0.0000 F   0  0  0  0  0  0  0  0  0  0  0  0
    7.5000   -2.5981    0.0000 C   0  0  0  0  0  0  0  0  0  0  0  0
    6.0000   -2.5981    0.0000 C   0  0  0  0  0  0  0  0  0  0  0  0
    1.5000    0.0000    0.0000 N   0  0  0  0  0  0  0  0  0  0  0  0
    0.7500    1.2990    0.0000 C   0  0  0  0  0  0  0  0  0  0  0  0
   -0.7500    1.2990    0.0000 N   0  0  0  0  0  0  0  0  0  0  0  0
   -1.5000    0.0000    0.0000 C   0  0  0  0  0  0  0  0  0  0  0  0
   -5.5085    0.2283    0.0000 C   0  0  0  0  0  0  0  0  0  0  0  0
  1  2  1  0
  2  3  1  0
  3  4  2  0
  4  5  1  0
  5  6  2  0
  6  7  1  0
  7  8  1  0
  8  9  1  0
  9 10  2  0
 10 11  1  0
 11 12  2  0
 12 13  1  0
 13 14  1  0
 14 15  2  0
 15 16  1  0
 16 17  2  0
 17 18  1  0
 18 19  2  0
 19 20  1  0
 19 21  1  0
 21 22  2  0
 12 23  1  0
 23 24  2  0
 24 25  1  0
 25 26  2  0
  7 27  2  0
 27  3  1  0
 26  8  1  0
 26 11  1  0
 22 16  1  0
M  END
>  <Compound_ID>  (735) 
CHEMBL65884

>  <Molecule Name>  (735) 
GW817396X

>  <Molecular Weight>  (735) 
362.37

>  <AlogP>  (735) 
3.41

>  <Smiles>  (735) 
COc1cccc(-n2ncc3c(N/N=C/c4ccc(F)cc4)ncnc32)c1

>  <Standard Type>  (735) 
Inhibition

>  <Standard Relation>  (735) 
'='

>  <Standard Units>  (735) 
%

>  <Standard Value>  (735) 
16.63

>  <Assay ChEMBL ID>  (735) 
CHEMBL1962143

>  <Assay Description>  (735) 
GSK_PKIS: MET mean inhibition at 1 uM [Nanosyn]

>  <BAO Format ID>  (735) 
BAO_0000357

>  <BAO Label>  (735) 
single protein format

>  <Assay Organism>  (735) 
None

>  <Target ChEMBL ID>  (735) 
CHEMBL3717

>  <Target Name>  (735) 
Hepatocyte growth factor receptor

>  <Target Organism>  (735) 
Homo sapiens

>  <Target Type>  (735) 
SINGLE PROTEIN

>  <Document ChEMBL ID>  (735) 
CHEMBL1961873

>  <Source Description>  (735) 
GSK Published Kinase Inhibitor Set

>  <Document Journal>  (735) 
nan

>  <Document Year>  (735) 
nan

>  <Active>  (735) 
0.0

$$$$

     RDKit          2D

 28 31  0  0  0  0  0  0  0  0999 V2000
    6.7500    1.2990    0.0000 C   0  0  0  0  0  0  0  0  0  0  0  0
    6.0000   -0.0000    0.0000 C   0  0  0  0  0  0  0  0  0  0  0  0
    5.2500   -1.2990    0.0000 C   0  0  0  0  0  0  0  0  0  0  0  0
    6.0000   -2.5981    0.0000 C   0  0  0  0  0  0  0  0  0  0  0  0
    5.2500   -3.8971    0.0000 C   0  0  0  0  0  0  0  0  0  0  0  0
    3.7500   -3.8971    0.0000 C   0  0  0  0  0  0  0  0  0  0  0  0
    3.0000   -2.5981    0.0000 C   0  0  0  0  0  0  0  0  0  0  0  0
    1.5000   -2.5981    0.0000 N   0  0  0  0  0  0  0  0  0  0  0  0
    0.7500   -1.2990    0.0000 C   0  0  0  0  0  0  0  0  0  0  0  0
    1.5000    0.0000    0.0000 N   0  0  0  0  0  0  0  0  0  0  0  0
    0.7500    1.2990    0.0000 C   0  0  0  0  0  0  0  0  0  0  0  0
   -0.7500    1.2990    0.0000 N   0  0  0  0  0  0  0  0  0  0  0  0
   -1.5000    0.0000    0.0000 C   0  0  0  0  0  0  0  0  0  0  0  0
   -2.9672   -0.3119    0.0000 S   0  0  0  0  0  0  0  0  0  0  0  0
   -3.1240   -1.8037    0.0000 C   0  0  0  0  0  0  0  0  0  0  0  0
   -4.4231   -2.5537    0.0000 C   0  0  0  0  0  0  0  0  0  0  0  0
   -5.7221   -1.8037    0.0000 C   0  0  0  0  0  0  0  0  0  0  0  0
   -7.0211   -2.5537    0.0000 C   0  0  0  0  0  0  0  0  0  0  0  0
   -7.0211   -4.0537    0.0000 C   0  0  0  0  0  0  0  0  0  0  0  0
   -8.3202   -4.8037    0.0000 C   0  0  0  0  0  0  0  0  0  0  0  0
   -9.6192   -4.0537    0.0000 O   0  0  0  0  0  0  0  0  0  0  0  0
   -5.7221   -4.8037    0.0000 C   0  0  0  0  0  0  0  0  0  0  0  0
   -4.4231   -4.0537    0.0000 C   0  0  0  0  0  0  0  0  0  0  0  0
   -3.1240   -4.8037    0.0000 O   0  0  0  0  0  0  0  0  0  0  0  0
   -3.1240   -6.3037    0.0000 C   0  0  0  0  0  0  0  0  0  0  0  0
   -1.7537   -2.4138    0.0000 C   0  0  0  0  0  0  0  0  0  0  0  0
   -0.7500   -1.2990    0.0000 C   0  0  0  0  0  0  0  0  0  0  0  0
    3.7500   -1.2990    0.0000 C   0  0  0  0  0  0  0  0  0  0  0  0
  1  2  3  0
  2  3  1  0
  3  4  2  0
  4  5  1  0
  5  6  2  0
  6  7  1  0
  7  8  1  0
  8  9  1  0
  9 10  2  0
 10 11  1  0
 11 12  2  0
 12 13  1  0
 13 14  1  0
 14 15  1  0
 15 16  1  0
 16 17  2  0
 17 18  1  0
 18 19  2  0
 19 20  1  0
 20 21  1  0
 19 22  1  0
 22 23  2  0
 23 24  1  0
 24 25  1  0
 15 26  2  0
 26 27  1  0
  7 28  2  0
 28  3  1  0
 27  9  1  0
 27 13  2  0
 23 16  1  0
M  END
>  <Compound_ID>  (736) 
CHEMBL3758802

>  <Molecule Name>  (736) 
nan

>  <Molecular Weight>  (736) 
387.46

>  <AlogP>  (736) 
4.58

>  <Smiles>  (736) 
C#Cc1cccc(Nc2ncnc3sc(-c4ccc(CO)cc4OC)cc23)c1

>  <Standard Type>  (736) 
Inhibition

>  <Standard Relation>  (736) 
'='

>  <Standard Units>  (736) 
%

>  <Standard Value>  (736) 
-11.0

>  <Assay ChEMBL ID>  (736) 
CHEMBL3761591

>  <Assay Description>  (736) 
Inhibition of MET (unknown origin) at 500 nM

>  <BAO Format ID>  (736) 
BAO_0000357

>  <BAO Label>  (736) 
single protein format

>  <Assay Organism>  (736) 
Homo sapiens

>  <Target ChEMBL ID>  (736) 
CHEMBL3717

>  <Target Name>  (736) 
Hepatocyte growth factor receptor

>  <Target Organism>  (736) 
Homo sapiens

>  <Target Type>  (736) 
SINGLE PROTEIN

>  <Document ChEMBL ID>  (736) 
CHEMBL3758163

>  <Source Description>  (736) 
Scientific Literature

>  <Document Journal>  (736) 
Eur J Med Chem

>  <Document Year>  (736) 
2016.0

>  <Active>  (736) 
0.0

$$$$

     RDKit          2D

 33 36  0  0  0  0  0  0  0  0999 V2000
  -14.8154   -4.0537    0.0000 C   0  0  0  0  0  0  0  0  0  0  0  0
  -13.5163   -4.8037    0.0000 N   0  0  0  0  0  0  0  0  0  0  0  0
  -13.5163   -6.3037    0.0000 C   0  0  0  0  0  0  0  0  0  0  0  0
  -12.2173   -4.0537    0.0000 C   0  0  0  0  0  0  0  0  0  0  0  0
  -10.9182   -4.8037    0.0000 C   0  0  0  0  0  0  0  0  0  0  0  0
   -9.6192   -4.0537    0.0000 N   0  0  0  0  0  0  0  0  0  0  0  0
   -8.3202   -4.8037    0.0000 C   0  0  0  0  0  0  0  0  0  0  0  0
   -8.3202   -6.3037    0.0000 O   0  0  0  0  0  0  0  0  0  0  0  0
   -7.0211   -4.0537    0.0000 C   0  0  0  0  0  0  0  0  0  0  0  0
   -7.0211   -2.5537    0.0000 C   0  0  0  0  0  0  0  0  0  0  0  0
   -5.7221   -1.8037    0.0000 C   0  0  0  0  0  0  0  0  0  0  0  0
   -4.4231   -2.5537    0.0000 C   0  0  0  0  0  0  0  0  0  0  0  0
   -3.1240   -1.8037    0.0000 C   0  0  0  0  0  0  0  0  0  0  0  0
   -1.7537   -2.4138    0.0000 C   0  0  0  0  0  0  0  0  0  0  0  0
   -0.7500   -1.2990    0.0000 C   0  0  0  0  0  0  0  0  0  0  0  0
    0.7500   -1.2990    0.0000 C   0  0  0  0  0  0  0  0  0  0  0  0
    1.5000   -2.5981    0.0000 N   0  0  0  0  0  0  0  0  0  0  0  0
    3.0000   -2.5981    0.0000 C   0  0  0  0  0  0  0  0  0  0  0  0
    3.7500   -1.2990    0.0000 C   0  0  0  0  0  0  0  0  0  0  0  0
    5.2500   -1.2990    0.0000 O   0  0  0  0  0  0  0  0  0  0  0  0
    3.7500   -3.8971    0.0000 C   0  0  0  0  0  0  0  0  0  0  0  0
    3.0000   -5.1962    0.0000 C   0  0  0  0  0  0  0  0  0  0  0  0
    3.7500   -6.4952    0.0000 C   0  0  0  0  0  0  0  0  0  0  0  0
    5.2500   -6.4952    0.0000 C   0  0  0  0  0  0  0  0  0  0  0  0
    6.0000   -5.1962    0.0000 C   0  0  0  0  0  0  0  0  0  0  0  0
    5.2500   -3.8971    0.0000 C   0  0  0  0  0  0  0  0  0  0  0  0
    1.5000    0.0000    0.0000 N   0  0  0  0  0  0  0  0  0  0  0  0
    0.7500    1.2990    0.0000 C   0  0  0  0  0  0  0  0  0  0  0  0
   -0.7500    1.2990    0.0000 N   0  0  0  0  0  0  0  0  0  0  0  0
   -1.5000    0.0000    0.0000 C   0  0  0  0  0  0  0  0  0  0  0  0
   -2.9672   -0.3119    0.0000 S   0  0  0  0  0  0  0  0  0  0  0  0
   -4.4231   -4.0537    0.0000 C   0  0  0  0  0  0  0  0  0  0  0  0
   -5.7221   -4.8037    0.0000 C   0  0  0  0  0  0  0  0  0  0  0  0
  1  2  1  0
  2  3  1  0
  2  4  1  0
  4  5  1  0
  5  6  1  0
  6  7  1  0
  7  8  2  0
  7  9  1  0
  9 10  2  0
 10 11  1  0
 11 12  2  0
 12 13  1  0
 13 14  2  0
 14 15  1  0
 15 16  2  0
 16 17  1  0
 17 18  1  0
 18 19  1  6
 19 20  1  0
 18 21  1  0
 21 22  2  0
 22 23  1  0
 23 24  2  0
 24 25  1  0
 25 26  2  0
 16 27  1  0
 27 28  2  0
 28 29  1  0
 29 30  2  0
 30 31  1  0
 12 32  1  0
 32 33  2  0
 33  9  1  0
 31 13  1  0
 30 15  1  0
 26 21  1  0
M  END
>  <Compound_ID>  (737) 
CHEMBL3758376

>  <Molecule Name>  (737) 
nan

>  <Molecular Weight>  (737) 
461.59

>  <AlogP>  (737) 
3.80

>  <Smiles>  (737) 
CN(C)CCNC(=O)c1ccc(-c2cc3c(N[C@H](CO)c4ccccc4)ncnc3s2)cc1

>  <Standard Type>  (737) 
Inhibition

>  <Standard Relation>  (737) 
'='

>  <Standard Units>  (737) 
%

>  <Standard Value>  (737) 
-3.0

>  <Assay ChEMBL ID>  (737) 
CHEMBL3761591

>  <Assay Description>  (737) 
Inhibition of MET (unknown origin) at 500 nM

>  <BAO Format ID>  (737) 
BAO_0000357

>  <BAO Label>  (737) 
single protein format

>  <Assay Organism>  (737) 
Homo sapiens

>  <Target ChEMBL ID>  (737) 
CHEMBL3717

>  <Target Name>  (737) 
Hepatocyte growth factor receptor

>  <Target Organism>  (737) 
Homo sapiens

>  <Target Type>  (737) 
SINGLE PROTEIN

>  <Document ChEMBL ID>  (737) 
CHEMBL3758163

>  <Source Description>  (737) 
Scientific Literature

>  <Document Journal>  (737) 
Eur J Med Chem

>  <Document Year>  (737) 
2016.0

>  <Active>  (737) 
0.0

$$$$

     RDKit          2D

 20 20  0  0  0  0  0  0  0  0999 V2000
    7.5000   -2.5981    0.0000 C   0  0  0  0  0  0  0  0  0  0  0  0
    6.0000   -2.5981    0.0000 C   0  0  0  0  0  0  0  0  0  0  0  0
    5.2500   -1.2990    0.0000 C   0  0  0  0  0  0  0  0  0  0  0  0
    6.0000    0.0000    0.0000 O   0  0  0  0  0  0  0  0  0  0  0  0
    3.7500   -1.2990    0.0000 C   0  0  0  0  0  0  0  0  0  0  0  0
    3.0000    0.0000    0.0000 C   0  0  0  0  0  0  0  0  0  0  0  0
    1.5000    0.0000    0.0000 C   0  0  0  0  0  0  0  0  0  0  0  0
    0.7500   -1.2990    0.0000 C   0  0  0  0  0  0  0  0  0  0  0  0
   -0.7500   -1.2990    0.0000 C   0  0  0  0  0  0  0  0  0  0  0  0
   -1.5000    0.0000    0.0000 C   0  0  0  0  0  0  0  0  0  0  0  0
   -0.7500    1.2990    0.0000 C   0  0  0  0  0  0  0  0  0  0  0  0
    0.7500    1.2990    0.0000 C   0  0  0  0  0  0  0  0  0  0  0  0
    3.0000   -2.5981    0.0000 N   0  0  0  0  0  0  0  0  0  0  0  0
    3.7500   -3.8971    0.0000 C   0  0  0  0  0  0  0  0  0  0  0  0
    5.2500   -3.8971    0.0000 O   0  0  0  0  0  0  0  0  0  0  0  0
    3.0000   -5.1962    0.0000 O   0  0  0  0  0  0  0  0  0  0  0  0
    3.7500   -6.4952    0.0000 C   0  0  0  0  0  0  0  0  0  0  0  0
    2.4510   -7.2452    0.0000 C   0  0  0  0  0  0  0  0  0  0  0  0
    5.0490   -5.7452    0.0000 C   0  0  0  0  0  0  0  0  0  0  0  0
    4.5000   -7.7942    0.0000 C   0  0  0  0  0  0  0  0  0  0  0  0
  1  2  2  0
  2  3  1  0
  3  4  2  0
  3  5  1  0
  5  6  1  1
  6  7  1  0
  7  8  2  0
  8  9  1  0
  9 10  2  0
 10 11  1  0
 11 12  2  0
  5 13  1  0
 13 14  1  0
 14 15  2  0
 14 16  1  0
 16 17  1  0
 17 18  1  0
 17 19  1  0
 17 20  1  0
 12  7  1  0
M  END
>  <Compound_ID>  (738) 
CHEMBL3298512

>  <Molecule Name>  (738) 
nan

>  <Molecular Weight>  (738) 
275.35

>  <AlogP>  (738) 
2.88

>  <Smiles>  (738) 
C=CC(=O)[C@H](Cc1ccccc1)NC(=O)OC(C)(C)C

>  <Standard Type>  (738) 
Inhibition

>  <Standard Relation>  (738) 
'='

>  <Standard Units>  (738) 
%

>  <Standard Value>  (738) 
11.0

>  <Assay ChEMBL ID>  (738) 
CHEMBL3364381

>  <Assay Description>  (738) 
Inhibition of MET (unknown origin) at 1 uM in presence of 100 uM ATP

>  <BAO Format ID>  (738) 
BAO_0000357

>  <BAO Label>  (738) 
single protein format

>  <Assay Organism>  (738) 
Homo sapiens

>  <Target ChEMBL ID>  (738) 
CHEMBL3717

>  <Target Name>  (738) 
Hepatocyte growth factor receptor

>  <Target Organism>  (738) 
Homo sapiens

>  <Target Type>  (738) 
SINGLE PROTEIN

>  <Document ChEMBL ID>  (738) 
CHEMBL3297689

>  <Source Description>  (738) 
Scientific Literature

>  <Document Journal>  (738) 
ACS Med Chem Lett

>  <Document Year>  (738) 
2014.0

>  <Active>  (738) 
0.0

$$$$

     RDKit          2D

 27 31  0  0  0  0  0  0  0  0999 V2000
    3.7500    1.2990    0.0000 O   0  0  0  0  0  0  0  0  0  0  0  0
    3.0000    0.0000    0.0000 C   0  0  0  0  0  0  0  0  0  0  0  0
    3.7500   -1.2990    0.0000 O   0  0  0  0  0  0  0  0  0  0  0  0
    1.5000    0.0000    0.0000 C   0  0  0  0  0  0  0  0  0  0  0  0
    0.7500   -1.2990    0.0000 C   0  0  0  0  0  0  0  0  0  0  0  0
   -0.7500   -1.2990    0.0000 O   0  0  0  0  0  0  0  0  0  0  0  0
   -1.5000    0.0000    0.0000 C   0  0  0  0  0  0  0  0  0  0  0  0
   -3.0000    0.0000    0.0000 C   0  0  0  0  0  0  0  0  0  0  0  0
   -3.7500    1.2990    0.0000 C   0  0  0  0  0  0  0  0  0  0  0  0
   -5.2500    1.2990    0.0000 N   0  0  0  0  0  0  0  0  0  0  0  0
   -6.0000    2.5981    0.0000 C   0  0  0  0  0  0  0  0  0  0  0  0
   -7.5000    2.5981    0.0000 C   0  0  0  0  0  0  0  0  0  0  0  0
   -8.3817    1.3846    0.0000 C   0  0  0  0  0  0  0  0  0  0  0  0
   -9.8083    1.8481    0.0000 C   0  0  0  0  0  0  0  0  0  0  0  0
   -9.8083    3.3481    0.0000 C   0  0  0  0  0  0  0  0  0  0  0  0
   -8.3817    3.8116    0.0000 S   0  0  0  0  0  0  0  0  0  0  0  0
   -5.2500    3.8971    0.0000 C   0  0  0  0  0  0  0  0  0  0  0  0
   -6.0000    5.1962    0.0000 C   0  0  0  0  0  0  0  0  0  0  0  0
   -7.4918    5.3529    0.0000 C   0  0  0  0  0  0  0  0  0  0  0  0
   -7.8037    6.8202    0.0000 C   0  0  0  0  0  0  0  0  0  0  0  0
   -6.5046    7.5702    0.0000 C   0  0  0  0  0  0  0  0  0  0  0  0
   -5.3899    6.5665    0.0000 S   0  0  0  0  0  0  0  0  0  0  0  0
   -3.7500    3.8971    0.0000 N   0  0  0  0  0  0  0  0  0  0  0  0
   -3.0000    2.5981    0.0000 C   0  0  0  0  0  0  0  0  0  0  0  0
   -1.5000    2.5981    0.0000 C   0  0  0  0  0  0  0  0  0  0  0  0
   -0.7500    1.2990    0.0000 C   0  0  0  0  0  0  0  0  0  0  0  0
    0.7500    1.2990    0.0000 O   0  0  0  0  0  0  0  0  0  0  0  0
  1  2  2  0
  2  3  1  0
  2  4  1  0
  4  5  1  0
  5  6  1  0
  6  7  1  0
  7  8  2  0
  8  9  1  0
  9 10  2  0
 10 11  1  0
 11 12  1  0
 12 13  2  0
 13 14  1  0
 14 15  2  0
 15 16  1  0
 11 17  2  0
 17 18  1  0
 18 19  2  0
 19 20  1  0
 20 21  2  0
 21 22  1  0
 17 23  1  0
 23 24  2  0
 24 25  1  0
 25 26  2  0
 26 27  1  0
 27  4  1  0
 26  7  1  0
 24  9  1  0
 16 12  1  0
 22 18  1  0
M  END
>  <Compound_ID>  (739) 
CHEMBL193232

>  <Molecule Name>  (739) 
nan

>  <Molecular Weight>  (739) 
396.45

>  <AlogP>  (739) 
4.31

>  <Smiles>  (739) 
O=C(O)C1COc2cc3nc(-c4cccs4)c(-c4cccs4)nc3cc2O1

>  <Standard Type>  (739) 
Inhibition

>  <Standard Relation>  (739) 
'='

>  <Standard Units>  (739) 
%

>  <Standard Value>  (739) 
-2.0

>  <Assay ChEMBL ID>  (739) 
CHEMBL835467

>  <Assay Description>  (739) 
In vitro percent inhibition of Met proto-oncogene tyrosine kinase at 10 uM concentration of compound dissolved in 100% DMSO using 5''-[gamma-33P]-triphosphate

>  <BAO Format ID>  (739) 
BAO_0000357

>  <BAO Label>  (739) 
single protein format

>  <Assay Organism>  (739) 
None

>  <Target ChEMBL ID>  (739) 
CHEMBL3717

>  <Target Name>  (739) 
Hepatocyte growth factor receptor

>  <Target Organism>  (739) 
Homo sapiens

>  <Target Type>  (739) 
SINGLE PROTEIN

>  <Document ChEMBL ID>  (739) 
CHEMBL1140238

>  <Source Description>  (739) 
Scientific Literature

>  <Document Journal>  (739) 
Bioorg Med Chem Lett

>  <Document Year>  (739) 
2005.0

>  <Active>  (739) 
0.0

$$$$

     RDKit          2D

 34 38  0  0  0  0  0  0  0  0999 V2000
   -6.1170   -7.0506    0.0000 C   0  0  0  0  0  0  0  0  0  0  0  0
   -4.6904   -6.5871    0.0000 C   0  0  0  0  0  0  0  0  0  0  0  0
   -4.3786   -5.1199    0.0000 C   0  0  0  0  0  0  0  0  0  0  0  0
   -2.9520   -4.6564    0.0000 N   0  0  0  0  0  0  0  0  0  0  0  0
   -2.6401   -3.1891    0.0000 C   0  0  0  0  0  0  0  0  0  0  0  0
   -3.7548   -2.1855    0.0000 O   0  0  0  0  0  0  0  0  0  0  0  0
   -1.2135   -2.7256    0.0000 C   0  0  0  0  0  0  0  0  0  0  0  0
   -0.0000   -3.6073    0.0000 C   0  0  0  0  0  0  0  0  0  0  0  0
    1.2135   -2.7256    0.0000 N   0  0  0  0  0  0  0  0  0  0  0  0
    0.7500   -1.2990    0.0000 C   0  0  0  0  0  0  0  0  0  0  0  0
    1.5000    0.0000    0.0000 N   0  0  0  0  0  0  0  0  0  0  0  0
    0.7500    1.2990    0.0000 C   0  0  0  0  0  0  0  0  0  0  0  0
   -0.7500    1.2990    0.0000 C   0  0  0  0  0  0  0  0  0  0  0  0
   -1.5000    2.5981    0.0000 C   0  0  0  0  0  0  0  0  0  0  0  0
   -2.9918    2.7549    0.0000 N   0  0  0  0  0  0  0  0  0  0  0  0
   -3.3037    4.2221    0.0000 N   0  0  0  0  0  0  0  0  0  0  0  0
   -4.6740    4.8322    0.0000 C   0  0  0  0  0  0  0  0  0  0  0  0
   -2.0046    4.9721    0.0000 C   0  0  0  0  0  0  0  0  0  0  0  0
   -1.6927    6.4393    0.0000 C   0  0  0  0  0  0  0  0  0  0  0  0
   -0.2662    6.9028    0.0000 C   0  0  0  0  0  0  0  0  0  0  0  0
    0.0457    8.3701    0.0000 Cl  0  0  0  0  0  0  0  0  0  0  0  0
    0.8486    5.8991    0.0000 C   0  0  0  0  0  0  0  0  0  0  0  0
    0.5367    4.4319    0.0000 C   0  0  0  0  0  0  0  0  0  0  0  0
   -0.8899    3.9684    0.0000 C   0  0  0  0  0  0  0  0  0  0  0  0
   -1.5000    0.0000    0.0000 N   0  0  0  0  0  0  0  0  0  0  0  0
   -0.7500   -1.2990    0.0000 C   0  0  0  0  0  0  0  0  0  0  0  0
   -5.4933   -4.1162    0.0000 C   0  0  0  0  0  0  0  0  0  0  0  0
   -5.1814   -2.6490    0.0000 O   0  0  0  0  0  0  0  0  0  0  0  0
   -6.9199   -4.5797    0.0000 N   0  0  0  0  0  0  0  0  0  0  0  0
   -8.2564   -3.8987    0.0000 C   0  0  0  0  0  0  0  0  0  0  0  0
   -8.9374   -5.2352    0.0000 C   0  0  0  0  0  0  0  0  0  0  0  0
  -10.3639   -5.6988    0.0000 C   0  0  0  0  0  0  0  0  0  0  0  0
  -11.7905   -6.1623    0.0000 N   0  0  0  0  0  0  0  0  0  0  0  0
   -7.6009   -5.9162    0.0000 C   0  0  0  0  0  0  0  0  0  0  0  0
  1  2  1  0
  3  2  1  6
  3  4  1  0
  4  5  1  0
  5  6  2  0
  5  7  1  0
  7  8  2  0
  8  9  1  0
  9 10  1  0
 10 11  2  0
 11 12  1  0
 12 13  2  0
 13 14  1  0
 14 15  2  0
 15 16  1  0
 16 17  1  0
 16 18  1  0
 18 19  2  0
 19 20  1  0
 20 21  1  0
 20 22  2  0
 22 23  1  0
 23 24  2  0
 13 25  1  0
 25 26  2  0
  3 27  1  0
 27 28  2  0
 27 29  1  0
 29 30  1  0
 30 31  1  0
 31 32  1  0
 32 33  3  0
 31 34  1  0
 26  7  1  0
 34 29  1  0
 26 10  1  0
 24 14  1  0
 24 18  1  0
M  END
>  <Compound_ID>  (740) 
CHEMBL2376153

>  <Molecule Name>  (740) 
nan

>  <Molecular Weight>  (740) 
476.93

>  <AlogP>  (740) 
2.66

>  <Smiles>  (740) 
CC[C@@H](NC(=O)c1c[nH]c2ncc(-c3nn(C)c4cc(Cl)ccc34)nc12)C(=O)N1CC(C#N)C1

>  <Standard Type>  (740) 
Inhibition

>  <Standard Relation>  (740) 
'='

>  <Standard Units>  (740) 
%

>  <Standard Value>  (740) 
12.0

>  <Assay ChEMBL ID>  (740) 
CHEMBL2378435

>  <Assay Description>  (740) 
Inhibition of MET (unknown origin) at 10 uM relative to control

>  <BAO Format ID>  (740) 
BAO_0000357

>  <BAO Label>  (740) 
single protein format

>  <Assay Organism>  (740) 
Homo sapiens

>  <Target ChEMBL ID>  (740) 
CHEMBL3717

>  <Target Name>  (740) 
Hepatocyte growth factor receptor

>  <Target Organism>  (740) 
Homo sapiens

>  <Target Type>  (740) 
SINGLE PROTEIN

>  <Document ChEMBL ID>  (740) 
CHEMBL2375236

>  <Source Description>  (740) 
Scientific Literature

>  <Document Journal>  (740) 
Bioorg Med Chem Lett

>  <Document Year>  (740) 
2013.0

>  <Active>  (740) 
0.0

$$$$

     RDKit          2D

 26 28  0  0  0  0  0  0  0  0999 V2000
    3.7500   -1.2990    0.0000 C   0  0  0  0  0  0  0  0  0  0  0  0
    3.0000    0.0000    0.0000 O   0  0  0  0  0  0  0  0  0  0  0  0
    1.5000    0.0000    0.0000 C   0  0  0  0  0  0  0  0  0  0  0  0
    0.7500   -1.2990    0.0000 C   0  0  0  0  0  0  0  0  0  0  0  0
   -0.7500   -1.2990    0.0000 C   0  0  0  0  0  0  0  0  0  0  0  0
   -1.5000   -2.5981    0.0000 N   0  0  0  0  0  0  0  0  0  0  0  0
   -3.0000   -2.5981    0.0000 C   0  0  0  0  0  0  0  0  0  0  0  0
   -3.7500   -1.2990    0.0000 C   0  0  0  0  0  0  0  0  0  0  0  0
   -5.2500   -1.2990    0.0000 C   0  0  0  0  0  0  0  0  0  0  0  0
   -6.0000    0.0000    0.0000 N   0  0  0  0  0  0  0  0  0  0  0  0
   -6.0000   -2.5981    0.0000 O   0  0  0  0  0  0  0  0  0  0  0  0
   -3.0000    0.0000    0.0000 C   0  0  0  0  0  0  0  0  0  0  0  0
   -3.7500    1.2990    0.0000 N   0  0  0  0  0  0  0  0  0  0  0  0
   -3.0000    2.5981    0.0000 C   0  0  0  0  0  0  0  0  0  0  0  0
   -1.5000    2.5981    0.0000 C   0  0  0  0  0  0  0  0  0  0  0  0
   -0.7500    3.8971    0.0000 C   0  0  0  0  0  0  0  0  0  0  0  0
   -1.5000    5.1962    0.0000 C   0  0  0  0  0  0  0  0  0  0  0  0
   -0.7500    6.4952    0.0000 F   0  0  0  0  0  0  0  0  0  0  0  0
   -3.0000    5.1962    0.0000 C   0  0  0  0  0  0  0  0  0  0  0  0
   -3.7500    3.8971    0.0000 C   0  0  0  0  0  0  0  0  0  0  0  0
   -5.2500    3.8971    0.0000 F   0  0  0  0  0  0  0  0  0  0  0  0
   -1.5000    0.0000    0.0000 C   0  0  0  0  0  0  0  0  0  0  0  0
   -0.7500    1.2990    0.0000 C   0  0  0  0  0  0  0  0  0  0  0  0
    0.7500    1.2990    0.0000 C   0  0  0  0  0  0  0  0  0  0  0  0
    1.5000    2.5981    0.0000 O   0  0  0  0  0  0  0  0  0  0  0  0
    3.0000    2.5981    0.0000 C   0  0  0  0  0  0  0  0  0  0  0  0
  1  2  1  0
  2  3  1  0
  3  4  2  0
  4  5  1  0
  5  6  2  0
  6  7  1  0
  7  8  2  0
  8  9  1  0
  9 10  1  0
  9 11  2  0
  8 12  1  0
 12 13  1  0
 13 14  1  0
 14 15  2  0
 15 16  1  0
 16 17  2  0
 17 18  1  0
 17 19  1  0
 19 20  2  0
 20 21  1  0
 12 22  2  0
 22 23  1  0
 23 24  2  0
 24 25  1  0
 25 26  1  0
 24  3  1  0
 22  5  1  0
 20 14  1  0
M  END
>  <Compound_ID>  (741) 
CHEMBL479847

>  <Molecule Name>  (741) 
nan

>  <Molecular Weight>  (741) 
359.33

>  <AlogP>  (741) 
3.37

>  <Smiles>  (741) 
COc1cc2ncc(C(N)=O)c(Nc3ccc(F)cc3F)c2cc1OC

>  <Standard Type>  (741) 
Inhibition

>  <Standard Relation>  (741) 
'='

>  <Standard Units>  (741) 
%

>  <Standard Value>  (741) 
17.0

>  <Assay ChEMBL ID>  (741) 
CHEMBL1035613

>  <Assay Description>  (741) 
Inhibition of Met at 1 uM

>  <BAO Format ID>  (741) 
BAO_0000357

>  <BAO Label>  (741) 
single protein format

>  <Assay Organism>  (741) 
None

>  <Target ChEMBL ID>  (741) 
CHEMBL3717

>  <Target Name>  (741) 
Hepatocyte growth factor receptor

>  <Target Organism>  (741) 
Homo sapiens

>  <Target Type>  (741) 
SINGLE PROTEIN

>  <Document ChEMBL ID>  (741) 
CHEMBL1143302

>  <Source Description>  (741) 
Scientific Literature

>  <Document Journal>  (741) 
Bioorg Med Chem Lett

>  <Document Year>  (741) 
2009.0

>  <Active>  (741) 
0.0

$$$$

     RDKit          2D

 39 43  0  0  0  0  0  0  0  0999 V2000
    4.4776    3.4730    0.0000 C   0  0  0  0  0  0  0  0  0  0  0  0
    3.0510    3.0095    0.0000 C   0  0  0  0  0  0  0  0  0  0  0  0
    1.9363    4.0132    0.0000 C   0  0  0  0  0  0  0  0  0  0  0  0
    2.2923    5.0471    0.0000 O   0  0  0  0  0  0  0  0  0  0  0  0
    0.5097    3.5496    0.0000 N   0  0  0  0  0  0  0  0  0  0  0  0
   -0.6050    4.5533    0.0000 C   0  0  0  0  0  0  0  0  0  0  0  0
   -2.0316    4.0898    0.0000 C   0  0  0  0  0  0  0  0  0  0  0  0
   -3.1463    5.0935    0.0000 C   0  0  0  0  0  0  0  0  0  0  0  0
   -4.5729    4.6300    0.0000 N   0  0  0  0  0  0  0  0  0  0  0  0
   -4.8848    3.1627    0.0000 C   0  0  0  0  0  0  0  0  0  0  0  0
   -6.3114    2.6992    0.0000 N   0  0  0  0  0  0  0  0  0  0  0  0
   -6.6232    1.2320    0.0000 C   0  0  0  0  0  0  0  0  0  0  0  0
   -5.5085    0.2283    0.0000 C   0  0  0  0  0  0  0  0  0  0  0  0
   -4.0819    0.6918    0.0000 C   0  0  0  0  0  0  0  0  0  0  0  0
   -2.9672   -0.3119    0.0000 C   0  0  0  0  0  0  0  0  0  0  0  0
   -3.1240   -1.8037    0.0000 C   0  0  0  0  0  0  0  0  0  0  0  0
   -1.7537   -2.4138    0.0000 N   0  0  0  0  0  0  0  0  0  0  0  0
   -0.7500   -1.2990    0.0000 C   0  0  0  0  0  0  0  0  0  0  0  0
    0.7500   -1.2990    0.0000 C   0  0  0  0  0  0  0  0  0  0  0  0
    1.5000    0.0000    0.0000 C   0  0  0  0  0  0  0  0  0  0  0  0
    0.7500    1.2990    0.0000 C   0  0  0  0  0  0  0  0  0  0  0  0
   -0.7500    1.2990    0.0000 C   0  0  0  0  0  0  0  0  0  0  0  0
   -1.5000    0.0000    0.0000 C   0  0  0  0  0  0  0  0  0  0  0  0
    1.2299   -2.7273    0.0000 C   0  0  0  0  0  0  0  0  0  0  0  0
    0.3482   -3.9409    0.0000 C   0  0  0  0  0  0  0  0  0  0  0  0
   -1.1436   -3.7841    0.0000 C   0  0  0  0  0  0  0  0  0  0  0  0
   -3.7701    2.1590    0.0000 N   0  0  0  0  0  0  0  0  0  0  0  0
   -2.8345    6.5607    0.0000 C   0  0  0  0  0  0  0  0  0  0  0  0
   -3.9492    7.5644    0.0000 O   0  0  0  0  0  0  0  0  0  0  0  0
   -3.6373    9.0316    0.0000 C   0  0  0  0  0  0  0  0  0  0  0  0
   -1.4079    7.0242    0.0000 C   0  0  0  0  0  0  0  0  0  0  0  0
   -0.2932    6.0205    0.0000 C   0  0  0  0  0  0  0  0  0  0  0  0
    1.1334    6.4841    0.0000 N   0  0  0  0  0  0  0  0  0  0  0  0
    2.0292    5.8569    0.0000 C   0  0  0  0  0  0  0  0  0  0  0  0
    1.4453    7.9513    0.0000 C   0  0  0  0  0  0  0  0  0  0  0  0
    2.8719    8.4148    0.0000 C   0  0  0  0  0  0  0  0  0  0  0  0
    3.1837    9.8820    0.0000 N   0  0  0  0  0  0  0  0  0  0  0  0
    4.6103   10.3456    0.0000 C   0  0  0  0  0  0  0  0  0  0  0  0
    2.0690   10.8857    0.0000 C   0  0  0  0  0  0  0  0  0  0  0  0
  1  2  2  0
  2  3  1  0
  3  4  2  0
  3  5  1  0
  5  6  1  0
  6  7  2  0
  7  8  1  0
  8  9  1  0
  9 10  1  0
 10 11  2  0
 11 12  1  0
 12 13  2  0
 13 14  1  0
 14 15  1  0
 15 16  2  0
 16 17  1  0
 17 18  1  0
 18 19  2  0
 19 20  1  0
 20 21  2  0
 21 22  1  0
 22 23  2  0
 19 24  1  0
 24 25  1  0
 25 26  1  0
 14 27  2  0
  8 28  2  0
 28 29  1  0
 29 30  1  0
 28 31  1  0
 31 32  2  0
 32 33  1  0
 33 34  1  0
 33 35  1  0
 35 36  1  0
 36 37  1  0
 37 38  1  0
 37 39  1  0
 32  6  1  0
 27 10  1  0
 23 15  1  0
 26 17  1  0
 23 18  1  0
M  END
>  <Compound_ID>  (742) 
CHEMBL4104658

>  <Molecule Name>  (742) 
nan

>  <Molecular Weight>  (742) 
525.66

>  <AlogP>  (742) 
4.92

>  <Smiles>  (742) 
C=CC(=O)Nc1cc(Nc2nccc(-c3cn4c5c(cccc35)CCC4)n2)c(OC)cc1N(C)CCN(C)C

>  <Standard Type>  (742) 
Inhibition

>  <Standard Relation>  (742) 
'='

>  <Standard Units>  (742) 
%

>  <Standard Value>  (742) 
-2.0

>  <Assay ChEMBL ID>  (742) 
CHEMBL4053892

>  <Assay Description>  (742) 
Inhibition of MET (cMet) (unknown origin) at 1 uM relative to control

>  <BAO Format ID>  (742) 
BAO_0000357

>  <BAO Label>  (742) 
single protein format

>  <Assay Organism>  (742) 
Homo sapiens

>  <Target ChEMBL ID>  (742) 
CHEMBL3717

>  <Target Name>  (742) 
Hepatocyte growth factor receptor

>  <Target Organism>  (742) 
Homo sapiens

>  <Target Type>  (742) 
SINGLE PROTEIN

>  <Document ChEMBL ID>  (742) 
CHEMBL4052618

>  <Source Description>  (742) 
Scientific Literature

>  <Document Journal>  (742) 
Eur J Med Chem

>  <Document Year>  (742) 
2017.0

>  <Active>  (742) 
0.0

$$$$

     RDKit          2D

 39 42  0  0  0  0  0  0  0  0999 V2000
   -6.1170   -7.0506    0.0000 C   0  0  0  0  0  0  0  0  0  0  0  0
   -4.6904   -6.5871    0.0000 O   0  0  0  0  0  0  0  0  0  0  0  0
   -4.3786   -5.1199    0.0000 C   0  0  0  0  0  0  0  0  0  0  0  0
   -5.4933   -4.1162    0.0000 C   0  0  0  0  0  0  0  0  0  0  0  0
   -5.1814   -2.6490    0.0000 C   0  0  0  0  0  0  0  0  0  0  0  0
   -6.2961   -1.6453    0.0000 O   0  0  0  0  0  0  0  0  0  0  0  0
   -7.7227   -2.1088    0.0000 C   0  0  0  0  0  0  0  0  0  0  0  0
   -3.7548   -2.1855    0.0000 C   0  0  0  0  0  0  0  0  0  0  0  0
   -2.6401   -3.1891    0.0000 C   0  0  0  0  0  0  0  0  0  0  0  0
   -1.2135   -2.7256    0.0000 C   0  0  0  0  0  0  0  0  0  0  0  0
   -0.0000   -3.6073    0.0000 N   0  0  0  0  0  0  0  0  0  0  0  0
    1.2135   -2.7256    0.0000 N   0  0  0  0  0  0  0  0  0  0  0  0
    2.6401   -3.1891    0.0000 C   0  0  0  0  0  0  0  0  0  0  0  0
    2.9520   -4.6564    0.0000 C   0  0  0  0  0  0  0  0  0  0  0  0
    4.3786   -5.1199    0.0000 C   0  0  0  0  0  0  0  0  0  0  0  0
    4.6904   -6.5871    0.0000 C   0  0  0  0  0  0  0  0  0  0  0  0
    6.1170   -7.0506    0.0000 C   0  0  0  0  0  0  0  0  0  0  0  0
    6.4289   -8.5179    0.0000 N   0  0  0  0  0  0  0  0  0  0  0  0
    5.3142   -9.5216    0.0000 C   0  0  0  0  0  0  0  0  0  0  0  0
    5.6260  -10.9888    0.0000 C   0  0  0  0  0  0  0  0  0  0  0  0
    7.0526  -11.4523    0.0000 N   0  0  0  0  0  0  0  0  0  0  0  0
    7.3645  -12.9195    0.0000 C   0  0  0  0  0  0  0  0  0  0  0  0
    8.7911  -13.3831    0.0000 O   0  0  0  0  0  0  0  0  0  0  0  0
    6.2498  -13.9232    0.0000 C   0  0  0  0  0  0  0  0  0  0  0  0
    6.5616  -15.3904    0.0000 C   0  0  0  0  0  0  0  0  0  0  0  0
    5.4469  -16.3941    0.0000 C   0  0  0  0  0  0  0  0  0  0  0  0
    4.3322  -17.3978    0.0000 F   0  0  0  0  0  0  0  0  0  0  0  0
    6.4506  -17.5089    0.0000 F   0  0  0  0  0  0  0  0  0  0  0  0
    4.4432  -15.2794    0.0000 F   0  0  0  0  0  0  0  0  0  0  0  0
    8.1673  -10.4486    0.0000 C   0  0  0  0  0  0  0  0  0  0  0  0
    7.8555   -8.9814    0.0000 C   0  0  0  0  0  0  0  0  0  0  0  0
    0.7500   -1.2990    0.0000 C   0  0  0  0  0  0  0  0  0  0  0  0
    1.5000    0.0000    0.0000 N   0  0  0  0  0  0  0  0  0  0  0  0
    0.7500    1.2990    0.0000 C   0  0  0  0  0  0  0  0  0  0  0  0
   -0.7500    1.2990    0.0000 N   0  0  0  0  0  0  0  0  0  0  0  0
   -1.5000    0.0000    0.0000 C   0  0  0  0  0  0  0  0  0  0  0  0
   -3.0000    0.0000    0.0000 N   0  0  0  0  0  0  0  0  0  0  0  0
   -0.7500   -1.2990    0.0000 C   0  0  0  0  0  0  0  0  0  0  0  0
   -2.9520   -4.6564    0.0000 C   0  0  0  0  0  0  0  0  0  0  0  0
  1  2  1  0
  2  3  1  0
  3  4  2  0
  4  5  1  0
  5  6  1  0
  6  7  1  0
  5  8  2  0
  8  9  1  0
  9 10  1  0
 10 11  2  0
 11 12  1  0
 12 13  1  0
 13 14  1  0
 14 15  1  0
 15 16  1  0
 16 17  1  0
 17 18  1  0
 18 19  1  0
 19 20  1  0
 20 21  1  0
 21 22  1  0
 22 23  2  0
 22 24  1  0
 24 25  2  0
 25 26  1  0
 26 27  1  0
 26 28  1  0
 26 29  1  0
 21 30  1  0
 30 31  1  0
 12 32  1  0
 32 33  2  0
 33 34  1  0
 34 35  2  0
 35 36  1  0
 36 37  1  0
 36 38  2  0
  9 39  2  0
 39  3  1  0
 38 10  1  0
 31 18  1  0
 38 32  1  0
M  END
>  <Compound_ID>  (743) 
CHEMBL5088737

>  <Molecule Name>  (743) 
nan

>  <Molecular Weight>  (743) 
547.58

>  <AlogP>  (743) 
3.53

>  <Smiles>  (743) 
COc1cc(OC)cc(-c2nn(CCCCCN3CCN(C(=O)/C=C/C(F)(F)F)CC3)c3ncnc(N)c23)c1

>  <Standard Type>  (743) 
Inhibition

>  <Standard Relation>  (743) 
'='

>  <Standard Units>  (743) 
%

>  <Standard Value>  (743) 
1.0

>  <Assay ChEMBL ID>  (743) 
CHEMBL5033099

>  <Assay Description>  (743) 
Inhibition of MET (unknown origin) at 1000 nM relative to control

>  <BAO Format ID>  (743) 
BAO_0000357

>  <BAO Label>  (743) 
single protein format

>  <Assay Organism>  (743) 
Homo sapiens

>  <Target ChEMBL ID>  (743) 
CHEMBL3717

>  <Target Name>  (743) 
Hepatocyte growth factor receptor

>  <Target Organism>  (743) 
Homo sapiens

>  <Target Type>  (743) 
SINGLE PROTEIN

>  <Document ChEMBL ID>  (743) 
CHEMBL5032504

>  <Source Description>  (743) 
Scientific Literature

>  <Document Journal>  (743) 
J Med Chem

>  <Document Year>  (743) 
2021.0

>  <Active>  (743) 
0.0

$$$$

     RDKit          2D

 17 19  0  0  0  0  0  0  0  0999 V2000
    1.5000    0.0000    0.0000 C   0  0  0  0  0  0  0  0  0  0  0  0
    0.7500   -1.2990    0.0000 C   0  0  0  0  0  0  0  0  0  0  0  0
   -0.7500   -1.2990    0.0000 C   0  0  0  0  0  0  0  0  0  0  0  0
   -1.5000   -2.5981    0.0000 C   0  0  0  0  0  0  0  0  0  0  0  0
   -0.8899   -3.9684    0.0000 C   0  0  0  0  0  0  0  0  0  0  0  0
   -2.0046   -4.9721    0.0000 C   0  0  0  0  0  0  0  0  0  0  0  0
   -1.8478   -6.4639    0.0000 C   0  0  0  0  0  0  0  0  0  0  0  0
   -3.0613   -7.3456    0.0000 C   0  0  0  0  0  0  0  0  0  0  0  0
   -2.9046   -8.8373    0.0000 C   0  0  0  0  0  0  0  0  0  0  0  0
   -1.5342   -9.4474    0.0000 N   0  0  0  0  0  0  0  0  0  0  0  0
   -0.3207   -8.5658    0.0000 C   0  0  0  0  0  0  0  0  0  0  0  0
   -0.4775   -7.0740    0.0000 C   0  0  0  0  0  0  0  0  0  0  0  0
   -3.3037   -4.2221    0.0000 N   0  0  0  0  0  0  0  0  0  0  0  0
   -2.9918   -2.7549    0.0000 N   0  0  0  0  0  0  0  0  0  0  0  0
   -1.5000    0.0000    0.0000 C   0  0  0  0  0  0  0  0  0  0  0  0
   -0.7500    1.2990    0.0000 C   0  0  0  0  0  0  0  0  0  0  0  0
    0.7500    1.2990    0.0000 N   0  0  0  0  0  0  0  0  0  0  0  0
  1  2  2  0
  2  3  1  0
  3  4  1  0
  4  5  2  0
  5  6  1  0
  6  7  1  0
  7  8  1  0
  8  9  1  0
  9 10  1  0
 10 11  1  0
 11 12  1  0
  6 13  2  0
 13 14  1  0
  3 15  2  0
 15 16  1  0
 16 17  2  0
 17  1  1  0
 14  4  1  0
 12  7  1  0
M  END
>  <Compound_ID>  (744) 
CHEMBL1241462

>  <Molecule Name>  (744) 
nan

>  <Molecular Weight>  (744) 
228.30

>  <AlogP>  (744) 
1.94

>  <Smiles>  (744) 
c1cc(-c2cc(C3CCNCC3)n[nH]2)ccn1

>  <Standard Type>  (744) 
Inhibition

>  <Standard Relation>  (744) 
'='

>  <Standard Units>  (744) 
%

>  <Standard Value>  (744) 
1.0

>  <Assay ChEMBL ID>  (744) 
CHEMBL1246561

>  <Assay Description>  (744) 
Inhibition of MET at 5 uM

>  <BAO Format ID>  (744) 
BAO_0000357

>  <BAO Label>  (744) 
single protein format

>  <Assay Organism>  (744) 
None

>  <Target ChEMBL ID>  (744) 
CHEMBL3717

>  <Target Name>  (744) 
Hepatocyte growth factor receptor

>  <Target Organism>  (744) 
Homo sapiens

>  <Target Type>  (744) 
SINGLE PROTEIN

>  <Document ChEMBL ID>  (744) 
CHEMBL1240515

>  <Source Description>  (744) 
Scientific Literature

>  <Document Journal>  (744) 
J Med Chem

>  <Document Year>  (744) 
2010.0

>  <Active>  (744) 
0.0

$$$$

     RDKit          2D

 50 55  0  0  0  0  0  0  0  0999 V2000
   -5.2500   -3.8971    0.0000 C   0  0  0  0  0  0  0  0  0  0  0  0
   -3.7500   -3.8971    0.0000 O   0  0  0  0  0  0  0  0  0  0  0  0
   -3.0000   -2.5981    0.0000 C   0  0  0  0  0  0  0  0  0  0  0  0
   -1.5000   -2.5981    0.0000 C   0  0  0  0  0  0  0  0  0  0  0  0
   -0.7500   -1.2990    0.0000 C   0  0  0  0  0  0  0  0  0  0  0  0
    0.7500   -1.2990    0.0000 C   0  0  0  0  0  0  0  0  0  0  0  0
    1.5000   -2.5981    0.0000 O   0  0  0  0  0  0  0  0  0  0  0  0
    3.0000   -2.5981    0.0000 C   0  0  0  0  0  0  0  0  0  0  0  0
    3.7500   -3.8971    0.0000 C   0  0  0  0  0  0  0  0  0  0  0  0
    5.2500   -3.8971    0.0000 C   0  0  0  0  0  0  0  0  0  0  0  0
    6.0000   -2.5981    0.0000 C   0  0  0  0  0  0  0  0  0  0  0  0
    7.5000   -2.5981    0.0000 N   0  0  0  0  0  0  0  0  0  0  0  0
    8.2500   -3.8971    0.0000 C   0  0  0  0  0  0  0  0  0  0  0  0
    7.5000   -5.1962    0.0000 O   0  0  0  0  0  0  0  0  0  0  0  0
    9.7500   -3.8971    0.0000 N   0  0  0  0  0  0  0  0  0  0  0  0
   10.5000   -5.1962    0.0000 N   0  0  0  0  0  0  0  0  0  0  0  0
    9.8899   -6.5665    0.0000 C   0  0  0  0  0  0  0  0  0  0  0  0
    8.4227   -6.8783    0.0000 O   0  0  0  0  0  0  0  0  0  0  0  0
   11.0046   -7.5702    0.0000 C   0  0  0  0  0  0  0  0  0  0  0  0
   12.3037   -6.8202    0.0000 S   0  0  0  0  0  0  0  0  0  0  0  0
   11.9918   -5.3529    0.0000 C   0  0  0  0  0  0  0  0  0  0  0  0
   12.9955   -4.2382    0.0000 C   0  0  0  0  0  0  0  0  0  0  0  0
   12.5320   -2.8116    0.0000 C   0  0  0  0  0  0  0  0  0  0  0  0
   13.5356   -1.6969    0.0000 C   0  0  0  0  0  0  0  0  0  0  0  0
   15.0029   -2.0088    0.0000 C   0  0  0  0  0  0  0  0  0  0  0  0
   16.0066   -0.8941    0.0000 F   0  0  0  0  0  0  0  0  0  0  0  0
   15.4664   -3.4354    0.0000 C   0  0  0  0  0  0  0  0  0  0  0  0
   16.9336   -3.7472    0.0000 F   0  0  0  0  0  0  0  0  0  0  0  0
   14.4627   -4.5501    0.0000 C   0  0  0  0  0  0  0  0  0  0  0  0
    5.2500   -1.2990    0.0000 C   0  0  0  0  0  0  0  0  0  0  0  0
    3.7500   -1.2990    0.0000 C   0  0  0  0  0  0  0  0  0  0  0  0
    1.5000    0.0000    0.0000 C   0  0  0  0  0  0  0  0  0  0  0  0
    0.7500    1.2990    0.0000 C   0  0  0  0  0  0  0  0  0  0  0  0
   -0.7500    1.2990    0.0000 N   0  0  0  0  0  0  0  0  0  0  0  0
   -1.5000    0.0000    0.0000 C   0  0  0  0  0  0  0  0  0  0  0  0
   -3.0000    0.0000    0.0000 C   0  0  0  0  0  0  0  0  0  0  0  0
   -3.7500   -1.2990    0.0000 C   0  0  0  0  0  0  0  0  0  0  0  0
   -5.2500   -1.2990    0.0000 O   0  0  0  0  0  0  0  0  0  0  0  0
   -6.0000    0.0000    0.0000 C   0  0  0  0  0  0  0  0  0  0  0  0
   -5.2500    1.2990    0.0000 C   0  0  0  0  0  0  0  0  0  0  0  0
   -6.0000    2.5981    0.0000 C   0  0  0  0  0  0  0  0  0  0  0  0
   -7.5000    2.5981    0.0000 N   0  0  0  0  0  0  0  0  0  0  0  0
   -8.2500    3.8971    0.0000 C   0  0  0  0  0  0  0  0  0  0  0  0
   -9.7500    3.8971    0.0000 O   0  0  0  0  0  0  0  0  0  0  0  0
   -7.5000    5.1962    0.0000 N   0  0  0  0  0  0  0  0  0  0  0  0
   -8.2500    6.4952    0.0000 C   0  0  0  0  0  0  0  0  0  0  0  0
   -7.5000    7.7942    0.0000 C   0  0  0  0  0  0  0  0  0  0  0  0
   -9.7500    6.4952    0.0000 C   0  0  0  0  0  0  0  0  0  0  0  0
   -8.2500    1.2990    0.0000 C   0  0  0  0  0  0  0  0  0  0  0  0
   -7.5000    0.0000    0.0000 C   0  0  0  0  0  0  0  0  0  0  0  0
  1  2  1  0
  2  3  1  0
  3  4  2  0
  4  5  1  0
  5  6  2  0
  6  7  1  0
  7  8  1  0
  8  9  2  0
  9 10  1  0
 10 11  2  0
 11 12  1  0
 12 13  1  0
 13 14  2  0
 13 15  1  0
 15 16  1  0
 16 17  1  0
 17 18  2  0
 17 19  1  0
 19 20  1  0
 20 21  1  0
 21 22  1  0
 22 23  2  0
 23 24  1  0
 24 25  2  0
 25 26  1  0
 25 27  1  0
 27 28  1  0
 27 29  2  0
 11 30  1  0
 30 31  2  0
  6 32  1  0
 32 33  2  0
 33 34  1  0
 34 35  2  0
 35 36  1  0
 36 37  2  0
 37 38  1  0
 38 39  1  0
 39 40  1  0
 40 41  1  0
 41 42  1  0
 42 43  1  0
 43 44  2  0
 43 45  1  0
 45 46  1  0
 46 47  1  0
 46 48  1  0
 42 49  1  0
 49 50  1  0
 37  3  1  0
 50 39  1  0
 35  5  1  0
 31  8  1  0
 21 16  1  0
 29 22  1  0
M  END
>  <Compound_ID>  (745) 
CHEMBL4795659

>  <Molecule Name>  (745) 
nan

>  <Molecular Weight>  (745) 
706.77

>  <AlogP>  (745) 
6.59

>  <Smiles>  (745) 
COc1cc2c(Oc3ccc(NC(=O)NN4C(=O)CSC4c4ccc(F)c(F)c4)cc3)ccnc2cc1OC1CCN(C(=O)NC(C)C)CC1

>  <Standard Type>  (745) 
Inhibition

>  <Standard Relation>  (745) 
'='

>  <Standard Units>  (745) 
%

>  <Standard Value>  (745) 
16.1

>  <Assay ChEMBL ID>  (745) 
CHEMBL4709088

>  <Assay Description>  (745) 
Inhibition of c-Met (unknown origin) at 1 uM using FAM-labelled peptide and ATP incubated for 10 mins by mobility shift assay relative to control

>  <BAO Format ID>  (745) 
BAO_0000357

>  <BAO Label>  (745) 
single protein format

>  <Assay Organism>  (745) 
Homo sapiens

>  <Target ChEMBL ID>  (745) 
CHEMBL3717

>  <Target Name>  (745) 
Hepatocyte growth factor receptor

>  <Target Organism>  (745) 
Homo sapiens

>  <Target Type>  (745) 
SINGLE PROTEIN

>  <Document ChEMBL ID>  (745) 
CHEMBL4706527

>  <Source Description>  (745) 
Scientific Literature

>  <Document Journal>  (745) 
Eur J Med Chem

>  <Document Year>  (745) 
2020.0

>  <Active>  (745) 
0.0

$$$$

     RDKit          2D

 29 31  0  0  0  0  0  0  0  0999 V2000
    6.0000    2.5981    0.0000 C   0  0  0  0  0  0  0  0  0  0  0  0
    6.7500    1.2990    0.0000 N   0  0  0  0  0  0  0  0  0  0  0  0
    6.0000   -0.0000    0.0000 S   0  0  0  0  0  0  0  0  0  0  0  0
    7.2990   -0.7500    0.0000 O   0  0  0  0  0  0  0  0  0  0  0  0
    4.7010    0.7500    0.0000 O   0  0  0  0  0  0  0  0  0  0  0  0
    5.2500   -1.2990    0.0000 C   0  0  0  0  0  0  0  0  0  0  0  0
    6.0000   -2.5981    0.0000 C   0  0  0  0  0  0  0  0  0  0  0  0
    5.2500   -3.8971    0.0000 C   0  0  0  0  0  0  0  0  0  0  0  0
    3.7500   -3.8971    0.0000 C   0  0  0  0  0  0  0  0  0  0  0  0
    3.0000   -5.1962    0.0000 N   0  0  0  0  0  0  0  0  0  0  0  0
    3.7500   -6.4952    0.0000 C   0  0  0  0  0  0  0  0  0  0  0  0
    1.5000   -5.1962    0.0000 C   0  0  0  0  0  0  0  0  0  0  0  0
    3.0000   -2.5981    0.0000 C   0  0  0  0  0  0  0  0  0  0  0  0
    1.5000   -2.5981    0.0000 N   0  0  0  0  0  0  0  0  0  0  0  0
    0.7500   -1.2990    0.0000 C   0  0  0  0  0  0  0  0  0  0  0  0
    1.5000    0.0000    0.0000 N   0  0  0  0  0  0  0  0  0  0  0  0
    0.7500    1.2990    0.0000 C   0  0  0  0  0  0  0  0  0  0  0  0
   -0.7500    1.2990    0.0000 N   0  0  0  0  0  0  0  0  0  0  0  0
   -1.5000    0.0000    0.0000 C   0  0  0  0  0  0  0  0  0  0  0  0
   -3.0000    0.0000    0.0000 C   0  0  0  0  0  0  0  0  0  0  0  0
   -3.7500   -1.2990    0.0000 C   0  0  0  0  0  0  0  0  0  0  0  0
   -5.2500   -1.2990    0.0000 O   0  0  0  0  0  0  0  0  0  0  0  0
   -6.0000    0.0000    0.0000 C   0  0  0  0  0  0  0  0  0  0  0  0
   -3.0000   -2.5981    0.0000 C   0  0  0  0  0  0  0  0  0  0  0  0
   -3.7500   -3.8971    0.0000 O   0  0  0  0  0  0  0  0  0  0  0  0
   -5.2500   -3.8971    0.0000 C   0  0  0  0  0  0  0  0  0  0  0  0
   -1.5000   -2.5981    0.0000 C   0  0  0  0  0  0  0  0  0  0  0  0
   -0.7500   -1.2990    0.0000 C   0  0  0  0  0  0  0  0  0  0  0  0
    3.7500   -1.2990    0.0000 C   0  0  0  0  0  0  0  0  0  0  0  0
  1  2  1  0
  2  3  1  0
  3  4  2  0
  3  5  2  0
  3  6  1  0
  6  7  2  0
  7  8  1  0
  8  9  2  0
  9 10  1  0
 10 11  1  0
 10 12  1  0
  9 13  1  0
 13 14  1  0
 14 15  1  0
 15 16  2  0
 16 17  1  0
 17 18  2  0
 18 19  1  0
 19 20  2  0
 20 21  1  0
 21 22  1  0
 22 23  1  0
 21 24  2  0
 24 25  1  0
 25 26  1  0
 24 27  1  0
 27 28  2  0
 13 29  2  0
 29  6  1  0
 28 15  1  0
 28 19  1  0
M  END
>  <Compound_ID>  (746) 
CHEMBL3815093

>  <Molecule Name>  (746) 
nan

>  <Molecular Weight>  (746) 
417.49

>  <AlogP>  (746) 
2.36

>  <Smiles>  (746) 
CNS(=O)(=O)c1ccc(N(C)C)c(Nc2ncnc3cc(OC)c(OC)cc23)c1

>  <Standard Type>  (746) 
Inhibition

>  <Standard Relation>  (746) 
'='

>  <Standard Units>  (746) 
%

>  <Standard Value>  (746) 
8.0

>  <Assay ChEMBL ID>  (746) 
CHEMBL3817306

>  <Assay Description>  (746) 
Inhibition of human c-MET at 1 uM using [KKKSPGEYVNIEFG] as substrate

>  <BAO Format ID>  (746) 
BAO_0000357

>  <BAO Label>  (746) 
single protein format

>  <Assay Organism>  (746) 
Homo sapiens

>  <Target ChEMBL ID>  (746) 
CHEMBL3717

>  <Target Name>  (746) 
Hepatocyte growth factor receptor

>  <Target Organism>  (746) 
Homo sapiens

>  <Target Type>  (746) 
SINGLE PROTEIN

>  <Document ChEMBL ID>  (746) 
CHEMBL3813650

>  <Source Description>  (746) 
Scientific Literature

>  <Document Journal>  (746) 
Bioorg Med Chem Lett

>  <Document Year>  (746) 
2016.0

>  <Active>  (746) 
0.0

$$$$

     RDKit          2D

 34 37  0  0  0  0  0  0  0  0999 V2000
   -3.1240   -6.3037    0.0000 C   0  0  0  0  0  0  0  0  0  0  0  0
   -3.1240   -4.8037    0.0000 O   0  0  0  0  0  0  0  0  0  0  0  0
   -4.4231   -4.0537    0.0000 C   0  0  0  0  0  0  0  0  0  0  0  0
   -5.7221   -4.8037    0.0000 C   0  0  0  0  0  0  0  0  0  0  0  0
   -7.0211   -4.0537    0.0000 C   0  0  0  0  0  0  0  0  0  0  0  0
   -7.0211   -2.5537    0.0000 C   0  0  0  0  0  0  0  0  0  0  0  0
   -8.3202   -1.8037    0.0000 C   0  0  0  0  0  0  0  0  0  0  0  0
   -9.6192   -2.5537    0.0000 O   0  0  0  0  0  0  0  0  0  0  0  0
   -8.3202   -0.3037    0.0000 N   0  0  0  0  0  0  0  0  0  0  0  0
   -9.6192    0.4463    0.0000 C   0  0  0  0  0  0  0  0  0  0  0  0
   -9.6192    1.9463    0.0000 C   0  0  0  0  0  0  0  0  0  0  0  0
  -10.9182    2.6963    0.0000 N   0  0  0  0  0  0  0  0  0  0  0  0
  -10.9182    4.1963    0.0000 C   0  0  0  0  0  0  0  0  0  0  0  0
  -12.2173    1.9463    0.0000 C   0  0  0  0  0  0  0  0  0  0  0  0
   -5.7221   -1.8037    0.0000 C   0  0  0  0  0  0  0  0  0  0  0  0
   -4.4231   -2.5537    0.0000 C   0  0  0  0  0  0  0  0  0  0  0  0
   -3.1240   -1.8037    0.0000 C   0  0  0  0  0  0  0  0  0  0  0  0
   -1.7537   -2.4138    0.0000 C   0  0  0  0  0  0  0  0  0  0  0  0
   -0.7500   -1.2990    0.0000 C   0  0  0  0  0  0  0  0  0  0  0  0
    0.7500   -1.2990    0.0000 C   0  0  0  0  0  0  0  0  0  0  0  0
    1.5000   -2.5981    0.0000 N   0  0  0  0  0  0  0  0  0  0  0  0
    3.0000   -2.5981    0.0000 C   0  0  0  0  0  0  0  0  0  0  0  0
    3.7500   -3.8971    0.0000 C   0  0  0  0  0  0  0  0  0  0  0  0
    3.7500   -1.2990    0.0000 C   0  0  0  0  0  0  0  0  0  0  0  0
    5.2500   -1.2990    0.0000 C   0  0  0  0  0  0  0  0  0  0  0  0
    6.0000   -0.0000    0.0000 C   0  0  0  0  0  0  0  0  0  0  0  0
    5.2500    1.2990    0.0000 C   0  0  0  0  0  0  0  0  0  0  0  0
    3.7500    1.2990    0.0000 C   0  0  0  0  0  0  0  0  0  0  0  0
    3.0000   -0.0000    0.0000 C   0  0  0  0  0  0  0  0  0  0  0  0
    1.5000    0.0000    0.0000 N   0  0  0  0  0  0  0  0  0  0  0  0
    0.7500    1.2990    0.0000 C   0  0  0  0  0  0  0  0  0  0  0  0
   -0.7500    1.2990    0.0000 N   0  0  0  0  0  0  0  0  0  0  0  0
   -1.5000    0.0000    0.0000 C   0  0  0  0  0  0  0  0  0  0  0  0
   -2.9672   -0.3119    0.0000 S   0  0  0  0  0  0  0  0  0  0  0  0
  1  2  1  0
  2  3  1  0
  3  4  2  0
  4  5  1  0
  5  6  2  0
  6  7  1  0
  7  8  2  0
  7  9  1  0
  9 10  1  0
 10 11  1  0
 11 12  1  0
 12 13  1  0
 12 14  1  0
  6 15  1  0
 15 16  2  0
 16 17  1  0
 17 18  2  0
 18 19  1  0
 19 20  2  0
 20 21  1  0
 21 22  1  0
 22 23  1  1
 22 24  1  0
 24 25  2  0
 25 26  1  0
 26 27  2  0
 27 28  1  0
 28 29  2  0
 20 30  1  0
 30 31  2  0
 31 32  1  0
 32 33  2  0
 33 34  1  0
 16  3  1  0
 34 17  1  0
 33 19  1  0
 29 24  1  0
M  END
>  <Compound_ID>  (747) 
CHEMBL3758582

>  <Molecule Name>  (747) 
nan

>  <Molecular Weight>  (747) 
475.62

>  <AlogP>  (747) 
4.83

>  <Smiles>  (747) 
COc1ccc(C(=O)NCCN(C)C)cc1-c1cc2c(N[C@H](C)c3ccccc3)ncnc2s1

>  <Standard Type>  (747) 
Inhibition

>  <Standard Relation>  (747) 
'='

>  <Standard Units>  (747) 
%

>  <Standard Value>  (747) 
-9.0

>  <Assay ChEMBL ID>  (747) 
CHEMBL3761591

>  <Assay Description>  (747) 
Inhibition of MET (unknown origin) at 500 nM

>  <BAO Format ID>  (747) 
BAO_0000357

>  <BAO Label>  (747) 
single protein format

>  <Assay Organism>  (747) 
Homo sapiens

>  <Target ChEMBL ID>  (747) 
CHEMBL3717

>  <Target Name>  (747) 
Hepatocyte growth factor receptor

>  <Target Organism>  (747) 
Homo sapiens

>  <Target Type>  (747) 
SINGLE PROTEIN

>  <Document ChEMBL ID>  (747) 
CHEMBL3758163

>  <Source Description>  (747) 
Scientific Literature

>  <Document Journal>  (747) 
Eur J Med Chem

>  <Document Year>  (747) 
2016.0

>  <Active>  (747) 
0.0

$$$$

     RDKit          2D

 26 29  0  0  0  0  0  0  0  0999 V2000
   -3.1240   -6.3037    0.0000 C   0  0  0  0  0  0  0  0  0  0  0  0
   -3.1240   -4.8037    0.0000 O   0  0  0  0  0  0  0  0  0  0  0  0
   -4.4231   -4.0537    0.0000 C   0  0  0  0  0  0  0  0  0  0  0  0
   -5.7221   -4.8037    0.0000 C   0  0  0  0  0  0  0  0  0  0  0  0
   -7.0211   -4.0537    0.0000 C   0  0  0  0  0  0  0  0  0  0  0  0
   -8.3202   -4.8037    0.0000 C   0  0  0  0  0  0  0  0  0  0  0  0
   -9.6192   -4.0537    0.0000 O   0  0  0  0  0  0  0  0  0  0  0  0
   -7.0211   -2.5537    0.0000 C   0  0  0  0  0  0  0  0  0  0  0  0
   -5.7221   -1.8037    0.0000 C   0  0  0  0  0  0  0  0  0  0  0  0
   -4.4231   -2.5537    0.0000 C   0  0  0  0  0  0  0  0  0  0  0  0
   -3.1240   -1.8037    0.0000 C   0  0  0  0  0  0  0  0  0  0  0  0
   -1.7537   -2.4138    0.0000 C   0  0  0  0  0  0  0  0  0  0  0  0
   -0.7500   -1.2990    0.0000 C   0  0  0  0  0  0  0  0  0  0  0  0
    0.7500   -1.2990    0.0000 C   0  0  0  0  0  0  0  0  0  0  0  0
    1.5000   -2.5981    0.0000 N   0  0  0  0  0  0  0  0  0  0  0  0
    3.0000   -2.5981    0.0000 C   0  0  0  0  0  0  0  0  0  0  0  0
    3.7500   -3.8971    0.0000 C   0  0  0  0  0  0  0  0  0  0  0  0
    5.2500   -3.8971    0.0000 C   0  0  0  0  0  0  0  0  0  0  0  0
    6.0000   -2.5981    0.0000 C   0  0  0  0  0  0  0  0  0  0  0  0
    5.2500   -1.2990    0.0000 C   0  0  0  0  0  0  0  0  0  0  0  0
    3.7500   -1.2990    0.0000 C   0  0  0  0  0  0  0  0  0  0  0  0
    1.5000    0.0000    0.0000 N   0  0  0  0  0  0  0  0  0  0  0  0
    0.7500    1.2990    0.0000 C   0  0  0  0  0  0  0  0  0  0  0  0
   -0.7500    1.2990    0.0000 N   0  0  0  0  0  0  0  0  0  0  0  0
   -1.5000    0.0000    0.0000 C   0  0  0  0  0  0  0  0  0  0  0  0
   -2.9672   -0.3119    0.0000 S   0  0  0  0  0  0  0  0  0  0  0  0
  1  2  1  0
  2  3  1  0
  3  4  2  0
  4  5  1  0
  5  6  1  0
  6  7  1  0
  5  8  2  0
  8  9  1  0
  9 10  2  0
 10 11  1  0
 11 12  2  0
 12 13  1  0
 13 14  2  0
 14 15  1  0
 15 16  1  0
 16 17  2  0
 17 18  1  0
 18 19  2  0
 19 20  1  0
 20 21  2  0
 14 22  1  0
 22 23  2  0
 23 24  1  0
 24 25  2  0
 25 26  1  0
 10  3  1  0
 26 11  1  0
 25 13  1  0
 21 16  1  0
M  END
>  <Compound_ID>  (748) 
CHEMBL3758768

>  <Molecule Name>  (748) 
nan

>  <Molecular Weight>  (748) 
363.44

>  <AlogP>  (748) 
4.60

>  <Smiles>  (748) 
COc1cc(CO)ccc1-c1cc2c(Nc3ccccc3)ncnc2s1

>  <Standard Type>  (748) 
Inhibition

>  <Standard Relation>  (748) 
'='

>  <Standard Units>  (748) 
%

>  <Standard Value>  (748) 
7.0

>  <Assay ChEMBL ID>  (748) 
CHEMBL3761591

>  <Assay Description>  (748) 
Inhibition of MET (unknown origin) at 500 nM

>  <BAO Format ID>  (748) 
BAO_0000357

>  <BAO Label>  (748) 
single protein format

>  <Assay Organism>  (748) 
Homo sapiens

>  <Target ChEMBL ID>  (748) 
CHEMBL3717

>  <Target Name>  (748) 
Hepatocyte growth factor receptor

>  <Target Organism>  (748) 
Homo sapiens

>  <Target Type>  (748) 
SINGLE PROTEIN

>  <Document ChEMBL ID>  (748) 
CHEMBL3758163

>  <Source Description>  (748) 
Scientific Literature

>  <Document Journal>  (748) 
Eur J Med Chem

>  <Document Year>  (748) 
2016.0

>  <Active>  (748) 
0.0

$$$$

     RDKit          2D

 38 42  0  0  0  0  0  0  0  0999 V2000
   10.2221   -8.9017    0.0000 C   0  0  0  0  0  0  0  0  0  0  0  0
   10.2221   -7.4017    0.0000 C   0  0  0  0  0  0  0  0  0  0  0  0
    8.9231   -6.6517    0.0000 O   0  0  0  0  0  0  0  0  0  0  0  0
    8.9231   -5.1517    0.0000 C   0  0  0  0  0  0  0  0  0  0  0  0
   10.2221   -4.4017    0.0000 O   0  0  0  0  0  0  0  0  0  0  0  0
    7.6240   -4.4017    0.0000 C   0  0  0  0  0  0  0  0  0  0  0  0
    6.2537   -5.0118    0.0000 C   0  0  0  0  0  0  0  0  0  0  0  0
    5.2500   -3.8971    0.0000 C   0  0  0  0  0  0  0  0  0  0  0  0
    3.7500   -3.8971    0.0000 C   0  0  0  0  0  0  0  0  0  0  0  0
    3.0000   -2.5981    0.0000 C   0  0  0  0  0  0  0  0  0  0  0  0
    1.5000   -2.5981    0.0000 N   0  0  0  0  0  0  0  0  0  0  0  0
    0.7500   -1.2990    0.0000 C   0  0  0  0  0  0  0  0  0  0  0  0
    1.5000    0.0000    0.0000 N   0  0  0  0  0  0  0  0  0  0  0  0
    0.7500    1.2990    0.0000 C   0  0  0  0  0  0  0  0  0  0  0  0
   -0.7500    1.2990    0.0000 N   0  0  0  0  0  0  0  0  0  0  0  0
   -1.5000    0.0000    0.0000 C   0  0  0  0  0  0  0  0  0  0  0  0
   -3.0000    0.0000    0.0000 C   0  0  0  0  0  0  0  0  0  0  0  0
   -3.7500   -1.2990    0.0000 C   0  0  0  0  0  0  0  0  0  0  0  0
   -5.2500   -1.2990    0.0000 O   0  0  0  0  0  0  0  0  0  0  0  0
   -6.0000    0.0000    0.0000 C   0  0  0  0  0  0  0  0  0  0  0  0
   -3.0000   -2.5981    0.0000 C   0  0  0  0  0  0  0  0  0  0  0  0
   -3.7500   -3.8971    0.0000 O   0  0  0  0  0  0  0  0  0  0  0  0
   -3.0000   -5.1962    0.0000 C   0  0  0  0  0  0  0  0  0  0  0  0
   -3.7500   -6.4952    0.0000 C   0  0  0  0  0  0  0  0  0  0  0  0
   -3.0000   -7.7942    0.0000 C   0  0  0  0  0  0  0  0  0  0  0  0
   -3.7500   -9.0933    0.0000 N   0  0  0  0  0  0  0  0  0  0  0  0
   -5.2500   -9.0933    0.0000 C   0  0  0  0  0  0  0  0  0  0  0  0
   -6.0000  -10.3923    0.0000 C   0  0  0  0  0  0  0  0  0  0  0  0
   -5.2500  -11.6913    0.0000 C   0  0  0  0  0  0  0  0  0  0  0  0
   -6.0000  -12.9904    0.0000 C   0  0  0  0  0  0  0  0  0  0  0  0
   -3.7500  -11.6913    0.0000 C   0  0  0  0  0  0  0  0  0  0  0  0
   -3.0000  -10.3923    0.0000 C   0  0  0  0  0  0  0  0  0  0  0  0
   -1.5000   -2.5981    0.0000 C   0  0  0  0  0  0  0  0  0  0  0  0
   -0.7500   -1.2990    0.0000 C   0  0  0  0  0  0  0  0  0  0  0  0
    3.7500   -1.2990    0.0000 C   0  0  0  0  0  0  0  0  0  0  0  0
    5.2500   -1.2990    0.0000 C   0  0  0  0  0  0  0  0  0  0  0  0
    6.0000   -2.5981    0.0000 C   0  0  0  0  0  0  0  0  0  0  0  0
    7.4672   -2.9099    0.0000 S   0  0  0  0  0  0  0  0  0  0  0  0
  1  2  1  0
  2  3  1  0
  3  4  1  0
  4  5  2  0
  4  6  1  0
  6  7  2  0
  7  8  1  0
  8  9  2  0
  9 10  1  0
 10 11  1  0
 11 12  1  0
 12 13  2  0
 13 14  1  0
 14 15  2  0
 15 16  1  0
 16 17  2  0
 17 18  1  0
 18 19  1  0
 19 20  1  0
 18 21  2  0
 21 22  1  0
 22 23  1  0
 23 24  1  0
 24 25  1  0
 25 26  1  0
 26 27  1  0
 27 28  1  0
 28 29  1  0
 29 30  1  0
 29 31  1  0
 31 32  1  0
 21 33  1  0
 33 34  2  0
 10 35  2  0
 35 36  1  0
 36 37  2  0
 37 38  1  0
 38  6  1  0
 37  8  1  0
 34 12  1  0
 34 16  1  0
 32 26  1  0
M  END
>  <Compound_ID>  (749) 
CHEMBL1163819

>  <Molecule Name>  (749) 
nan

>  <Molecular Weight>  (749) 
534.68

>  <AlogP>  (749) 
6.27

>  <Smiles>  (749) 
CCOC(=O)c1cc2cc(Nc3ncnc4cc(OC)c(OCCCN5CCC(C)CC5)cc34)ccc2s1

>  <Standard Type>  (749) 
Inhibition

>  <Standard Relation>  (749) 
'='

>  <Standard Units>  (749) 
%

>  <Standard Value>  (749) 
12.8

>  <Assay ChEMBL ID>  (749) 
CHEMBL1169263

>  <Assay Description>  (749) 
Inhibition of MET at 10 uM

>  <BAO Format ID>  (749) 
BAO_0000357

>  <BAO Label>  (749) 
single protein format

>  <Assay Organism>  (749) 
None

>  <Target ChEMBL ID>  (749) 
CHEMBL3717

>  <Target Name>  (749) 
Hepatocyte growth factor receptor

>  <Target Organism>  (749) 
Homo sapiens

>  <Target Type>  (749) 
SINGLE PROTEIN

>  <Document ChEMBL ID>  (749) 
CHEMBL1165936

>  <Source Description>  (749) 
Scientific Literature

>  <Document Journal>  (749) 
Bioorg Med Chem

>  <Document Year>  (749) 
2010.0

>  <Active>  (749) 
0.0

$$$$

     RDKit          2D

 19 22  0  0  0  0  0  0  0  0999 V2000
   -4.6036   -4.6157    0.0000 C   0  0  0  0  0  0  0  0  0  0  0  0
   -3.1036   -4.6157    0.0000 C   0  0  0  0  0  0  0  0  0  0  0  0
   -2.6401   -3.1891    0.0000 C   0  0  0  0  0  0  0  0  0  0  0  0
   -1.2135   -2.7256    0.0000 C   0  0  0  0  0  0  0  0  0  0  0  0
   -0.0000   -3.6073    0.0000 C   0  0  0  0  0  0  0  0  0  0  0  0
    1.2135   -2.7256    0.0000 N   0  0  0  0  0  0  0  0  0  0  0  0
    0.7500   -1.2990    0.0000 C   0  0  0  0  0  0  0  0  0  0  0  0
    1.5000    0.0000    0.0000 N   0  0  0  0  0  0  0  0  0  0  0  0
    0.7500    1.2990    0.0000 C   0  0  0  0  0  0  0  0  0  0  0  0
   -0.7500    1.2990    0.0000 C   0  0  0  0  0  0  0  0  0  0  0  0
   -1.5000    2.5981    0.0000 C   0  0  0  0  0  0  0  0  0  0  0  0
   -2.9918    2.7549    0.0000 C   0  0  0  0  0  0  0  0  0  0  0  0
   -3.3037    4.2221    0.0000 N   0  0  0  0  0  0  0  0  0  0  0  0
   -2.0046    4.9721    0.0000 N   0  0  0  0  0  0  0  0  0  0  0  0
   -0.8899    3.9684    0.0000 C   0  0  0  0  0  0  0  0  0  0  0  0
   -1.5000    0.0000    0.0000 C   0  0  0  0  0  0  0  0  0  0  0  0
   -0.7500   -1.2990    0.0000 N   0  0  0  0  0  0  0  0  0  0  0  0
   -3.8536   -2.3075    0.0000 N   0  0  0  0  0  0  0  0  0  0  0  0
   -5.0672   -3.1891    0.0000 N   0  0  0  0  0  0  0  0  0  0  0  0
  1  2  2  0
  2  3  1  0
  3  4  1  0
  4  5  2  0
  5  6  1  0
  6  7  2  0
  7  8  1  0
  8  9  2  0
  9 10  1  0
 10 11  1  0
 11 12  1  0
 12 13  2  0
 13 14  1  0
 14 15  1  0
 10 16  2  0
 16 17  1  0
  3 18  2  0
 18 19  1  0
 19  1  1  0
 17  4  1  0
 17  7  1  0
 15 11  2  0
M  END
>  <Compound_ID>  (750) 
CHEMBL1171534

>  <Molecule Name>  (750) 
nan

>  <Molecular Weight>  (750) 
251.25

>  <AlogP>  (750) 
1.51

>  <Smiles>  (750) 
c1cc(-c2cnc3ncc(-c4cn[nH]c4)cn23)n[nH]1

>  <Standard Type>  (750) 
Inhibition

>  <Standard Relation>  (750) 
'='

>  <Standard Units>  (750) 
%

>  <Standard Value>  (750) 
13.0

>  <Assay ChEMBL ID>  (750) 
CHEMBL1173995

>  <Assay Description>  (750) 
Inhibition of MET at 10 uM by mobility shift assay

>  <BAO Format ID>  (750) 
BAO_0000357

>  <BAO Label>  (750) 
single protein format

>  <Assay Organism>  (750) 
None

>  <Target ChEMBL ID>  (750) 
CHEMBL3717

>  <Target Name>  (750) 
Hepatocyte growth factor receptor

>  <Target Organism>  (750) 
Homo sapiens

>  <Target Type>  (750) 
SINGLE PROTEIN

>  <Document ChEMBL ID>  (750) 
CHEMBL1177828

>  <Source Description>  (750) 
Scientific Literature

>  <Document Journal>  (750) 
Bioorg Med Chem Lett

>  <Document Year>  (750) 
2010.0

>  <Active>  (750) 
0.0

$$$$

     RDKit          2D

 28 32  0  0  0  0  0  0  0  0999 V2000
    3.7500   -1.2990    0.0000 C   0  0  0  0  0  0  0  0  0  0  0  0
    3.0000    0.0000    0.0000 O   0  0  0  0  0  0  0  0  0  0  0  0
    1.5000    0.0000    0.0000 C   0  0  0  0  0  0  0  0  0  0  0  0
    0.7500   -1.2990    0.0000 C   0  0  0  0  0  0  0  0  0  0  0  0
   -0.7500   -1.2990    0.0000 C   0  0  0  0  0  0  0  0  0  0  0  0
   -1.5000   -2.5981    0.0000 N   0  0  0  0  0  0  0  0  0  0  0  0
   -3.0000   -2.5981    0.0000 C   0  0  0  0  0  0  0  0  0  0  0  0
   -3.7500   -3.8971    0.0000 N   0  0  0  0  0  0  0  0  0  0  0  0
   -5.2500   -3.8971    0.0000 C   0  0  0  0  0  0  0  0  0  0  0  0
   -6.0000   -5.1962    0.0000 C   0  0  0  0  0  0  0  0  0  0  0  0
   -5.3899   -6.5665    0.0000 C   0  0  0  0  0  0  0  0  0  0  0  0
   -6.5046   -7.5702    0.0000 C   0  0  0  0  0  0  0  0  0  0  0  0
   -7.8037   -6.8202    0.0000 C   0  0  0  0  0  0  0  0  0  0  0  0
   -7.4918   -5.3529    0.0000 S   0  0  0  0  0  0  0  0  0  0  0  0
   -6.0000   -2.5981    0.0000 C   0  0  0  0  0  0  0  0  0  0  0  0
   -7.5000   -2.5981    0.0000 C   0  0  0  0  0  0  0  0  0  0  0  0
   -8.3817   -3.8116    0.0000 C   0  0  0  0  0  0  0  0  0  0  0  0
   -9.8083   -3.3481    0.0000 C   0  0  0  0  0  0  0  0  0  0  0  0
   -9.8083   -1.8481    0.0000 C   0  0  0  0  0  0  0  0  0  0  0  0
   -8.3817   -1.3846    0.0000 S   0  0  0  0  0  0  0  0  0  0  0  0
   -5.2500   -1.2990    0.0000 N   0  0  0  0  0  0  0  0  0  0  0  0
   -3.7500   -1.2990    0.0000 C   0  0  0  0  0  0  0  0  0  0  0  0
   -3.0000    0.0000    0.0000 N   0  0  0  0  0  0  0  0  0  0  0  0
   -1.5000    0.0000    0.0000 C   0  0  0  0  0  0  0  0  0  0  0  0
   -0.7500    1.2990    0.0000 C   0  0  0  0  0  0  0  0  0  0  0  0
    0.7500    1.2990    0.0000 C   0  0  0  0  0  0  0  0  0  0  0  0
    1.5000    2.5981    0.0000 O   0  0  0  0  0  0  0  0  0  0  0  0
    0.7500    3.8971    0.0000 C   0  0  0  0  0  0  0  0  0  0  0  0
  1  2  1  0
  2  3  1  0
  3  4  2  0
  4  5  1  0
  5  6  2  0
  6  7  1  0
  7  8  2  0
  8  9  1  0
  9 10  1  0
 10 11  2  0
 11 12  1  0
 12 13  2  0
 13 14  1  0
  9 15  2  0
 15 16  1  0
 16 17  2  0
 17 18  1  0
 18 19  2  0
 19 20  1  0
 15 21  1  0
 21 22  2  0
 22 23  1  0
 23 24  2  0
 24 25  1  0
 25 26  2  0
 26 27  1  0
 27 28  1  0
 26  3  1  0
 24  5  1  0
 22  7  1  0
 14 10  1  0
 20 16  1  0
M  END
>  <Compound_ID>  (751) 
CHEMBL193172

>  <Molecule Name>  (751) 
nan

>  <Molecular Weight>  (751) 
406.49

>  <AlogP>  (751) 
5.05

>  <Smiles>  (751) 
COc1cc2nc3nc(-c4cccs4)c(-c4cccs4)nc3nc2cc1OC

>  <Standard Type>  (751) 
Inhibition

>  <Standard Relation>  (751) 
'='

>  <Standard Units>  (751) 
%

>  <Standard Value>  (751) 
12.0

>  <Assay ChEMBL ID>  (751) 
CHEMBL835467

>  <Assay Description>  (751) 
In vitro percent inhibition of Met proto-oncogene tyrosine kinase at 10 uM concentration of compound dissolved in 100% DMSO using 5''-[gamma-33P]-triphosphate

>  <BAO Format ID>  (751) 
BAO_0000357

>  <BAO Label>  (751) 
single protein format

>  <Assay Organism>  (751) 
None

>  <Target ChEMBL ID>  (751) 
CHEMBL3717

>  <Target Name>  (751) 
Hepatocyte growth factor receptor

>  <Target Organism>  (751) 
Homo sapiens

>  <Target Type>  (751) 
SINGLE PROTEIN

>  <Document ChEMBL ID>  (751) 
CHEMBL1140238

>  <Source Description>  (751) 
Scientific Literature

>  <Document Journal>  (751) 
Bioorg Med Chem Lett

>  <Document Year>  (751) 
2005.0

>  <Active>  (751) 
0.0

$$$$

     RDKit          2D

 19 19  0  0  0  0  0  0  0  0999 V2000
   12.7500   -3.8971    0.0000 O   0  0  0  0  0  0  0  0  0  0  0  0
   12.0000   -5.1962    0.0000 C   0  0  0  0  0  0  0  0  0  0  0  0
   10.5000   -5.1962    0.0000 C   0  0  0  0  0  0  0  0  0  0  0  0
    9.7500   -3.8971    0.0000 C   0  0  0  0  0  0  0  0  0  0  0  0
    8.2500   -3.8971    0.0000 C   0  0  0  0  0  0  0  0  0  0  0  0
    7.5000   -2.5981    0.0000 C   0  0  0  0  0  0  0  0  0  0  0  0
    6.0000   -2.5981    0.0000 C   0  0  0  0  0  0  0  0  0  0  0  0
    5.2500   -1.2990    0.0000 C   0  0  0  0  0  0  0  0  0  0  0  0
    3.7500   -1.2990    0.0000 C   0  0  0  0  0  0  0  0  0  0  0  0
    3.0000   -2.5981    0.0000 O   0  0  0  0  0  0  0  0  0  0  0  0
    3.0000    0.0000    0.0000 N   0  0  0  0  0  0  0  0  0  0  0  0
    1.5000    0.0000    0.0000 C   0  0  0  0  0  0  0  0  0  0  0  0
    0.7500   -1.2990    0.0000 C   0  0  0  0  0  0  0  0  0  0  0  0
   -0.7500   -1.2990    0.0000 C   0  0  0  0  0  0  0  0  0  0  0  0
   -1.5000    0.0000    0.0000 C   0  0  0  0  0  0  0  0  0  0  0  0
   -0.7500    1.2990    0.0000 C   0  0  0  0  0  0  0  0  0  0  0  0
    0.7500    1.2990    0.0000 C   0  0  0  0  0  0  0  0  0  0  0  0
   12.7500   -6.4952    0.0000 N   0  0  0  0  0  0  0  0  0  0  0  0
   14.2500   -6.4952    0.0000 O   0  0  0  0  0  0  0  0  0  0  0  0
  1  2  2  0
  2  3  1  0
  3  4  1  0
  4  5  1  0
  5  6  1  0
  6  7  1  0
  7  8  1  0
  8  9  1  0
  9 10  2  0
  9 11  1  0
 11 12  1  0
 12 13  2  0
 13 14  1  0
 14 15  2  0
 15 16  1  0
 16 17  2  0
  2 18  1  0
 18 19  1  0
 17 12  1  0
M  END
>  <Compound_ID>  (752) 
CHEMBL98

>  <Molecule Name>  (752) 
VORINOSTAT

>  <Molecular Weight>  (752) 
264.32

>  <AlogP>  (752) 
2.47

>  <Smiles>  (752) 
O=C(CCCCCCC(=O)Nc1ccccc1)NO

>  <Standard Type>  (752) 
Inhibition

>  <Standard Relation>  (752) 
'='

>  <Standard Units>  (752) 
%

>  <Standard Value>  (752) 
2.8

>  <Assay ChEMBL ID>  (752) 
CHEMBL4709189

>  <Assay Description>  (752) 
Inhibition of c-MET(unknown origin) using FAM labelled peptide substrate at 100 nM preincubated for 10 mins followed by substrate addition and measured by microplate reader method

>  <BAO Format ID>  (752) 
BAO_0000357

>  <BAO Label>  (752) 
single protein format

>  <Assay Organism>  (752) 
Homo sapiens

>  <Target ChEMBL ID>  (752) 
CHEMBL3717

>  <Target Name>  (752) 
Hepatocyte growth factor receptor

>  <Target Organism>  (752) 
Homo sapiens

>  <Target Type>  (752) 
SINGLE PROTEIN

>  <Document ChEMBL ID>  (752) 
CHEMBL4706531

>  <Source Description>  (752) 
Scientific Literature

>  <Document Journal>  (752) 
Eur J Med Chem

>  <Document Year>  (752) 
2020.0

>  <Active>  (752) 
0.0

$$$$

     RDKit          2D

 49 55  0  0  0  0  0  0  0  0999 V2000
    6.3579   -8.4259    0.0000 C   0  0  0  0  0  0  0  0  0  0  0  0
    6.2011   -6.9341    0.0000 C   0  0  0  0  0  0  0  0  0  0  0  0
    4.8308   -6.3240    0.0000 O   0  0  0  0  0  0  0  0  0  0  0  0
    4.6740   -4.8322    0.0000 C   0  0  0  0  0  0  0  0  0  0  0  0
    5.8875   -3.9505    0.0000 O   0  0  0  0  0  0  0  0  0  0  0  0
    3.3037   -4.2221    0.0000 C   0  0  0  0  0  0  0  0  0  0  0  0
    2.9918   -2.7549    0.0000 N   0  0  0  0  0  0  0  0  0  0  0  0
    1.5000   -2.5981    0.0000 N   0  0  0  0  0  0  0  0  0  0  0  0
    0.7500   -1.2990    0.0000 C   0  0  0  0  0  0  0  0  0  0  0  0
    1.5000    0.0000    0.0000 C   0  0  0  0  0  0  0  0  0  0  0  0
    0.7500    1.2990    0.0000 C   0  0  0  0  0  0  0  0  0  0  0  0
   -0.7500    1.2990    0.0000 C   0  0  0  0  0  0  0  0  0  0  0  0
   -1.5000    0.0000    0.0000 C   0  0  0  0  0  0  0  0  0  0  0  0
   -0.7500   -1.2990    0.0000 C   0  0  0  0  0  0  0  0  0  0  0  0
    0.8899   -3.9684    0.0000 C   0  0  0  0  0  0  0  0  0  0  0  0
   -0.5773   -4.2803    0.0000 C   0  0  0  0  0  0  0  0  0  0  0  0
   -1.1874   -5.6506    0.0000 S   0  0  0  0  0  0  0  0  0  0  0  0
   -2.6792   -5.4938    0.0000 C   0  0  0  0  0  0  0  0  0  0  0  0
   -3.6829   -6.6085    0.0000 N   0  0  0  0  0  0  0  0  0  0  0  0
   -3.2194   -8.0351    0.0000 C   0  0  0  0  0  0  0  0  0  0  0  0
   -4.2231   -9.1498    0.0000 N   0  0  0  0  0  0  0  0  0  0  0  0
   -3.7596  -10.5764    0.0000 C   0  0  0  0  0  0  0  0  0  0  0  0
   -4.7633  -11.6911    0.0000 C   0  0  0  0  0  0  0  0  0  0  0  0
   -6.2305  -11.3792    0.0000 C   0  0  0  0  0  0  0  0  0  0  0  0
   -7.2342  -12.4940    0.0000 C   0  0  0  0  0  0  0  0  0  0  0  0
   -6.7706  -13.9205    0.0000 C   0  0  0  0  0  0  0  0  0  0  0  0
   -5.3034  -14.2324    0.0000 C   0  0  0  0  0  0  0  0  0  0  0  0
   -4.2997  -13.1177    0.0000 C   0  0  0  0  0  0  0  0  0  0  0  0
   -2.2923  -10.8883    0.0000 C   0  0  0  0  0  0  0  0  0  0  0  0
   -1.2886   -9.7735    0.0000 C   0  0  0  0  0  0  0  0  0  0  0  0
    0.1786  -10.0854    0.0000 C   0  0  0  0  0  0  0  0  0  0  0  0
    0.6421  -11.5120    0.0000 C   0  0  0  0  0  0  0  0  0  0  0  0
    2.1093  -11.8239    0.0000 C   0  0  0  0  0  0  0  0  0  0  0  0
    3.1130  -10.7091    0.0000 C   0  0  0  0  0  0  0  0  0  0  0  0
    2.6495   -9.2826    0.0000 C   0  0  0  0  0  0  0  0  0  0  0  0
    1.1823   -8.9707    0.0000 C   0  0  0  0  0  0  0  0  0  0  0  0
   -1.7522   -8.3470    0.0000 C   0  0  0  0  0  0  0  0  0  0  0  0
   -0.7485   -7.2322    0.0000 C   0  0  0  0  0  0  0  0  0  0  0  0
    0.2552   -6.1175    0.0000 N   0  0  0  0  0  0  0  0  0  0  0  0
   -2.9911   -4.0266    0.0000 N   0  0  0  0  0  0  0  0  0  0  0  0
   -4.3614   -3.4165    0.0000 C   0  0  0  0  0  0  0  0  0  0  0  0
   -4.5182   -1.9247    0.0000 C   0  0  0  0  0  0  0  0  0  0  0  0
   -5.8885   -1.3146    0.0000 C   0  0  0  0  0  0  0  0  0  0  0  0
   -7.1020   -2.1963    0.0000 C   0  0  0  0  0  0  0  0  0  0  0  0
   -6.9452   -3.6880    0.0000 C   0  0  0  0  0  0  0  0  0  0  0  0
   -5.5749   -4.2981    0.0000 C   0  0  0  0  0  0  0  0  0  0  0  0
   -1.6920   -3.2766    0.0000 C   0  0  0  0  0  0  0  0  0  0  0  0
   -1.5353   -1.7848    0.0000 O   0  0  0  0  0  0  0  0  0  0  0  0
    2.0046   -4.9721    0.0000 S   0  0  0  0  0  0  0  0  0  0  0  0
  1  2  1  0
  2  3  1  0
  3  4  1  0
  4  5  2  0
  4  6  1  0
  6  7  2  0
  7  8  1  0
  8  9  1  0
  9 10  2  0
 10 11  1  0
 11 12  2  0
 12 13  1  0
 13 14  2  0
  8 15  1  0
 15 16  2  0
 16 17  1  0
 17 18  1  0
 18 19  2  0
 19 20  1  0
 20 21  2  0
 21 22  1  0
 22 23  1  0
 23 24  2  0
 24 25  1  0
 25 26  2  0
 26 27  1  0
 27 28  2  0
 22 29  2  0
 29 30  1  0
 30 31  1  0
 31 32  2  0
 32 33  1  0
 33 34  2  0
 34 35  1  0
 35 36  2  0
 30 37  2  0
 37 38  1  0
 38 39  3  0
 18 40  1  0
 40 41  1  0
 41 42  2  0
 42 43  1  0
 43 44  2  0
 44 45  1  0
 45 46  2  0
 40 47  1  0
 47 48  2  0
 15 49  1  0
 49  6  1  0
 14  9  1  0
 47 16  1  0
 37 20  1  0
 46 41  1  0
 28 23  1  0
 36 31  1  0
M  END
>  <Compound_ID>  (753) 
CHEMBL3408395

>  <Molecule Name>  (753) 
nan

>  <Molecular Weight>  (753) 
678.80

>  <AlogP>  (753) 
8.35

>  <Smiles>  (753) 
CCOC(=O)C1=NN(c2ccccc2)/C(=C2/S/C(=N\c3nc(-c4ccccc4)cc(-c4ccccc4)c3C#N)N(c3ccccc3)C2=O)S1

>  <Standard Type>  (753) 
Inhibition

>  <Standard Relation>  (753) 
'='

>  <Standard Units>  (753) 
%

>  <Standard Value>  (753) 
5.0

>  <Assay ChEMBL ID>  (753) 
CHEMBL3413727

>  <Assay Description>  (753) 
Inhibition of MET (unknown origin) assessed as inhibition of peptide phosphorylation at 30 uM by based microfluidic mobility shift assay

>  <BAO Format ID>  (753) 
BAO_0000357

>  <BAO Label>  (753) 
single protein format

>  <Assay Organism>  (753) 
Homo sapiens

>  <Target ChEMBL ID>  (753) 
CHEMBL3717

>  <Target Name>  (753) 
Hepatocyte growth factor receptor

>  <Target Organism>  (753) 
Homo sapiens

>  <Target Type>  (753) 
SINGLE PROTEIN

>  <Document ChEMBL ID>  (753) 
CHEMBL3407353

>  <Source Description>  (753) 
Scientific Literature

>  <Document Journal>  (753) 
Eur J Med Chem

>  <Document Year>  (753) 
2015.0

>  <Active>  (753) 
0.0

$$$$

     RDKit          2D

 26 29  0  0  0  0  0  0  0  0999 V2000
    6.7500   -6.4952    0.0000 C   0  0  0  0  0  0  0  0  0  0  0  0
    6.0000   -5.1962    0.0000 S   0  0  0  0  0  0  0  0  0  0  0  0
    4.7010   -5.9462    0.0000 O   0  0  0  0  0  0  0  0  0  0  0  0
    7.2990   -4.4462    0.0000 O   0  0  0  0  0  0  0  0  0  0  0  0
    5.2500   -3.8971    0.0000 N   0  0  0  0  0  0  0  0  0  0  0  0
    3.7500   -3.8971    0.0000 C   0  0  0  0  0  0  0  0  0  0  0  0
    3.0000   -5.1962    0.0000 C   0  0  0  0  0  0  0  0  0  0  0  0
    1.5000   -5.1962    0.0000 C   0  0  0  0  0  0  0  0  0  0  0  0
    0.7500   -3.8971    0.0000 C   0  0  0  0  0  0  0  0  0  0  0  0
    1.5000   -2.5981    0.0000 C   0  0  0  0  0  0  0  0  0  0  0  0
    0.7500   -1.2990    0.0000 C   0  0  0  0  0  0  0  0  0  0  0  0
    1.5000    0.0000    0.0000 C   0  0  0  0  0  0  0  0  0  0  0  0
    0.7500    1.2990    0.0000 C   0  0  0  0  0  0  0  0  0  0  0  0
   -0.7500    1.2990    0.0000 C   0  0  0  0  0  0  0  0  0  0  0  0
   -1.7537    2.4138    0.0000 C   0  0  0  0  0  0  0  0  0  0  0  0
   -1.4418    3.8810    0.0000 N   0  0  0  0  0  0  0  0  0  0  0  0
   -2.5565    4.8847    0.0000 C   0  0  0  0  0  0  0  0  0  0  0  0
   -3.9831    4.4211    0.0000 O   0  0  0  0  0  0  0  0  0  0  0  0
   -2.2447    6.3519    0.0000 C   0  0  0  0  0  0  0  0  0  0  0  0
   -2.7082    7.7785    0.0000 C   0  0  0  0  0  0  0  0  0  0  0  0
   -1.2410    7.4666    0.0000 C   0  0  0  0  0  0  0  0  0  0  0  0
   -3.1240    1.8037    0.0000 N   0  0  0  0  0  0  0  0  0  0  0  0
   -2.9672    0.3119    0.0000 N   0  0  0  0  0  0  0  0  0  0  0  0
   -1.5000    0.0000    0.0000 C   0  0  0  0  0  0  0  0  0  0  0  0
   -0.7500   -1.2990    0.0000 C   0  0  0  0  0  0  0  0  0  0  0  0
    3.0000   -2.5981    0.0000 C   0  0  0  0  0  0  0  0  0  0  0  0
  1  2  1  0
  2  3  2  0
  2  4  2  0
  2  5  1  0
  5  6  1  0
  6  7  2  0
  7  8  1  0
  8  9  2  0
  9 10  1  0
 10 11  1  0
 11 12  2  0
 12 13  1  0
 13 14  2  0
 14 15  1  0
 15 16  1  0
 16 17  1  0
 17 18  2  0
 17 19  1  0
 19 20  1  0
 20 21  1  0
 15 22  2  0
 22 23  1  0
 23 24  1  0
 24 25  2  0
 10 26  2  0
 26  6  1  0
 25 11  1  0
 24 14  1  0
 21 19  1  0
M  END
>  <Compound_ID>  (754) 
CHEMBL103080

>  <Molecule Name>  (754) 
nan

>  <Molecular Weight>  (754) 
370.43

>  <AlogP>  (754) 
2.95

>  <Smiles>  (754) 
CS(=O)(=O)Nc1cccc(-c2ccc3c(NC(=O)C4CC4)n[nH]c3c2)c1

>  <Standard Type>  (754) 
Inhibition

>  <Standard Relation>  (754) 
'='

>  <Standard Units>  (754) 
%

>  <Standard Value>  (754) 
1.91

>  <Assay ChEMBL ID>  (754) 
CHEMBL1962143

>  <Assay Description>  (754) 
GSK_PKIS: MET mean inhibition at 1 uM [Nanosyn]

>  <BAO Format ID>  (754) 
BAO_0000357

>  <BAO Label>  (754) 
single protein format

>  <Assay Organism>  (754) 
None

>  <Target ChEMBL ID>  (754) 
CHEMBL3717

>  <Target Name>  (754) 
Hepatocyte growth factor receptor

>  <Target Organism>  (754) 
Homo sapiens

>  <Target Type>  (754) 
SINGLE PROTEIN

>  <Document ChEMBL ID>  (754) 
CHEMBL1961873

>  <Source Description>  (754) 
GSK Published Kinase Inhibitor Set

>  <Document Journal>  (754) 
nan

>  <Document Year>  (754) 
nan

>  <Active>  (754) 
0.0

$$$$

     RDKit          2D

 42 45  0  0  0  0  0  0  0  0999 V2000
   -5.2500   -3.8971    0.0000 C   0  0  0  0  0  0  0  0  0  0  0  0
   -3.7500   -3.8971    0.0000 O   0  0  0  0  0  0  0  0  0  0  0  0
   -3.0000   -2.5981    0.0000 C   0  0  0  0  0  0  0  0  0  0  0  0
   -1.5000   -2.5981    0.0000 C   0  0  0  0  0  0  0  0  0  0  0  0
   -0.7500   -1.2990    0.0000 C   0  0  0  0  0  0  0  0  0  0  0  0
    0.7500   -1.2990    0.0000 C   0  0  0  0  0  0  0  0  0  0  0  0
    1.5000   -2.5981    0.0000 O   0  0  0  0  0  0  0  0  0  0  0  0
    3.0000   -2.5981    0.0000 C   0  0  0  0  0  0  0  0  0  0  0  0
    3.7500   -3.8971    0.0000 C   0  0  0  0  0  0  0  0  0  0  0  0
    5.2500   -3.8971    0.0000 C   0  0  0  0  0  0  0  0  0  0  0  0
    6.0000   -2.5981    0.0000 C   0  0  0  0  0  0  0  0  0  0  0  0
    7.5000   -2.5981    0.0000 N   0  0  0  0  0  0  0  0  0  0  0  0
    8.2500   -3.8971    0.0000 C   0  0  0  0  0  0  0  0  0  0  0  0
    7.5000   -5.1962    0.0000 O   0  0  0  0  0  0  0  0  0  0  0  0
    9.7500   -3.8971    0.0000 N   0  0  0  0  0  0  0  0  0  0  0  0
   10.5000   -5.1962    0.0000 C   0  0  0  0  0  0  0  0  0  0  0  0
   12.0000   -5.1962    0.0000 C   0  0  0  0  0  0  0  0  0  0  0  0
   12.7500   -6.4952    0.0000 C   0  0  0  0  0  0  0  0  0  0  0  0
   12.0000   -7.7942    0.0000 C   0  0  0  0  0  0  0  0  0  0  0  0
   12.7500   -9.0933    0.0000 C   0  0  0  0  0  0  0  0  0  0  0  0
   14.2500   -9.0933    0.0000 C   0  0  0  0  0  0  0  0  0  0  0  0
   15.0000   -7.7942    0.0000 C   0  0  0  0  0  0  0  0  0  0  0  0
   14.2500   -6.4952    0.0000 C   0  0  0  0  0  0  0  0  0  0  0  0
    5.2500   -1.2990    0.0000 C   0  0  0  0  0  0  0  0  0  0  0  0
    3.7500   -1.2990    0.0000 C   0  0  0  0  0  0  0  0  0  0  0  0
    1.5000    0.0000    0.0000 C   0  0  0  0  0  0  0  0  0  0  0  0
    0.7500    1.2990    0.0000 C   0  0  0  0  0  0  0  0  0  0  0  0
   -0.7500    1.2990    0.0000 N   0  0  0  0  0  0  0  0  0  0  0  0
   -1.5000    0.0000    0.0000 C   0  0  0  0  0  0  0  0  0  0  0  0
   -3.0000    0.0000    0.0000 C   0  0  0  0  0  0  0  0  0  0  0  0
   -3.7500   -1.2990    0.0000 C   0  0  0  0  0  0  0  0  0  0  0  0
   -5.2500   -1.2990    0.0000 O   0  0  0  0  0  0  0  0  0  0  0  0
   -6.0000    0.0000    0.0000 C   0  0  0  0  0  0  0  0  0  0  0  0
   -7.5000    0.0000    0.0000 C   0  0  0  0  0  0  0  0  0  0  0  0
   -8.2500    1.2990    0.0000 C   0  0  0  0  0  0  0  0  0  0  0  0
   -9.7500    1.2990    0.0000 C   0  0  0  0  0  0  0  0  0  0  0  0
  -10.5000    2.5981    0.0000 C   0  0  0  0  0  0  0  0  0  0  0  0
  -12.0000    2.5981    0.0000 C   0  0  0  0  0  0  0  0  0  0  0  0
  -12.7500    3.8971    0.0000 C   0  0  0  0  0  0  0  0  0  0  0  0
  -12.0000    5.1962    0.0000 O   0  0  0  0  0  0  0  0  0  0  0  0
  -14.2500    3.8971    0.0000 N   0  0  0  0  0  0  0  0  0  0  0  0
  -15.0000    5.1962    0.0000 O   0  0  0  0  0  0  0  0  0  0  0  0
  1  2  1  0
  2  3  1  0
  3  4  2  0
  4  5  1  0
  5  6  2  0
  6  7  1  0
  7  8  1  0
  8  9  2  0
  9 10  1  0
 10 11  2  0
 11 12  1  0
 12 13  1  0
 13 14  2  0
 13 15  1  0
 15 16  1  0
 16 17  1  0
 17 18  1  0
 18 19  2  0
 19 20  1  0
 20 21  2  0
 21 22  1  0
 22 23  2  0
 11 24  1  0
 24 25  2  0
  6 26  1  0
 26 27  2  0
 27 28  1  0
 28 29  2  0
 29 30  1  0
 30 31  2  0
 31 32  1  0
 32 33  1  0
 33 34  1  0
 34 35  1  0
 35 36  1  0
 36 37  1  0
 37 38  1  0
 38 39  1  0
 39 40  2  0
 39 41  1  0
 41 42  1  0
 31  3  1  0
 29  5  1  0
 25  8  1  0
 23 18  1  0
M  END
>  <Compound_ID>  (755) 
CHEMBL4780241

>  <Molecule Name>  (755) 
nan

>  <Molecular Weight>  (755) 
572.66

>  <AlogP>  (755) 
6.23

>  <Smiles>  (755) 
COc1cc2c(Oc3ccc(NC(=O)NCCc4ccccc4)cc3)ccnc2cc1OCCCCCCC(=O)NO

>  <Standard Type>  (755) 
Inhibition

>  <Standard Relation>  (755) 
'='

>  <Standard Units>  (755) 
%

>  <Standard Value>  (755) 
14.3

>  <Assay ChEMBL ID>  (755) 
CHEMBL4703683

>  <Assay Description>  (755) 
Inhibition of c-MET (unknown origin) at 100 nM relative to control

>  <BAO Format ID>  (755) 
BAO_0000357

>  <BAO Label>  (755) 
single protein format

>  <Assay Organism>  (755) 
Homo sapiens

>  <Target ChEMBL ID>  (755) 
CHEMBL3717

>  <Target Name>  (755) 
Hepatocyte growth factor receptor

>  <Target Organism>  (755) 
Homo sapiens

>  <Target Type>  (755) 
SINGLE PROTEIN

>  <Document ChEMBL ID>  (755) 
CHEMBL4699570

>  <Source Description>  (755) 
Scientific Literature

>  <Document Journal>  (755) 
Bioorg Med Chem Lett

>  <Document Year>  (755) 
2020.0

>  <Active>  (755) 
0.0

$$$$

     RDKit          2D

 42 46  0  0  0  0  0  0  0  0999 V2000
    3.7500   -1.2990    0.0000 C   0  0  0  0  0  0  0  0  0  0  0  0
    3.0000    0.0000    0.0000 O   0  0  0  0  0  0  0  0  0  0  0  0
    1.5000    0.0000    0.0000 C   0  0  0  0  0  0  0  0  0  0  0  0
    0.7500   -1.2990    0.0000 C   0  0  0  0  0  0  0  0  0  0  0  0
   -0.7500   -1.2990    0.0000 C   0  0  0  0  0  0  0  0  0  0  0  0
   -1.5000   -2.5981    0.0000 N   0  0  0  0  0  0  0  0  0  0  0  0
   -3.0000   -2.5981    0.0000 C   0  0  0  0  0  0  0  0  0  0  0  0
   -3.7500   -3.8971    0.0000 C   0  0  0  0  0  0  0  0  0  0  0  0
   -3.0000   -5.1962    0.0000 N   0  0  0  0  0  0  0  0  0  0  0  0
   -1.5000   -5.1962    0.0000 C   0  0  0  0  0  0  0  0  0  0  0  0
   -0.7500   -3.8971    0.0000 C   0  0  0  0  0  0  0  0  0  0  0  0
   -1.5000    0.0000    0.0000 C   0  0  0  0  0  0  0  0  0  0  0  0
   -0.7500    1.2990    0.0000 C   0  0  0  0  0  0  0  0  0  0  0  0
    0.7500    1.2990    0.0000 C   0  0  0  0  0  0  0  0  0  0  0  0
    1.5000    2.5981    0.0000 N   0  0  0  0  0  0  0  0  0  0  0  0
    3.0000    2.5981    0.0000 C   0  0  0  0  0  0  0  0  0  0  0  0
    3.7500    1.2990    0.0000 C   0  0  0  0  0  0  0  0  0  0  0  0
    5.2500    1.2990    0.0000 C   0  0  0  0  0  0  0  0  0  0  0  0
    6.0000   -0.0000    0.0000 N   0  0  0  0  0  0  0  0  0  0  0  0
    5.2500   -1.2990    0.0000 C   0  0  0  0  0  0  0  0  0  0  0  0
    6.0000   -2.5981    0.0000 C   0  0  0  0  0  0  0  0  0  0  0  0
    7.5000   -2.5981    0.0000 C   0  0  0  0  0  0  0  0  0  0  0  0
    8.2500   -1.2990    0.0000 C   0  0  0  0  0  0  0  0  0  0  0  0
    9.7500   -1.2990    0.0000 C   0  0  0  0  0  0  0  0  0  0  0  0
   10.5000   -0.0000    0.0000 O   0  0  0  0  0  0  0  0  0  0  0  0
   10.5000   -2.5981    0.0000 N   0  0  0  0  0  0  0  0  0  0  0  0
   12.0000   -2.5981    0.0000 C   0  0  0  0  0  0  0  0  0  0  0  0
   12.7500   -3.8971    0.0000 C   0  0  0  0  0  0  0  0  0  0  0  0
   12.0000   -5.1962    0.0000 C   0  0  0  0  0  0  0  0  0  0  0  0
   12.7500   -6.4952    0.0000 C   0  0  0  0  0  0  0  0  0  0  0  0
   14.2500   -6.4952    0.0000 C   0  0  0  0  0  0  0  0  0  0  0  0
   15.0000   -7.7942    0.0000 O   0  0  0  0  0  0  0  0  0  0  0  0
   14.2500   -9.0933    0.0000 C   0  0  0  0  0  0  0  0  0  0  0  0
   13.5000  -10.3923    0.0000 F   0  0  0  0  0  0  0  0  0  0  0  0
   15.5490   -9.8433    0.0000 F   0  0  0  0  0  0  0  0  0  0  0  0
   12.9510   -8.3433    0.0000 F   0  0  0  0  0  0  0  0  0  0  0  0
   15.0000   -5.1962    0.0000 C   0  0  0  0  0  0  0  0  0  0  0  0
   14.2500   -3.8971    0.0000 C   0  0  0  0  0  0  0  0  0  0  0  0
    7.5000   -0.0000    0.0000 C   0  0  0  0  0  0  0  0  0  0  0  0
    6.0000    2.5981    0.0000 C   0  0  0  0  0  0  0  0  0  0  0  0
    5.2500    3.8971    0.0000 C   0  0  0  0  0  0  0  0  0  0  0  0
    3.7500    3.8971    0.0000 N   0  0  0  0  0  0  0  0  0  0  0  0
  1  2  1  0
  2  3  1  0
  3  4  2  0
  4  5  1  0
  5  6  1  0
  6  7  1  0
  7  8  1  0
  8  9  1  0
  9 10  1  0
 10 11  1  0
  5 12  2  0
 12 13  1  0
 13 14  2  0
 14 15  1  0
 15 16  1  0
 16 17  2  0
 17 18  1  0
 18 19  1  0
 19 20  1  0
 20 21  1  0
 21 22  1  0
 22 23  1  0
 23 24  1  1
 24 25  2  0
 24 26  1  0
 26 27  1  0
 27 28  1  0
 28 29  2  0
 29 30  1  0
 30 31  2  0
 31 32  1  0
 32 33  1  0
 33 34  1  0
 33 35  1  0
 33 36  1  0
 31 37  1  0
 37 38  2  0
 23 39  1  0
 18 40  2  0
 40 41  1  0
 41 42  2  0
 14  3  1  0
 42 16  1  0
 11  6  1  0
 39 19  1  0
 38 28  1  0
M  END
>  <Compound_ID>  (756) 
CHEMBL4523063

>  <Molecule Name>  (756) 
nan

>  <Molecular Weight>  (756) 
584.64

>  <AlogP>  (756) 
4.67

>  <Smiles>  (756) 
COc1cc(N2CCNCC2)ccc1Nc1cc(N2CCC[C@H](C(=O)NCc3ccc(OC(F)(F)F)cc3)C2)ccn1

>  <Standard Type>  (756) 
Inhibition

>  <Standard Relation>  (756) 
'='

>  <Standard Units>  (756) 
%

>  <Standard Value>  (756) 
6.0

>  <Assay ChEMBL ID>  (756) 
CHEMBL4354262

>  <Assay Description>  (756) 
Inhibition of MET (unknown origin) at 1 uM

>  <BAO Format ID>  (756) 
BAO_0000357

>  <BAO Label>  (756) 
single protein format

>  <Assay Organism>  (756) 
Homo sapiens

>  <Target ChEMBL ID>  (756) 
CHEMBL3717

>  <Target Name>  (756) 
Hepatocyte growth factor receptor

>  <Target Organism>  (756) 
Homo sapiens

>  <Target Type>  (756) 
SINGLE PROTEIN

>  <Document ChEMBL ID>  (756) 
CHEMBL4351011

>  <Source Description>  (756) 
Scientific Literature

>  <Document Journal>  (756) 
Eur J Med Chem

>  <Document Year>  (756) 
2019.0

>  <Active>  (756) 
0.0

$$$$

     RDKit          2D

 50 55  0  0  0  0  0  0  0  0999 V2000
   -5.2500   -3.8971    0.0000 C   0  0  0  0  0  0  0  0  0  0  0  0
   -3.7500   -3.8971    0.0000 O   0  0  0  0  0  0  0  0  0  0  0  0
   -3.0000   -2.5981    0.0000 C   0  0  0  0  0  0  0  0  0  0  0  0
   -1.5000   -2.5981    0.0000 C   0  0  0  0  0  0  0  0  0  0  0  0
   -0.7500   -1.2990    0.0000 C   0  0  0  0  0  0  0  0  0  0  0  0
    0.7500   -1.2990    0.0000 C   0  0  0  0  0  0  0  0  0  0  0  0
    1.5000   -2.5981    0.0000 O   0  0  0  0  0  0  0  0  0  0  0  0
    3.0000   -2.5981    0.0000 C   0  0  0  0  0  0  0  0  0  0  0  0
    3.7500   -3.8971    0.0000 C   0  0  0  0  0  0  0  0  0  0  0  0
    5.2500   -3.8971    0.0000 C   0  0  0  0  0  0  0  0  0  0  0  0
    6.0000   -2.5981    0.0000 C   0  0  0  0  0  0  0  0  0  0  0  0
    7.5000   -2.5981    0.0000 N   0  0  0  0  0  0  0  0  0  0  0  0
    8.2500   -3.8971    0.0000 C   0  0  0  0  0  0  0  0  0  0  0  0
    7.5000   -5.1962    0.0000 O   0  0  0  0  0  0  0  0  0  0  0  0
    9.7500   -3.8971    0.0000 N   0  0  0  0  0  0  0  0  0  0  0  0
   10.5000   -5.1962    0.0000 N   0  0  0  0  0  0  0  0  0  0  0  0
    9.8899   -6.5665    0.0000 C   0  0  0  0  0  0  0  0  0  0  0  0
    8.4227   -6.8783    0.0000 O   0  0  0  0  0  0  0  0  0  0  0  0
   11.0046   -7.5702    0.0000 C   0  0  0  0  0  0  0  0  0  0  0  0
   12.3037   -6.8202    0.0000 S   0  0  0  0  0  0  0  0  0  0  0  0
   11.9918   -5.3529    0.0000 C   0  0  0  0  0  0  0  0  0  0  0  0
   12.9955   -4.2382    0.0000 C   0  0  0  0  0  0  0  0  0  0  0  0
   12.5320   -2.8116    0.0000 C   0  0  0  0  0  0  0  0  0  0  0  0
   13.5356   -1.6969    0.0000 C   0  0  0  0  0  0  0  0  0  0  0  0
   15.0029   -2.0088    0.0000 C   0  0  0  0  0  0  0  0  0  0  0  0
   16.0066   -0.8941    0.0000 F   0  0  0  0  0  0  0  0  0  0  0  0
   15.4664   -3.4354    0.0000 C   0  0  0  0  0  0  0  0  0  0  0  0
   14.4627   -4.5501    0.0000 C   0  0  0  0  0  0  0  0  0  0  0  0
   14.9262   -5.9767    0.0000 F   0  0  0  0  0  0  0  0  0  0  0  0
    5.2500   -1.2990    0.0000 C   0  0  0  0  0  0  0  0  0  0  0  0
    3.7500   -1.2990    0.0000 C   0  0  0  0  0  0  0  0  0  0  0  0
    1.5000    0.0000    0.0000 C   0  0  0  0  0  0  0  0  0  0  0  0
    0.7500    1.2990    0.0000 C   0  0  0  0  0  0  0  0  0  0  0  0
   -0.7500    1.2990    0.0000 N   0  0  0  0  0  0  0  0  0  0  0  0
   -1.5000    0.0000    0.0000 C   0  0  0  0  0  0  0  0  0  0  0  0
   -3.0000    0.0000    0.0000 C   0  0  0  0  0  0  0  0  0  0  0  0
   -3.7500   -1.2990    0.0000 C   0  0  0  0  0  0  0  0  0  0  0  0
   -5.2500   -1.2990    0.0000 O   0  0  0  0  0  0  0  0  0  0  0  0
   -6.0000    0.0000    0.0000 C   0  0  0  0  0  0  0  0  0  0  0  0
   -5.2500    1.2990    0.0000 C   0  0  0  0  0  0  0  0  0  0  0  0
   -6.0000    2.5981    0.0000 C   0  0  0  0  0  0  0  0  0  0  0  0
   -7.5000    2.5981    0.0000 N   0  0  0  0  0  0  0  0  0  0  0  0
   -8.2500    3.8971    0.0000 C   0  0  0  0  0  0  0  0  0  0  0  0
   -9.7500    3.8971    0.0000 O   0  0  0  0  0  0  0  0  0  0  0  0
   -7.5000    5.1962    0.0000 N   0  0  0  0  0  0  0  0  0  0  0  0
   -8.2500    6.4952    0.0000 C   0  0  0  0  0  0  0  0  0  0  0  0
   -7.5000    7.7942    0.0000 C   0  0  0  0  0  0  0  0  0  0  0  0
   -9.7500    6.4952    0.0000 C   0  0  0  0  0  0  0  0  0  0  0  0
   -8.2500    1.2990    0.0000 C   0  0  0  0  0  0  0  0  0  0  0  0
   -7.5000    0.0000    0.0000 C   0  0  0  0  0  0  0  0  0  0  0  0
  1  2  1  0
  2  3  1  0
  3  4  2  0
  4  5  1  0
  5  6  2  0
  6  7  1  0
  7  8  1  0
  8  9  2  0
  9 10  1  0
 10 11  2  0
 11 12  1  0
 12 13  1  0
 13 14  2  0
 13 15  1  0
 15 16  1  0
 16 17  1  0
 17 18  2  0
 17 19  1  0
 19 20  1  0
 20 21  1  0
 21 22  1  0
 22 23  2  0
 23 24  1  0
 24 25  2  0
 25 26  1  0
 25 27  1  0
 27 28  2  0
 28 29  1  0
 11 30  1  0
 30 31  2  0
  6 32  1  0
 32 33  2  0
 33 34  1  0
 34 35  2  0
 35 36  1  0
 36 37  2  0
 37 38  1  0
 38 39  1  0
 39 40  1  0
 40 41  1  0
 41 42  1  0
 42 43  1  0
 43 44  2  0
 43 45  1  0
 45 46  1  0
 46 47  1  0
 46 48  1  0
 42 49  1  0
 49 50  1  0
 37  3  1  0
 50 39  1  0
 35  5  1  0
 31  8  1  0
 21 16  1  0
 28 22  1  0
M  END
>  <Compound_ID>  (757) 
CHEMBL4794160

>  <Molecule Name>  (757) 
nan

>  <Molecular Weight>  (757) 
706.77

>  <AlogP>  (757) 
6.59

>  <Smiles>  (757) 
COc1cc2c(Oc3ccc(NC(=O)NN4C(=O)CSC4c4ccc(F)cc4F)cc3)ccnc2cc1OC1CCN(C(=O)NC(C)C)CC1

>  <Standard Type>  (757) 
Inhibition

>  <Standard Relation>  (757) 
'='

>  <Standard Units>  (757) 
%

>  <Standard Value>  (757) 
19.8

>  <Assay ChEMBL ID>  (757) 
CHEMBL4709088

>  <Assay Description>  (757) 
Inhibition of c-Met (unknown origin) at 1 uM using FAM-labelled peptide and ATP incubated for 10 mins by mobility shift assay relative to control

>  <BAO Format ID>  (757) 
BAO_0000357

>  <BAO Label>  (757) 
single protein format

>  <Assay Organism>  (757) 
Homo sapiens

>  <Target ChEMBL ID>  (757) 
CHEMBL3717

>  <Target Name>  (757) 
Hepatocyte growth factor receptor

>  <Target Organism>  (757) 
Homo sapiens

>  <Target Type>  (757) 
SINGLE PROTEIN

>  <Document ChEMBL ID>  (757) 
CHEMBL4706527

>  <Source Description>  (757) 
Scientific Literature

>  <Document Journal>  (757) 
Eur J Med Chem

>  <Document Year>  (757) 
2020.0

>  <Active>  (757) 
0.0

$$$$

     RDKit          2D

 18 19  0  0  0  0  0  0  0  0999 V2000
    7.5000   -2.5981    0.0000 N   0  0  0  0  0  0  0  0  0  0  0  0
    6.0000   -2.5981    0.0000 C   0  0  0  0  0  0  0  0  0  0  0  0
    5.2500   -1.2990    0.0000 C   0  0  0  0  0  0  0  0  0  0  0  0
    3.7500   -1.2990    0.0000 N   0  0  0  0  0  0  0  0  0  0  0  0
    3.0000    0.0000    0.0000 C   0  0  0  0  0  0  0  0  0  0  0  0
    3.7500    1.2990    0.0000 O   0  0  0  0  0  0  0  0  0  0  0  0
    1.5000    0.0000    0.0000 C   0  0  0  0  0  0  0  0  0  0  0  0
    0.7500   -1.2990    0.0000 C   0  0  0  0  0  0  0  0  0  0  0  0
   -0.7500   -1.2990    0.0000 C   0  0  0  0  0  0  0  0  0  0  0  0
   -1.5000   -2.5981    0.0000 C   0  0  0  0  0  0  0  0  0  0  0  0
   -0.8899   -3.9684    0.0000 C   0  0  0  0  0  0  0  0  0  0  0  0
   -2.0046   -4.9721    0.0000 C   0  0  0  0  0  0  0  0  0  0  0  0
   -3.3037   -4.2221    0.0000 S   0  0  0  0  0  0  0  0  0  0  0  0
   -2.9918   -2.7549    0.0000 C   0  0  0  0  0  0  0  0  0  0  0  0
   -1.5000    0.0000    0.0000 C   0  0  0  0  0  0  0  0  0  0  0  0
   -0.7500    1.2990    0.0000 N   0  0  0  0  0  0  0  0  0  0  0  0
    0.7500    1.2990    0.0000 C   0  0  0  0  0  0  0  0  0  0  0  0
    1.5000    2.5981    0.0000 N   0  0  0  0  0  0  0  0  0  0  0  0
  1  2  1  0
  2  3  1  0
  3  4  1  0
  4  5  1  0
  5  6  2  0
  5  7  1  0
  7  8  2  0
  8  9  1  0
  9 10  1  0
 10 11  1  0
 11 12  2  0
 12 13  1  0
 13 14  1  0
  9 15  2  0
 15 16  1  0
 16 17  2  0
 17 18  1  0
 17  7  1  0
 14 10  2  0
M  END
>  <Compound_ID>  (758) 
CHEMBL610226

>  <Molecule Name>  (758) 
nan

>  <Molecular Weight>  (758) 
262.34

>  <AlogP>  (758) 
1.08

>  <Smiles>  (758) 
NCCNC(=O)c1cc(-c2ccsc2)cnc1N

>  <Standard Type>  (758) 
Inhibition

>  <Standard Relation>  (758) 
'='

>  <Standard Units>  (758) 
%

>  <Standard Value>  (758) 
-10.0

>  <Assay ChEMBL ID>  (758) 
CHEMBL1069043

>  <Assay Description>  (758) 
Inhibition of MET at 1 uM by microfluidic substrate phosphorylation assay

>  <BAO Format ID>  (758) 
BAO_0000357

>  <BAO Label>  (758) 
single protein format

>  <Assay Organism>  (758) 
None

>  <Target ChEMBL ID>  (758) 
CHEMBL3717

>  <Target Name>  (758) 
Hepatocyte growth factor receptor

>  <Target Organism>  (758) 
Homo sapiens

>  <Target Type>  (758) 
SINGLE PROTEIN

>  <Document ChEMBL ID>  (758) 
CHEMBL1158506

>  <Source Description>  (758) 
Scientific Literature

>  <Document Journal>  (758) 
Bioorg Med Chem

>  <Document Year>  (758) 
2010.0

>  <Active>  (758) 
0.0

$$$$

     RDKit          2D

 31 34  0  0  0  0  0  0  0  0999 V2000
   -8.1673  -10.4486    0.0000 O   0  0  0  0  0  0  0  0  0  0  0  0
   -7.8555   -8.9814    0.0000 C   0  0  0  0  0  0  0  0  0  0  0  0
   -6.4289   -8.5179    0.0000 C   0  0  0  0  0  0  0  0  0  0  0  0
   -6.1170   -7.0506    0.0000 C   0  0  0  0  0  0  0  0  0  0  0  0
   -4.6904   -6.5871    0.0000 N   0  0  0  0  0  0  0  0  0  0  0  0
   -4.3786   -5.1199    0.0000 C   0  0  0  0  0  0  0  0  0  0  0  0
   -5.4933   -4.1162    0.0000 N   0  0  0  0  0  0  0  0  0  0  0  0
   -5.1814   -2.6490    0.0000 C   0  0  0  0  0  0  0  0  0  0  0  0
   -3.7548   -2.1855    0.0000 C   0  0  0  0  0  0  0  0  0  0  0  0
   -2.6401   -3.1891    0.0000 C   0  0  0  0  0  0  0  0  0  0  0  0
   -1.2135   -2.7256    0.0000 C   0  0  0  0  0  0  0  0  0  0  0  0
   -0.0000   -3.6073    0.0000 C   0  0  0  0  0  0  0  0  0  0  0  0
   -0.0000   -5.1073    0.0000 C   0  0  0  0  0  0  0  0  0  0  0  0
   -1.2990   -5.8573    0.0000 C   0  0  0  0  0  0  0  0  0  0  0  0
   -1.2990   -7.3573    0.0000 C   0  0  0  0  0  0  0  0  0  0  0  0
   -0.0000   -8.1073    0.0000 C   0  0  0  0  0  0  0  0  0  0  0  0
    0.0000   -9.6073    0.0000 F   0  0  0  0  0  0  0  0  0  0  0  0
    1.2990   -7.3573    0.0000 C   0  0  0  0  0  0  0  0  0  0  0  0
    1.2990   -5.8573    0.0000 C   0  0  0  0  0  0  0  0  0  0  0  0
    1.2135   -2.7256    0.0000 N   0  0  0  0  0  0  0  0  0  0  0  0
    0.7500   -1.2990    0.0000 N   0  0  0  0  0  0  0  0  0  0  0  0
    1.5000    0.0000    0.0000 C   0  0  0  0  0  0  0  0  0  0  0  0
    0.7500    1.2990    0.0000 C   0  0  0  0  0  0  0  0  0  0  0  0
    1.5000    2.5981    0.0000 C   0  0  0  0  0  0  0  0  0  0  0  0
    2.2500    3.8971    0.0000 F   0  0  0  0  0  0  0  0  0  0  0  0
    2.7990    1.8481    0.0000 F   0  0  0  0  0  0  0  0  0  0  0  0
    0.2010    3.3481    0.0000 F   0  0  0  0  0  0  0  0  0  0  0  0
   -0.7500    1.2990    0.0000 C   0  0  0  0  0  0  0  0  0  0  0  0
   -1.5000    0.0000    0.0000 C   0  0  0  0  0  0  0  0  0  0  0  0
   -0.7500   -1.2990    0.0000 C   0  0  0  0  0  0  0  0  0  0  0  0
   -2.9520   -4.6564    0.0000 N   0  0  0  0  0  0  0  0  0  0  0  0
  1  2  1  0
  2  3  1  0
  3  4  1  0
  4  5  1  0
  5  6  1  0
  6  7  2  0
  7  8  1  0
  8  9  2  0
  9 10  1  0
 10 11  1  0
 11 12  1  0
 12 13  1  0
 13 14  2  0
 14 15  1  0
 15 16  2  0
 16 17  1  0
 16 18  1  0
 18 19  2  0
 12 20  2  0
 20 21  1  0
 21 22  1  0
 22 23  2  0
 23 24  1  0
 24 25  1  0
 24 26  1  0
 24 27  1  0
 23 28  1  0
 28 29  2  0
 29 30  1  0
 10 31  2  0
 31  6  1  0
 30 11  2  0
 19 13  1  0
 30 21  1  0
M  END
>  <Compound_ID>  (759) 
CHEMBL1909403

>  <Molecule Name>  (759) 
GW569293E

>  <Molecular Weight>  (759) 
547.47

>  <AlogP>  (759) 
4.41

>  <Smiles>  (759) 
OCCCNc1nccc(-c2c(-c3ccc(F)cc3)nn3cc(C(F)(F)F)ccc23)n1

>  <Standard Type>  (759) 
Inhibition

>  <Standard Relation>  (759) 
'='

>  <Standard Units>  (759) 
%

>  <Standard Value>  (759) 
5.11

>  <Assay ChEMBL ID>  (759) 
CHEMBL1962143

>  <Assay Description>  (759) 
GSK_PKIS: MET mean inhibition at 1 uM [Nanosyn]

>  <BAO Format ID>  (759) 
BAO_0000357

>  <BAO Label>  (759) 
single protein format

>  <Assay Organism>  (759) 
None

>  <Target ChEMBL ID>  (759) 
CHEMBL3717

>  <Target Name>  (759) 
Hepatocyte growth factor receptor

>  <Target Organism>  (759) 
Homo sapiens

>  <Target Type>  (759) 
SINGLE PROTEIN

>  <Document ChEMBL ID>  (759) 
CHEMBL1961873

>  <Source Description>  (759) 
GSK Published Kinase Inhibitor Set

>  <Document Journal>  (759) 
nan

>  <Document Year>  (759) 
nan

>  <Active>  (759) 
0.0

$$$$

     RDKit          2D

 50 55  0  0  0  0  0  0  0  0999 V2000
   -5.2500   -3.8971    0.0000 C   0  0  0  0  0  0  0  0  0  0  0  0
   -3.7500   -3.8971    0.0000 O   0  0  0  0  0  0  0  0  0  0  0  0
   -3.0000   -2.5981    0.0000 C   0  0  0  0  0  0  0  0  0  0  0  0
   -1.5000   -2.5981    0.0000 C   0  0  0  0  0  0  0  0  0  0  0  0
   -0.7500   -1.2990    0.0000 C   0  0  0  0  0  0  0  0  0  0  0  0
    0.7500   -1.2990    0.0000 C   0  0  0  0  0  0  0  0  0  0  0  0
    1.5000   -2.5981    0.0000 O   0  0  0  0  0  0  0  0  0  0  0  0
    3.0000   -2.5981    0.0000 C   0  0  0  0  0  0  0  0  0  0  0  0
    3.7500   -3.8971    0.0000 C   0  0  0  0  0  0  0  0  0  0  0  0
    5.2500   -3.8971    0.0000 C   0  0  0  0  0  0  0  0  0  0  0  0
    6.0000   -2.5981    0.0000 C   0  0  0  0  0  0  0  0  0  0  0  0
    7.5000   -2.5981    0.0000 N   0  0  0  0  0  0  0  0  0  0  0  0
    8.2500   -3.8971    0.0000 C   0  0  0  0  0  0  0  0  0  0  0  0
    7.5000   -5.1962    0.0000 O   0  0  0  0  0  0  0  0  0  0  0  0
    9.7500   -3.8971    0.0000 N   0  0  0  0  0  0  0  0  0  0  0  0
   10.5000   -5.1962    0.0000 N   0  0  0  0  0  0  0  0  0  0  0  0
    9.8899   -6.5665    0.0000 C   0  0  0  0  0  0  0  0  0  0  0  0
    8.4227   -6.8783    0.0000 O   0  0  0  0  0  0  0  0  0  0  0  0
   11.0046   -7.5702    0.0000 C   0  0  0  0  0  0  0  0  0  0  0  0
   12.3037   -6.8202    0.0000 S   0  0  0  0  0  0  0  0  0  0  0  0
   11.9918   -5.3529    0.0000 C   0  0  0  0  0  0  0  0  0  0  0  0
   12.9955   -4.2382    0.0000 C   0  0  0  0  0  0  0  0  0  0  0  0
   12.5320   -2.8116    0.0000 C   0  0  0  0  0  0  0  0  0  0  0  0
   13.5356   -1.6969    0.0000 C   0  0  0  0  0  0  0  0  0  0  0  0
   15.0029   -2.0088    0.0000 C   0  0  0  0  0  0  0  0  0  0  0  0
   15.4664   -3.4354    0.0000 C   0  0  0  0  0  0  0  0  0  0  0  0
   16.9336   -3.7472    0.0000 F   0  0  0  0  0  0  0  0  0  0  0  0
   14.4627   -4.5501    0.0000 C   0  0  0  0  0  0  0  0  0  0  0  0
   14.9262   -5.9767    0.0000 F   0  0  0  0  0  0  0  0  0  0  0  0
    5.2500   -1.2990    0.0000 C   0  0  0  0  0  0  0  0  0  0  0  0
    3.7500   -1.2990    0.0000 C   0  0  0  0  0  0  0  0  0  0  0  0
    1.5000    0.0000    0.0000 C   0  0  0  0  0  0  0  0  0  0  0  0
    0.7500    1.2990    0.0000 C   0  0  0  0  0  0  0  0  0  0  0  0
   -0.7500    1.2990    0.0000 N   0  0  0  0  0  0  0  0  0  0  0  0
   -1.5000    0.0000    0.0000 C   0  0  0  0  0  0  0  0  0  0  0  0
   -3.0000    0.0000    0.0000 C   0  0  0  0  0  0  0  0  0  0  0  0
   -3.7500   -1.2990    0.0000 C   0  0  0  0  0  0  0  0  0  0  0  0
   -5.2500   -1.2990    0.0000 O   0  0  0  0  0  0  0  0  0  0  0  0
   -6.0000    0.0000    0.0000 C   0  0  0  0  0  0  0  0  0  0  0  0
   -5.2500    1.2990    0.0000 C   0  0  0  0  0  0  0  0  0  0  0  0
   -6.0000    2.5981    0.0000 C   0  0  0  0  0  0  0  0  0  0  0  0
   -7.5000    2.5981    0.0000 N   0  0  0  0  0  0  0  0  0  0  0  0
   -8.2500    3.8971    0.0000 C   0  0  0  0  0  0  0  0  0  0  0  0
   -9.7500    3.8971    0.0000 O   0  0  0  0  0  0  0  0  0  0  0  0
   -7.5000    5.1962    0.0000 N   0  0  0  0  0  0  0  0  0  0  0  0
   -8.2500    6.4952    0.0000 C   0  0  0  0  0  0  0  0  0  0  0  0
   -7.5000    7.7942    0.0000 C   0  0  0  0  0  0  0  0  0  0  0  0
   -9.7500    6.4952    0.0000 C   0  0  0  0  0  0  0  0  0  0  0  0
   -8.2500    1.2990    0.0000 C   0  0  0  0  0  0  0  0  0  0  0  0
   -7.5000    0.0000    0.0000 C   0  0  0  0  0  0  0  0  0  0  0  0
  1  2  1  0
  2  3  1  0
  3  4  2  0
  4  5  1  0
  5  6  2  0
  6  7  1  0
  7  8  1  0
  8  9  2  0
  9 10  1  0
 10 11  2  0
 11 12  1  0
 12 13  1  0
 13 14  2  0
 13 15  1  0
 15 16  1  0
 16 17  1  0
 17 18  2  0
 17 19  1  0
 19 20  1  0
 20 21  1  0
 21 22  1  0
 22 23  2  0
 23 24  1  0
 24 25  2  0
 25 26  1  0
 26 27  1  0
 26 28  2  0
 28 29  1  0
 11 30  1  0
 30 31  2  0
  6 32  1  0
 32 33  2  0
 33 34  1  0
 34 35  2  0
 35 36  1  0
 36 37  2  0
 37 38  1  0
 38 39  1  0
 39 40  1  0
 40 41  1  0
 41 42  1  0
 42 43  1  0
 43 44  2  0
 43 45  1  0
 45 46  1  0
 46 47  1  0
 46 48  1  0
 42 49  1  0
 49 50  1  0
 37  3  1  0
 50 39  1  0
 35  5  1  0
 31  8  1  0
 21 16  1  0
 28 22  1  0
M  END
>  <Compound_ID>  (760) 
CHEMBL4800611

>  <Molecule Name>  (760) 
nan

>  <Molecular Weight>  (760) 
706.77

>  <AlogP>  (760) 
6.59

>  <Smiles>  (760) 
COc1cc2c(Oc3ccc(NC(=O)NN4C(=O)CSC4c4cccc(F)c4F)cc3)ccnc2cc1OC1CCN(C(=O)NC(C)C)CC1

>  <Standard Type>  (760) 
Inhibition

>  <Standard Relation>  (760) 
'='

>  <Standard Units>  (760) 
%

>  <Standard Value>  (760) 
19.5

>  <Assay ChEMBL ID>  (760) 
CHEMBL4709088

>  <Assay Description>  (760) 
Inhibition of c-Met (unknown origin) at 1 uM using FAM-labelled peptide and ATP incubated for 10 mins by mobility shift assay relative to control

>  <BAO Format ID>  (760) 
BAO_0000357

>  <BAO Label>  (760) 
single protein format

>  <Assay Organism>  (760) 
Homo sapiens

>  <Target ChEMBL ID>  (760) 
CHEMBL3717

>  <Target Name>  (760) 
Hepatocyte growth factor receptor

>  <Target Organism>  (760) 
Homo sapiens

>  <Target Type>  (760) 
SINGLE PROTEIN

>  <Document ChEMBL ID>  (760) 
CHEMBL4706527

>  <Source Description>  (760) 
Scientific Literature

>  <Document Journal>  (760) 
Eur J Med Chem

>  <Document Year>  (760) 
2020.0

>  <Active>  (760) 
0.0

$$$$

     RDKit          2D

 22 23  0  0  0  0  0  0  0  0999 V2000
    3.7500   -1.2990    0.0000 C   0  0  0  0  0  0  0  0  0  0  0  0
    3.0000    0.0000    0.0000 O   0  0  0  0  0  0  0  0  0  0  0  0
    1.5000    0.0000    0.0000 C   0  0  0  0  0  0  0  0  0  0  0  0
    0.7500   -1.2990    0.0000 C   0  0  0  0  0  0  0  0  0  0  0  0
   -0.7500   -1.2990    0.0000 C   0  0  0  0  0  0  0  0  0  0  0  0
   -1.5000   -2.5981    0.0000 C   0  0  0  0  0  0  0  0  0  0  0  0
   -3.0000   -2.5981    0.0000 C   0  0  0  0  0  0  0  0  0  0  0  0
   -3.7500   -1.2990    0.0000 O   0  0  0  0  0  0  0  0  0  0  0  0
   -3.7500   -3.8971    0.0000 O   0  0  0  0  0  0  0  0  0  0  0  0
   -5.2500   -3.8971    0.0000 C   0  0  0  0  0  0  0  0  0  0  0  0
   -6.0000   -5.1962    0.0000 C   0  0  0  0  0  0  0  0  0  0  0  0
   -7.5000   -5.1962    0.0000 C   0  0  0  0  0  0  0  0  0  0  0  0
   -8.2500   -3.8971    0.0000 C   0  0  0  0  0  0  0  0  0  0  0  0
   -9.7500   -3.8971    0.0000 C   0  0  0  0  0  0  0  0  0  0  0  0
  -10.5000   -5.1962    0.0000 C   0  0  0  0  0  0  0  0  0  0  0  0
  -12.0000   -5.1962    0.0000 O   0  0  0  0  0  0  0  0  0  0  0  0
   -9.7500   -6.4952    0.0000 C   0  0  0  0  0  0  0  0  0  0  0  0
   -8.2500   -6.4952    0.0000 C   0  0  0  0  0  0  0  0  0  0  0  0
   -1.5000    0.0000    0.0000 C   0  0  0  0  0  0  0  0  0  0  0  0
   -0.7500    1.2990    0.0000 C   0  0  0  0  0  0  0  0  0  0  0  0
    0.7500    1.2990    0.0000 C   0  0  0  0  0  0  0  0  0  0  0  0
    1.5000    2.5981    0.0000 O   0  0  0  0  0  0  0  0  0  0  0  0
  1  2  1  0
  2  3  1  0
  3  4  2  0
  4  5  1  0
  5  6  1  0
  6  7  1  0
  7  8  2  0
  7  9  1  0
  9 10  1  0
 10 11  1  0
 11 12  1  0
 12 13  2  0
 13 14  1  0
 14 15  2  0
 15 16  1  0
 15 17  1  0
 17 18  2  0
  5 19  2  0
 19 20  1  0
 20 21  2  0
 21 22  1  0
 21  3  1  0
 18 12  1  0
M  END
>  <Compound_ID>  (761) 
CHEMBL2348317

>  <Molecule Name>  (761) 
TYROSOL HOMOVANILLATE

>  <Molecular Weight>  (761) 
302.33

>  <AlogP>  (761) 
2.43

>  <Smiles>  (761) 
COc1cc(CC(=O)OCCc2ccc(O)cc2)ccc1O

>  <Standard Type>  (761) 
Inhibition

>  <Standard Relation>  (761) 
'='

>  <Standard Units>  (761) 
%

>  <Standard Value>  (761) 
13.1

>  <Assay ChEMBL ID>  (761) 
CHEMBL2350425

>  <Assay Description>  (761) 
Inhibition of c-MET phosphorylation (unknown origin) at 25 uM after 1 hr by Z'-LYTE kinase assay

>  <BAO Format ID>  (761) 
BAO_0000357

>  <BAO Label>  (761) 
single protein format

>  <Assay Organism>  (761) 
Homo sapiens

>  <Target ChEMBL ID>  (761) 
CHEMBL3717

>  <Target Name>  (761) 
Hepatocyte growth factor receptor

>  <Target Organism>  (761) 
Homo sapiens

>  <Target Type>  (761) 
SINGLE PROTEIN

>  <Document ChEMBL ID>  (761) 
CHEMBL2346504

>  <Source Description>  (761) 
Scientific Literature

>  <Document Journal>  (761) 
Bioorg Med Chem

>  <Document Year>  (761) 
2013.0

>  <Active>  (761) 
0.0

$$$$

     RDKit          2D

 26 27  0  0  0  0  0  0  0  0999 V2000
    3.7500   -1.2990    0.0000 C   0  0  0  0  0  0  0  0  0  0  0  0
    3.0000    0.0000    0.0000 O   0  0  0  0  0  0  0  0  0  0  0  0
    1.5000    0.0000    0.0000 C   0  0  0  0  0  0  0  0  0  0  0  0
    0.7500   -1.2990    0.0000 C   0  0  0  0  0  0  0  0  0  0  0  0
   -0.7500   -1.2990    0.0000 C   0  0  0  0  0  0  0  0  0  0  0  0
   -1.5000   -2.5981    0.0000 C   0  0  0  0  0  0  0  0  0  0  0  0
   -3.0000   -2.5981    0.0000 C   0  0  0  0  0  0  0  0  0  0  0  0
   -3.7500   -3.8971    0.0000 C   0  0  0  0  0  0  0  0  0  0  0  0
   -3.0000   -5.1962    0.0000 O   0  0  0  0  0  0  0  0  0  0  0  0
   -5.2500   -3.8971    0.0000 O   0  0  0  0  0  0  0  0  0  0  0  0
   -6.0000   -5.1962    0.0000 C   0  0  0  0  0  0  0  0  0  0  0  0
   -7.5000   -5.1962    0.0000 C   0  0  0  0  0  0  0  0  0  0  0  0
   -8.2500   -6.4952    0.0000 C   0  0  0  0  0  0  0  0  0  0  0  0
   -9.7500   -6.4952    0.0000 C   0  0  0  0  0  0  0  0  0  0  0  0
  -10.5000   -7.7942    0.0000 C   0  0  0  0  0  0  0  0  0  0  0  0
   -9.7500   -9.0933    0.0000 C   0  0  0  0  0  0  0  0  0  0  0  0
  -10.5000  -10.3923    0.0000 O   0  0  0  0  0  0  0  0  0  0  0  0
   -8.2500   -9.0933    0.0000 C   0  0  0  0  0  0  0  0  0  0  0  0
   -7.5000   -7.7942    0.0000 C   0  0  0  0  0  0  0  0  0  0  0  0
   -1.5000    0.0000    0.0000 C   0  0  0  0  0  0  0  0  0  0  0  0
   -0.7500    1.2990    0.0000 C   0  0  0  0  0  0  0  0  0  0  0  0
   -1.5000    2.5981    0.0000 O   0  0  0  0  0  0  0  0  0  0  0  0
   -0.7500    3.8971    0.0000 C   0  0  0  0  0  0  0  0  0  0  0  0
    0.7500    1.2990    0.0000 C   0  0  0  0  0  0  0  0  0  0  0  0
    1.5000    2.5981    0.0000 O   0  0  0  0  0  0  0  0  0  0  0  0
    3.0000    2.5981    0.0000 C   0  0  0  0  0  0  0  0  0  0  0  0
  1  2  1  0
  2  3  1  0
  3  4  2  0
  4  5  1  0
  5  6  1  0
  6  7  2  0
  7  8  1  0
  8  9  2  0
  8 10  1  0
 10 11  1  0
 11 12  1  0
 12 13  1  0
 13 14  2  0
 14 15  1  0
 15 16  2  0
 16 17  1  0
 16 18  1  0
 18 19  2  0
  5 20  2  0
 20 21  1  0
 21 22  1  0
 22 23  1  0
 21 24  2  0
 24 25  1  0
 25 26  1  0
 24  3  1  0
 19 13  1  0
M  END
>  <Compound_ID>  (762) 
CHEMBL2348316

>  <Molecule Name>  (762) 
nan

>  <Molecular Weight>  (762) 
358.39

>  <AlogP>  (762) 
3.22

>  <Smiles>  (762) 
COc1cc(/C=C/C(=O)OCCc2ccc(O)cc2)cc(OC)c1OC

>  <Standard Type>  (762) 
Inhibition

>  <Standard Relation>  (762) 
'='

>  <Standard Units>  (762) 
%

>  <Standard Value>  (762) 
0.0

>  <Assay ChEMBL ID>  (762) 
CHEMBL2350425

>  <Assay Description>  (762) 
Inhibition of c-MET phosphorylation (unknown origin) at 25 uM after 1 hr by Z'-LYTE kinase assay

>  <BAO Format ID>  (762) 
BAO_0000357

>  <BAO Label>  (762) 
single protein format

>  <Assay Organism>  (762) 
Homo sapiens

>  <Target ChEMBL ID>  (762) 
CHEMBL3717

>  <Target Name>  (762) 
Hepatocyte growth factor receptor

>  <Target Organism>  (762) 
Homo sapiens

>  <Target Type>  (762) 
SINGLE PROTEIN

>  <Document ChEMBL ID>  (762) 
CHEMBL2346504

>  <Source Description>  (762) 
Scientific Literature

>  <Document Journal>  (762) 
Bioorg Med Chem

>  <Document Year>  (762) 
2013.0

>  <Active>  (762) 
0.0

$$$$

     RDKit          2D

 53 56  0  0  0  0  0  0  0  0999 V2000
   -9.0933  -10.3573    0.0000 C   0  0  0  0  0  0  0  0  0  0  0  0
   -7.7942   -9.6073    0.0000 C   0  0  0  0  0  0  0  0  0  0  0  0
   -7.7942   -8.1073    0.0000 O   0  0  0  0  0  0  0  0  0  0  0  0
   -6.4952  -10.3573    0.0000 O   0  0  0  0  0  0  0  0  0  0  0  0
   -5.1962   -9.6073    0.0000 C   0  0  0  0  0  0  0  0  0  0  0  0
   -3.8971  -10.3573    0.0000 C   0  0  0  0  0  0  0  0  0  0  0  0
   -2.5981   -9.6073    0.0000 O   0  0  0  0  0  0  0  0  0  0  0  0
   -1.2990  -10.3573    0.0000 C   0  0  0  0  0  0  0  0  0  0  0  0
   -0.0000   -9.6073    0.0000 O   0  0  0  0  0  0  0  0  0  0  0  0
   -0.0000   -8.1073    0.0000 C   0  0  0  0  0  0  0  0  0  0  0  0
    1.2990   -7.3573    0.0000 C   0  0  0  0  0  0  0  0  0  0  0  0
    2.5981   -8.1073    0.0000 O   0  0  0  0  0  0  0  0  0  0  0  0
    3.8971   -7.3573    0.0000 C   0  0  0  0  0  0  0  0  0  0  0  0
    5.1962   -8.1073    0.0000 C   0  0  0  0  0  0  0  0  0  0  0  0
    3.8971   -5.8573    0.0000 O   0  0  0  0  0  0  0  0  0  0  0  0
    1.2990   -5.8573    0.0000 C   0  0  0  0  0  0  0  0  0  0  0  0
    2.5981   -5.1073    0.0000 O   0  0  0  0  0  0  0  0  0  0  0  0
    2.5981   -3.6073    0.0000 C   0  0  0  0  0  0  0  0  0  0  0  0
    3.8971   -2.8573    0.0000 C   0  0  0  0  0  0  0  0  0  0  0  0
    2.0247   -3.0535    0.0000 O   0  0  0  0  0  0  0  0  0  0  0  0
   -0.0000   -5.1073    0.0000 C   0  0  0  0  0  0  0  0  0  0  0  0
   -0.0000   -3.6073    0.0000 N   0  0  0  0  0  0  0  0  0  0  0  0
    1.2135   -2.7256    0.0000 Se  0  0  0  0  0  2  0  0  0  0  0  0
    0.7500   -1.2990    0.0000 C   0  0  0  0  0  0  0  0  0  0  0  0
    1.5000    0.0000    0.0000 C   0  0  0  0  0  0  0  0  0  0  0  0
    0.7500    1.2990    0.0000 C   0  0  0  0  0  0  0  0  0  0  0  0
   -0.7500    1.2990    0.0000 C   0  0  0  0  0  0  0  0  0  0  0  0
   -1.5000    0.0000    0.0000 C   0  0  0  0  0  0  0  0  0  0  0  0
   -0.7500   -1.2990    0.0000 C   0  0  0  0  0  0  0  0  0  0  0  0
   -1.2135   -2.7256    0.0000 C   0  0  0  0  0  0  0  0  0  0  0  0
   -2.6401   -3.1891    0.0000 O   0  0  0  0  0  0  0  0  0  0  0  0
   -1.2990   -5.8573    0.0000 O   0  0  0  0  0  0  0  0  0  0  0  0
   -1.2990   -7.3573    0.0000 C   0  0  0  0  0  0  0  0  0  0  0  0
   -2.5981   -8.1073    0.0000 C   0  0  0  0  0  0  0  0  0  0  0  0
   -3.8971   -7.3573    0.0000 O   0  0  0  0  0  0  0  0  0  0  0  0
   -5.1962   -8.1073    0.0000 C   0  0  0  0  0  0  0  0  0  0  0  0
   -6.4952   -7.3573    0.0000 C   0  0  0  0  0  0  0  0  0  0  0  0
   -5.5591   -9.5627    0.0000 O   0  0  0  0  0  0  0  0  0  0  0  0
   -1.2990  -11.8573    0.0000 C   0  0  0  0  0  0  0  0  0  0  0  0
   -0.0000  -12.6073    0.0000 O   0  0  0  0  0  0  0  0  0  0  0  0
   -0.0000  -14.1073    0.0000 C   0  0  0  0  0  0  0  0  0  0  0  0
    1.2990  -14.8573    0.0000 C   0  0  0  0  0  0  0  0  0  0  0  0
   -1.2990  -14.8573    0.0000 O   0  0  0  0  0  0  0  0  0  0  0  0
   -2.5981  -12.6073    0.0000 C   0  0  0  0  0  0  0  0  0  0  0  0
   -2.5981  -14.1073    0.0000 O   0  0  0  0  0  0  0  0  0  0  0  0
   -3.8971  -14.8573    0.0000 C   0  0  0  0  0  0  0  0  0  0  0  0
   -3.8971  -16.3573    0.0000 C   0  0  0  0  0  0  0  0  0  0  0  0
   -5.1962  -14.1073    0.0000 O   0  0  0  0  0  0  0  0  0  0  0  0
   -3.8971  -11.8573    0.0000 C   0  0  0  0  0  0  0  0  0  0  0  0
   -5.1962  -12.6073    0.0000 O   0  0  0  0  0  0  0  0  0  0  0  0
   -6.4952  -11.8573    0.0000 C   0  0  0  0  0  0  0  0  0  0  0  0
   -7.7942  -12.6073    0.0000 C   0  0  0  0  0  0  0  0  0  0  0  0
   -6.8582  -10.4019    0.0000 O   0  0  0  0  0  0  0  0  0  0  0  0
  1  2  1  0
  2  3  2  0
  2  4  1  0
  4  5  1  0
  6  5  1  1
  6  7  1  0
  7  8  1  0
  8  9  1  1
 10  9  1  6
 10 11  1  0
 11 12  1  1
 12 13  1  0
 13 14  1  0
 13 15  2  0
 11 16  1  0
 16 17  1  6
 17 18  1  0
 18 19  1  0
 18 20  2  0
 16 21  1  0
 21 22  1  1
 22 23  1  0
 23 24  1  0
 24 25  2  0
 25 26  1  0
 26 27  2  0
 27 28  1  0
 28 29  2  0
 29 30  1  0
 30 31  2  0
 21 32  1  0
 32 33  1  0
 33 34  1  1
 34 35  1  0
 35 36  1  0
 36 37  1  0
 36 38  2  0
  8 39  1  0
 39 40  1  6
 40 41  1  0
 41 42  1  0
 41 43  2  0
 39 44  1  0
 44 45  1  1
 45 46  1  0
 46 47  1  0
 46 48  2  0
 44 49  1  0
 49 50  1  1
 50 51  1  0
 51 52  1  0
 51 53  2  0
 49  6  1  0
 33 10  1  0
 30 22  1  0
 29 24  1  0
M  END
>  <Compound_ID>  (763) 
CHEMBL1940993

>  <Molecule Name>  (763) 
nan

>  <Molecular Weight>  (763) 
816.62

>  <AlogP>  (763) 
None

>  <Smiles>  (763) 
CC(=O)OC[C@H]1O[C@@H](O[C@H]2[C@H](OC(C)=O)[C@@H](OC(C)=O)[C@H](n3[se]c4ccccc4c3=O)O[C@@H]2COC(C)=O)[C@H](OC(C)=O)[C@@H](OC(C)=O)[C@H]1OC(C)=O

>  <Standard Type>  (763) 
Inhibition

>  <Standard Relation>  (763) 
'='

>  <Standard Units>  (763) 
%

>  <Standard Value>  (763) 
0.0

>  <Assay ChEMBL ID>  (763) 
CHEMBL1943931

>  <Assay Description>  (763) 
Inhibition of MET at 1 uM

>  <BAO Format ID>  (763) 
BAO_0000357

>  <BAO Label>  (763) 
single protein format

>  <Assay Organism>  (763) 
None

>  <Target ChEMBL ID>  (763) 
CHEMBL3717

>  <Target Name>  (763) 
Hepatocyte growth factor receptor

>  <Target Organism>  (763) 
Homo sapiens

>  <Target Type>  (763) 
SINGLE PROTEIN

>  <Document ChEMBL ID>  (763) 
CHEMBL1938284

>  <Source Description>  (763) 
Scientific Literature

>  <Document Journal>  (763) 
Eur J Med Chem

>  <Document Year>  (763) 
2012.0

>  <Active>  (763) 
0.0

$$$$

     RDKit          2D

 53 59  0  0  0  0  0  0  0  0999 V2000
   -5.2500   -3.8971    0.0000 C   0  0  0  0  0  0  0  0  0  0  0  0
   -3.7500   -3.8971    0.0000 O   0  0  0  0  0  0  0  0  0  0  0  0
   -3.0000   -2.5981    0.0000 C   0  0  0  0  0  0  0  0  0  0  0  0
   -1.5000   -2.5981    0.0000 C   0  0  0  0  0  0  0  0  0  0  0  0
   -0.7500   -1.2990    0.0000 C   0  0  0  0  0  0  0  0  0  0  0  0
    0.7500   -1.2990    0.0000 C   0  0  0  0  0  0  0  0  0  0  0  0
    1.5000   -2.5981    0.0000 O   0  0  0  0  0  0  0  0  0  0  0  0
    3.0000   -2.5981    0.0000 C   0  0  0  0  0  0  0  0  0  0  0  0
    3.7500   -3.8971    0.0000 C   0  0  0  0  0  0  0  0  0  0  0  0
    5.2500   -3.8971    0.0000 C   0  0  0  0  0  0  0  0  0  0  0  0
    6.0000   -2.5981    0.0000 C   0  0  0  0  0  0  0  0  0  0  0  0
    7.5000   -2.5981    0.0000 N   0  0  0  0  0  0  0  0  0  0  0  0
    8.2500   -3.8971    0.0000 C   0  0  0  0  0  0  0  0  0  0  0  0
    7.5000   -5.1962    0.0000 O   0  0  0  0  0  0  0  0  0  0  0  0
    9.7500   -3.8971    0.0000 N   0  0  0  0  0  0  0  0  0  0  0  0
   10.5000   -5.1962    0.0000 N   0  0  0  0  0  0  0  0  0  0  0  0
    9.8899   -6.5665    0.0000 C   0  0  0  0  0  0  0  0  0  0  0  0
    8.4227   -6.8783    0.0000 O   0  0  0  0  0  0  0  0  0  0  0  0
   11.0046   -7.5702    0.0000 C   0  0  0  0  0  0  0  0  0  0  0  0
   12.3037   -6.8202    0.0000 S   0  0  0  0  0  0  0  0  0  0  0  0
   11.9918   -5.3529    0.0000 C   0  0  0  0  0  0  0  0  0  0  0  0
   12.9955   -4.2382    0.0000 C   0  0  0  0  0  0  0  0  0  0  0  0
   12.5320   -2.8116    0.0000 C   0  0  0  0  0  0  0  0  0  0  0  0
   13.5356   -1.6969    0.0000 C   0  0  0  0  0  0  0  0  0  0  0  0
   15.0029   -2.0088    0.0000 C   0  0  0  0  0  0  0  0  0  0  0  0
   16.0066   -0.8941    0.0000 F   0  0  0  0  0  0  0  0  0  0  0  0
   15.4664   -3.4354    0.0000 C   0  0  0  0  0  0  0  0  0  0  0  0
   14.4627   -4.5501    0.0000 C   0  0  0  0  0  0  0  0  0  0  0  0
    5.2500   -1.2990    0.0000 C   0  0  0  0  0  0  0  0  0  0  0  0
    3.7500   -1.2990    0.0000 C   0  0  0  0  0  0  0  0  0  0  0  0
    1.5000    0.0000    0.0000 C   0  0  0  0  0  0  0  0  0  0  0  0
    0.7500    1.2990    0.0000 C   0  0  0  0  0  0  0  0  0  0  0  0
   -0.7500    1.2990    0.0000 N   0  0  0  0  0  0  0  0  0  0  0  0
   -1.5000    0.0000    0.0000 C   0  0  0  0  0  0  0  0  0  0  0  0
   -3.0000    0.0000    0.0000 C   0  0  0  0  0  0  0  0  0  0  0  0
   -3.7500   -1.2990    0.0000 C   0  0  0  0  0  0  0  0  0  0  0  0
   -5.2500   -1.2990    0.0000 O   0  0  0  0  0  0  0  0  0  0  0  0
   -6.0000    0.0000    0.0000 C   0  0  0  0  0  0  0  0  0  0  0  0
   -5.2500    1.2990    0.0000 C   0  0  0  0  0  0  0  0  0  0  0  0
   -6.0000    2.5981    0.0000 C   0  0  0  0  0  0  0  0  0  0  0  0
   -7.5000    2.5981    0.0000 N   0  0  0  0  0  0  0  0  0  0  0  0
   -8.2500    3.8971    0.0000 C   0  0  0  0  0  0  0  0  0  0  0  0
   -9.7500    3.8971    0.0000 O   0  0  0  0  0  0  0  0  0  0  0  0
   -7.5000    5.1962    0.0000 N   0  0  0  0  0  0  0  0  0  0  0  0
   -8.2500    6.4952    0.0000 C   0  0  0  0  0  0  0  0  0  0  0  0
   -7.5000    7.7942    0.0000 C   0  0  0  0  0  0  0  0  0  0  0  0
   -6.0000    7.7942    0.0000 C   0  0  0  0  0  0  0  0  0  0  0  0
   -5.2500    9.0933    0.0000 C   0  0  0  0  0  0  0  0  0  0  0  0
   -6.0000   10.3923    0.0000 C   0  0  0  0  0  0  0  0  0  0  0  0
   -7.5000   10.3923    0.0000 C   0  0  0  0  0  0  0  0  0  0  0  0
   -8.2500    9.0933    0.0000 C   0  0  0  0  0  0  0  0  0  0  0  0
   -8.2500    1.2990    0.0000 C   0  0  0  0  0  0  0  0  0  0  0  0
   -7.5000    0.0000    0.0000 C   0  0  0  0  0  0  0  0  0  0  0  0
  1  2  1  0
  2  3  1  0
  3  4  2  0
  4  5  1  0
  5  6  2  0
  6  7  1  0
  7  8  1  0
  8  9  2  0
  9 10  1  0
 10 11  2  0
 11 12  1  0
 12 13  1  0
 13 14  2  0
 13 15  1  0
 15 16  1  0
 16 17  1  0
 17 18  2  0
 17 19  1  0
 19 20  1  0
 20 21  1  0
 21 22  1  0
 22 23  2  0
 23 24  1  0
 24 25  2  0
 25 26  1  0
 25 27  1  0
 27 28  2  0
 11 29  1  0
 29 30  2  0
  6 31  1  0
 31 32  2  0
 32 33  1  0
 33 34  2  0
 34 35  1  0
 35 36  2  0
 36 37  1  0
 37 38  1  0
 38 39  1  0
 39 40  1  0
 40 41  1  0
 41 42  1  0
 42 43  2  0
 42 44  1  0
 44 45  1  0
 45 46  1  0
 46 47  2  0
 47 48  1  0
 48 49  2  0
 49 50  1  0
 50 51  2  0
 41 52  1  0
 52 53  1  0
 36  3  1  0
 53 38  1  0
 34  5  1  0
 51 46  1  0
 30  8  1  0
 21 16  1  0
 28 22  1  0
M  END
>  <Compound_ID>  (764) 
CHEMBL4757364

>  <Molecule Name>  (764) 
nan

>  <Molecular Weight>  (764) 
736.83

>  <AlogP>  (764) 
7.24

>  <Smiles>  (764) 
COc1cc2c(Oc3ccc(NC(=O)NN4C(=O)CSC4c4ccc(F)cc4)cc3)ccnc2cc1OC1CCN(C(=O)NCc2ccccc2)CC1

>  <Standard Type>  (764) 
Inhibition

>  <Standard Relation>  (764) 
'='

>  <Standard Units>  (764) 
%

>  <Standard Value>  (764) 
3.5

>  <Assay ChEMBL ID>  (764) 
CHEMBL4709088

>  <Assay Description>  (764) 
Inhibition of c-Met (unknown origin) at 1 uM using FAM-labelled peptide and ATP incubated for 10 mins by mobility shift assay relative to control

>  <BAO Format ID>  (764) 
BAO_0000357

>  <BAO Label>  (764) 
single protein format

>  <Assay Organism>  (764) 
Homo sapiens

>  <Target ChEMBL ID>  (764) 
CHEMBL3717

>  <Target Name>  (764) 
Hepatocyte growth factor receptor

>  <Target Organism>  (764) 
Homo sapiens

>  <Target Type>  (764) 
SINGLE PROTEIN

>  <Document ChEMBL ID>  (764) 
CHEMBL4706527

>  <Source Description>  (764) 
Scientific Literature

>  <Document Journal>  (764) 
Eur J Med Chem

>  <Document Year>  (764) 
2020.0

>  <Active>  (764) 
0.0

$$$$

     RDKit          2D

 55 62  0  0  0  0  0  0  0  0999 V2000
   -3.0000   -2.5981    0.0000 N   0  0  0  0  0  0  0  0  0  0  0  0
   -1.5000   -2.5981    0.0000 C   0  0  0  0  0  0  0  0  0  0  0  0
   -0.7500   -3.8971    0.0000 C   0  0  0  0  0  0  0  0  0  0  0  0
   -1.5000   -5.1962    0.0000 C   0  0  0  0  0  0  0  0  0  0  0  0
   -2.9918   -5.3529    0.0000 N   0  0  0  0  0  0  0  0  0  0  0  0
   -3.3037   -6.8202    0.0000 C   0  0  0  0  0  0  0  0  0  0  0  0
   -4.6027   -7.5702    0.0000 C   0  0  0  0  0  0  0  0  0  0  0  0
   -4.6027   -9.0702    0.0000 C   0  0  0  0  0  0  0  0  0  0  0  0
   -5.9017   -9.8202    0.0000 N   0  0  0  0  0  0  0  0  0  0  0  0
   -7.2008   -9.0702    0.0000 C   0  0  0  0  0  0  0  0  0  0  0  0
   -8.4998   -9.8202    0.0000 C   0  0  0  0  0  0  0  0  0  0  0  0
   -8.4998  -11.3202    0.0000 N   0  0  0  0  0  0  0  0  0  0  0  0
   -9.7988  -12.0702    0.0000 C   0  0  0  0  0  0  0  0  0  0  0  0
   -9.7988  -13.5702    0.0000 O   0  0  0  0  0  0  0  0  0  0  0  0
  -11.0979  -11.3202    0.0000 C   0  0  0  0  0  0  0  0  0  0  0  0
  -12.3969  -12.0702    0.0000 C   0  0  0  0  0  0  0  0  0  0  0  0
  -13.6960  -11.3202    0.0000 C   0  0  0  0  0  0  0  0  0  0  0  0
  -14.9950  -12.0702    0.0000 C   0  0  0  0  0  0  0  0  0  0  0  0
  -16.2940  -11.3202    0.0000 C   0  0  0  0  0  0  0  0  0  0  0  0
  -17.5931  -12.0702    0.0000 N   0  0  0  0  0  0  0  0  0  0  0  0
  -18.8921  -11.3202    0.0000 C   0  0  0  0  0  0  0  0  0  0  0  0
  -18.8921   -9.8202    0.0000 C   0  0  0  0  0  0  0  0  0  0  0  0
  -20.1911   -9.0702    0.0000 C   0  0  0  0  0  0  0  0  0  0  0  0
  -21.4902   -9.8202    0.0000 C   0  0  0  0  0  0  0  0  0  0  0  0
  -21.4902  -11.3202    0.0000 C   0  0  0  0  0  0  0  0  0  0  0  0
  -20.1911  -12.0702    0.0000 C   0  0  0  0  0  0  0  0  0  0  0  0
  -20.5030  -13.5374    0.0000 C   0  0  0  0  0  0  0  0  0  0  0  0
  -19.4993  -14.6521    0.0000 O   0  0  0  0  0  0  0  0  0  0  0  0
  -21.9948  -13.6942    0.0000 N   0  0  0  0  0  0  0  0  0  0  0  0
  -22.7448  -14.9932    0.0000 C   0  0  0  0  0  0  0  0  0  0  0  0
  -24.2448  -14.9932    0.0000 C   0  0  0  0  0  0  0  0  0  0  0  0
  -24.9948  -16.2923    0.0000 C   0  0  0  0  0  0  0  0  0  0  0  0
  -24.2448  -17.5913    0.0000 C   0  0  0  0  0  0  0  0  0  0  0  0
  -24.9948  -18.8903    0.0000 O   0  0  0  0  0  0  0  0  0  0  0  0
  -22.7448  -17.5913    0.0000 N   0  0  0  0  0  0  0  0  0  0  0  0
  -21.9948  -16.2923    0.0000 C   0  0  0  0  0  0  0  0  0  0  0  0
  -20.4948  -16.2923    0.0000 O   0  0  0  0  0  0  0  0  0  0  0  0
  -22.6049  -12.3239    0.0000 C   0  0  0  0  0  0  0  0  0  0  0  0
  -24.0721  -12.0120    0.0000 O   0  0  0  0  0  0  0  0  0  0  0  0
   -7.2008  -12.0702    0.0000 C   0  0  0  0  0  0  0  0  0  0  0  0
   -5.9017  -11.3202    0.0000 C   0  0  0  0  0  0  0  0  0  0  0  0
   -3.3037   -9.8202    0.0000 C   0  0  0  0  0  0  0  0  0  0  0  0
   -2.0046   -9.0702    0.0000 C   0  0  0  0  0  0  0  0  0  0  0  0
   -2.0046   -7.5702    0.0000 C   0  0  0  0  0  0  0  0  0  0  0  0
   -0.8899   -6.5665    0.0000 N   0  0  0  0  0  0  0  0  0  0  0  0
    0.7500   -3.8971    0.0000 C   0  0  0  0  0  0  0  0  0  0  0  0
    1.5000   -5.1962    0.0000 O   0  0  0  0  0  0  0  0  0  0  0  0
    1.5000   -2.5981    0.0000 N   0  0  0  0  0  0  0  0  0  0  0  0
    0.7500   -1.2990    0.0000 C   0  0  0  0  0  0  0  0  0  0  0  0
    1.5000    0.0000    0.0000 C   0  0  0  0  0  0  0  0  0  0  0  0
    0.7500    1.2990    0.0000 C   0  0  0  0  0  0  0  0  0  0  0  0
   -0.7500    1.2990    0.0000 C   0  0  0  0  0  0  0  0  0  0  0  0
   -1.5000    0.0000    0.0000 C   0  0  0  0  0  0  0  0  0  0  0  0
   -3.0000    0.0000    0.0000 F   0  0  0  0  0  0  0  0  0  0  0  0
   -0.7500   -1.2990    0.0000 C   0  0  0  0  0  0  0  0  0  0  0  0
  1  2  1  0
  2  3  2  0
  3  4  1  0
  4  5  2  0
  5  6  1  0
  6  7  2  0
  7  8  1  0
  8  9  1  0
  9 10  1  0
 10 11  1  0
 11 12  1  0
 12 13  1  0
 13 14  2  0
 13 15  1  0
 15 16  1  0
 16 17  1  0
 17 18  1  0
 18 19  1  0
 19 20  1  0
 20 21  1  0
 21 22  2  0
 22 23  1  0
 23 24  2  0
 24 25  1  0
 25 26  2  0
 26 27  1  0
 27 28  2  0
 27 29  1  0
 29 30  1  0
 30 31  1  0
 31 32  1  0
 32 33  1  0
 33 34  2  0
 33 35  1  0
 35 36  1  0
 36 37  2  0
 29 38  1  0
 38 39  2  0
 12 40  1  0
 40 41  1  0
  8 42  2  0
 42 43  1  0
 43 44  2  0
 44 45  1  0
  3 46  1  0
 46 47  2  0
 46 48  1  0
 48 49  1  0
 49 50  2  0
 50 51  1  0
 51 52  2  0
 52 53  1  0
 53 54  1  0
 53 55  2  0
 55  2  1  0
 45  4  1  0
 55 49  1  0
 44  6  1  0
 41  9  1  0
 26 21  1  0
 36 30  1  0
 38 25  1  0
M  END
>  <Compound_ID>  (765) 
CHEMBL4860038

>  <Molecule Name>  (765) 
nan

>  <Molecular Weight>  (765) 
747.79

>  <AlogP>  (765) 
3.52

>  <Smiles>  (765) 
Nc1c(-c2nc3cc(N4CCN(C(=O)CCCCCNc5cccc6c5C(=O)N(C5CCC(=O)NC5=O)C6=O)CC4)ccc3[nH]2)c(=O)[nH]c2cccc(F)c12

>  <Standard Type>  (765) 
Inhibition

>  <Standard Relation>  (765) 
'='

>  <Standard Units>  (765) 
%

>  <Standard Value>  (765) 
15.0

>  <Assay ChEMBL ID>  (765) 
CHEMBL4841750

>  <Assay Description>  (765) 
Inhibition of C-MET (unknown origin) at 1000 nM relative to control

>  <BAO Format ID>  (765) 
BAO_0000357

>  <BAO Label>  (765) 
single protein format

>  <Assay Organism>  (765) 
Homo sapiens

>  <Target ChEMBL ID>  (765) 
CHEMBL3717

>  <Target Name>  (765) 
Hepatocyte growth factor receptor

>  <Target Organism>  (765) 
Homo sapiens

>  <Target Type>  (765) 
SINGLE PROTEIN

>  <Document ChEMBL ID>  (765) 
CHEMBL4840352

>  <Source Description>  (765) 
Scientific Literature

>  <Document Journal>  (765) 
J Med Chem

>  <Document Year>  (765) 
2021.0

>  <Active>  (765) 
0.0

$$$$

     RDKit          2D

 33 37  0  0  0  0  0  0  0  0999 V2000
    1.6849    2.1132    0.0000 H   0  0  0  0  0  0  0  0  0  0  0  0
    2.6491    0.9642    0.0000 C   0  0  0  0  0  0  0  0  0  0  0  0
    3.2321    0.4205    0.0000 H   0  0  0  0  0  0  0  0  0  0  0  0
    3.7981    1.9284    0.0000 H   0  0  0  0  0  0  0  0  0  0  0  0
    1.5000    0.0000    0.0000 C   0  0  0  0  0  0  0  0  0  0  0  0
    2.6491   -0.9642    0.0000 C   0  0  0  0  0  0  0  0  0  0  0  0
    3.2321   -0.4205    0.0000 H   0  0  0  0  0  0  0  0  0  0  0  0
    1.6849   -2.1132    0.0000 H   0  0  0  0  0  0  0  0  0  0  0  0
    3.7981   -1.9284    0.0000 H   0  0  0  0  0  0  0  0  0  0  0  0
    0.7500   -1.2990    0.0000 C   0  0  0  0  0  0  0  0  0  0  0  0
   -0.7500   -1.2990    0.0000 N   0  0  0  0  0  0  0  0  0  0  0  0
   -1.7537   -2.4138    0.0000 N   0  0  0  0  0  0  0  0  0  0  0  0
   -3.1240   -1.8037    0.0000 C   0  0  0  0  0  0  0  0  0  0  0  0
   -4.4231   -2.5537    0.0000 C   0  0  0  0  0  0  0  0  0  0  0  0
   -5.7221   -1.8037    0.0000 C   0  0  0  0  0  0  0  0  0  0  0  0
   -7.0211   -2.5537    0.0000 C   0  0  0  0  0  0  0  0  0  0  0  0
   -7.0211   -4.0537    0.0000 C   0  0  0  0  0  0  0  0  0  0  0  0
   -8.3202   -4.8037    0.0000 F   0  0  0  0  0  0  0  0  0  0  0  0
   -5.7221   -4.8037    0.0000 C   0  0  0  0  0  0  0  0  0  0  0  0
   -4.4231   -4.0537    0.0000 N   0  0  0  0  0  0  0  0  0  0  0  0
   -2.9672   -0.3119    0.0000 C   0  0  0  0  0  0  0  0  0  0  0  0
   -4.0819    0.6918    0.0000 C   0  0  0  0  0  0  0  0  0  0  0  0
   -3.7701    2.1590    0.0000 C   0  0  0  0  0  0  0  0  0  0  0  0
   -4.8848    3.1627    0.0000 C   0  0  0  0  0  0  0  0  0  0  0  0
   -6.3114    2.6992    0.0000 N   0  0  0  0  0  0  0  0  0  0  0  0
   -6.6232    1.2320    0.0000 C   0  0  0  0  0  0  0  0  0  0  0  0
   -7.9223    0.4820    0.0000 N   0  0  0  0  0  0  0  0  0  0  0  0
   -7.6104   -0.9852    0.0000 N   0  0  0  0  0  0  0  0  0  0  0  0
   -6.1186   -1.1420    0.0000 C   0  0  0  0  0  0  0  0  0  0  0  0
   -5.5085    0.2283    0.0000 C   0  0  0  0  0  0  0  0  0  0  0  0
   -1.5000    0.0000    0.0000 C   0  0  0  0  0  0  0  0  0  0  0  0
   -0.7500    1.2990    0.0000 C   0  0  0  0  0  0  0  0  0  0  0  0
    0.7500    1.2990    0.0000 O   0  0  0  0  0  0  0  0  0  0  0  0
  1  2  1  0
  2  3  1  0
  2  4  1  0
  2  5  1  0
  5  6  1  0
  6  7  1  0
  6  8  1  0
  6  9  1  0
  5 10  1  0
 10 11  1  0
 11 12  1  0
 12 13  2  0
 13 14  1  0
 14 15  2  0
 15 16  1  0
 16 17  2  0
 17 18  1  0
 17 19  1  0
 19 20  2  0
 13 21  1  0
 21 22  1  0
 22 23  2  0
 23 24  1  0
 24 25  2  0
 25 26  1  0
 26 27  1  0
 27 28  1  0
 28 29  2  0
 29 30  1  0
 21 31  2  0
 31 32  1  0
 32 33  1  0
 33  5  1  0
 31 11  1  0
 20 14  1  0
 30 22  1  0
 30 26  2  0
M  ISO  6   1   2   3   2   4   2   7   2   8   2   9   2
M  END
>  <Compound_ID>  (766) 
CHEMBL5081774

>  <Molecule Name>  (766) 
nan

>  <Molecular Weight>  (766) 
370.42

>  <AlogP>  (766) 
3.33

>  <Smiles>  (766) 
[2H]C([2H])([2H])C1(C([2H])([2H])[2H])Cn2nc(-c3ccc(F)cn3)c(-c3ccnc4[nH]ncc34)c2CO1

>  <Standard Type>  (766) 
Inhibition

>  <Standard Relation>  (766) 
'='

>  <Standard Units>  (766) 
%

>  <Standard Value>  (766) 
8.0

>  <Assay ChEMBL ID>  (766) 
CHEMBL5059203

>  <Assay Description>  (766) 
Met(h) Kinase panel

>  <BAO Format ID>  (766) 
BAO_0000357

>  <BAO Label>  (766) 
single protein format

>  <Assay Organism>  (766) 
Homo sapiens

>  <Target ChEMBL ID>  (766) 
CHEMBL3717

>  <Target Name>  (766) 
Hepatocyte growth factor receptor

>  <Target Organism>  (766) 
Homo sapiens

>  <Target Type>  (766) 
SINGLE PROTEIN

>  <Document ChEMBL ID>  (766) 
CHEMBL5058645

>  <Source Description>  (766) 
Donated Chemical Probes - SGC Frankfurt

>  <Document Journal>  (766) 
nan

>  <Document Year>  (766) 
2022.0

>  <Active>  (766) 
0.0

$$$$

     RDKit          2D

 44 48  0  0  0  0  0  0  0  0999 V2000
   -2.8273  -15.9716    0.0000 C   0  0  0  0  0  0  0  0  0  0  0  0
   -1.3601  -15.6597    0.0000 C   0  0  0  0  0  0  0  0  0  0  0  0
   -0.2454  -16.6634    0.0000 C   0  0  0  0  0  0  0  0  0  0  0  0
    1.0537  -15.9134    0.0000 N   0  0  0  0  0  0  0  0  0  0  0  0
    0.7418  -14.4462    0.0000 C   0  0  0  0  0  0  0  0  0  0  0  0
   -0.7500  -14.2894    0.0000 N   0  0  0  0  0  0  0  0  0  0  0  0
   -1.5000  -12.9904    0.0000 C   0  0  0  0  0  0  0  0  0  0  0  0
   -0.7500  -11.6913    0.0000 C   0  0  0  0  0  0  0  0  0  0  0  0
   -1.5000  -10.3923    0.0000 C   0  0  0  0  0  0  0  0  0  0  0  0
   -0.7500   -9.0933    0.0000 C   0  0  0  0  0  0  0  0  0  0  0  0
   -1.5000   -7.7942    0.0000 O   0  0  0  0  0  0  0  0  0  0  0  0
    0.7500   -9.0933    0.0000 N   0  0  0  0  0  0  0  0  0  0  0  0
    1.5000   -7.7942    0.0000 C   0  0  0  0  0  0  0  0  0  0  0  0
    3.0000   -7.7942    0.0000 C   0  0  0  0  0  0  0  0  0  0  0  0
    3.7500   -6.4952    0.0000 C   0  0  0  0  0  0  0  0  0  0  0  0
    3.0000   -5.1962    0.0000 C   0  0  0  0  0  0  0  0  0  0  0  0
    1.5000   -5.1962    0.0000 C   0  0  0  0  0  0  0  0  0  0  0  0
    0.7500   -3.8971    0.0000 C   0  0  0  0  0  0  0  0  0  0  0  0
    1.5000   -2.5981    0.0000 N   0  0  0  0  0  0  0  0  0  0  0  0
    0.7500   -1.2990    0.0000 C   0  0  0  0  0  0  0  0  0  0  0  0
    1.5000    0.0000    0.0000 C   0  0  0  0  0  0  0  0  0  0  0  0
    0.7500    1.2990    0.0000 C   0  0  0  0  0  0  0  0  0  0  0  0
   -0.7500    1.2990    0.0000 C   0  0  0  0  0  0  0  0  0  0  0  0
   -1.7537    2.4138    0.0000 C   0  0  0  0  0  0  0  0  0  0  0  0
   -1.4418    3.8810    0.0000 C   0  0  0  0  0  0  0  0  0  0  0  0
   -0.0152    4.3445    0.0000 O   0  0  0  0  0  0  0  0  0  0  0  0
   -2.5565    4.8847    0.0000 N   0  0  0  0  0  0  0  0  0  0  0  0
   -2.2447    6.3519    0.0000 C   0  0  0  0  0  0  0  0  0  0  0  0
   -3.3594    7.3556    0.0000 C   0  0  0  0  0  0  0  0  0  0  0  0
   -0.8181    6.8154    0.0000 C   0  0  0  0  0  0  0  0  0  0  0  0
   -0.5062    8.2826    0.0000 N   0  0  0  0  0  0  0  0  0  0  0  0
    0.2966    5.8117    0.0000 O   0  0  0  0  0  0  0  0  0  0  0  0
   -3.1240    1.8037    0.0000 N   0  0  0  0  0  0  0  0  0  0  0  0
   -2.9672    0.3119    0.0000 N   0  0  0  0  0  0  0  0  0  0  0  0
   -1.5000    0.0000    0.0000 C   0  0  0  0  0  0  0  0  0  0  0  0
   -0.7500   -1.2990    0.0000 C   0  0  0  0  0  0  0  0  0  0  0  0
    0.7500   -6.4952    0.0000 C   0  0  0  0  0  0  0  0  0  0  0  0
   -3.0000  -10.3923    0.0000 C   0  0  0  0  0  0  0  0  0  0  0  0
   -3.7500  -11.6913    0.0000 C   0  0  0  0  0  0  0  0  0  0  0  0
   -5.2500  -11.6913    0.0000 C   0  0  0  0  0  0  0  0  0  0  0  0
   -6.7500  -11.6913    0.0000 F   0  0  0  0  0  0  0  0  0  0  0  0
   -5.2500  -10.1913    0.0000 F   0  0  0  0  0  0  0  0  0  0  0  0
   -5.2500  -13.1913    0.0000 F   0  0  0  0  0  0  0  0  0  0  0  0
   -3.0000  -12.9904    0.0000 C   0  0  0  0  0  0  0  0  0  0  0  0
  1  2  1  0
  2  3  2  0
  3  4  1  0
  4  5  2  0
  5  6  1  0
  6  7  1  0
  7  8  2  0
  8  9  1  0
  9 10  1  0
 10 11  2  0
 10 12  1  0
 12 13  1  0
 13 14  2  0
 14 15  1  0
 15 16  2  0
 16 17  1  0
 17 18  1  0
 18 19  1  0
 19 20  1  0
 20 21  1  0
 21 22  2  0
 22 23  1  0
 23 24  2  0
 24 25  1  0
 25 26  2  0
 25 27  1  0
 27 28  1  0
 28 29  1  1
 28 30  1  0
 30 31  1  0
 30 32  2  0
 24 33  1  0
 33 34  1  0
 34 35  2  0
 35 36  1  0
 17 37  2  0
  9 38  2  0
 38 39  1  0
 39 40  1  0
 40 41  1  0
 40 42  1  0
 40 43  1  0
 39 44  2  0
  6  2  1  0
 44  7  1  0
 37 13  1  0
 36 20  2  0
 35 23  1  0
M  END
>  <Compound_ID>  (767) 
CHEMBL3764798

>  <Molecule Name>  (767) 
nan

>  <Molecular Weight>  (767) 
604.59

>  <AlogP>  (767) 
4.54

>  <Smiles>  (767) 
Cc1cncn1-c1cc(C(=O)Nc2cccc(CNc3ccc4c(C(=O)N[C@@H](C)C(N)=O)[nH]nc4c3)c2)cc(C(F)(F)F)c1

>  <Standard Type>  (767) 
Inhibition

>  <Standard Relation>  (767) 
'='

>  <Standard Units>  (767) 
%

>  <Standard Value>  (767) 
9.84

>  <Assay ChEMBL ID>  (767) 
CHEMBL3768028

>  <Assay Description>  (767) 
Inhibition of human cMET at 10 uM

>  <BAO Format ID>  (767) 
BAO_0000357

>  <BAO Label>  (767) 
single protein format

>  <Assay Organism>  (767) 
Homo sapiens

>  <Target ChEMBL ID>  (767) 
CHEMBL3717

>  <Target Name>  (767) 
Hepatocyte growth factor receptor

>  <Target Organism>  (767) 
Homo sapiens

>  <Target Type>  (767) 
SINGLE PROTEIN

>  <Document ChEMBL ID>  (767) 
CHEMBL3763132

>  <Source Description>  (767) 
Scientific Literature

>  <Document Journal>  (767) 
Bioorg Med Chem Lett

>  <Document Year>  (767) 
2016.0

>  <Active>  (767) 
0.0

$$$$

     RDKit          2D

 16 17  0  0  0  0  0  0  0  0999 V2000
    3.7500   -1.2990    0.0000 C   0  0  0  0  0  0  0  0  0  0  0  0
    3.0000    0.0000    0.0000 C   0  0  0  0  0  0  0  0  0  0  0  0
    3.7500    1.2990    0.0000 C   0  0  0  0  0  0  0  0  0  0  0  0
    1.5000    0.0000    0.0000 C   0  0  0  0  0  0  0  0  0  0  0  0
    0.7500   -1.2990    0.0000 C   0  0  0  0  0  0  0  0  0  0  0  0
   -0.7500   -1.2990    0.0000 C   0  0  0  0  0  0  0  0  0  0  0  0
   -1.5000   -2.5981    0.0000 N   0  0  0  0  0  0  0  0  0  0  0  0
   -0.8899   -3.9684    0.0000 C   0  0  0  0  0  0  0  0  0  0  0  0
   -2.0046   -4.9721    0.0000 C   0  0  0  0  0  0  0  0  0  0  0  0
   -3.3037   -4.2221    0.0000 C   0  0  0  0  0  0  0  0  0  0  0  0
   -4.6740   -4.8322    0.0000 N   0  0  0  0  0  0  0  0  0  0  0  0
   -2.9918   -2.7549    0.0000 C   0  0  0  0  0  0  0  0  0  0  0  0
   -1.5000    0.0000    0.0000 N   0  0  0  0  0  0  0  0  0  0  0  0
   -0.7500    1.2990    0.0000 C   0  0  0  0  0  0  0  0  0  0  0  0
   -1.5000    2.5981    0.0000 N   0  0  0  0  0  0  0  0  0  0  0  0
    0.7500    1.2990    0.0000 N   0  0  0  0  0  0  0  0  0  0  0  0
  1  2  1  0
  2  3  1  0
  2  4  1  0
  4  5  2  0
  5  6  1  0
  6  7  1  0
  7  8  1  0
  8  9  1  0
  9 10  1  0
 10 11  1  1
 10 12  1  0
  6 13  2  0
 13 14  1  0
 14 15  1  0
 14 16  2  0
 16  4  1  0
 12  7  1  0
M  END
>  <Compound_ID>  (768) 
CHEMBL3236549

>  <Molecule Name>  (768) 
JNJ-39758979

>  <Molecular Weight>  (768) 
221.31

>  <AlogP>  (768) 
0.72

>  <Smiles>  (768) 
CC(C)c1cc(N2CC[C@@H](N)C2)nc(N)n1

>  <Standard Type>  (768) 
Inhibition

>  <Standard Relation>  (768) 
'='

>  <Standard Units>  (768) 
%

>  <Standard Value>  (768) 
-15.0

>  <Assay ChEMBL ID>  (768) 
CHEMBL5058932

>  <Assay Description>  (768) 
Met(h) Millipore kinase panel

>  <BAO Format ID>  (768) 
BAO_0000357

>  <BAO Label>  (768) 
single protein format

>  <Assay Organism>  (768) 
Homo sapiens

>  <Target ChEMBL ID>  (768) 
CHEMBL3717

>  <Target Name>  (768) 
Hepatocyte growth factor receptor

>  <Target Organism>  (768) 
Homo sapiens

>  <Target Type>  (768) 
SINGLE PROTEIN

>  <Document ChEMBL ID>  (768) 
CHEMBL5058644

>  <Source Description>  (768) 
Donated Chemical Probes - SGC Frankfurt

>  <Document Journal>  (768) 
nan

>  <Document Year>  (768) 
2022.0

>  <Active>  (768) 
0.0

$$$$
