
     RDKit          2D

 29 32  0  0  0  0  0  0  0  0999 V2000
    0.7500   -9.0933    0.0000 C   0  0  0  0  0  0  0  0  0  0  0  0
    1.5000   -7.7942    0.0000 S   0  0  0  0  0  0  0  0  0  0  0  0
    0.7500   -6.4952    0.0000 C   0  0  0  0  0  0  0  0  0  0  0  0
   -0.7500   -6.4952    0.0000 C   0  0  0  0  0  0  0  0  0  0  0  0
   -1.5000   -5.1962    0.0000 C   0  0  0  0  0  0  0  0  0  0  0  0
   -0.7500   -3.8971    0.0000 C   0  0  0  0  0  0  0  0  0  0  0  0
    0.7500   -3.8971    0.0000 C   0  0  0  0  0  0  0  0  0  0  0  0
    1.5000   -2.5981    0.0000 N   0  0  0  0  0  0  0  0  0  0  0  0
    0.7500   -1.2990    0.0000 C   0  0  0  0  0  0  0  0  0  0  0  0
    1.5000    0.0000    0.0000 N   0  0  0  0  0  0  0  0  0  0  0  0
    0.7500    1.2990    0.0000 C   0  0  0  0  0  0  0  0  0  0  0  0
   -0.7500    1.2990    0.0000 C   0  0  0  0  0  0  0  0  0  0  0  0
   -1.5000    2.5981    0.0000 C   0  0  0  0  0  0  0  0  0  0  0  0
   -3.0000    2.5981    0.0000 C   0  0  0  0  0  0  0  0  0  0  0  0
   -3.7500    3.8971    0.0000 C   0  0  0  0  0  0  0  0  0  0  0  0
   -3.0000    5.1962    0.0000 C   0  0  0  0  0  0  0  0  0  0  0  0
   -1.5000    5.1962    0.0000 Cl  0  0  0  0  0  0  0  0  0  0  0  0
   -3.7500    6.4952    0.0000 C   0  0  0  0  0  0  0  0  0  0  0  0
   -5.2500    6.4952    0.0000 C   0  0  0  0  0  0  0  0  0  0  0  0
   -6.0000    5.1962    0.0000 C   0  0  0  0  0  0  0  0  0  0  0  0
   -5.2500    3.8971    0.0000 C   0  0  0  0  0  0  0  0  0  0  0  0
   -6.0000    2.5981    0.0000 Cl  0  0  0  0  0  0  0  0  0  0  0  0
   -3.7500    1.2990    0.0000 C   0  0  0  0  0  0  0  0  0  0  0  0
   -5.2500    1.2990    0.0000 O   0  0  0  0  0  0  0  0  0  0  0  0
   -3.0000    0.0000    0.0000 N   0  0  0  0  0  0  0  0  0  0  0  0
   -3.7500   -1.2990    0.0000 C   0  0  0  0  0  0  0  0  0  0  0  0
   -1.5000    0.0000    0.0000 C   0  0  0  0  0  0  0  0  0  0  0  0
   -0.7500   -1.2990    0.0000 N   0  0  0  0  0  0  0  0  0  0  0  0
    1.5000   -5.1962    0.0000 C   0  0  0  0  0  0  0  0  0  0  0  0
  1  2  1  0
  2  3  1  0
  3  4  2  0
  4  5  1  0
  5  6  2  0
  6  7  1  0
  7  8  1  0
  8  9  1  0
  9 10  2  0
 10 11  1  0
 11 12  2  0
 12 13  1  0
 13 14  2  0
 14 15  1  0
 15 16  2  0
 16 17  1  0
 16 18  1  0
 18 19  2  0
 19 20  1  0
 20 21  2  0
 21 22  1  0
 14 23  1  0
 23 24  2  0
 23 25  1  0
 25 26  1  0
 25 27  1  0
 27 28  2  0
  7 29  2  0
 29  3  1  0
 28  9  1  0
 27 12  1  0
 21 15  1  0
M  END
>  <Compound_ID>  (1) 
CHEMBL386051

>  <Active>  (1) 
1

>  <Smiles>  (1) 
CSc1cccc(Nc2ncc3cc(-c4c(Cl)cccc4Cl)c(=O)n(C)c3n2)c1

>  <canonical_smi>  (1) 
CSc1cccc(Nc2ncc3cc(-c4c(Cl)cccc4Cl)c(=O)n(C)c3n2)c1

>  <Set>  (1) 
G1 active

>  <Set_type>  (1) 
G1

>  <MW>  (1) 
443.36

>  <HBD>  (1) 
1

>  <HBA>  (1) 
5

>  <NRB>  (1) 
4

>  <NR>  (1) 
4

>  <NAR>  (1) 
4

>  <PSA>  (1) 
59.81

>  <Standard Type>  (1) 
nan

>  <Standard Relation>  (1) 
nan

>  <Standard Units>  (1) 
nan

>  <Standard Value>  (1) 
nan

>  <Assay ChEMBL ID>  (1) 
nan

>  <Assay Description>  (1) 
nan

>  <BAO Label>  (1) 
nan

$$$$

     RDKit          2D

 38 41  0  0  0  0  0  0  0  0999 V2000
    3.7500   -1.2990    0.0000 C   0  0  0  0  0  0  0  0  0  0  0  0
    3.0000    0.0000    0.0000 C   0  0  0  0  0  0  0  0  0  0  0  0
    1.5000    0.0000    0.0000 N   0  0  0  0  0  0  0  0  0  0  0  0
    0.7500   -1.2990    0.0000 C   0  0  0  0  0  0  0  0  0  0  0  0
   -0.7500   -1.2990    0.0000 C   0  0  0  0  0  0  0  0  0  0  0  0
   -1.5000    0.0000    0.0000 N   0  0  0  0  0  0  0  0  0  0  0  0
   -3.0000    0.0000    0.0000 C   0  0  0  0  0  0  0  0  0  0  0  0
   -3.7500    1.2990    0.0000 C   0  0  0  0  0  0  0  0  0  0  0  0
   -3.0000    2.5981    0.0000 C   0  0  0  0  0  0  0  0  0  0  0  0
   -3.7500    3.8971    0.0000 C   0  0  0  0  0  0  0  0  0  0  0  0
   -5.2500    3.8971    0.0000 C   0  0  0  0  0  0  0  0  0  0  0  0
   -6.0000    5.1962    0.0000 N   0  0  0  0  0  0  0  0  0  0  0  0
   -5.2500    6.4952    0.0000 C   0  0  0  0  0  0  0  0  0  0  0  0
   -3.7500    6.4952    0.0000 O   0  0  0  0  0  0  0  0  0  0  0  0
   -6.0000    7.7942    0.0000 N   0  0  0  0  0  0  0  0  0  0  0  0
   -5.2500    9.0933    0.0000 C   0  0  0  0  0  0  0  0  0  0  0  0
   -3.7500    9.0933    0.0000 C   0  0  0  0  0  0  0  0  0  0  0  0
   -3.0000   10.3923    0.0000 C   0  0  0  0  0  0  0  0  0  0  0  0
   -3.7500   11.6913    0.0000 C   0  0  0  0  0  0  0  0  0  0  0  0
   -3.0000   12.9904    0.0000 O   0  0  0  0  0  0  0  0  0  0  0  0
   -1.5000   12.9904    0.0000 C   0  0  0  0  0  0  0  0  0  0  0  0
   -0.7500   11.6913    0.0000 C   0  0  0  0  0  0  0  0  0  0  0  0
    0.7500   11.6913    0.0000 C   0  0  0  0  0  0  0  0  0  0  0  0
    1.5000   10.3923    0.0000 N   0  0  0  0  0  0  0  0  0  0  0  0
    0.7500    9.0933    0.0000 C   0  0  0  0  0  0  0  0  0  0  0  0
    1.5000   12.9904    0.0000 N   0  0  0  0  0  0  0  0  0  0  0  0
    0.7500   14.2894    0.0000 C   0  0  0  0  0  0  0  0  0  0  0  0
   -0.7500   14.2894    0.0000 N   0  0  0  0  0  0  0  0  0  0  0  0
   -5.2500   11.6913    0.0000 C   0  0  0  0  0  0  0  0  0  0  0  0
   -6.0000   10.3923    0.0000 C   0  0  0  0  0  0  0  0  0  0  0  0
   -6.0000    2.5981    0.0000 C   0  0  0  0  0  0  0  0  0  0  0  0
   -5.2500    1.2990    0.0000 C   0  0  0  0  0  0  0  0  0  0  0  0
   -6.0000    0.0000    0.0000 C   0  0  0  0  0  0  0  0  0  0  0  0
   -6.7500   -1.2990    0.0000 F   0  0  0  0  0  0  0  0  0  0  0  0
   -7.2990    0.7500    0.0000 F   0  0  0  0  0  0  0  0  0  0  0  0
   -4.7010   -0.7500    0.0000 F   0  0  0  0  0  0  0  0  0  0  0  0
   -0.7500    1.2990    0.0000 C   0  0  0  0  0  0  0  0  0  0  0  0
    0.7500    1.2990    0.0000 C   0  0  0  0  0  0  0  0  0  0  0  0
  1  2  1  0
  2  3  1  0
  3  4  1  0
  4  5  1  0
  5  6  1  0
  6  7  1  0
  7  8  1  0
  8  9  2  0
  9 10  1  0
 10 11  2  0
 11 12  1  0
 12 13  1  0
 13 14  2  0
 13 15  1  0
 15 16  1  0
 16 17  2  0
 17 18  1  0
 18 19  2  0
 19 20  1  0
 20 21  1  0
 21 22  2  0
 22 23  1  0
 23 24  1  0
 24 25  1  0
 23 26  2  0
 26 27  1  0
 27 28  2  0
 19 29  1  0
 29 30  2  0
 11 31  1  0
 31 32  2  0
 32 33  1  0
 33 34  1  0
 33 35  1  0
 33 36  1  0
  6 37  1  0
 37 38  1  0
 38  3  1  0
 32  8  1  0
 30 16  1  0
 28 21  1  0
M  END
>  <Compound_ID>  (2) 
CHEMBL574738

>  <Active>  (2) 
1

>  <Smiles>  (2) 
CCN1CCN(Cc2ccc(NC(=O)Nc3ccc(Oc4cc(NC)ncn4)cc3)cc2C(F)(F)F)CC1

>  <canonical_smi>  (2) 
CCN1CCN(Cc2ccc(NC(=O)Nc3ccc(Oc4cc(NC)ncn4)cc3)cc2C(F)(F)F)CC1

>  <Set>  (2) 
G1 active

>  <Set_type>  (2) 
G1

>  <MW>  (2) 
529.57

>  <HBD>  (2) 
3

>  <HBA>  (2) 
7

>  <NRB>  (2) 
8

>  <NR>  (2) 
4

>  <NAR>  (2) 
3

>  <PSA>  (2) 
94.65

>  <Standard Type>  (2) 
nan

>  <Standard Relation>  (2) 
nan

>  <Standard Units>  (2) 
nan

>  <Standard Value>  (2) 
nan

>  <Assay ChEMBL ID>  (2) 
nan

>  <Assay Description>  (2) 
nan

>  <BAO Label>  (2) 
nan

$$$$

     RDKit          2D

 25 27  0  0  0  0  0  0  0  0999 V2000
    3.0000    0.0000    0.0000 C   0  0  0  0  0  0  0  0  0  0  0  0
    1.5000    0.0000    0.0000 C   0  0  0  0  0  0  0  0  0  0  0  0
    0.7500   -1.2990    0.0000 C   0  0  0  0  0  0  0  0  0  0  0  0
   -0.7500   -1.2990    0.0000 C   0  0  0  0  0  0  0  0  0  0  0  0
   -1.5000   -2.5981    0.0000 N   0  0  0  0  0  0  0  0  0  0  0  0
   -3.0000   -2.5981    0.0000 C   0  0  0  0  0  0  0  0  0  0  0  0
   -3.8817   -3.8116    0.0000 N   0  0  0  0  0  0  0  0  0  0  0  0
   -5.3083   -3.3481    0.0000 C   0  0  0  0  0  0  0  0  0  0  0  0
   -5.3083   -1.8481    0.0000 C   0  0  0  0  0  0  0  0  0  0  0  0
   -6.5218   -0.9664    0.0000 C   0  0  0  0  0  0  0  0  0  0  0  0
   -7.8921   -1.5765    0.0000 O   0  0  0  0  0  0  0  0  0  0  0  0
   -6.3650    0.5254    0.0000 N   0  0  0  0  0  0  0  0  0  0  0  0
   -7.5785    1.4071    0.0000 C   0  0  0  0  0  0  0  0  0  0  0  0
   -7.4217    2.8988    0.0000 C   0  0  0  0  0  0  0  0  0  0  0  0
   -6.0514    3.5090    0.0000 C   0  0  0  0  0  0  0  0  0  0  0  0
   -8.6353    3.7805    0.0000 C   0  0  0  0  0  0  0  0  0  0  0  0
  -10.0056    3.1704    0.0000 C   0  0  0  0  0  0  0  0  0  0  0  0
  -10.1624    1.6786    0.0000 C   0  0  0  0  0  0  0  0  0  0  0  0
   -8.9488    0.7970    0.0000 C   0  0  0  0  0  0  0  0  0  0  0  0
   -9.1056   -0.6948    0.0000 Cl  0  0  0  0  0  0  0  0  0  0  0  0
   -3.8817   -1.3846    0.0000 S   0  0  0  0  0  0  0  0  0  0  0  0
   -1.5000    0.0000    0.0000 N   0  0  0  0  0  0  0  0  0  0  0  0
   -0.7500    1.2990    0.0000 C   0  0  0  0  0  0  0  0  0  0  0  0
   -1.5000    2.5981    0.0000 C   0  0  0  0  0  0  0  0  0  0  0  0
    0.7500    1.2990    0.0000 N   0  0  0  0  0  0  0  0  0  0  0  0
  1  2  1  0
  2  3  2  0
  3  4  1  0
  4  5  1  0
  5  6  1  0
  6  7  2  0
  7  8  1  0
  8  9  2  0
  9 10  1  0
 10 11  2  0
 10 12  1  0
 12 13  1  0
 13 14  2  0
 14 15  1  0
 14 16  1  0
 16 17  2  0
 17 18  1  0
 18 19  2  0
 19 20  1  0
  9 21  1  0
  4 22  2  0
 22 23  1  0
 23 24  1  0
 23 25  2  0
 25  2  1  0
 21  6  1  0
 19 13  1  0
M  END
>  <Compound_ID>  (3) 
CHEMBL364623

>  <Active>  (3) 
1

>  <Smiles>  (3) 
Cc1cc(Nc2ncc(C(=O)Nc3c(C)cccc3Cl)s2)nc(C)n1

>  <canonical_smi>  (3) 
Cc1cc(Nc2ncc(C(=O)Nc3c(C)cccc3Cl)s2)nc(C)n1

>  <Set>  (3) 
G1 active

>  <Set_type>  (3) 
G1

>  <MW>  (3) 
373.87

>  <HBD>  (3) 
2

>  <HBA>  (3) 
5

>  <NRB>  (3) 
4

>  <NR>  (3) 
3

>  <NAR>  (3) 
3

>  <PSA>  (3) 
79.8

>  <Standard Type>  (3) 
nan

>  <Standard Relation>  (3) 
nan

>  <Standard Units>  (3) 
nan

>  <Standard Value>  (3) 
nan

>  <Assay ChEMBL ID>  (3) 
nan

>  <Assay Description>  (3) 
nan

>  <BAO Label>  (3) 
nan

$$$$

     RDKit          2D

 28 32  0  0  0  0  0  0  0  0999 V2000
    3.4430   -7.9964    0.0000 O   0  0  0  0  0  0  0  0  0  0  0  0
    3.7548   -6.5291    0.0000 C   0  0  0  0  0  0  0  0  0  0  0  0
    2.6401   -5.5255    0.0000 N   0  0  0  0  0  0  0  0  0  0  0  0
    1.2135   -5.9890    0.0000 C   0  0  0  0  0  0  0  0  0  0  0  0
    0.7500   -7.4156    0.0000 C   0  0  0  0  0  0  0  0  0  0  0  0
   -0.7500   -7.4156    0.0000 N   0  0  0  0  0  0  0  0  0  0  0  0
   -1.2135   -5.9890    0.0000 N   0  0  0  0  0  0  0  0  0  0  0  0
   -0.0000   -5.1073    0.0000 C   0  0  0  0  0  0  0  0  0  0  0  0
   -0.0000   -3.6073    0.0000 C   0  0  0  0  0  0  0  0  0  0  0  0
    1.2135   -2.7256    0.0000 N   0  0  0  0  0  0  0  0  0  0  0  0
    0.7500   -1.2990    0.0000 C   0  0  0  0  0  0  0  0  0  0  0  0
    1.5000    0.0000    0.0000 C   0  0  0  0  0  0  0  0  0  0  0  0
    0.7500    1.2990    0.0000 C   0  0  0  0  0  0  0  0  0  0  0  0
    1.5000    2.5981    0.0000 C   0  0  0  0  0  0  0  0  0  0  0  0
    3.0000    2.5981    0.0000 N   0  0  0  0  0  0  0  0  0  0  0  0
    3.7500    1.2990    0.0000 C   0  0  0  0  0  0  0  0  0  0  0  0
    5.2500    1.2990    0.0000 C   0  0  0  0  0  0  0  0  0  0  0  0
    6.0000    2.5981    0.0000 O   0  0  0  0  0  0  0  0  0  0  0  0
    5.2500    3.8971    0.0000 C   0  0  0  0  0  0  0  0  0  0  0  0
    3.7500    3.8971    0.0000 C   0  0  0  0  0  0  0  0  0  0  0  0
   -0.7500    1.2990    0.0000 C   0  0  0  0  0  0  0  0  0  0  0  0
   -1.5000    0.0000    0.0000 C   0  0  0  0  0  0  0  0  0  0  0  0
   -0.7500   -1.2990    0.0000 C   0  0  0  0  0  0  0  0  0  0  0  0
   -1.2135   -2.7256    0.0000 N   0  0  0  0  0  0  0  0  0  0  0  0
    5.1814   -6.0656    0.0000 N   0  0  0  0  0  0  0  0  0  0  0  0
    6.2961   -7.0693    0.0000 C   0  0  0  0  0  0  0  0  0  0  0  0
    7.7634   -7.3812    0.0000 C   0  0  0  0  0  0  0  0  0  0  0  0
    6.7597   -8.4959    0.0000 C   0  0  0  0  0  0  0  0  0  0  0  0
  1  2  2  0
  2  3  1  0
  3  4  1  0
  4  5  2  0
  5  6  1  0
  6  7  1  0
  7  8  2  0
  8  9  1  0
  9 10  2  0
 10 11  1  0
 11 12  2  0
 12 13  1  0
 13 14  1  0
 14 15  1  0
 15 16  1  0
 16 17  1  0
 17 18  1  0
 18 19  1  0
 19 20  1  0
 13 21  2  0
 21 22  1  0
 22 23  2  0
 23 24  1  0
  2 25  1  0
 25 26  1  0
 26 27  1  0
 27 28  1  0
  8  4  1  0
 24  9  1  0
 28 26  1  0
 23 11  1  0
 20 15  1  0
M  END
>  <Compound_ID>  (4) 
CHEMBL495727

>  <Active>  (4) 
1

>  <Smiles>  (4) 
O=C(Nc1c[nH]nc1-c1nc2cc(CN3CCOCC3)ccc2[nH]1)NC1CC1

>  <canonical_smi>  (4) 
O=C(Nc1c[nH]nc1-c1nc2cc(CN3CCOCC3)ccc2[nH]1)NC1CC1

>  <Set>  (4) 
G1 active

>  <Set_type>  (4) 
G1

>  <MW>  (4) 
381.44

>  <HBD>  (4) 
4

>  <HBA>  (4) 
5

>  <NRB>  (4) 
5

>  <NR>  (4) 
5

>  <NAR>  (4) 
3

>  <PSA>  (4) 
110.96

>  <Standard Type>  (4) 
nan

>  <Standard Relation>  (4) 
nan

>  <Standard Units>  (4) 
nan

>  <Standard Value>  (4) 
nan

>  <Assay ChEMBL ID>  (4) 
nan

>  <Assay Description>  (4) 
nan

>  <BAO Label>  (4) 
nan

$$$$

     RDKit          2D

 36 40  0  0  0  0  0  0  0  0999 V2000
   -3.0000   -2.5981    0.0000 C   0  0  0  0  0  0  0  0  0  0  0  0
   -1.5000   -2.5981    0.0000 C   0  0  0  0  0  0  0  0  0  0  0  0
   -0.7500   -3.8971    0.0000 C   0  0  0  0  0  0  0  0  0  0  0  0
    0.7500   -3.8971    0.0000 C   0  0  0  0  0  0  0  0  0  0  0  0
    1.5000   -5.1962    0.0000 C   0  0  0  0  0  0  0  0  0  0  0  0
    0.7500   -6.4952    0.0000 C   0  0  0  0  0  0  0  0  0  0  0  0
    1.5000   -7.7942    0.0000 C   0  0  0  0  0  0  0  0  0  0  0  0
    0.7500   -9.0933    0.0000 O   0  0  0  0  0  0  0  0  0  0  0  0
    3.0000   -7.7942    0.0000 C   0  0  0  0  0  0  0  0  0  0  0  0
    3.7500   -6.4952    0.0000 C   0  0  0  0  0  0  0  0  0  0  0  0
    3.0000   -5.1962    0.0000 C   0  0  0  0  0  0  0  0  0  0  0  0
    3.7500   -3.8971    0.0000 Cl  0  0  0  0  0  0  0  0  0  0  0  0
    1.5000   -2.5981    0.0000 C   0  0  0  0  0  0  0  0  0  0  0  0
    0.7500   -1.2990    0.0000 C   0  0  0  0  0  0  0  0  0  0  0  0
    1.5000    0.0000    0.0000 N   0  0  0  0  0  0  0  0  0  0  0  0
    0.7500    1.2990    0.0000 N   0  0  0  0  0  0  0  0  0  0  0  0
   -0.7500    1.2990    0.0000 C   0  0  0  0  0  0  0  0  0  0  0  0
   -1.5000    2.5981    0.0000 N   0  0  0  0  0  0  0  0  0  0  0  0
   -0.7500    3.8971    0.0000 C   0  0  0  0  0  0  0  0  0  0  0  0
    0.7500    3.8971    0.0000 C   0  0  0  0  0  0  0  0  0  0  0  0
    1.5000    5.1962    0.0000 C   0  0  0  0  0  0  0  0  0  0  0  0
    0.7500    6.4952    0.0000 C   0  0  0  0  0  0  0  0  0  0  0  0
    1.5000    7.7942    0.0000 C   0  0  0  0  0  0  0  0  0  0  0  0
    0.7500    9.0933    0.0000 O   0  0  0  0  0  0  0  0  0  0  0  0
    3.0000    7.7942    0.0000 N   0  0  0  0  0  0  0  0  0  0  0  0
    3.7500    6.4952    0.0000 C   0  0  0  0  0  0  0  0  0  0  0  0
    5.2500    6.4952    0.0000 C   0  0  0  0  0  0  0  0  0  0  0  0
    6.0000    7.7942    0.0000 S   0  0  0  0  0  0  0  0  0  0  0  0
    7.1491    8.7584    0.0000 O   0  0  0  0  0  0  0  0  0  0  0  0
    7.1491    6.8300    0.0000 O   0  0  0  0  0  0  0  0  0  0  0  0
    5.2500    9.0933    0.0000 C   0  0  0  0  0  0  0  0  0  0  0  0
    3.7500    9.0933    0.0000 C   0  0  0  0  0  0  0  0  0  0  0  0
   -0.7500    6.4952    0.0000 C   0  0  0  0  0  0  0  0  0  0  0  0
   -1.5000    5.1962    0.0000 C   0  0  0  0  0  0  0  0  0  0  0  0
   -1.5000    0.0000    0.0000 N   0  0  0  0  0  0  0  0  0  0  0  0
   -0.7500   -1.2990    0.0000 C   0  0  0  0  0  0  0  0  0  0  0  0
  1  2  1  0
  2  3  2  0
  3  4  1  0
  4  5  1  0
  5  6  2  0
  6  7  1  0
  7  8  1  0
  7  9  2  0
  9 10  1  0
 10 11  2  0
 11 12  1  0
  4 13  2  0
 13 14  1  0
 14 15  2  0
 15 16  1  0
 16 17  2  0
 17 18  1  0
 18 19  1  0
 19 20  2  0
 20 21  1  0
 21 22  2  0
 22 23  1  0
 23 24  2  0
 23 25  1  0
 25 26  1  0
 26 27  1  0
 27 28  1  0
 28 29  2  0
 28 30  2  0
 28 31  1  0
 31 32  1  0
 22 33  1  0
 33 34  2  0
 17 35  1  0
 35 36  2  0
 36  2  1  0
 11  5  1  0
 36 14  1  0
 34 19  1  0
 32 25  1  0
M  END
>  <Compound_ID>  (5) 
CHEMBL249819

>  <Active>  (5) 
1

>  <Smiles>  (5) 
Cc1cc(-c2cc(O)ccc2Cl)cc2nnc(Nc3ccc(C(=O)N4CCS(=O)(=O)CC4)cc3)nc12

>  <canonical_smi>  (5) 
Cc1cc(-c2cc(O)ccc2Cl)cc2nnc(Nc3ccc(C(=O)N4CCS(=O)(=O)CC4)cc3)nc12

>  <Set>  (5) 
G1 active

>  <Set_type>  (5) 
G1

>  <MW>  (5) 
524.0

>  <HBD>  (5) 
2

>  <HBA>  (5) 
8

>  <NRB>  (5) 
4

>  <NR>  (5) 
5

>  <NAR>  (5) 
4

>  <PSA>  (5) 
125.38

>  <Standard Type>  (5) 
nan

>  <Standard Relation>  (5) 
nan

>  <Standard Units>  (5) 
nan

>  <Standard Value>  (5) 
nan

>  <Assay ChEMBL ID>  (5) 
nan

>  <Assay Description>  (5) 
nan

>  <BAO Label>  (5) 
nan

$$$$

     RDKit          2D

 34 37  0  0  0  0  0  0  0  0999 V2000
   -3.7500   -6.4952    0.0000 C   0  0  0  0  0  0  0  0  0  0  0  0
   -3.0000   -5.1962    0.0000 O   0  0  0  0  0  0  0  0  0  0  0  0
   -1.5000   -5.1962    0.0000 C   0  0  0  0  0  0  0  0  0  0  0  0
   -0.7500   -3.8971    0.0000 C   0  0  0  0  0  0  0  0  0  0  0  0
    0.7500   -3.8971    0.0000 C   0  0  0  0  0  0  0  0  0  0  0  0
    1.5000   -2.5981    0.0000 N   0  0  0  0  0  0  0  0  0  0  0  0
    0.7500   -1.2990    0.0000 C   0  0  0  0  0  0  0  0  0  0  0  0
    1.5000    0.0000    0.0000 C   0  0  0  0  0  0  0  0  0  0  0  0
    3.0000    0.0000    0.0000 C   0  0  0  0  0  0  0  0  0  0  0  0
    4.5000    0.0000    0.0000 N   0  0  0  0  0  0  0  0  0  0  0  0
    0.7500    1.2990    0.0000 C   0  0  0  0  0  0  0  0  0  0  0  0
   -0.7500    1.2990    0.0000 N   0  0  0  0  0  0  0  0  0  0  0  0
   -1.5000    0.0000    0.0000 C   0  0  0  0  0  0  0  0  0  0  0  0
   -3.0000    0.0000    0.0000 C   0  0  0  0  0  0  0  0  0  0  0  0
   -3.7500   -1.2990    0.0000 C   0  0  0  0  0  0  0  0  0  0  0  0
   -5.2500   -1.2990    0.0000 O   0  0  0  0  0  0  0  0  0  0  0  0
   -6.0000    0.0000    0.0000 C   0  0  0  0  0  0  0  0  0  0  0  0
   -7.5000   -0.0000    0.0000 C   0  0  0  0  0  0  0  0  0  0  0  0
   -8.2500    1.2990    0.0000 C   0  0  0  0  0  0  0  0  0  0  0  0
   -9.7500    1.2990    0.0000 C   0  0  0  0  0  0  0  0  0  0  0  0
  -10.5000    0.0000    0.0000 C   0  0  0  0  0  0  0  0  0  0  0  0
   -9.7500   -1.2990    0.0000 N   0  0  0  0  0  0  0  0  0  0  0  0
  -10.5000   -2.5981    0.0000 C   0  0  0  0  0  0  0  0  0  0  0  0
   -8.2500   -1.2990    0.0000 C   0  0  0  0  0  0  0  0  0  0  0  0
   -3.0000   -2.5981    0.0000 C   0  0  0  0  0  0  0  0  0  0  0  0
   -3.7500   -3.8971    0.0000 O   0  0  0  0  0  0  0  0  0  0  0  0
   -5.2500   -3.8971    0.0000 C   0  0  0  0  0  0  0  0  0  0  0  0
   -1.5000   -2.5981    0.0000 C   0  0  0  0  0  0  0  0  0  0  0  0
   -0.7500   -1.2990    0.0000 C   0  0  0  0  0  0  0  0  0  0  0  0
    1.5000   -5.1962    0.0000 C   0  0  0  0  0  0  0  0  0  0  0  0
    3.0000   -5.1962    0.0000 Cl  0  0  0  0  0  0  0  0  0  0  0  0
    0.7500   -6.4952    0.0000 C   0  0  0  0  0  0  0  0  0  0  0  0
   -0.7500   -6.4952    0.0000 C   0  0  0  0  0  0  0  0  0  0  0  0
   -1.5000   -7.7942    0.0000 Cl  0  0  0  0  0  0  0  0  0  0  0  0
  1  2  1  0
  2  3  1  0
  3  4  2  0
  4  5  1  0
  5  6  1  0
  6  7  1  0
  7  8  2  0
  8  9  1  0
  9 10  3  0
  8 11  1  0
 11 12  2  0
 12 13  1  0
 13 14  2  0
 14 15  1  0
 15 16  1  0
 16 17  1  0
 17 18  1  0
 18 19  1  0
 19 20  1  0
 20 21  1  0
 21 22  1  0
 22 23  1  0
 22 24  1  0
 15 25  2  0
 25 26  1  0
 26 27  1  0
 25 28  1  0
 28 29  2  0
  5 30  2  0
 30 31  1  0
 30 32  1  0
 32 33  2  0
 33 34  1  0
 33  3  1  0
 29  7  1  0
 29 13  1  0
 24 18  1  0
M  END
>  <Compound_ID>  (6) 
CHEMBL40557

>  <Active>  (6) 
1

>  <Smiles>  (6) 
COc1cc(Nc2c(C#N)cnc3cc(OCC4CCCN(C)C4)c(OC)cc23)c(Cl)cc1Cl

>  <canonical_smi>  (6) 
COc1cc(Nc2c(C#N)cnc3cc(OCC4CCCN(C)C4)c(OC)cc23)c(Cl)cc1Cl

>  <Set>  (6) 
G1 active

>  <Set_type>  (6) 
G1

>  <MW>  (6) 
501.41

>  <HBD>  (6) 
1

>  <HBA>  (6) 
7

>  <NRB>  (6) 
7

>  <NR>  (6) 
4

>  <NAR>  (6) 
3

>  <PSA>  (6) 
79.64

>  <Standard Type>  (6) 
nan

>  <Standard Relation>  (6) 
nan

>  <Standard Units>  (6) 
nan

>  <Standard Value>  (6) 
nan

>  <Assay ChEMBL ID>  (6) 
nan

>  <Assay Description>  (6) 
nan

>  <BAO Label>  (6) 
nan

$$$$

     RDKit          2D

 37 41  0  0  0  0  0  0  0  0999 V2000
   -9.2714   -8.3678    0.0000 C   0  0  0  0  0  0  0  0  0  0  0  0
   -7.7942   -8.1073    0.0000 C   0  0  0  0  0  0  0  0  0  0  0  0
   -8.3073   -6.6978    0.0000 C   0  0  0  0  0  0  0  0  0  0  0  0
   -6.4952   -7.3573    0.0000 C   0  0  0  0  0  0  0  0  0  0  0  0
   -5.1962   -8.1073    0.0000 C   0  0  0  0  0  0  0  0  0  0  0  0
   -3.8971   -7.3573    0.0000 N   0  0  0  0  0  0  0  0  0  0  0  0
   -2.5981   -8.1073    0.0000 C   0  0  0  0  0  0  0  0  0  0  0  0
   -2.5981   -9.6073    0.0000 O   0  0  0  0  0  0  0  0  0  0  0  0
   -1.2990   -7.3573    0.0000 C   0  0  0  0  0  0  0  0  0  0  0  0
    0.0000   -8.1073    0.0000 C   0  0  0  0  0  0  0  0  0  0  0  0
    1.2990   -7.3573    0.0000 C   0  0  0  0  0  0  0  0  0  0  0  0
    1.2990   -5.8573    0.0000 C   0  0  0  0  0  0  0  0  0  0  0  0
   -0.0000   -5.1073    0.0000 C   0  0  0  0  0  0  0  0  0  0  0  0
   -0.0000   -3.6073    0.0000 C   0  0  0  0  0  0  0  0  0  0  0  0
    1.2135   -2.7256    0.0000 C   0  0  0  0  0  0  0  0  0  0  0  0
    0.7500   -1.2990    0.0000 C   0  0  0  0  0  0  0  0  0  0  0  0
    1.5000    0.0000    0.0000 N   0  0  0  0  0  0  0  0  0  0  0  0
    0.7500    1.2990    0.0000 C   0  0  0  0  0  0  0  0  0  0  0  0
   -0.7500    1.2990    0.0000 C   0  0  0  0  0  0  0  0  0  0  0  0
   -1.5000    0.0000    0.0000 C   0  0  0  0  0  0  0  0  0  0  0  0
   -3.0000    0.0000    0.0000 N   0  0  0  0  0  0  0  0  0  0  0  0
   -3.7500    1.2990    0.0000 C   0  0  0  0  0  0  0  0  0  0  0  0
   -3.0000    2.5981    0.0000 C   0  0  0  0  0  0  0  0  0  0  0  0
   -3.7500    3.8971    0.0000 C   0  0  0  0  0  0  0  0  0  0  0  0
   -5.2500    3.8971    0.0000 C   0  0  0  0  0  0  0  0  0  0  0  0
   -6.0000    2.5981    0.0000 C   0  0  0  0  0  0  0  0  0  0  0  0
   -7.5000    2.5981    0.0000 O   0  0  0  0  0  0  0  0  0  0  0  0
   -5.2500    1.2990    0.0000 C   0  0  0  0  0  0  0  0  0  0  0  0
   -0.7500   -1.2990    0.0000 N   0  0  0  0  0  0  0  0  0  0  0  0
   -1.2135   -2.7256    0.0000 N   0  0  0  0  0  0  0  0  0  0  0  0
   -1.2990   -5.8573    0.0000 C   0  0  0  0  0  0  0  0  0  0  0  0
   -5.1962   -9.6073    0.0000 C   0  0  0  0  0  0  0  0  0  0  0  0
   -6.4952  -10.3573    0.0000 C   0  0  0  0  0  0  0  0  0  0  0  0
   -5.5310  -11.5064    0.0000 C   0  0  0  0  0  0  0  0  0  0  0  0
   -7.4594  -11.5064    0.0000 C   0  0  0  0  0  0  0  0  0  0  0  0
   -7.7942   -9.6073    0.0000 N   0  0  0  0  0  0  0  0  0  0  0  0
   -9.0933  -10.3573    0.0000 O   0  0  0  0  0  0  0  0  0  0  0  0
  1  2  1  0
  2  3  1  0
  2  4  1  0
  4  5  1  0
  5  6  1  0
  6  7  1  0
  7  8  2  0
  7  9  1  0
  9 10  2  0
 10 11  1  0
 11 12  2  0
 12 13  1  0
 13 14  1  0
 14 15  1  0
 15 16  2  0
 16 17  1  0
 17 18  2  0
 18 19  1  0
 19 20  2  0
 20 21  1  0
 21 22  1  0
 22 23  2  0
 23 24  1  0
 24 25  2  0
 25 26  1  0
 26 27  1  0
 26 28  2  0
 20 29  1  0
 29 30  1  0
 13 31  2  0
  5 32  1  0
 32 33  1  0
 33 34  1  0
 33 35  1  0
 33 36  1  0
 36 37  1  0
 36  2  1  0
 31  9  1  0
 30 14  2  0
 29 16  1  0
 28 22  1  0
M  END
>  <Compound_ID>  (7) 
CHEMBL1163016

>  <Active>  (7) 
1

>  <Smiles>  (7) 
CC1(C)CC(NC(=O)c2cccc(-c3cc4nccc(Nc5cccc(O)c5)n4n3)c2)CC(C)(C)N1O

>  <canonical_smi>  (7) 
CC1(C)CC(NC(=O)c2cccc(-c3cc4nccc(Nc5cccc(O)c5)n4n3)c2)CC(C)(C)N1O

>  <Set>  (7) 
G1 active

>  <Set_type>  (7) 
G1

>  <MW>  (7) 
500.6

>  <HBD>  (7) 
4

>  <HBA>  (7) 
7

>  <NRB>  (7) 
5

>  <NR>  (7) 
5

>  <NAR>  (7) 
4

>  <PSA>  (7) 
115.02

>  <Standard Type>  (7) 
nan

>  <Standard Relation>  (7) 
nan

>  <Standard Units>  (7) 
nan

>  <Standard Value>  (7) 
nan

>  <Assay ChEMBL ID>  (7) 
nan

>  <Assay Description>  (7) 
nan

>  <BAO Label>  (7) 
nan

$$$$

     RDKit          2D

 41 46  0  0  0  0  0  0  0  0999 V2000
  -11.0023   11.7195    0.0000 C   0  0  0  0  0  0  0  0  0  0  0  0
   -9.5106   11.5627    0.0000 C   0  0  0  0  0  0  0  0  0  0  0  0
   -8.7606   10.2636    0.0000 C   0  0  0  0  0  0  0  0  0  0  0  0
   -7.2933   10.5755    0.0000 N   0  0  0  0  0  0  0  0  0  0  0  0
   -6.1786    9.5718    0.0000 C   0  0  0  0  0  0  0  0  0  0  0  0
   -6.4905    8.1046    0.0000 C   0  0  0  0  0  0  0  0  0  0  0  0
   -5.3758    7.1009    0.0000 C   0  0  0  0  0  0  0  0  0  0  0  0
   -5.6876    5.6337    0.0000 N   0  0  0  0  0  0  0  0  0  0  0  0
   -7.1142    5.1701    0.0000 C   0  0  0  0  0  0  0  0  0  0  0  0
   -8.2289    6.1738    0.0000 O   0  0  0  0  0  0  0  0  0  0  0  0
   -7.4261    3.7029    0.0000 C   0  0  0  0  0  0  0  0  0  0  0  0
   -8.8527    3.2394    0.0000 C   0  0  0  0  0  0  0  0  0  0  0  0
   -9.1645    1.7722    0.0000 C   0  0  0  0  0  0  0  0  0  0  0  0
   -8.0498    0.7685    0.0000 C   0  0  0  0  0  0  0  0  0  0  0  0
   -8.3617   -0.6987    0.0000 C   0  0  0  0  0  0  0  0  0  0  0  0
   -6.6232    1.2320    0.0000 C   0  0  0  0  0  0  0  0  0  0  0  0
   -5.5085    0.2283    0.0000 C   0  0  0  0  0  0  0  0  0  0  0  0
   -4.0819    0.6918    0.0000 C   0  0  0  0  0  0  0  0  0  0  0  0
   -2.9672   -0.3119    0.0000 N   0  0  0  0  0  0  0  0  0  0  0  0
   -3.1240   -1.8037    0.0000 C   0  0  0  0  0  0  0  0  0  0  0  0
   -1.7537   -2.4138    0.0000 N   0  0  0  0  0  0  0  0  0  0  0  0
   -0.7500   -1.2990    0.0000 C   0  0  0  0  0  0  0  0  0  0  0  0
    0.7500   -1.2990    0.0000 C   0  0  0  0  0  0  0  0  0  0  0  0
    1.5000   -2.5981    0.0000 N   0  0  0  0  0  0  0  0  0  0  0  0
    3.0000   -2.5981    0.0000 C   0  0  0  0  0  0  0  0  0  0  0  0
    4.2990   -1.8481    0.0000 C   0  0  0  0  0  0  0  0  0  0  0  0
    4.2990   -3.3481    0.0000 C   0  0  0  0  0  0  0  0  0  0  0  0
    1.5000    0.0000    0.0000 N   0  0  0  0  0  0  0  0  0  0  0  0
    0.7500    1.2990    0.0000 C   0  0  0  0  0  0  0  0  0  0  0  0
   -0.7500    1.2990    0.0000 N   0  0  0  0  0  0  0  0  0  0  0  0
   -1.5000    0.0000    0.0000 C   0  0  0  0  0  0  0  0  0  0  0  0
   -6.3114    2.6992    0.0000 C   0  0  0  0  0  0  0  0  0  0  0  0
   -3.9492    7.5644    0.0000 C   0  0  0  0  0  0  0  0  0  0  0  0
   -3.6373    9.0316    0.0000 C   0  0  0  0  0  0  0  0  0  0  0  0
   -2.2107    9.4952    0.0000 C   0  0  0  0  0  0  0  0  0  0  0  0
   -0.7841    9.9587    0.0000 F   0  0  0  0  0  0  0  0  0  0  0  0
   -1.7472    8.0686    0.0000 F   0  0  0  0  0  0  0  0  0  0  0  0
   -2.6743   10.9217    0.0000 F   0  0  0  0  0  0  0  0  0  0  0  0
   -4.7520   10.0353    0.0000 C   0  0  0  0  0  0  0  0  0  0  0  0
   -7.1365   12.0673    0.0000 C   0  0  0  0  0  0  0  0  0  0  0  0
   -8.5069   12.6774    0.0000 N   0  0  0  0  0  0  0  0  0  0  0  0
  1  2  1  0
  2  3  2  0
  3  4  1  0
  4  5  1  0
  5  6  2  0
  6  7  1  0
  7  8  1  0
  8  9  1  0
  9 10  2  0
  9 11  1  0
 11 12  2  0
 12 13  1  0
 13 14  2  0
 14 15  1  0
 14 16  1  0
 16 17  1  0
 17 18  2  0
 18 19  1  0
 19 20  1  0
 20 21  1  0
 21 22  1  0
 22 23  2  0
 23 24  1  0
 24 25  1  0
 25 26  1  0
 26 27  1  0
 23 28  1  0
 28 29  2  0
 29 30  1  0
 30 31  2  0
 16 32  2  0
  7 33  2  0
 33 34  1  0
 34 35  1  0
 35 36  1  0
 35 37  1  0
 35 38  1  0
 34 39  2  0
  4 40  1  0
 40 41  2  0
 41  2  1  0
 39  5  1  0
 32 11  1  0
 31 19  1  0
 31 22  1  0
 27 25  1  0
M  END
>  <Compound_ID>  (8) 
CHEMBL1077317

>  <Active>  (8) 
1

>  <Smiles>  (8) 
Cc1cn(-c2cc(NC(=O)c3ccc(C)c(/C=C/N4CNc5c(NC6CC6)ncnc54)c3)cc(C(F)(F)F)c2)cn1

>  <canonical_smi>  (8) 
Cc1cn(-c2cc(NC(=O)c3ccc(C)c(/C=C/N4CNc5c(NC6CC6)ncnc54)c3)cc(C(F)(F)F)c2)cn1

>  <Set>  (8) 
G1 active

>  <Set_type>  (8) 
G1

>  <MW>  (8) 
560.58

>  <HBD>  (8) 
3

>  <HBA>  (8) 
7

>  <NRB>  (8) 
7

>  <NR>  (8) 
6

>  <NAR>  (8) 
4

>  <PSA>  (8) 
100.0

>  <Standard Type>  (8) 
nan

>  <Standard Relation>  (8) 
nan

>  <Standard Units>  (8) 
nan

>  <Standard Value>  (8) 
nan

>  <Assay ChEMBL ID>  (8) 
nan

>  <Assay Description>  (8) 
nan

>  <BAO Label>  (8) 
nan

$$$$

     RDKit          2D

 41 45  0  0  0  0  0  0  0  0999 V2000
    3.0000    0.0000    0.0000 C   0  0  0  0  0  0  0  0  0  0  0  0
    1.5000    0.0000    0.0000 C   0  0  0  0  0  0  0  0  0  0  0  0
    0.7500   -1.2990    0.0000 C   0  0  0  0  0  0  0  0  0  0  0  0
   -0.7500   -1.2990    0.0000 C   0  0  0  0  0  0  0  0  0  0  0  0
   -1.5000    0.0000    0.0000 C   0  0  0  0  0  0  0  0  0  0  0  0
   -3.0000    0.0000    0.0000 N   0  0  0  0  0  0  0  0  0  0  0  0
   -3.7500    1.2990    0.0000 C   0  0  0  0  0  0  0  0  0  0  0  0
   -3.0000    2.5981    0.0000 O   0  0  0  0  0  0  0  0  0  0  0  0
   -5.2500    1.2990    0.0000 C   0  0  0  0  0  0  0  0  0  0  0  0
   -6.0000    2.5981    0.0000 C   0  0  0  0  0  0  0  0  0  0  0  0
   -7.5000    2.5981    0.0000 C   0  0  0  0  0  0  0  0  0  0  0  0
   -8.2500    1.2990    0.0000 C   0  0  0  0  0  0  0  0  0  0  0  0
   -9.7500    1.2990    0.0000 C   0  0  0  0  0  0  0  0  0  0  0  0
  -10.5000    2.5981    0.0000 N   0  0  0  0  0  0  0  0  0  0  0  0
   -9.7500    3.8971    0.0000 C   0  0  0  0  0  0  0  0  0  0  0  0
  -10.5000    5.1962    0.0000 C   0  0  0  0  0  0  0  0  0  0  0  0
  -12.0000    5.1962    0.0000 N   0  0  0  0  0  0  0  0  0  0  0  0
  -12.7500    6.4952    0.0000 C   0  0  0  0  0  0  0  0  0  0  0  0
  -12.7500    3.8971    0.0000 C   0  0  0  0  0  0  0  0  0  0  0  0
  -12.0000    2.5981    0.0000 C   0  0  0  0  0  0  0  0  0  0  0  0
   -7.5000    0.0000    0.0000 C   0  0  0  0  0  0  0  0  0  0  0  0
   -8.2500   -1.2990    0.0000 C   0  0  0  0  0  0  0  0  0  0  0  0
   -9.0000   -2.5981    0.0000 F   0  0  0  0  0  0  0  0  0  0  0  0
   -6.9510   -2.0490    0.0000 F   0  0  0  0  0  0  0  0  0  0  0  0
   -9.5490   -0.5490    0.0000 F   0  0  0  0  0  0  0  0  0  0  0  0
   -6.0000    0.0000    0.0000 C   0  0  0  0  0  0  0  0  0  0  0  0
   -0.7500    1.2990    0.0000 C   0  0  0  0  0  0  0  0  0  0  0  0
    0.7500    1.2990    0.0000 C   0  0  0  0  0  0  0  0  0  0  0  0
    1.5000    2.5981    0.0000 N   0  0  0  0  0  0  0  0  0  0  0  0
    0.7500    3.8971    0.0000 C   0  0  0  0  0  0  0  0  0  0  0  0
    1.5000    5.1962    0.0000 N   0  0  0  0  0  0  0  0  0  0  0  0
    0.7500    6.4952    0.0000 C   0  0  0  0  0  0  0  0  0  0  0  0
   -0.7500    6.4952    0.0000 C   0  0  0  0  0  0  0  0  0  0  0  0
   -1.5000    5.1962    0.0000 C   0  0  0  0  0  0  0  0  0  0  0  0
   -3.0000    5.1962    0.0000 C   0  0  0  0  0  0  0  0  0  0  0  0
   -3.7500    6.4952    0.0000 C   0  0  0  0  0  0  0  0  0  0  0  0
   -5.2500    6.4952    0.0000 N   0  0  0  0  0  0  0  0  0  0  0  0
   -6.0000    5.1962    0.0000 C   0  0  0  0  0  0  0  0  0  0  0  0
   -5.2500    3.8971    0.0000 N   0  0  0  0  0  0  0  0  0  0  0  0
   -3.7500    3.8971    0.0000 C   0  0  0  0  0  0  0  0  0  0  0  0
   -0.7500    3.8971    0.0000 N   0  0  0  0  0  0  0  0  0  0  0  0
  1  2  1  0
  2  3  2  0
  3  4  1  0
  4  5  2  0
  5  6  1  0
  6  7  1  0
  7  8  2  0
  7  9  1  0
  9 10  2  0
 10 11  1  0
 11 12  2  0
 12 13  1  0
 13 14  1  0
 14 15  1  0
 15 16  1  0
 16 17  1  0
 17 18  1  0
 17 19  1  0
 19 20  1  0
 12 21  1  0
 21 22  1  0
 22 23  1  0
 22 24  1  0
 22 25  1  0
 21 26  2  0
  5 27  1  0
 27 28  2  0
 28 29  1  0
 29 30  1  0
 30 31  2  0
 31 32  1  0
 32 33  2  0
 33 34  1  0
 34 35  1  0
 35 36  2  0
 36 37  1  0
 37 38  2  0
 38 39  1  0
 39 40  2  0
 34 41  2  0
 28  2  1  0
 41 30  1  0
 26  9  1  0
 40 35  1  0
 20 14  1  0
M  END
>  <Compound_ID>  (9) 
CHEMBL205723

>  <Active>  (9) 
1

>  <Smiles>  (9) 
Cc1ccc(NC(=O)c2ccc(CN3CCN(C)CC3)c(C(F)(F)F)c2)cc1Nc1nccc(-c2cncnc2)n1

>  <canonical_smi>  (9) 
Cc1ccc(NC(=O)c2ccc(CN3CCN(C)CC3)c(C(F)(F)F)c2)cc1Nc1nccc(-c2cncnc2)n1

>  <Set>  (9) 
G1 active

>  <Set_type>  (9) 
G1

>  <MW>  (9) 
562.6

>  <HBD>  (9) 
2

>  <HBA>  (9) 
8

>  <NRB>  (9) 
7

>  <NR>  (9) 
5

>  <NAR>  (9) 
4

>  <PSA>  (9) 
99.17

>  <Standard Type>  (9) 
nan

>  <Standard Relation>  (9) 
nan

>  <Standard Units>  (9) 
nan

>  <Standard Value>  (9) 
nan

>  <Assay ChEMBL ID>  (9) 
nan

>  <Assay Description>  (9) 
nan

>  <BAO Label>  (9) 
nan

$$$$

     RDKit          2D

 34 38  0  0  0  0  0  0  0  0999 V2000
   -4.0819    0.6918    0.0000 C   0  0  0  0  0  0  0  0  0  0  0  0
   -2.9672   -0.3119    0.0000 N   0  0  0  0  0  0  0  0  0  0  0  0
   -3.1240   -1.8037    0.0000 C   0  0  0  0  0  0  0  0  0  0  0  0
   -1.7537   -2.4138    0.0000 C   0  0  0  0  0  0  0  0  0  0  0  0
   -1.4418   -3.8810    0.0000 C   0  0  0  0  0  0  0  0  0  0  0  0
   -2.5565   -4.8847    0.0000 C   0  0  0  0  0  0  0  0  0  0  0  0
   -4.0238   -4.5728    0.0000 O   0  0  0  0  0  0  0  0  0  0  0  0
   -4.7738   -5.8718    0.0000 C   0  0  0  0  0  0  0  0  0  0  0  0
   -6.2410   -6.1837    0.0000 C   0  0  0  0  0  0  0  0  0  0  0  0
   -6.7045   -7.6103    0.0000 C   0  0  0  0  0  0  0  0  0  0  0  0
   -5.7008   -8.7250    0.0000 C   0  0  0  0  0  0  0  0  0  0  0  0
   -4.2336   -8.4131    0.0000 C   0  0  0  0  0  0  0  0  0  0  0  0
   -3.2299   -9.5279    0.0000 O   0  0  0  0  0  0  0  0  0  0  0  0
   -3.7701   -6.9866    0.0000 C   0  0  0  0  0  0  0  0  0  0  0  0
   -2.3998   -6.3765    0.0000 C   0  0  0  0  0  0  0  0  0  0  0  0
   -1.1007   -7.1265    0.0000 O   0  0  0  0  0  0  0  0  0  0  0  0
   -0.7500   -1.2990    0.0000 C   0  0  0  0  0  0  0  0  0  0  0  0
    0.7500   -1.2990    0.0000 C   0  0  0  0  0  0  0  0  0  0  0  0
    1.5000   -2.5981    0.0000 C   0  0  0  0  0  0  0  0  0  0  0  0
    0.7500   -3.8971    0.0000 C   0  0  0  0  0  0  0  0  0  0  0  0
    1.5000   -5.1962    0.0000 C   0  0  0  0  0  0  0  0  0  0  0  0
    3.0000   -5.1962    0.0000 C   0  0  0  0  0  0  0  0  0  0  0  0
    3.7500   -6.4952    0.0000 C   0  0  0  0  0  0  0  0  0  0  0  0
    5.2500   -6.4952    0.0000 O   0  0  0  0  0  0  0  0  0  0  0  0
    3.0000   -7.7942    0.0000 N   0  0  0  0  0  0  0  0  0  0  0  0
    3.7500   -9.0933    0.0000 C   0  0  0  0  0  0  0  0  0  0  0  0
    3.0000  -10.3923    0.0000 C   0  0  0  0  0  0  0  0  0  0  0  0
    3.7500  -11.6913    0.0000 O   0  0  0  0  0  0  0  0  0  0  0  0
    3.7500   -3.8971    0.0000 C   0  0  0  0  0  0  0  0  0  0  0  0
    3.0000   -2.5981    0.0000 C   0  0  0  0  0  0  0  0  0  0  0  0
    1.5000    0.0000    0.0000 C   0  0  0  0  0  0  0  0  0  0  0  0
    0.7500    1.2990    0.0000 C   0  0  0  0  0  0  0  0  0  0  0  0
   -0.7500    1.2990    0.0000 N   0  0  0  0  0  0  0  0  0  0  0  0
   -1.5000    0.0000    0.0000 C   0  0  0  0  0  0  0  0  0  0  0  0
  1  2  1  0
  2  3  1  0
  3  4  2  0
  4  5  1  0
  5  6  2  0
  6  7  1  0
  7  8  1  0
  8  9  2  0
  9 10  1  0
 10 11  2  0
 11 12  1  0
 12 13  1  0
 12 14  2  0
 14 15  1  0
 15 16  2  0
  4 17  1  0
 17 18  2  0
 18 19  1  0
 19 20  2  0
 20 21  1  0
 21 22  2  0
 22 23  1  0
 23 24  2  0
 23 25  1  0
 25 26  1  0
 26 27  1  0
 27 28  1  0
 22 29  1  0
 29 30  2  0
 18 31  1  0
 31 32  2  0
 32 33  1  0
 33 34  2  0
 34  2  1  0
 15  6  1  0
 34 17  1  0
 14  8  1  0
 30 19  1  0
M  END
>  <Compound_ID>  (10) 
CHEMBL1092754

>  <Active>  (10) 
1

>  <Smiles>  (10) 
Cn1cc(/C=C2\Oc3cccc(O)c3C2=O)c2c(-c3ccc(C(=O)NCCO)cc3)ccnc21

>  <canonical_smi>  (10) 
Cn1cc(/C=C2\Oc3cccc(O)c3C2=O)c2c(-c3ccc(C(=O)NCCO)cc3)ccnc21

>  <Set>  (10) 
G1 active

>  <Set_type>  (10) 
G1

>  <MW>  (10) 
455.47

>  <HBD>  (10) 
3

>  <HBA>  (10) 
6

>  <NRB>  (10) 
5

>  <NR>  (10) 
5

>  <NAR>  (10) 
4

>  <PSA>  (10) 
113.68

>  <Standard Type>  (10) 
nan

>  <Standard Relation>  (10) 
nan

>  <Standard Units>  (10) 
nan

>  <Standard Value>  (10) 
nan

>  <Assay ChEMBL ID>  (10) 
nan

>  <Assay Description>  (10) 
nan

>  <BAO Label>  (10) 
nan

$$$$

     RDKit          2D

 24 28  0  0  0  0  0  0  0  0999 V2000
    3.0000    0.0000    0.0000 N   0  0  0  0  0  0  0  0  0  0  0  0
    1.5000    0.0000    0.0000 C   0  0  0  0  0  0  0  0  0  0  0  0
    0.7500   -1.2990    0.0000 N   0  0  0  0  0  0  0  0  0  0  0  0
   -0.7500   -1.2990    0.0000 C   0  0  0  0  0  0  0  0  0  0  0  0
   -1.5000    0.0000    0.0000 N   0  0  0  0  0  0  0  0  0  0  0  0
   -0.7500    1.2990    0.0000 C   0  0  0  0  0  0  0  0  0  0  0  0
    0.7500    1.2990    0.0000 C   0  0  0  0  0  0  0  0  0  0  0  0
    1.2135    2.7256    0.0000 C   0  0  0  0  0  0  0  0  0  0  0  0
    2.6401    3.1891    0.0000 C   0  0  0  0  0  0  0  0  0  0  0  0
    3.7548    2.1855    0.0000 C   0  0  0  0  0  0  0  0  0  0  0  0
    5.1814    2.6490    0.0000 N   0  0  0  0  0  0  0  0  0  0  0  0
    5.4933    4.1162    0.0000 C   0  0  0  0  0  0  0  0  0  0  0  0
    6.7923    4.8662    0.0000 N   0  0  0  0  0  0  0  0  0  0  0  0
    6.4805    6.3334    0.0000 C   0  0  0  0  0  0  0  0  0  0  0  0
    4.9887    6.4902    0.0000 C   0  0  0  0  0  0  0  0  0  0  0  0
    4.3786    5.1199    0.0000 C   0  0  0  0  0  0  0  0  0  0  0  0
    2.9520    4.6564    0.0000 C   0  0  0  0  0  0  0  0  0  0  0  0
   -0.0000    3.6073    0.0000 N   0  0  0  0  0  0  0  0  0  0  0  0
   -1.2135    2.7256    0.0000 N   0  0  0  0  0  0  0  0  0  0  0  0
   -2.6401    3.1891    0.0000 C   0  0  0  0  0  0  0  0  0  0  0  0
   -3.8536    2.3075    0.0000 C   0  0  0  0  0  0  0  0  0  0  0  0
   -5.0672    3.1891    0.0000 C   0  0  0  0  0  0  0  0  0  0  0  0
   -4.6036    4.6157    0.0000 C   0  0  0  0  0  0  0  0  0  0  0  0
   -3.1036    4.6157    0.0000 C   0  0  0  0  0  0  0  0  0  0  0  0
  1  2  1  0
  2  3  2  0
  3  4  1  0
  4  5  2  0
  5  6  1  0
  6  7  2  0
  7  8  1  0
  8  9  1  0
  9 10  2  0
 10 11  1  0
 11 12  2  0
 12 13  1  0
 13 14  1  0
 14 15  2  0
 15 16  1  0
 16 17  2  0
  8 18  2  0
 18 19  1  0
 19 20  1  0
 20 21  1  0
 21 22  1  0
 22 23  1  0
 23 24  1  0
  7  2  1  0
 17  9  1  0
 24 20  1  0
 19  6  1  0
 16 12  1  0
M  END
>  <Compound_ID>  (11) 
CHEMBL1081312

>  <Active>  (11) 
1

>  <Smiles>  (11) 
Nc1ncnc2c1c(-c1cnc3[nH]ccc3c1)nn2C1CCCC1

>  <canonical_smi>  (11) 
Nc1ncnc2c1c(-c1cnc3[nH]ccc3c1)nn2C1CCCC1

>  <Set>  (11) 
G1 active

>  <Set_type>  (11) 
G1

>  <MW>  (11) 
319.37

>  <HBD>  (11) 
2

>  <HBA>  (11) 
5

>  <NRB>  (11) 
2

>  <NR>  (11) 
5

>  <NAR>  (11) 
4

>  <PSA>  (11) 
98.3

>  <Standard Type>  (11) 
nan

>  <Standard Relation>  (11) 
nan

>  <Standard Units>  (11) 
nan

>  <Standard Value>  (11) 
nan

>  <Assay ChEMBL ID>  (11) 
nan

>  <Assay Description>  (11) 
nan

>  <BAO Label>  (11) 
nan

$$$$

     RDKit          2D

 31 34  0  0  0  0  0  0  0  0999 V2000
   -4.6904   -6.5871    0.0000 C   0  0  0  0  0  0  0  0  0  0  0  0
   -5.8051   -5.5834    0.0000 C   0  0  0  0  0  0  0  0  0  0  0  0
   -7.2317   -6.0469    0.0000 C   0  0  0  0  0  0  0  0  0  0  0  0
   -8.3464   -5.0433    0.0000 C   0  0  0  0  0  0  0  0  0  0  0  0
   -8.0346   -3.5760    0.0000 C   0  0  0  0  0  0  0  0  0  0  0  0
   -9.1493   -2.5723    0.0000 C   0  0  0  0  0  0  0  0  0  0  0  0
  -10.5759   -3.0359    0.0000 O   0  0  0  0  0  0  0  0  0  0  0  0
   -8.8374   -1.1051    0.0000 N   0  0  0  0  0  0  0  0  0  0  0  0
   -9.9521   -0.1014    0.0000 C   0  0  0  0  0  0  0  0  0  0  0  0
   -9.6403    1.3658    0.0000 C   0  0  0  0  0  0  0  0  0  0  0  0
  -10.7550    2.3695    0.0000 C   0  0  0  0  0  0  0  0  0  0  0  0
  -12.1816    1.9060    0.0000 C   0  0  0  0  0  0  0  0  0  0  0  0
  -12.4935    0.4388    0.0000 C   0  0  0  0  0  0  0  0  0  0  0  0
  -13.9200   -0.0248    0.0000 C   0  0  0  0  0  0  0  0  0  0  0  0
  -15.3466   -0.4883    0.0000 F   0  0  0  0  0  0  0  0  0  0  0  0
  -14.3836    1.4018    0.0000 F   0  0  0  0  0  0  0  0  0  0  0  0
  -13.4565   -1.4514    0.0000 F   0  0  0  0  0  0  0  0  0  0  0  0
  -11.3787   -0.5649    0.0000 C   0  0  0  0  0  0  0  0  0  0  0  0
   -6.6080   -3.1125    0.0000 C   0  0  0  0  0  0  0  0  0  0  0  0
   -5.4933   -4.1162    0.0000 C   0  0  0  0  0  0  0  0  0  0  0  0
   -4.0667   -3.6527    0.0000 C   0  0  0  0  0  0  0  0  0  0  0  0
   -2.6401   -3.1891    0.0000 C   0  0  0  0  0  0  0  0  0  0  0  0
   -1.2135   -2.7256    0.0000 C   0  0  0  0  0  0  0  0  0  0  0  0
   -0.0000   -3.6073    0.0000 C   0  0  0  0  0  0  0  0  0  0  0  0
    1.2135   -2.7256    0.0000 N   0  0  0  0  0  0  0  0  0  0  0  0
    0.7500   -1.2990    0.0000 C   0  0  0  0  0  0  0  0  0  0  0  0
    1.5000    0.0000    0.0000 C   0  0  0  0  0  0  0  0  0  0  0  0
    0.7500    1.2990    0.0000 C   0  0  0  0  0  0  0  0  0  0  0  0
   -0.7500    1.2990    0.0000 C   0  0  0  0  0  0  0  0  0  0  0  0
   -1.5000    0.0000    0.0000 N   0  0  0  0  0  0  0  0  0  0  0  0
   -0.7500   -1.2990    0.0000 N   0  0  0  0  0  0  0  0  0  0  0  0
  1  2  1  0
  2  3  2  0
  3  4  1  0
  4  5  2  0
  5  6  1  0
  6  7  2  0
  6  8  1  0
  8  9  1  0
  9 10  2  0
 10 11  1  0
 11 12  2  0
 12 13  1  0
 13 14  1  0
 14 15  1  0
 14 16  1  0
 14 17  1  0
 13 18  2  0
  5 19  1  0
 19 20  2  0
 20 21  1  0
 21 22  3  0
 22 23  1  0
 23 24  2  0
 24 25  1  0
 25 26  2  0
 26 27  1  0
 27 28  2  0
 28 29  1  0
 29 30  2  0
 30 31  1  0
 20  2  1  0
 31 23  1  0
 18  9  1  0
 31 26  1  0
M  END
>  <Compound_ID>  (12) 
CHEMBL1172720

>  <Active>  (12) 
1

>  <Smiles>  (12) 
Cc1ccc(C(=O)Nc2cccc(C(F)(F)F)c2)cc1C#Cc1cnc2cccnn12

>  <canonical_smi>  (12) 
Cc1ccc(C(=O)Nc2cccc(C(F)(F)F)c2)cc1C#Cc1cnc2cccnn12

>  <Set>  (12) 
G1 active

>  <Set_type>  (12) 
G1

>  <MW>  (12) 
420.39

>  <HBD>  (12) 
1

>  <HBA>  (12) 
3

>  <NRB>  (12) 
2

>  <NR>  (12) 
4

>  <NAR>  (12) 
4

>  <PSA>  (12) 
59.29

>  <Standard Type>  (12) 
nan

>  <Standard Relation>  (12) 
nan

>  <Standard Units>  (12) 
nan

>  <Standard Value>  (12) 
nan

>  <Assay ChEMBL ID>  (12) 
nan

>  <Assay Description>  (12) 
nan

>  <BAO Label>  (12) 
nan

$$$$

     RDKit          2D

 24 27  0  0  0  0  0  0  0  0999 V2000
    0.5734    8.1189    0.0000 C   0  0  0  0  0  0  0  0  0  0  0  0
   -0.5413    7.1152    0.0000 O   0  0  0  0  0  0  0  0  0  0  0  0
   -0.2294    5.6480    0.0000 C   0  0  0  0  0  0  0  0  0  0  0  0
   -1.3442    4.6443    0.0000 C   0  0  0  0  0  0  0  0  0  0  0  0
   -1.0323    3.1771    0.0000 C   0  0  0  0  0  0  0  0  0  0  0  0
    0.3943    2.7135    0.0000 C   0  0  0  0  0  0  0  0  0  0  0  0
    1.5090    3.7172    0.0000 C   0  0  0  0  0  0  0  0  0  0  0  0
    1.1971    5.1844    0.0000 C   0  0  0  0  0  0  0  0  0  0  0  0
    2.3119    6.1881    0.0000 O   0  0  0  0  0  0  0  0  0  0  0  0
    3.7385    5.7246    0.0000 C   0  0  0  0  0  0  0  0  0  0  0  0
    0.3943    1.2135    0.0000 C   0  0  0  0  0  0  0  0  0  0  0  0
    1.2760    0.0000    0.0000 N   0  0  0  0  0  0  0  0  0  0  0  0
    0.3943   -1.2135    0.0000 N   0  0  0  0  0  0  0  0  0  0  0  0
   -1.0323   -0.7500    0.0000 C   0  0  0  0  0  0  0  0  0  0  0  0
   -2.2458   -1.6317    0.0000 N   0  0  0  0  0  0  0  0  0  0  0  0
   -3.6161   -1.0216    0.0000 C   0  0  0  0  0  0  0  0  0  0  0  0
   -3.7729    0.4702    0.0000 C   0  0  0  0  0  0  0  0  0  0  0  0
   -5.1432    1.0803    0.0000 C   0  0  0  0  0  0  0  0  0  0  0  0
   -6.3568    0.1986    0.0000 C   0  0  0  0  0  0  0  0  0  0  0  0
   -6.2000   -1.2931    0.0000 C   0  0  0  0  0  0  0  0  0  0  0  0
   -7.4135   -2.1748    0.0000 F   0  0  0  0  0  0  0  0  0  0  0  0
   -4.8297   -1.9033    0.0000 C   0  0  0  0  0  0  0  0  0  0  0  0
   -1.0323    0.7500    0.0000 C   0  0  0  0  0  0  0  0  0  0  0  0
   -1.9140    1.9635    0.0000 C   0  0  0  0  0  0  0  0  0  0  0  0
  1  2  1  0
  2  3  1  0
  3  4  2  0
  4  5  1  0
  5  6  2  0
  6  7  1  0
  7  8  2  0
  8  9  1  0
  9 10  1  0
  6 11  1  0
 11 12  2  0
 12 13  1  0
 13 14  1  0
 14 15  1  0
 15 16  1  0
 16 17  2  0
 17 18  1  0
 18 19  2  0
 19 20  1  0
 20 21  1  0
 20 22  2  0
 14 23  2  0
 23 24  1  0
  8  3  1  0
 23 11  1  0
 24  5  1  0
 22 16  1  0
M  END
>  <Compound_ID>  (13) 
CHEMBL120077

>  <Active>  (13) 
1

>  <Smiles>  (13) 
COc1cc2c(cc1OC)-c1n[nH]c(Nc3cccc(F)c3)c1C2

>  <canonical_smi>  (13) 
COc1cc2c(cc1OC)-c1n[nH]c(Nc3cccc(F)c3)c1C2

>  <Set>  (13) 
G1 active

>  <Set_type>  (13) 
G1

>  <MW>  (13) 
325.34

>  <HBD>  (13) 
2

>  <HBA>  (13) 
4

>  <NRB>  (13) 
4

>  <NR>  (13) 
4

>  <NAR>  (13) 
4

>  <PSA>  (13) 
59.17

>  <Standard Type>  (13) 
nan

>  <Standard Relation>  (13) 
nan

>  <Standard Units>  (13) 
nan

>  <Standard Value>  (13) 
nan

>  <Assay ChEMBL ID>  (13) 
nan

>  <Assay Description>  (13) 
nan

>  <BAO Label>  (13) 
nan

$$$$

     RDKit          2D

 35 39  0  0  0  0  0  0  0  0999 V2000
    4.7960    2.1491    0.0000 C   0  0  0  0  0  0  0  0  0  0  0  0
    3.3287    1.8373    0.0000 O   0  0  0  0  0  0  0  0  0  0  0  0
    2.3250    2.9520    0.0000 C   0  0  0  0  0  0  0  0  0  0  0  0
    0.8578    2.6401    0.0000 C   0  0  0  0  0  0  0  0  0  0  0  0
   -0.1459    3.7548    0.0000 O   0  0  0  0  0  0  0  0  0  0  0  0
    0.3943    1.2135    0.0000 N   0  0  0  0  0  0  0  0  0  0  0  0
    1.2760    0.0000    0.0000 C   0  0  0  0  0  0  0  0  0  0  0  0
    0.3943   -1.2135    0.0000 C   0  0  0  0  0  0  0  0  0  0  0  0
    0.3943   -2.7135    0.0000 N   0  0  0  0  0  0  0  0  0  0  0  0
   -1.0323   -3.1771    0.0000 N   0  0  0  0  0  0  0  0  0  0  0  0
   -1.9140   -1.9635    0.0000 C   0  0  0  0  0  0  0  0  0  0  0  0
   -3.4140   -1.9635    0.0000 N   0  0  0  0  0  0  0  0  0  0  0  0
   -4.1640   -0.6645    0.0000 C   0  0  0  0  0  0  0  0  0  0  0  0
   -3.4140    0.6346    0.0000 O   0  0  0  0  0  0  0  0  0  0  0  0
   -5.6640   -0.6645    0.0000 C   0  0  0  0  0  0  0  0  0  0  0  0
   -6.4140    0.6346    0.0000 C   0  0  0  0  0  0  0  0  0  0  0  0
   -7.9140    0.6346    0.0000 C   0  0  0  0  0  0  0  0  0  0  0  0
   -8.6640   -0.6645    0.0000 C   0  0  0  0  0  0  0  0  0  0  0  0
  -10.1640   -0.6645    0.0000 N   0  0  0  0  0  0  0  0  0  0  0  0
  -10.9140    0.6346    0.0000 C   0  0  0  0  0  0  0  0  0  0  0  0
  -12.4140    0.6346    0.0000 C   0  0  0  0  0  0  0  0  0  0  0  0
  -13.1640   -0.6645    0.0000 N   0  0  0  0  0  0  0  0  0  0  0  0
  -14.6640   -0.6645    0.0000 C   0  0  0  0  0  0  0  0  0  0  0  0
  -12.4140   -1.9635    0.0000 C   0  0  0  0  0  0  0  0  0  0  0  0
  -10.9140   -1.9635    0.0000 C   0  0  0  0  0  0  0  0  0  0  0  0
   -7.9140   -1.9635    0.0000 C   0  0  0  0  0  0  0  0  0  0  0  0
   -6.4140   -1.9635    0.0000 C   0  0  0  0  0  0  0  0  0  0  0  0
   -1.0323   -0.7500    0.0000 C   0  0  0  0  0  0  0  0  0  0  0  0
   -1.0323    0.7500    0.0000 C   0  0  0  0  0  0  0  0  0  0  0  0
    2.7886    4.3786    0.0000 C   0  0  0  0  0  0  0  0  0  0  0  0
    4.2558    4.6904    0.0000 C   0  0  0  0  0  0  0  0  0  0  0  0
    4.7193    6.1170    0.0000 C   0  0  0  0  0  0  0  0  0  0  0  0
    3.7156    7.2317    0.0000 C   0  0  0  0  0  0  0  0  0  0  0  0
    2.2484    6.9199    0.0000 C   0  0  0  0  0  0  0  0  0  0  0  0
    1.7849    5.4933    0.0000 C   0  0  0  0  0  0  0  0  0  0  0  0
  1  2  1  0
  3  2  1  1
  3  4  1  0
  4  5  2  0
  4  6  1  0
  6  7  1  0
  7  8  1  0
  8  9  1  0
  9 10  1  0
 10 11  2  0
 11 12  1  0
 12 13  1  0
 13 14  2  0
 13 15  1  0
 15 16  2  0
 16 17  1  0
 17 18  2  0
 18 19  1  0
 19 20  1  0
 20 21  1  0
 21 22  1  0
 22 23  1  0
 22 24  1  0
 24 25  1  0
 18 26  1  0
 26 27  2  0
 11 28  1  0
 28 29  1  0
  3 30  1  0
 30 31  2  0
 31 32  1  0
 32 33  2  0
 33 34  1  0
 34 35  2  0
 29  6  1  0
 35 30  1  0
 28  8  2  0
 27 15  1  0
 25 19  1  0
M  END
>  <Compound_ID>  (14) 
CHEMBL402548

>  <Active>  (14) 
1

>  <Smiles>  (14) 
CO[C@@H](C(=O)N1Cc2[nH]nc(NC(=O)c3ccc(N4CCN(C)CC4)cc3)c2C1)c1ccccc1

>  <canonical_smi>  (14) 
CO[C@@H](C(=O)N1Cc2[nH]nc(NC(=O)c3ccc(N4CCN(C)CC4)cc3)c2C1)c1ccccc1

>  <Set>  (14) 
G1 active

>  <Set_type>  (14) 
G1

>  <MW>  (14) 
474.57

>  <HBD>  (14) 
2

>  <HBA>  (14) 
6

>  <NRB>  (14) 
6

>  <NR>  (14) 
5

>  <NAR>  (14) 
3

>  <PSA>  (14) 
93.8

>  <Standard Type>  (14) 
nan

>  <Standard Relation>  (14) 
nan

>  <Standard Units>  (14) 
nan

>  <Standard Value>  (14) 
nan

>  <Assay ChEMBL ID>  (14) 
nan

>  <Assay Description>  (14) 
nan

>  <BAO Label>  (14) 
nan

$$$$

     RDKit          2D

 35 42  0  0  0  0  0  0  0  0999 V2000
    7.0384   -5.9220    0.0000 C   0  0  0  0  0  0  0  0  0  0  0  0
    6.3474   -4.5907    0.0000 N   0  0  0  0  0  0  0  0  0  0  0  0
    4.8489   -4.5234    0.0000 C   0  0  0  0  0  0  0  0  0  0  0  0
    4.0414   -5.7874    0.0000 C   0  0  0  0  0  0  0  0  0  0  0  0
    2.5382   -5.8249    0.0000 C   0  0  0  0  0  0  0  0  0  0  0  0
    3.2490   -4.5040    0.0000 O   0  0  0  0  0  0  0  0  0  0  0  0
    2.6595   -3.1247    0.0000 C   0  0  0  0  0  0  0  0  0  0  0  0
    3.6464   -1.9951    0.0000 C   0  0  0  0  0  0  0  0  0  0  0  0
    4.1580   -3.1920    0.0000 C   0  0  0  0  0  0  0  0  0  0  0  0
    4.9655   -1.9279    0.0000 O   0  0  0  0  0  0  0  0  0  0  0  0
    6.4640   -1.9952    0.0000 C   0  0  0  0  0  0  0  0  0  0  0  0
    1.2135   -2.7256    0.0000 N   0  0  0  0  0  0  0  0  0  0  0  0
    0.7500   -1.2990    0.0000 C   0  0  0  0  0  0  0  0  0  0  0  0
    1.5000    0.0000    0.0000 C   0  0  0  0  0  0  0  0  0  0  0  0
    0.7500    1.2990    0.0000 C   0  0  0  0  0  0  0  0  0  0  0  0
   -0.7500    1.2990    0.0000 C   0  0  0  0  0  0  0  0  0  0  0  0
   -1.5000    0.0000    0.0000 C   0  0  0  0  0  0  0  0  0  0  0  0
   -0.7500   -1.2990    0.0000 C   0  0  0  0  0  0  0  0  0  0  0  0
   -1.2135   -2.7256    0.0000 C   0  0  0  0  0  0  0  0  0  0  0  0
   -2.5518   -3.5691    0.0000 C   0  0  0  0  0  0  0  0  0  0  0  0
   -2.6191   -5.0676    0.0000 C   0  0  0  0  0  0  0  0  0  0  0  0
   -1.3550   -5.8751    0.0000 C   0  0  0  0  0  0  0  0  0  0  0  0
   -1.0212   -7.3375    0.0000 C   0  0  0  0  0  0  0  0  0  0  0  0
   -1.8846   -8.5641    0.0000 C   0  0  0  0  0  0  0  0  0  0  0  0
   -1.2541   -9.9251    0.0000 C   0  0  0  0  0  0  0  0  0  0  0  0
    0.2399  -10.0596    0.0000 C   0  0  0  0  0  0  0  0  0  0  0  0
    1.1033   -8.8330    0.0000 C   0  0  0  0  0  0  0  0  0  0  0  0
    0.4728   -7.4720    0.0000 C   0  0  0  0  0  0  0  0  0  0  0  0
    1.0623   -6.0927    0.0000 N   0  0  0  0  0  0  0  0  0  0  0  0
   -0.0673   -5.1058    0.0000 C   0  0  0  0  0  0  0  0  0  0  0  0
   -0.0000   -3.6073    0.0000 C   0  0  0  0  0  0  0  0  0  0  0  0
   -4.0650   -5.4667    0.0000 C   0  0  0  0  0  0  0  0  0  0  0  0
   -4.5921   -6.8710    0.0000 O   0  0  0  0  0  0  0  0  0  0  0  0
   -4.8913   -4.2148    0.0000 N   0  0  0  0  0  0  0  0  0  0  0  0
   -3.9561   -3.0421    0.0000 C   0  0  0  0  0  0  0  0  0  0  0  0
  1  2  1  0
  3  2  1  6
  3  4  1  0
  4  5  1  0
  5  6  1  0
  6  7  1  0
  7  8  1  1
  7  9  1  0
  9 10  1  6
 10 11  1  0
  7 12  1  0
 12 13  1  0
 13 14  2  0
 14 15  1  0
 15 16  2  0
 16 17  1  0
 17 18  2  0
 18 19  1  0
 19 20  2  0
 20 21  1  0
 21 22  2  0
 22 23  1  0
 23 24  2  0
 24 25  1  0
 25 26  2  0
 26 27  1  0
 27 28  2  0
 28 29  1  0
 29 30  1  0
 30 31  2  0
 21 32  1  0
 32 33  2  0
 32 34  1  0
 34 35  1  0
  9  3  1  0
 31 12  1  0
 29  5  1  0
 18 13  1  0
 31 19  1  0
 35 20  1  0
 30 22  1  0
 28 23  1  0
M  END
>  <Compound_ID>  (15) 
CHEMBL162

>  <Active>  (15) 
1

>  <Smiles>  (15) 
CN[C@@H]1CC2O[C@@](C)([C@@H]1OC)n1c3ccccc3c3c4c(c5c6ccccc6n2c5c31)C(=O)NC4

>  <canonical_smi>  (15) 
CN[C@@H]1CC2O[C@@](C)([C@@H]1OC)n1c3ccccc3c3c4c(c5c6ccccc6n2c5c31)C(=O)NC4

>  <Set>  (15) 
G1 active

>  <Set_type>  (15) 
G1

>  <MW>  (15) 
466.54

>  <HBD>  (15) 
2

>  <HBA>  (15) 
4

>  <NRB>  (15) 
2

>  <NR>  (15) 
8

>  <NAR>  (15) 
5

>  <PSA>  (15) 
69.45

>  <Standard Type>  (15) 
nan

>  <Standard Relation>  (15) 
nan

>  <Standard Units>  (15) 
nan

>  <Standard Value>  (15) 
nan

>  <Assay ChEMBL ID>  (15) 
nan

>  <Assay Description>  (15) 
nan

>  <BAO Label>  (15) 
nan

$$$$

     RDKit          2D

 22 24  0  0  0  0  0  0  0  0999 V2000
    3.0000   -5.1962    0.0000 C   0  0  0  0  0  0  0  0  0  0  0  0
    1.5000   -5.1962    0.0000 O   0  0  0  0  0  0  0  0  0  0  0  0
    0.7500   -3.8971    0.0000 C   0  0  0  0  0  0  0  0  0  0  0  0
    1.5000   -2.5981    0.0000 C   0  0  0  0  0  0  0  0  0  0  0  0
    0.7500   -1.2990    0.0000 C   0  0  0  0  0  0  0  0  0  0  0  0
    1.5000    0.0000    0.0000 N   0  0  0  0  0  0  0  0  0  0  0  0
    0.7500    1.2990    0.0000 C   0  0  0  0  0  0  0  0  0  0  0  0
   -0.7500    1.2990    0.0000 N   0  0  0  0  0  0  0  0  0  0  0  0
   -1.5000    0.0000    0.0000 C   0  0  0  0  0  0  0  0  0  0  0  0
   -3.0000    0.0000    0.0000 N   0  0  0  0  0  0  0  0  0  0  0  0
   -3.7500    1.2990    0.0000 C   0  0  0  0  0  0  0  0  0  0  0  0
   -3.0000    2.5981    0.0000 C   0  0  0  0  0  0  0  0  0  0  0  0
   -3.7500    3.8971    0.0000 C   0  0  0  0  0  0  0  0  0  0  0  0
   -5.2500    3.8971    0.0000 C   0  0  0  0  0  0  0  0  0  0  0  0
   -6.0000    2.5981    0.0000 C   0  0  0  0  0  0  0  0  0  0  0  0
   -7.5000    2.5981    0.0000 Br  0  0  0  0  0  0  0  0  0  0  0  0
   -5.2500    1.2990    0.0000 C   0  0  0  0  0  0  0  0  0  0  0  0
   -0.7500   -1.2990    0.0000 C   0  0  0  0  0  0  0  0  0  0  0  0
   -1.5000   -2.5981    0.0000 C   0  0  0  0  0  0  0  0  0  0  0  0
   -0.7500   -3.8971    0.0000 C   0  0  0  0  0  0  0  0  0  0  0  0
   -1.5000   -5.1962    0.0000 O   0  0  0  0  0  0  0  0  0  0  0  0
   -3.0000   -5.1962    0.0000 C   0  0  0  0  0  0  0  0  0  0  0  0
  1  2  1  0
  2  3  1  0
  3  4  2  0
  4  5  1  0
  5  6  2  0
  6  7  1  0
  7  8  2  0
  8  9  1  0
  9 10  1  0
 10 11  1  0
 11 12  2  0
 12 13  1  0
 13 14  2  0
 14 15  1  0
 15 16  1  0
 15 17  2  0
  9 18  2  0
 18 19  1  0
 19 20  2  0
 20 21  1  0
 21 22  1  0
 20  3  1  0
 18  5  1  0
 17 11  1  0
M  END
>  <Compound_ID>  (16) 
CHEMBL29197

>  <Active>  (16) 
1

>  <Smiles>  (16) 
COc1cc2ncnc(Nc3cccc(Br)c3)c2cc1OC

>  <canonical_smi>  (16) 
COc1cc2ncnc(Nc3cccc(Br)c3)c2cc1OC

>  <Set>  (16) 
G1 active

>  <Set_type>  (16) 
G1

>  <MW>  (16) 
360.21

>  <HBD>  (16) 
1

>  <HBA>  (16) 
5

>  <NRB>  (16) 
4

>  <NR>  (16) 
3

>  <NAR>  (16) 
3

>  <PSA>  (16) 
56.27

>  <Standard Type>  (16) 
nan

>  <Standard Relation>  (16) 
nan

>  <Standard Units>  (16) 
nan

>  <Standard Value>  (16) 
nan

>  <Assay ChEMBL ID>  (16) 
nan

>  <Assay Description>  (16) 
nan

>  <BAO Label>  (16) 
nan

$$$$

     RDKit          2D

 38 43  0  0  0  0  0  0  0  0999 V2000
  -10.5000    5.1962    0.0000 C   0  0  0  0  0  0  0  0  0  0  0  0
   -9.7500    3.8971    0.0000 N   0  0  0  0  0  0  0  0  0  0  0  0
   -8.2500    3.8971    0.0000 C   0  0  0  0  0  0  0  0  0  0  0  0
   -7.5000    2.5981    0.0000 C   0  0  0  0  0  0  0  0  0  0  0  0
   -8.2500    1.2990    0.0000 N   0  0  0  0  0  0  0  0  0  0  0  0
   -7.5000    0.0000    0.0000 C   0  0  0  0  0  0  0  0  0  0  0  0
   -6.0000    0.0000    0.0000 C   0  0  0  0  0  0  0  0  0  0  0  0
   -5.2500   -1.2990    0.0000 O   0  0  0  0  0  0  0  0  0  0  0  0
   -3.7500   -1.2990    0.0000 C   0  0  0  0  0  0  0  0  0  0  0  0
   -3.0000   -2.5981    0.0000 C   0  0  0  0  0  0  0  0  0  0  0  0
   -1.5000   -2.5981    0.0000 C   0  0  0  0  0  0  0  0  0  0  0  0
   -0.7500   -3.8971    0.0000 O   0  0  0  0  0  0  0  0  0  0  0  0
   -1.5000   -5.1962    0.0000 C   0  0  0  0  0  0  0  0  0  0  0  0
   -3.0000   -5.1962    0.0000 C   0  0  0  0  0  0  0  0  0  0  0  0
   -3.7500   -6.4952    0.0000 C   0  0  0  0  0  0  0  0  0  0  0  0
   -3.0000   -7.7942    0.0000 O   0  0  0  0  0  0  0  0  0  0  0  0
   -1.5000   -7.7942    0.0000 C   0  0  0  0  0  0  0  0  0  0  0  0
   -0.7500   -6.4952    0.0000 C   0  0  0  0  0  0  0  0  0  0  0  0
   -0.7500   -1.2990    0.0000 C   0  0  0  0  0  0  0  0  0  0  0  0
    0.7500   -1.2990    0.0000 C   0  0  0  0  0  0  0  0  0  0  0  0
    1.5000   -2.5981    0.0000 N   0  0  0  0  0  0  0  0  0  0  0  0
    3.0000   -2.5981    0.0000 C   0  0  0  0  0  0  0  0  0  0  0  0
    3.7500   -1.2990    0.0000 C   0  0  0  0  0  0  0  0  0  0  0  0
    3.0000    0.0000    0.0000 Cl  0  0  0  0  0  0  0  0  0  0  0  0
    5.2500   -1.2990    0.0000 C   0  0  0  0  0  0  0  0  0  0  0  0
    6.0000   -2.5981    0.0000 C   0  0  0  0  0  0  0  0  0  0  0  0
    5.2500   -3.8971    0.0000 C   0  0  0  0  0  0  0  0  0  0  0  0
    3.7500   -3.8971    0.0000 C   0  0  0  0  0  0  0  0  0  0  0  0
    3.2865   -5.3237    0.0000 O   0  0  0  0  0  0  0  0  0  0  0  0
    4.5000   -6.2054    0.0000 C   0  0  0  0  0  0  0  0  0  0  0  0
    5.7135   -5.3237    0.0000 O   0  0  0  0  0  0  0  0  0  0  0  0
    1.5000    0.0000    0.0000 N   0  0  0  0  0  0  0  0  0  0  0  0
    0.7500    1.2990    0.0000 C   0  0  0  0  0  0  0  0  0  0  0  0
   -0.7500    1.2990    0.0000 N   0  0  0  0  0  0  0  0  0  0  0  0
   -1.5000    0.0000    0.0000 C   0  0  0  0  0  0  0  0  0  0  0  0
   -3.0000    0.0000    0.0000 C   0  0  0  0  0  0  0  0  0  0  0  0
   -9.7500    1.2990    0.0000 C   0  0  0  0  0  0  0  0  0  0  0  0
  -10.5000    2.5981    0.0000 C   0  0  0  0  0  0  0  0  0  0  0  0
  1  2  1  0
  2  3  1  0
  3  4  1  0
  4  5  1  0
  5  6  1  0
  6  7  1  0
  7  8  1  0
  8  9  1  0
  9 10  2  0
 10 11  1  0
 11 12  1  0
 12 13  1  0
 13 14  1  0
 14 15  1  0
 15 16  1  0
 16 17  1  0
 17 18  1  0
 11 19  2  0
 19 20  1  0
 20 21  1  0
 21 22  1  0
 22 23  2  0
 23 24  1  0
 23 25  1  0
 25 26  2  0
 26 27  1  0
 27 28  2  0
 28 29  1  0
 29 30  1  0
 30 31  1  0
 20 32  2  0
 32 33  1  0
 33 34  2  0
 34 35  1  0
 35 36  2  0
  5 37  1  0
 37 38  1  0
 38  2  1  0
 36  9  1  0
 18 13  1  0
 35 19  1  0
 28 22  1  0
 31 27  1  0
M  END
>  <Compound_ID>  (17) 
CHEMBL217092

>  <Active>  (17) 
1

>  <Smiles>  (17) 
CN1CCN(CCOc2cc(OC3CCOCC3)c3c(Nc4c(Cl)ccc5c4OCO5)ncnc3c2)CC1

>  <canonical_smi>  (17) 
CN1CCN(CCOc2cc(OC3CCOCC3)c3c(Nc4c(Cl)ccc5c4OCO5)ncnc3c2)CC1

>  <Set>  (17) 
G1 active

>  <Set_type>  (17) 
G1

>  <MW>  (17) 
542.04

>  <HBD>  (17) 
1

>  <HBA>  (17) 
10

>  <NRB>  (17) 
8

>  <NR>  (17) 
6

>  <NAR>  (17) 
3

>  <PSA>  (17) 
90.44

>  <Standard Type>  (17) 
nan

>  <Standard Relation>  (17) 
nan

>  <Standard Units>  (17) 
nan

>  <Standard Value>  (17) 
nan

>  <Assay ChEMBL ID>  (17) 
nan

>  <Assay Description>  (17) 
nan

>  <BAO Label>  (17) 
nan

$$$$

     RDKit          2D

 35 39  0  0  0  0  0  0  0  0999 V2000
    0.3177    5.1814    0.0000 C   0  0  0  0  0  0  0  0  0  0  0  0
    1.7849    5.4933    0.0000 C   0  0  0  0  0  0  0  0  0  0  0  0
    2.2484    6.9199    0.0000 C   0  0  0  0  0  0  0  0  0  0  0  0
    3.7156    7.2317    0.0000 C   0  0  0  0  0  0  0  0  0  0  0  0
    4.7193    6.1170    0.0000 C   0  0  0  0  0  0  0  0  0  0  0  0
    4.2558    4.6904    0.0000 C   0  0  0  0  0  0  0  0  0  0  0  0
    5.2595    3.5757    0.0000 C   0  0  0  0  0  0  0  0  0  0  0  0
    2.7886    4.3786    0.0000 C   0  0  0  0  0  0  0  0  0  0  0  0
    2.3250    2.9520    0.0000 C   0  0  0  0  0  0  0  0  0  0  0  0
    0.8578    2.6401    0.0000 C   0  0  0  0  0  0  0  0  0  0  0  0
    0.3943    1.2135    0.0000 N   0  0  0  0  0  0  0  0  0  0  0  0
    1.2760    0.0000    0.0000 C   0  0  0  0  0  0  0  0  0  0  0  0
    0.3943   -1.2135    0.0000 N   0  0  0  0  0  0  0  0  0  0  0  0
   -1.0323   -0.7500    0.0000 C   0  0  0  0  0  0  0  0  0  0  0  0
   -2.3313   -1.5000    0.0000 C   0  0  0  0  0  0  0  0  0  0  0  0
   -2.3313   -3.0000    0.0000 N   0  0  0  0  0  0  0  0  0  0  0  0
   -3.6304   -3.7500    0.0000 C   0  0  0  0  0  0  0  0  0  0  0  0
   -4.9294   -3.0000    0.0000 C   0  0  0  0  0  0  0  0  0  0  0  0
   -6.2284   -3.7500    0.0000 C   0  0  0  0  0  0  0  0  0  0  0  0
   -6.2284   -5.2500    0.0000 C   0  0  0  0  0  0  0  0  0  0  0  0
   -7.5275   -6.0000    0.0000 P   0  0  0  0  0  0  0  0  0  0  0  0
   -6.7775   -7.2990    0.0000 C   0  0  0  0  0  0  0  0  0  0  0  0
   -8.2775   -4.7010    0.0000 C   0  0  0  0  0  0  0  0  0  0  0  0
   -8.8265   -6.7500    0.0000 O   0  0  0  0  0  0  0  0  0  0  0  0
   -4.9294   -6.0000    0.0000 C   0  0  0  0  0  0  0  0  0  0  0  0
   -3.6304   -5.2500    0.0000 C   0  0  0  0  0  0  0  0  0  0  0  0
   -3.6304   -0.7500    0.0000 N   0  0  0  0  0  0  0  0  0  0  0  0
   -3.6304    0.7500    0.0000 C   0  0  0  0  0  0  0  0  0  0  0  0
   -4.9294    1.5000    0.0000 C   0  0  0  0  0  0  0  0  0  0  0  0
   -6.2997    0.8899    0.0000 C   0  0  0  0  0  0  0  0  0  0  0  0
   -7.3034    2.0046    0.0000 C   0  0  0  0  0  0  0  0  0  0  0  0
   -6.5534    3.3037    0.0000 C   0  0  0  0  0  0  0  0  0  0  0  0
   -5.0862    2.9918    0.0000 C   0  0  0  0  0  0  0  0  0  0  0  0
   -2.3313    1.5000    0.0000 N   0  0  0  0  0  0  0  0  0  0  0  0
   -1.0323    0.7500    0.0000 C   0  0  0  0  0  0  0  0  0  0  0  0
  1  2  1  0
  2  3  2  0
  3  4  1  0
  4  5  2  0
  5  6  1  0
  6  7  1  0
  6  8  2  0
  8  9  1  0
  9 10  2  0
 10 11  1  0
 11 12  1  0
 12 13  2  0
 13 14  1  0
 14 15  2  0
 15 16  1  0
 16 17  1  0
 17 18  2  0
 18 19  1  0
 19 20  2  0
 20 21  1  0
 21 22  1  0
 21 23  1  0
 21 24  2  0
 20 25  1  0
 25 26  2  0
 15 27  1  0
 27 28  2  0
 28 29  1  0
 29 30  1  0
 30 31  1  0
 31 32  1  0
 32 33  1  0
 28 34  1  0
 34 35  2  0
  8  2  1  0
 35 11  1  0
 35 14  1  0
 26 17  1  0
 33 29  1  0
M  END
>  <Compound_ID>  (18) 
CHEMBL460074

>  <Active>  (18) 
1

>  <Smiles>  (18) 
Cc1cccc(C)c1/C=C/n1cnc2c(Nc3ccc(P(C)(C)=O)cc3)nc(C3CCCC3)nc21

>  <canonical_smi>  (18) 
Cc1cccc(C)c1/C=C/n1cnc2c(Nc3ccc(P(C)(C)=O)cc3)nc(C3CCCC3)nc21

>  <Set>  (18) 
G1 active

>  <Set_type>  (18) 
G1

>  <MW>  (18) 
485.57

>  <HBD>  (18) 
1

>  <HBA>  (18) 
5

>  <NRB>  (18) 
6

>  <NR>  (18) 
5

>  <NAR>  (18) 
4

>  <PSA>  (18) 
72.7

>  <Standard Type>  (18) 
nan

>  <Standard Relation>  (18) 
nan

>  <Standard Units>  (18) 
nan

>  <Standard Value>  (18) 
nan

>  <Assay ChEMBL ID>  (18) 
nan

>  <Assay Description>  (18) 
nan

>  <BAO Label>  (18) 
nan

$$$$

     RDKit          2D

 37 41  0  0  0  0  0  0  0  0999 V2000
  -15.3217   -3.0000    0.0000 C   0  0  0  0  0  0  0  0  0  0  0  0
  -14.0227   -3.7500    0.0000 C   0  0  0  0  0  0  0  0  0  0  0  0
  -14.0227   -5.2500    0.0000 C   0  0  0  0  0  0  0  0  0  0  0  0
  -12.7236   -3.0000    0.0000 C   0  0  0  0  0  0  0  0  0  0  0  0
  -11.4246   -3.7500    0.0000 O   0  0  0  0  0  0  0  0  0  0  0  0
  -10.1256   -3.0000    0.0000 C   0  0  0  0  0  0  0  0  0  0  0  0
  -10.1256   -1.5000    0.0000 O   0  0  0  0  0  0  0  0  0  0  0  0
   -8.8265   -3.7500    0.0000 N   0  0  0  0  0  0  0  0  0  0  0  0
   -7.5275   -3.0000    0.0000 C   0  0  0  0  0  0  0  0  0  0  0  0
   -7.5275   -1.5000    0.0000 C   0  0  0  0  0  0  0  0  0  0  0  0
   -6.2284   -0.7500    0.0000 C   0  0  0  0  0  0  0  0  0  0  0  0
   -4.9294   -1.5000    0.0000 C   0  0  0  0  0  0  0  0  0  0  0  0
   -3.6304   -0.7500    0.0000 C   0  0  0  0  0  0  0  0  0  0  0  0
   -3.6304    0.7500    0.0000 C   0  0  0  0  0  0  0  0  0  0  0  0
   -2.3313    1.5000    0.0000 N   0  0  0  0  0  0  0  0  0  0  0  0
   -1.0323    0.7500    0.0000 C   0  0  0  0  0  0  0  0  0  0  0  0
    0.3943    1.2135    0.0000 C   0  0  0  0  0  0  0  0  0  0  0  0
    0.8578    2.6401    0.0000 C   0  0  0  0  0  0  0  0  0  0  0  0
    2.3250    2.9520    0.0000 C   0  0  0  0  0  0  0  0  0  0  0  0
    2.7886    4.3786    0.0000 C   0  0  0  0  0  0  0  0  0  0  0  0
    1.7849    5.4933    0.0000 C   0  0  0  0  0  0  0  0  0  0  0  0
    2.2484    6.9199    0.0000 N   0  0  0  0  0  0  0  0  0  0  0  0
    3.7156    7.2317    0.0000 C   0  0  0  0  0  0  0  0  0  0  0  0
    4.1791    8.6583    0.0000 C   0  0  0  0  0  0  0  0  0  0  0  0
    3.1755    9.7730    0.0000 N   0  0  0  0  0  0  0  0  0  0  0  0
    3.6390   11.1996    0.0000 C   0  0  0  0  0  0  0  0  0  0  0  0
    1.7082    9.4612    0.0000 C   0  0  0  0  0  0  0  0  0  0  0  0
    1.2447    8.0346    0.0000 C   0  0  0  0  0  0  0  0  0  0  0  0
    0.3177    5.1814    0.0000 C   0  0  0  0  0  0  0  0  0  0  0  0
   -0.1459    3.7548    0.0000 C   0  0  0  0  0  0  0  0  0  0  0  0
    1.2760    0.0000    0.0000 C   0  0  0  0  0  0  0  0  0  0  0  0
    0.3943   -1.2135    0.0000 N   0  0  0  0  0  0  0  0  0  0  0  0
   -1.0323   -0.7500    0.0000 N   0  0  0  0  0  0  0  0  0  0  0  0
   -2.3313   -1.5000    0.0000 C   0  0  0  0  0  0  0  0  0  0  0  0
   -2.3313   -3.0000    0.0000 N   0  0  0  0  0  0  0  0  0  0  0  0
   -4.9294   -3.0000    0.0000 C   0  0  0  0  0  0  0  0  0  0  0  0
   -6.2284   -3.7500    0.0000 C   0  0  0  0  0  0  0  0  0  0  0  0
  1  2  1  0
  2  3  1  0
  2  4  1  0
  4  5  1  0
  5  6  1  0
  6  7  2  0
  6  8  1  0
  8  9  1  0
  9 10  2  0
 10 11  1  0
 11 12  2  0
 12 13  1  0
 13 14  1  0
 14 15  2  0
 15 16  1  0
 16 17  2  0
 17 18  1  0
 18 19  2  0
 19 20  1  0
 20 21  2  0
 21 22  1  0
 22 23  1  0
 23 24  1  0
 24 25  1  0
 25 26  1  0
 25 27  1  0
 27 28  1  0
 21 29  1  0
 29 30  2  0
 17 31  1  0
 31 32  2  0
 32 33  1  0
 33 34  1  0
 34 35  1  0
 12 36  1  0
 36 37  2  0
 37  9  1  0
 34 13  2  0
 33 16  1  0
 30 18  1  0
 28 22  1  0
M  END
>  <Compound_ID>  (19) 
CHEMBL1085511

>  <Active>  (19) 
1

>  <Smiles>  (19) 
CC(C)COC(=O)Nc1ccc(-c2cnc3c(-c4ccc(N5CCN(C)CC5)cc4)cnn3c2N)cc1

>  <canonical_smi>  (19) 
CC(C)COC(=O)Nc1ccc(-c2cnc3c(-c4ccc(N5CCN(C)CC5)cc4)cnn3c2N)cc1

>  <Set>  (19) 
G1 active

>  <Set_type>  (19) 
G1

>  <MW>  (19) 
499.62

>  <HBD>  (19) 
2

>  <HBA>  (19) 
7

>  <NRB>  (19) 
6

>  <NR>  (19) 
5

>  <NAR>  (19) 
4

>  <PSA>  (19) 
101.02

>  <Standard Type>  (19) 
nan

>  <Standard Relation>  (19) 
nan

>  <Standard Units>  (19) 
nan

>  <Standard Value>  (19) 
nan

>  <Assay ChEMBL ID>  (19) 
nan

>  <Assay Description>  (19) 
nan

>  <BAO Label>  (19) 
nan

$$$$

     RDKit          2D

 37 40  0  0  0  0  0  0  0  0999 V2000
    5.2500   -1.2990    0.0000 C   0  0  0  0  0  0  0  0  0  0  0  0
    3.7500   -1.2990    0.0000 N   0  0  0  0  0  0  0  0  0  0  0  0
    3.0000    0.0000    0.0000 C   0  0  0  0  0  0  0  0  0  0  0  0
    3.7500    1.2990    0.0000 O   0  0  0  0  0  0  0  0  0  0  0  0
    1.5000    0.0000    0.0000 C   0  0  0  0  0  0  0  0  0  0  0  0
    0.7500   -1.2990    0.0000 C   0  0  0  0  0  0  0  0  0  0  0  0
   -0.7500   -1.2990    0.0000 C   0  0  0  0  0  0  0  0  0  0  0  0
   -1.5000   -2.5981    0.0000 O   0  0  0  0  0  0  0  0  0  0  0  0
   -3.0000   -2.5981    0.0000 C   0  0  0  0  0  0  0  0  0  0  0  0
   -3.7500   -1.2990    0.0000 C   0  0  0  0  0  0  0  0  0  0  0  0
   -5.2500   -1.2990    0.0000 C   0  0  0  0  0  0  0  0  0  0  0  0
   -6.0000   -2.5981    0.0000 C   0  0  0  0  0  0  0  0  0  0  0  0
   -7.5000   -2.5981    0.0000 N   0  0  0  0  0  0  0  0  0  0  0  0
   -8.2500   -1.2990    0.0000 C   0  0  0  0  0  0  0  0  0  0  0  0
   -7.5000    0.0000    0.0000 O   0  0  0  0  0  0  0  0  0  0  0  0
   -9.7500   -1.2990    0.0000 N   0  0  0  0  0  0  0  0  0  0  0  0
  -10.5000    0.0000    0.0000 C   0  0  0  0  0  0  0  0  0  0  0  0
   -9.8899    1.3703    0.0000 C   0  0  0  0  0  0  0  0  0  0  0  0
  -11.0046    2.3740    0.0000 C   0  0  0  0  0  0  0  0  0  0  0  0
  -10.8478    3.8658    0.0000 C   0  0  0  0  0  0  0  0  0  0  0  0
  -12.3396    4.0226    0.0000 C   0  0  0  0  0  0  0  0  0  0  0  0
   -9.3560    3.7090    0.0000 C   0  0  0  0  0  0  0  0  0  0  0  0
  -10.6910    5.3576    0.0000 C   0  0  0  0  0  0  0  0  0  0  0  0
  -12.3037    1.6240    0.0000 N   0  0  0  0  0  0  0  0  0  0  0  0
  -11.9918    0.1568    0.0000 N   0  0  0  0  0  0  0  0  0  0  0  0
  -12.9955   -0.9579    0.0000 C   0  0  0  0  0  0  0  0  0  0  0  0
  -14.4627   -0.6461    0.0000 C   0  0  0  0  0  0  0  0  0  0  0  0
  -15.4664   -1.7608    0.0000 C   0  0  0  0  0  0  0  0  0  0  0  0
  -15.0029   -3.1874    0.0000 C   0  0  0  0  0  0  0  0  0  0  0  0
  -16.0066   -4.3021    0.0000 C   0  0  0  0  0  0  0  0  0  0  0  0
  -13.5356   -3.4992    0.0000 C   0  0  0  0  0  0  0  0  0  0  0  0
  -12.5320   -2.3845    0.0000 C   0  0  0  0  0  0  0  0  0  0  0  0
   -5.2500   -3.8971    0.0000 C   0  0  0  0  0  0  0  0  0  0  0  0
   -3.7500   -3.8971    0.0000 C   0  0  0  0  0  0  0  0  0  0  0  0
   -1.5000    0.0000    0.0000 C   0  0  0  0  0  0  0  0  0  0  0  0
   -0.7500    1.2990    0.0000 C   0  0  0  0  0  0  0  0  0  0  0  0
    0.7500    1.2990    0.0000 N   0  0  0  0  0  0  0  0  0  0  0  0
  1  2  1  0
  2  3  1  0
  3  4  2  0
  3  5  1  0
  5  6  2  0
  6  7  1  0
  7  8  1  0
  8  9  1  0
  9 10  2  0
 10 11  1  0
 11 12  2  0
 12 13  1  0
 13 14  1  0
 14 15  2  0
 14 16  1  0
 16 17  1  0
 17 18  2  0
 18 19  1  0
 19 20  1  0
 20 21  1  0
 20 22  1  0
 20 23  1  0
 19 24  2  0
 24 25  1  0
 25 26  1  0
 26 27  2  0
 27 28  1  0
 28 29  2  0
 29 30  1  0
 29 31  1  0
 31 32  2  0
 12 33  1  0
 33 34  2  0
  7 35  2  0
 35 36  1  0
 36 37  2  0
 37  5  1  0
 34  9  1  0
 25 17  1  0
 32 26  1  0
M  END
>  <Compound_ID>  (20) 
CHEMBL1213974

>  <Active>  (20) 
1

>  <Smiles>  (20) 
CNC(=O)c1cc(Oc2ccc(NC(=O)Nc3cc(C(C)(C)C)nn3-c3ccc(C)cc3)cc2)ccn1

>  <canonical_smi>  (20) 
CNC(=O)c1cc(Oc2ccc(NC(=O)Nc3cc(C(C)(C)C)nn3-c3ccc(C)cc3)cc2)ccn1

>  <Set>  (20) 
G1 active

>  <Set_type>  (20) 
G1

>  <MW>  (20) 
498.59

>  <HBD>  (20) 
3

>  <HBA>  (20) 
5

>  <NRB>  (20) 
6

>  <NR>  (20) 
4

>  <NAR>  (20) 
4

>  <PSA>  (20) 
110.17

>  <Standard Type>  (20) 
nan

>  <Standard Relation>  (20) 
nan

>  <Standard Units>  (20) 
nan

>  <Standard Value>  (20) 
nan

>  <Assay ChEMBL ID>  (20) 
nan

>  <Assay Description>  (20) 
nan

>  <BAO Label>  (20) 
nan

$$$$

     RDKit          2D

 27 29  0  0  0  0  0  0  0  0999 V2000
    0.4022   -7.7629    0.0000 N   0  0  0  0  0  0  0  0  0  0  0  0
    0.2454   -6.2711    0.0000 C   0  0  0  0  0  0  0  0  0  0  0  0
    1.3601   -5.2674    0.0000 N   0  0  0  0  0  0  0  0  0  0  0  0
    0.7500   -3.8971    0.0000 C   0  0  0  0  0  0  0  0  0  0  0  0
    1.5000   -2.5981    0.0000 N   0  0  0  0  0  0  0  0  0  0  0  0
    0.7500   -1.2990    0.0000 C   0  0  0  0  0  0  0  0  0  0  0  0
    1.5000    0.0000    0.0000 C   0  0  0  0  0  0  0  0  0  0  0  0
    0.7500    1.2990    0.0000 C   0  0  0  0  0  0  0  0  0  0  0  0
   -0.7500    1.2990    0.0000 C   0  0  0  0  0  0  0  0  0  0  0  0
   -1.5000    2.5981    0.0000 S   0  0  0  0  0  0  0  0  0  0  0  0
   -2.2500    3.8971    0.0000 N   0  0  0  0  0  0  0  0  0  0  0  0
   -0.2010    3.3481    0.0000 O   0  0  0  0  0  0  0  0  0  0  0  0
   -2.7990    1.8481    0.0000 O   0  0  0  0  0  0  0  0  0  0  0  0
   -1.5000    0.0000    0.0000 C   0  0  0  0  0  0  0  0  0  0  0  0
   -0.7500   -1.2990    0.0000 C   0  0  0  0  0  0  0  0  0  0  0  0
   -0.7418   -4.0539    0.0000 N   0  0  0  0  0  0  0  0  0  0  0  0
   -1.0537   -5.5211    0.0000 N   0  0  0  0  0  0  0  0  0  0  0  0
   -2.4240   -6.1312    0.0000 C   0  0  0  0  0  0  0  0  0  0  0  0
   -2.5808   -7.6230    0.0000 O   0  0  0  0  0  0  0  0  0  0  0  0
   -3.6375   -5.2496    0.0000 C   0  0  0  0  0  0  0  0  0  0  0  0
   -3.4807   -3.7578    0.0000 C   0  0  0  0  0  0  0  0  0  0  0  0
   -2.1104   -3.1477    0.0000 F   0  0  0  0  0  0  0  0  0  0  0  0
   -4.6942   -2.8761    0.0000 C   0  0  0  0  0  0  0  0  0  0  0  0
   -6.0645   -3.4862    0.0000 C   0  0  0  0  0  0  0  0  0  0  0  0
   -6.2213   -4.9780    0.0000 C   0  0  0  0  0  0  0  0  0  0  0  0
   -5.0078   -5.8597    0.0000 C   0  0  0  0  0  0  0  0  0  0  0  0
   -5.1646   -7.3514    0.0000 F   0  0  0  0  0  0  0  0  0  0  0  0
  1  2  1  0
  2  3  2  0
  3  4  1  0
  4  5  1  0
  5  6  1  0
  6  7  2  0
  7  8  1  0
  8  9  2  0
  9 10  1  0
 10 11  1  0
 10 12  2  0
 10 13  2  0
  9 14  1  0
 14 15  2  0
  4 16  2  0
 16 17  1  0
 17 18  1  0
 18 19  2  0
 18 20  1  0
 20 21  2  0
 21 22  1  0
 21 23  1  0
 23 24  2  0
 24 25  1  0
 25 26  2  0
 26 27  1  0
 17  2  1  0
 26 20  1  0
 15  6  1  0
M  END
>  <Compound_ID>  (21) 
CHEMBL191003

>  <Active>  (21) 
1

>  <Smiles>  (21) 
Nc1nc(Nc2ccc(S(N)(=O)=O)cc2)nn1C(=O)c1c(F)cccc1F

>  <canonical_smi>  (21) 
Nc1nc(Nc2ccc(S(N)(=O)=O)cc2)nn1C(=O)c1c(F)cccc1F

>  <Set>  (21) 
G1 active

>  <Set_type>  (21) 
G1

>  <MW>  (21) 
394.36

>  <HBD>  (21) 
3

>  <HBA>  (21) 
7

>  <NRB>  (21) 
4

>  <NR>  (21) 
3

>  <NAR>  (21) 
3

>  <PSA>  (21) 
145.99

>  <Standard Type>  (21) 
nan

>  <Standard Relation>  (21) 
nan

>  <Standard Units>  (21) 
nan

>  <Standard Value>  (21) 
nan

>  <Assay ChEMBL ID>  (21) 
nan

>  <Assay Description>  (21) 
nan

>  <BAO Label>  (21) 
nan

$$$$

     RDKit          2D

 36 41  0  0  0  0  0  0  0  0999 V2000
    0.7500   -6.4952    0.0000 F   0  0  0  0  0  0  0  0  0  0  0  0
    1.5000   -5.1962    0.0000 C   0  0  0  0  0  0  0  0  0  0  0  0
    0.7500   -3.8971    0.0000 C   0  0  0  0  0  0  0  0  0  0  0  0
    1.5000   -2.5981    0.0000 C   0  0  0  0  0  0  0  0  0  0  0  0
    0.7500   -1.2990    0.0000 C   0  0  0  0  0  0  0  0  0  0  0  0
    1.5000    0.0000    0.0000 C   0  0  0  0  0  0  0  0  0  0  0  0
    0.7500    1.2990    0.0000 C   0  0  0  0  0  0  0  0  0  0  0  0
   -0.7500    1.2990    0.0000 C   0  0  0  0  0  0  0  0  0  0  0  0
   -1.5000    0.0000    0.0000 C   0  0  0  0  0  0  0  0  0  0  0  0
   -3.0000    0.0000    0.0000 N   0  0  0  0  0  0  0  0  0  0  0  0
   -3.7500   -1.2990    0.0000 C   0  0  0  0  0  0  0  0  0  0  0  0
   -3.0000   -2.5981    0.0000 C   0  0  0  0  0  0  0  0  0  0  0  0
   -3.7500   -3.8971    0.0000 C   0  0  0  0  0  0  0  0  0  0  0  0
   -3.1399   -5.2674    0.0000 C   0  0  0  0  0  0  0  0  0  0  0  0
   -4.2546   -6.2711    0.0000 N   0  0  0  0  0  0  0  0  0  0  0  0
   -5.5537   -5.5211    0.0000 N   0  0  0  0  0  0  0  0  0  0  0  0
   -6.9240   -6.1312    0.0000 C   0  0  0  0  0  0  0  0  0  0  0  0
   -8.1375   -5.2496    0.0000 C   0  0  0  0  0  0  0  0  0  0  0  0
   -9.5078   -5.8597    0.0000 C   0  0  0  0  0  0  0  0  0  0  0  0
   -9.6646   -7.3514    0.0000 N   0  0  0  0  0  0  0  0  0  0  0  0
   -8.4511   -8.2331    0.0000 C   0  0  0  0  0  0  0  0  0  0  0  0
   -7.0808   -7.6230    0.0000 C   0  0  0  0  0  0  0  0  0  0  0  0
   -5.2418   -4.0539    0.0000 C   0  0  0  0  0  0  0  0  0  0  0  0
   -1.5000   -2.5981    0.0000 N   0  0  0  0  0  0  0  0  0  0  0  0
   -0.7500   -1.2990    0.0000 C   0  0  0  0  0  0  0  0  0  0  0  0
    3.0000   -2.5981    0.0000 C   0  0  0  0  0  0  0  0  0  0  0  0
    3.7500   -3.8971    0.0000 C   0  0  0  0  0  0  0  0  0  0  0  0
    5.2500   -3.8971    0.0000 F   0  0  0  0  0  0  0  0  0  0  0  0
    3.0000   -5.1962    0.0000 C   0  0  0  0  0  0  0  0  0  0  0  0
    3.7500   -6.4952    0.0000 C   0  0  0  0  0  0  0  0  0  0  0  0
    3.0000   -7.7942    0.0000 N   0  0  0  0  0  0  0  0  0  0  0  0
    1.5000   -7.7942    0.0000 C   0  0  0  0  0  0  0  0  0  0  0  0
    0.7500   -9.0933    0.0000 C   0  0  0  0  0  0  0  0  0  0  0  0
    1.5000  -10.3923    0.0000 O   0  0  0  0  0  0  0  0  0  0  0  0
    3.0000  -10.3923    0.0000 C   0  0  0  0  0  0  0  0  0  0  0  0
    3.7500   -9.0933    0.0000 C   0  0  0  0  0  0  0  0  0  0  0  0
  1  2  1  0
  2  3  2  0
  3  4  1  0
  4  5  1  0
  5  6  2  0
  6  7  1  0
  7  8  2  0
  8  9  1  0
  9 10  2  0
 10 11  1  0
 11 12  2  0
 12 13  1  0
 13 14  1  0
 14 15  2  0
 15 16  1  0
 16 17  1  0
 17 18  1  0
 18 19  1  0
 19 20  1  0
 20 21  1  0
 21 22  1  0
 16 23  1  0
 12 24  1  0
 24 25  2  0
  4 26  2  0
 26 27  1  0
 27 28  1  0
 27 29  2  0
 29 30  1  0
 30 31  1  0
 31 32  1  0
 32 33  1  0
 33 34  1  0
 34 35  1  0
 35 36  1  0
 29  2  1  0
 36 31  1  0
 25  5  1  0
 25  9  1  0
 23 13  2  0
 22 17  1  0
M  END
>  <Compound_ID>  (22) 
CHEMBL1092926

>  <Active>  (22) 
1

>  <Smiles>  (22) 
Fc1cc(-c2cccc3ncc(-c4cnn(C5CCNCC5)c4)nc23)cc(F)c1CN1CCOCC1

>  <canonical_smi>  (22) 
Fc1cc(-c2cccc3ncc(-c4cnn(C5CCNCC5)c4)nc23)cc(F)c1CN1CCOCC1

>  <Set>  (22) 
G1 active

>  <Set_type>  (22) 
G1

>  <MW>  (22) 
490.56

>  <HBD>  (22) 
1

>  <HBA>  (22) 
6

>  <NRB>  (22) 
5

>  <NR>  (22) 
6

>  <NAR>  (22) 
4

>  <PSA>  (22) 
68.1

>  <Standard Type>  (22) 
nan

>  <Standard Relation>  (22) 
nan

>  <Standard Units>  (22) 
nan

>  <Standard Value>  (22) 
nan

>  <Assay ChEMBL ID>  (22) 
nan

>  <Assay Description>  (22) 
nan

>  <BAO Label>  (22) 
nan

$$$$

     RDKit          2D

 28 31  0  0  0  0  0  0  0  0999 V2000
    0.4022   -7.7629    0.0000 C   0  0  0  0  0  0  0  0  0  0  0  0
    0.2454   -6.2711    0.0000 C   0  0  0  0  0  0  0  0  0  0  0  0
    1.3601   -5.2674    0.0000 C   0  0  0  0  0  0  0  0  0  0  0  0
    0.7500   -3.8971    0.0000 C   0  0  0  0  0  0  0  0  0  0  0  0
    1.5000   -2.5981    0.0000 N   0  0  0  0  0  0  0  0  0  0  0  0
    0.7500   -1.2990    0.0000 C   0  0  0  0  0  0  0  0  0  0  0  0
    1.5000    0.0000    0.0000 C   0  0  0  0  0  0  0  0  0  0  0  0
    0.7500    1.2990    0.0000 C   0  0  0  0  0  0  0  0  0  0  0  0
    1.5000    2.5981    0.0000 N   0  0  0  0  0  0  0  0  0  0  0  0
    3.0000    2.5981    0.0000 C   0  0  0  0  0  0  0  0  0  0  0  0
    3.7500    3.8971    0.0000 C   0  0  0  0  0  0  0  0  0  0  0  0
    3.0000    5.1962    0.0000 N   0  0  0  0  0  0  0  0  0  0  0  0
    3.7500    6.4952    0.0000 C   0  0  0  0  0  0  0  0  0  0  0  0
    1.5000    5.1962    0.0000 C   0  0  0  0  0  0  0  0  0  0  0  0
    0.7500    3.8971    0.0000 C   0  0  0  0  0  0  0  0  0  0  0  0
   -0.7500    1.2990    0.0000 N   0  0  0  0  0  0  0  0  0  0  0  0
   -1.5000    0.0000    0.0000 C   0  0  0  0  0  0  0  0  0  0  0  0
   -3.0000    0.0000    0.0000 C   0  0  0  0  0  0  0  0  0  0  0  0
   -3.7500   -1.2990    0.0000 C   0  0  0  0  0  0  0  0  0  0  0  0
   -5.2500   -1.2990    0.0000 C   0  0  0  0  0  0  0  0  0  0  0  0
   -6.0000    0.0000    0.0000 C   0  0  0  0  0  0  0  0  0  0  0  0
   -7.5000    0.0000    0.0000 C   0  0  0  0  0  0  0  0  0  0  0  0
   -8.2500   -1.2990    0.0000 C   0  0  0  0  0  0  0  0  0  0  0  0
   -7.5000   -2.5981    0.0000 C   0  0  0  0  0  0  0  0  0  0  0  0
   -6.0000   -2.5981    0.0000 C   0  0  0  0  0  0  0  0  0  0  0  0
   -0.7500   -1.2990    0.0000 N   0  0  0  0  0  0  0  0  0  0  0  0
   -0.7418   -4.0539    0.0000 N   0  0  0  0  0  0  0  0  0  0  0  0
   -1.0537   -5.5211    0.0000 N   0  0  0  0  0  0  0  0  0  0  0  0
  1  2  1  0
  2  3  2  0
  3  4  1  0
  4  5  1  0
  5  6  1  0
  6  7  2  0
  7  8  1  0
  8  9  1  0
  9 10  1  0
 10 11  1  0
 11 12  1  0
 12 13  1  0
 12 14  1  0
 14 15  1  0
  8 16  2  0
 16 17  1  0
 17 18  1  0
 18 19  2  0
 19 20  1  0
 20 21  2  0
 21 22  1  0
 22 23  2  0
 23 24  1  0
 24 25  2  0
 17 26  2  0
  4 27  2  0
 27 28  1  0
 28  2  1  0
 26  6  1  0
 15  9  1  0
 25 20  1  0
M  END
>  <Compound_ID>  (23) 
CHEMBL482968

>  <Active>  (23) 
1

>  <Smiles>  (23) 
Cc1cc(Nc2cc(N3CCN(C)CC3)nc(/C=C/c3ccccc3)n2)n[nH]1

>  <canonical_smi>  (23) 
Cc1cc(Nc2cc(N3CCN(C)CC3)nc(/C=C/c3ccccc3)n2)n[nH]1

>  <Set>  (23) 
G1 active

>  <Set_type>  (23) 
G1

>  <MW>  (23) 
375.48

>  <HBD>  (23) 
2

>  <HBA>  (23) 
6

>  <NRB>  (23) 
5

>  <NR>  (23) 
4

>  <NAR>  (23) 
3

>  <PSA>  (23) 
72.97

>  <Standard Type>  (23) 
nan

>  <Standard Relation>  (23) 
nan

>  <Standard Units>  (23) 
nan

>  <Standard Value>  (23) 
nan

>  <Assay ChEMBL ID>  (23) 
nan

>  <Assay Description>  (23) 
nan

>  <BAO Label>  (23) 
nan

$$$$

     RDKit          2D

 30 33  0  0  0  0  0  0  0  0999 V2000
   -2.6380    5.6918    0.0000 C   0  0  0  0  0  0  0  0  0  0  0  0
   -2.9499    4.2246    0.0000 S   0  0  0  0  0  0  0  0  0  0  0  0
   -1.8351    3.2209    0.0000 C   0  0  0  0  0  0  0  0  0  0  0  0
   -0.4086    3.6844    0.0000 N   0  0  0  0  0  0  0  0  0  0  0  0
    0.7062    2.6807    0.0000 C   0  0  0  0  0  0  0  0  0  0  0  0
    2.1328    3.1443    0.0000 N   0  0  0  0  0  0  0  0  0  0  0  0
    2.4446    4.6115    0.0000 C   0  0  0  0  0  0  0  0  0  0  0  0
    3.8712    5.0750    0.0000 C   0  0  0  0  0  0  0  0  0  0  0  0
    4.1831    6.5422    0.0000 C   0  0  0  0  0  0  0  0  0  0  0  0
    5.6097    7.0058    0.0000 C   0  0  0  0  0  0  0  0  0  0  0  0
    5.9215    8.4730    0.0000 C   0  0  0  0  0  0  0  0  0  0  0  0
    4.8068    9.4767    0.0000 C   0  0  0  0  0  0  0  0  0  0  0  0
    3.3802    9.0132    0.0000 C   0  0  0  0  0  0  0  0  0  0  0  0
    3.0684    7.5459    0.0000 C   0  0  0  0  0  0  0  0  0  0  0  0
    0.3943    1.2135    0.0000 C   0  0  0  0  0  0  0  0  0  0  0  0
    1.2760    0.0000    0.0000 C   0  0  0  0  0  0  0  0  0  0  0  0
    0.3943   -1.2135    0.0000 N   0  0  0  0  0  0  0  0  0  0  0  0
   -1.0323   -0.7500    0.0000 N   0  0  0  0  0  0  0  0  0  0  0  0
   -2.2458   -1.6317    0.0000 C   0  0  0  0  0  0  0  0  0  0  0  0
   -2.0890   -3.1235    0.0000 C   0  0  0  0  0  0  0  0  0  0  0  0
   -0.7187   -3.7336    0.0000 Cl  0  0  0  0  0  0  0  0  0  0  0  0
   -3.3025   -4.0051    0.0000 C   0  0  0  0  0  0  0  0  0  0  0  0
   -4.6729   -3.3950    0.0000 C   0  0  0  0  0  0  0  0  0  0  0  0
   -5.8864   -4.2767    0.0000 C   0  0  0  0  0  0  0  0  0  0  0  0
   -5.7296   -5.7685    0.0000 C   0  0  0  0  0  0  0  0  0  0  0  0
   -6.9431   -6.6502    0.0000 Cl  0  0  0  0  0  0  0  0  0  0  0  0
   -4.3593   -6.3786    0.0000 C   0  0  0  0  0  0  0  0  0  0  0  0
   -3.1458   -5.4969    0.0000 C   0  0  0  0  0  0  0  0  0  0  0  0
   -1.0323    0.7500    0.0000 C   0  0  0  0  0  0  0  0  0  0  0  0
   -2.1470    1.7537    0.0000 N   0  0  0  0  0  0  0  0  0  0  0  0
  1  2  1  0
  2  3  1  0
  3  4  2  0
  4  5  1  0
  5  6  1  0
  6  7  1  0
  7  8  1  0
  8  9  1  0
  9 10  2  0
 10 11  1  0
 11 12  2  0
 12 13  1  0
 13 14  2  0
  5 15  2  0
 15 16  1  0
 16 17  2  0
 17 18  1  0
 18 19  1  0
 19 20  1  0
 20 21  1  0
 20 22  1  0
 22 23  2  0
 23 24  1  0
 24 25  2  0
 25 26  1  0
 25 27  1  0
 27 28  2  0
 18 29  1  0
 29 30  2  0
 30  3  1  0
 14  9  1  0
 29 15  1  0
 28 22  1  0
M  END
>  <Compound_ID>  (24) 
CHEMBL238304

>  <Active>  (24) 
1

>  <Smiles>  (24) 
CSc1nc(NCCc2ccccc2)c2cnn(CC(Cl)c3ccc(Cl)cc3)c2n1

>  <canonical_smi>  (24) 
CSc1nc(NCCc2ccccc2)c2cnn(CC(Cl)c3ccc(Cl)cc3)c2n1

>  <Set>  (24) 
G1 active

>  <Set_type>  (24) 
G1

>  <MW>  (24) 
458.42

>  <HBD>  (24) 
1

>  <HBA>  (24) 
5

>  <NRB>  (24) 
8

>  <NR>  (24) 
4

>  <NAR>  (24) 
4

>  <PSA>  (24) 
55.63

>  <Standard Type>  (24) 
nan

>  <Standard Relation>  (24) 
nan

>  <Standard Units>  (24) 
nan

>  <Standard Value>  (24) 
nan

>  <Assay ChEMBL ID>  (24) 
nan

>  <Assay Description>  (24) 
nan

>  <BAO Label>  (24) 
nan

$$$$

     RDKit          2D

 23 25  0  0  0  0  0  0  0  0999 V2000
   -0.5773   -4.2803    0.0000 C   0  0  0  0  0  0  0  0  0  0  0  0
    0.8899   -3.9684    0.0000 C   0  0  0  0  0  0  0  0  0  0  0  0
    2.0046   -4.9721    0.0000 N   0  0  0  0  0  0  0  0  0  0  0  0
    3.3037   -4.2221    0.0000 C   0  0  0  0  0  0  0  0  0  0  0  0
    4.6740   -4.8322    0.0000 N   0  0  0  0  0  0  0  0  0  0  0  0
    2.9918   -2.7549    0.0000 S   0  0  0  0  0  0  0  0  0  0  0  0
    1.5000   -2.5981    0.0000 C   0  0  0  0  0  0  0  0  0  0  0  0
    0.7500   -1.2990    0.0000 C   0  0  0  0  0  0  0  0  0  0  0  0
    1.5000    0.0000    0.0000 C   0  0  0  0  0  0  0  0  0  0  0  0
    0.7500    1.2990    0.0000 C   0  0  0  0  0  0  0  0  0  0  0  0
   -0.7500    1.2990    0.0000 N   0  0  0  0  0  0  0  0  0  0  0  0
   -1.5000    0.0000    0.0000 C   0  0  0  0  0  0  0  0  0  0  0  0
   -3.0000    0.0000    0.0000 N   0  0  0  0  0  0  0  0  0  0  0  0
   -3.7500    1.2990    0.0000 C   0  0  0  0  0  0  0  0  0  0  0  0
   -3.0000    2.5981    0.0000 C   0  0  0  0  0  0  0  0  0  0  0  0
   -3.7500    3.8971    0.0000 C   0  0  0  0  0  0  0  0  0  0  0  0
   -5.2500    3.8971    0.0000 C   0  0  0  0  0  0  0  0  0  0  0  0
   -6.0000    2.5981    0.0000 C   0  0  0  0  0  0  0  0  0  0  0  0
   -7.5000    2.5981    0.0000 N   0  0  0  0  0  4  0  0  0  0  0  0
   -8.2500    1.2990    0.0000 O   0  0  0  0  0  0  0  0  0  0  0  0
   -8.2500    3.8971    0.0000 O   0  0  0  0  0  1  0  0  0  0  0  0
   -5.2500    1.2990    0.0000 C   0  0  0  0  0  0  0  0  0  0  0  0
   -0.7500   -1.2990    0.0000 N   0  0  0  0  0  0  0  0  0  0  0  0
  1  2  1  0
  2  3  1  0
  3  4  2  0
  4  5  1  0
  4  6  1  0
  6  7  1  0
  7  8  1  0
  8  9  2  0
  9 10  1  0
 10 11  2  0
 11 12  1  0
 12 13  1  0
 13 14  1  0
 14 15  2  0
 15 16  1  0
 16 17  2  0
 17 18  1  0
 18 19  1  0
 19 20  2  0
 19 21  1  0
 18 22  2  0
 12 23  2  0
  7  2  2  0
 23  8  1  0
 22 14  1  0
M  CHG  2  19   1  21  -1
M  END
>  <Compound_ID>  (25) 
CHEMBL298445

>  <Active>  (25) 
1

>  <Smiles>  (25) 
Cc1nc(N)sc1-c1ccnc(Nc2cccc([N+](=O)[O-])c2)n1

>  <canonical_smi>  (25) 
Cc1nc(N)sc1-c1ccnc(Nc2cccc([N+](=O)[O-])c2)n1

>  <Set>  (25) 
G1 active

>  <Set_type>  (25) 
G1

>  <MW>  (25) 
328.36

>  <HBD>  (25) 
2

>  <HBA>  (25) 
7

>  <NRB>  (25) 
4

>  <NR>  (25) 
3

>  <NAR>  (25) 
3

>  <PSA>  (25) 
119.86

>  <Standard Type>  (25) 
nan

>  <Standard Relation>  (25) 
nan

>  <Standard Units>  (25) 
nan

>  <Standard Value>  (25) 
nan

>  <Assay ChEMBL ID>  (25) 
nan

>  <Assay Description>  (25) 
nan

>  <BAO Label>  (25) 
nan

$$$$

     RDKit          2D

 34 37  0  0  0  0  0  0  0  0999 V2000
   -7.5000   -5.1962    0.0000 C   0  0  0  0  0  0  0  0  0  0  0  0
   -6.0000   -5.1962    0.0000 C   0  0  0  0  0  0  0  0  0  0  0  0
   -5.2500   -3.8971    0.0000 C   0  0  0  0  0  0  0  0  0  0  0  0
   -6.0000   -2.5981    0.0000 O   0  0  0  0  0  0  0  0  0  0  0  0
   -3.7500   -3.8971    0.0000 N   0  0  0  0  0  0  0  0  0  0  0  0
   -3.0000   -2.5981    0.0000 C   0  0  0  0  0  0  0  0  0  0  0  0
   -1.5000   -2.5981    0.0000 C   0  0  0  0  0  0  0  0  0  0  0  0
   -0.7500   -1.2990    0.0000 C   0  0  0  0  0  0  0  0  0  0  0  0
    0.7500   -1.2990    0.0000 C   0  0  0  0  0  0  0  0  0  0  0  0
    1.5000   -2.5981    0.0000 N   0  0  0  0  0  0  0  0  0  0  0  0
    3.0000   -2.5981    0.0000 C   0  0  0  0  0  0  0  0  0  0  0  0
    3.7500   -3.8971    0.0000 C   0  0  0  0  0  0  0  0  0  0  0  0
    5.2500   -3.8971    0.0000 C   0  0  0  0  0  0  0  0  0  0  0  0
    6.0000   -2.5981    0.0000 C   0  0  0  0  0  0  0  0  0  0  0  0
    7.5000   -2.5981    0.0000 F   0  0  0  0  0  0  0  0  0  0  0  0
    5.2500   -1.2990    0.0000 C   0  0  0  0  0  0  0  0  0  0  0  0
    6.0000   -0.0000    0.0000 Cl  0  0  0  0  0  0  0  0  0  0  0  0
    3.7500   -1.2990    0.0000 C   0  0  0  0  0  0  0  0  0  0  0  0
    1.5000    0.0000    0.0000 N   0  0  0  0  0  0  0  0  0  0  0  0
    0.7500    1.2990    0.0000 C   0  0  0  0  0  0  0  0  0  0  0  0
   -0.7500    1.2990    0.0000 N   0  0  0  0  0  0  0  0  0  0  0  0
   -1.5000    0.0000    0.0000 C   0  0  0  0  0  0  0  0  0  0  0  0
   -3.0000    0.0000    0.0000 C   0  0  0  0  0  0  0  0  0  0  0  0
   -3.7500   -1.2990    0.0000 C   0  0  0  0  0  0  0  0  0  0  0  0
   -5.2500   -1.2990    0.0000 O   0  0  0  0  0  0  0  0  0  0  0  0
   -6.0000    0.0000    0.0000 C   0  0  0  0  0  0  0  0  0  0  0  0
   -7.5000    0.0000    0.0000 C   0  0  0  0  0  0  0  0  0  0  0  0
   -8.2500    1.2990    0.0000 C   0  0  0  0  0  0  0  0  0  0  0  0
   -9.7500    1.2990    0.0000 N   0  0  0  0  0  0  0  0  0  0  0  0
  -10.5000    2.5981    0.0000 C   0  0  0  0  0  0  0  0  0  0  0  0
  -12.0000    2.5981    0.0000 C   0  0  0  0  0  0  0  0  0  0  0  0
  -12.7500    1.2990    0.0000 O   0  0  0  0  0  0  0  0  0  0  0  0
  -12.0000    0.0000    0.0000 C   0  0  0  0  0  0  0  0  0  0  0  0
  -10.5000    0.0000    0.0000 C   0  0  0  0  0  0  0  0  0  0  0  0
  1  2  2  0
  2  3  1  0
  3  4  2  0
  3  5  1  0
  5  6  1  0
  6  7  2  0
  7  8  1  0
  8  9  2  0
  9 10  1  0
 10 11  1  0
 11 12  2  0
 12 13  1  0
 13 14  2  0
 14 15  1  0
 14 16  1  0
 16 17  1  0
 16 18  2  0
  9 19  1  0
 19 20  2  0
 20 21  1  0
 21 22  2  0
 22 23  1  0
 23 24  2  0
 24 25  1  0
 25 26  1  0
 26 27  1  0
 27 28  1  0
 28 29  1  0
 29 30  1  0
 30 31  1  0
 31 32  1  0
 32 33  1  0
 33 34  1  0
 24  6  1  0
 34 29  1  0
 22  8  1  0
 18 11  1  0
M  END
>  <Compound_ID>  (26) 
CHEMBL31965

>  <Active>  (26) 
1

>  <Smiles>  (26) 
C=CC(=O)Nc1cc2c(Nc3ccc(F)c(Cl)c3)ncnc2cc1OCCCN1CCOCC1

>  <canonical_smi>  (26) 
C=CC(=O)Nc1cc2c(Nc3ccc(F)c(Cl)c3)ncnc2cc1OCCCN1CCOCC1

>  <Set>  (26) 
G1 active

>  <Set_type>  (26) 
G1

>  <MW>  (26) 
485.95

>  <HBD>  (26) 
2

>  <HBA>  (26) 
7

>  <NRB>  (26) 
9

>  <NR>  (26) 
4

>  <NAR>  (26) 
3

>  <PSA>  (26) 
88.61

>  <Standard Type>  (26) 
nan

>  <Standard Relation>  (26) 
nan

>  <Standard Units>  (26) 
nan

>  <Standard Value>  (26) 
nan

>  <Assay ChEMBL ID>  (26) 
nan

>  <Assay Description>  (26) 
nan

>  <BAO Label>  (26) 
nan

$$$$

     RDKit          2D

 37 41  0  0  0  0  0  0  0  0999 V2000
   -2.6401   -3.1891    0.0000 C   0  0  0  0  0  0  0  0  0  0  0  0
   -1.2135   -2.7256    0.0000 N   0  0  0  0  0  0  0  0  0  0  0  0
   -0.0000   -3.6073    0.0000 C   0  0  0  0  0  0  0  0  0  0  0  0
   -0.0000   -5.1073    0.0000 N   0  0  0  0  0  0  0  0  0  0  0  0
   -1.2990   -5.8573    0.0000 C   0  0  0  0  0  0  0  0  0  0  0  0
   -2.5981   -5.1073    0.0000 C   0  0  0  0  0  0  0  0  0  0  0  0
   -3.8971   -5.8573    0.0000 C   0  0  0  0  0  0  0  0  0  0  0  0
   -3.8971   -7.3573    0.0000 C   0  0  0  0  0  0  0  0  0  0  0  0
   -5.1962   -8.1073    0.0000 C   0  0  0  0  0  0  0  0  0  0  0  0
   -6.4952   -8.8573    0.0000 F   0  0  0  0  0  0  0  0  0  0  0  0
   -5.9462   -6.8083    0.0000 F   0  0  0  0  0  0  0  0  0  0  0  0
   -4.4462   -9.4063    0.0000 F   0  0  0  0  0  0  0  0  0  0  0  0
   -2.5981   -8.1073    0.0000 C   0  0  0  0  0  0  0  0  0  0  0  0
   -1.2990   -7.3573    0.0000 C   0  0  0  0  0  0  0  0  0  0  0  0
    1.2135   -2.7256    0.0000 N   0  0  0  0  0  0  0  0  0  0  0  0
    0.7500   -1.2990    0.0000 C   0  0  0  0  0  0  0  0  0  0  0  0
    1.5000    0.0000    0.0000 C   0  0  0  0  0  0  0  0  0  0  0  0
    0.7500    1.2990    0.0000 C   0  0  0  0  0  0  0  0  0  0  0  0
    1.5000    2.5981    0.0000 O   0  0  0  0  0  0  0  0  0  0  0  0
    3.0000    2.5981    0.0000 C   0  0  0  0  0  0  0  0  0  0  0  0
    3.7500    1.2990    0.0000 C   0  0  0  0  0  0  0  0  0  0  0  0
    5.2500    1.2990    0.0000 C   0  0  0  0  0  0  0  0  0  0  0  0
    6.0000    2.5981    0.0000 N   0  0  0  0  0  0  0  0  0  0  0  0
    5.2500    3.8971    0.0000 C   0  0  0  0  0  0  0  0  0  0  0  0
    6.0000    5.1962    0.0000 C   0  0  0  0  0  0  0  0  0  0  0  0
    5.3899    6.5665    0.0000 N   0  0  0  0  0  0  0  0  0  0  0  0
    6.5046    7.5702    0.0000 C   0  0  0  0  0  0  0  0  0  0  0  0
    7.8037    6.8202    0.0000 C   0  0  0  0  0  0  0  0  0  0  0  0
    9.1740    7.4303    0.0000 C   0  0  0  0  0  0  0  0  0  0  0  0
   10.5443    8.0404    0.0000 F   0  0  0  0  0  0  0  0  0  0  0  0
    9.7841    6.0600    0.0000 F   0  0  0  0  0  0  0  0  0  0  0  0
    8.5639    8.8006    0.0000 F   0  0  0  0  0  0  0  0  0  0  0  0
    7.4918    5.3529    0.0000 N   0  0  0  0  0  0  0  0  0  0  0  0
    3.7500    3.8971    0.0000 C   0  0  0  0  0  0  0  0  0  0  0  0
   -0.7500    1.2990    0.0000 C   0  0  0  0  0  0  0  0  0  0  0  0
   -1.5000    0.0000    0.0000 C   0  0  0  0  0  0  0  0  0  0  0  0
   -0.7500   -1.2990    0.0000 C   0  0  0  0  0  0  0  0  0  0  0  0
  1  2  1  0
  2  3  1  0
  3  4  1  0
  4  5  1  0
  5  6  2  0
  6  7  1  0
  7  8  2  0
  8  9  1  0
  9 10  1  0
  9 11  1  0
  9 12  1  0
  8 13  1  0
 13 14  2  0
  3 15  2  0
 15 16  1  0
 16 17  2  0
 17 18  1  0
 18 19  1  0
 19 20  1  0
 20 21  2  0
 21 22  1  0
 22 23  2  0
 23 24  1  0
 24 25  1  0
 25 26  2  0
 26 27  1  0
 27 28  2  0
 28 29  1  0
 29 30  1  0
 29 31  1  0
 29 32  1  0
 28 33  1  0
 24 34  2  0
 18 35  2  0
 35 36  1  0
 36 37  2  0
 37  2  1  0
 14  5  1  0
 37 16  1  0
 34 20  1  0
 33 25  1  0
M  END
>  <Compound_ID>  (27) 
CHEMBL558752

>  <Active>  (27) 
1

>  <Smiles>  (27) 
Cn1c(Nc2ccc(C(F)(F)F)cc2)nc2cc(Oc3ccnc(-c4ncc(C(F)(F)F)[nH]4)c3)ccc21

>  <canonical_smi>  (27) 
Cn1c(Nc2ccc(C(F)(F)F)cc2)nc2cc(Oc3ccnc(-c4ncc(C(F)(F)F)[nH]4)c3)ccc21

>  <Set>  (27) 
G1 active

>  <Set_type>  (27) 
G1

>  <MW>  (27) 
518.42

>  <HBD>  (27) 
2

>  <HBA>  (27) 
5

>  <NRB>  (27) 
5

>  <NR>  (27) 
5

>  <NAR>  (27) 
5

>  <PSA>  (27) 
80.65

>  <Standard Type>  (27) 
nan

>  <Standard Relation>  (27) 
nan

>  <Standard Units>  (27) 
nan

>  <Standard Value>  (27) 
nan

>  <Assay ChEMBL ID>  (27) 
nan

>  <Assay Description>  (27) 
nan

>  <BAO Label>  (27) 
nan

$$$$

     RDKit          2D

 33 35  0  0  0  0  0  0  0  0999 V2000
    8.2500   -3.8971    0.0000 C   0  0  0  0  0  0  0  0  0  0  0  0
    7.5000   -2.5981    0.0000 C   0  0  0  0  0  0  0  0  0  0  0  0
    6.0000   -2.5981    0.0000 N   0  0  0  0  0  0  0  0  0  0  0  0
    5.2500   -3.8971    0.0000 C   0  0  0  0  0  0  0  0  0  0  0  0
    6.0000   -5.1962    0.0000 C   0  0  0  0  0  0  0  0  0  0  0  0
    5.2500   -1.2990    0.0000 C   0  0  0  0  0  0  0  0  0  0  0  0
    3.7500   -1.2990    0.0000 C   0  0  0  0  0  0  0  0  0  0  0  0
    3.0000    0.0000    0.0000 O   0  0  0  0  0  0  0  0  0  0  0  0
    1.5000    0.0000    0.0000 C   0  0  0  0  0  0  0  0  0  0  0  0
    0.7500   -1.2990    0.0000 C   0  0  0  0  0  0  0  0  0  0  0  0
   -0.7500   -1.2990    0.0000 C   0  0  0  0  0  0  0  0  0  0  0  0
   -1.5000    0.0000    0.0000 C   0  0  0  0  0  0  0  0  0  0  0  0
   -3.0000    0.0000    0.0000 N   0  0  0  0  0  0  0  0  0  0  0  0
   -3.7500    1.2990    0.0000 C   0  0  0  0  0  0  0  0  0  0  0  0
   -3.0000    2.5981    0.0000 C   0  0  0  0  0  0  0  0  0  0  0  0
   -3.7500    3.8971    0.0000 C   0  0  0  0  0  0  0  0  0  0  0  0
   -3.0000    5.1962    0.0000 N   0  0  0  0  0  0  0  0  0  0  0  0
   -1.5000    5.1962    0.0000 C   0  0  0  0  0  0  0  0  0  0  0  0
   -0.7500    3.8971    0.0000 O   0  0  0  0  0  0  0  0  0  0  0  0
   -0.7500    6.4952    0.0000 N   0  0  0  0  0  0  0  0  0  0  0  0
    0.7500    6.4952    0.0000 C   0  0  0  0  0  0  0  0  0  0  0  0
    1.5000    5.1962    0.0000 C   0  0  0  0  0  0  0  0  0  0  0  0
    0.7500    3.8971    0.0000 Cl  0  0  0  0  0  0  0  0  0  0  0  0
    3.0000    5.1962    0.0000 C   0  0  0  0  0  0  0  0  0  0  0  0
    3.7500    6.4952    0.0000 C   0  0  0  0  0  0  0  0  0  0  0  0
    3.0000    7.7942    0.0000 C   0  0  0  0  0  0  0  0  0  0  0  0
    1.5000    7.7942    0.0000 C   0  0  0  0  0  0  0  0  0  0  0  0
    0.7500    9.0933    0.0000 Cl  0  0  0  0  0  0  0  0  0  0  0  0
   -5.2500    3.8971    0.0000 N   0  0  0  0  0  0  0  0  0  0  0  0
   -6.0000    2.5981    0.0000 C   0  0  0  0  0  0  0  0  0  0  0  0
   -5.2500    1.2990    0.0000 N   0  0  0  0  0  0  0  0  0  0  0  0
   -0.7500    1.2990    0.0000 C   0  0  0  0  0  0  0  0  0  0  0  0
    0.7500    1.2990    0.0000 C   0  0  0  0  0  0  0  0  0  0  0  0
  1  2  1  0
  2  3  1  0
  3  4  1  0
  4  5  1  0
  3  6  1  0
  6  7  1  0
  7  8  1  0
  8  9  1  0
  9 10  2  0
 10 11  1  0
 11 12  2  0
 12 13  1  0
 13 14  1  0
 14 15  2  0
 15 16  1  0
 16 17  1  0
 17 18  1  0
 18 19  2  0
 18 20  1  0
 20 21  1  0
 21 22  2  0
 22 23  1  0
 22 24  1  0
 24 25  2  0
 25 26  1  0
 26 27  2  0
 27 28  1  0
 16 29  2  0
 29 30  1  0
 30 31  2  0
 12 32  1  0
 32 33  2  0
 33  9  1  0
 31 14  1  0
 27 21  1  0
M  END
>  <Compound_ID>  (28) 
CHEMBL253292

>  <Active>  (28) 
1

>  <Smiles>  (28) 
CCN(CC)CCOc1ccc(Nc2cc(NC(=O)Nc3c(Cl)cccc3Cl)ncn2)cc1

>  <canonical_smi>  (28) 
CCN(CC)CCOc1ccc(Nc2cc(NC(=O)Nc3c(Cl)cccc3Cl)ncn2)cc1

>  <Set>  (28) 
G1 active

>  <Set_type>  (28) 
G1

>  <MW>  (28) 
489.41

>  <HBD>  (28) 
3

>  <HBA>  (28) 
6

>  <NRB>  (28) 
10

>  <NR>  (28) 
3

>  <NAR>  (28) 
3

>  <PSA>  (28) 
91.41

>  <Standard Type>  (28) 
nan

>  <Standard Relation>  (28) 
nan

>  <Standard Units>  (28) 
nan

>  <Standard Value>  (28) 
nan

>  <Assay ChEMBL ID>  (28) 
nan

>  <Assay Description>  (28) 
nan

>  <BAO Label>  (28) 
nan

$$$$

     RDKit          2D

 32 35  0  0  0  0  0  0  0  0999 V2000
   -2.0882   -8.4404    0.0000 C   0  0  0  0  0  0  0  0  0  0  0  0
   -2.6983   -7.0701    0.0000 C   0  0  0  0  0  0  0  0  0  0  0  0
   -1.9483   -5.7711    0.0000 N   0  0  0  0  0  0  0  0  0  0  0  0
   -2.9520   -4.6564    0.0000 C   0  0  0  0  0  0  0  0  0  0  0  0
   -2.6401   -3.1891    0.0000 C   0  0  0  0  0  0  0  0  0  0  0  0
   -1.2135   -2.7256    0.0000 C   0  0  0  0  0  0  0  0  0  0  0  0
   -0.0000   -3.6073    0.0000 C   0  0  0  0  0  0  0  0  0  0  0  0
    0.0000   -5.1073    0.0000 O   0  0  0  0  0  0  0  0  0  0  0  0
    1.2135   -2.7256    0.0000 N   0  0  0  0  0  0  0  0  0  0  0  0
    0.7500   -1.2990    0.0000 C   0  0  0  0  0  0  0  0  0  0  0  0
    1.5000    0.0000    0.0000 C   0  0  0  0  0  0  0  0  0  0  0  0
    0.7500    1.2990    0.0000 C   0  0  0  0  0  0  0  0  0  0  0  0
   -0.7500    1.2990    0.0000 C   0  0  0  0  0  0  0  0  0  0  0  0
   -1.5000    2.5981    0.0000 F   0  0  0  0  0  0  0  0  0  0  0  0
   -1.5000    0.0000    0.0000 C   0  0  0  0  0  0  0  0  0  0  0  0
   -0.7500   -1.2990    0.0000 C   0  0  0  0  0  0  0  0  0  0  0  0
   -4.3223   -5.2665    0.0000 C   0  0  0  0  0  0  0  0  0  0  0  0
   -5.6213   -4.5165    0.0000 C   0  0  0  0  0  0  0  0  0  0  0  0
   -4.1655   -6.7583    0.0000 C   0  0  0  0  0  0  0  0  0  0  0  0
   -5.2802   -7.7620    0.0000 C   0  0  0  0  0  0  0  0  0  0  0  0
   -4.9684   -9.2292    0.0000 O   0  0  0  0  0  0  0  0  0  0  0  0
   -6.7068   -7.2984    0.0000 N   0  0  0  0  0  0  0  0  0  0  0  0
   -7.8215   -8.3021    0.0000 C   0  0  0  0  0  0  0  0  0  0  0  0
   -9.2481   -7.8386    0.0000 C   0  0  0  0  0  0  0  0  0  0  0  0
   -9.5600   -6.3714    0.0000 O   0  0  0  0  0  0  0  0  0  0  0  0
  -10.3628   -8.8423    0.0000 C   0  0  0  0  0  0  0  0  0  0  0  0
  -11.7894   -8.3788    0.0000 N   0  0  0  0  0  0  0  0  0  0  0  0
  -12.1013   -6.9115    0.0000 C   0  0  0  0  0  0  0  0  0  0  0  0
  -13.5279   -6.4480    0.0000 C   0  0  0  0  0  0  0  0  0  0  0  0
  -14.6426   -7.4517    0.0000 O   0  0  0  0  0  0  0  0  0  0  0  0
  -14.3307   -8.9189    0.0000 C   0  0  0  0  0  0  0  0  0  0  0  0
  -12.9041   -9.3825    0.0000 C   0  0  0  0  0  0  0  0  0  0  0  0
  1  2  1  0
  2  3  1  0
  3  4  1  0
  4  5  1  0
  5  6  2  0
  6  7  1  0
  7  8  2  0
  7  9  1  0
  9 10  1  0
 10 11  2  0
 11 12  1  0
 12 13  2  0
 13 14  1  0
 13 15  1  0
 15 16  2  0
  4 17  2  0
 17 18  1  0
 17 19  1  0
 19 20  1  0
 20 21  2  0
 20 22  1  0
 22 23  1  0
 23 24  1  0
 24 25  1  0
 24 26  1  0
 26 27  1  0
 27 28  1  0
 28 29  1  0
 29 30  1  0
 30 31  1  0
 31 32  1  0
 19  2  2  0
 32 27  1  0
 16  6  1  0
 16 10  1  0
M  END
>  <Compound_ID>  (29) 
CHEMBL573577

>  <Active>  (29) 
1

>  <Smiles>  (29) 
Cc1[nH]c(/C=C2\C(=O)Nc3ccc(F)cc32)c(C)c1C(=O)NCC(O)CN1CCOCC1

>  <canonical_smi>  (29) 
Cc1[nH]c(/C=C2\C(=O)Nc3ccc(F)cc32)c(C)c1C(=O)NCC(O)CN1CCOCC1

>  <Set>  (29) 
G1 active

>  <Set_type>  (29) 
G1

>  <MW>  (29) 
442.49

>  <HBD>  (29) 
4

>  <HBA>  (29) 
5

>  <NRB>  (29) 
6

>  <NR>  (29) 
4

>  <NAR>  (29) 
2

>  <PSA>  (29) 
106.69

>  <Standard Type>  (29) 
nan

>  <Standard Relation>  (29) 
nan

>  <Standard Units>  (29) 
nan

>  <Standard Value>  (29) 
nan

>  <Assay ChEMBL ID>  (29) 
nan

>  <Assay Description>  (29) 
nan

>  <BAO Label>  (29) 
nan

$$$$

     RDKit          2D

 26 28  0  0  0  0  0  0  0  0999 V2000
    4.5000    0.0000    0.0000 N   0  0  0  0  0  0  0  0  0  0  0  0
    3.0000    0.0000    0.0000 C   0  0  0  0  0  0  0  0  0  0  0  0
    1.5000    0.0000    0.0000 C   0  0  0  0  0  0  0  0  0  0  0  0
    0.7500   -1.2990    0.0000 C   0  0  0  0  0  0  0  0  0  0  0  0
    1.5000   -2.5981    0.0000 N   0  0  0  0  0  0  0  0  0  0  0  0
   -0.7500   -1.2990    0.0000 N   0  0  0  0  0  0  0  0  0  0  0  0
   -1.5000    0.0000    0.0000 C   0  0  0  0  0  0  0  0  0  0  0  0
   -3.0000    0.0000    0.0000 S   0  0  0  0  0  0  0  0  0  0  0  0
   -3.7500   -1.2990    0.0000 C   0  0  0  0  0  0  0  0  0  0  0  0
   -5.2500   -1.2990    0.0000 C   0  0  0  0  0  0  0  0  0  0  0  0
   -6.0000    0.0000    0.0000 O   0  0  0  0  0  0  0  0  0  0  0  0
   -6.0000   -2.5981    0.0000 C   0  0  0  0  0  0  0  0  0  0  0  0
   -7.5000   -2.5981    0.0000 C   0  0  0  0  0  0  0  0  0  0  0  0
   -8.2500   -3.8971    0.0000 C   0  0  0  0  0  0  0  0  0  0  0  0
   -7.5000   -5.1962    0.0000 C   0  0  0  0  0  0  0  0  0  0  0  0
   -6.0000   -5.1962    0.0000 C   0  0  0  0  0  0  0  0  0  0  0  0
   -5.2500   -3.8971    0.0000 C   0  0  0  0  0  0  0  0  0  0  0  0
   -0.7500    1.2990    0.0000 C   0  0  0  0  0  0  0  0  0  0  0  0
   -1.5000    2.5981    0.0000 C   0  0  0  0  0  0  0  0  0  0  0  0
   -2.2500    3.8971    0.0000 N   0  0  0  0  0  0  0  0  0  0  0  0
    0.7500    1.2990    0.0000 C   0  0  0  0  0  0  0  0  0  0  0  0
    1.5000    2.5981    0.0000 C   0  0  0  0  0  0  0  0  0  0  0  0
    0.8899    3.9684    0.0000 C   0  0  0  0  0  0  0  0  0  0  0  0
    2.0046    4.9721    0.0000 C   0  0  0  0  0  0  0  0  0  0  0  0
    3.3037    4.2221    0.0000 S   0  0  0  0  0  0  0  0  0  0  0  0
    2.9918    2.7549    0.0000 C   0  0  0  0  0  0  0  0  0  0  0  0
  1  2  3  0
  2  3  1  0
  3  4  2  0
  4  5  1  0
  4  6  1  0
  6  7  2  0
  7  8  1  0
  8  9  1  0
  9 10  1  0
 10 11  2  0
 10 12  1  0
 12 13  2  0
 13 14  1  0
 14 15  2  0
 15 16  1  0
 16 17  2  0
  7 18  1  0
 18 19  1  0
 19 20  3  0
 18 21  2  0
 21 22  1  0
 22 23  1  0
 23 24  2  0
 24 25  1  0
 25 26  1  0
 21  3  1  0
 26 22  2  0
 17 12  1  0
M  END
>  <Compound_ID>  (30) 
CHEMBL1171960

>  <Active>  (30) 
1

>  <Smiles>  (30) 
N#Cc1c(N)nc(SCC(=O)c2ccccc2)c(C#N)c1-c1ccsc1

>  <canonical_smi>  (30) 
N#Cc1c(N)nc(SCC(=O)c2ccccc2)c(C#N)c1-c1ccsc1

>  <Set>  (30) 
G1 active

>  <Set_type>  (30) 
G1

>  <MW>  (30) 
376.47

>  <HBD>  (30) 
1

>  <HBA>  (30) 
6

>  <NRB>  (30) 
5

>  <NR>  (30) 
3

>  <NAR>  (30) 
3

>  <PSA>  (30) 
103.56

>  <Standard Type>  (30) 
nan

>  <Standard Relation>  (30) 
nan

>  <Standard Units>  (30) 
nan

>  <Standard Value>  (30) 
nan

>  <Assay ChEMBL ID>  (30) 
nan

>  <Assay Description>  (30) 
nan

>  <BAO Label>  (30) 
nan

$$$$

     RDKit          2D

 32 34  0  0  0  0  0  0  0  0999 V2000
   -0.7500   -6.4952    0.0000 O   0  0  0  0  0  0  0  0  0  0  0  0
    0.7500   -6.4952    0.0000 C   0  0  0  0  0  0  0  0  0  0  0  0
    1.5000   -5.1962    0.0000 N   0  0  0  0  0  0  0  0  0  0  0  0
    0.7500   -3.8971    0.0000 N   0  0  0  0  0  0  0  0  0  0  0  0
    1.5000   -2.5981    0.0000 C   0  0  0  0  0  0  0  0  0  0  0  0
    0.7500   -1.2990    0.0000 C   0  0  0  0  0  0  0  0  0  0  0  0
    1.5000    0.0000    0.0000 C   0  0  0  0  0  0  0  0  0  0  0  0
    0.7500    1.2990    0.0000 C   0  0  0  0  0  0  0  0  0  0  0  0
    1.5000    2.5981    0.0000 C   0  0  0  0  0  0  0  0  0  0  0  0
    0.7500    3.8971    0.0000 O   0  0  0  0  0  0  0  0  0  0  0  0
    3.0000    2.5981    0.0000 O   0  0  0  0  0  0  0  0  0  0  0  0
   -0.7500    1.2990    0.0000 C   0  0  0  0  0  0  0  0  0  0  0  0
   -1.5000    2.5981    0.0000 N   0  0  0  0  0  0  0  0  0  0  0  0
   -3.0000    2.5981    0.0000 C   0  0  0  0  0  0  0  0  0  0  0  0
   -3.7500    1.2990    0.0000 C   0  0  0  0  0  0  0  0  0  0  0  0
   -5.2500    1.2990    0.0000 C   0  0  0  0  0  0  0  0  0  0  0  0
   -6.0000    2.5981    0.0000 C   0  0  0  0  0  0  0  0  0  0  0  0
   -7.5000    2.5981    0.0000 I   0  0  0  0  0  0  0  0  0  0  0  0
   -5.2500    3.8971    0.0000 C   0  0  0  0  0  0  0  0  0  0  0  0
   -3.7500    3.8971    0.0000 C   0  0  0  0  0  0  0  0  0  0  0  0
   -3.0000    5.1962    0.0000 F   0  0  0  0  0  0  0  0  0  0  0  0
   -1.5000    0.0000    0.0000 C   0  0  0  0  0  0  0  0  0  0  0  0
   -3.0000    0.0000    0.0000 F   0  0  0  0  0  0  0  0  0  0  0  0
   -0.7500   -1.2990    0.0000 C   0  0  0  0  0  0  0  0  0  0  0  0
   -1.5000   -2.5981    0.0000 F   0  0  0  0  0  0  0  0  0  0  0  0
    1.5000   -7.7942    0.0000 C   0  0  0  0  0  0  0  0  0  0  0  0
    2.9918   -7.9510    0.0000 C   0  0  0  0  0  0  0  0  0  0  0  0
    3.3037   -9.4182    0.0000 C   0  0  0  0  0  0  0  0  0  0  0  0
    2.0046  -10.1682    0.0000 C   0  0  0  0  0  0  0  0  0  0  0  0
    1.8478  -11.6600    0.0000 C   0  0  0  0  0  0  0  0  0  0  0  0
    0.4775  -12.2701    0.0000 O   0  0  0  0  0  0  0  0  0  0  0  0
    0.8899   -9.1645    0.0000 O   0  0  0  0  0  0  0  0  0  0  0  0
  1  2  2  0
  2  3  1  0
  3  4  1  0
  4  5  2  0
  5  6  1  0
  6  7  2  0
  7  8  1  0
  8  9  1  0
  9 10  2  0
  9 11  1  0
  8 12  2  0
 12 13  1  0
 13 14  1  0
 14 15  2  0
 15 16  1  0
 16 17  2  0
 17 18  1  0
 17 19  1  0
 19 20  2  0
 20 21  1  0
 12 22  1  0
 22 23  1  0
 22 24  2  0
 24 25  1  0
  2 26  1  0
 26 27  2  0
 27 28  1  0
 28 29  2  0
 29 30  1  0
 30 31  1  0
 29 32  1  0
 24  6  1  0
 32 26  1  0
 20 14  1  0
M  END
>  <Compound_ID>  (31) 
CHEMBL481968

>  <Active>  (31) 
1

>  <Smiles>  (31) 
O=C(N/N=C/c1cc(C(=O)O)c(Nc2ccc(I)cc2F)c(F)c1F)c1ccc(CO)o1

>  <canonical_smi>  (31) 
O=C(N/N=C/c1cc(C(=O)O)c(Nc2ccc(I)cc2F)c(F)c1F)c1ccc(CO)o1

>  <Set>  (31) 
G1 active

>  <Set_type>  (31) 
G1

>  <MW>  (31) 
559.24

>  <HBD>  (31) 
4

>  <HBA>  (31) 
6

>  <NRB>  (31) 
7

>  <NR>  (31) 
3

>  <NAR>  (31) 
3

>  <PSA>  (31) 
124.16

>  <Standard Type>  (31) 
nan

>  <Standard Relation>  (31) 
nan

>  <Standard Units>  (31) 
nan

>  <Standard Value>  (31) 
nan

>  <Assay ChEMBL ID>  (31) 
nan

>  <Assay Description>  (31) 
nan

>  <BAO Label>  (31) 
nan

$$$$

     RDKit          2D

 29 32  0  0  0  0  0  0  0  0999 V2000
   -9.7730   -5.5068    0.0000 C   0  0  0  0  0  0  0  0  0  0  0  0
   -8.6583   -6.5105    0.0000 O   0  0  0  0  0  0  0  0  0  0  0  0
   -7.2317   -6.0469    0.0000 C   0  0  0  0  0  0  0  0  0  0  0  0
   -6.9199   -4.5797    0.0000 C   0  0  0  0  0  0  0  0  0  0  0  0
   -5.4933   -4.1162    0.0000 C   0  0  0  0  0  0  0  0  0  0  0  0
   -4.3786   -5.1199    0.0000 C   0  0  0  0  0  0  0  0  0  0  0  0
   -2.9520   -4.6564    0.0000 C   0  0  0  0  0  0  0  0  0  0  0  0
   -2.6401   -3.1891    0.0000 C   0  0  0  0  0  0  0  0  0  0  0  0
   -3.7548   -2.1855    0.0000 C   0  0  0  0  0  0  0  0  0  0  0  0
   -5.1814   -2.6490    0.0000 O   0  0  0  0  0  0  0  0  0  0  0  0
   -1.2135   -2.7256    0.0000 N   0  0  0  0  0  0  0  0  0  0  0  0
   -0.0000   -3.6073    0.0000 C   0  0  0  0  0  0  0  0  0  0  0  0
    1.2135   -2.7256    0.0000 C   0  0  0  0  0  0  0  0  0  0  0  0
    2.6401   -3.1891    0.0000 C   0  0  0  0  0  0  0  0  0  0  0  0
    2.9520   -4.6564    0.0000 C   0  0  0  0  0  0  0  0  0  0  0  0
    4.3786   -5.1199    0.0000 C   0  0  0  0  0  0  0  0  0  0  0  0
    5.4933   -4.1162    0.0000 C   0  0  0  0  0  0  0  0  0  0  0  0
    5.1814   -2.6490    0.0000 C   0  0  0  0  0  0  0  0  0  0  0  0
    6.2961   -1.6453    0.0000 O   0  0  0  0  0  0  0  0  0  0  0  0
    3.7548   -2.1855    0.0000 C   0  0  0  0  0  0  0  0  0  0  0  0
    0.7500   -1.2990    0.0000 C   0  0  0  0  0  0  0  0  0  0  0  0
    1.5000    0.0000    0.0000 C   0  0  0  0  0  0  0  0  0  0  0  0
    3.0000    0.0000    0.0000 N   0  0  0  0  0  0  0  0  0  0  0  0
    0.7500    1.2990    0.0000 N   0  0  0  0  0  0  0  0  0  0  0  0
   -0.7500    1.2990    0.0000 C   0  0  0  0  0  0  0  0  0  0  0  0
   -1.5000    0.0000    0.0000 N   0  0  0  0  0  0  0  0  0  0  0  0
   -0.7500   -1.2990    0.0000 C   0  0  0  0  0  0  0  0  0  0  0  0
   -4.6904   -6.5871    0.0000 C   0  0  0  0  0  0  0  0  0  0  0  0
   -6.1170   -7.0506    0.0000 C   0  0  0  0  0  0  0  0  0  0  0  0
  1  2  1  0
  2  3  1  0
  3  4  2  0
  4  5  1  0
  5  6  2  0
  6  7  1  0
  7  8  1  0
  8  9  1  0
  9 10  1  0
  8 11  1  0
 11 12  1  0
 12 13  2  0
 13 14  1  0
 14 15  2  0
 15 16  1  0
 16 17  2  0
 17 18  1  0
 18 19  1  0
 18 20  2  0
 13 21  1  0
 21 22  2  0
 22 23  1  0
 22 24  1  0
 24 25  2  0
 25 26  1  0
 26 27  2  0
  6 28  1  0
 28 29  2  0
 29  3  1  0
 27 11  1  0
 20 14  1  0
 27 21  1  0
M  END
>  <Compound_ID>  (32) 
CHEMBL169467

>  <Active>  (32) 
1

>  <Smiles>  (32) 
COc1ccc(CC(CO)n2cc(-c3cccc(O)c3)c3c(N)ncnc32)cc1

>  <canonical_smi>  (32) 
COc1ccc(CC(CO)n2cc(-c3cccc(O)c3)c3c(N)ncnc32)cc1

>  <Set>  (32) 
G1 active

>  <Set_type>  (32) 
G1

>  <MW>  (32) 
390.44

>  <HBD>  (32) 
3

>  <HBA>  (32) 
6

>  <NRB>  (32) 
6

>  <NR>  (32) 
4

>  <NAR>  (32) 
4

>  <PSA>  (32) 
106.42

>  <Standard Type>  (32) 
nan

>  <Standard Relation>  (32) 
nan

>  <Standard Units>  (32) 
nan

>  <Standard Value>  (32) 
nan

>  <Assay ChEMBL ID>  (32) 
nan

>  <Assay Description>  (32) 
nan

>  <BAO Label>  (32) 
nan

$$$$

     RDKit          2D

 29 32  0  0  0  0  0  0  0  0999 V2000
   -5.8515    6.6945    0.0000 F   0  0  0  0  0  0  0  0  0  0  0  0
   -7.2781    6.2310    0.0000 C   0  0  0  0  0  0  0  0  0  0  0  0
   -8.3928    7.2347    0.0000 F   0  0  0  0  0  0  0  0  0  0  0  0
   -7.5900    4.7638    0.0000 C   0  0  0  0  0  0  0  0  0  0  0  0
   -6.1227    4.4519    0.0000 F   0  0  0  0  0  0  0  0  0  0  0  0
   -9.0572    5.0756    0.0000 F   0  0  0  0  0  0  0  0  0  0  0  0
   -7.9018    3.2966    0.0000 O   0  0  0  0  0  0  0  0  0  0  0  0
   -6.7871    2.2929    0.0000 C   0  0  0  0  0  0  0  0  0  0  0  0
   -5.3605    2.7564    0.0000 C   0  0  0  0  0  0  0  0  0  0  0  0
   -4.2458    1.7527    0.0000 C   0  0  0  0  0  0  0  0  0  0  0  0
   -4.5577    0.2855    0.0000 C   0  0  0  0  0  0  0  0  0  0  0  0
   -5.9843   -0.1781    0.0000 C   0  0  0  0  0  0  0  0  0  0  0  0
   -6.2961   -1.6453    0.0000 N   0  0  0  0  0  0  0  0  0  0  0  0
   -5.1814   -2.6490    0.0000 C   0  0  0  0  0  0  0  0  0  0  0  0
   -5.4933   -4.1162    0.0000 N   0  0  0  0  0  0  0  0  0  0  0  0
   -4.3786   -5.1199    0.0000 C   0  0  0  0  0  0  0  0  0  0  0  0
   -2.9520   -4.6564    0.0000 C   0  0  0  0  0  0  0  0  0  0  0  0
   -2.6401   -3.1891    0.0000 C   0  0  0  0  0  0  0  0  0  0  0  0
   -1.2135   -2.7256    0.0000 C   0  0  0  0  0  0  0  0  0  0  0  0
   -0.0000   -3.6073    0.0000 C   0  0  0  0  0  0  0  0  0  0  0  0
    1.2135   -2.7256    0.0000 N   0  0  0  0  0  0  0  0  0  0  0  0
    0.7500   -1.2990    0.0000 C   0  0  0  0  0  0  0  0  0  0  0  0
    1.5000    0.0000    0.0000 C   0  0  0  0  0  0  0  0  0  0  0  0
    0.7500    1.2990    0.0000 C   0  0  0  0  0  0  0  0  0  0  0  0
   -0.7500    1.2990    0.0000 C   0  0  0  0  0  0  0  0  0  0  0  0
   -1.5000    0.0000    0.0000 C   0  0  0  0  0  0  0  0  0  0  0  0
   -0.7500   -1.2990    0.0000 C   0  0  0  0  0  0  0  0  0  0  0  0
   -3.7548   -2.1855    0.0000 N   0  0  0  0  0  0  0  0  0  0  0  0
   -7.0990    0.8256    0.0000 C   0  0  0  0  0  0  0  0  0  0  0  0
  1  2  1  0
  2  3  1  0
  2  4  1  0
  4  5  1  0
  4  6  1  0
  4  7  1  0
  7  8  1  0
  8  9  2  0
  9 10  1  0
 10 11  2  0
 11 12  1  0
 12 13  1  0
 13 14  1  0
 14 15  2  0
 15 16  1  0
 16 17  2  0
 17 18  1  0
 18 19  1  0
 19 20  2  0
 20 21  1  0
 21 22  1  0
 22 23  2  0
 23 24  1  0
 24 25  2  0
 25 26  1  0
 26 27  2  0
 18 28  2  0
 12 29  2  0
 29  8  1  0
 28 14  1  0
 27 19  1  0
 27 22  1  0
M  END
>  <Compound_ID>  (33) 
CHEMBL55379

>  <Active>  (33) 
1

>  <Smiles>  (33) 
FC(F)C(F)(F)Oc1cccc(Nc2nccc(-c3c[nH]c4ccccc34)n2)c1

>  <canonical_smi>  (33) 
FC(F)C(F)(F)Oc1cccc(Nc2nccc(-c3c[nH]c4ccccc34)n2)c1

>  <Set>  (33) 
G1 active

>  <Set_type>  (33) 
G1

>  <MW>  (33) 
402.35

>  <HBD>  (33) 
2

>  <HBA>  (33) 
4

>  <NRB>  (33) 
6

>  <NR>  (33) 
4

>  <NAR>  (33) 
4

>  <PSA>  (33) 
62.83

>  <Standard Type>  (33) 
nan

>  <Standard Relation>  (33) 
nan

>  <Standard Units>  (33) 
nan

>  <Standard Value>  (33) 
nan

>  <Assay ChEMBL ID>  (33) 
nan

>  <Assay Description>  (33) 
nan

>  <BAO Label>  (33) 
nan

$$$$

     RDKit          2D

 23 25  0  0  0  0  0  0  0  0999 V2000
    3.6172   -9.8037    0.0000 O   0  0  0  0  0  0  0  0  0  0  0  0
    4.8308   -8.9221    0.0000 C   0  0  0  0  0  0  0  0  0  0  0  0
    4.6740   -7.4303    0.0000 N   0  0  0  0  0  0  0  0  0  0  0  0
    3.3037   -6.8202    0.0000 C   0  0  0  0  0  0  0  0  0  0  0  0
    2.0046   -7.5702    0.0000 N   0  0  0  0  0  0  0  0  0  0  0  0
    0.8899   -6.5665    0.0000 N   0  0  0  0  0  0  0  0  0  0  0  0
    1.5000   -5.1962    0.0000 C   0  0  0  0  0  0  0  0  0  0  0  0
    0.7500   -3.8971    0.0000 C   0  0  0  0  0  0  0  0  0  0  0  0
    1.5000   -2.5981    0.0000 C   0  0  0  0  0  0  0  0  0  0  0  0
    0.7500   -1.2990    0.0000 C   0  0  0  0  0  0  0  0  0  0  0  0
    1.5000    0.0000    0.0000 C   0  0  0  0  0  0  0  0  0  0  0  0
    0.7500    1.2990    0.0000 C   0  0  0  0  0  0  0  0  0  0  0  0
   -0.7500    1.2990    0.0000 C   0  0  0  0  0  0  0  0  0  0  0  0
   -1.5000    0.0000    0.0000 C   0  0  0  0  0  0  0  0  0  0  0  0
   -0.7500   -1.2990    0.0000 C   0  0  0  0  0  0  0  0  0  0  0  0
    2.9918   -5.3529    0.0000 S   0  0  0  0  0  0  0  0  0  0  0  0
    6.2011   -9.5322    0.0000 C   0  0  0  0  0  0  0  0  0  0  0  0
    6.3579  -11.0239    0.0000 C   0  0  0  0  0  0  0  0  0  0  0  0
    7.7282  -11.6340    0.0000 C   0  0  0  0  0  0  0  0  0  0  0  0
    8.9417  -10.7524    0.0000 C   0  0  0  0  0  0  0  0  0  0  0  0
   10.3120  -11.3625    0.0000 I   0  0  0  0  0  0  0  0  0  0  0  0
    8.7849   -9.2606    0.0000 C   0  0  0  0  0  0  0  0  0  0  0  0
    7.4146   -8.6505    0.0000 C   0  0  0  0  0  0  0  0  0  0  0  0
  1  2  2  0
  2  3  1  0
  3  4  1  0
  4  5  2  0
  5  6  1  0
  6  7  2  0
  7  8  1  0
  8  9  1  0
  9 10  1  0
 10 11  2  0
 11 12  1  0
 12 13  2  0
 13 14  1  0
 14 15  2  0
  7 16  1  0
  2 17  1  0
 17 18  2  0
 18 19  1  0
 19 20  2  0
 20 21  1  0
 20 22  1  0
 22 23  2  0
 16  4  1  0
 23 17  1  0
 15 10  1  0
M  END
>  <Compound_ID>  (34) 
CHEMBL206046

>  <Active>  (34) 
1

>  <Smiles>  (34) 
O=C(Nc1nnc(CCc2ccccc2)s1)c1ccc(I)cc1

>  <canonical_smi>  (34) 
O=C(Nc1nnc(CCc2ccccc2)s1)c1ccc(I)cc1

>  <Set>  (34) 
G1 active

>  <Set_type>  (34) 
G1

>  <MW>  (34) 
435.29

>  <HBD>  (34) 
1

>  <HBA>  (34) 
3

>  <NRB>  (34) 
5

>  <NR>  (34) 
3

>  <NAR>  (34) 
3

>  <PSA>  (34) 
54.88

>  <Standard Type>  (34) 
nan

>  <Standard Relation>  (34) 
nan

>  <Standard Units>  (34) 
nan

>  <Standard Value>  (34) 
nan

>  <Assay ChEMBL ID>  (34) 
nan

>  <Assay Description>  (34) 
nan

>  <BAO Label>  (34) 
nan

$$$$

     RDKit          2D

 18 20  0  0  0  0  0  0  0  0999 V2000
    3.0000    0.0000    0.0000 N   0  0  0  0  0  0  0  0  0  0  0  0
    1.5000    0.0000    0.0000 C   0  0  0  0  0  0  0  0  0  0  0  0
    0.7500   -1.2990    0.0000 N   0  0  0  0  0  0  0  0  0  0  0  0
   -0.7500   -1.2990    0.0000 C   0  0  0  0  0  0  0  0  0  0  0  0
   -1.5000    0.0000    0.0000 N   0  0  0  0  0  0  0  0  0  0  0  0
   -0.7500    1.2990    0.0000 C   0  0  0  0  0  0  0  0  0  0  0  0
   -1.2135    2.7256    0.0000 N   0  0  0  0  0  0  0  0  0  0  0  0
   -0.0000    3.6073    0.0000 N   0  0  0  0  0  0  0  0  0  0  0  0
    1.2135    2.7256    0.0000 C   0  0  0  0  0  0  0  0  0  0  0  0
    2.6401    3.1891    0.0000 N   0  0  0  0  0  0  0  0  0  0  0  0
    2.9520    4.6564    0.0000 C   0  0  0  0  0  0  0  0  0  0  0  0
    4.3786    5.1199    0.0000 C   0  0  0  0  0  0  0  0  0  0  0  0
    4.6904    6.5871    0.0000 C   0  0  0  0  0  0  0  0  0  0  0  0
    3.5757    7.5908    0.0000 C   0  0  0  0  0  0  0  0  0  0  0  0
    2.1491    7.1273    0.0000 C   0  0  0  0  0  0  0  0  0  0  0  0
    1.0344    8.1310    0.0000 Cl  0  0  0  0  0  0  0  0  0  0  0  0
    1.8373    5.6601    0.0000 C   0  0  0  0  0  0  0  0  0  0  0  0
    0.7500    1.2990    0.0000 C   0  0  0  0  0  0  0  0  0  0  0  0
  1  2  1  0
  2  3  1  0
  3  4  1  0
  4  5  2  0
  5  6  1  0
  6  7  2  0
  7  8  1  0
  8  9  2  0
  9 10  1  0
 10 11  1  0
 11 12  2  0
 12 13  1  0
 13 14  2  0
 14 15  1  0
 15 16  1  0
 15 17  2  0
  9 18  1  0
 18  2  2  0
 18  6  1  0
 17 11  1  0
M  END
>  <Compound_ID>  (35) 
CHEMBL121190

>  <Active>  (35) 
1

>  <Smiles>  (35) 
Nc1[nH]cnc2nnc(Nc3cccc(Cl)c3)c1-2

>  <canonical_smi>  (35) 
Nc1[nH]cnc2nnc(Nc3cccc(Cl)c3)c1-2

>  <Set>  (35) 
G1 active

>  <Set_type>  (35) 
G1

>  <MW>  (35) 
260.69

>  <HBD>  (35) 
3

>  <HBA>  (35) 
5

>  <NRB>  (35) 
2

>  <NR>  (35) 
3

>  <NAR>  (35) 
3

>  <PSA>  (35) 
92.51

>  <Standard Type>  (35) 
nan

>  <Standard Relation>  (35) 
nan

>  <Standard Units>  (35) 
nan

>  <Standard Value>  (35) 
nan

>  <Assay ChEMBL ID>  (35) 
nan

>  <Assay Description>  (35) 
nan

>  <BAO Label>  (35) 
nan

$$$$

     RDKit          2D

 19 22  0  0  0  0  0  0  0  0999 V2000
    0.8899   -3.9684    0.0000 C   0  0  0  0  0  0  0  0  0  0  0  0
    2.0046   -4.9721    0.0000 N   0  0  0  0  0  0  0  0  0  0  0  0
    3.3037   -4.2221    0.0000 N   0  0  0  0  0  0  0  0  0  0  0  0
    2.9918   -2.7549    0.0000 C   0  0  0  0  0  0  0  0  0  0  0  0
    1.5000   -2.5981    0.0000 C   0  0  0  0  0  0  0  0  0  0  0  0
    0.7500   -1.2990    0.0000 C   0  0  0  0  0  0  0  0  0  0  0  0
    1.5000    0.0000    0.0000 C   0  0  0  0  0  0  0  0  0  0  0  0
    0.7500    1.2990    0.0000 N   0  0  0  0  0  0  0  0  0  0  0  0
   -0.7500    1.2990    0.0000 C   0  0  0  0  0  0  0  0  0  0  0  0
   -1.7537    2.4138    0.0000 N   0  0  0  0  0  0  0  0  0  0  0  0
   -3.1240    1.8037    0.0000 C   0  0  0  0  0  0  0  0  0  0  0  0
   -2.9672    0.3119    0.0000 C   0  0  0  0  0  0  0  0  0  0  0  0
   -4.0819   -0.6918    0.0000 C   0  0  0  0  0  0  0  0  0  0  0  0
   -3.9251   -2.1836    0.0000 C   0  0  0  0  0  0  0  0  0  0  0  0
   -5.2955   -2.7937    0.0000 N   0  0  0  0  0  0  0  0  0  0  0  0
   -6.2992   -1.6790    0.0000 N   0  0  0  0  0  0  0  0  0  0  0  0
   -5.5492   -0.3800    0.0000 C   0  0  0  0  0  0  0  0  0  0  0  0
   -1.5000    0.0000    0.0000 N   0  0  0  0  0  0  0  0  0  0  0  0
   -0.7500   -1.2990    0.0000 C   0  0  0  0  0  0  0  0  0  0  0  0
  1  2  2  0
  2  3  1  0
  3  4  1  0
  4  5  2  0
  5  6  1  0
  6  7  1  0
  7  8  2  0
  8  9  1  0
  9 10  2  0
 10 11  1  0
 11 12  2  0
 12 13  1  0
 13 14  1  0
 14 15  2  0
 15 16  1  0
 16 17  1  0
 12 18  1  0
 18 19  1  0
  5  1  1  0
 19  6  2  0
 18  9  1  0
 17 13  2  0
M  END
>  <Compound_ID>  (36) 
CHEMBL1171532

>  <Active>  (36) 
1

>  <Smiles>  (36) 
c1n[nH]cc1-c1cnc2ncc(-c3cn[nH]c3)n2c1

>  <canonical_smi>  (36) 
c1n[nH]cc1-c1cnc2ncc(-c3cn[nH]c3)n2c1

>  <Set>  (36) 
G1 active

>  <Set_type>  (36) 
G1

>  <MW>  (36) 
251.25

>  <HBD>  (36) 
2

>  <HBA>  (36) 
4

>  <NRB>  (36) 
2

>  <NR>  (36) 
4

>  <NAR>  (36) 
4

>  <PSA>  (36) 
87.55

>  <Standard Type>  (36) 
nan

>  <Standard Relation>  (36) 
nan

>  <Standard Units>  (36) 
nan

>  <Standard Value>  (36) 
nan

>  <Assay ChEMBL ID>  (36) 
nan

>  <Assay Description>  (36) 
nan

>  <BAO Label>  (36) 
nan

$$$$

     RDKit          2D

 28 31  0  0  0  0  0  0  0  0999 V2000
   -0.7500   -3.8971    0.0000 O   0  0  0  0  0  0  0  0  0  0  0  0
    0.7500   -3.8971    0.0000 C   0  0  0  0  0  0  0  0  0  0  0  0
    1.5000   -2.5981    0.0000 N   0  0  0  0  0  0  0  0  0  0  0  0
    0.7500   -1.2990    0.0000 C   0  0  0  0  0  0  0  0  0  0  0  0
    1.5000    0.0000    0.0000 C   0  0  0  0  0  0  0  0  0  0  0  0
    0.7500    1.2990    0.0000 C   0  0  0  0  0  0  0  0  0  0  0  0
   -0.7500    1.2990    0.0000 C   0  0  0  0  0  0  0  0  0  0  0  0
   -1.5000    0.0000    0.0000 C   0  0  0  0  0  0  0  0  0  0  0  0
   -3.0000    0.0000    0.0000 N   0  0  0  0  0  0  0  0  0  0  0  0
   -3.7500    1.2990    0.0000 C   0  0  0  0  0  0  0  0  0  0  0  0
   -3.0000    2.5981    0.0000 N   0  0  0  0  0  0  0  0  0  0  0  0
   -3.7500    3.8971    0.0000 C   0  0  0  0  0  0  0  0  0  0  0  0
   -5.2500    3.8971    0.0000 C   0  0  0  0  0  0  0  0  0  0  0  0
   -6.0000    2.5981    0.0000 C   0  0  0  0  0  0  0  0  0  0  0  0
   -7.5000    2.5981    0.0000 C   0  0  0  0  0  0  0  0  0  0  0  0
   -8.2500    3.8971    0.0000 C   0  0  0  0  0  0  0  0  0  0  0  0
   -9.7500    3.8971    0.0000 C   0  0  0  0  0  0  0  0  0  0  0  0
  -10.5000    2.5981    0.0000 C   0  0  0  0  0  0  0  0  0  0  0  0
   -9.7500    1.2990    0.0000 N   0  0  0  0  0  0  0  0  0  0  0  0
   -8.2500    1.2990    0.0000 C   0  0  0  0  0  0  0  0  0  0  0  0
   -5.2500    1.2990    0.0000 N   0  0  0  0  0  0  0  0  0  0  0  0
   -0.7500   -1.2990    0.0000 C   0  0  0  0  0  0  0  0  0  0  0  0
    1.5000   -5.1962    0.0000 C   0  0  0  0  0  0  0  0  0  0  0  0
    0.7500   -6.4952    0.0000 C   0  0  0  0  0  0  0  0  0  0  0  0
    1.5000   -7.7942    0.0000 C   0  0  0  0  0  0  0  0  0  0  0  0
    3.0000   -7.7942    0.0000 C   0  0  0  0  0  0  0  0  0  0  0  0
    3.7500   -6.4952    0.0000 C   0  0  0  0  0  0  0  0  0  0  0  0
    3.0000   -5.1962    0.0000 C   0  0  0  0  0  0  0  0  0  0  0  0
  1  2  2  0
  2  3  1  0
  3  4  1  0
  4  5  2  0
  5  6  1  0
  6  7  2  0
  7  8  1  0
  8  9  1  0
  9 10  1  0
 10 11  2  0
 11 12  1  0
 12 13  2  0
 13 14  1  0
 14 15  1  0
 15 16  2  0
 16 17  1  0
 17 18  2  0
 18 19  1  0
 19 20  2  0
 14 21  2  0
  8 22  2  0
  2 23  1  0
 23 24  1  0
 24 25  1  0
 25 26  1  0
 26 27  1  0
 27 28  1  0
 22  4  1  0
 28 23  1  0
 21 10  1  0
 20 15  1  0
M  END
>  <Compound_ID>  (37) 
CHEMBL58142

>  <Active>  (37) 
1

>  <Smiles>  (37) 
O=C(Nc1cccc(Nc2nccc(-c3cccnc3)n2)c1)C1CCCCC1

>  <canonical_smi>  (37) 
O=C(Nc1cccc(Nc2nccc(-c3cccnc3)n2)c1)C1CCCCC1

>  <Set>  (37) 
G1 active

>  <Set_type>  (37) 
G1

>  <MW>  (37) 
373.46

>  <HBD>  (37) 
2

>  <HBA>  (37) 
5

>  <NRB>  (37) 
5

>  <NR>  (37) 
4

>  <NAR>  (37) 
3

>  <PSA>  (37) 
79.8

>  <Standard Type>  (37) 
nan

>  <Standard Relation>  (37) 
nan

>  <Standard Units>  (37) 
nan

>  <Standard Value>  (37) 
nan

>  <Assay ChEMBL ID>  (37) 
nan

>  <Assay Description>  (37) 
nan

>  <BAO Label>  (37) 
nan

$$$$

     RDKit          2D

 34 38  0  0  0  0  0  0  0  0999 V2000
   -0.7500   -9.0933    0.0000 O   0  0  0  0  0  0  0  0  0  0  0  0
   -1.5000   -7.7942    0.0000 C   0  0  0  0  0  0  0  0  0  0  0  0
   -3.0000   -7.7942    0.0000 O   0  0  0  0  0  0  0  0  0  0  0  0
   -0.7500   -6.4952    0.0000 C   0  0  0  0  0  0  0  0  0  0  0  0
   -1.5000   -5.1962    0.0000 C   0  0  0  0  0  0  0  0  0  0  0  0
   -0.7500   -3.8971    0.0000 C   0  0  0  0  0  0  0  0  0  0  0  0
    0.7500   -3.8971    0.0000 C   0  0  0  0  0  0  0  0  0  0  0  0
    1.5000   -2.5981    0.0000 N   0  0  0  0  0  0  0  0  0  0  0  0
    0.7500   -1.2990    0.0000 C   0  0  0  0  0  0  0  0  0  0  0  0
    1.5000    0.0000    0.0000 N   0  0  0  0  0  0  0  0  0  0  0  0
    0.7500    1.2990    0.0000 C   0  0  0  0  0  0  0  0  0  0  0  0
   -0.7500    1.2990    0.0000 C   0  0  0  0  0  0  0  0  0  0  0  0
   -1.5000    0.0000    0.0000 C   0  0  0  0  0  0  0  0  0  0  0  0
   -0.7500   -1.2990    0.0000 N   0  0  0  0  0  0  0  0  0  0  0  0
   -2.9832   -0.2236    0.0000 C   0  0  0  0  0  0  0  0  0  0  0  0
   -3.3170   -1.6860    0.0000 C   0  0  0  0  0  0  0  0  0  0  0  0
   -4.7504   -2.1281    0.0000 C   0  0  0  0  0  0  0  0  0  0  0  0
   -5.8500   -1.1078    0.0000 C   0  0  0  0  0  0  0  0  0  0  0  0
   -7.2833   -1.5500    0.0000 Cl  0  0  0  0  0  0  0  0  0  0  0  0
   -5.5162    0.3546    0.0000 C   0  0  0  0  0  0  0  0  0  0  0  0
   -4.0828    0.7967    0.0000 C   0  0  0  0  0  0  0  0  0  0  0  0
   -3.9707    2.2925    0.0000 C   0  0  0  0  0  0  0  0  0  0  0  0
   -5.2698    3.0425    0.0000 C   0  0  0  0  0  0  0  0  0  0  0  0
   -5.2698    4.5425    0.0000 C   0  0  0  0  0  0  0  0  0  0  0  0
   -3.9707    5.2925    0.0000 F   0  0  0  0  0  0  0  0  0  0  0  0
   -6.5688    5.2925    0.0000 C   0  0  0  0  0  0  0  0  0  0  0  0
   -7.8678    4.5425    0.0000 C   0  0  0  0  0  0  0  0  0  0  0  0
   -7.8678    3.0425    0.0000 C   0  0  0  0  0  0  0  0  0  0  0  0
   -6.5688    2.2925    0.0000 C   0  0  0  0  0  0  0  0  0  0  0  0
   -6.5688    0.7925    0.0000 F   0  0  0  0  0  0  0  0  0  0  0  0
   -2.7314    3.1375    0.0000 N   0  0  0  0  0  0  0  0  0  0  0  0
   -1.2980    2.6953    0.0000 C   0  0  0  0  0  0  0  0  0  0  0  0
    1.5000   -5.1962    0.0000 C   0  0  0  0  0  0  0  0  0  0  0  0
    0.7500   -6.4952    0.0000 C   0  0  0  0  0  0  0  0  0  0  0  0
  1  2  2  0
  2  3  1  0
  2  4  1  0
  4  5  2  0
  5  6  1  0
  6  7  2  0
  7  8  1  0
  8  9  1  0
  9 10  2  0
 10 11  1  0
 11 12  2  0
 12 13  1  0
 13 14  2  0
 13 15  1  0
 15 16  2  0
 16 17  1  0
 17 18  2  0
 18 19  1  0
 18 20  1  0
 20 21  2  0
 21 22  1  0
 22 23  1  0
 23 24  2  0
 24 25  1  0
 24 26  1  0
 26 27  2  0
 27 28  1  0
 28 29  2  0
 29 30  1  0
 22 31  2  0
 31 32  1  0
  7 33  1  0
 33 34  2  0
 34  4  1  0
 14  9  1  0
 21 15  1  0
 29 23  1  0
 32 12  1  0
M  END
>  <Compound_ID>  (38) 
CHEMBL259084

>  <Active>  (38) 
1

>  <Smiles>  (38) 
O=C(O)c1ccc(Nc2ncc3c(n2)-c2ccc(Cl)cc2C(c2c(F)cccc2F)=NC3)cc1

>  <canonical_smi>  (38) 
O=C(O)c1ccc(Nc2ncc3c(n2)-c2ccc(Cl)cc2C(c2c(F)cccc2F)=NC3)cc1

>  <Set>  (38) 
G1 active

>  <Set_type>  (38) 
G1

>  <MW>  (38) 
476.87

>  <HBD>  (38) 
2

>  <HBA>  (38) 
5

>  <NRB>  (38) 
4

>  <NR>  (38) 
5

>  <NAR>  (38) 
4

>  <PSA>  (38) 
87.47

>  <Standard Type>  (38) 
nan

>  <Standard Relation>  (38) 
nan

>  <Standard Units>  (38) 
nan

>  <Standard Value>  (38) 
nan

>  <Assay ChEMBL ID>  (38) 
nan

>  <Assay Description>  (38) 
nan

>  <BAO Label>  (38) 
nan

$$$$

     RDKit          2D

 31 35  0  0  0  0  0  0  0  0999 V2000
    3.0000   -5.1962    0.0000 C   0  0  0  0  0  0  0  0  0  0  0  0
    1.5000   -5.1962    0.0000 O   0  0  0  0  0  0  0  0  0  0  0  0
    0.7500   -3.8971    0.0000 C   0  0  0  0  0  0  0  0  0  0  0  0
    1.5000   -2.5981    0.0000 C   0  0  0  0  0  0  0  0  0  0  0  0
    0.7500   -1.2990    0.0000 C   0  0  0  0  0  0  0  0  0  0  0  0
    1.5000    0.0000    0.0000 N   0  0  0  0  0  0  0  0  0  0  0  0
    0.7500    1.2990    0.0000 C   0  0  0  0  0  0  0  0  0  0  0  0
   -0.7500    1.2990    0.0000 C   0  0  0  0  0  0  0  0  0  0  0  0
   -1.5000    0.0000    0.0000 C   0  0  0  0  0  0  0  0  0  0  0  0
   -3.0000    0.0000    0.0000 O   0  0  0  0  0  0  0  0  0  0  0  0
   -3.7500    1.2990    0.0000 C   0  0  0  0  0  0  0  0  0  0  0  0
   -3.0000    2.5981    0.0000 C   0  0  0  0  0  0  0  0  0  0  0  0
   -3.7500    3.8971    0.0000 C   0  0  0  0  0  0  0  0  0  0  0  0
   -5.2500    3.8971    0.0000 C   0  0  0  0  0  0  0  0  0  0  0  0
   -6.0000    5.1962    0.0000 C   0  0  0  0  0  0  0  0  0  0  0  0
   -5.2500    6.4952    0.0000 C   0  0  0  0  0  0  0  0  0  0  0  0
   -3.7500    6.4952    0.0000 O   0  0  0  0  0  0  0  0  0  0  0  0
   -6.0000    7.7942    0.0000 N   0  0  0  0  0  0  0  0  0  0  0  0
   -5.2500    9.0933    0.0000 C   0  0  0  0  0  0  0  0  0  0  0  0
   -5.2500   10.5933    0.0000 C   0  0  0  0  0  0  0  0  0  0  0  0
   -3.9510    9.8433    0.0000 C   0  0  0  0  0  0  0  0  0  0  0  0
   -7.5000    5.1962    0.0000 C   0  0  0  0  0  0  0  0  0  0  0  0
   -8.2500    3.8971    0.0000 C   0  0  0  0  0  0  0  0  0  0  0  0
   -7.5000    2.5981    0.0000 C   0  0  0  0  0  0  0  0  0  0  0  0
   -6.0000    2.5981    0.0000 C   0  0  0  0  0  0  0  0  0  0  0  0
   -5.2500    1.2990    0.0000 C   0  0  0  0  0  0  0  0  0  0  0  0
   -0.7500   -1.2990    0.0000 C   0  0  0  0  0  0  0  0  0  0  0  0
   -1.5000   -2.5981    0.0000 C   0  0  0  0  0  0  0  0  0  0  0  0
   -0.7500   -3.8971    0.0000 C   0  0  0  0  0  0  0  0  0  0  0  0
   -1.5000   -5.1962    0.0000 O   0  0  0  0  0  0  0  0  0  0  0  0
   -3.0000   -5.1962    0.0000 C   0  0  0  0  0  0  0  0  0  0  0  0
  1  2  1  0
  2  3  1  0
  3  4  2  0
  4  5  1  0
  5  6  2  0
  6  7  1  0
  7  8  2  0
  8  9  1  0
  9 10  1  0
 10 11  1  0
 11 12  2  0
 12 13  1  0
 13 14  2  0
 14 15  1  0
 15 16  1  0
 16 17  2  0
 16 18  1  0
 18 19  1  0
 19 20  1  0
 20 21  1  0
 15 22  2  0
 22 23  1  0
 23 24  2  0
 24 25  1  0
 25 26  2  0
  9 27  2  0
 27 28  1  0
 28 29  2  0
 29 30  1  0
 30 31  1  0
 29  3  1  0
 27  5  1  0
 26 11  1  0
 25 14  1  0
 21 19  1  0
M  END
>  <Compound_ID>  (39) 
CHEMBL272198

>  <Active>  (39) 
1

>  <Smiles>  (39) 
COc1cc2nccc(Oc3ccc4c(C(=O)NC5CC5)cccc4c3)c2cc1OC

>  <canonical_smi>  (39) 
COc1cc2nccc(Oc3ccc4c(C(=O)NC5CC5)cccc4c3)c2cc1OC

>  <Set>  (39) 
G1 active

>  <Set_type>  (39) 
G1

>  <MW>  (39) 
414.46

>  <HBD>  (39) 
1

>  <HBA>  (39) 
5

>  <NRB>  (39) 
6

>  <NR>  (39) 
5

>  <NAR>  (39) 
4

>  <PSA>  (39) 
69.68

>  <Standard Type>  (39) 
nan

>  <Standard Relation>  (39) 
nan

>  <Standard Units>  (39) 
nan

>  <Standard Value>  (39) 
nan

>  <Assay ChEMBL ID>  (39) 
nan

>  <Assay Description>  (39) 
nan

>  <BAO Label>  (39) 
nan

$$$$

     RDKit          2D

 34 38  0  0  0  0  0  0  0  0999 V2000
   -2.2447   -8.9500    0.0000 C   0  0  0  0  0  0  0  0  0  0  0  0
   -2.5565   -7.4827    0.0000 N   0  0  0  0  0  0  0  0  0  0  0  0
   -1.4418   -6.4791    0.0000 C   0  0  0  0  0  0  0  0  0  0  0  0
   -0.0152   -6.9426    0.0000 O   0  0  0  0  0  0  0  0  0  0  0  0
   -1.7537   -5.0118    0.0000 C   0  0  0  0  0  0  0  0  0  0  0  0
   -3.1240   -4.4017    0.0000 N   0  0  0  0  0  0  0  0  0  0  0  0
   -2.9672   -2.9099    0.0000 N   0  0  0  0  0  0  0  0  0  0  0  0
   -4.0819   -1.9062    0.0000 C   0  0  0  0  0  0  0  0  0  0  0  0
   -1.5000   -2.5981    0.0000 C   0  0  0  0  0  0  0  0  0  0  0  0
   -0.7500   -3.8971    0.0000 C   0  0  0  0  0  0  0  0  0  0  0  0
    0.7500   -3.8971    0.0000 C   0  0  0  0  0  0  0  0  0  0  0  0
    2.1595   -4.4101    0.0000 C   0  0  0  0  0  0  0  0  0  0  0  0
    0.4895   -5.3743    0.0000 C   0  0  0  0  0  0  0  0  0  0  0  0
    1.5000   -2.5981    0.0000 C   0  0  0  0  0  0  0  0  0  0  0  0
    0.7500   -1.2990    0.0000 C   0  0  0  0  0  0  0  0  0  0  0  0
    1.5000    0.0000    0.0000 C   0  0  0  0  0  0  0  0  0  0  0  0
    0.7500    1.2990    0.0000 N   0  0  0  0  0  0  0  0  0  0  0  0
   -0.7500    1.2990    0.0000 C   0  0  0  0  0  0  0  0  0  0  0  0
   -1.5000    2.5981    0.0000 N   0  0  0  0  0  0  0  0  0  0  0  0
   -0.7500    3.8971    0.0000 C   0  0  0  0  0  0  0  0  0  0  0  0
    0.7500    3.8971    0.0000 C   0  0  0  0  0  0  0  0  0  0  0  0
    1.5000    5.1962    0.0000 C   0  0  0  0  0  0  0  0  0  0  0  0
    0.7500    6.4952    0.0000 C   0  0  0  0  0  0  0  0  0  0  0  0
    1.5000    7.7942    0.0000 N   0  0  0  0  0  0  0  0  0  0  0  0
    3.0000    7.7942    0.0000 C   0  0  0  0  0  0  0  0  0  0  0  0
    3.7500    9.0933    0.0000 C   0  0  0  0  0  0  0  0  0  0  0  0
    3.0000   10.3923    0.0000 N   0  0  0  0  0  0  0  0  0  0  0  0
    3.7500   11.6913    0.0000 C   0  0  0  0  0  0  0  0  0  0  0  0
    1.5000   10.3923    0.0000 C   0  0  0  0  0  0  0  0  0  0  0  0
    0.7500    9.0933    0.0000 C   0  0  0  0  0  0  0  0  0  0  0  0
   -0.7500    6.4952    0.0000 C   0  0  0  0  0  0  0  0  0  0  0  0
   -1.5000    5.1962    0.0000 C   0  0  0  0  0  0  0  0  0  0  0  0
   -1.5000    0.0000    0.0000 N   0  0  0  0  0  0  0  0  0  0  0  0
   -0.7500   -1.2990    0.0000 C   0  0  0  0  0  0  0  0  0  0  0  0
  1  2  1  0
  2  3  1  0
  3  4  2  0
  3  5  1  0
  5  6  2  0
  6  7  1  0
  7  8  1  0
  7  9  1  0
  9 10  2  0
 10 11  1  0
 11 12  1  0
 11 13  1  0
 11 14  1  0
 14 15  1  0
 15 16  2  0
 16 17  1  0
 17 18  2  0
 18 19  1  0
 19 20  1  0
 20 21  2  0
 21 22  1  0
 22 23  2  0
 23 24  1  0
 24 25  1  0
 25 26  1  0
 26 27  1  0
 27 28  1  0
 27 29  1  0
 29 30  1  0
 23 31  1  0
 31 32  2  0
 18 33  1  0
 33 34  2  0
 10  5  1  0
 34 15  1  0
 34  9  1  0
 32 20  1  0
 30 24  1  0
M  END
>  <Compound_ID>  (40) 
CHEMBL564829

>  <Active>  (40) 
1

>  <Smiles>  (40) 
CNC(=O)c1nn(C)c2c1C(C)(C)Cc1cnc(Nc3ccc(N4CCN(C)CC4)cc3)nc1-2

>  <canonical_smi>  (40) 
CNC(=O)c1nn(C)c2c1C(C)(C)Cc1cnc(Nc3ccc(N4CCN(C)CC4)cc3)nc1-2

>  <Set>  (40) 
G1 active

>  <Set_type>  (40) 
G1

>  <MW>  (40) 
460.59

>  <HBD>  (40) 
2

>  <HBA>  (40) 
7

>  <NRB>  (40) 
4

>  <NR>  (40) 
5

>  <NAR>  (40) 
3

>  <PSA>  (40) 
91.21

>  <Standard Type>  (40) 
nan

>  <Standard Relation>  (40) 
nan

>  <Standard Units>  (40) 
nan

>  <Standard Value>  (40) 
nan

>  <Assay ChEMBL ID>  (40) 
nan

>  <Assay Description>  (40) 
nan

>  <BAO Label>  (40) 
nan

$$$$

     RDKit          2D

 21 23  0  0  0  0  0  0  0  0999 V2000
   -2.1766   -4.6157    0.0000 C   0  0  0  0  0  0  0  0  0  0  0  0
   -2.6401   -3.1891    0.0000 C   0  0  0  0  0  0  0  0  0  0  0  0
   -3.1036   -1.7626    0.0000 C   0  0  0  0  0  0  0  0  0  0  0  0
   -4.0667   -3.6527    0.0000 C   0  0  0  0  0  0  0  0  0  0  0  0
   -1.2135   -2.7256    0.0000 N   0  0  0  0  0  0  0  0  0  0  0  0
   -0.0000   -3.6073    0.0000 N   0  0  0  0  0  0  0  0  0  0  0  0
    1.2135   -2.7256    0.0000 C   0  0  0  0  0  0  0  0  0  0  0  0
    2.6401   -3.1891    0.0000 C   0  0  0  0  0  0  0  0  0  0  0  0
    2.9520   -4.6564    0.0000 C   0  0  0  0  0  0  0  0  0  0  0  0
    4.3786   -5.1199    0.0000 C   0  0  0  0  0  0  0  0  0  0  0  0
    5.4933   -4.1162    0.0000 C   0  0  0  0  0  0  0  0  0  0  0  0
    6.9199   -4.5797    0.0000 Cl  0  0  0  0  0  0  0  0  0  0  0  0
    5.1814   -2.6490    0.0000 C   0  0  0  0  0  0  0  0  0  0  0  0
    3.7548   -2.1855    0.0000 C   0  0  0  0  0  0  0  0  0  0  0  0
    0.7500   -1.2990    0.0000 C   0  0  0  0  0  0  0  0  0  0  0  0
    1.5000    0.0000    0.0000 C   0  0  0  0  0  0  0  0  0  0  0  0
    3.0000    0.0000    0.0000 N   0  0  0  0  0  0  0  0  0  0  0  0
    0.7500    1.2990    0.0000 N   0  0  0  0  0  0  0  0  0  0  0  0
   -0.7500    1.2990    0.0000 C   0  0  0  0  0  0  0  0  0  0  0  0
   -1.5000    0.0000    0.0000 N   0  0  0  0  0  0  0  0  0  0  0  0
   -0.7500   -1.2990    0.0000 C   0  0  0  0  0  0  0  0  0  0  0  0
  1  2  1  0
  2  3  1  0
  2  4  1  0
  2  5  1  0
  5  6  1  0
  6  7  2  0
  7  8  1  0
  8  9  2  0
  9 10  1  0
 10 11  2  0
 11 12  1  0
 11 13  1  0
 13 14  2  0
  7 15  1  0
 15 16  2  0
 16 17  1  0
 16 18  1  0
 18 19  2  0
 19 20  1  0
 20 21  2  0
 21  5  1  0
 14  8  1  0
 21 15  1  0
M  END
>  <Compound_ID>  (41) 
CHEMBL406845

>  <Active>  (41) 
1

>  <Smiles>  (41) 
CC(C)(C)n1nc(-c2ccc(Cl)cc2)c2c(N)ncnc21

>  <canonical_smi>  (41) 
CC(C)(C)n1nc(-c2ccc(Cl)cc2)c2c(N)ncnc21

>  <Set>  (41) 
G1 active

>  <Set_type>  (41) 
G1

>  <MW>  (41) 
301.78

>  <HBD>  (41) 
1

>  <HBA>  (41) 
4

>  <NRB>  (41) 
1

>  <NR>  (41) 
3

>  <NAR>  (41) 
3

>  <PSA>  (41) 
69.62

>  <Standard Type>  (41) 
nan

>  <Standard Relation>  (41) 
nan

>  <Standard Units>  (41) 
nan

>  <Standard Value>  (41) 
nan

>  <Assay ChEMBL ID>  (41) 
nan

>  <Assay Description>  (41) 
nan

>  <BAO Label>  (41) 
nan

$$$$

     RDKit          2D

 21 23  0  0  0  0  0  0  0  0999 V2000
   -4.0371    2.7168    0.0000 C   0  0  0  0  0  0  0  0  0  0  0  0
   -3.5736    1.2902    0.0000 C   0  0  0  0  0  0  0  0  0  0  0  0
   -3.1101   -0.1364    0.0000 C   0  0  0  0  0  0  0  0  0  0  0  0
   -5.0002    0.8266    0.0000 C   0  0  0  0  0  0  0  0  0  0  0  0
   -2.1470    1.7537    0.0000 N   0  0  0  0  0  0  0  0  0  0  0  0
   -1.8351    3.2209    0.0000 C   0  0  0  0  0  0  0  0  0  0  0  0
   -0.4086    3.6844    0.0000 N   0  0  0  0  0  0  0  0  0  0  0  0
   -0.0967    5.1517    0.0000 C   0  0  0  0  0  0  0  0  0  0  0  0
    1.3299    5.6152    0.0000 C   0  0  0  0  0  0  0  0  0  0  0  0
    1.6418    7.0824    0.0000 C   0  0  0  0  0  0  0  0  0  0  0  0
    0.5271    8.0861    0.0000 C   0  0  0  0  0  0  0  0  0  0  0  0
    0.8389    9.5533    0.0000 Cl  0  0  0  0  0  0  0  0  0  0  0  0
   -0.8995    7.6226    0.0000 C   0  0  0  0  0  0  0  0  0  0  0  0
   -1.2114    6.1554    0.0000 C   0  0  0  0  0  0  0  0  0  0  0  0
    0.7062    2.6807    0.0000 C   0  0  0  0  0  0  0  0  0  0  0  0
    2.1328    3.1443    0.0000 N   0  0  0  0  0  0  0  0  0  0  0  0
    0.3943    1.2135    0.0000 C   0  0  0  0  0  0  0  0  0  0  0  0
    1.2760    0.0000    0.0000 C   0  0  0  0  0  0  0  0  0  0  0  0
    0.3943   -1.2135    0.0000 N   0  0  0  0  0  0  0  0  0  0  0  0
   -1.0323   -0.7500    0.0000 N   0  0  0  0  0  0  0  0  0  0  0  0
   -1.0323    0.7500    0.0000 C   0  0  0  0  0  0  0  0  0  0  0  0
  1  2  1  0
  2  3  1  0
  2  4  1  0
  2  5  1  0
  5  6  1  0
  6  7  1  0
  7  8  1  0
  8  9  2  0
  9 10  1  0
 10 11  2  0
 11 12  1  0
 11 13  1  0
 13 14  2  0
  7 15  1  0
 15 16  1  0
 15 17  2  0
 17 18  1  0
 18 19  2  0
 19 20  1  0
 20 21  2  0
 21  5  1  0
 14  8  1  0
 21 17  1  0
M  END
>  <Compound_ID>  (42) 
CHEMBL404666

>  <Active>  (42) 
1

>  <Smiles>  (42) 
CC(C)(C)N1CN(c2ccc(Cl)cc2)C(N)=C2C=NN=C21

>  <canonical_smi>  (42) 
CC(C)(C)N1CN(c2ccc(Cl)cc2)C(N)=C2C=NN=C21

>  <Set>  (42) 
G1 active

>  <Set_type>  (42) 
G1

>  <MW>  (42) 
303.8

>  <HBD>  (42) 
1

>  <HBA>  (42) 
3

>  <NRB>  (42) 
1

>  <NR>  (42) 
3

>  <NAR>  (42) 
1

>  <PSA>  (42) 
57.22

>  <Standard Type>  (42) 
nan

>  <Standard Relation>  (42) 
nan

>  <Standard Units>  (42) 
nan

>  <Standard Value>  (42) 
nan

>  <Assay ChEMBL ID>  (42) 
nan

>  <Assay Description>  (42) 
nan

>  <BAO Label>  (42) 
nan

$$$$

     RDKit          2D

 36 42  0  0  0  0  0  0  0  0999 V2000
    6.4964  -10.3250    0.0000 C   0  0  0  0  0  0  0  0  0  0  0  0
    5.7464   -9.0260    0.0000 N   0  0  0  0  0  0  0  0  0  0  0  0
    6.3565   -7.6557    0.0000 C   0  0  0  0  0  0  0  0  0  0  0  0
    5.2418   -6.6520    0.0000 C   0  0  0  0  0  0  0  0  0  0  0  0
    3.9427   -7.4020    0.0000 C   0  0  0  0  0  0  0  0  0  0  0  0
    4.2546   -8.8692    0.0000 C   0  0  0  0  0  0  0  0  0  0  0  0
    3.1399   -7.8655    0.0000 C   0  0  0  0  0  0  0  0  0  0  0  0
    3.7500   -6.4952    0.0000 N   0  0  0  0  0  0  0  0  0  0  0  0
    3.0000   -5.1962    0.0000 C   0  0  0  0  0  0  0  0  0  0  0  0
    3.7500   -3.8971    0.0000 C   0  0  0  0  0  0  0  0  0  0  0  0
    3.0000   -2.5981    0.0000 C   0  0  0  0  0  0  0  0  0  0  0  0
    1.5000   -2.5981    0.0000 C   0  0  0  0  0  0  0  0  0  0  0  0
    0.7500   -1.2990    0.0000 C   0  0  0  0  0  0  0  0  0  0  0  0
    1.5000    0.0000    0.0000 C   0  0  0  0  0  0  0  0  0  0  0  0
    0.7500    1.2990    0.0000 C   0  0  0  0  0  0  0  0  0  0  0  0
   -0.7500    1.2990    0.0000 N   0  0  0  0  0  0  0  0  0  0  0  0
   -1.5000    0.0000    0.0000 C   0  0  0  0  0  0  0  0  0  0  0  0
   -2.9672   -0.3119    0.0000 C   0  0  0  0  0  0  0  0  0  0  0  0
   -4.0819    0.6918    0.0000 C   0  0  0  0  0  0  0  0  0  0  0  0
   -3.7701    2.1590    0.0000 C   0  0  0  0  0  0  0  0  0  0  0  0
   -4.8848    3.1627    0.0000 C   0  0  0  0  0  0  0  0  0  0  0  0
   -6.3114    2.6992    0.0000 C   0  0  0  0  0  0  0  0  0  0  0  0
   -6.6232    1.2320    0.0000 C   0  0  0  0  0  0  0  0  0  0  0  0
   -8.0498    0.7685    0.0000 O   0  0  0  0  0  0  0  0  0  0  0  0
   -5.5085    0.2283    0.0000 C   0  0  0  0  0  0  0  0  0  0  0  0
   -3.1240   -1.8037    0.0000 C   0  0  0  0  0  0  0  0  0  0  0  0
   -4.4231   -2.5537    0.0000 C   0  0  0  0  0  0  0  0  0  0  0  0
   -5.7221   -1.8037    0.0000 C   0  0  0  0  0  0  0  0  0  0  0  0
   -7.0211   -2.5537    0.0000 C   0  0  0  0  0  0  0  0  0  0  0  0
   -7.0211   -4.0537    0.0000 N   0  0  0  0  0  0  0  0  0  0  0  0
   -5.7221   -4.8037    0.0000 C   0  0  0  0  0  0  0  0  0  0  0  0
   -4.4231   -4.0537    0.0000 C   0  0  0  0  0  0  0  0  0  0  0  0
   -1.7537   -2.4138    0.0000 N   0  0  0  0  0  0  0  0  0  0  0  0
   -0.7500   -1.2990    0.0000 N   0  0  0  0  0  0  0  0  0  0  0  0
    0.7500   -3.8971    0.0000 C   0  0  0  0  0  0  0  0  0  0  0  0
    1.5000   -5.1962    0.0000 C   0  0  0  0  0  0  0  0  0  0  0  0
  1  2  1  0
  2  3  1  0
  4  3  1  6
  4  5  1  0
  5  6  1  0
  6  7  1  6
  7  8  1  0
  8  9  1  0
  9 10  2  0
 10 11  1  0
 11 12  2  0
 12 13  1  0
 13 14  2  0
 14 15  1  0
 15 16  2  0
 16 17  1  0
 17 18  2  0
 18 19  1  0
 19 20  2  0
 20 21  1  0
 21 22  2  0
 22 23  1  0
 23 24  1  0
 23 25  2  0
 18 26  1  0
 26 27  1  0
 27 28  2  0
 28 29  1  0
 29 30  2  0
 30 31  1  0
 31 32  2  0
 26 33  2  0
 33 34  1  0
 12 35  1  0
 35 36  2  0
  6  2  1  0
 36  9  1  0
  8  4  1  0
 34 13  1  0
 34 17  1  0
 25 19  1  0
 32 27  1  0
M  END
>  <Compound_ID>  (43) 
CHEMBL1087650

>  <Active>  (43) 
1

>  <Smiles>  (43) 
CN1C[C@@H]2C[C@H]1CN2c1ccc(-c2ccnc3c(-c4cccc(O)c4)c(-c4ccncc4)nn23)cc1

>  <canonical_smi>  (43) 
CN1C[C@@H]2C[C@H]1CN2c1ccc(-c2ccnc3c(-c4cccc(O)c4)c(-c4ccncc4)nn23)cc1

>  <Set>  (43) 
G1 active

>  <Set_type>  (43) 
G1

>  <MW>  (43) 
474.57

>  <HBD>  (43) 
1

>  <HBA>  (43) 
6

>  <NRB>  (43) 
4

>  <NR>  (43) 
7

>  <NAR>  (43) 
5

>  <PSA>  (43) 
69.79

>  <Standard Type>  (43) 
nan

>  <Standard Relation>  (43) 
nan

>  <Standard Units>  (43) 
nan

>  <Standard Value>  (43) 
nan

>  <Assay ChEMBL ID>  (43) 
nan

>  <Assay Description>  (43) 
nan

>  <BAO Label>  (43) 
nan

$$$$

     RDKit          2D

 21 23  0  0  0  0  0  0  0  0999 V2000
    4.6740   -4.8322    0.0000 O   0  0  0  0  0  0  0  0  0  0  0  0
    3.3037   -4.2221    0.0000 C   0  0  0  0  0  0  0  0  0  0  0  0
    2.9918   -2.7549    0.0000 N   0  0  0  0  0  0  0  0  0  0  0  0
    1.5000   -2.5981    0.0000 N   0  0  0  0  0  0  0  0  0  0  0  0
    0.7500   -1.2990    0.0000 C   0  0  0  0  0  0  0  0  0  0  0  0
    1.5000    0.0000    0.0000 C   0  0  0  0  0  0  0  0  0  0  0  0
    0.7500    1.2990    0.0000 C   0  0  0  0  0  0  0  0  0  0  0  0
   -0.7500    1.2990    0.0000 C   0  0  0  0  0  0  0  0  0  0  0  0
   -1.5000    2.5981    0.0000 I   0  0  0  0  0  0  0  0  0  0  0  0
   -1.5000    0.0000    0.0000 C   0  0  0  0  0  0  0  0  0  0  0  0
   -0.7500   -1.2990    0.0000 C   0  0  0  0  0  0  0  0  0  0  0  0
    0.8899   -3.9684    0.0000 C   0  0  0  0  0  0  0  0  0  0  0  0
   -0.5773   -4.2803    0.0000 O   0  0  0  0  0  0  0  0  0  0  0  0
    2.0046   -4.9721    0.0000 C   0  0  0  0  0  0  0  0  0  0  0  0
    1.8478   -6.4639    0.0000 C   0  0  0  0  0  0  0  0  0  0  0  0
    0.4775   -7.0740    0.0000 C   0  0  0  0  0  0  0  0  0  0  0  0
   -0.7360   -6.1923    0.0000 C   0  0  0  0  0  0  0  0  0  0  0  0
   -2.1063   -6.8024    0.0000 C   0  0  0  0  0  0  0  0  0  0  0  0
   -2.2631   -8.2942    0.0000 C   0  0  0  0  0  0  0  0  0  0  0  0
   -1.0496   -9.1759    0.0000 C   0  0  0  0  0  0  0  0  0  0  0  0
    0.3207   -8.5658    0.0000 C   0  0  0  0  0  0  0  0  0  0  0  0
  1  2  2  0
  2  3  1  0
  3  4  1  0
  4  5  1  0
  5  6  2  0
  6  7  1  0
  7  8  2  0
  8  9  1  0
  8 10  1  0
 10 11  2  0
  4 12  1  0
 12 13  2  0
 12 14  1  0
 14 15  2  0
 15 16  1  0
 16 17  2  0
 17 18  1  0
 18 19  2  0
 19 20  1  0
 20 21  2  0
 14  2  1  0
 21 16  1  0
 11  5  1  0
M  END
>  <Compound_ID>  (44) 
CHEMBL209617

>  <Active>  (44) 
1

>  <Smiles>  (44) 
O=C1NN(c2ccc(I)cc2)C(=O)/C1=C\c1ccccc1

>  <canonical_smi>  (44) 
O=C1NN(c2ccc(I)cc2)C(=O)/C1=C\c1ccccc1

>  <Set>  (44) 
G1 active

>  <Set_type>  (44) 
G1

>  <MW>  (44) 
390.18

>  <HBD>  (44) 
1

>  <HBA>  (44) 
2

>  <NRB>  (44) 
2

>  <NR>  (44) 
3

>  <NAR>  (44) 
2

>  <PSA>  (44) 
49.41

>  <Standard Type>  (44) 
nan

>  <Standard Relation>  (44) 
nan

>  <Standard Units>  (44) 
nan

>  <Standard Value>  (44) 
nan

>  <Assay ChEMBL ID>  (44) 
nan

>  <Assay Description>  (44) 
nan

>  <BAO Label>  (44) 
nan

$$$$

     RDKit          2D

 30 35  0  0  0  0  0  0  0  0999 V2000
    1.5000    0.0000    0.0000 C   0  0  0  0  0  0  0  0  0  0  0  0
    0.7500   -1.2990    0.0000 C   0  0  0  0  0  0  0  0  0  0  0  0
   -0.7500   -1.2990    0.0000 C   0  0  0  0  0  0  0  0  0  0  0  0
   -1.5000    0.0000    0.0000 C   0  0  0  0  0  0  0  0  0  0  0  0
   -2.9672    0.3119    0.0000 C   0  0  0  0  0  0  0  0  0  0  0  0
   -4.0819   -0.6918    0.0000 C   0  0  0  0  0  0  0  0  0  0  0  0
   -5.5492   -0.3800    0.0000 N   0  0  0  0  0  0  0  0  0  0  0  0
   -6.2992   -1.6790    0.0000 C   0  0  0  0  0  0  0  0  0  0  0  0
   -7.7664   -1.9909    0.0000 C   0  0  0  0  0  0  0  0  0  0  0  0
   -8.2299   -3.4175    0.0000 C   0  0  0  0  0  0  0  0  0  0  0  0
   -9.6971   -3.7293    0.0000 N   0  0  0  0  0  0  0  0  0  0  0  0
  -10.7008   -2.6146    0.0000 C   0  0  0  0  0  0  0  0  0  0  0  0
  -12.1680   -2.9265    0.0000 C   0  0  0  0  0  0  0  0  0  0  0  0
  -12.6316   -4.3531    0.0000 C   0  0  0  0  0  0  0  0  0  0  0  0
  -14.0988   -4.6649    0.0000 N   0  0  0  0  0  0  0  0  0  0  0  0
  -15.1025   -3.5502    0.0000 C   0  0  0  0  0  0  0  0  0  0  0  0
  -16.5697   -3.8621    0.0000 C   0  0  0  0  0  0  0  0  0  0  0  0
  -17.0332   -5.2887    0.0000 C   0  0  0  0  0  0  0  0  0  0  0  0
  -16.0295   -6.4034    0.0000 C   0  0  0  0  0  0  0  0  0  0  0  0
  -14.5623   -6.0915    0.0000 C   0  0  0  0  0  0  0  0  0  0  0  0
  -11.6279   -5.4678    0.0000 C   0  0  0  0  0  0  0  0  0  0  0  0
  -10.1607   -5.1559    0.0000 C   0  0  0  0  0  0  0  0  0  0  0  0
   -7.2262   -4.5322    0.0000 C   0  0  0  0  0  0  0  0  0  0  0  0
   -5.7590   -4.2203    0.0000 C   0  0  0  0  0  0  0  0  0  0  0  0
   -5.2955   -2.7937    0.0000 C   0  0  0  0  0  0  0  0  0  0  0  0
   -3.9251   -2.1836    0.0000 N   0  0  0  0  0  0  0  0  0  0  0  0
   -3.1240    1.8037    0.0000 N   0  0  0  0  0  0  0  0  0  0  0  0
   -1.7537    2.4138    0.0000 N   0  0  0  0  0  0  0  0  0  0  0  0
   -0.7500    1.2990    0.0000 C   0  0  0  0  0  0  0  0  0  0  0  0
    0.7500    1.2990    0.0000 C   0  0  0  0  0  0  0  0  0  0  0  0
  1  2  1  0
  2  3  2  0
  3  4  1  0
  4  5  2  0
  5  6  1  0
  6  7  2  0
  7  8  1  0
  8  9  2  0
  9 10  1  0
 10 11  1  0
 11 12  1  0
 12 13  1  0
 13 14  1  0
 14 15  1  0
 15 16  1  0
 16 17  1  0
 17 18  1  0
 18 19  1  0
 19 20  1  0
 14 21  1  0
 21 22  1  0
 10 23  2  0
 23 24  1  0
 24 25  2  0
 25 26  1  0
  5 27  1  0
 27 28  1  0
 28 29  2  0
 29 30  1  0
 30  1  2  0
 29  4  1  0
 26  6  1  0
 25  8  1  0
 22 11  1  0
 20 15  1  0
M  END
>  <Compound_ID>  (45) 
CHEMBL378299

>  <Active>  (45) 
1

>  <Smiles>  (45) 
c1ccc2c(-c3nc4cc(N5CCC(N6CCCCC6)CC5)ccc4[nH]3)[nH]nc2c1

>  <canonical_smi>  (45) 
c1ccc2c(-c3nc4cc(N5CCC(N6CCCCC6)CC5)ccc4[nH]3)[nH]nc2c1

>  <Set>  (45) 
G1 active

>  <Set_type>  (45) 
G1

>  <MW>  (45) 
400.53

>  <HBD>  (45) 
2

>  <HBA>  (45) 
4

>  <NRB>  (45) 
3

>  <NR>  (45) 
6

>  <NAR>  (45) 
4

>  <PSA>  (45) 
63.84

>  <Standard Type>  (45) 
nan

>  <Standard Relation>  (45) 
nan

>  <Standard Units>  (45) 
nan

>  <Standard Value>  (45) 
nan

>  <Assay ChEMBL ID>  (45) 
nan

>  <Assay Description>  (45) 
nan

>  <BAO Label>  (45) 
nan

$$$$

     RDKit          2D

 29 33  0  0  0  0  0  0  0  0999 V2000
    3.3037  -15.8202    0.0000 C   0  0  0  0  0  0  0  0  0  0  0  0
    3.3037  -14.3202    0.0000 N   0  0  0  0  0  0  0  0  0  0  0  0
    2.0046  -13.5702    0.0000 C   0  0  0  0  0  0  0  0  0  0  0  0
    2.0046  -12.0702    0.0000 C   0  0  0  0  0  0  0  0  0  0  0  0
    3.3037  -11.3202    0.0000 N   0  0  0  0  0  0  0  0  0  0  0  0
    3.3037   -9.8202    0.0000 C   0  0  0  0  0  0  0  0  0  0  0  0
    4.6027   -9.0702    0.0000 C   0  0  0  0  0  0  0  0  0  0  0  0
    4.6027   -7.5702    0.0000 C   0  0  0  0  0  0  0  0  0  0  0  0
    3.3037   -6.8202    0.0000 C   0  0  0  0  0  0  0  0  0  0  0  0
    2.9918   -5.3529    0.0000 N   0  0  0  0  0  0  0  0  0  0  0  0
    1.5000   -5.1962    0.0000 C   0  0  0  0  0  0  0  0  0  0  0  0
    0.7500   -3.8971    0.0000 C   0  0  0  0  0  0  0  0  0  0  0  0
    1.5000   -2.5981    0.0000 C   0  0  0  0  0  0  0  0  0  0  0  0
    3.0000   -2.5981    0.0000 N   0  0  0  0  0  0  0  0  0  0  0  0
    0.7500   -1.2990    0.0000 C   0  0  0  0  0  0  0  0  0  0  0  0
    1.5000    0.0000    0.0000 C   0  0  0  0  0  0  0  0  0  0  0  0
    3.0000    0.0000    0.0000 F   0  0  0  0  0  0  0  0  0  0  0  0
    0.7500    1.2990    0.0000 C   0  0  0  0  0  0  0  0  0  0  0  0
   -0.7500    1.2990    0.0000 C   0  0  0  0  0  0  0  0  0  0  0  0
   -1.5000    0.0000    0.0000 C   0  0  0  0  0  0  0  0  0  0  0  0
   -0.7500   -1.2990    0.0000 C   0  0  0  0  0  0  0  0  0  0  0  0
   -1.5000   -2.5981    0.0000 N   0  0  0  0  0  0  0  0  0  0  0  0
   -0.7500   -3.8971    0.0000 C   0  0  0  0  0  0  0  0  0  0  0  0
   -1.5000   -5.1962    0.0000 O   0  0  0  0  0  0  0  0  0  0  0  0
    0.8899   -6.5665    0.0000 N   0  0  0  0  0  0  0  0  0  0  0  0
    2.0046   -7.5702    0.0000 C   0  0  0  0  0  0  0  0  0  0  0  0
    2.0046   -9.0702    0.0000 C   0  0  0  0  0  0  0  0  0  0  0  0
    4.6027  -12.0702    0.0000 C   0  0  0  0  0  0  0  0  0  0  0  0
    4.6027  -13.5702    0.0000 C   0  0  0  0  0  0  0  0  0  0  0  0
  1  2  1  0
  2  3  1  0
  3  4  1  0
  4  5  1  0
  5  6  1  0
  6  7  2  0
  7  8  1  0
  8  9  2  0
  9 10  1  0
 10 11  2  0
 11 12  1  0
 12 13  2  0
 13 14  1  0
 13 15  1  0
 15 16  2  0
 16 17  1  0
 16 18  1  0
 18 19  2  0
 19 20  1  0
 20 21  2  0
 21 22  1  0
 22 23  1  0
 23 24  2  0
 11 25  1  0
 25 26  1  0
 26 27  2  0
  5 28  1  0
 28 29  1  0
 29  2  1  0
 27  6  1  0
 26  9  1  0
 23 12  1  0
 21 15  1  0
M  END
>  <Compound_ID>  (46) 
CHEMBL522892

>  <Active>  (46) 
1

>  <Smiles>  (46) 
CN1CCN(c2ccc3nc(-c4c(N)c5c(F)cccc5[nH]c4=O)[nH]c3c2)CC1

>  <canonical_smi>  (46) 
CN1CCN(c2ccc3nc(-c4c(N)c5c(F)cccc5[nH]c4=O)[nH]c3c2)CC1

>  <Set>  (46) 
G1 active

>  <Set_type>  (46) 
G1

>  <MW>  (46) 
392.44

>  <HBD>  (46) 
3

>  <HBA>  (46) 
5

>  <NRB>  (46) 
2

>  <NR>  (46) 
5

>  <NAR>  (46) 
4

>  <PSA>  (46) 
94.04

>  <Standard Type>  (46) 
nan

>  <Standard Relation>  (46) 
nan

>  <Standard Units>  (46) 
nan

>  <Standard Value>  (46) 
nan

>  <Assay ChEMBL ID>  (46) 
nan

>  <Assay Description>  (46) 
nan

>  <BAO Label>  (46) 
nan

$$$$

     RDKit          2D

 28 31  0  0  0  0  0  0  0  0999 V2000
   -1.5000   -5.1962    0.0000 O   0  0  0  0  0  0  0  0  0  0  0  0
   -0.7500   -3.8971    0.0000 C   0  0  0  0  0  0  0  0  0  0  0  0
    0.7500   -3.8971    0.0000 N   0  0  0  0  0  0  0  0  0  0  0  0
    1.5000   -2.5981    0.0000 C   0  0  0  0  0  0  0  0  0  0  0  0
    0.7500   -1.2990    0.0000 N   0  0  0  0  0  0  0  0  0  0  0  0
    1.5000    0.0000    0.0000 N   0  0  0  0  0  0  0  0  0  0  0  0
    0.7500    1.2990    0.0000 C   0  0  0  0  0  0  0  0  0  0  0  0
    1.5000    2.5981    0.0000 S   0  0  0  0  0  0  0  0  0  0  0  0
    3.0000    2.5981    0.0000 C   0  0  0  0  0  0  0  0  0  0  0  0
    3.7500    1.2990    0.0000 C   0  0  0  0  0  0  0  0  0  0  0  0
    5.2500    1.2990    0.0000 C   0  0  0  0  0  0  0  0  0  0  0  0
    6.0000    2.5981    0.0000 C   0  0  0  0  0  0  0  0  0  0  0  0
    7.5000    2.5981    0.0000 F   0  0  0  0  0  0  0  0  0  0  0  0
    5.2500    3.8971    0.0000 C   0  0  0  0  0  0  0  0  0  0  0  0
    3.7500    3.8971    0.0000 C   0  0  0  0  0  0  0  0  0  0  0  0
    3.0000    5.1962    0.0000 F   0  0  0  0  0  0  0  0  0  0  0  0
   -0.7500    1.2990    0.0000 C   0  0  0  0  0  0  0  0  0  0  0  0
   -1.5000    0.0000    0.0000 C   0  0  0  0  0  0  0  0  0  0  0  0
   -0.7500   -1.2990    0.0000 C   0  0  0  0  0  0  0  0  0  0  0  0
   -1.5000   -2.5981    0.0000 C   0  0  0  0  0  0  0  0  0  0  0  0
   -3.0000   -2.5981    0.0000 C   0  0  0  0  0  0  0  0  0  0  0  0
   -3.7500   -1.2990    0.0000 C   0  0  0  0  0  0  0  0  0  0  0  0
   -3.0000    0.0000    0.0000 Cl  0  0  0  0  0  0  0  0  0  0  0  0
   -5.2500   -1.2990    0.0000 C   0  0  0  0  0  0  0  0  0  0  0  0
   -6.0000   -2.5981    0.0000 C   0  0  0  0  0  0  0  0  0  0  0  0
   -5.2500   -3.8971    0.0000 C   0  0  0  0  0  0  0  0  0  0  0  0
   -3.7500   -3.8971    0.0000 C   0  0  0  0  0  0  0  0  0  0  0  0
   -3.0000   -5.1962    0.0000 Cl  0  0  0  0  0  0  0  0  0  0  0  0
  1  2  2  0
  2  3  1  0
  3  4  2  0
  4  5  1  0
  5  6  1  0
  6  7  2  0
  7  8  1  0
  8  9  1  0
  9 10  2  0
 10 11  1  0
 11 12  2  0
 12 13  1  0
 12 14  1  0
 14 15  2  0
 15 16  1  0
  7 17  1  0
 17 18  2  0
 18 19  1  0
 19 20  2  0
 20 21  1  0
 21 22  2  0
 22 23  1  0
 22 24  1  0
 24 25  2  0
 25 26  1  0
 26 27  2  0
 27 28  1  0
 20  2  1  0
 27 21  1  0
 19  5  1  0
 15  9  1  0
M  END
>  <Compound_ID>  (47) 
CHEMBL119385

>  <Active>  (47) 
1

>  <Smiles>  (47) 
O=c1ncn2nc(Sc3ccc(F)cc3F)ccc2c1-c1c(Cl)cccc1Cl

>  <canonical_smi>  (47) 
O=c1ncn2nc(Sc3ccc(F)cc3F)ccc2c1-c1c(Cl)cccc1Cl

>  <Set>  (47) 
G1 active

>  <Set_type>  (47) 
G1

>  <MW>  (47) 
436.27

>  <HBD>  (47) 
0

>  <HBA>  (47) 
4

>  <NRB>  (47) 
3

>  <NR>  (47) 
4

>  <NAR>  (47) 
4

>  <PSA>  (47) 
47.26

>  <Standard Type>  (47) 
nan

>  <Standard Relation>  (47) 
nan

>  <Standard Units>  (47) 
nan

>  <Standard Value>  (47) 
nan

>  <Assay ChEMBL ID>  (47) 
nan

>  <Assay Description>  (47) 
nan

>  <BAO Label>  (47) 
nan

$$$$

     RDKit          2D

 30 34  0  0  0  0  0  0  0  0999 V2000
   -2.2500   -6.4952    0.0000 N   0  0  0  0  0  0  0  0  0  0  0  0
   -1.5000   -5.1962    0.0000 C   0  0  0  0  0  0  0  0  0  0  0  0
   -0.7500   -3.8971    0.0000 C   0  0  0  0  0  0  0  0  0  0  0  0
    0.7500   -3.8971    0.0000 C   0  0  0  0  0  0  0  0  0  0  0  0
    1.5000   -2.5981    0.0000 N   0  0  0  0  0  0  0  0  0  0  0  0
    0.7500   -1.2990    0.0000 C   0  0  0  0  0  0  0  0  0  0  0  0
    1.5000    0.0000    0.0000 C   0  0  0  0  0  0  0  0  0  0  0  0
    0.7500    1.2990    0.0000 C   0  0  0  0  0  0  0  0  0  0  0  0
   -0.7500    1.2990    0.0000 C   0  0  0  0  0  0  0  0  0  0  0  0
   -1.5000    2.5981    0.0000 C   0  0  0  0  0  0  0  0  0  0  0  0
   -0.7500    3.8971    0.0000 C   0  0  0  0  0  0  0  0  0  0  0  0
   -1.5000    5.1962    0.0000 C   0  0  0  0  0  0  0  0  0  0  0  0
   -3.0000    5.1962    0.0000 C   0  0  0  0  0  0  0  0  0  0  0  0
   -3.7500    6.4952    0.0000 C   0  0  0  0  0  0  0  0  0  0  0  0
   -3.0000    7.7942    0.0000 N   0  0  0  0  0  0  0  0  0  0  0  0
   -3.7500    3.8971    0.0000 C   0  0  0  0  0  0  0  0  0  0  0  0
   -3.0000    2.5981    0.0000 C   0  0  0  0  0  0  0  0  0  0  0  0
   -1.5000    0.0000    0.0000 C   0  0  0  0  0  0  0  0  0  0  0  0
   -0.7500   -1.2990    0.0000 C   0  0  0  0  0  0  0  0  0  0  0  0
   -1.5000   -2.5981    0.0000 C   0  0  0  0  0  0  0  0  0  0  0  0
   -3.0000   -2.5981    0.0000 N   0  0  0  0  0  0  0  0  0  0  0  0
   -3.7500   -3.8971    0.0000 C   0  0  0  0  0  0  0  0  0  0  0  0
   -3.7500   -5.3971    0.0000 C   0  0  0  0  0  0  0  0  0  0  0  0
   -5.0490   -4.6471    0.0000 C   0  0  0  0  0  0  0  0  0  0  0  0
   -6.5490   -4.6471    0.0000 C   0  0  0  0  0  0  0  0  0  0  0  0
   -7.2990   -3.3481    0.0000 C   0  0  0  0  0  0  0  0  0  0  0  0
   -8.7990   -3.3481    0.0000 C   0  0  0  0  0  0  0  0  0  0  0  0
   -9.5490   -4.6471    0.0000 C   0  0  0  0  0  0  0  0  0  0  0  0
   -8.7990   -5.9462    0.0000 C   0  0  0  0  0  0  0  0  0  0  0  0
   -7.2990   -5.9462    0.0000 C   0  0  0  0  0  0  0  0  0  0  0  0
  1  2  3  0
  2  3  1  0
  3  4  2  0
  4  5  1  0
  5  6  2  0
  6  7  1  0
  7  8  2  0
  8  9  1  0
  9 10  1  0
 10 11  2  0
 11 12  1  0
 12 13  2  0
 13 14  1  0
 14 15  1  0
 13 16  1  0
 16 17  2  0
  9 18  2  0
 18 19  1  0
 19 20  2  0
 20 21  1  0
 22 21  1  6
 22 23  1  0
 23 24  1  0
 24 25  1  1
 25 26  2  0
 26 27  1  0
 27 28  2  0
 28 29  1  0
 29 30  2  0
 20  3  1  0
 24 22  1  0
 30 25  1  0
 19  6  1  0
 17 10  1  0
M  END
>  <Compound_ID>  (48) 
CHEMBL245800

>  <Active>  (48) 
1

>  <Smiles>  (48) 
N#Cc1cnc2ccc(-c3ccc(CN)cc3)cc2c1N[C@@H]1C[C@H]1c1ccccc1

>  <canonical_smi>  (48) 
N#Cc1cnc2ccc(-c3ccc(CN)cc3)cc2c1N[C@@H]1C[C@H]1c1ccccc1

>  <Set>  (48) 
G1 active

>  <Set_type>  (48) 
G1

>  <MW>  (48) 
390.49

>  <HBD>  (48) 
2

>  <HBA>  (48) 
4

>  <NRB>  (48) 
5

>  <NR>  (48) 
5

>  <NAR>  (48) 
4

>  <PSA>  (48) 
74.73

>  <Standard Type>  (48) 
nan

>  <Standard Relation>  (48) 
nan

>  <Standard Units>  (48) 
nan

>  <Standard Value>  (48) 
nan

>  <Assay ChEMBL ID>  (48) 
nan

>  <Assay Description>  (48) 
nan

>  <BAO Label>  (48) 
nan

$$$$

     RDKit          2D

 20 22  0  0  0  0  0  0  0  0999 V2000
    3.6172   -7.2057    0.0000 O   0  0  0  0  0  0  0  0  0  0  0  0
    4.8308   -6.3240    0.0000 C   0  0  0  0  0  0  0  0  0  0  0  0
    4.6740   -4.8322    0.0000 N   0  0  0  0  0  0  0  0  0  0  0  0
    3.3037   -4.2221    0.0000 C   0  0  0  0  0  0  0  0  0  0  0  0
    2.0046   -4.9721    0.0000 N   0  0  0  0  0  0  0  0  0  0  0  0
    0.8899   -3.9684    0.0000 C   0  0  0  0  0  0  0  0  0  0  0  0
    1.5000   -2.5981    0.0000 C   0  0  0  0  0  0  0  0  0  0  0  0
    0.7500   -1.2990    0.0000 C   0  0  0  0  0  0  0  0  0  0  0  0
    1.5000    0.0000    0.0000 C   0  0  0  0  0  0  0  0  0  0  0  0
    0.7500    1.2990    0.0000 C   0  0  0  0  0  0  0  0  0  0  0  0
   -0.7500    1.2990    0.0000 C   0  0  0  0  0  0  0  0  0  0  0  0
   -1.5000    2.5981    0.0000 Cl  0  0  0  0  0  0  0  0  0  0  0  0
   -1.5000    0.0000    0.0000 C   0  0  0  0  0  0  0  0  0  0  0  0
   -0.7500   -1.2990    0.0000 C   0  0  0  0  0  0  0  0  0  0  0  0
    2.9918   -2.7549    0.0000 S   0  0  0  0  0  0  0  0  0  0  0  0
    6.2011   -6.9341    0.0000 C   0  0  0  0  0  0  0  0  0  0  0  0
    7.5001   -6.1841    0.0000 C   0  0  0  0  0  0  0  0  0  0  0  0
    8.6148   -7.1878    0.0000 C   0  0  0  0  0  0  0  0  0  0  0  0
    8.0047   -8.5581    0.0000 C   0  0  0  0  0  0  0  0  0  0  0  0
    6.5129   -8.4013    0.0000 S   0  0  0  0  0  0  0  0  0  0  0  0
  1  2  2  0
  2  3  1  0
  3  4  1  0
  4  5  2  0
  5  6  1  0
  6  7  2  0
  7  8  1  0
  8  9  2  0
  9 10  1  0
 10 11  2  0
 11 12  1  0
 11 13  1  0
 13 14  2  0
  7 15  1  0
  2 16  1  0
 16 17  2  0
 17 18  1  0
 18 19  2  0
 19 20  1  0
 15  4  1  0
 20 16  1  0
 14  8  1  0
M  END
>  <Compound_ID>  (49) 
CHEMBL476515

>  <Active>  (49) 
1

>  <Smiles>  (49) 
O=C(Nc1ncc(-c2ccc(Cl)cc2)s1)c1cccs1

>  <canonical_smi>  (49) 
O=C(Nc1ncc(-c2ccc(Cl)cc2)s1)c1cccs1

>  <Set>  (49) 
G1 active

>  <Set_type>  (49) 
G1

>  <MW>  (49) 
320.83

>  <HBD>  (49) 
1

>  <HBA>  (49) 
2

>  <NRB>  (49) 
3

>  <NR>  (49) 
3

>  <NAR>  (49) 
3

>  <PSA>  (49) 
41.99

>  <Standard Type>  (49) 
nan

>  <Standard Relation>  (49) 
nan

>  <Standard Units>  (49) 
nan

>  <Standard Value>  (49) 
nan

>  <Assay ChEMBL ID>  (49) 
nan

>  <Assay Description>  (49) 
nan

>  <BAO Label>  (49) 
nan

$$$$

     RDKit          2D

 28 30  0  0  0  0  0  0  0  0999 V2000
   15.6436   -7.0324    0.0000 C   0  0  0  0  0  0  0  0  0  0  0  0
   14.2733   -7.6425    0.0000 N   0  0  0  0  0  0  0  0  0  0  0  0
   14.1165   -9.1343    0.0000 C   0  0  0  0  0  0  0  0  0  0  0  0
   13.0598   -6.7609    0.0000 C   0  0  0  0  0  0  0  0  0  0  0  0
   11.6895   -7.3710    0.0000 C   0  0  0  0  0  0  0  0  0  0  0  0
   10.4760   -6.4893    0.0000 N   0  0  0  0  0  0  0  0  0  0  0  0
    9.1056   -7.0994    0.0000 C   0  0  0  0  0  0  0  0  0  0  0  0
    8.9488   -8.5912    0.0000 O   0  0  0  0  0  0  0  0  0  0  0  0
    7.8921   -6.2177    0.0000 C   0  0  0  0  0  0  0  0  0  0  0  0
    6.5218   -6.8278    0.0000 C   0  0  0  0  0  0  0  0  0  0  0  0
    5.3083   -5.9462    0.0000 C   0  0  0  0  0  0  0  0  0  0  0  0
    5.3083   -4.4462    0.0000 C   0  0  0  0  0  0  0  0  0  0  0  0
    3.8817   -3.9826    0.0000 C   0  0  0  0  0  0  0  0  0  0  0  0
    3.0000   -5.1962    0.0000 C   0  0  0  0  0  0  0  0  0  0  0  0
    1.5000   -5.1962    0.0000 C   0  0  0  0  0  0  0  0  0  0  0  0
    0.7500   -3.8971    0.0000 C   0  0  0  0  0  0  0  0  0  0  0  0
    1.5000   -2.5981    0.0000 O   0  0  0  0  0  0  0  0  0  0  0  0
    0.7500   -1.2990    0.0000 C   0  0  0  0  0  0  0  0  0  0  0  0
    1.5000    0.0000    0.0000 C   0  0  0  0  0  0  0  0  0  0  0  0
    0.7500    1.2990    0.0000 C   0  0  0  0  0  0  0  0  0  0  0  0
   -0.7500    1.2990    0.0000 C   0  0  0  0  0  0  0  0  0  0  0  0
   -1.5000    0.0000    0.0000 C   0  0  0  0  0  0  0  0  0  0  0  0
   -0.7500   -1.2990    0.0000 C   0  0  0  0  0  0  0  0  0  0  0  0
   -1.5000   -2.5981    0.0000 N   0  0  0  0  0  0  0  0  0  0  0  0
   -3.0000   -2.5981    0.0000 C   0  0  0  0  0  0  0  0  0  0  0  0
   -0.7500   -3.8971    0.0000 C   0  0  0  0  0  0  0  0  0  0  0  0
   -1.5000   -5.1962    0.0000 O   0  0  0  0  0  0  0  0  0  0  0  0
    3.8817   -6.4097    0.0000 S   0  0  0  0  0  0  0  0  0  0  0  0
  1  2  1  0
  2  3  1  0
  2  4  1  0
  4  5  1  0
  5  6  1  0
  6  7  1  0
  7  8  2  0
  7  9  1  0
  9 10  2  0
 10 11  1  0
 11 12  2  0
 12 13  1  0
 13 14  2  0
 14 15  1  0
 15 16  2  0
 16 17  1  0
 17 18  1  0
 18 19  2  0
 19 20  1  0
 20 21  2  0
 21 22  1  0
 22 23  2  0
 23 24  1  0
 24 25  1  0
 24 26  1  0
 26 27  2  0
 14 28  1  0
 28 11  1  0
 26 16  1  0
 23 18  1  0
M  END
>  <Compound_ID>  (50) 
CHEMBL455404

>  <Active>  (50) 
1

>  <Smiles>  (50) 
CN(C)CCNC(=O)/C=C/c1ccc(/C=C2\Oc3ccccc3N(C)C2=O)s1

>  <canonical_smi>  (50) 
CN(C)CCNC(=O)/C=C/c1ccc(/C=C2\Oc3ccccc3N(C)C2=O)s1

>  <Set>  (50) 
G1 active

>  <Set_type>  (50) 
G1

>  <MW>  (50) 
397.5

>  <HBD>  (50) 
1

>  <HBA>  (50) 
4

>  <NRB>  (50) 
6

>  <NR>  (50) 
3

>  <NAR>  (50) 
2

>  <PSA>  (50) 
61.88

>  <Standard Type>  (50) 
nan

>  <Standard Relation>  (50) 
nan

>  <Standard Units>  (50) 
nan

>  <Standard Value>  (50) 
nan

>  <Assay ChEMBL ID>  (50) 
nan

>  <Assay Description>  (50) 
nan

>  <BAO Label>  (50) 
nan

$$$$

     RDKit          2D

 36 39  0  0  0  0  0  0  0  0999 V2000
   -3.7500   -6.4952    0.0000 C   0  0  0  0  0  0  0  0  0  0  0  0
   -3.0000   -5.1962    0.0000 O   0  0  0  0  0  0  0  0  0  0  0  0
   -1.5000   -5.1962    0.0000 C   0  0  0  0  0  0  0  0  0  0  0  0
   -0.7500   -3.8971    0.0000 C   0  0  0  0  0  0  0  0  0  0  0  0
    0.7500   -3.8971    0.0000 C   0  0  0  0  0  0  0  0  0  0  0  0
    1.5000   -2.5981    0.0000 N   0  0  0  0  0  0  0  0  0  0  0  0
    0.7500   -1.2990    0.0000 C   0  0  0  0  0  0  0  0  0  0  0  0
    1.5000    0.0000    0.0000 C   0  0  0  0  0  0  0  0  0  0  0  0
    3.0000    0.0000    0.0000 C   0  0  0  0  0  0  0  0  0  0  0  0
    4.5000    0.0000    0.0000 N   0  0  0  0  0  0  0  0  0  0  0  0
    0.7500    1.2990    0.0000 C   0  0  0  0  0  0  0  0  0  0  0  0
   -0.7500    1.2990    0.0000 N   0  0  0  0  0  0  0  0  0  0  0  0
   -1.5000    0.0000    0.0000 C   0  0  0  0  0  0  0  0  0  0  0  0
   -3.0000    0.0000    0.0000 C   0  0  0  0  0  0  0  0  0  0  0  0
   -3.7500   -1.2990    0.0000 C   0  0  0  0  0  0  0  0  0  0  0  0
   -5.2500   -1.2990    0.0000 C   0  0  0  0  0  0  0  0  0  0  0  0
   -6.0000   -2.5981    0.0000 C   0  0  0  0  0  0  0  0  0  0  0  0
   -7.5000   -2.5981    0.0000 C   0  0  0  0  0  0  0  0  0  0  0  0
   -8.2500   -3.8971    0.0000 C   0  0  0  0  0  0  0  0  0  0  0  0
   -9.7500   -3.8971    0.0000 N   0  0  0  0  0  0  0  0  0  0  0  0
  -10.5000   -2.5981    0.0000 C   0  0  0  0  0  0  0  0  0  0  0  0
  -12.0000   -2.5981    0.0000 C   0  0  0  0  0  0  0  0  0  0  0  0
  -12.7500   -3.8971    0.0000 N   0  0  0  0  0  0  0  0  0  0  0  0
  -14.2500   -3.8971    0.0000 C   0  0  0  0  0  0  0  0  0  0  0  0
  -12.0000   -5.1962    0.0000 C   0  0  0  0  0  0  0  0  0  0  0  0
  -10.5000   -5.1962    0.0000 C   0  0  0  0  0  0  0  0  0  0  0  0
   -3.0000   -2.5981    0.0000 C   0  0  0  0  0  0  0  0  0  0  0  0
   -3.7500   -3.8971    0.0000 O   0  0  0  0  0  0  0  0  0  0  0  0
   -5.2500   -3.8971    0.0000 C   0  0  0  0  0  0  0  0  0  0  0  0
   -1.5000   -2.5981    0.0000 C   0  0  0  0  0  0  0  0  0  0  0  0
   -0.7500   -1.2990    0.0000 C   0  0  0  0  0  0  0  0  0  0  0  0
    1.5000   -5.1962    0.0000 C   0  0  0  0  0  0  0  0  0  0  0  0
    3.0000   -5.1962    0.0000 Cl  0  0  0  0  0  0  0  0  0  0  0  0
    0.7500   -6.4952    0.0000 C   0  0  0  0  0  0  0  0  0  0  0  0
   -0.7500   -6.4952    0.0000 C   0  0  0  0  0  0  0  0  0  0  0  0
   -1.5000   -7.7942    0.0000 Cl  0  0  0  0  0  0  0  0  0  0  0  0
  1  2  1  0
  2  3  1  0
  3  4  2  0
  4  5  1  0
  5  6  1  0
  6  7  1  0
  7  8  2  0
  8  9  1  0
  9 10  3  0
  8 11  1  0
 11 12  2  0
 12 13  1  0
 13 14  2  0
 14 15  1  0
 15 16  1  0
 16 17  2  0
 17 18  1  0
 18 19  1  0
 19 20  1  0
 20 21  1  0
 21 22  1  0
 22 23  1  0
 23 24  1  0
 23 25  1  0
 25 26  1  0
 15 27  2  0
 27 28  1  0
 28 29  1  0
 27 30  1  0
 30 31  2  0
  5 32  2  0
 32 33  1  0
 32 34  1  0
 34 35  2  0
 35 36  1  0
 35  3  1  0
 31  7  1  0
 31 13  1  0
 26 20  1  0
M  END
>  <Compound_ID>  (51) 
CHEMBL1088240

>  <Active>  (51) 
1

>  <Smiles>  (51) 
COc1cc(Nc2c(C#N)cnc3cc(/C=C/CCN4CCN(C)CC4)c(OC)cc23)c(Cl)cc1Cl

>  <canonical_smi>  (51) 
COc1cc(Nc2c(C#N)cnc3cc(/C=C/CCN4CCN(C)CC4)c(OC)cc23)c(Cl)cc1Cl

>  <Set>  (51) 
G2 active

>  <Set_type>  (51) 
Train

>  <MW>  (51) 
526.47

>  <HBD>  (51) 
1

>  <HBA>  (51) 
7

>  <NRB>  (51) 
8

>  <NR>  (51) 
4

>  <NAR>  (51) 
3

>  <PSA>  (51) 
73.65

>  <Standard Type>  (51) 
nan

>  <Standard Relation>  (51) 
nan

>  <Standard Units>  (51) 
nan

>  <Standard Value>  (51) 
nan

>  <Assay ChEMBL ID>  (51) 
nan

>  <Assay Description>  (51) 
nan

>  <BAO Label>  (51) 
nan

$$$$

     RDKit          2D

 38 42  0  0  0  0  0  0  0  0999 V2000
   -3.7500   -6.4952    0.0000 C   0  0  0  0  0  0  0  0  0  0  0  0
   -3.0000   -5.1962    0.0000 O   0  0  0  0  0  0  0  0  0  0  0  0
   -1.5000   -5.1962    0.0000 C   0  0  0  0  0  0  0  0  0  0  0  0
   -0.7500   -3.8971    0.0000 C   0  0  0  0  0  0  0  0  0  0  0  0
    0.7500   -3.8971    0.0000 C   0  0  0  0  0  0  0  0  0  0  0  0
    1.5000   -2.5981    0.0000 N   0  0  0  0  0  0  0  0  0  0  0  0
    0.7500   -1.2990    0.0000 C   0  0  0  0  0  0  0  0  0  0  0  0
    1.5000    0.0000    0.0000 C   0  0  0  0  0  0  0  0  0  0  0  0
    3.0000    0.0000    0.0000 C   0  0  0  0  0  0  0  0  0  0  0  0
    4.5000    0.0000    0.0000 N   0  0  0  0  0  0  0  0  0  0  0  0
    0.7500    1.2990    0.0000 C   0  0  0  0  0  0  0  0  0  0  0  0
   -0.7500    1.2990    0.0000 N   0  0  0  0  0  0  0  0  0  0  0  0
   -1.5000    0.0000    0.0000 C   0  0  0  0  0  0  0  0  0  0  0  0
   -3.0000    0.0000    0.0000 C   0  0  0  0  0  0  0  0  0  0  0  0
   -3.7500   -1.2990    0.0000 C   0  0  0  0  0  0  0  0  0  0  0  0
   -5.2500   -1.2990    0.0000 C   0  0  0  0  0  0  0  0  0  0  0  0
   -6.1317   -2.5126    0.0000 C   0  0  0  0  0  0  0  0  0  0  0  0
   -7.5583   -2.0490    0.0000 O   0  0  0  0  0  0  0  0  0  0  0  0
   -7.5583   -0.5490    0.0000 C   0  0  0  0  0  0  0  0  0  0  0  0
   -8.7718    0.3326    0.0000 C   0  0  0  0  0  0  0  0  0  0  0  0
   -8.6150    1.8244    0.0000 N   0  0  0  0  0  0  0  0  0  0  0  0
   -7.2447    2.4345    0.0000 C   0  0  0  0  0  0  0  0  0  0  0  0
   -7.0879    3.9263    0.0000 C   0  0  0  0  0  0  0  0  0  0  0  0
   -8.3014    4.8080    0.0000 N   0  0  0  0  0  0  0  0  0  0  0  0
   -8.1446    6.2998    0.0000 C   0  0  0  0  0  0  0  0  0  0  0  0
   -9.6717    4.1979    0.0000 C   0  0  0  0  0  0  0  0  0  0  0  0
   -9.8285    2.7061    0.0000 C   0  0  0  0  0  0  0  0  0  0  0  0
   -6.1317   -0.0855    0.0000 C   0  0  0  0  0  0  0  0  0  0  0  0
   -3.0000   -2.5981    0.0000 C   0  0  0  0  0  0  0  0  0  0  0  0
   -3.7500   -3.8971    0.0000 O   0  0  0  0  0  0  0  0  0  0  0  0
   -5.2500   -3.8971    0.0000 C   0  0  0  0  0  0  0  0  0  0  0  0
   -1.5000   -2.5981    0.0000 C   0  0  0  0  0  0  0  0  0  0  0  0
   -0.7500   -1.2990    0.0000 C   0  0  0  0  0  0  0  0  0  0  0  0
    1.5000   -5.1962    0.0000 C   0  0  0  0  0  0  0  0  0  0  0  0
    3.0000   -5.1962    0.0000 Cl  0  0  0  0  0  0  0  0  0  0  0  0
    0.7500   -6.4952    0.0000 C   0  0  0  0  0  0  0  0  0  0  0  0
   -0.7500   -6.4952    0.0000 C   0  0  0  0  0  0  0  0  0  0  0  0
   -1.5000   -7.7942    0.0000 Cl  0  0  0  0  0  0  0  0  0  0  0  0
  1  2  1  0
  2  3  1  0
  3  4  2  0
  4  5  1  0
  5  6  1  0
  6  7  1  0
  7  8  2  0
  8  9  1  0
  9 10  3  0
  8 11  1  0
 11 12  2  0
 12 13  1  0
 13 14  2  0
 14 15  1  0
 15 16  1  0
 16 17  2  0
 17 18  1  0
 18 19  1  0
 19 20  1  0
 20 21  1  0
 21 22  1  0
 22 23  1  0
 23 24  1  0
 24 25  1  0
 24 26  1  0
 26 27  1  0
 19 28  2  0
 15 29  2  0
 29 30  1  0
 30 31  1  0
 29 32  1  0
 32 33  2  0
  5 34  2  0
 34 35  1  0
 34 36  1  0
 36 37  2  0
 37 38  1  0
 37  3  1  0
 33  7  1  0
 33 13  1  0
 28 16  1  0
 27 21  1  0
M  END
>  <Compound_ID>  (52) 
CHEMBL219557

>  <Active>  (52) 
1

>  <Smiles>  (52) 
COc1cc(Nc2c(C#N)cnc3cc(-c4coc(CN5CCN(C)CC5)c4)c(OC)cc23)c(Cl)cc1Cl

>  <canonical_smi>  (52) 
COc1cc(Nc2c(C#N)cnc3cc(-c4coc(CN5CCN(C)CC5)c4)c(OC)cc23)c(Cl)cc1Cl

>  <Set>  (52) 
G2 active

>  <Set_type>  (52) 
Train

>  <MW>  (52) 
552.46

>  <HBD>  (52) 
1

>  <HBA>  (52) 
8

>  <NRB>  (52) 
7

>  <NR>  (52) 
5

>  <NAR>  (52) 
4

>  <PSA>  (52) 
86.79

>  <Standard Type>  (52) 
nan

>  <Standard Relation>  (52) 
nan

>  <Standard Units>  (52) 
nan

>  <Standard Value>  (52) 
nan

>  <Assay ChEMBL ID>  (52) 
nan

>  <Assay Description>  (52) 
nan

>  <BAO Label>  (52) 
nan

$$$$

     RDKit          2D

 34 37  0  0  0  0  0  0  0  0999 V2000
   -3.7500   -6.4952    0.0000 C   0  0  0  0  0  0  0  0  0  0  0  0
   -3.0000   -5.1962    0.0000 O   0  0  0  0  0  0  0  0  0  0  0  0
   -1.5000   -5.1962    0.0000 C   0  0  0  0  0  0  0  0  0  0  0  0
   -0.7500   -3.8971    0.0000 C   0  0  0  0  0  0  0  0  0  0  0  0
    0.7500   -3.8971    0.0000 C   0  0  0  0  0  0  0  0  0  0  0  0
    1.5000   -2.5981    0.0000 N   0  0  0  0  0  0  0  0  0  0  0  0
    0.7500   -1.2990    0.0000 C   0  0  0  0  0  0  0  0  0  0  0  0
    1.5000    0.0000    0.0000 C   0  0  0  0  0  0  0  0  0  0  0  0
    3.0000    0.0000    0.0000 C   0  0  0  0  0  0  0  0  0  0  0  0
    4.5000    0.0000    0.0000 N   0  0  0  0  0  0  0  0  0  0  0  0
    0.7500    1.2990    0.0000 C   0  0  0  0  0  0  0  0  0  0  0  0
   -0.7500    1.2990    0.0000 N   0  0  0  0  0  0  0  0  0  0  0  0
   -1.5000    0.0000    0.0000 C   0  0  0  0  0  0  0  0  0  0  0  0
   -3.0000    0.0000    0.0000 C   0  0  0  0  0  0  0  0  0  0  0  0
   -3.7500   -1.2990    0.0000 C   0  0  0  0  0  0  0  0  0  0  0  0
   -5.2500   -1.2990    0.0000 C   0  0  0  0  0  0  0  0  0  0  0  0
   -6.1317   -2.5126    0.0000 C   0  0  0  0  0  0  0  0  0  0  0  0
   -7.5583   -2.0490    0.0000 O   0  0  0  0  0  0  0  0  0  0  0  0
   -7.5583   -0.5490    0.0000 C   0  0  0  0  0  0  0  0  0  0  0  0
   -8.7718    0.3326    0.0000 C   0  0  0  0  0  0  0  0  0  0  0  0
   -8.6150    1.8244    0.0000 N   0  0  0  0  0  0  0  0  0  0  0  0
   -9.8285    2.7061    0.0000 C   0  0  0  0  0  0  0  0  0  0  0  0
   -7.2447    2.4345    0.0000 C   0  0  0  0  0  0  0  0  0  0  0  0
   -6.1317   -0.0855    0.0000 C   0  0  0  0  0  0  0  0  0  0  0  0
   -3.0000   -2.5981    0.0000 C   0  0  0  0  0  0  0  0  0  0  0  0
   -3.7500   -3.8971    0.0000 O   0  0  0  0  0  0  0  0  0  0  0  0
   -5.2500   -3.8971    0.0000 C   0  0  0  0  0  0  0  0  0  0  0  0
   -1.5000   -2.5981    0.0000 C   0  0  0  0  0  0  0  0  0  0  0  0
   -0.7500   -1.2990    0.0000 C   0  0  0  0  0  0  0  0  0  0  0  0
    1.5000   -5.1962    0.0000 C   0  0  0  0  0  0  0  0  0  0  0  0
    3.0000   -5.1962    0.0000 Cl  0  0  0  0  0  0  0  0  0  0  0  0
    0.7500   -6.4952    0.0000 C   0  0  0  0  0  0  0  0  0  0  0  0
   -0.7500   -6.4952    0.0000 C   0  0  0  0  0  0  0  0  0  0  0  0
   -1.5000   -7.7942    0.0000 Cl  0  0  0  0  0  0  0  0  0  0  0  0
  1  2  1  0
  2  3  1  0
  3  4  2  0
  4  5  1  0
  5  6  1  0
  6  7  1  0
  7  8  2  0
  8  9  1  0
  9 10  3  0
  8 11  1  0
 11 12  2  0
 12 13  1  0
 13 14  2  0
 14 15  1  0
 15 16  1  0
 16 17  2  0
 17 18  1  0
 18 19  1  0
 19 20  1  0
 20 21  1  0
 21 22  1  0
 21 23  1  0
 19 24  2  0
 15 25  2  0
 25 26  1  0
 26 27  1  0
 25 28  1  0
 28 29  2  0
  5 30  2  0
 30 31  1  0
 30 32  1  0
 32 33  2  0
 33 34  1  0
 33  3  1  0
 29  7  1  0
 29 13  1  0
 24 16  1  0
M  END
>  <Compound_ID>  (53) 
CHEMBL219964

>  <Active>  (53) 
1

>  <Smiles>  (53) 
COc1cc(Nc2c(C#N)cnc3cc(-c4coc(CN(C)C)c4)c(OC)cc23)c(Cl)cc1Cl

>  <canonical_smi>  (53) 
COc1cc(Nc2c(C#N)cnc3cc(-c4coc(CN(C)C)c4)c(OC)cc23)c(Cl)cc1Cl

>  <Set>  (53) 
G2 active

>  <Set_type>  (53) 
Train

>  <MW>  (53) 
497.38

>  <HBD>  (53) 
1

>  <HBA>  (53) 
7

>  <NRB>  (53) 
7

>  <NR>  (53) 
4

>  <NAR>  (53) 
4

>  <PSA>  (53) 
83.55

>  <Standard Type>  (53) 
nan

>  <Standard Relation>  (53) 
nan

>  <Standard Units>  (53) 
nan

>  <Standard Value>  (53) 
nan

>  <Assay ChEMBL ID>  (53) 
nan

>  <Assay Description>  (53) 
nan

>  <BAO Label>  (53) 
nan

$$$$

     RDKit          2D

 34 37  0  0  0  0  0  0  0  0999 V2000
    0.3177    5.1814    0.0000 C   0  0  0  0  0  0  0  0  0  0  0  0
    1.7849    5.4933    0.0000 C   0  0  0  0  0  0  0  0  0  0  0  0
    2.2484    6.9199    0.0000 C   0  0  0  0  0  0  0  0  0  0  0  0
    3.7156    7.2317    0.0000 C   0  0  0  0  0  0  0  0  0  0  0  0
    4.7193    6.1170    0.0000 C   0  0  0  0  0  0  0  0  0  0  0  0
    4.2558    4.6904    0.0000 C   0  0  0  0  0  0  0  0  0  0  0  0
    5.2595    3.5757    0.0000 C   0  0  0  0  0  0  0  0  0  0  0  0
    2.7886    4.3786    0.0000 C   0  0  0  0  0  0  0  0  0  0  0  0
    2.3250    2.9520    0.0000 C   0  0  0  0  0  0  0  0  0  0  0  0
    0.8578    2.6401    0.0000 C   0  0  0  0  0  0  0  0  0  0  0  0
    0.3943    1.2135    0.0000 N   0  0  0  0  0  0  0  0  0  0  0  0
    1.2760    0.0000    0.0000 C   0  0  0  0  0  0  0  0  0  0  0  0
    0.3943   -1.2135    0.0000 N   0  0  0  0  0  0  0  0  0  0  0  0
   -1.0323   -0.7500    0.0000 C   0  0  0  0  0  0  0  0  0  0  0  0
   -2.3313   -1.5000    0.0000 C   0  0  0  0  0  0  0  0  0  0  0  0
   -2.3313   -3.0000    0.0000 N   0  0  0  0  0  0  0  0  0  0  0  0
   -3.6304   -3.7500    0.0000 C   0  0  0  0  0  0  0  0  0  0  0  0
   -4.9294   -3.0000    0.0000 C   0  0  0  0  0  0  0  0  0  0  0  0
   -6.2284   -3.7500    0.0000 C   0  0  0  0  0  0  0  0  0  0  0  0
   -6.2284   -5.2500    0.0000 C   0  0  0  0  0  0  0  0  0  0  0  0
   -7.5275   -6.0000    0.0000 P   0  0  0  0  0  0  0  0  0  0  0  0
   -6.7775   -7.2990    0.0000 C   0  0  0  0  0  0  0  0  0  0  0  0
   -8.2775   -4.7010    0.0000 C   0  0  0  0  0  0  0  0  0  0  0  0
   -8.8265   -6.7500    0.0000 O   0  0  0  0  0  0  0  0  0  0  0  0
   -4.9294   -6.0000    0.0000 C   0  0  0  0  0  0  0  0  0  0  0  0
   -3.6304   -5.2500    0.0000 C   0  0  0  0  0  0  0  0  0  0  0  0
   -3.6304   -0.7500    0.0000 N   0  0  0  0  0  0  0  0  0  0  0  0
   -3.6304    0.7500    0.0000 C   0  0  0  0  0  0  0  0  0  0  0  0
   -4.9294    1.5000    0.0000 C   0  0  0  0  0  0  0  0  0  0  0  0
   -4.9294    3.0000    0.0000 C   0  0  0  0  0  0  0  0  0  0  0  0
   -6.2284    3.7500    0.0000 C   0  0  0  0  0  0  0  0  0  0  0  0
   -7.5275    4.5000    0.0000 N   0  0  0  0  0  0  0  0  0  0  0  0
   -2.3313    1.5000    0.0000 N   0  0  0  0  0  0  0  0  0  0  0  0
   -1.0323    0.7500    0.0000 C   0  0  0  0  0  0  0  0  0  0  0  0
  1  2  1  0
  2  3  2  0
  3  4  1  0
  4  5  2  0
  5  6  1  0
  6  7  1  0
  6  8  2  0
  8  9  1  0
  9 10  2  0
 10 11  1  0
 11 12  1  0
 12 13  2  0
 13 14  1  0
 14 15  2  0
 15 16  1  0
 16 17  1  0
 17 18  2  0
 18 19  1  0
 19 20  2  0
 20 21  1  0
 21 22  1  0
 21 23  1  0
 21 24  2  0
 20 25  1  0
 25 26  2  0
 15 27  1  0
 27 28  2  0
 28 29  1  0
 29 30  1  0
 30 31  1  0
 31 32  3  0
 28 33  1  0
 33 34  2  0
  8  2  1  0
 34 11  1  0
 34 14  1  0
 26 17  1  0
M  END
>  <Compound_ID>  (54) 
CHEMBL517256

>  <Active>  (54) 
1

>  <Smiles>  (54) 
Cc1cccc(C)c1/C=C/n1cnc2c(Nc3ccc(P(C)(C)=O)cc3)nc(CCC#N)nc21

>  <canonical_smi>  (54) 
Cc1cccc(C)c1/C=C/n1cnc2c(Nc3ccc(P(C)(C)=O)cc3)nc(CCC#N)nc21

>  <Set>  (54) 
G2 active

>  <Set_type>  (54) 
Train

>  <MW>  (54) 
470.52

>  <HBD>  (54) 
1

>  <HBA>  (54) 
6

>  <NRB>  (54) 
7

>  <NR>  (54) 
4

>  <NAR>  (54) 
4

>  <PSA>  (54) 
96.49

>  <Standard Type>  (54) 
nan

>  <Standard Relation>  (54) 
nan

>  <Standard Units>  (54) 
nan

>  <Standard Value>  (54) 
nan

>  <Assay ChEMBL ID>  (54) 
nan

>  <Assay Description>  (54) 
nan

>  <BAO Label>  (54) 
nan

$$$$

     RDKit          2D

 37 41  0  0  0  0  0  0  0  0999 V2000
    0.3177    5.1814    0.0000 C   0  0  0  0  0  0  0  0  0  0  0  0
    1.7849    5.4933    0.0000 C   0  0  0  0  0  0  0  0  0  0  0  0
    2.2484    6.9199    0.0000 C   0  0  0  0  0  0  0  0  0  0  0  0
    3.7156    7.2317    0.0000 C   0  0  0  0  0  0  0  0  0  0  0  0
    4.7193    6.1170    0.0000 C   0  0  0  0  0  0  0  0  0  0  0  0
    4.2558    4.6904    0.0000 C   0  0  0  0  0  0  0  0  0  0  0  0
    5.2595    3.5757    0.0000 C   0  0  0  0  0  0  0  0  0  0  0  0
    2.7886    4.3786    0.0000 C   0  0  0  0  0  0  0  0  0  0  0  0
    2.3250    2.9520    0.0000 C   0  0  0  0  0  0  0  0  0  0  0  0
    0.8578    2.6401    0.0000 C   0  0  0  0  0  0  0  0  0  0  0  0
    0.3943    1.2135    0.0000 N   0  0  0  0  0  0  0  0  0  0  0  0
    1.2760    0.0000    0.0000 C   0  0  0  0  0  0  0  0  0  0  0  0
    0.3943   -1.2135    0.0000 N   0  0  0  0  0  0  0  0  0  0  0  0
   -1.0323   -0.7500    0.0000 C   0  0  0  0  0  0  0  0  0  0  0  0
   -2.3313   -1.5000    0.0000 C   0  0  0  0  0  0  0  0  0  0  0  0
   -2.3313   -3.0000    0.0000 N   0  0  0  0  0  0  0  0  0  0  0  0
   -3.6304   -3.7500    0.0000 C   0  0  0  0  0  0  0  0  0  0  0  0
   -4.9294   -3.0000    0.0000 C   0  0  0  0  0  0  0  0  0  0  0  0
   -6.2284   -3.7500    0.0000 C   0  0  0  0  0  0  0  0  0  0  0  0
   -6.2284   -5.2500    0.0000 C   0  0  0  0  0  0  0  0  0  0  0  0
   -7.5275   -6.0000    0.0000 P   0  0  0  0  0  0  0  0  0  0  0  0
   -6.7775   -7.2990    0.0000 C   0  0  0  0  0  0  0  0  0  0  0  0
   -8.2775   -4.7010    0.0000 C   0  0  0  0  0  0  0  0  0  0  0  0
   -8.8265   -6.7500    0.0000 O   0  0  0  0  0  0  0  0  0  0  0  0
   -4.9294   -6.0000    0.0000 C   0  0  0  0  0  0  0  0  0  0  0  0
   -3.6304   -5.2500    0.0000 C   0  0  0  0  0  0  0  0  0  0  0  0
   -3.6304   -0.7500    0.0000 N   0  0  0  0  0  0  0  0  0  0  0  0
   -3.6304    0.7500    0.0000 C   0  0  0  0  0  0  0  0  0  0  0  0
   -4.9294    1.5000    0.0000 C   0  0  0  0  0  0  0  0  0  0  0  0
   -4.9294    3.0000    0.0000 C   0  0  0  0  0  0  0  0  0  0  0  0
   -6.2284    3.7500    0.0000 C   0  0  0  0  0  0  0  0  0  0  0  0
   -7.5275    3.0000    0.0000 N   0  0  0  0  0  0  0  0  0  0  0  0
   -8.8265    3.7500    0.0000 C   0  0  0  0  0  0  0  0  0  0  0  0
   -7.5275    1.5000    0.0000 C   0  0  0  0  0  0  0  0  0  0  0  0
   -6.2284    0.7500    0.0000 C   0  0  0  0  0  0  0  0  0  0  0  0
   -2.3313    1.5000    0.0000 N   0  0  0  0  0  0  0  0  0  0  0  0
   -1.0323    0.7500    0.0000 C   0  0  0  0  0  0  0  0  0  0  0  0
  1  2  1  0
  2  3  2  0
  3  4  1  0
  4  5  2  0
  5  6  1  0
  6  7  1  0
  6  8  2  0
  8  9  1  0
  9 10  2  0
 10 11  1  0
 11 12  1  0
 12 13  2  0
 13 14  1  0
 14 15  2  0
 15 16  1  0
 16 17  1  0
 17 18  2  0
 18 19  1  0
 19 20  2  0
 20 21  1  0
 21 22  1  0
 21 23  1  0
 21 24  2  0
 20 25  1  0
 25 26  2  0
 15 27  1  0
 27 28  2  0
 28 29  1  0
 29 30  1  0
 30 31  1  0
 31 32  1  0
 32 33  1  0
 32 34  1  0
 34 35  1  0
 28 36  1  0
 36 37  2  0
  8  2  1  0
 37 11  1  0
 37 14  1  0
 26 17  1  0
 35 29  1  0
M  END
>  <Compound_ID>  (55) 
CHEMBL461768

>  <Active>  (55) 
1

>  <Smiles>  (55) 
Cc1cccc(C)c1/C=C/n1cnc2c(Nc3ccc(P(C)(C)=O)cc3)nc(C3CCN(C)CC3)nc21

>  <canonical_smi>  (55) 
Cc1cccc(C)c1/C=C/n1cnc2c(Nc3ccc(P(C)(C)=O)cc3)nc(C3CCN(C)CC3)nc21

>  <Set>  (55) 
G2 active

>  <Set_type>  (55) 
Train

>  <MW>  (55) 
514.61

>  <HBD>  (55) 
1

>  <HBA>  (55) 
6

>  <NRB>  (55) 
6

>  <NR>  (55) 
5

>  <NAR>  (55) 
4

>  <PSA>  (55) 
75.94

>  <Standard Type>  (55) 
nan

>  <Standard Relation>  (55) 
nan

>  <Standard Units>  (55) 
nan

>  <Standard Value>  (55) 
nan

>  <Assay ChEMBL ID>  (55) 
nan

>  <Assay Description>  (55) 
nan

>  <BAO Label>  (55) 
nan

$$$$

     RDKit          2D

 32 36  0  0  0  0  0  0  0  0999 V2000
   -2.9499    4.2246    0.0000 C   0  0  0  0  0  0  0  0  0  0  0  0
   -1.8351    3.2209    0.0000 C   0  0  0  0  0  0  0  0  0  0  0  0
   -0.4086    3.6844    0.0000 C   0  0  0  0  0  0  0  0  0  0  0  0
    0.7062    2.6807    0.0000 C   0  0  0  0  0  0  0  0  0  0  0  0
    0.3943    1.2135    0.0000 C   0  0  0  0  0  0  0  0  0  0  0  0
    1.2760    0.0000    0.0000 N   0  0  0  0  0  0  0  0  0  0  0  0
    0.3943   -1.2135    0.0000 N   0  0  0  0  0  0  0  0  0  0  0  0
   -1.0323   -0.7500    0.0000 C   0  0  0  0  0  0  0  0  0  0  0  0
   -1.0323    0.7500    0.0000 C   0  0  0  0  0  0  0  0  0  0  0  0
   -2.1470    1.7537    0.0000 C   0  0  0  0  0  0  0  0  0  0  0  0
   -3.5736    1.2902    0.0000 C   0  0  0  0  0  0  0  0  0  0  0  0
   -4.6883    2.2939    0.0000 C   0  0  0  0  0  0  0  0  0  0  0  0
   -6.1149    1.8303    0.0000 N   0  0  0  0  0  0  0  0  0  0  0  0
   -6.5784    0.4038    0.0000 C   0  0  0  0  0  0  0  0  0  0  0  0
   -8.0784    0.4038    0.0000 N   0  0  0  0  0  0  0  0  0  0  0  0
   -8.5419    1.8303    0.0000 C   0  0  0  0  0  0  0  0  0  0  0  0
   -9.9123    2.4404    0.0000 C   0  0  0  0  0  0  0  0  0  0  0  0
  -11.1258    1.5588    0.0000 N   0  0  0  0  0  0  0  0  0  0  0  0
  -12.4961    2.1689    0.0000 C   0  0  0  0  0  0  0  0  0  0  0  0
  -12.6529    3.6607    0.0000 C   0  0  0  0  0  0  0  0  0  0  0  0
  -14.0232    4.2708    0.0000 C   0  0  0  0  0  0  0  0  0  0  0  0
  -15.2367    3.3891    0.0000 C   0  0  0  0  0  0  0  0  0  0  0  0
  -16.6071    3.9992    0.0000 P   0  0  0  0  0  0  0  0  0  0  0  0
  -17.2172    2.6289    0.0000 C   0  0  0  0  0  0  0  0  0  0  0  0
  -15.9970    5.3695    0.0000 C   0  0  0  0  0  0  0  0  0  0  0  0
  -17.9774    4.6093    0.0000 O   0  0  0  0  0  0  0  0  0  0  0  0
  -15.0799    1.8973    0.0000 C   0  0  0  0  0  0  0  0  0  0  0  0
  -13.7096    1.2872    0.0000 C   0  0  0  0  0  0  0  0  0  0  0  0
  -10.0691    3.9322    0.0000 N   0  0  0  0  0  0  0  0  0  0  0  0
   -8.8555    4.8139    0.0000 C   0  0  0  0  0  0  0  0  0  0  0  0
   -7.4852    4.2038    0.0000 N   0  0  0  0  0  0  0  0  0  0  0  0
   -7.3284    2.7120    0.0000 C   0  0  0  0  0  0  0  0  0  0  0  0
  1  2  1  0
  2  3  2  0
  3  4  1  0
  4  5  2  0
  5  6  1  0
  6  7  1  0
  7  8  2  0
  8  9  1  0
  9 10  2  0
 10 11  1  0
 11 12  2  0
 12 13  1  0
 13 14  1  0
 14 15  2  0
 15 16  1  0
 16 17  2  0
 17 18  1  0
 18 19  1  0
 19 20  2  0
 20 21  1  0
 21 22  2  0
 22 23  1  0
 23 24  1  0
 23 25  1  0
 23 26  2  0
 22 27  1  0
 27 28  2  0
 17 29  1  0
 29 30  2  0
 30 31  1  0
 31 32  2  0
 10  2  1  0
 32 13  1  0
  9  5  1  0
 32 16  1  0
 28 19  1  0
M  END
>  <Compound_ID>  (56) 
CHEMBL510893

>  <Active>  (56) 
1

>  <Smiles>  (56) 
Cc1ccc2[nH]ncc2c1/C=C/n1cnc2c(Nc3ccc(P(C)(C)=O)cc3)ncnc21

>  <canonical_smi>  (56) 
Cc1ccc2[nH]ncc2c1/C=C/n1cnc2c(Nc3ccc(P(C)(C)=O)cc3)ncnc21

>  <Set>  (56) 
G2 active

>  <Set_type>  (56) 
Train

>  <MW>  (56) 
443.45

>  <HBD>  (56) 
2

>  <HBA>  (56) 
6

>  <NRB>  (56) 
5

>  <NR>  (56) 
5

>  <NAR>  (56) 
5

>  <PSA>  (56) 
101.38

>  <Standard Type>  (56) 
nan

>  <Standard Relation>  (56) 
nan

>  <Standard Units>  (56) 
nan

>  <Standard Value>  (56) 
nan

>  <Assay ChEMBL ID>  (56) 
nan

>  <Assay Description>  (56) 
nan

>  <BAO Label>  (56) 
nan

$$$$

     RDKit          2D

 35 39  0  0  0  0  0  0  0  0999 V2000
   -3.0000   -2.5981    0.0000 C   0  0  0  0  0  0  0  0  0  0  0  0
   -1.5000   -2.5981    0.0000 C   0  0  0  0  0  0  0  0  0  0  0  0
   -0.7500   -3.8971    0.0000 C   0  0  0  0  0  0  0  0  0  0  0  0
    0.7500   -3.8971    0.0000 C   0  0  0  0  0  0  0  0  0  0  0  0
    1.5000   -5.1962    0.0000 C   0  0  0  0  0  0  0  0  0  0  0  0
    0.7500   -6.4952    0.0000 C   0  0  0  0  0  0  0  0  0  0  0  0
    1.5000   -7.7942    0.0000 C   0  0  0  0  0  0  0  0  0  0  0  0
    0.7500   -9.0933    0.0000 O   0  0  0  0  0  0  0  0  0  0  0  0
    3.0000   -7.7942    0.0000 C   0  0  0  0  0  0  0  0  0  0  0  0
    3.7500   -6.4952    0.0000 C   0  0  0  0  0  0  0  0  0  0  0  0
    3.0000   -5.1962    0.0000 C   0  0  0  0  0  0  0  0  0  0  0  0
    3.7500   -3.8971    0.0000 Cl  0  0  0  0  0  0  0  0  0  0  0  0
    1.5000   -2.5981    0.0000 C   0  0  0  0  0  0  0  0  0  0  0  0
    0.7500   -1.2990    0.0000 C   0  0  0  0  0  0  0  0  0  0  0  0
    1.5000    0.0000    0.0000 N   0  0  0  0  0  0  0  0  0  0  0  0
    0.7500    1.2990    0.0000 N   0  0  0  0  0  0  0  0  0  0  0  0
   -0.7500    1.2990    0.0000 C   0  0  0  0  0  0  0  0  0  0  0  0
   -1.5000    2.5981    0.0000 N   0  0  0  0  0  0  0  0  0  0  0  0
   -0.7500    3.8971    0.0000 C   0  0  0  0  0  0  0  0  0  0  0  0
    0.7500    3.8971    0.0000 C   0  0  0  0  0  0  0  0  0  0  0  0
    1.5000    5.1962    0.0000 C   0  0  0  0  0  0  0  0  0  0  0  0
    0.7500    6.4952    0.0000 C   0  0  0  0  0  0  0  0  0  0  0  0
    1.5000    7.7942    0.0000 C   0  0  0  0  0  0  0  0  0  0  0  0
    0.7500    9.0933    0.0000 O   0  0  0  0  0  0  0  0  0  0  0  0
    3.0000    7.7942    0.0000 N   0  0  0  0  0  0  0  0  0  0  0  0
    3.7500    6.4952    0.0000 C   0  0  0  0  0  0  0  0  0  0  0  0
    5.2500    6.4952    0.0000 C   0  0  0  0  0  0  0  0  0  0  0  0
    6.0000    7.7942    0.0000 N   0  0  0  0  0  0  0  0  0  0  0  0
    7.5000    7.7942    0.0000 C   0  0  0  0  0  0  0  0  0  0  0  0
    5.2500    9.0933    0.0000 C   0  0  0  0  0  0  0  0  0  0  0  0
    3.7500    9.0933    0.0000 C   0  0  0  0  0  0  0  0  0  0  0  0
   -0.7500    6.4952    0.0000 C   0  0  0  0  0  0  0  0  0  0  0  0
   -1.5000    5.1962    0.0000 C   0  0  0  0  0  0  0  0  0  0  0  0
   -1.5000    0.0000    0.0000 N   0  0  0  0  0  0  0  0  0  0  0  0
   -0.7500   -1.2990    0.0000 C   0  0  0  0  0  0  0  0  0  0  0  0
  1  2  1  0
  2  3  2  0
  3  4  1  0
  4  5  1  0
  5  6  2  0
  6  7  1  0
  7  8  1  0
  7  9  2  0
  9 10  1  0
 10 11  2  0
 11 12  1  0
  4 13  2  0
 13 14  1  0
 14 15  2  0
 15 16  1  0
 16 17  2  0
 17 18  1  0
 18 19  1  0
 19 20  2  0
 20 21  1  0
 21 22  2  0
 22 23  1  0
 23 24  2  0
 23 25  1  0
 25 26  1  0
 26 27  1  0
 27 28  1  0
 28 29  1  0
 28 30  1  0
 30 31  1  0
 22 32  1  0
 32 33  2  0
 17 34  1  0
 34 35  2  0
 35  2  1  0
 11  5  1  0
 35 14  1  0
 33 19  1  0
 31 25  1  0
M  END
>  <Compound_ID>  (57) 
CHEMBL399246

>  <Active>  (57) 
1

>  <Smiles>  (57) 
Cc1cc(-c2cc(O)ccc2Cl)cc2nnc(Nc3ccc(C(=O)N4CCN(C)CC4)cc3)nc12

>  <canonical_smi>  (57) 
Cc1cc(-c2cc(O)ccc2Cl)cc2nnc(Nc3ccc(C(=O)N4CCN(C)CC4)cc3)nc12

>  <Set>  (57) 
G2 active

>  <Set_type>  (57) 
Train

>  <MW>  (57) 
488.98

>  <HBD>  (57) 
2

>  <HBA>  (57) 
7

>  <NRB>  (57) 
4

>  <NR>  (57) 
5

>  <NAR>  (57) 
4

>  <PSA>  (57) 
94.48

>  <Standard Type>  (57) 
nan

>  <Standard Relation>  (57) 
nan

>  <Standard Units>  (57) 
nan

>  <Standard Value>  (57) 
nan

>  <Assay ChEMBL ID>  (57) 
nan

>  <Assay Description>  (57) 
nan

>  <BAO Label>  (57) 
nan

$$$$

     RDKit          2D

 37 41  0  0  0  0  0  0  0  0999 V2000
    0.3177    5.1814    0.0000 C   0  0  0  0  0  0  0  0  0  0  0  0
    1.7849    5.4933    0.0000 C   0  0  0  0  0  0  0  0  0  0  0  0
    2.2484    6.9199    0.0000 C   0  0  0  0  0  0  0  0  0  0  0  0
    3.7156    7.2317    0.0000 C   0  0  0  0  0  0  0  0  0  0  0  0
    4.7193    6.1170    0.0000 C   0  0  0  0  0  0  0  0  0  0  0  0
    4.2558    4.6904    0.0000 C   0  0  0  0  0  0  0  0  0  0  0  0
    5.2595    3.5757    0.0000 C   0  0  0  0  0  0  0  0  0  0  0  0
    2.7886    4.3786    0.0000 C   0  0  0  0  0  0  0  0  0  0  0  0
    2.3250    2.9520    0.0000 C   0  0  0  0  0  0  0  0  0  0  0  0
    0.8578    2.6401    0.0000 C   0  0  0  0  0  0  0  0  0  0  0  0
    0.3943    1.2135    0.0000 N   0  0  0  0  0  0  0  0  0  0  0  0
    1.2760    0.0000    0.0000 C   0  0  0  0  0  0  0  0  0  0  0  0
    0.3943   -1.2135    0.0000 N   0  0  0  0  0  0  0  0  0  0  0  0
   -1.0323   -0.7500    0.0000 C   0  0  0  0  0  0  0  0  0  0  0  0
   -2.3313   -1.5000    0.0000 C   0  0  0  0  0  0  0  0  0  0  0  0
   -2.3313   -3.0000    0.0000 N   0  0  0  0  0  0  0  0  0  0  0  0
   -3.6304   -3.7500    0.0000 C   0  0  0  0  0  0  0  0  0  0  0  0
   -4.9294   -3.0000    0.0000 C   0  0  0  0  0  0  0  0  0  0  0  0
   -6.2284   -3.7500    0.0000 C   0  0  0  0  0  0  0  0  0  0  0  0
   -6.2284   -5.2500    0.0000 C   0  0  0  0  0  0  0  0  0  0  0  0
   -7.5275   -6.0000    0.0000 P   0  0  0  0  0  0  0  0  0  0  0  0
   -6.7775   -7.2990    0.0000 C   0  0  0  0  0  0  0  0  0  0  0  0
   -8.2775   -4.7010    0.0000 C   0  0  0  0  0  0  0  0  0  0  0  0
   -8.8265   -6.7500    0.0000 O   0  0  0  0  0  0  0  0  0  0  0  0
   -4.9294   -6.0000    0.0000 C   0  0  0  0  0  0  0  0  0  0  0  0
   -3.6304   -5.2500    0.0000 C   0  0  0  0  0  0  0  0  0  0  0  0
   -3.6304   -0.7500    0.0000 N   0  0  0  0  0  0  0  0  0  0  0  0
   -3.6304    0.7500    0.0000 C   0  0  0  0  0  0  0  0  0  0  0  0
   -4.9294    1.5000    0.0000 O   0  0  0  0  0  0  0  0  0  0  0  0
   -4.9294    3.0000    0.0000 C   0  0  0  0  0  0  0  0  0  0  0  0
   -3.6304    3.7500    0.0000 C   0  0  0  0  0  0  0  0  0  0  0  0
   -3.6304    5.2500    0.0000 C   0  0  0  0  0  0  0  0  0  0  0  0
   -4.9294    6.0000    0.0000 C   0  0  0  0  0  0  0  0  0  0  0  0
   -6.2284    5.2500    0.0000 N   0  0  0  0  0  0  0  0  0  0  0  0
   -6.2284    3.7500    0.0000 C   0  0  0  0  0  0  0  0  0  0  0  0
   -2.3313    1.5000    0.0000 N   0  0  0  0  0  0  0  0  0  0  0  0
   -1.0323    0.7500    0.0000 C   0  0  0  0  0  0  0  0  0  0  0  0
  1  2  1  0
  2  3  2  0
  3  4  1  0
  4  5  2  0
  5  6  1  0
  6  7  1  0
  6  8  2  0
  8  9  1  0
  9 10  2  0
 10 11  1  0
 11 12  1  0
 12 13  2  0
 13 14  1  0
 14 15  2  0
 15 16  1  0
 16 17  1  0
 17 18  2  0
 18 19  1  0
 19 20  2  0
 20 21  1  0
 21 22  1  0
 21 23  1  0
 21 24  2  0
 20 25  1  0
 25 26  2  0
 15 27  1  0
 27 28  2  0
 28 29  1  0
 29 30  1  0
 30 31  2  0
 31 32  1  0
 32 33  2  0
 33 34  1  0
 34 35  2  0
 28 36  1  0
 36 37  2  0
  8  2  1  0
 37 11  1  0
 37 14  1  0
 26 17  1  0
 35 30  1  0
M  END
>  <Compound_ID>  (58) 
CHEMBL518166

>  <Active>  (58) 
1

>  <Smiles>  (58) 
Cc1cccc(C)c1/C=C/n1cnc2c(Nc3ccc(P(C)(C)=O)cc3)nc(Oc3cccnc3)nc21

>  <canonical_smi>  (58) 
Cc1cccc(C)c1/C=C/n1cnc2c(Nc3ccc(P(C)(C)=O)cc3)nc(Oc3cccnc3)nc21

>  <Set>  (58) 
G2 active

>  <Set_type>  (58) 
Train

>  <MW>  (58) 
510.54

>  <HBD>  (58) 
1

>  <HBA>  (58) 
7

>  <NRB>  (58) 
7

>  <NR>  (58) 
5

>  <NAR>  (58) 
5

>  <PSA>  (58) 
94.82

>  <Standard Type>  (58) 
nan

>  <Standard Relation>  (58) 
nan

>  <Standard Units>  (58) 
nan

>  <Standard Value>  (58) 
nan

>  <Assay ChEMBL ID>  (58) 
nan

>  <Assay Description>  (58) 
nan

>  <BAO Label>  (58) 
nan

$$$$

     RDKit          2D

 33 36  0  0  0  0  0  0  0  0999 V2000
    3.0000    0.0000    0.0000 C   0  0  0  0  0  0  0  0  0  0  0  0
    1.5000    0.0000    0.0000 C   0  0  0  0  0  0  0  0  0  0  0  0
    0.7500   -1.2990    0.0000 N   0  0  0  0  0  0  0  0  0  0  0  0
   -0.7500   -1.2990    0.0000 C   0  0  0  0  0  0  0  0  0  0  0  0
   -1.5000   -2.5981    0.0000 N   0  0  0  0  0  0  0  0  0  0  0  0
   -3.0000   -2.5981    0.0000 C   0  0  0  0  0  0  0  0  0  0  0  0
   -3.8817   -3.8116    0.0000 N   0  0  0  0  0  0  0  0  0  0  0  0
   -5.3083   -3.3481    0.0000 C   0  0  0  0  0  0  0  0  0  0  0  0
   -5.3083   -1.8481    0.0000 C   0  0  0  0  0  0  0  0  0  0  0  0
   -6.5218   -0.9664    0.0000 C   0  0  0  0  0  0  0  0  0  0  0  0
   -7.8921   -1.5765    0.0000 O   0  0  0  0  0  0  0  0  0  0  0  0
   -6.3650    0.5254    0.0000 N   0  0  0  0  0  0  0  0  0  0  0  0
   -7.5785    1.4071    0.0000 C   0  0  0  0  0  0  0  0  0  0  0  0
   -7.4217    2.8988    0.0000 C   0  0  0  0  0  0  0  0  0  0  0  0
   -6.0514    3.5090    0.0000 C   0  0  0  0  0  0  0  0  0  0  0  0
   -8.6353    3.7805    0.0000 C   0  0  0  0  0  0  0  0  0  0  0  0
  -10.0056    3.1704    0.0000 C   0  0  0  0  0  0  0  0  0  0  0  0
  -10.1624    1.6786    0.0000 C   0  0  0  0  0  0  0  0  0  0  0  0
   -8.9488    0.7970    0.0000 C   0  0  0  0  0  0  0  0  0  0  0  0
   -9.1056   -0.6948    0.0000 Cl  0  0  0  0  0  0  0  0  0  0  0  0
   -3.8817   -1.3846    0.0000 S   0  0  0  0  0  0  0  0  0  0  0  0
   -1.5000    0.0000    0.0000 C   0  0  0  0  0  0  0  0  0  0  0  0
   -0.7500    1.2990    0.0000 C   0  0  0  0  0  0  0  0  0  0  0  0
   -1.5000    2.5981    0.0000 N   0  0  0  0  0  0  0  0  0  0  0  0
   -0.7500    3.8971    0.0000 C   0  0  0  0  0  0  0  0  0  0  0  0
   -1.5000    5.1962    0.0000 C   0  0  0  0  0  0  0  0  0  0  0  0
   -3.0000    5.1962    0.0000 N   0  0  0  0  0  0  0  0  0  0  0  0
   -3.7500    6.4952    0.0000 C   0  0  0  0  0  0  0  0  0  0  0  0
   -3.0000    7.7942    0.0000 C   0  0  0  0  0  0  0  0  0  0  0  0
   -3.7500    9.0933    0.0000 O   0  0  0  0  0  0  0  0  0  0  0  0
   -3.7500    3.8971    0.0000 C   0  0  0  0  0  0  0  0  0  0  0  0
   -3.0000    2.5981    0.0000 C   0  0  0  0  0  0  0  0  0  0  0  0
    0.7500    1.2990    0.0000 N   0  0  0  0  0  0  0  0  0  0  0  0
  1  2  1  0
  2  3  2  0
  3  4  1  0
  4  5  1  0
  5  6  1  0
  6  7  2  0
  7  8  1  0
  8  9  2  0
  9 10  1  0
 10 11  2  0
 10 12  1  0
 12 13  1  0
 13 14  2  0
 14 15  1  0
 14 16  1  0
 16 17  2  0
 17 18  1  0
 18 19  2  0
 19 20  1  0
  9 21  1  0
  4 22  2  0
 22 23  1  0
 23 24  1  0
 24 25  1  0
 25 26  1  0
 26 27  1  0
 27 28  1  0
 28 29  1  0
 29 30  1  0
 27 31  1  0
 31 32  1  0
 23 33  2  0
 33  2  1  0
 21  6  1  0
 32 24  1  0
 19 13  1  0
M  END
>  <Compound_ID>  (59) 
CHEMBL1421

>  <Active>  (59) 
1

>  <Smiles>  (59) 
Cc1nc(Nc2ncc(C(=O)Nc3c(C)cccc3Cl)s2)cc(N2CCN(CCO)CC2)n1

>  <canonical_smi>  (59) 
Cc1nc(Nc2ncc(C(=O)Nc3c(C)cccc3Cl)s2)cc(N2CCN(CCO)CC2)n1

>  <Set>  (59) 
G2 active

>  <Set_type>  (59) 
Train

>  <MW>  (59) 
488.02

>  <HBD>  (59) 
3

>  <HBA>  (59) 
8

>  <NRB>  (59) 
7

>  <NR>  (59) 
4

>  <NAR>  (59) 
3

>  <PSA>  (59) 
106.51

>  <Standard Type>  (59) 
nan

>  <Standard Relation>  (59) 
nan

>  <Standard Units>  (59) 
nan

>  <Standard Value>  (59) 
nan

>  <Assay ChEMBL ID>  (59) 
nan

>  <Assay Description>  (59) 
nan

>  <BAO Label>  (59) 
nan

$$$$

     RDKit          2D

 36 39  0  0  0  0  0  0  0  0999 V2000
   -3.7500   -6.4952    0.0000 C   0  0  0  0  0  0  0  0  0  0  0  0
   -3.0000   -5.1962    0.0000 O   0  0  0  0  0  0  0  0  0  0  0  0
   -1.5000   -5.1962    0.0000 C   0  0  0  0  0  0  0  0  0  0  0  0
   -0.7500   -3.8971    0.0000 C   0  0  0  0  0  0  0  0  0  0  0  0
    0.7500   -3.8971    0.0000 C   0  0  0  0  0  0  0  0  0  0  0  0
    1.5000   -2.5981    0.0000 N   0  0  0  0  0  0  0  0  0  0  0  0
    0.7500   -1.2990    0.0000 C   0  0  0  0  0  0  0  0  0  0  0  0
    1.5000    0.0000    0.0000 C   0  0  0  0  0  0  0  0  0  0  0  0
    3.0000    0.0000    0.0000 C   0  0  0  0  0  0  0  0  0  0  0  0
    4.5000    0.0000    0.0000 N   0  0  0  0  0  0  0  0  0  0  0  0
    0.7500    1.2990    0.0000 C   0  0  0  0  0  0  0  0  0  0  0  0
   -0.7500    1.2990    0.0000 N   0  0  0  0  0  0  0  0  0  0  0  0
   -1.5000    0.0000    0.0000 C   0  0  0  0  0  0  0  0  0  0  0  0
   -3.0000    0.0000    0.0000 C   0  0  0  0  0  0  0  0  0  0  0  0
   -3.7500   -1.2990    0.0000 C   0  0  0  0  0  0  0  0  0  0  0  0
   -5.2500   -1.2990    0.0000 O   0  0  0  0  0  0  0  0  0  0  0  0
   -6.0000    0.0000    0.0000 C   0  0  0  0  0  0  0  0  0  0  0  0
   -7.5000   -0.0000    0.0000 C   0  0  0  0  0  0  0  0  0  0  0  0
   -8.2500    1.2990    0.0000 C   0  0  0  0  0  0  0  0  0  0  0  0
   -9.7500    1.2990    0.0000 N   0  0  0  0  0  0  0  0  0  0  0  0
  -10.5000    2.5981    0.0000 C   0  0  0  0  0  0  0  0  0  0  0  0
  -12.0000    2.5981    0.0000 C   0  0  0  0  0  0  0  0  0  0  0  0
  -12.7500    1.2990    0.0000 N   0  0  0  0  0  0  0  0  0  0  0  0
  -14.2500    1.2990    0.0000 C   0  0  0  0  0  0  0  0  0  0  0  0
  -12.0000    0.0000    0.0000 C   0  0  0  0  0  0  0  0  0  0  0  0
  -10.5000    0.0000    0.0000 C   0  0  0  0  0  0  0  0  0  0  0  0
   -3.0000   -2.5981    0.0000 C   0  0  0  0  0  0  0  0  0  0  0  0
   -3.7500   -3.8971    0.0000 O   0  0  0  0  0  0  0  0  0  0  0  0
   -5.2500   -3.8971    0.0000 C   0  0  0  0  0  0  0  0  0  0  0  0
   -1.5000   -2.5981    0.0000 C   0  0  0  0  0  0  0  0  0  0  0  0
   -0.7500   -1.2990    0.0000 C   0  0  0  0  0  0  0  0  0  0  0  0
    1.5000   -5.1962    0.0000 C   0  0  0  0  0  0  0  0  0  0  0  0
    3.0000   -5.1962    0.0000 Cl  0  0  0  0  0  0  0  0  0  0  0  0
    0.7500   -6.4952    0.0000 C   0  0  0  0  0  0  0  0  0  0  0  0
   -0.7500   -6.4952    0.0000 C   0  0  0  0  0  0  0  0  0  0  0  0
   -1.5000   -7.7942    0.0000 Cl  0  0  0  0  0  0  0  0  0  0  0  0
  1  2  1  0
  2  3  1  0
  3  4  2  0
  4  5  1  0
  5  6  1  0
  6  7  1  0
  7  8  2  0
  8  9  1  0
  9 10  3  0
  8 11  1  0
 11 12  2  0
 12 13  1  0
 13 14  2  0
 14 15  1  0
 15 16  1  0
 16 17  1  0
 17 18  1  0
 18 19  1  0
 19 20  1  0
 20 21  1  0
 21 22  1  0
 22 23  1  0
 23 24  1  0
 23 25  1  0
 25 26  1  0
 15 27  2  0
 27 28  1  0
 28 29  1  0
 27 30  1  0
 30 31  2  0
  5 32  2  0
 32 33  1  0
 32 34  1  0
 34 35  2  0
 35 36  1  0
 35  3  1  0
 31  7  1  0
 31 13  1  0
 26 20  1  0
M  END
>  <Compound_ID>  (60) 
CHEMBL288441

>  <Active>  (60) 
1

>  <Smiles>  (60) 
COc1cc(Nc2c(C#N)cnc3cc(OCCCN4CCN(C)CC4)c(OC)cc23)c(Cl)cc1Cl

>  <canonical_smi>  (60) 
COc1cc(Nc2c(C#N)cnc3cc(OCCCN4CCN(C)CC4)c(OC)cc23)c(Cl)cc1Cl

>  <Set>  (60) 
G2 active

>  <Set_type>  (60) 
Train

>  <MW>  (60) 
530.46

>  <HBD>  (60) 
1

>  <HBA>  (60) 
8

>  <NRB>  (60) 
9

>  <NR>  (60) 
4

>  <NAR>  (60) 
3

>  <PSA>  (60) 
82.88

>  <Standard Type>  (60) 
nan

>  <Standard Relation>  (60) 
nan

>  <Standard Units>  (60) 
nan

>  <Standard Value>  (60) 
nan

>  <Assay ChEMBL ID>  (60) 
nan

>  <Assay Description>  (60) 
nan

>  <BAO Label>  (60) 
nan

$$$$

     RDKit          2D

 35 38  0  0  0  0  0  0  0  0999 V2000
    3.0000    0.0000    0.0000 C   0  0  0  0  0  0  0  0  0  0  0  0
    1.5000    0.0000    0.0000 C   0  0  0  0  0  0  0  0  0  0  0  0
    0.7500   -1.2990    0.0000 C   0  0  0  0  0  0  0  0  0  0  0  0
   -0.7500   -1.2990    0.0000 C   0  0  0  0  0  0  0  0  0  0  0  0
   -1.5000    0.0000    0.0000 C   0  0  0  0  0  0  0  0  0  0  0  0
   -3.0000    0.0000    0.0000 N   0  0  0  0  0  0  0  0  0  0  0  0
   -3.7500    1.2990    0.0000 C   0  0  0  0  0  0  0  0  0  0  0  0
   -3.0000    2.5981    0.0000 O   0  0  0  0  0  0  0  0  0  0  0  0
   -5.2500    1.2990    0.0000 N   0  0  0  0  0  0  0  0  0  0  0  0
   -6.0000    2.5981    0.0000 C   0  0  0  0  0  0  0  0  0  0  0  0
   -5.2500    3.8971    0.0000 C   0  0  0  0  0  0  0  0  0  0  0  0
   -6.0000    5.1962    0.0000 C   0  0  0  0  0  0  0  0  0  0  0  0
   -7.5000    5.1962    0.0000 C   0  0  0  0  0  0  0  0  0  0  0  0
   -8.2500    6.4952    0.0000 Cl  0  0  0  0  0  0  0  0  0  0  0  0
   -8.2500    3.8971    0.0000 C   0  0  0  0  0  0  0  0  0  0  0  0
   -9.7500    3.8971    0.0000 C   0  0  0  0  0  0  0  0  0  0  0  0
  -11.2500    3.8971    0.0000 F   0  0  0  0  0  0  0  0  0  0  0  0
   -9.7500    2.3971    0.0000 F   0  0  0  0  0  0  0  0  0  0  0  0
   -9.7500    5.3971    0.0000 F   0  0  0  0  0  0  0  0  0  0  0  0
   -7.5000    2.5981    0.0000 C   0  0  0  0  0  0  0  0  0  0  0  0
   -0.7500    1.2990    0.0000 C   0  0  0  0  0  0  0  0  0  0  0  0
    0.7500    1.2990    0.0000 C   0  0  0  0  0  0  0  0  0  0  0  0
    1.5000    2.5981    0.0000 N   0  0  0  0  0  0  0  0  0  0  0  0
    0.7500    3.8971    0.0000 C   0  0  0  0  0  0  0  0  0  0  0  0
   -0.7500    3.8971    0.0000 N   0  0  0  0  0  0  0  0  0  0  0  0
   -1.5000    5.1962    0.0000 C   0  0  0  0  0  0  0  0  0  0  0  0
   -0.7500    6.4952    0.0000 C   0  0  0  0  0  0  0  0  0  0  0  0
    0.7500    6.4952    0.0000 C   0  0  0  0  0  0  0  0  0  0  0  0
    1.5000    7.7942    0.0000 C   0  0  0  0  0  0  0  0  0  0  0  0
    3.0000    7.7942    0.0000 C   0  0  0  0  0  0  0  0  0  0  0  0
    3.7500    9.0933    0.0000 C   0  0  0  0  0  0  0  0  0  0  0  0
    3.0000   10.3923    0.0000 C   0  0  0  0  0  0  0  0  0  0  0  0
    1.5000   10.3923    0.0000 N   0  0  0  0  0  0  0  0  0  0  0  0
    0.7500    9.0933    0.0000 C   0  0  0  0  0  0  0  0  0  0  0  0
    1.5000    5.1962    0.0000 N   0  0  0  0  0  0  0  0  0  0  0  0
  1  2  1  0
  2  3  2  0
  3  4  1  0
  4  5  2  0
  5  6  1  0
  6  7  1  0
  7  8  2  0
  7  9  1  0
  9 10  1  0
 10 11  2  0
 11 12  1  0
 12 13  2  0
 13 14  1  0
 13 15  1  0
 15 16  1  0
 16 17  1  0
 16 18  1  0
 16 19  1  0
 15 20  2  0
  5 21  1  0
 21 22  2  0
 22 23  1  0
 23 24  1  0
 24 25  2  0
 25 26  1  0
 26 27  2  0
 27 28  1  0
 28 29  1  0
 29 30  2  0
 30 31  1  0
 31 32  2  0
 32 33  1  0
 33 34  2  0
 28 35  2  0
 22  2  1  0
 35 24  1  0
 20 10  1  0
 34 29  1  0
M  END
>  <Compound_ID>  (61) 
CHEMBL1213924

>  <Active>  (61) 
1

>  <Smiles>  (61) 
Cc1ccc(NC(=O)Nc2ccc(Cl)c(C(F)(F)F)c2)cc1Nc1nccc(-c2cccnc2)n1

>  <canonical_smi>  (61) 
Cc1ccc(NC(=O)Nc2ccc(Cl)c(C(F)(F)F)c2)cc1Nc1nccc(-c2cccnc2)n1

>  <Set>  (61) 
G2 active

>  <Set_type>  (61) 
Train

>  <MW>  (61) 
498.9

>  <HBD>  (61) 
3

>  <HBA>  (61) 
5

>  <NRB>  (61) 
5

>  <NR>  (61) 
4

>  <NAR>  (61) 
4

>  <PSA>  (61) 
91.83

>  <Standard Type>  (61) 
nan

>  <Standard Relation>  (61) 
nan

>  <Standard Units>  (61) 
nan

>  <Standard Value>  (61) 
nan

>  <Assay ChEMBL ID>  (61) 
nan

>  <Assay Description>  (61) 
nan

>  <BAO Label>  (61) 
nan

$$$$

     RDKit          2D

 37 41  0  0  0  0  0  0  0  0999 V2000
    3.0000    0.0000    0.0000 C   0  0  0  0  0  0  0  0  0  0  0  0
    1.5000    0.0000    0.0000 C   0  0  0  0  0  0  0  0  0  0  0  0
    0.7500   -1.2990    0.0000 C   0  0  0  0  0  0  0  0  0  0  0  0
   -0.7500   -1.2990    0.0000 C   0  0  0  0  0  0  0  0  0  0  0  0
   -1.5000    0.0000    0.0000 C   0  0  0  0  0  0  0  0  0  0  0  0
   -3.0000    0.0000    0.0000 N   0  0  0  0  0  0  0  0  0  0  0  0
   -3.7500    1.2990    0.0000 C   0  0  0  0  0  0  0  0  0  0  0  0
   -3.0000    2.5981    0.0000 O   0  0  0  0  0  0  0  0  0  0  0  0
   -5.2500    1.2990    0.0000 C   0  0  0  0  0  0  0  0  0  0  0  0
   -6.0000    2.5981    0.0000 C   0  0  0  0  0  0  0  0  0  0  0  0
   -7.5000    2.5981    0.0000 C   0  0  0  0  0  0  0  0  0  0  0  0
   -8.2500    1.2990    0.0000 C   0  0  0  0  0  0  0  0  0  0  0  0
   -9.7500    1.2990    0.0000 C   0  0  0  0  0  0  0  0  0  0  0  0
  -10.5000    2.5981    0.0000 N   0  0  0  0  0  0  0  0  0  0  0  0
   -9.7500    3.8971    0.0000 C   0  0  0  0  0  0  0  0  0  0  0  0
  -10.5000    5.1962    0.0000 C   0  0  0  0  0  0  0  0  0  0  0  0
  -12.0000    5.1962    0.0000 N   0  0  0  0  0  0  0  0  0  0  0  0
  -12.7500    6.4952    0.0000 C   0  0  0  0  0  0  0  0  0  0  0  0
  -12.7500    3.8971    0.0000 C   0  0  0  0  0  0  0  0  0  0  0  0
  -12.0000    2.5981    0.0000 C   0  0  0  0  0  0  0  0  0  0  0  0
   -7.5000    0.0000    0.0000 C   0  0  0  0  0  0  0  0  0  0  0  0
   -6.0000    0.0000    0.0000 C   0  0  0  0  0  0  0  0  0  0  0  0
   -0.7500    1.2990    0.0000 C   0  0  0  0  0  0  0  0  0  0  0  0
    0.7500    1.2990    0.0000 C   0  0  0  0  0  0  0  0  0  0  0  0
    1.5000    2.5981    0.0000 N   0  0  0  0  0  0  0  0  0  0  0  0
    0.7500    3.8971    0.0000 C   0  0  0  0  0  0  0  0  0  0  0  0
    1.5000    5.1962    0.0000 N   0  0  0  0  0  0  0  0  0  0  0  0
    0.7500    6.4952    0.0000 C   0  0  0  0  0  0  0  0  0  0  0  0
   -0.7500    6.4952    0.0000 C   0  0  0  0  0  0  0  0  0  0  0  0
   -1.5000    5.1962    0.0000 C   0  0  0  0  0  0  0  0  0  0  0  0
   -3.0000    5.1962    0.0000 C   0  0  0  0  0  0  0  0  0  0  0  0
   -3.7500    6.4952    0.0000 C   0  0  0  0  0  0  0  0  0  0  0  0
   -5.2500    6.4952    0.0000 C   0  0  0  0  0  0  0  0  0  0  0  0
   -6.0000    5.1962    0.0000 C   0  0  0  0  0  0  0  0  0  0  0  0
   -5.2500    3.8971    0.0000 N   0  0  0  0  0  0  0  0  0  0  0  0
   -3.7500    3.8971    0.0000 C   0  0  0  0  0  0  0  0  0  0  0  0
   -0.7500    3.8971    0.0000 N   0  0  0  0  0  0  0  0  0  0  0  0
  1  2  1  0
  2  3  2  0
  3  4  1  0
  4  5  2  0
  5  6  1  0
  6  7  1  0
  7  8  2  0
  7  9  1  0
  9 10  2  0
 10 11  1  0
 11 12  2  0
 12 13  1  0
 13 14  1  0
 14 15  1  0
 15 16  1  0
 16 17  1  0
 17 18  1  0
 17 19  1  0
 19 20  1  0
 12 21  1  0
 21 22  2  0
  5 23  1  0
 23 24  2  0
 24 25  1  0
 25 26  1  0
 26 27  2  0
 27 28  1  0
 28 29  2  0
 29 30  1  0
 30 31  1  0
 31 32  2  0
 32 33  1  0
 33 34  2  0
 34 35  1  0
 35 36  2  0
 30 37  2  0
 24  2  1  0
 37 26  1  0
 22  9  1  0
 36 31  1  0
 20 14  1  0
M  END
>  <Compound_ID>  (62) 
CHEMBL941

>  <Active>  (62) 
1

>  <Smiles>  (62) 
Cc1ccc(NC(=O)c2ccc(CN3CCN(C)CC3)cc2)cc1Nc1nccc(-c2cccnc2)n1

>  <canonical_smi>  (62) 
Cc1ccc(NC(=O)c2ccc(CN3CCN(C)CC3)cc2)cc1Nc1nccc(-c2cccnc2)n1

>  <Set>  (62) 
G2 active

>  <Set_type>  (62) 
Train

>  <MW>  (62) 
493.62

>  <HBD>  (62) 
2

>  <HBA>  (62) 
7

>  <NRB>  (62) 
7

>  <NR>  (62) 
5

>  <NAR>  (62) 
4

>  <PSA>  (62) 
86.28

>  <Standard Type>  (62) 
nan

>  <Standard Relation>  (62) 
nan

>  <Standard Units>  (62) 
nan

>  <Standard Value>  (62) 
nan

>  <Assay ChEMBL ID>  (62) 
nan

>  <Assay Description>  (62) 
nan

>  <BAO Label>  (62) 
nan

$$$$

     RDKit          2D

 34 38  0  0  0  0  0  0  0  0999 V2000
   -3.0000   -2.5981    0.0000 C   0  0  0  0  0  0  0  0  0  0  0  0
   -1.5000   -2.5981    0.0000 C   0  0  0  0  0  0  0  0  0  0  0  0
   -0.7500   -3.8971    0.0000 C   0  0  0  0  0  0  0  0  0  0  0  0
    0.7500   -3.8971    0.0000 C   0  0  0  0  0  0  0  0  0  0  0  0
    1.5000   -5.1962    0.0000 C   0  0  0  0  0  0  0  0  0  0  0  0
    0.7500   -6.4952    0.0000 C   0  0  0  0  0  0  0  0  0  0  0  0
    1.5000   -7.7942    0.0000 C   0  0  0  0  0  0  0  0  0  0  0  0
    0.7500   -9.0933    0.0000 O   0  0  0  0  0  0  0  0  0  0  0  0
    3.0000   -7.7942    0.0000 C   0  0  0  0  0  0  0  0  0  0  0  0
    3.7500   -6.4952    0.0000 C   0  0  0  0  0  0  0  0  0  0  0  0
    3.0000   -5.1962    0.0000 C   0  0  0  0  0  0  0  0  0  0  0  0
    3.7500   -3.8971    0.0000 Cl  0  0  0  0  0  0  0  0  0  0  0  0
    1.5000   -2.5981    0.0000 C   0  0  0  0  0  0  0  0  0  0  0  0
    0.7500   -1.2990    0.0000 C   0  0  0  0  0  0  0  0  0  0  0  0
    1.5000    0.0000    0.0000 N   0  0  0  0  0  0  0  0  0  0  0  0
    0.7500    1.2990    0.0000 N   0  0  0  0  0  0  0  0  0  0  0  0
   -0.7500    1.2990    0.0000 C   0  0  0  0  0  0  0  0  0  0  0  0
   -1.5000    2.5981    0.0000 N   0  0  0  0  0  0  0  0  0  0  0  0
   -0.7500    3.8971    0.0000 C   0  0  0  0  0  0  0  0  0  0  0  0
    0.7500    3.8971    0.0000 C   0  0  0  0  0  0  0  0  0  0  0  0
    1.5000    5.1962    0.0000 C   0  0  0  0  0  0  0  0  0  0  0  0
    0.7500    6.4952    0.0000 C   0  0  0  0  0  0  0  0  0  0  0  0
    1.5000    7.7942    0.0000 O   0  0  0  0  0  0  0  0  0  0  0  0
    3.0000    7.7942    0.0000 C   0  0  0  0  0  0  0  0  0  0  0  0
    3.7500    9.0933    0.0000 C   0  0  0  0  0  0  0  0  0  0  0  0
    5.2500    9.0933    0.0000 N   0  0  0  0  0  0  0  0  0  0  0  0
    6.1317   10.3068    0.0000 C   0  0  0  0  0  0  0  0  0  0  0  0
    7.5583    9.8433    0.0000 C   0  0  0  0  0  0  0  0  0  0  0  0
    7.5583    8.3433    0.0000 C   0  0  0  0  0  0  0  0  0  0  0  0
    6.1317    7.8797    0.0000 C   0  0  0  0  0  0  0  0  0  0  0  0
   -0.7500    6.4952    0.0000 C   0  0  0  0  0  0  0  0  0  0  0  0
   -1.5000    5.1962    0.0000 C   0  0  0  0  0  0  0  0  0  0  0  0
   -1.5000    0.0000    0.0000 N   0  0  0  0  0  0  0  0  0  0  0  0
   -0.7500   -1.2990    0.0000 C   0  0  0  0  0  0  0  0  0  0  0  0
  1  2  1  0
  2  3  2  0
  3  4  1  0
  4  5  1  0
  5  6  2  0
  6  7  1  0
  7  8  1  0
  7  9  2  0
  9 10  1  0
 10 11  2  0
 11 12  1  0
  4 13  2  0
 13 14  1  0
 14 15  2  0
 15 16  1  0
 16 17  2  0
 17 18  1  0
 18 19  1  0
 19 20  2  0
 20 21  1  0
 21 22  2  0
 22 23  1  0
 23 24  1  0
 24 25  1  0
 25 26  1  0
 26 27  1  0
 27 28  1  0
 28 29  1  0
 29 30  1  0
 22 31  1  0
 31 32  2  0
 17 33  1  0
 33 34  2  0
 34  2  1  0
 11  5  1  0
 34 14  1  0
 32 19  1  0
 30 26  1  0
M  END
>  <Compound_ID>  (63) 
CHEMBL400402

>  <Active>  (63) 
1

>  <Smiles>  (63) 
Cc1cc(-c2cc(O)ccc2Cl)cc2nnc(Nc3ccc(OCCN4CCCC4)cc3)nc12

>  <canonical_smi>  (63) 
Cc1cc(-c2cc(O)ccc2Cl)cc2nnc(Nc3ccc(OCCN4CCCC4)cc3)nc12

>  <Set>  (63) 
G2 active

>  <Set_type>  (63) 
Train

>  <MW>  (63) 
475.98

>  <HBD>  (63) 
2

>  <HBA>  (63) 
7

>  <NRB>  (63) 
7

>  <NR>  (63) 
5

>  <NAR>  (63) 
4

>  <PSA>  (63) 
83.4

>  <Standard Type>  (63) 
nan

>  <Standard Relation>  (63) 
nan

>  <Standard Units>  (63) 
nan

>  <Standard Value>  (63) 
nan

>  <Assay ChEMBL ID>  (63) 
nan

>  <Assay Description>  (63) 
nan

>  <BAO Label>  (63) 
nan

$$$$

     RDKit          2D

 39 43  0  0  0  0  0  0  0  0999 V2000
   -3.0000   -2.5981    0.0000 C   0  0  0  0  0  0  0  0  0  0  0  0
   -1.5000   -2.5981    0.0000 N   0  0  0  0  0  0  0  0  0  0  0  0
   -0.7500   -3.8971    0.0000 C   0  0  0  0  0  0  0  0  0  0  0  0
   -1.5000   -5.1962    0.0000 O   0  0  0  0  0  0  0  0  0  0  0  0
    0.7500   -3.8971    0.0000 C   0  0  0  0  0  0  0  0  0  0  0  0
    1.5000   -5.1962    0.0000 C   0  0  0  0  0  0  0  0  0  0  0  0
    0.7500   -6.4952    0.0000 C   0  0  0  0  0  0  0  0  0  0  0  0
   -0.7500   -6.4952    0.0000 Cl  0  0  0  0  0  0  0  0  0  0  0  0
    1.5000   -7.7942    0.0000 C   0  0  0  0  0  0  0  0  0  0  0  0
    3.0000   -7.7942    0.0000 C   0  0  0  0  0  0  0  0  0  0  0  0
    3.7500   -6.4952    0.0000 C   0  0  0  0  0  0  0  0  0  0  0  0
    3.0000   -5.1962    0.0000 C   0  0  0  0  0  0  0  0  0  0  0  0
    3.7500   -3.8971    0.0000 Cl  0  0  0  0  0  0  0  0  0  0  0  0
    1.5000   -2.5981    0.0000 C   0  0  0  0  0  0  0  0  0  0  0  0
    0.7500   -1.2990    0.0000 C   0  0  0  0  0  0  0  0  0  0  0  0
    1.5000    0.0000    0.0000 C   0  0  0  0  0  0  0  0  0  0  0  0
    0.7500    1.2990    0.0000 N   0  0  0  0  0  0  0  0  0  0  0  0
   -0.7500    1.2990    0.0000 C   0  0  0  0  0  0  0  0  0  0  0  0
   -1.5000    2.5981    0.0000 N   0  0  0  0  0  0  0  0  0  0  0  0
   -0.7500    3.8971    0.0000 C   0  0  0  0  0  0  0  0  0  0  0  0
    0.7500    3.8971    0.0000 C   0  0  0  0  0  0  0  0  0  0  0  0
    1.5000    5.1962    0.0000 C   0  0  0  0  0  0  0  0  0  0  0  0
    0.7500    6.4952    0.0000 C   0  0  0  0  0  0  0  0  0  0  0  0
    1.5000    7.7942    0.0000 O   0  0  0  0  0  0  0  0  0  0  0  0
    3.0000    7.7942    0.0000 C   0  0  0  0  0  0  0  0  0  0  0  0
    3.7500    6.4952    0.0000 O   0  0  0  0  0  0  0  0  0  0  0  0
    5.2500    6.4952    0.0000 C   0  0  0  0  0  0  0  0  0  0  0  0
    6.0000    5.1962    0.0000 C   0  0  0  0  0  0  0  0  0  0  0  0
    5.2500    3.8971    0.0000 O   0  0  0  0  0  0  0  0  0  0  0  0
    6.0000    7.7942    0.0000 C   0  0  0  0  0  0  0  0  0  0  0  0
    7.5000    7.7942    0.0000 O   0  0  0  0  0  0  0  0  0  0  0  0
    5.2500    9.0933    0.0000 C   0  0  0  0  0  0  0  0  0  0  0  0
    6.0000   10.3923    0.0000 O   0  0  0  0  0  0  0  0  0  0  0  0
    3.7500    9.0933    0.0000 C   0  0  0  0  0  0  0  0  0  0  0  0
    3.0000   10.3923    0.0000 O   0  0  0  0  0  0  0  0  0  0  0  0
   -0.7500    6.4952    0.0000 C   0  0  0  0  0  0  0  0  0  0  0  0
   -1.5000    5.1962    0.0000 C   0  0  0  0  0  0  0  0  0  0  0  0
   -1.5000    0.0000    0.0000 N   0  0  0  0  0  0  0  0  0  0  0  0
   -0.7500   -1.2990    0.0000 C   0  0  0  0  0  0  0  0  0  0  0  0
  1  2  1  0
  2  3  1  0
  3  4  2  0
  3  5  1  0
  5  6  1  0
  6  7  2  0
  7  8  1  0
  7  9  1  0
  9 10  2  0
 10 11  1  0
 11 12  2  0
 12 13  1  0
  5 14  2  0
 14 15  1  0
 15 16  2  0
 16 17  1  0
 17 18  2  0
 18 19  1  0
 19 20  1  0
 20 21  2  0
 21 22  1  0
 22 23  2  0
 23 24  1  0
 24 25  1  0
 25 26  1  0
 26 27  1  0
 27 28  1  0
 28 29  1  0
 27 30  1  0
 30 31  1  0
 30 32  1  0
 32 33  1  0
 32 34  1  0
 34 35  1  0
 23 36  1  0
 36 37  2  0
 18 38  1  0
 38 39  2  0
 39  2  1  0
 12  6  1  0
 39 15  1  0
 37 20  1  0
 34 25  1  0
M  END
>  <Compound_ID>  (64) 
CHEMBL585666

>  <Active>  (64) 
1

>  <Smiles>  (64) 
Cn1c(=O)c(-c2c(Cl)cccc2Cl)cc2cnc(Nc3ccc(OC4OC(CO)C(O)C(O)C4O)cc3)nc21

>  <canonical_smi>  (64) 
Cn1c(=O)c(-c2c(Cl)cccc2Cl)cc2cnc(Nc3ccc(OC4OC(CO)C(O)C(O)C4O)cc3)nc21

>  <Set>  (64) 
G2 active

>  <Set_type>  (64) 
Train

>  <MW>  (64) 
575.41

>  <HBD>  (64) 
5

>  <HBA>  (64) 
10

>  <NRB>  (64) 
6

>  <NR>  (64) 
5

>  <NAR>  (64) 
4

>  <PSA>  (64) 
159.19

>  <Standard Type>  (64) 
nan

>  <Standard Relation>  (64) 
nan

>  <Standard Units>  (64) 
nan

>  <Standard Value>  (64) 
nan

>  <Assay ChEMBL ID>  (64) 
nan

>  <Assay Description>  (64) 
nan

>  <BAO Label>  (64) 
nan

$$$$

     RDKit          2D

 38 42  0  0  0  0  0  0  0  0999 V2000
  -15.6505   -3.6686    0.0000 C   0  0  0  0  0  0  0  0  0  0  0  0
  -14.7688   -2.4551    0.0000 C   0  0  0  0  0  0  0  0  0  0  0  0
  -13.2688   -2.4551    0.0000 C   0  0  0  0  0  0  0  0  0  0  0  0
  -12.8053   -1.0285    0.0000 N   0  0  0  0  0  0  0  0  0  0  0  0
  -11.3787   -0.5649    0.0000 C   0  0  0  0  0  0  0  0  0  0  0  0
  -10.2640   -1.5686    0.0000 C   0  0  0  0  0  0  0  0  0  0  0  0
   -8.8374   -1.1051    0.0000 C   0  0  0  0  0  0  0  0  0  0  0  0
   -7.7227   -2.1088    0.0000 N   0  0  0  0  0  0  0  0  0  0  0  0
   -8.0346   -3.5760    0.0000 C   0  0  0  0  0  0  0  0  0  0  0  0
   -9.4612   -4.0396    0.0000 O   0  0  0  0  0  0  0  0  0  0  0  0
   -6.9199   -4.5797    0.0000 C   0  0  0  0  0  0  0  0  0  0  0  0
   -7.2317   -6.0469    0.0000 C   0  0  0  0  0  0  0  0  0  0  0  0
   -6.1170   -7.0506    0.0000 C   0  0  0  0  0  0  0  0  0  0  0  0
   -4.6904   -6.5871    0.0000 C   0  0  0  0  0  0  0  0  0  0  0  0
   -3.5757   -7.5908    0.0000 C   0  0  0  0  0  0  0  0  0  0  0  0
   -4.3786   -5.1199    0.0000 C   0  0  0  0  0  0  0  0  0  0  0  0
   -2.9520   -4.6564    0.0000 C   0  0  0  0  0  0  0  0  0  0  0  0
   -2.6401   -3.1891    0.0000 C   0  0  0  0  0  0  0  0  0  0  0  0
   -1.2135   -2.7256    0.0000 N   0  0  0  0  0  0  0  0  0  0  0  0
   -0.0000   -3.6073    0.0000 C   0  0  0  0  0  0  0  0  0  0  0  0
    1.2135   -2.7256    0.0000 N   0  0  0  0  0  0  0  0  0  0  0  0
    0.7500   -1.2990    0.0000 C   0  0  0  0  0  0  0  0  0  0  0  0
    1.5000    0.0000    0.0000 C   0  0  0  0  0  0  0  0  0  0  0  0
    3.0000    0.0000    0.0000 N   0  0  0  0  0  0  0  0  0  0  0  0
    0.7500    1.2990    0.0000 N   0  0  0  0  0  0  0  0  0  0  0  0
   -0.7500    1.2990    0.0000 C   0  0  0  0  0  0  0  0  0  0  0  0
   -1.5000    0.0000    0.0000 N   0  0  0  0  0  0  0  0  0  0  0  0
   -0.7500   -1.2990    0.0000 C   0  0  0  0  0  0  0  0  0  0  0  0
   -5.4933   -4.1162    0.0000 C   0  0  0  0  0  0  0  0  0  0  0  0
   -8.5256    0.3621    0.0000 C   0  0  0  0  0  0  0  0  0  0  0  0
   -9.6403    1.3658    0.0000 C   0  0  0  0  0  0  0  0  0  0  0  0
   -9.3284    2.8330    0.0000 C   0  0  0  0  0  0  0  0  0  0  0  0
   -9.0165    4.3002    0.0000 F   0  0  0  0  0  0  0  0  0  0  0  0
   -7.8612    2.5212    0.0000 F   0  0  0  0  0  0  0  0  0  0  0  0
  -10.7956    3.1449    0.0000 F   0  0  0  0  0  0  0  0  0  0  0  0
  -11.0669    0.9023    0.0000 C   0  0  0  0  0  0  0  0  0  0  0  0
  -14.0188   -0.1468    0.0000 C   0  0  0  0  0  0  0  0  0  0  0  0
  -15.2324   -1.0285    0.0000 N   0  0  0  0  0  0  0  0  0  0  0  0
  1  2  1  0
  2  3  2  0
  3  4  1  0
  4  5  1  0
  5  6  2  0
  6  7  1  0
  7  8  1  0
  8  9  1  0
  9 10  2  0
  9 11  1  0
 11 12  2  0
 12 13  1  0
 13 14  2  0
 14 15  1  0
 14 16  1  0
 16 17  1  0
 17 18  2  0
 18 19  1  0
 19 20  1  0
 20 21  2  0
 21 22  1  0
 22 23  2  0
 23 24  1  0
 23 25  1  0
 25 26  2  0
 26 27  1  0
 27 28  2  0
 16 29  2  0
  7 30  2  0
 30 31  1  0
 31 32  1  0
 32 33  1  0
 32 34  1  0
 32 35  1  0
 31 36  2  0
  4 37  1  0
 37 38  2  0
 38  2  1  0
 36  5  1  0
 29 11  1  0
 28 19  1  0
 28 22  1  0
M  END
>  <Compound_ID>  (65) 
CHEMBL1171679

>  <Active>  (65) 
1

>  <Smiles>  (65) 
Cc1cn(-c2cc(NC(=O)c3ccc(C)c(/C=C/n4cnc5c(N)ncnc54)c3)cc(C(F)(F)F)c2)cn1

>  <canonical_smi>  (65) 
Cc1cn(-c2cc(NC(=O)c3ccc(C)c(/C=C/n4cnc5c(N)ncnc54)c3)cc(C(F)(F)F)c2)cn1

>  <Set>  (65) 
G2 active

>  <Set_type>  (65) 
Train

>  <MW>  (65) 
518.5

>  <HBD>  (65) 
2

>  <HBA>  (65) 
6

>  <NRB>  (65) 
5

>  <NR>  (65) 
5

>  <NAR>  (65) 
5

>  <PSA>  (65) 
116.54

>  <Standard Type>  (65) 
nan

>  <Standard Relation>  (65) 
nan

>  <Standard Units>  (65) 
nan

>  <Standard Value>  (65) 
nan

>  <Assay ChEMBL ID>  (65) 
nan

>  <Assay Description>  (65) 
nan

>  <BAO Label>  (65) 
nan

$$$$

     RDKit          2D

 35 39  0  0  0  0  0  0  0  0999 V2000
    0.3177    5.1814    0.0000 C   0  0  0  0  0  0  0  0  0  0  0  0
    1.7849    5.4933    0.0000 C   0  0  0  0  0  0  0  0  0  0  0  0
    2.2484    6.9199    0.0000 C   0  0  0  0  0  0  0  0  0  0  0  0
    3.7156    7.2317    0.0000 C   0  0  0  0  0  0  0  0  0  0  0  0
    4.7193    6.1170    0.0000 C   0  0  0  0  0  0  0  0  0  0  0  0
    4.2558    4.6904    0.0000 C   0  0  0  0  0  0  0  0  0  0  0  0
    5.2595    3.5757    0.0000 C   0  0  0  0  0  0  0  0  0  0  0  0
    2.7886    4.3786    0.0000 C   0  0  0  0  0  0  0  0  0  0  0  0
    2.3250    2.9520    0.0000 C   0  0  0  0  0  0  0  0  0  0  0  0
    0.8578    2.6401    0.0000 C   0  0  0  0  0  0  0  0  0  0  0  0
    0.3943    1.2135    0.0000 N   0  0  0  0  0  0  0  0  0  0  0  0
    1.2760    0.0000    0.0000 C   0  0  0  0  0  0  0  0  0  0  0  0
    0.3943   -1.2135    0.0000 N   0  0  0  0  0  0  0  0  0  0  0  0
   -1.0323   -0.7500    0.0000 C   0  0  0  0  0  0  0  0  0  0  0  0
   -2.3313   -1.5000    0.0000 C   0  0  0  0  0  0  0  0  0  0  0  0
   -2.3313   -3.0000    0.0000 N   0  0  0  0  0  0  0  0  0  0  0  0
   -3.6304   -3.7500    0.0000 C   0  0  0  0  0  0  0  0  0  0  0  0
   -4.9294   -3.0000    0.0000 C   0  0  0  0  0  0  0  0  0  0  0  0
   -6.2284   -3.7500    0.0000 C   0  0  0  0  0  0  0  0  0  0  0  0
   -6.2284   -5.2500    0.0000 C   0  0  0  0  0  0  0  0  0  0  0  0
   -7.5275   -6.0000    0.0000 P   0  0  0  0  0  0  0  0  0  0  0  0
   -6.7775   -7.2990    0.0000 C   0  0  0  0  0  0  0  0  0  0  0  0
   -8.2775   -4.7010    0.0000 C   0  0  0  0  0  0  0  0  0  0  0  0
   -8.8265   -6.7500    0.0000 O   0  0  0  0  0  0  0  0  0  0  0  0
   -4.9294   -6.0000    0.0000 C   0  0  0  0  0  0  0  0  0  0  0  0
   -3.6304   -5.2500    0.0000 C   0  0  0  0  0  0  0  0  0  0  0  0
   -3.6304   -0.7500    0.0000 N   0  0  0  0  0  0  0  0  0  0  0  0
   -3.6304    0.7500    0.0000 C   0  0  0  0  0  0  0  0  0  0  0  0
   -4.9294    1.5000    0.0000 N   0  0  0  0  0  0  0  0  0  0  0  0
   -6.2997    0.8899    0.0000 C   0  0  0  0  0  0  0  0  0  0  0  0
   -7.3034    2.0046    0.0000 C   0  0  0  0  0  0  0  0  0  0  0  0
   -6.5534    3.3037    0.0000 N   0  0  0  0  0  0  0  0  0  0  0  0
   -5.0862    2.9918    0.0000 C   0  0  0  0  0  0  0  0  0  0  0  0
   -2.3313    1.5000    0.0000 N   0  0  0  0  0  0  0  0  0  0  0  0
   -1.0323    0.7500    0.0000 C   0  0  0  0  0  0  0  0  0  0  0  0
  1  2  1  0
  2  3  2  0
  3  4  1  0
  4  5  2  0
  5  6  1  0
  6  7  1  0
  6  8  2  0
  8  9  1  0
  9 10  2  0
 10 11  1  0
 11 12  1  0
 12 13  2  0
 13 14  1  0
 14 15  2  0
 15 16  1  0
 16 17  1  0
 17 18  2  0
 18 19  1  0
 19 20  2  0
 20 21  1  0
 21 22  1  0
 21 23  1  0
 21 24  2  0
 20 25  1  0
 25 26  2  0
 15 27  1  0
 27 28  2  0
 28 29  1  0
 29 30  1  0
 30 31  2  0
 31 32  1  0
 32 33  2  0
 28 34  1  0
 34 35  2  0
  8  2  1  0
 35 11  1  0
 35 14  1  0
 26 17  1  0
 33 29  1  0
M  END
>  <Compound_ID>  (66) 
CHEMBL455384

>  <Active>  (66) 
1

>  <Smiles>  (66) 
Cc1cccc(C)c1/C=C/n1cnc2c(Nc3ccc(P(C)(C)=O)cc3)nc(-n3ccnc3)nc21

>  <canonical_smi>  (66) 
Cc1cccc(C)c1/C=C/n1cnc2c(Nc3ccc(P(C)(C)=O)cc3)nc(-n3ccnc3)nc21

>  <Set>  (66) 
G2 active

>  <Set_type>  (66) 
Train

>  <MW>  (66) 
483.52

>  <HBD>  (66) 
1

>  <HBA>  (66) 
6

>  <NRB>  (66) 
6

>  <NR>  (66) 
5

>  <NAR>  (66) 
5

>  <PSA>  (66) 
90.52

>  <Standard Type>  (66) 
nan

>  <Standard Relation>  (66) 
nan

>  <Standard Units>  (66) 
nan

>  <Standard Value>  (66) 
nan

>  <Assay ChEMBL ID>  (66) 
nan

>  <Assay Description>  (66) 
nan

>  <BAO Label>  (66) 
nan

$$$$

     RDKit          2D

 37 41  0  0  0  0  0  0  0  0999 V2000
   -3.0000   -2.5981    0.0000 C   0  0  0  0  0  0  0  0  0  0  0  0
   -1.5000   -2.5981    0.0000 C   0  0  0  0  0  0  0  0  0  0  0  0
   -0.7500   -3.8971    0.0000 C   0  0  0  0  0  0  0  0  0  0  0  0
    0.7500   -3.8971    0.0000 C   0  0  0  0  0  0  0  0  0  0  0  0
    1.5000   -5.1962    0.0000 C   0  0  0  0  0  0  0  0  0  0  0  0
    0.7500   -6.4952    0.0000 C   0  0  0  0  0  0  0  0  0  0  0  0
    1.5000   -7.7942    0.0000 C   0  0  0  0  0  0  0  0  0  0  0  0
    0.7500   -9.0933    0.0000 O   0  0  0  0  0  0  0  0  0  0  0  0
    3.0000   -7.7942    0.0000 C   0  0  0  0  0  0  0  0  0  0  0  0
    3.7500   -6.4952    0.0000 C   0  0  0  0  0  0  0  0  0  0  0  0
    3.0000   -5.1962    0.0000 C   0  0  0  0  0  0  0  0  0  0  0  0
    3.7500   -3.8971    0.0000 Cl  0  0  0  0  0  0  0  0  0  0  0  0
    1.5000   -2.5981    0.0000 C   0  0  0  0  0  0  0  0  0  0  0  0
    0.7500   -1.2990    0.0000 C   0  0  0  0  0  0  0  0  0  0  0  0
    1.5000    0.0000    0.0000 N   0  0  0  0  0  0  0  0  0  0  0  0
    0.7500    1.2990    0.0000 N   0  0  0  0  0  0  0  0  0  0  0  0
   -0.7500    1.2990    0.0000 C   0  0  0  0  0  0  0  0  0  0  0  0
   -1.5000    2.5981    0.0000 N   0  0  0  0  0  0  0  0  0  0  0  0
   -0.7500    3.8971    0.0000 C   0  0  0  0  0  0  0  0  0  0  0  0
    0.7500    3.8971    0.0000 C   0  0  0  0  0  0  0  0  0  0  0  0
    1.5000    5.1962    0.0000 C   0  0  0  0  0  0  0  0  0  0  0  0
    0.7500    6.4952    0.0000 C   0  0  0  0  0  0  0  0  0  0  0  0
    1.5000    7.7942    0.0000 S   0  0  0  0  0  0  0  0  0  0  0  0
    0.2010    8.5442    0.0000 O   0  0  0  0  0  0  0  0  0  0  0  0
    2.7990    7.0442    0.0000 O   0  0  0  0  0  0  0  0  0  0  0  0
    2.2500    9.0933    0.0000 C   0  0  0  0  0  0  0  0  0  0  0  0
    1.5000   10.3923    0.0000 C   0  0  0  0  0  0  0  0  0  0  0  0
    2.2500   11.6913    0.0000 C   0  0  0  0  0  0  0  0  0  0  0  0
    1.5000   12.9904    0.0000 N   0  0  0  0  0  0  0  0  0  0  0  0
    0.0082   13.1472    0.0000 C   0  0  0  0  0  0  0  0  0  0  0  0
   -0.3037   14.6144    0.0000 C   0  0  0  0  0  0  0  0  0  0  0  0
    0.9954   15.3644    0.0000 C   0  0  0  0  0  0  0  0  0  0  0  0
    2.1101   14.3607    0.0000 C   0  0  0  0  0  0  0  0  0  0  0  0
   -0.7500    6.4952    0.0000 C   0  0  0  0  0  0  0  0  0  0  0  0
   -1.5000    5.1962    0.0000 C   0  0  0  0  0  0  0  0  0  0  0  0
   -1.5000    0.0000    0.0000 N   0  0  0  0  0  0  0  0  0  0  0  0
   -0.7500   -1.2990    0.0000 C   0  0  0  0  0  0  0  0  0  0  0  0
  1  2  1  0
  2  3  2  0
  3  4  1  0
  4  5  1  0
  5  6  2  0
  6  7  1  0
  7  8  1  0
  7  9  2  0
  9 10  1  0
 10 11  2  0
 11 12  1  0
  4 13  2  0
 13 14  1  0
 14 15  2  0
 15 16  1  0
 16 17  2  0
 17 18  1  0
 18 19  1  0
 19 20  2  0
 20 21  1  0
 21 22  2  0
 22 23  1  0
 23 24  2  0
 23 25  2  0
 23 26  1  0
 26 27  1  0
 27 28  1  0
 28 29  1  0
 29 30  1  0
 30 31  1  0
 31 32  1  0
 32 33  1  0
 22 34  1  0
 34 35  2  0
 17 36  1  0
 36 37  2  0
 37  2  1  0
 11  5  1  0
 37 14  1  0
 35 19  1  0
 33 29  1  0
M  END
>  <Compound_ID>  (67) 
CHEMBL399268

>  <Active>  (67) 
1

>  <Smiles>  (67) 
Cc1cc(-c2cc(O)ccc2Cl)cc2nnc(Nc3ccc(S(=O)(=O)CCCN4CCCC4)cc3)nc12

>  <canonical_smi>  (67) 
Cc1cc(-c2cc(O)ccc2Cl)cc2nnc(Nc3ccc(S(=O)(=O)CCCN4CCCC4)cc3)nc12

>  <Set>  (67) 
G2 active

>  <Set_type>  (67) 
Train

>  <MW>  (67) 
538.07

>  <HBD>  (67) 
2

>  <HBA>  (67) 
8

>  <NRB>  (67) 
8

>  <NR>  (67) 
5

>  <NAR>  (67) 
4

>  <PSA>  (67) 
108.31

>  <Standard Type>  (67) 
nan

>  <Standard Relation>  (67) 
nan

>  <Standard Units>  (67) 
nan

>  <Standard Value>  (67) 
nan

>  <Assay ChEMBL ID>  (67) 
nan

>  <Assay Description>  (67) 
nan

>  <BAO Label>  (67) 
nan

$$$$

     RDKit          2D

 43 47  0  0  0  0  0  0  0  0999 V2000
    3.0000    0.0000    0.0000 C   0  0  0  0  0  0  0  0  0  0  0  0
    1.5000    0.0000    0.0000 C   0  0  0  0  0  0  0  0  0  0  0  0
    0.7500   -1.2990    0.0000 C   0  0  0  0  0  0  0  0  0  0  0  0
   -0.7500   -1.2990    0.0000 C   0  0  0  0  0  0  0  0  0  0  0  0
   -1.5000    0.0000    0.0000 C   0  0  0  0  0  0  0  0  0  0  0  0
   -3.0000    0.0000    0.0000 N   0  0  0  0  0  0  0  0  0  0  0  0
   -3.7500    1.2990    0.0000 C   0  0  0  0  0  0  0  0  0  0  0  0
   -3.0000    2.5981    0.0000 O   0  0  0  0  0  0  0  0  0  0  0  0
   -5.2500    1.2990    0.0000 C   0  0  0  0  0  0  0  0  0  0  0  0
   -6.0000    2.5981    0.0000 C   0  0  0  0  0  0  0  0  0  0  0  0
   -7.5000    2.5981    0.0000 C   0  0  0  0  0  0  0  0  0  0  0  0
   -8.2500    1.2990    0.0000 C   0  0  0  0  0  0  0  0  0  0  0  0
   -7.5000    0.0000    0.0000 C   0  0  0  0  0  0  0  0  0  0  0  0
   -8.2500   -1.2990    0.0000 C   0  0  0  0  0  0  0  0  0  0  0  0
   -9.0000   -2.5981    0.0000 F   0  0  0  0  0  0  0  0  0  0  0  0
   -9.5490   -0.5490    0.0000 F   0  0  0  0  0  0  0  0  0  0  0  0
   -6.9510   -2.0490    0.0000 F   0  0  0  0  0  0  0  0  0  0  0  0
   -6.0000    0.0000    0.0000 C   0  0  0  0  0  0  0  0  0  0  0  0
   -0.7500    1.2990    0.0000 C   0  0  0  0  0  0  0  0  0  0  0  0
    0.7500    1.2990    0.0000 C   0  0  0  0  0  0  0  0  0  0  0  0
    1.5000    2.5981    0.0000 C   0  0  0  0  0  0  0  0  0  0  0  0
    3.0000    2.5981    0.0000 O   0  0  0  0  0  0  0  0  0  0  0  0
    0.7500    3.8971    0.0000 N   0  0  0  0  0  0  0  0  0  0  0  0
    1.5000    5.1962    0.0000 C   0  0  0  0  0  0  0  0  0  0  0  0
    3.0000    5.1962    0.0000 C   0  0  0  0  0  0  0  0  0  0  0  0
    3.7500    6.4952    0.0000 N   0  0  0  0  0  0  0  0  0  0  0  0
    3.0000    7.7942    0.0000 C   0  0  0  0  0  0  0  0  0  0  0  0
    3.7500    9.0933    0.0000 N   0  0  0  0  0  0  0  0  0  0  0  0
    5.2500    9.0933    0.0000 C   0  0  0  0  0  0  0  0  0  0  0  0
    6.0000    7.7942    0.0000 C   0  0  0  0  0  0  0  0  0  0  0  0
    7.5000    7.7942    0.0000 C   0  0  0  0  0  0  0  0  0  0  0  0
    8.2500    9.0933    0.0000 C   0  0  0  0  0  0  0  0  0  0  0  0
    9.7500    9.0933    0.0000 N   0  0  0  0  0  0  0  0  0  0  0  0
   10.5000    7.7942    0.0000 C   0  0  0  0  0  0  0  0  0  0  0  0
   12.0000    7.7942    0.0000 C   0  0  0  0  0  0  0  0  0  0  0  0
   12.7500    9.0933    0.0000 N   0  0  0  0  0  0  0  0  0  0  0  0
   14.2500    9.0933    0.0000 C   0  0  0  0  0  0  0  0  0  0  0  0
   12.0000   10.3923    0.0000 C   0  0  0  0  0  0  0  0  0  0  0  0
   10.5000   10.3923    0.0000 C   0  0  0  0  0  0  0  0  0  0  0  0
    7.5000   10.3923    0.0000 C   0  0  0  0  0  0  0  0  0  0  0  0
    6.0000   10.3923    0.0000 C   0  0  0  0  0  0  0  0  0  0  0  0
    1.5000    7.7942    0.0000 N   0  0  0  0  0  0  0  0  0  0  0  0
    0.7500    6.4952    0.0000 C   0  0  0  0  0  0  0  0  0  0  0  0
  1  2  1  0
  2  3  2  0
  3  4  1  0
  4  5  2  0
  5  6  1  0
  6  7  1  0
  7  8  2  0
  7  9  1  0
  9 10  2  0
 10 11  1  0
 11 12  2  0
 12 13  1  0
 13 14  1  0
 14 15  1  0
 14 16  1  0
 14 17  1  0
 13 18  2  0
  5 19  1  0
 19 20  2  0
 20 21  1  0
 21 22  2  0
 21 23  1  0
 23 24  1  0
 24 25  2  0
 25 26  1  0
 26 27  2  0
 27 28  1  0
 28 29  1  0
 29 30  2  0
 30 31  1  0
 31 32  2  0
 32 33  1  0
 33 34  1  0
 34 35  1  0
 35 36  1  0
 36 37  1  0
 36 38  1  0
 38 39  1  0
 32 40  1  0
 40 41  2  0
 27 42  1  0
 42 43  2  0
 20  2  1  0
 43 24  1  0
 18  9  1  0
 41 29  1  0
 39 33  1  0
M  END
>  <Compound_ID>  (68) 
CHEMBL272888

>  <Active>  (68) 
1

>  <Smiles>  (68) 
Cc1ccc(NC(=O)c2cccc(C(F)(F)F)c2)cc1C(=O)Nc1cnc(Nc2ccc(N3CCN(C)CC3)cc2)nc1

>  <canonical_smi>  (68) 
Cc1ccc(NC(=O)c2cccc(C(F)(F)F)c2)cc1C(=O)Nc1cnc(Nc2ccc(N3CCN(C)CC3)cc2)nc1

>  <Set>  (68) 
G2 active

>  <Set_type>  (68) 
Train

>  <MW>  (68) 
589.62

>  <HBD>  (68) 
3

>  <HBA>  (68) 
7

>  <NRB>  (68) 
7

>  <NR>  (68) 
5

>  <NAR>  (68) 
4

>  <PSA>  (68) 
102.49

>  <Standard Type>  (68) 
nan

>  <Standard Relation>  (68) 
nan

>  <Standard Units>  (68) 
nan

>  <Standard Value>  (68) 
nan

>  <Assay ChEMBL ID>  (68) 
nan

>  <Assay Description>  (68) 
nan

>  <BAO Label>  (68) 
nan

$$$$

     RDKit          2D

 35 39  0  0  0  0  0  0  0  0999 V2000
   -3.0000   -2.5981    0.0000 C   0  0  0  0  0  0  0  0  0  0  0  0
   -1.5000   -2.5981    0.0000 C   0  0  0  0  0  0  0  0  0  0  0  0
   -0.7500   -3.8971    0.0000 C   0  0  0  0  0  0  0  0  0  0  0  0
    0.7500   -3.8971    0.0000 C   0  0  0  0  0  0  0  0  0  0  0  0
    1.5000   -5.1962    0.0000 C   0  0  0  0  0  0  0  0  0  0  0  0
    0.7500   -6.4952    0.0000 C   0  0  0  0  0  0  0  0  0  0  0  0
   -0.7500   -6.4952    0.0000 Cl  0  0  0  0  0  0  0  0  0  0  0  0
    1.5000   -7.7942    0.0000 C   0  0  0  0  0  0  0  0  0  0  0  0
    3.0000   -7.7942    0.0000 C   0  0  0  0  0  0  0  0  0  0  0  0
    3.7500   -6.4952    0.0000 C   0  0  0  0  0  0  0  0  0  0  0  0
    3.0000   -5.1962    0.0000 C   0  0  0  0  0  0  0  0  0  0  0  0
    3.7500   -3.8971    0.0000 Cl  0  0  0  0  0  0  0  0  0  0  0  0
    1.5000   -2.5981    0.0000 C   0  0  0  0  0  0  0  0  0  0  0  0
    0.7500   -1.2990    0.0000 C   0  0  0  0  0  0  0  0  0  0  0  0
    1.5000    0.0000    0.0000 N   0  0  0  0  0  0  0  0  0  0  0  0
    0.7500    1.2990    0.0000 N   0  0  0  0  0  0  0  0  0  0  0  0
   -0.7500    1.2990    0.0000 C   0  0  0  0  0  0  0  0  0  0  0  0
   -1.5000    2.5981    0.0000 N   0  0  0  0  0  0  0  0  0  0  0  0
   -0.7500    3.8971    0.0000 C   0  0  0  0  0  0  0  0  0  0  0  0
    0.7500    3.8971    0.0000 C   0  0  0  0  0  0  0  0  0  0  0  0
    1.5000    5.1962    0.0000 C   0  0  0  0  0  0  0  0  0  0  0  0
    0.7500    6.4952    0.0000 C   0  0  0  0  0  0  0  0  0  0  0  0
    1.5000    7.7942    0.0000 O   0  0  0  0  0  0  0  0  0  0  0  0
    3.0000    7.7942    0.0000 C   0  0  0  0  0  0  0  0  0  0  0  0
    3.7500    9.0933    0.0000 C   0  0  0  0  0  0  0  0  0  0  0  0
    5.2500    9.0933    0.0000 N   0  0  0  0  0  4  0  0  0  0  0  0
    5.0932    7.6015    0.0000 O   0  0  0  0  0  1  0  0  0  0  0  0
    6.7172    8.7814    0.0000 C   0  0  0  0  0  0  0  0  0  0  0  0
    7.4672   10.0804    0.0000 C   0  0  0  0  0  0  0  0  0  0  0  0
    6.4635   11.1952    0.0000 C   0  0  0  0  0  0  0  0  0  0  0  0
    5.0932   10.5850    0.0000 C   0  0  0  0  0  0  0  0  0  0  0  0
   -0.7500    6.4952    0.0000 C   0  0  0  0  0  0  0  0  0  0  0  0
   -1.5000    5.1962    0.0000 C   0  0  0  0  0  0  0  0  0  0  0  0
   -1.5000    0.0000    0.0000 N   0  0  0  0  0  0  0  0  0  0  0  0
   -0.7500   -1.2990    0.0000 C   0  0  0  0  0  0  0  0  0  0  0  0
  1  2  1  0
  2  3  2  0
  3  4  1  0
  4  5  1  0
  5  6  2  0
  6  7  1  0
  6  8  1  0
  8  9  2  0
  9 10  1  0
 10 11  2  0
 11 12  1  0
  4 13  2  0
 13 14  1  0
 14 15  2  0
 15 16  1  0
 16 17  2  0
 17 18  1  0
 18 19  1  0
 19 20  2  0
 20 21  1  0
 21 22  2  0
 22 23  1  0
 23 24  1  0
 24 25  1  0
 25 26  1  0
 26 27  1  0
 26 28  1  0
 28 29  1  0
 29 30  1  0
 30 31  1  0
 22 32  1  0
 32 33  2  0
 17 34  1  0
 34 35  2  0
 35  2  1  0
 11  5  1  0
 35 14  1  0
 33 19  1  0
 31 26  1  0
M  CHG  2  26   1  27  -1
M  END
>  <Compound_ID>  (69) 
CHEMBL256101

>  <Active>  (69) 
1

>  <Smiles>  (69) 
Cc1cc(-c2c(Cl)cccc2Cl)cc2nnc(Nc3ccc(OCC[N+]4([O-])CCCC4)cc3)nc12

>  <canonical_smi>  (69) 
Cc1cc(-c2c(Cl)cccc2Cl)cc2nnc(Nc3ccc(OCC[N+]4([O-])CCCC4)cc3)nc12

>  <Set>  (69) 
G2 active

>  <Set_type>  (69) 
Train

>  <MW>  (69) 
510.43

>  <HBD>  (69) 
1

>  <HBA>  (69) 
6

>  <NRB>  (69) 
7

>  <NR>  (69) 
5

>  <NAR>  (69) 
4

>  <PSA>  (69) 
82.99

>  <Standard Type>  (69) 
nan

>  <Standard Relation>  (69) 
nan

>  <Standard Units>  (69) 
nan

>  <Standard Value>  (69) 
nan

>  <Assay ChEMBL ID>  (69) 
nan

>  <Assay Description>  (69) 
nan

>  <BAO Label>  (69) 
nan

$$$$

     RDKit          2D

 36 40  0  0  0  0  0  0  0  0999 V2000
   -6.2940    7.2357    0.0000 C   0  0  0  0  0  0  0  0  0  0  0  0
   -5.1793    6.2320    0.0000 O   0  0  0  0  0  0  0  0  0  0  0  0
   -5.4912    4.7648    0.0000 C   0  0  0  0  0  0  0  0  0  0  0  0
   -4.3764    3.7611    0.0000 C   0  0  0  0  0  0  0  0  0  0  0  0
   -4.6883    2.2939    0.0000 C   0  0  0  0  0  0  0  0  0  0  0  0
   -3.5736    1.2902    0.0000 N   0  0  0  0  0  0  0  0  0  0  0  0
   -2.1470    1.7537    0.0000 C   0  0  0  0  0  0  0  0  0  0  0  0
   -1.8351    3.2209    0.0000 C   0  0  0  0  0  0  0  0  0  0  0  0
   -2.9499    4.2246    0.0000 C   0  0  0  0  0  0  0  0  0  0  0  0
   -4.0646    5.2283    0.0000 N   0  0  0  0  0  0  0  0  0  0  0  0
   -0.4086    3.6844    0.0000 C   0  0  0  0  0  0  0  0  0  0  0  0
    0.7062    2.6807    0.0000 N   0  0  0  0  0  0  0  0  0  0  0  0
    0.3943    1.2135    0.0000 C   0  0  0  0  0  0  0  0  0  0  0  0
    1.2760    0.0000    0.0000 C   0  0  0  0  0  0  0  0  0  0  0  0
    0.3943   -1.2135    0.0000 C   0  0  0  0  0  0  0  0  0  0  0  0
    0.8578   -2.6401    0.0000 C   0  0  0  0  0  0  0  0  0  0  0  0
   -0.1459   -3.7548    0.0000 C   0  0  0  0  0  0  0  0  0  0  0  0
    0.3177   -5.1814    0.0000 C   0  0  0  0  0  0  0  0  0  0  0  0
    1.7849   -5.4933    0.0000 C   0  0  0  0  0  0  0  0  0  0  0  0
    2.2484   -6.9199    0.0000 C   0  0  0  0  0  0  0  0  0  0  0  0
    1.2447   -8.0346    0.0000 N   0  0  0  0  0  0  0  0  0  0  0  0
   -0.2225   -7.7227    0.0000 C   0  0  0  0  0  0  0  0  0  0  0  0
   -1.2262   -8.8374    0.0000 C   0  0  0  0  0  0  0  0  0  0  0  0
   -0.7627  -10.2640    0.0000 N   0  0  0  0  0  0  0  0  0  0  0  0
   -1.7664  -11.3787    0.0000 C   0  0  0  0  0  0  0  0  0  0  0  0
    0.7045  -10.5759    0.0000 C   0  0  0  0  0  0  0  0  0  0  0  0
    1.7082   -9.4612    0.0000 C   0  0  0  0  0  0  0  0  0  0  0  0
    2.7886   -4.3786    0.0000 C   0  0  0  0  0  0  0  0  0  0  0  0
    2.3250   -2.9520    0.0000 C   0  0  0  0  0  0  0  0  0  0  0  0
   -1.0323   -0.7500    0.0000 S   0  0  0  0  0  0  0  0  0  0  0  0
   -1.0323    0.7500    0.0000 C   0  0  0  0  0  0  0  0  0  0  0  0
   -6.1149    1.8303    0.0000 C   0  0  0  0  0  0  0  0  0  0  0  0
   -6.4268    0.3631    0.0000 Cl  0  0  0  0  0  0  0  0  0  0  0  0
   -7.2296    2.8340    0.0000 C   0  0  0  0  0  0  0  0  0  0  0  0
   -6.9177    4.3013    0.0000 C   0  0  0  0  0  0  0  0  0  0  0  0
   -8.0325    5.3050    0.0000 Cl  0  0  0  0  0  0  0  0  0  0  0  0
  1  2  1  0
  2  3  1  0
  3  4  2  0
  4  5  1  0
  5  6  1  0
  6  7  1  0
  7  8  2  0
  8  9  1  0
  9 10  3  0
  8 11  1  0
 11 12  2  0
 12 13  1  0
 13 14  1  0
 14 15  2  0
 15 16  1  0
 16 17  2  0
 17 18  1  0
 18 19  2  0
 19 20  1  0
 20 21  1  0
 21 22  1  0
 22 23  1  0
 23 24  1  0
 24 25  1  0
 24 26  1  0
 26 27  1  0
 19 28  1  0
 28 29  2  0
 15 30  1  0
 30 31  1  0
  5 32  2  0
 32 33  1  0
 32 34  1  0
 34 35  2  0
 35 36  1  0
 35  3  1  0
 31  7  1  0
 31 13  2  0
 29 16  1  0
 27 21  1  0
M  END
>  <Compound_ID>  (70) 
CHEMBL364955

>  <Active>  (70) 
1

>  <Smiles>  (70) 
COc1cc(Nc2c(C#N)cnc3cc(-c4ccc(CN5CCN(C)CC5)cc4)sc23)c(Cl)cc1Cl

>  <canonical_smi>  (70) 
COc1cc(Nc2c(C#N)cnc3cc(-c4ccc(CN5CCN(C)CC5)cc4)sc23)c(Cl)cc1Cl

>  <Set>  (70) 
G2 active

>  <Set_type>  (70) 
Train

>  <MW>  (70) 
538.5

>  <HBD>  (70) 
1

>  <HBA>  (70) 
6

>  <NRB>  (70) 
6

>  <NR>  (70) 
5

>  <NAR>  (70) 
4

>  <PSA>  (70) 
64.42

>  <Standard Type>  (70) 
nan

>  <Standard Relation>  (70) 
nan

>  <Standard Units>  (70) 
nan

>  <Standard Value>  (70) 
nan

>  <Assay ChEMBL ID>  (70) 
nan

>  <Assay Description>  (70) 
nan

>  <BAO Label>  (70) 
nan

$$$$

     RDKit          2D

 37 41  0  0  0  0  0  0  0  0999 V2000
   -4.6904   -6.5871    0.0000 C   0  0  0  0  0  0  0  0  0  0  0  0
   -5.8051   -5.5834    0.0000 C   0  0  0  0  0  0  0  0  0  0  0  0
   -7.2317   -6.0469    0.0000 C   0  0  0  0  0  0  0  0  0  0  0  0
   -8.3464   -5.0433    0.0000 C   0  0  0  0  0  0  0  0  0  0  0  0
   -8.0346   -3.5760    0.0000 C   0  0  0  0  0  0  0  0  0  0  0  0
   -9.1493   -2.5723    0.0000 C   0  0  0  0  0  0  0  0  0  0  0  0
  -10.5759   -3.0359    0.0000 O   0  0  0  0  0  0  0  0  0  0  0  0
   -8.8374   -1.1051    0.0000 N   0  0  0  0  0  0  0  0  0  0  0  0
   -9.9521   -0.1014    0.0000 C   0  0  0  0  0  0  0  0  0  0  0  0
   -9.6403    1.3658    0.0000 C   0  0  0  0  0  0  0  0  0  0  0  0
  -10.7550    2.3695    0.0000 C   0  0  0  0  0  0  0  0  0  0  0  0
  -10.4431    3.8367    0.0000 N   0  0  0  0  0  0  0  0  0  0  0  0
  -11.4468    4.9514    0.0000 C   0  0  0  0  0  0  0  0  0  0  0  0
  -10.6968    6.2505    0.0000 C   0  0  0  0  0  0  0  0  0  0  0  0
   -9.2296    5.9386    0.0000 N   0  0  0  0  0  0  0  0  0  0  0  0
   -9.0728    4.4468    0.0000 C   0  0  0  0  0  0  0  0  0  0  0  0
  -12.1816    1.9060    0.0000 C   0  0  0  0  0  0  0  0  0  0  0  0
  -12.4935    0.4388    0.0000 C   0  0  0  0  0  0  0  0  0  0  0  0
  -13.9200   -0.0248    0.0000 C   0  0  0  0  0  0  0  0  0  0  0  0
  -15.3466   -0.4883    0.0000 F   0  0  0  0  0  0  0  0  0  0  0  0
  -14.3836    1.4018    0.0000 F   0  0  0  0  0  0  0  0  0  0  0  0
  -13.4565   -1.4514    0.0000 F   0  0  0  0  0  0  0  0  0  0  0  0
  -11.3787   -0.5649    0.0000 C   0  0  0  0  0  0  0  0  0  0  0  0
   -6.6080   -3.1125    0.0000 C   0  0  0  0  0  0  0  0  0  0  0  0
   -5.4933   -4.1162    0.0000 C   0  0  0  0  0  0  0  0  0  0  0  0
   -4.0667   -3.6527    0.0000 C   0  0  0  0  0  0  0  0  0  0  0  0
   -2.6401   -3.1891    0.0000 C   0  0  0  0  0  0  0  0  0  0  0  0
   -1.2135   -2.7256    0.0000 C   0  0  0  0  0  0  0  0  0  0  0  0
   -0.0000   -3.6073    0.0000 C   0  0  0  0  0  0  0  0  0  0  0  0
    1.2135   -2.7256    0.0000 N   0  0  0  0  0  0  0  0  0  0  0  0
    0.7500   -1.2990    0.0000 C   0  0  0  0  0  0  0  0  0  0  0  0
    1.5000    0.0000    0.0000 C   0  0  0  0  0  0  0  0  0  0  0  0
    3.0000    0.0000    0.0000 N   0  0  0  0  0  0  0  0  0  0  0  0
    0.7500    1.2990    0.0000 C   0  0  0  0  0  0  0  0  0  0  0  0
   -0.7500    1.2990    0.0000 C   0  0  0  0  0  0  0  0  0  0  0  0
   -1.5000    0.0000    0.0000 C   0  0  0  0  0  0  0  0  0  0  0  0
   -0.7500   -1.2990    0.0000 N   0  0  0  0  0  0  0  0  0  0  0  0
  1  2  1  0
  2  3  2  0
  3  4  1  0
  4  5  2  0
  5  6  1  0
  6  7  2  0
  6  8  1  0
  8  9  1  0
  9 10  2  0
 10 11  1  0
 11 12  1  0
 12 13  1  0
 13 14  2  0
 14 15  1  0
 15 16  2  0
 11 17  2  0
 17 18  1  0
 18 19  1  0
 19 20  1  0
 19 21  1  0
 19 22  1  0
 18 23  2  0
  5 24  1  0
 24 25  2  0
 25 26  1  0
 26 27  3  0
 27 28  1  0
 28 29  2  0
 29 30  1  0
 30 31  2  0
 31 32  1  0
 32 33  1  0
 32 34  2  0
 34 35  1  0
 35 36  2  0
 36 37  1  0
 25  2  1  0
 37 28  1  0
 23  9  1  0
 37 31  1  0
 16 12  1  0
M  END
>  <Compound_ID>  (71) 
CHEMBL1172397

>  <Active>  (71) 
1

>  <Smiles>  (71) 
Cc1ccc(C(=O)Nc2cc(-n3ccnc3)cc(C(F)(F)F)c2)cc1C#Cc1cnc2c(N)cccn12

>  <canonical_smi>  (71) 
Cc1ccc(C(=O)Nc2cc(-n3ccnc3)cc(C(F)(F)F)c2)cc1C#Cc1cnc2c(N)cccn12

>  <Set>  (71) 
G2 active

>  <Set_type>  (71) 
Train

>  <MW>  (71) 
500.48

>  <HBD>  (71) 
2

>  <HBA>  (71) 
4

>  <NRB>  (71) 
3

>  <NR>  (71) 
5

>  <NAR>  (71) 
5

>  <PSA>  (71) 
90.24

>  <Standard Type>  (71) 
nan

>  <Standard Relation>  (71) 
nan

>  <Standard Units>  (71) 
nan

>  <Standard Value>  (71) 
nan

>  <Assay ChEMBL ID>  (71) 
nan

>  <Assay Description>  (71) 
nan

>  <BAO Label>  (71) 
nan

$$$$

     RDKit          2D

 36 40  0  0  0  0  0  0  0  0999 V2000
   -3.0000   -2.5981    0.0000 C   0  0  0  0  0  0  0  0  0  0  0  0
   -1.5000   -2.5981    0.0000 C   0  0  0  0  0  0  0  0  0  0  0  0
   -0.7500   -3.8971    0.0000 C   0  0  0  0  0  0  0  0  0  0  0  0
    0.7500   -3.8971    0.0000 C   0  0  0  0  0  0  0  0  0  0  0  0
    1.5000   -5.1962    0.0000 C   0  0  0  0  0  0  0  0  0  0  0  0
    0.7500   -6.4952    0.0000 C   0  0  0  0  0  0  0  0  0  0  0  0
    1.5000   -7.7942    0.0000 C   0  0  0  0  0  0  0  0  0  0  0  0
    0.7500   -9.0933    0.0000 O   0  0  0  0  0  0  0  0  0  0  0  0
    3.0000   -7.7942    0.0000 C   0  0  0  0  0  0  0  0  0  0  0  0
    3.7500   -6.4952    0.0000 C   0  0  0  0  0  0  0  0  0  0  0  0
    3.0000   -5.1962    0.0000 C   0  0  0  0  0  0  0  0  0  0  0  0
    3.7500   -3.8971    0.0000 Cl  0  0  0  0  0  0  0  0  0  0  0  0
    1.5000   -2.5981    0.0000 C   0  0  0  0  0  0  0  0  0  0  0  0
    0.7500   -1.2990    0.0000 C   0  0  0  0  0  0  0  0  0  0  0  0
    1.5000    0.0000    0.0000 N   0  0  0  0  0  0  0  0  0  0  0  0
    0.7500    1.2990    0.0000 N   0  0  0  0  0  0  0  0  0  0  0  0
   -0.7500    1.2990    0.0000 C   0  0  0  0  0  0  0  0  0  0  0  0
   -1.5000    2.5981    0.0000 N   0  0  0  0  0  0  0  0  0  0  0  0
   -0.7500    3.8971    0.0000 C   0  0  0  0  0  0  0  0  0  0  0  0
    0.7500    3.8971    0.0000 C   0  0  0  0  0  0  0  0  0  0  0  0
    1.5000    5.1962    0.0000 C   0  0  0  0  0  0  0  0  0  0  0  0
    0.7500    6.4952    0.0000 C   0  0  0  0  0  0  0  0  0  0  0  0
    1.5000    7.7942    0.0000 C   0  0  0  0  0  0  0  0  0  0  0  0
    0.7500    9.0933    0.0000 O   0  0  0  0  0  0  0  0  0  0  0  0
    3.0000    7.7942    0.0000 N   0  0  0  0  0  0  0  0  0  0  0  0
    3.7500    9.0933    0.0000 C   0  0  0  0  0  0  0  0  0  0  0  0
    5.2500    9.0933    0.0000 C   0  0  0  0  0  0  0  0  0  0  0  0
    6.0000   10.3923    0.0000 N   0  0  0  0  0  0  0  0  0  0  0  0
    5.3899   11.7626    0.0000 C   0  0  0  0  0  0  0  0  0  0  0  0
    6.5046   12.7663    0.0000 C   0  0  0  0  0  0  0  0  0  0  0  0
    7.8037   12.0163    0.0000 C   0  0  0  0  0  0  0  0  0  0  0  0
    7.4918   10.5491    0.0000 C   0  0  0  0  0  0  0  0  0  0  0  0
   -0.7500    6.4952    0.0000 C   0  0  0  0  0  0  0  0  0  0  0  0
   -1.5000    5.1962    0.0000 C   0  0  0  0  0  0  0  0  0  0  0  0
   -1.5000    0.0000    0.0000 N   0  0  0  0  0  0  0  0  0  0  0  0
   -0.7500   -1.2990    0.0000 C   0  0  0  0  0  0  0  0  0  0  0  0
  1  2  1  0
  2  3  2  0
  3  4  1  0
  4  5  1  0
  5  6  2  0
  6  7  1  0
  7  8  1  0
  7  9  2  0
  9 10  1  0
 10 11  2  0
 11 12  1  0
  4 13  2  0
 13 14  1  0
 14 15  2  0
 15 16  1  0
 16 17  2  0
 17 18  1  0
 18 19  1  0
 19 20  2  0
 20 21  1  0
 21 22  2  0
 22 23  1  0
 23 24  2  0
 23 25  1  0
 25 26  1  0
 26 27  1  0
 27 28  1  0
 28 29  1  0
 29 30  1  0
 30 31  1  0
 31 32  1  0
 22 33  1  0
 33 34  2  0
 17 35  1  0
 35 36  2  0
 36  2  1  0
 11  5  1  0
 36 14  1  0
 34 19  1  0
 32 28  1  0
M  END
>  <Compound_ID>  (72) 
CHEMBL400403

>  <Active>  (72) 
1

>  <Smiles>  (72) 
Cc1cc(-c2cc(O)ccc2Cl)cc2nnc(Nc3ccc(C(=O)NCCN4CCCC4)cc3)nc12

>  <canonical_smi>  (72) 
Cc1cc(-c2cc(O)ccc2Cl)cc2nnc(Nc3ccc(C(=O)NCCN4CCCC4)cc3)nc12

>  <Set>  (72) 
G2 active

>  <Set_type>  (72) 
Train

>  <MW>  (72) 
503.01

>  <HBD>  (72) 
3

>  <HBA>  (72) 
7

>  <NRB>  (72) 
7

>  <NR>  (72) 
5

>  <NAR>  (72) 
4

>  <PSA>  (72) 
103.27

>  <Standard Type>  (72) 
nan

>  <Standard Relation>  (72) 
nan

>  <Standard Units>  (72) 
nan

>  <Standard Value>  (72) 
nan

>  <Assay ChEMBL ID>  (72) 
nan

>  <Assay Description>  (72) 
nan

>  <BAO Label>  (72) 
nan

$$$$

     RDKit          2D

 34 37  0  0  0  0  0  0  0  0999 V2000
   -3.7500   -6.4952    0.0000 C   0  0  0  0  0  0  0  0  0  0  0  0
   -3.0000   -5.1962    0.0000 O   0  0  0  0  0  0  0  0  0  0  0  0
   -1.5000   -5.1962    0.0000 C   0  0  0  0  0  0  0  0  0  0  0  0
   -0.7500   -3.8971    0.0000 C   0  0  0  0  0  0  0  0  0  0  0  0
    0.7500   -3.8971    0.0000 C   0  0  0  0  0  0  0  0  0  0  0  0
    1.5000   -2.5981    0.0000 N   0  0  0  0  0  0  0  0  0  0  0  0
    0.7500   -1.2990    0.0000 C   0  0  0  0  0  0  0  0  0  0  0  0
    1.5000    0.0000    0.0000 C   0  0  0  0  0  0  0  0  0  0  0  0
    3.0000    0.0000    0.0000 C   0  0  0  0  0  0  0  0  0  0  0  0
    4.5000    0.0000    0.0000 N   0  0  0  0  0  0  0  0  0  0  0  0
    0.7500    1.2990    0.0000 C   0  0  0  0  0  0  0  0  0  0  0  0
   -0.7500    1.2990    0.0000 N   0  0  0  0  0  0  0  0  0  0  0  0
   -1.5000    0.0000    0.0000 C   0  0  0  0  0  0  0  0  0  0  0  0
   -3.0000    0.0000    0.0000 C   0  0  0  0  0  0  0  0  0  0  0  0
   -3.7500   -1.2990    0.0000 C   0  0  0  0  0  0  0  0  0  0  0  0
   -5.2500   -1.2990    0.0000 O   0  0  0  0  0  0  0  0  0  0  0  0
   -6.0000    0.0000    0.0000 C   0  0  0  0  0  0  0  0  0  0  0  0
   -7.5000   -0.0000    0.0000 C   0  0  0  0  0  0  0  0  0  0  0  0
   -8.2500    1.2990    0.0000 C   0  0  0  0  0  0  0  0  0  0  0  0
   -9.7500    1.2990    0.0000 C   0  0  0  0  0  0  0  0  0  0  0  0
  -10.5000    0.0000    0.0000 N   0  0  0  0  0  0  0  0  0  0  0  0
  -12.0000    0.0000    0.0000 C   0  0  0  0  0  0  0  0  0  0  0  0
   -9.7500   -1.2990    0.0000 C   0  0  0  0  0  0  0  0  0  0  0  0
   -8.2500   -1.2990    0.0000 C   0  0  0  0  0  0  0  0  0  0  0  0
   -3.0000   -2.5981    0.0000 C   0  0  0  0  0  0  0  0  0  0  0  0
   -3.7500   -3.8971    0.0000 O   0  0  0  0  0  0  0  0  0  0  0  0
   -5.2500   -3.8971    0.0000 C   0  0  0  0  0  0  0  0  0  0  0  0
   -1.5000   -2.5981    0.0000 C   0  0  0  0  0  0  0  0  0  0  0  0
   -0.7500   -1.2990    0.0000 C   0  0  0  0  0  0  0  0  0  0  0  0
    1.5000   -5.1962    0.0000 C   0  0  0  0  0  0  0  0  0  0  0  0
    3.0000   -5.1962    0.0000 Cl  0  0  0  0  0  0  0  0  0  0  0  0
    0.7500   -6.4952    0.0000 C   0  0  0  0  0  0  0  0  0  0  0  0
   -0.7500   -6.4952    0.0000 C   0  0  0  0  0  0  0  0  0  0  0  0
   -1.5000   -7.7942    0.0000 Cl  0  0  0  0  0  0  0  0  0  0  0  0
  1  2  1  0
  2  3  1  0
  3  4  2  0
  4  5  1  0
  5  6  1  0
  6  7  1  0
  7  8  2  0
  8  9  1  0
  9 10  3  0
  8 11  1  0
 11 12  2  0
 12 13  1  0
 13 14  2  0
 14 15  1  0
 15 16  1  0
 16 17  1  0
 17 18  1  0
 18 19  1  0
 19 20  1  0
 20 21  1  0
 21 22  1  0
 21 23  1  0
 23 24  1  0
 15 25  2  0
 25 26  1  0
 26 27  1  0
 25 28  1  0
 28 29  2  0
  5 30  2  0
 30 31  1  0
 30 32  1  0
 32 33  2  0
 33 34  1  0
 33  3  1  0
 29  7  1  0
 29 13  1  0
 24 18  1  0
M  END
>  <Compound_ID>  (73) 
CHEMBL42136

>  <Active>  (73) 
1

>  <Smiles>  (73) 
COc1cc(Nc2c(C#N)cnc3cc(OCC4CCN(C)CC4)c(OC)cc23)c(Cl)cc1Cl

>  <canonical_smi>  (73) 
COc1cc(Nc2c(C#N)cnc3cc(OCC4CCN(C)CC4)c(OC)cc23)c(Cl)cc1Cl

>  <Set>  (73) 
G2 active

>  <Set_type>  (73) 
Train

>  <MW>  (73) 
501.41

>  <HBD>  (73) 
1

>  <HBA>  (73) 
7

>  <NRB>  (73) 
7

>  <NR>  (73) 
4

>  <NAR>  (73) 
3

>  <PSA>  (73) 
79.64

>  <Standard Type>  (73) 
nan

>  <Standard Relation>  (73) 
nan

>  <Standard Units>  (73) 
nan

>  <Standard Value>  (73) 
nan

>  <Assay ChEMBL ID>  (73) 
nan

>  <Assay Description>  (73) 
nan

>  <BAO Label>  (73) 
nan

$$$$

     RDKit          2D

 40 46  0  0  0  0  0  0  0  0999 V2000
    1.3299    5.6152    0.0000 C   0  0  0  0  0  0  0  0  0  0  0  0
   -0.0967    5.1517    0.0000 O   0  0  0  0  0  0  0  0  0  0  0  0
   -0.4086    3.6844    0.0000 C   0  0  0  0  0  0  0  0  0  0  0  0
    0.7062    2.6807    0.0000 C   0  0  0  0  0  0  0  0  0  0  0  0
    0.3943    1.2135    0.0000 C   0  0  0  0  0  0  0  0  0  0  0  0
    1.2760    0.0000    0.0000 N   0  0  0  0  0  0  0  0  0  0  0  0
    0.3943   -1.2135    0.0000 N   0  0  0  0  0  0  0  0  0  0  0  0
   -1.0323   -0.7500    0.0000 C   0  0  0  0  0  0  0  0  0  0  0  0
   -2.2458   -1.6317    0.0000 C   0  0  0  0  0  0  0  0  0  0  0  0
   -3.6724   -1.1682    0.0000 N   0  0  0  0  0  0  0  0  0  0  0  0
   -4.5541   -2.3817    0.0000 C   0  0  0  0  0  0  0  0  0  0  0  0
   -6.0459   -2.5385    0.0000 C   0  0  0  0  0  0  0  0  0  0  0  0
   -6.6560   -3.9088    0.0000 C   0  0  0  0  0  0  0  0  0  0  0  0
   -8.1477   -4.0656    0.0000 N   0  0  0  0  0  0  0  0  0  0  0  0
   -9.0294   -2.8521    0.0000 C   0  0  0  0  0  0  0  0  0  0  0  0
  -10.5212   -3.0088    0.0000 C   0  0  0  0  0  0  0  0  0  0  0  0
  -11.1313   -4.3792    0.0000 C   0  0  0  0  0  0  0  0  0  0  0  0
  -12.6231   -4.5360    0.0000 N   0  0  0  0  0  0  0  0  0  0  0  0
  -13.5048   -3.3224    0.0000 C   0  0  0  0  0  0  0  0  0  0  0  0
  -14.9966   -3.4792    0.0000 C   0  0  0  0  0  0  0  0  0  0  0  0
  -15.6067   -4.8495    0.0000 C   0  0  0  0  0  0  0  0  0  0  0  0
  -14.7250   -6.0631    0.0000 C   0  0  0  0  0  0  0  0  0  0  0  0
  -13.2332   -5.9063    0.0000 C   0  0  0  0  0  0  0  0  0  0  0  0
  -10.2496   -5.5927    0.0000 C   0  0  0  0  0  0  0  0  0  0  0  0
   -8.7579   -5.4359    0.0000 C   0  0  0  0  0  0  0  0  0  0  0  0
   -5.7743   -5.1223    0.0000 C   0  0  0  0  0  0  0  0  0  0  0  0
   -4.2825   -4.9655    0.0000 C   0  0  0  0  0  0  0  0  0  0  0  0
   -3.6724   -3.5952    0.0000 C   0  0  0  0  0  0  0  0  0  0  0  0
   -2.2458   -3.1317    0.0000 N   0  0  0  0  0  0  0  0  0  0  0  0
   -1.0323    0.7500    0.0000 C   0  0  0  0  0  0  0  0  0  0  0  0
   -2.1470    1.7537    0.0000 C   0  0  0  0  0  0  0  0  0  0  0  0
   -1.8351    3.2209    0.0000 C   0  0  0  0  0  0  0  0  0  0  0  0
   -2.9499    4.2246    0.0000 O   0  0  0  0  0  0  0  0  0  0  0  0
   -4.3764    3.7611    0.0000 C   0  0  0  0  0  0  0  0  0  0  0  0
   -5.4912    4.7648    0.0000 C   0  0  0  0  0  0  0  0  0  0  0  0
   -5.1793    6.2320    0.0000 C   0  0  0  0  0  0  0  0  0  0  0  0
   -6.2940    7.2357    0.0000 C   0  0  0  0  0  0  0  0  0  0  0  0
   -7.7206    6.7722    0.0000 C   0  0  0  0  0  0  0  0  0  0  0  0
   -8.0325    5.3050    0.0000 C   0  0  0  0  0  0  0  0  0  0  0  0
   -6.9177    4.3013    0.0000 C   0  0  0  0  0  0  0  0  0  0  0  0
  1  2  1  0
  2  3  1  0
  3  4  2  0
  4  5  1  0
  5  6  1  0
  6  7  1  0
  7  8  2  0
  8  9  1  0
  9 10  2  0
 10 11  1  0
 11 12  2  0
 12 13  1  0
 13 14  1  0
 14 15  1  0
 15 16  1  0
 16 17  1  0
 17 18  1  0
 18 19  1  0
 19 20  1  0
 20 21  1  0
 21 22  1  0
 22 23  1  0
 17 24  1  0
 24 25  1  0
 13 26  2  0
 26 27  1  0
 27 28  2  0
 28 29  1  0
  8 30  1  0
 30 31  1  0
 31 32  2  0
 32 33  1  0
 33 34  1  0
 34 35  1  0
 35 36  2  0
 36 37  1  0
 37 38  2  0
 38 39  1  0
 39 40  2  0
 32  3  1  0
 40 35  1  0
 30  5  2  0
 29  9  1  0
 28 11  1  0
 25 14  1  0
 23 18  1  0
M  END
>  <Compound_ID>  (74) 
CHEMBL210827

>  <Active>  (74) 
1

>  <Smiles>  (74) 
COc1cc2[nH]nc(-c3nc4cc(N5CCC(N6CCCCC6)CC5)ccc4[nH]3)c2cc1OCc1ccccc1

>  <canonical_smi>  (74) 
COc1cc2[nH]nc(-c3nc4cc(N5CCC(N6CCCCC6)CC5)ccc4[nH]3)c2cc1OCc1ccccc1

>  <Set>  (74) 
G2 active

>  <Set_type>  (74) 
Train

>  <MW>  (74) 
536.68

>  <HBD>  (74) 
2

>  <HBA>  (74) 
6

>  <NRB>  (74) 
7

>  <NR>  (74) 
7

>  <NAR>  (74) 
5

>  <PSA>  (74) 
82.3

>  <Standard Type>  (74) 
nan

>  <Standard Relation>  (74) 
nan

>  <Standard Units>  (74) 
nan

>  <Standard Value>  (74) 
nan

>  <Assay ChEMBL ID>  (74) 
nan

>  <Assay Description>  (74) 
nan

>  <BAO Label>  (74) 
nan

$$$$

     RDKit          2D

 35 39  0  0  0  0  0  0  0  0999 V2000
   -3.0000   -2.5981    0.0000 C   0  0  0  0  0  0  0  0  0  0  0  0
   -1.5000   -2.5981    0.0000 C   0  0  0  0  0  0  0  0  0  0  0  0
   -0.7500   -3.8971    0.0000 C   0  0  0  0  0  0  0  0  0  0  0  0
    0.7500   -3.8971    0.0000 C   0  0  0  0  0  0  0  0  0  0  0  0
    1.5000   -5.1962    0.0000 C   0  0  0  0  0  0  0  0  0  0  0  0
    0.7500   -6.4952    0.0000 C   0  0  0  0  0  0  0  0  0  0  0  0
    1.5000   -7.7942    0.0000 C   0  0  0  0  0  0  0  0  0  0  0  0
    0.7500   -9.0933    0.0000 O   0  0  0  0  0  0  0  0  0  0  0  0
    3.0000   -7.7942    0.0000 C   0  0  0  0  0  0  0  0  0  0  0  0
    3.7500   -6.4952    0.0000 C   0  0  0  0  0  0  0  0  0  0  0  0
    3.0000   -5.1962    0.0000 C   0  0  0  0  0  0  0  0  0  0  0  0
    3.7500   -3.8971    0.0000 Cl  0  0  0  0  0  0  0  0  0  0  0  0
    1.5000   -2.5981    0.0000 C   0  0  0  0  0  0  0  0  0  0  0  0
    0.7500   -1.2990    0.0000 C   0  0  0  0  0  0  0  0  0  0  0  0
    1.5000    0.0000    0.0000 N   0  0  0  0  0  0  0  0  0  0  0  0
    0.7500    1.2990    0.0000 N   0  0  0  0  0  0  0  0  0  0  0  0
   -0.7500    1.2990    0.0000 C   0  0  0  0  0  0  0  0  0  0  0  0
   -1.5000    2.5981    0.0000 N   0  0  0  0  0  0  0  0  0  0  0  0
   -0.7500    3.8971    0.0000 C   0  0  0  0  0  0  0  0  0  0  0  0
    0.7500    3.8971    0.0000 C   0  0  0  0  0  0  0  0  0  0  0  0
    1.5000    5.1962    0.0000 C   0  0  0  0  0  0  0  0  0  0  0  0
    0.7500    6.4952    0.0000 C   0  0  0  0  0  0  0  0  0  0  0  0
    1.5000    7.7942    0.0000 S   0  0  0  0  0  0  0  0  0  0  0  0
    0.2010    8.5442    0.0000 O   0  0  0  0  0  0  0  0  0  0  0  0
    2.7990    7.0442    0.0000 O   0  0  0  0  0  0  0  0  0  0  0  0
    2.2500    9.0933    0.0000 C   0  0  0  0  0  0  0  0  0  0  0  0
    3.7500    9.0933    0.0000 C   0  0  0  0  0  0  0  0  0  0  0  0
    4.5000   10.3923    0.0000 C   0  0  0  0  0  0  0  0  0  0  0  0
    3.7500   11.6913    0.0000 N   0  0  0  0  0  0  0  0  0  0  0  0
    2.2500   11.6913    0.0000 C   0  0  0  0  0  0  0  0  0  0  0  0
    1.5000   10.3923    0.0000 C   0  0  0  0  0  0  0  0  0  0  0  0
   -0.7500    6.4952    0.0000 C   0  0  0  0  0  0  0  0  0  0  0  0
   -1.5000    5.1962    0.0000 C   0  0  0  0  0  0  0  0  0  0  0  0
   -1.5000    0.0000    0.0000 N   0  0  0  0  0  0  0  0  0  0  0  0
   -0.7500   -1.2990    0.0000 C   0  0  0  0  0  0  0  0  0  0  0  0
  1  2  1  0
  2  3  2  0
  3  4  1  0
  4  5  1  0
  5  6  2  0
  6  7  1  0
  7  8  1  0
  7  9  2  0
  9 10  1  0
 10 11  2  0
 11 12  1  0
  4 13  2  0
 13 14  1  0
 14 15  2  0
 15 16  1  0
 16 17  2  0
 17 18  1  0
 18 19  1  0
 19 20  2  0
 20 21  1  0
 21 22  2  0
 22 23  1  0
 23 24  2  0
 23 25  2  0
 23 26  1  0
 26 27  1  0
 27 28  1  0
 28 29  1  0
 29 30  1  0
 30 31  1  0
 22 32  1  0
 32 33  2  0
 17 34  1  0
 34 35  2  0
 35  2  1  0
 11  5  1  0
 35 14  1  0
 33 19  1  0
 31 26  1  0
M  END
>  <Compound_ID>  (75) 
CHEMBL250625

>  <Active>  (75) 
1

>  <Smiles>  (75) 
Cc1cc(-c2cc(O)ccc2Cl)cc2nnc(Nc3ccc(S(=O)(=O)C4CCNCC4)cc3)nc12

>  <canonical_smi>  (75) 
Cc1cc(-c2cc(O)ccc2Cl)cc2nnc(Nc3ccc(S(=O)(=O)C4CCNCC4)cc3)nc12

>  <Set>  (75) 
G2 active

>  <Set_type>  (75) 
Train

>  <MW>  (75) 
510.02

>  <HBD>  (75) 
3

>  <HBA>  (75) 
8

>  <NRB>  (75) 
5

>  <NR>  (75) 
5

>  <NAR>  (75) 
4

>  <PSA>  (75) 
117.1

>  <Standard Type>  (75) 
nan

>  <Standard Relation>  (75) 
nan

>  <Standard Units>  (75) 
nan

>  <Standard Value>  (75) 
nan

>  <Assay ChEMBL ID>  (75) 
nan

>  <Assay Description>  (75) 
nan

>  <BAO Label>  (75) 
nan

$$$$

     RDKit          2D

 36 40  0  0  0  0  0  0  0  0999 V2000
   -7.5000   -7.7942    0.0000 C   0  0  0  0  0  0  0  0  0  0  0  0
   -6.0000   -7.7942    0.0000 N   0  0  0  0  0  0  0  0  0  0  0  0
   -5.2500   -6.4952    0.0000 C   0  0  0  0  0  0  0  0  0  0  0  0
   -3.7500   -6.4952    0.0000 C   0  0  0  0  0  0  0  0  0  0  0  0
   -3.0000   -7.7942    0.0000 N   0  0  0  0  0  0  0  0  0  0  0  0
   -1.5000   -7.7942    0.0000 C   0  0  0  0  0  0  0  0  0  0  0  0
   -0.7500   -9.0933    0.0000 O   0  0  0  0  0  0  0  0  0  0  0  0
   -0.7500   -6.4952    0.0000 C   0  0  0  0  0  0  0  0  0  0  0  0
    0.7500   -6.4952    0.0000 C   0  0  0  0  0  0  0  0  0  0  0  0
    1.5000   -5.1962    0.0000 C   0  0  0  0  0  0  0  0  0  0  0  0
    0.7500   -3.8971    0.0000 C   0  0  0  0  0  0  0  0  0  0  0  0
    1.5000   -2.5981    0.0000 N   0  0  0  0  0  0  0  0  0  0  0  0
    0.7500   -1.2990    0.0000 C   0  0  0  0  0  0  0  0  0  0  0  0
    1.5000    0.0000    0.0000 N   0  0  0  0  0  0  0  0  0  0  0  0
    0.7500    1.2990    0.0000 C   0  0  0  0  0  0  0  0  0  0  0  0
   -0.7500    1.2990    0.0000 C   0  0  0  0  0  0  0  0  0  0  0  0
   -1.5000    2.5981    0.0000 C   0  0  0  0  0  0  0  0  0  0  0  0
   -3.0000    2.5981    0.0000 C   0  0  0  0  0  0  0  0  0  0  0  0
   -3.7500    3.8971    0.0000 C   0  0  0  0  0  0  0  0  0  0  0  0
   -3.0000    5.1962    0.0000 C   0  0  0  0  0  0  0  0  0  0  0  0
   -1.5000    5.1962    0.0000 Cl  0  0  0  0  0  0  0  0  0  0  0  0
   -3.7500    6.4952    0.0000 C   0  0  0  0  0  0  0  0  0  0  0  0
   -5.2500    6.4952    0.0000 C   0  0  0  0  0  0  0  0  0  0  0  0
   -6.0000    5.1962    0.0000 C   0  0  0  0  0  0  0  0  0  0  0  0
   -5.2500    3.8971    0.0000 C   0  0  0  0  0  0  0  0  0  0  0  0
   -6.0000    2.5981    0.0000 Cl  0  0  0  0  0  0  0  0  0  0  0  0
   -3.7500    1.2990    0.0000 C   0  0  0  0  0  0  0  0  0  0  0  0
   -5.2500    1.2990    0.0000 O   0  0  0  0  0  0  0  0  0  0  0  0
   -3.0000    0.0000    0.0000 N   0  0  0  0  0  0  0  0  0  0  0  0
   -3.7500   -1.2990    0.0000 C   0  0  0  0  0  0  0  0  0  0  0  0
   -1.5000    0.0000    0.0000 C   0  0  0  0  0  0  0  0  0  0  0  0
   -0.7500   -1.2990    0.0000 N   0  0  0  0  0  0  0  0  0  0  0  0
   -0.7500   -3.8971    0.0000 C   0  0  0  0  0  0  0  0  0  0  0  0
   -1.5000   -5.1962    0.0000 C   0  0  0  0  0  0  0  0  0  0  0  0
   -3.7500   -9.0933    0.0000 C   0  0  0  0  0  0  0  0  0  0  0  0
   -5.2500   -9.0933    0.0000 C   0  0  0  0  0  0  0  0  0  0  0  0
  1  2  1  0
  2  3  1  0
  3  4  1  0
  4  5  1  0
  5  6  1  0
  6  7  2  0
  6  8  1  0
  8  9  2  0
  9 10  1  0
 10 11  2  0
 11 12  1  0
 12 13  1  0
 13 14  2  0
 14 15  1  0
 15 16  2  0
 16 17  1  0
 17 18  2  0
 18 19  1  0
 19 20  2  0
 20 21  1  0
 20 22  1  0
 22 23  2  0
 23 24  1  0
 24 25  2  0
 25 26  1  0
 18 27  1  0
 27 28  2  0
 27 29  1  0
 29 30  1  0
 29 31  1  0
 31 32  2  0
 11 33  1  0
 33 34  2  0
  5 35  1  0
 35 36  1  0
 36  2  1  0
 34  8  1  0
 32 13  1  0
 31 16  1  0
 25 19  1  0
M  END
>  <Compound_ID>  (76) 
CHEMBL565366

>  <Active>  (76) 
1

>  <Smiles>  (76) 
CN1CCN(C(=O)c2ccc(Nc3ncc4cc(-c5c(Cl)cccc5Cl)c(=O)n(C)c4n3)cc2)CC1

>  <canonical_smi>  (76) 
CN1CCN(C(=O)c2ccc(Nc3ncc4cc(-c5c(Cl)cccc5Cl)c(=O)n(C)c4n3)cc2)CC1

>  <Set>  (76) 
G2 active

>  <Set_type>  (76) 
Train

>  <MW>  (76) 
523.42

>  <HBD>  (76) 
1

>  <HBA>  (76) 
6

>  <NRB>  (76) 
4

>  <NR>  (76) 
5

>  <NAR>  (76) 
4

>  <PSA>  (76) 
83.36

>  <Standard Type>  (76) 
nan

>  <Standard Relation>  (76) 
nan

>  <Standard Units>  (76) 
nan

>  <Standard Value>  (76) 
nan

>  <Assay ChEMBL ID>  (76) 
nan

>  <Assay Description>  (76) 
nan

>  <BAO Label>  (76) 
nan

$$$$

     RDKit          2D

 35 39  0  0  0  0  0  0  0  0999 V2000
   -3.0000   -2.5981    0.0000 C   0  0  0  0  0  0  0  0  0  0  0  0
   -1.5000   -2.5981    0.0000 C   0  0  0  0  0  0  0  0  0  0  0  0
   -0.7500   -3.8971    0.0000 C   0  0  0  0  0  0  0  0  0  0  0  0
    0.7500   -3.8971    0.0000 C   0  0  0  0  0  0  0  0  0  0  0  0
    1.5000   -5.1962    0.0000 C   0  0  0  0  0  0  0  0  0  0  0  0
    0.7500   -6.4952    0.0000 C   0  0  0  0  0  0  0  0  0  0  0  0
    1.5000   -7.7942    0.0000 C   0  0  0  0  0  0  0  0  0  0  0  0
    0.7500   -9.0933    0.0000 O   0  0  0  0  0  0  0  0  0  0  0  0
    3.0000   -7.7942    0.0000 C   0  0  0  0  0  0  0  0  0  0  0  0
    3.7500   -6.4952    0.0000 C   0  0  0  0  0  0  0  0  0  0  0  0
    3.0000   -5.1962    0.0000 C   0  0  0  0  0  0  0  0  0  0  0  0
    3.7500   -3.8971    0.0000 Cl  0  0  0  0  0  0  0  0  0  0  0  0
    1.5000   -2.5981    0.0000 C   0  0  0  0  0  0  0  0  0  0  0  0
    0.7500   -1.2990    0.0000 C   0  0  0  0  0  0  0  0  0  0  0  0
    1.5000    0.0000    0.0000 N   0  0  0  0  0  0  0  0  0  0  0  0
    0.7500    1.2990    0.0000 N   0  0  0  0  0  0  0  0  0  0  0  0
   -0.7500    1.2990    0.0000 C   0  0  0  0  0  0  0  0  0  0  0  0
   -1.5000    2.5981    0.0000 N   0  0  0  0  0  0  0  0  0  0  0  0
   -0.7500    3.8971    0.0000 C   0  0  0  0  0  0  0  0  0  0  0  0
    0.7500    3.8971    0.0000 C   0  0  0  0  0  0  0  0  0  0  0  0
    1.5000    5.1962    0.0000 C   0  0  0  0  0  0  0  0  0  0  0  0
    0.7500    6.4952    0.0000 C   0  0  0  0  0  0  0  0  0  0  0  0
    1.5000    7.7942    0.0000 S   0  0  0  0  0  0  0  0  0  0  0  0
    2.7990    7.0442    0.0000 O   0  0  0  0  0  0  0  0  0  0  0  0
    0.2010    8.5442    0.0000 O   0  0  0  0  0  0  0  0  0  0  0  0
    2.2500    9.0933    0.0000 N   0  0  0  0  0  0  0  0  0  0  0  0
    3.7500    9.0933    0.0000 C   0  0  0  0  0  0  0  0  0  0  0  0
    4.5000   10.3923    0.0000 C   0  0  0  0  0  0  0  0  0  0  0  0
    3.7500   11.6913    0.0000 N   0  0  0  0  0  0  0  0  0  0  0  0
    2.2500   11.6913    0.0000 C   0  0  0  0  0  0  0  0  0  0  0  0
    1.5000   10.3923    0.0000 C   0  0  0  0  0  0  0  0  0  0  0  0
   -0.7500    6.4952    0.0000 C   0  0  0  0  0  0  0  0  0  0  0  0
   -1.5000    5.1962    0.0000 C   0  0  0  0  0  0  0  0  0  0  0  0
   -1.5000    0.0000    0.0000 N   0  0  0  0  0  0  0  0  0  0  0  0
   -0.7500   -1.2990    0.0000 C   0  0  0  0  0  0  0  0  0  0  0  0
  1  2  1  0
  2  3  2  0
  3  4  1  0
  4  5  1  0
  5  6  2  0
  6  7  1  0
  7  8  1  0
  7  9  2  0
  9 10  1  0
 10 11  2  0
 11 12  1  0
  4 13  2  0
 13 14  1  0
 14 15  2  0
 15 16  1  0
 16 17  2  0
 17 18  1  0
 18 19  1  0
 19 20  2  0
 20 21  1  0
 21 22  2  0
 22 23  1  0
 23 24  2  0
 23 25  2  0
 23 26  1  0
 26 27  1  0
 27 28  1  0
 28 29  1  0
 29 30  1  0
 30 31  1  0
 22 32  1  0
 32 33  2  0
 17 34  1  0
 34 35  2  0
 35  2  1  0
 11  5  1  0
 35 14  1  0
 33 19  1  0
 31 26  1  0
M  END
>  <Compound_ID>  (77) 
CHEMBL250623

>  <Active>  (77) 
1

>  <Smiles>  (77) 
Cc1cc(-c2cc(O)ccc2Cl)cc2nnc(Nc3ccc(S(=O)(=O)N4CCNCC4)cc3)nc12

>  <canonical_smi>  (77) 
Cc1cc(-c2cc(O)ccc2Cl)cc2nnc(Nc3ccc(S(=O)(=O)N4CCNCC4)cc3)nc12

>  <Set>  (77) 
G2 active

>  <Set_type>  (77) 
Train

>  <MW>  (77) 
511.01

>  <HBD>  (77) 
3

>  <HBA>  (77) 
8

>  <NRB>  (77) 
5

>  <NR>  (77) 
5

>  <NAR>  (77) 
4

>  <PSA>  (77) 
120.34

>  <Standard Type>  (77) 
nan

>  <Standard Relation>  (77) 
nan

>  <Standard Units>  (77) 
nan

>  <Standard Value>  (77) 
nan

>  <Assay ChEMBL ID>  (77) 
nan

>  <Assay Description>  (77) 
nan

>  <BAO Label>  (77) 
nan

$$$$

     RDKit          2D

 40 44  0  0  0  0  0  0  0  0999 V2000
    3.7500   -1.2990    0.0000 C   0  0  0  0  0  0  0  0  0  0  0  0
    3.0000    0.0000    0.0000 N   0  0  0  0  0  0  0  0  0  0  0  0
    1.5000    0.0000    0.0000 C   0  0  0  0  0  0  0  0  0  0  0  0
    0.7500   -1.2990    0.0000 N   0  0  0  0  0  0  0  0  0  0  0  0
   -0.7500   -1.2990    0.0000 C   0  0  0  0  0  0  0  0  0  0  0  0
   -1.5000    0.0000    0.0000 C   0  0  0  0  0  0  0  0  0  0  0  0
   -0.7500    1.2990    0.0000 C   0  0  0  0  0  0  0  0  0  0  0  0
    0.7500    1.2990    0.0000 N   0  0  0  0  0  0  0  0  0  0  0  0
   -1.5000    2.5981    0.0000 N   0  0  0  0  0  0  0  0  0  0  0  0
   -0.7500    3.8971    0.0000 C   0  0  0  0  0  0  0  0  0  0  0  0
   -3.0000    2.5981    0.0000 C   0  0  0  0  0  0  0  0  0  0  0  0
   -3.7500    3.8971    0.0000 O   0  0  0  0  0  0  0  0  0  0  0  0
   -3.7500    1.2990    0.0000 N   0  0  0  0  0  0  0  0  0  0  0  0
   -5.2500    1.2990    0.0000 C   0  0  0  0  0  0  0  0  0  0  0  0
   -6.0000    2.5981    0.0000 C   0  0  0  0  0  0  0  0  0  0  0  0
   -7.5000    2.5981    0.0000 C   0  0  0  0  0  0  0  0  0  0  0  0
   -8.2500    3.8971    0.0000 N   0  0  0  0  0  0  0  0  0  0  0  0
   -7.5000    5.1962    0.0000 C   0  0  0  0  0  0  0  0  0  0  0  0
   -6.0000    5.1962    0.0000 O   0  0  0  0  0  0  0  0  0  0  0  0
   -8.2500    6.4952    0.0000 C   0  0  0  0  0  0  0  0  0  0  0  0
   -7.5000    7.7942    0.0000 C   0  0  0  0  0  0  0  0  0  0  0  0
   -8.2500    9.0933    0.0000 C   0  0  0  0  0  0  0  0  0  0  0  0
   -7.5000   10.3923    0.0000 N   0  0  0  0  0  0  0  0  0  0  0  0
   -8.1101   11.7626    0.0000 C   0  0  0  0  0  0  0  0  0  0  0  0
   -6.9954   12.7663    0.0000 N   0  0  0  0  0  0  0  0  0  0  0  0
   -5.6963   12.0163    0.0000 C   0  0  0  0  0  0  0  0  0  0  0  0
   -4.3260   12.6264    0.0000 C   0  0  0  0  0  0  0  0  0  0  0  0
   -6.0082   10.5491    0.0000 C   0  0  0  0  0  0  0  0  0  0  0  0
   -9.7500    9.0933    0.0000 C   0  0  0  0  0  0  0  0  0  0  0  0
  -10.5000    7.7942    0.0000 C   0  0  0  0  0  0  0  0  0  0  0  0
  -12.0000    7.7942    0.0000 C   0  0  0  0  0  0  0  0  0  0  0  0
  -13.5000    7.7942    0.0000 F   0  0  0  0  0  0  0  0  0  0  0  0
  -12.0000    9.2942    0.0000 F   0  0  0  0  0  0  0  0  0  0  0  0
  -12.0000    6.2942    0.0000 F   0  0  0  0  0  0  0  0  0  0  0  0
   -9.7500    6.4952    0.0000 C   0  0  0  0  0  0  0  0  0  0  0  0
   -8.2500    1.2990    0.0000 C   0  0  0  0  0  0  0  0  0  0  0  0
   -7.5000    0.0000    0.0000 C   0  0  0  0  0  0  0  0  0  0  0  0
   -6.0000    0.0000    0.0000 C   0  0  0  0  0  0  0  0  0  0  0  0
   -5.2500   -1.2990    0.0000 C   0  0  0  0  0  0  0  0  0  0  0  0
   -3.0000    0.0000    0.0000 C   0  0  0  0  0  0  0  0  0  0  0  0
  1  2  1  0
  2  3  1  0
  3  4  2  0
  4  5  1  0
  5  6  2  0
  6  7  1  0
  7  8  2  0
  7  9  1  0
  9 10  1  0
  9 11  1  0
 11 12  2  0
 11 13  1  0
 13 14  1  0
 14 15  2  0
 15 16  1  0
 16 17  1  0
 17 18  1  0
 18 19  2  0
 18 20  1  0
 20 21  2  0
 21 22  1  0
 22 23  1  0
 23 24  1  0
 24 25  2  0
 25 26  1  0
 26 27  1  0
 26 28  2  0
 22 29  2  0
 29 30  1  0
 30 31  1  0
 31 32  1  0
 31 33  1  0
 31 34  1  0
 30 35  2  0
 16 36  2  0
 36 37  1  0
 37 38  2  0
 38 39  1  0
 13 40  1  0
  8  3  1  0
 38 14  1  0
 40  6  1  0
 35 20  1  0
 28 23  1  0
M  END
>  <Compound_ID>  (78) 
CHEMBL485854

>  <Active>  (78) 
1

>  <Smiles>  (78) 
CNc1ncc2c(n1)N(C)C(=O)N(c1cc(NC(=O)c3cc(-n4cnc(C)c4)cc(C(F)(F)F)c3)ccc1C)C2

>  <canonical_smi>  (78) 
CNc1ncc2c(n1)N(C)C(=O)N(c1cc(NC(=O)c3cc(-n4cnc(C)c4)cc(C(F)(F)F)c3)ccc1C)C2

>  <Set>  (78) 
G2 active

>  <Set_type>  (78) 
Train

>  <MW>  (78) 
550.55

>  <HBD>  (78) 
2

>  <HBA>  (78) 
6

>  <NRB>  (78) 
5

>  <NR>  (78) 
5

>  <NAR>  (78) 
4

>  <PSA>  (78) 
108.28

>  <Standard Type>  (78) 
nan

>  <Standard Relation>  (78) 
nan

>  <Standard Units>  (78) 
nan

>  <Standard Value>  (78) 
nan

>  <Assay ChEMBL ID>  (78) 
nan

>  <Assay Description>  (78) 
nan

>  <BAO Label>  (78) 
nan

$$$$

     RDKit          2D

 39 43  0  0  0  0  0  0  0  0999 V2000
   -3.0000   -2.5981    0.0000 C   0  0  0  0  0  0  0  0  0  0  0  0
   -1.5000   -2.5981    0.0000 C   0  0  0  0  0  0  0  0  0  0  0  0
   -0.7500   -3.8971    0.0000 C   0  0  0  0  0  0  0  0  0  0  0  0
    0.7500   -3.8971    0.0000 C   0  0  0  0  0  0  0  0  0  0  0  0
    1.5000   -5.1962    0.0000 C   0  0  0  0  0  0  0  0  0  0  0  0
    0.7500   -6.4952    0.0000 C   0  0  0  0  0  0  0  0  0  0  0  0
    1.5000   -7.7942    0.0000 C   0  0  0  0  0  0  0  0  0  0  0  0
    0.7500   -9.0933    0.0000 O   0  0  0  0  0  0  0  0  0  0  0  0
    3.0000   -7.7942    0.0000 C   0  0  0  0  0  0  0  0  0  0  0  0
    3.7500   -6.4952    0.0000 C   0  0  0  0  0  0  0  0  0  0  0  0
    3.0000   -5.1962    0.0000 C   0  0  0  0  0  0  0  0  0  0  0  0
    3.7500   -3.8971    0.0000 Cl  0  0  0  0  0  0  0  0  0  0  0  0
    1.5000   -2.5981    0.0000 C   0  0  0  0  0  0  0  0  0  0  0  0
    0.7500   -1.2990    0.0000 C   0  0  0  0  0  0  0  0  0  0  0  0
    1.5000    0.0000    0.0000 N   0  0  0  0  0  0  0  0  0  0  0  0
    0.7500    1.2990    0.0000 N   0  0  0  0  0  0  0  0  0  0  0  0
   -0.7500    1.2990    0.0000 C   0  0  0  0  0  0  0  0  0  0  0  0
   -1.5000    2.5981    0.0000 N   0  0  0  0  0  0  0  0  0  0  0  0
   -0.7500    3.8971    0.0000 C   0  0  0  0  0  0  0  0  0  0  0  0
    0.7500    3.8971    0.0000 C   0  0  0  0  0  0  0  0  0  0  0  0
    1.5000    5.1962    0.0000 C   0  0  0  0  0  0  0  0  0  0  0  0
    0.7500    6.4952    0.0000 C   0  0  0  0  0  0  0  0  0  0  0  0
    1.5000    7.7942    0.0000 S   0  0  0  0  0  0  0  0  0  0  0  0
    2.7990    7.0442    0.0000 O   0  0  0  0  0  0  0  0  0  0  0  0
    0.2010    8.5442    0.0000 O   0  0  0  0  0  0  0  0  0  0  0  0
    2.2500    9.0933    0.0000 N   0  0  0  0  0  0  0  0  0  0  0  0
    1.5000   10.3923    0.0000 C   0  0  0  0  0  0  0  0  0  0  0  0
    3.7500    9.0933    0.0000 C   0  0  0  0  0  0  0  0  0  0  0  0
    4.5000   10.3923    0.0000 C   0  0  0  0  0  0  0  0  0  0  0  0
    6.0000   10.3923    0.0000 N   0  0  0  0  0  0  0  0  0  0  0  0
    6.7500    9.0933    0.0000 C   0  0  0  0  0  0  0  0  0  0  0  0
    8.2500    9.0933    0.0000 C   0  0  0  0  0  0  0  0  0  0  0  0
    9.0000   10.3923    0.0000 O   0  0  0  0  0  0  0  0  0  0  0  0
    8.2500   11.6913    0.0000 C   0  0  0  0  0  0  0  0  0  0  0  0
    6.7500   11.6913    0.0000 C   0  0  0  0  0  0  0  0  0  0  0  0
   -0.7500    6.4952    0.0000 C   0  0  0  0  0  0  0  0  0  0  0  0
   -1.5000    5.1962    0.0000 C   0  0  0  0  0  0  0  0  0  0  0  0
   -1.5000    0.0000    0.0000 N   0  0  0  0  0  0  0  0  0  0  0  0
   -0.7500   -1.2990    0.0000 C   0  0  0  0  0  0  0  0  0  0  0  0
  1  2  1  0
  2  3  2  0
  3  4  1  0
  4  5  1  0
  5  6  2  0
  6  7  1  0
  7  8  1  0
  7  9  2  0
  9 10  1  0
 10 11  2  0
 11 12  1  0
  4 13  2  0
 13 14  1  0
 14 15  2  0
 15 16  1  0
 16 17  2  0
 17 18  1  0
 18 19  1  0
 19 20  2  0
 20 21  1  0
 21 22  2  0
 22 23  1  0
 23 24  2  0
 23 25  2  0
 23 26  1  0
 26 27  1  0
 26 28  1  0
 28 29  1  0
 29 30  1  0
 30 31  1  0
 31 32  1  0
 32 33  1  0
 33 34  1  0
 34 35  1  0
 22 36  1  0
 36 37  2  0
 17 38  1  0
 38 39  2  0
 39  2  1  0
 11  5  1  0
 39 14  1  0
 37 19  1  0
 35 30  1  0
M  END
>  <Compound_ID>  (79) 
CHEMBL250423

>  <Active>  (79) 
1

>  <Smiles>  (79) 
Cc1cc(-c2cc(O)ccc2Cl)cc2nnc(Nc3ccc(S(=O)(=O)N(C)CCN4CCOCC4)cc3)nc12

>  <canonical_smi>  (79) 
Cc1cc(-c2cc(O)ccc2Cl)cc2nnc(Nc3ccc(S(=O)(=O)N(C)CCN4CCOCC4)cc3)nc12

>  <Set>  (79) 
G2 active

>  <Set_type>  (79) 
Train

>  <MW>  (79) 
569.09

>  <HBD>  (79) 
2

>  <HBA>  (79) 
9

>  <NRB>  (79) 
8

>  <NR>  (79) 
5

>  <NAR>  (79) 
4

>  <PSA>  (79) 
120.78

>  <Standard Type>  (79) 
nan

>  <Standard Relation>  (79) 
nan

>  <Standard Units>  (79) 
nan

>  <Standard Value>  (79) 
nan

>  <Assay ChEMBL ID>  (79) 
nan

>  <Assay Description>  (79) 
nan

>  <BAO Label>  (79) 
nan

$$$$

     RDKit          2D

 38 43  0  0  0  0  0  0  0  0999 V2000
   -4.6904   -6.5871    0.0000 C   0  0  0  0  0  0  0  0  0  0  0  0
   -5.8051   -5.5834    0.0000 C   0  0  0  0  0  0  0  0  0  0  0  0
   -7.2317   -6.0469    0.0000 C   0  0  0  0  0  0  0  0  0  0  0  0
   -8.3464   -5.0433    0.0000 C   0  0  0  0  0  0  0  0  0  0  0  0
   -8.0346   -3.5760    0.0000 C   0  0  0  0  0  0  0  0  0  0  0  0
   -9.1493   -2.5723    0.0000 C   0  0  0  0  0  0  0  0  0  0  0  0
  -10.5759   -3.0359    0.0000 O   0  0  0  0  0  0  0  0  0  0  0  0
   -8.8374   -1.1051    0.0000 N   0  0  0  0  0  0  0  0  0  0  0  0
   -9.9521   -0.1014    0.0000 C   0  0  0  0  0  0  0  0  0  0  0  0
   -9.6403    1.3658    0.0000 C   0  0  0  0  0  0  0  0  0  0  0  0
  -10.7550    2.3695    0.0000 C   0  0  0  0  0  0  0  0  0  0  0  0
  -12.1816    1.9060    0.0000 C   0  0  0  0  0  0  0  0  0  0  0  0
  -13.2963    2.9097    0.0000 C   0  0  0  0  0  0  0  0  0  0  0  0
  -12.9844    4.3769    0.0000 N   0  0  0  0  0  0  0  0  0  0  0  0
  -11.5578    4.8404    0.0000 C   0  0  0  0  0  0  0  0  0  0  0  0
  -11.2460    6.3076    0.0000 C   0  0  0  0  0  0  0  0  0  0  0  0
  -12.3607    7.3113    0.0000 N   0  0  0  0  0  0  0  0  0  0  0  0
  -12.0488    8.7786    0.0000 C   0  0  0  0  0  0  0  0  0  0  0  0
  -13.7873    6.8478    0.0000 C   0  0  0  0  0  0  0  0  0  0  0  0
  -14.0992    5.3806    0.0000 C   0  0  0  0  0  0  0  0  0  0  0  0
  -12.4935    0.4388    0.0000 C   0  0  0  0  0  0  0  0  0  0  0  0
  -13.9200   -0.0248    0.0000 C   0  0  0  0  0  0  0  0  0  0  0  0
  -14.9237   -1.1395    0.0000 C   0  0  0  0  0  0  0  0  0  0  0  0
  -15.3873    0.2871    0.0000 C   0  0  0  0  0  0  0  0  0  0  0  0
  -11.3787   -0.5649    0.0000 C   0  0  0  0  0  0  0  0  0  0  0  0
   -6.6080   -3.1125    0.0000 C   0  0  0  0  0  0  0  0  0  0  0  0
   -5.4933   -4.1162    0.0000 C   0  0  0  0  0  0  0  0  0  0  0  0
   -4.0667   -3.6527    0.0000 C   0  0  0  0  0  0  0  0  0  0  0  0
   -2.6401   -3.1891    0.0000 C   0  0  0  0  0  0  0  0  0  0  0  0
   -1.2135   -2.7256    0.0000 C   0  0  0  0  0  0  0  0  0  0  0  0
   -0.0000   -3.6073    0.0000 C   0  0  0  0  0  0  0  0  0  0  0  0
    1.2135   -2.7256    0.0000 N   0  0  0  0  0  0  0  0  0  0  0  0
    0.7500   -1.2990    0.0000 C   0  0  0  0  0  0  0  0  0  0  0  0
    1.5000    0.0000    0.0000 C   0  0  0  0  0  0  0  0  0  0  0  0
    0.7500    1.2990    0.0000 C   0  0  0  0  0  0  0  0  0  0  0  0
   -0.7500    1.2990    0.0000 C   0  0  0  0  0  0  0  0  0  0  0  0
   -1.5000    0.0000    0.0000 N   0  0  0  0  0  0  0  0  0  0  0  0
   -0.7500   -1.2990    0.0000 N   0  0  0  0  0  0  0  0  0  0  0  0
  1  2  1  0
  2  3  2  0
  3  4  1  0
  4  5  2  0
  5  6  1  0
  6  7  2  0
  6  8  1  0
  8  9  1  0
  9 10  2  0
 10 11  1  0
 11 12  2  0
 12 13  1  0
 13 14  1  0
 14 15  1  0
 15 16  1  0
 16 17  1  0
 17 18  1  0
 17 19  1  0
 19 20  1  0
 12 21  1  0
 21 22  1  0
 22 23  1  0
 23 24  1  0
 21 25  2  0
  5 26  1  0
 26 27  2  0
 27 28  1  0
 28 29  3  0
 29 30  1  0
 30 31  2  0
 31 32  1  0
 32 33  2  0
 33 34  1  0
 34 35  2  0
 35 36  1  0
 36 37  2  0
 37 38  1  0
 27  2  1  0
 38 30  1  0
 25  9  1  0
 38 33  1  0
 20 14  1  0
 24 22  1  0
M  END
>  <Compound_ID>  (80) 
CHEMBL1172719

>  <Active>  (80) 
1

>  <Smiles>  (80) 
Cc1ccc(C(=O)Nc2ccc(CN3CCN(C)CC3)c(C3CC3)c2)cc1C#Cc1cnc2cccnn12

>  <canonical_smi>  (80) 
Cc1ccc(C(=O)Nc2ccc(CN3CCN(C)CC3)c(C3CC3)c2)cc1C#Cc1cnc2cccnn12

>  <Set>  (80) 
G2 active

>  <Set_type>  (80) 
Train

>  <MW>  (80) 
504.64

>  <HBD>  (80) 
1

>  <HBA>  (80) 
5

>  <NRB>  (80) 
5

>  <NR>  (80) 
6

>  <NAR>  (80) 
4

>  <PSA>  (80) 
65.77

>  <Standard Type>  (80) 
nan

>  <Standard Relation>  (80) 
nan

>  <Standard Units>  (80) 
nan

>  <Standard Value>  (80) 
nan

>  <Assay ChEMBL ID>  (80) 
nan

>  <Assay Description>  (80) 
nan

>  <BAO Label>  (80) 
nan

$$$$

     RDKit          2D

 33 37  0  0  0  0  0  0  0  0999 V2000
    0.4022   -7.7629    0.0000 C   0  0  0  0  0  0  0  0  0  0  0  0
    0.2454   -6.2711    0.0000 C   0  0  0  0  0  0  0  0  0  0  0  0
    1.3601   -5.2674    0.0000 C   0  0  0  0  0  0  0  0  0  0  0  0
    0.7500   -3.8971    0.0000 C   0  0  0  0  0  0  0  0  0  0  0  0
    1.5000   -2.5981    0.0000 N   0  0  0  0  0  0  0  0  0  0  0  0
    0.7500   -1.2990    0.0000 C   0  0  0  0  0  0  0  0  0  0  0  0
    1.5000    0.0000    0.0000 C   0  0  0  0  0  0  0  0  0  0  0  0
    0.7500    1.2990    0.0000 C   0  0  0  0  0  0  0  0  0  0  0  0
    1.5000    2.5981    0.0000 N   0  0  0  0  0  0  0  0  0  0  0  0
    3.0000    2.5981    0.0000 C   0  0  0  0  0  0  0  0  0  0  0  0
    3.7500    3.8971    0.0000 C   0  0  0  0  0  0  0  0  0  0  0  0
    3.0000    5.1962    0.0000 N   0  0  0  0  0  0  0  0  0  0  0  0
    3.7500    6.4952    0.0000 C   0  0  0  0  0  0  0  0  0  0  0  0
    1.5000    5.1962    0.0000 C   0  0  0  0  0  0  0  0  0  0  0  0
    0.7500    3.8971    0.0000 C   0  0  0  0  0  0  0  0  0  0  0  0
   -0.7500    1.2990    0.0000 N   0  0  0  0  0  0  0  0  0  0  0  0
   -1.5000    0.0000    0.0000 C   0  0  0  0  0  0  0  0  0  0  0  0
   -3.0000    0.0000    0.0000 S   0  0  0  0  0  0  0  0  0  0  0  0
   -3.7500    1.2990    0.0000 C   0  0  0  0  0  0  0  0  0  0  0  0
   -3.0000    2.5981    0.0000 C   0  0  0  0  0  0  0  0  0  0  0  0
   -3.7500    3.8971    0.0000 C   0  0  0  0  0  0  0  0  0  0  0  0
   -5.2500    3.8971    0.0000 C   0  0  0  0  0  0  0  0  0  0  0  0
   -6.0000    5.1962    0.0000 N   0  0  0  0  0  0  0  0  0  0  0  0
   -5.2500    6.4952    0.0000 C   0  0  0  0  0  0  0  0  0  0  0  0
   -3.7500    6.4952    0.0000 O   0  0  0  0  0  0  0  0  0  0  0  0
   -6.0000    7.7942    0.0000 C   0  0  0  0  0  0  0  0  0  0  0  0
   -7.2990    8.5442    0.0000 C   0  0  0  0  0  0  0  0  0  0  0  0
   -6.0000    9.2942    0.0000 C   0  0  0  0  0  0  0  0  0  0  0  0
   -6.0000    2.5981    0.0000 C   0  0  0  0  0  0  0  0  0  0  0  0
   -5.2500    1.2990    0.0000 C   0  0  0  0  0  0  0  0  0  0  0  0
   -0.7500   -1.2990    0.0000 N   0  0  0  0  0  0  0  0  0  0  0  0
   -0.7418   -4.0539    0.0000 N   0  0  0  0  0  0  0  0  0  0  0  0
   -1.0537   -5.5211    0.0000 N   0  0  0  0  0  0  0  0  0  0  0  0
  1  2  1  0
  2  3  1  0
  3  4  2  0
  4  5  1  0
  5  6  1  0
  6  7  2  0
  7  8  1  0
  8  9  1  0
  9 10  1  0
 10 11  1  0
 11 12  1  0
 12 13  1  0
 12 14  1  0
 14 15  1  0
  8 16  2  0
 16 17  1  0
 17 18  1  0
 18 19  1  0
 19 20  2  0
 20 21  1  0
 21 22  2  0
 22 23  1  0
 23 24  1  0
 24 25  2  0
 24 26  1  0
 26 27  1  0
 27 28  1  0
 22 29  1  0
 29 30  2  0
 17 31  2  0
  4 32  1  0
 32 33  1  0
 33  2  2  0
 31  6  1  0
 15  9  1  0
 30 19  1  0
 28 26  1  0
M  END
>  <Compound_ID>  (81) 
CHEMBL572878

>  <Active>  (81) 
1

>  <Smiles>  (81) 
Cc1cc(Nc2cc(N3CCN(C)CC3)nc(Sc3ccc(NC(=O)C4CC4)cc3)n2)[nH]n1

>  <canonical_smi>  (81) 
Cc1cc(Nc2cc(N3CCN(C)CC3)nc(Sc3ccc(NC(=O)C4CC4)cc3)n2)[nH]n1

>  <Set>  (81) 
G2 active

>  <Set_type>  (81) 
Train

>  <MW>  (81) 
464.6

>  <HBD>  (81) 
3

>  <HBA>  (81) 
8

>  <NRB>  (81) 
7

>  <NR>  (81) 
5

>  <NAR>  (81) 
3

>  <PSA>  (81) 
102.07

>  <Standard Type>  (81) 
nan

>  <Standard Relation>  (81) 
nan

>  <Standard Units>  (81) 
nan

>  <Standard Value>  (81) 
nan

>  <Assay ChEMBL ID>  (81) 
nan

>  <Assay Description>  (81) 
nan

>  <BAO Label>  (81) 
nan

$$$$

     RDKit          2D

 44 51  0  0  0  0  0  0  0  0999 V2000
   -6.0000   -7.7942    0.0000 C   0  0  0  0  0  0  0  0  0  0  0  0
   -5.2500   -6.4952    0.0000 C   0  0  0  0  0  0  0  0  0  0  0  0
   -3.7500   -6.4952    0.0000 C   0  0  0  0  0  0  0  0  0  0  0  0
   -3.0000   -7.7942    0.0000 C   0  0  0  0  0  0  0  0  0  0  0  0
   -1.5000   -7.7942    0.0000 C   0  0  0  0  0  0  0  0  0  0  0  0
   -0.7500   -6.4952    0.0000 N   0  0  0  0  0  0  0  0  0  0  0  0
    0.7500   -6.4952    0.0000 C   0  0  0  0  0  0  0  0  0  0  0  0
    1.5000   -5.1962    0.0000 C   0  0  0  0  0  0  0  0  0  0  0  0
    0.7500   -3.8971    0.0000 C   0  0  0  0  0  0  0  0  0  0  0  0
    1.5000   -2.5981    0.0000 N   0  0  0  0  0  0  0  0  0  0  0  0
    0.7500   -1.2990    0.0000 C   0  0  0  0  0  0  0  0  0  0  0  0
    1.5000    0.0000    0.0000 C   0  0  0  0  0  0  0  0  0  0  0  0
    0.7500    1.2990    0.0000 C   0  0  0  0  0  0  0  0  0  0  0  0
   -0.7500    1.2990    0.0000 C   0  0  0  0  0  0  0  0  0  0  0  0
   -1.7537    2.4138    0.0000 N   0  0  0  0  0  0  0  0  0  0  0  0
   -3.1240    1.8037    0.0000 N   0  0  0  0  0  0  0  0  0  0  0  0
   -2.9672    0.3119    0.0000 C   0  0  0  0  0  0  0  0  0  0  0  0
   -4.0819   -0.6918    0.0000 C   0  0  0  0  0  0  0  0  0  0  0  0
   -5.5492   -0.3800    0.0000 N   0  0  0  0  0  0  0  0  0  0  0  0
   -6.2992   -1.6790    0.0000 C   0  0  0  0  0  0  0  0  0  0  0  0
   -7.7664   -1.9909    0.0000 C   0  0  0  0  0  0  0  0  0  0  0  0
   -8.2299   -3.4175    0.0000 C   0  0  0  0  0  0  0  0  0  0  0  0
   -9.6971   -3.7293    0.0000 N   0  0  0  0  0  0  0  0  0  0  0  0
  -10.7008   -2.6146    0.0000 C   0  0  0  0  0  0  0  0  0  0  0  0
  -12.1680   -2.9265    0.0000 C   0  0  0  0  0  0  0  0  0  0  0  0
  -12.6316   -4.3531    0.0000 C   0  0  0  0  0  0  0  0  0  0  0  0
  -14.0988   -4.6649    0.0000 N   0  0  0  0  0  0  0  0  0  0  0  0
  -15.1025   -3.5502    0.0000 C   0  0  0  0  0  0  0  0  0  0  0  0
  -16.5697   -3.8621    0.0000 C   0  0  0  0  0  0  0  0  0  0  0  0
  -17.0332   -5.2887    0.0000 C   0  0  0  0  0  0  0  0  0  0  0  0
  -16.0295   -6.4034    0.0000 C   0  0  0  0  0  0  0  0  0  0  0  0
  -14.5623   -6.0915    0.0000 C   0  0  0  0  0  0  0  0  0  0  0  0
  -11.6279   -5.4678    0.0000 C   0  0  0  0  0  0  0  0  0  0  0  0
  -10.1607   -5.1559    0.0000 C   0  0  0  0  0  0  0  0  0  0  0  0
   -7.2262   -4.5322    0.0000 C   0  0  0  0  0  0  0  0  0  0  0  0
   -5.7590   -4.2203    0.0000 C   0  0  0  0  0  0  0  0  0  0  0  0
   -5.2955   -2.7937    0.0000 C   0  0  0  0  0  0  0  0  0  0  0  0
   -3.9251   -2.1836    0.0000 N   0  0  0  0  0  0  0  0  0  0  0  0
   -1.5000    0.0000    0.0000 C   0  0  0  0  0  0  0  0  0  0  0  0
   -0.7500   -1.2990    0.0000 C   0  0  0  0  0  0  0  0  0  0  0  0
   -0.7500   -3.8971    0.0000 C   0  0  0  0  0  0  0  0  0  0  0  0
   -1.5000   -5.1962    0.0000 C   0  0  0  0  0  0  0  0  0  0  0  0
   -3.7500   -9.0933    0.0000 C   0  0  0  0  0  0  0  0  0  0  0  0
   -5.2500   -9.0933    0.0000 C   0  0  0  0  0  0  0  0  0  0  0  0
  1  2  2  0
  2  3  1  0
  3  4  2  0
  4  5  1  0
  5  6  1  0
  6  7  1  0
  7  8  1  0
  8  9  1  0
  9 10  1  0
 10 11  1  0
 11 12  2  0
 12 13  1  0
 13 14  2  0
 14 15  1  0
 15 16  1  0
 16 17  2  0
 17 18  1  0
 18 19  2  0
 19 20  1  0
 20 21  2  0
 21 22  1  0
 22 23  1  0
 23 24  1  0
 24 25  1  0
 25 26  1  0
 26 27  1  0
 27 28  1  0
 28 29  1  0
 29 30  1  0
 30 31  1  0
 31 32  1  0
 26 33  1  0
 33 34  1  0
 22 35  2  0
 35 36  1  0
 36 37  2  0
 37 38  1  0
 17 39  1  0
 39 40  2  0
  9 41  1  0
 41 42  1  0
  4 43  1  0
 43 44  2  0
 44  1  1  0
 42  6  1  0
 40 11  1  0
 39 14  1  0
 38 18  1  0
 37 20  1  0
 34 23  1  0
 32 27  1  0
M  END
>  <Compound_ID>  (82) 
CHEMBL209753

>  <Active>  (82) 
1

>  <Smiles>  (82) 
c1ccc(CN2CCC(Nc3ccc4[nH]nc(-c5nc6cc(N7CCC(N8CCCCC8)CC7)ccc6[nH]5)c4c3)CC2)cc1

>  <canonical_smi>  (82) 
c1ccc(CN2CCC(Nc3ccc4[nH]nc(-c5nc6cc(N7CCC(N8CCCCC8)CC7)ccc6[nH]5)c4c3)CC2)cc1

>  <Set>  (82) 
G2 active

>  <Set_type>  (82) 
Train

>  <MW>  (82) 
588.8

>  <HBD>  (82) 
3

>  <HBA>  (82) 
6

>  <NRB>  (82) 
7

>  <NR>  (82) 
8

>  <NAR>  (82) 
5

>  <PSA>  (82) 
79.11

>  <Standard Type>  (82) 
nan

>  <Standard Relation>  (82) 
nan

>  <Standard Units>  (82) 
nan

>  <Standard Value>  (82) 
nan

>  <Assay ChEMBL ID>  (82) 
nan

>  <Assay Description>  (82) 
nan

>  <BAO Label>  (82) 
nan

$$$$

     RDKit          2D

 30 33  0  0  0  0  0  0  0  0999 V2000
   -3.0000   -2.5981    0.0000 C   0  0  0  0  0  0  0  0  0  0  0  0
   -1.5000   -2.5981    0.0000 C   0  0  0  0  0  0  0  0  0  0  0  0
   -0.7500   -3.8971    0.0000 C   0  0  0  0  0  0  0  0  0  0  0  0
    0.7500   -3.8971    0.0000 C   0  0  0  0  0  0  0  0  0  0  0  0
    1.5000   -5.1962    0.0000 C   0  0  0  0  0  0  0  0  0  0  0  0
    0.7500   -6.4952    0.0000 C   0  0  0  0  0  0  0  0  0  0  0  0
    1.5000   -7.7942    0.0000 C   0  0  0  0  0  0  0  0  0  0  0  0
    0.7500   -9.0933    0.0000 O   0  0  0  0  0  0  0  0  0  0  0  0
    3.0000   -7.7942    0.0000 C   0  0  0  0  0  0  0  0  0  0  0  0
    3.7500   -6.4952    0.0000 C   0  0  0  0  0  0  0  0  0  0  0  0
    3.0000   -5.1962    0.0000 C   0  0  0  0  0  0  0  0  0  0  0  0
    3.7500   -3.8971    0.0000 Cl  0  0  0  0  0  0  0  0  0  0  0  0
    1.5000   -2.5981    0.0000 C   0  0  0  0  0  0  0  0  0  0  0  0
    0.7500   -1.2990    0.0000 C   0  0  0  0  0  0  0  0  0  0  0  0
    1.5000    0.0000    0.0000 N   0  0  0  0  0  0  0  0  0  0  0  0
    0.7500    1.2990    0.0000 N   0  0  0  0  0  0  0  0  0  0  0  0
   -0.7500    1.2990    0.0000 C   0  0  0  0  0  0  0  0  0  0  0  0
   -1.5000    2.5981    0.0000 N   0  0  0  0  0  0  0  0  0  0  0  0
   -0.7500    3.8971    0.0000 C   0  0  0  0  0  0  0  0  0  0  0  0
    0.7500    3.8971    0.0000 C   0  0  0  0  0  0  0  0  0  0  0  0
    1.5000    5.1962    0.0000 C   0  0  0  0  0  0  0  0  0  0  0  0
    0.7500    6.4952    0.0000 C   0  0  0  0  0  0  0  0  0  0  0  0
    1.5000    7.7942    0.0000 S   0  0  0  0  0  0  0  0  0  0  0  0
    2.2500    9.0933    0.0000 N   0  0  0  0  0  0  0  0  0  0  0  0
    2.7990    7.0442    0.0000 O   0  0  0  0  0  0  0  0  0  0  0  0
    0.2010    8.5442    0.0000 O   0  0  0  0  0  0  0  0  0  0  0  0
   -0.7500    6.4952    0.0000 C   0  0  0  0  0  0  0  0  0  0  0  0
   -1.5000    5.1962    0.0000 C   0  0  0  0  0  0  0  0  0  0  0  0
   -1.5000    0.0000    0.0000 N   0  0  0  0  0  0  0  0  0  0  0  0
   -0.7500   -1.2990    0.0000 C   0  0  0  0  0  0  0  0  0  0  0  0
  1  2  1  0
  2  3  2  0
  3  4  1  0
  4  5  1  0
  5  6  2  0
  6  7  1  0
  7  8  1  0
  7  9  2  0
  9 10  1  0
 10 11  2  0
 11 12  1  0
  4 13  2  0
 13 14  1  0
 14 15  2  0
 15 16  1  0
 16 17  2  0
 17 18  1  0
 18 19  1  0
 19 20  2  0
 20 21  1  0
 21 22  2  0
 22 23  1  0
 23 24  1  0
 23 25  2  0
 23 26  2  0
 22 27  1  0
 27 28  2  0
 17 29  1  0
 29 30  2  0
 30  2  1  0
 11  5  1  0
 30 14  1  0
 28 19  1  0
M  END
>  <Compound_ID>  (83) 
CHEMBL249820

>  <Active>  (83) 
1

>  <Smiles>  (83) 
Cc1cc(-c2cc(O)ccc2Cl)cc2nnc(Nc3ccc(S(N)(=O)=O)cc3)nc12

>  <canonical_smi>  (83) 
Cc1cc(-c2cc(O)ccc2Cl)cc2nnc(Nc3ccc(S(N)(=O)=O)cc3)nc12

>  <Set>  (83) 
G2 active

>  <Set_type>  (83) 
Train

>  <MW>  (83) 
441.9

>  <HBD>  (83) 
3

>  <HBA>  (83) 
7

>  <NRB>  (83) 
4

>  <NR>  (83) 
4

>  <NAR>  (83) 
4

>  <PSA>  (83) 
131.09

>  <Standard Type>  (83) 
nan

>  <Standard Relation>  (83) 
nan

>  <Standard Units>  (83) 
nan

>  <Standard Value>  (83) 
nan

>  <Assay ChEMBL ID>  (83) 
nan

>  <Assay Description>  (83) 
nan

>  <BAO Label>  (83) 
nan

$$$$

     RDKit          2D

 40 44  0  0  0  0  0  0  0  0999 V2000
    3.0000    0.0000    0.0000 C   0  0  0  0  0  0  0  0  0  0  0  0
    1.5000    0.0000    0.0000 C   0  0  0  0  0  0  0  0  0  0  0  0
    0.7500   -1.2990    0.0000 C   0  0  0  0  0  0  0  0  0  0  0  0
   -0.7500   -1.2990    0.0000 C   0  0  0  0  0  0  0  0  0  0  0  0
   -1.5000    0.0000    0.0000 C   0  0  0  0  0  0  0  0  0  0  0  0
   -3.0000    0.0000    0.0000 N   0  0  0  0  0  0  0  0  0  0  0  0
   -3.8817   -1.2135    0.0000 N   0  0  0  0  0  0  0  0  0  0  0  0
   -5.3083   -0.7500    0.0000 C   0  0  0  0  0  0  0  0  0  0  0  0
   -6.5218   -1.6317    0.0000 C   0  0  0  0  0  0  0  0  0  0  0  0
   -7.4035   -0.4182    0.0000 C   0  0  0  0  0  0  0  0  0  0  0  0
   -5.6401   -2.8452    0.0000 C   0  0  0  0  0  0  0  0  0  0  0  0
   -7.7353   -2.5134    0.0000 C   0  0  0  0  0  0  0  0  0  0  0  0
   -5.3083    0.7500    0.0000 C   0  0  0  0  0  0  0  0  0  0  0  0
   -3.8817    1.2135    0.0000 C   0  0  0  0  0  0  0  0  0  0  0  0
   -3.4182    2.6401    0.0000 N   0  0  0  0  0  0  0  0  0  0  0  0
   -4.4218    3.7548    0.0000 C   0  0  0  0  0  0  0  0  0  0  0  0
   -5.8891    3.4430    0.0000 O   0  0  0  0  0  0  0  0  0  0  0  0
   -3.9583    5.1814    0.0000 N   0  0  0  0  0  0  0  0  0  0  0  0
   -4.9620    6.2961    0.0000 C   0  0  0  0  0  0  0  0  0  0  0  0
   -4.4985    7.7227    0.0000 C   0  0  0  0  0  0  0  0  0  0  0  0
   -5.5022    8.8374    0.0000 C   0  0  0  0  0  0  0  0  0  0  0  0
   -6.9694    8.5256    0.0000 C   0  0  0  0  0  0  0  0  0  0  0  0
   -7.9731    9.6403    0.0000 C   0  0  0  0  0  0  0  0  0  0  0  0
   -7.4329    7.0990    0.0000 C   0  0  0  0  0  0  0  0  0  0  0  0
   -8.9002    6.7871    0.0000 N   0  0  0  0  0  0  0  0  0  0  0  0
   -9.3637    5.3605    0.0000 C   0  0  0  0  0  0  0  0  0  0  0  0
   -8.3600    4.2458    0.0000 N   0  0  0  0  0  0  0  0  0  0  0  0
   -8.8235    2.8192    0.0000 C   0  0  0  0  0  0  0  0  0  0  0  0
  -10.2907    2.5074    0.0000 C   0  0  0  0  0  0  0  0  0  0  0  0
  -11.2944    3.6221    0.0000 C   0  0  0  0  0  0  0  0  0  0  0  0
  -12.7617    3.3102    0.0000 C   0  0  0  0  0  0  0  0  0  0  0  0
  -13.7653    4.4249    0.0000 C   0  0  0  0  0  0  0  0  0  0  0  0
  -15.2326    4.1131    0.0000 C   0  0  0  0  0  0  0  0  0  0  0  0
  -15.6961    2.6865    0.0000 C   0  0  0  0  0  0  0  0  0  0  0  0
  -14.6924    1.5718    0.0000 N   0  0  0  0  0  0  0  0  0  0  0  0
  -13.2252    1.8836    0.0000 C   0  0  0  0  0  0  0  0  0  0  0  0
  -10.8309    5.0487    0.0000 N   0  0  0  0  0  0  0  0  0  0  0  0
   -6.4292    5.9843    0.0000 C   0  0  0  0  0  0  0  0  0  0  0  0
   -0.7500    1.2990    0.0000 C   0  0  0  0  0  0  0  0  0  0  0  0
    0.7500    1.2990    0.0000 C   0  0  0  0  0  0  0  0  0  0  0  0
  1  2  1  0
  2  3  2  0
  3  4  1  0
  4  5  2  0
  5  6  1  0
  6  7  1  0
  7  8  2  0
  8  9  1  0
  9 10  1  0
  9 11  1  0
  9 12  1  0
  8 13  1  0
 13 14  2  0
 14 15  1  0
 15 16  1  0
 16 17  2  0
 16 18  1  0
 18 19  1  0
 19 20  2  0
 20 21  1  0
 21 22  2  0
 22 23  1  0
 22 24  1  0
 24 25  1  0
 25 26  1  0
 26 27  2  0
 27 28  1  0
 28 29  2  0
 29 30  1  0
 30 31  1  0
 31 32  2  0
 32 33  1  0
 33 34  2  0
 34 35  1  0
 35 36  2  0
 30 37  2  0
 24 38  2  0
  5 39  1  0
 39 40  2  0
 40  2  1  0
 14  6  1  0
 38 19  1  0
 37 26  1  0
 36 31  1  0
M  END
>  <Compound_ID>  (84) 
CHEMBL1213973

>  <Active>  (84) 
1

>  <Smiles>  (84) 
Cc1ccc(-n2nc(C(C)(C)C)cc2NC(=O)Nc2ccc(C)c(Nc3nccc(-c4cccnc4)n3)c2)cc1

>  <canonical_smi>  (84) 
Cc1ccc(-n2nc(C(C)(C)C)cc2NC(=O)Nc2ccc(C)c(Nc3nccc(-c4cccnc4)n3)c2)cc1

>  <Set>  (84) 
G2 active

>  <Set_type>  (84) 
Train

>  <MW>  (84) 
532.65

>  <HBD>  (84) 
3

>  <HBA>  (84) 
6

>  <NRB>  (84) 
6

>  <NR>  (84) 
5

>  <NAR>  (84) 
5

>  <PSA>  (84) 
109.65

>  <Standard Type>  (84) 
nan

>  <Standard Relation>  (84) 
nan

>  <Standard Units>  (84) 
nan

>  <Standard Value>  (84) 
nan

>  <Assay ChEMBL ID>  (84) 
nan

>  <Assay Description>  (84) 
nan

>  <BAO Label>  (84) 
nan

$$$$

     RDKit          2D

 39 43  0  0  0  0  0  0  0  0999 V2000
   -4.6904   -6.5871    0.0000 C   0  0  0  0  0  0  0  0  0  0  0  0
   -5.8051   -5.5834    0.0000 C   0  0  0  0  0  0  0  0  0  0  0  0
   -7.2317   -6.0469    0.0000 C   0  0  0  0  0  0  0  0  0  0  0  0
   -8.3464   -5.0433    0.0000 C   0  0  0  0  0  0  0  0  0  0  0  0
   -8.0346   -3.5760    0.0000 C   0  0  0  0  0  0  0  0  0  0  0  0
   -9.1493   -2.5723    0.0000 C   0  0  0  0  0  0  0  0  0  0  0  0
  -10.5759   -3.0359    0.0000 O   0  0  0  0  0  0  0  0  0  0  0  0
   -8.8374   -1.1051    0.0000 N   0  0  0  0  0  0  0  0  0  0  0  0
   -9.9521   -0.1014    0.0000 C   0  0  0  0  0  0  0  0  0  0  0  0
   -9.6403    1.3658    0.0000 C   0  0  0  0  0  0  0  0  0  0  0  0
  -10.7550    2.3695    0.0000 C   0  0  0  0  0  0  0  0  0  0  0  0
  -12.1816    1.9060    0.0000 C   0  0  0  0  0  0  0  0  0  0  0  0
  -13.2963    2.9097    0.0000 C   0  0  0  0  0  0  0  0  0  0  0  0
  -12.9844    4.3769    0.0000 N   0  0  0  0  0  0  0  0  0  0  0  0
  -11.5578    4.8404    0.0000 C   0  0  0  0  0  0  0  0  0  0  0  0
  -11.2460    6.3076    0.0000 C   0  0  0  0  0  0  0  0  0  0  0  0
  -12.3607    7.3113    0.0000 N   0  0  0  0  0  0  0  0  0  0  0  0
  -12.0488    8.7786    0.0000 C   0  0  0  0  0  0  0  0  0  0  0  0
  -13.7873    6.8478    0.0000 C   0  0  0  0  0  0  0  0  0  0  0  0
  -14.0992    5.3806    0.0000 C   0  0  0  0  0  0  0  0  0  0  0  0
  -12.4935    0.4388    0.0000 C   0  0  0  0  0  0  0  0  0  0  0  0
  -13.9200   -0.0248    0.0000 C   0  0  0  0  0  0  0  0  0  0  0  0
  -15.3466   -0.4883    0.0000 F   0  0  0  0  0  0  0  0  0  0  0  0
  -13.4565   -1.4514    0.0000 F   0  0  0  0  0  0  0  0  0  0  0  0
  -14.3836    1.4018    0.0000 F   0  0  0  0  0  0  0  0  0  0  0  0
  -11.3787   -0.5649    0.0000 C   0  0  0  0  0  0  0  0  0  0  0  0
   -6.6080   -3.1125    0.0000 C   0  0  0  0  0  0  0  0  0  0  0  0
   -5.4933   -4.1162    0.0000 C   0  0  0  0  0  0  0  0  0  0  0  0
   -4.0667   -3.6527    0.0000 C   0  0  0  0  0  0  0  0  0  0  0  0
   -2.6401   -3.1891    0.0000 C   0  0  0  0  0  0  0  0  0  0  0  0
   -1.2135   -2.7256    0.0000 C   0  0  0  0  0  0  0  0  0  0  0  0
   -0.0000   -3.6073    0.0000 C   0  0  0  0  0  0  0  0  0  0  0  0
    1.2135   -2.7256    0.0000 N   0  0  0  0  0  0  0  0  0  0  0  0
    0.7500   -1.2990    0.0000 C   0  0  0  0  0  0  0  0  0  0  0  0
    1.5000    0.0000    0.0000 C   0  0  0  0  0  0  0  0  0  0  0  0
    0.7500    1.2990    0.0000 C   0  0  0  0  0  0  0  0  0  0  0  0
   -0.7500    1.2990    0.0000 C   0  0  0  0  0  0  0  0  0  0  0  0
   -1.5000    0.0000    0.0000 C   0  0  0  0  0  0  0  0  0  0  0  0
   -0.7500   -1.2990    0.0000 N   0  0  0  0  0  0  0  0  0  0  0  0
  1  2  1  0
  2  3  2  0
  3  4  1  0
  4  5  2  0
  5  6  1  0
  6  7  2  0
  6  8  1  0
  8  9  1  0
  9 10  2  0
 10 11  1  0
 11 12  2  0
 12 13  1  0
 13 14  1  0
 14 15  1  0
 15 16  1  0
 16 17  1  0
 17 18  1  0
 17 19  1  0
 19 20  1  0
 12 21  1  0
 21 22  1  0
 22 23  1  0
 22 24  1  0
 22 25  1  0
 21 26  2  0
  5 27  1  0
 27 28  2  0
 28 29  1  0
 29 30  3  0
 30 31  1  0
 31 32  2  0
 32 33  1  0
 33 34  2  0
 34 35  1  0
 35 36  2  0
 36 37  1  0
 37 38  2  0
 38 39  1  0
 28  2  1  0
 39 31  1  0
 26  9  1  0
 39 34  1  0
 20 14  1  0
M  END
>  <Compound_ID>  (85) 
CHEMBL1171086

>  <Active>  (85) 
1

>  <Smiles>  (85) 
Cc1ccc(C(=O)Nc2ccc(CN3CCN(C)CC3)c(C(F)(F)F)c2)cc1C#Cc1cnc2ccccn12

>  <canonical_smi>  (85) 
Cc1ccc(C(=O)Nc2ccc(CN3CCN(C)CC3)c(C(F)(F)F)c2)cc1C#Cc1cnc2ccccn12

>  <Set>  (85) 
G2 active

>  <Set_type>  (85) 
Train

>  <MW>  (85) 
531.58

>  <HBD>  (85) 
1

>  <HBA>  (85) 
4

>  <NRB>  (85) 
4

>  <NR>  (85) 
5

>  <NAR>  (85) 
4

>  <PSA>  (85) 
52.88

>  <Standard Type>  (85) 
nan

>  <Standard Relation>  (85) 
nan

>  <Standard Units>  (85) 
nan

>  <Standard Value>  (85) 
nan

>  <Assay ChEMBL ID>  (85) 
nan

>  <Assay Description>  (85) 
nan

>  <BAO Label>  (85) 
nan

$$$$

     RDKit          2D

 39 43  0  0  0  0  0  0  0  0999 V2000
   -4.6904   -6.5871    0.0000 C   0  0  0  0  0  0  0  0  0  0  0  0
   -5.8051   -5.5834    0.0000 C   0  0  0  0  0  0  0  0  0  0  0  0
   -7.2317   -6.0469    0.0000 C   0  0  0  0  0  0  0  0  0  0  0  0
   -8.3464   -5.0433    0.0000 C   0  0  0  0  0  0  0  0  0  0  0  0
   -8.0346   -3.5760    0.0000 C   0  0  0  0  0  0  0  0  0  0  0  0
   -9.1493   -2.5723    0.0000 C   0  0  0  0  0  0  0  0  0  0  0  0
  -10.5759   -3.0359    0.0000 O   0  0  0  0  0  0  0  0  0  0  0  0
   -8.8374   -1.1051    0.0000 N   0  0  0  0  0  0  0  0  0  0  0  0
   -9.9521   -0.1014    0.0000 C   0  0  0  0  0  0  0  0  0  0  0  0
   -9.6403    1.3658    0.0000 C   0  0  0  0  0  0  0  0  0  0  0  0
  -10.7550    2.3695    0.0000 C   0  0  0  0  0  0  0  0  0  0  0  0
  -12.1816    1.9060    0.0000 C   0  0  0  0  0  0  0  0  0  0  0  0
  -13.2963    2.9097    0.0000 O   0  0  0  0  0  0  0  0  0  0  0  0
  -12.9844    4.3769    0.0000 C   0  0  0  0  0  0  0  0  0  0  0  0
  -11.5578    4.8404    0.0000 C   0  0  0  0  0  0  0  0  0  0  0  0
  -11.2460    6.3076    0.0000 C   0  0  0  0  0  0  0  0  0  0  0  0
  -12.3607    7.3113    0.0000 N   0  0  0  0  0  0  0  0  0  0  0  0
  -12.0488    8.7786    0.0000 C   0  0  0  0  0  0  0  0  0  0  0  0
  -13.7873    6.8478    0.0000 C   0  0  0  0  0  0  0  0  0  0  0  0
  -14.0992    5.3806    0.0000 C   0  0  0  0  0  0  0  0  0  0  0  0
  -12.4935    0.4388    0.0000 C   0  0  0  0  0  0  0  0  0  0  0  0
  -13.9200   -0.0248    0.0000 C   0  0  0  0  0  0  0  0  0  0  0  0
  -15.3466   -0.4883    0.0000 F   0  0  0  0  0  0  0  0  0  0  0  0
  -13.4565   -1.4514    0.0000 F   0  0  0  0  0  0  0  0  0  0  0  0
  -14.3836    1.4018    0.0000 F   0  0  0  0  0  0  0  0  0  0  0  0
  -11.3787   -0.5649    0.0000 C   0  0  0  0  0  0  0  0  0  0  0  0
   -6.6080   -3.1125    0.0000 C   0  0  0  0  0  0  0  0  0  0  0  0
   -5.4933   -4.1162    0.0000 C   0  0  0  0  0  0  0  0  0  0  0  0
   -4.0667   -3.6527    0.0000 C   0  0  0  0  0  0  0  0  0  0  0  0
   -2.6401   -3.1891    0.0000 C   0  0  0  0  0  0  0  0  0  0  0  0
   -1.2135   -2.7256    0.0000 C   0  0  0  0  0  0  0  0  0  0  0  0
   -0.0000   -3.6073    0.0000 C   0  0  0  0  0  0  0  0  0  0  0  0
    1.2135   -2.7256    0.0000 N   0  0  0  0  0  0  0  0  0  0  0  0
    0.7500   -1.2990    0.0000 C   0  0  0  0  0  0  0  0  0  0  0  0
    1.5000    0.0000    0.0000 C   0  0  0  0  0  0  0  0  0  0  0  0
    0.7500    1.2990    0.0000 C   0  0  0  0  0  0  0  0  0  0  0  0
   -0.7500    1.2990    0.0000 C   0  0  0  0  0  0  0  0  0  0  0  0
   -1.5000    0.0000    0.0000 C   0  0  0  0  0  0  0  0  0  0  0  0
   -0.7500   -1.2990    0.0000 N   0  0  0  0  0  0  0  0  0  0  0  0
  1  2  1  0
  2  3  2  0
  3  4  1  0
  4  5  2  0
  5  6  1  0
  6  7  2  0
  6  8  1  0
  8  9  1  0
  9 10  2  0
 10 11  1  0
 11 12  2  0
 12 13  1  0
 13 14  1  0
 14 15  1  0
 15 16  1  0
 16 17  1  0
 17 18  1  0
 17 19  1  0
 19 20  1  0
 12 21  1  0
 21 22  1  0
 22 23  1  0
 22 24  1  0
 22 25  1  0
 21 26  2  0
  5 27  1  0
 27 28  2  0
 28 29  1  0
 29 30  3  0
 30 31  1  0
 31 32  2  0
 32 33  1  0
 33 34  2  0
 34 35  1  0
 35 36  2  0
 36 37  1  0
 37 38  2  0
 38 39  1  0
 28  2  1  0
 39 31  1  0
 26  9  1  0
 39 34  1  0
 20 14  1  0
M  END
>  <Compound_ID>  (86) 
CHEMBL1169881

>  <Active>  (86) 
1

>  <Smiles>  (86) 
Cc1ccc(C(=O)Nc2ccc(OC3CCN(C)CC3)c(C(F)(F)F)c2)cc1C#Cc1cnc2ccccn12

>  <canonical_smi>  (86) 
Cc1ccc(C(=O)Nc2ccc(OC3CCN(C)CC3)c(C(F)(F)F)c2)cc1C#Cc1cnc2ccccn12

>  <Set>  (86) 
G2 active

>  <Set_type>  (86) 
Train

>  <MW>  (86) 
532.57

>  <HBD>  (86) 
1

>  <HBA>  (86) 
4

>  <NRB>  (86) 
4

>  <NR>  (86) 
5

>  <NAR>  (86) 
4

>  <PSA>  (86) 
58.87

>  <Standard Type>  (86) 
nan

>  <Standard Relation>  (86) 
nan

>  <Standard Units>  (86) 
nan

>  <Standard Value>  (86) 
nan

>  <Assay ChEMBL ID>  (86) 
nan

>  <Assay Description>  (86) 
nan

>  <BAO Label>  (86) 
nan

$$$$

     RDKit          2D

 22 25  0  0  0  0  0  0  0  0999 V2000
    3.0000    0.0000    0.0000 N   0  0  0  0  0  0  0  0  0  0  0  0
    1.5000    0.0000    0.0000 C   0  0  0  0  0  0  0  0  0  0  0  0
    0.7500   -1.2990    0.0000 N   0  0  0  0  0  0  0  0  0  0  0  0
   -0.7500   -1.2990    0.0000 C   0  0  0  0  0  0  0  0  0  0  0  0
   -1.5000    0.0000    0.0000 N   0  0  0  0  0  0  0  0  0  0  0  0
   -0.7500    1.2990    0.0000 C   0  0  0  0  0  0  0  0  0  0  0  0
    0.7500    1.2990    0.0000 C   0  0  0  0  0  0  0  0  0  0  0  0
    1.2135    2.7256    0.0000 C   0  0  0  0  0  0  0  0  0  0  0  0
    2.6401    3.1891    0.0000 C   0  0  0  0  0  0  0  0  0  0  0  0
    3.7548    2.1855    0.0000 C   0  0  0  0  0  0  0  0  0  0  0  0
    5.1814    2.6490    0.0000 C   0  0  0  0  0  0  0  0  0  0  0  0
    5.4933    4.1162    0.0000 C   0  0  0  0  0  0  0  0  0  0  0  0
    4.3786    5.1199    0.0000 C   0  0  0  0  0  0  0  0  0  0  0  0
    4.6904    6.5871    0.0000 O   0  0  0  0  0  0  0  0  0  0  0  0
    2.9520    4.6564    0.0000 C   0  0  0  0  0  0  0  0  0  0  0  0
   -0.0000    3.6073    0.0000 C   0  0  0  0  0  0  0  0  0  0  0  0
   -1.2135    2.7256    0.0000 N   0  0  0  0  0  0  0  0  0  0  0  0
   -2.6401    3.1891    0.0000 C   0  0  0  0  0  0  0  0  0  0  0  0
   -3.8536    2.3075    0.0000 C   0  0  0  0  0  0  0  0  0  0  0  0
   -5.0672    3.1891    0.0000 C   0  0  0  0  0  0  0  0  0  0  0  0
   -4.6036    4.6157    0.0000 C   0  0  0  0  0  0  0  0  0  0  0  0
   -3.1036    4.6157    0.0000 C   0  0  0  0  0  0  0  0  0  0  0  0
  1  2  1  0
  2  3  2  0
  3  4  1  0
  4  5  2  0
  5  6  1  0
  6  7  2  0
  7  8  1  0
  8  9  1  0
  9 10  2  0
 10 11  1  0
 11 12  2  0
 12 13  1  0
 13 14  1  0
 13 15  2  0
  8 16  2  0
 16 17  1  0
 17 18  1  0
 18 19  1  0
 19 20  1  0
 20 21  1  0
 21 22  1  0
  7  2  1  0
 15  9  1  0
 22 18  1  0
 17  6  1  0
M  END
>  <Compound_ID>  (87) 
CHEMBL169390

>  <Active>  (87) 
1

>  <Smiles>  (87) 
Nc1ncnc2c1c(-c1cccc(O)c1)cn2C1CCCC1

>  <canonical_smi>  (87) 
Nc1ncnc2c1c(-c1cccc(O)c1)cn2C1CCCC1

>  <Set>  (87) 
G2 active

>  <Set_type>  (87) 
Train

>  <MW>  (87) 
294.36

>  <HBD>  (87) 
2

>  <HBA>  (87) 
4

>  <NRB>  (87) 
2

>  <NR>  (87) 
4

>  <NAR>  (87) 
3

>  <PSA>  (87) 
76.96

>  <Standard Type>  (87) 
nan

>  <Standard Relation>  (87) 
nan

>  <Standard Units>  (87) 
nan

>  <Standard Value>  (87) 
nan

>  <Assay ChEMBL ID>  (87) 
nan

>  <Assay Description>  (87) 
nan

>  <BAO Label>  (87) 
nan

$$$$

     RDKit          2D

 42 46  0  0  0  0  0  0  0  0999 V2000
    3.0000    0.0000    0.0000 C   0  0  0  0  0  0  0  0  0  0  0  0
    1.5000    0.0000    0.0000 C   0  0  0  0  0  0  0  0  0  0  0  0
    0.7500   -1.2990    0.0000 C   0  0  0  0  0  0  0  0  0  0  0  0
   -0.7500   -1.2990    0.0000 C   0  0  0  0  0  0  0  0  0  0  0  0
   -1.5000    0.0000    0.0000 C   0  0  0  0  0  0  0  0  0  0  0  0
   -3.0000    0.0000    0.0000 N   0  0  0  0  0  0  0  0  0  0  0  0
   -3.7500    1.2990    0.0000 C   0  0  0  0  0  0  0  0  0  0  0  0
   -3.0000    2.5981    0.0000 O   0  0  0  0  0  0  0  0  0  0  0  0
   -5.2500    1.2990    0.0000 C   0  0  0  0  0  0  0  0  0  0  0  0
   -6.0000    2.5981    0.0000 C   0  0  0  0  0  0  0  0  0  0  0  0
   -7.5000    2.5981    0.0000 C   0  0  0  0  0  0  0  0  0  0  0  0
   -8.2500    1.2990    0.0000 C   0  0  0  0  0  0  0  0  0  0  0  0
   -9.7500    1.2990    0.0000 C   0  0  0  0  0  0  0  0  0  0  0  0
  -10.5000    2.5981    0.0000 N   0  0  0  0  0  0  0  0  0  0  0  0
  -11.9918    2.7549    0.0000 C   0  0  0  0  0  0  0  0  0  0  0  0
  -12.3037    4.2221    0.0000 C   0  0  0  0  0  0  0  0  0  0  0  0
  -11.0046    4.9721    0.0000 C   0  0  0  0  0  0  0  0  0  0  0  0
  -10.8478    6.4639    0.0000 N   0  0  0  0  0  0  0  0  0  0  0  0
   -9.4775    7.0740    0.0000 C   0  0  0  0  0  0  0  0  0  0  0  0
  -12.0613    7.3456    0.0000 C   0  0  0  0  0  0  0  0  0  0  0  0
   -9.8899    3.9684    0.0000 C   0  0  0  0  0  0  0  0  0  0  0  0
   -7.5000    0.0000    0.0000 C   0  0  0  0  0  0  0  0  0  0  0  0
   -8.2500   -1.2990    0.0000 C   0  0  0  0  0  0  0  0  0  0  0  0
   -9.0000   -2.5981    0.0000 F   0  0  0  0  0  0  0  0  0  0  0  0
   -6.9510   -2.0490    0.0000 F   0  0  0  0  0  0  0  0  0  0  0  0
   -9.5490   -0.5490    0.0000 F   0  0  0  0  0  0  0  0  0  0  0  0
   -6.0000    0.0000    0.0000 C   0  0  0  0  0  0  0  0  0  0  0  0
   -0.7500    1.2990    0.0000 C   0  0  0  0  0  0  0  0  0  0  0  0
    0.7500    1.2990    0.0000 C   0  0  0  0  0  0  0  0  0  0  0  0
    1.5000    2.5981    0.0000 N   0  0  0  0  0  0  0  0  0  0  0  0
    0.7500    3.8971    0.0000 C   0  0  0  0  0  0  0  0  0  0  0  0
    1.5000    5.1962    0.0000 N   0  0  0  0  0  0  0  0  0  0  0  0
    0.7500    6.4952    0.0000 C   0  0  0  0  0  0  0  0  0  0  0  0
   -0.7500    6.4952    0.0000 C   0  0  0  0  0  0  0  0  0  0  0  0
   -1.5000    5.1962    0.0000 C   0  0  0  0  0  0  0  0  0  0  0  0
   -3.0000    5.1962    0.0000 C   0  0  0  0  0  0  0  0  0  0  0  0
   -3.7500    6.4952    0.0000 C   0  0  0  0  0  0  0  0  0  0  0  0
   -5.2500    6.4952    0.0000 N   0  0  0  0  0  0  0  0  0  0  0  0
   -6.0000    5.1962    0.0000 C   0  0  0  0  0  0  0  0  0  0  0  0
   -5.2500    3.8971    0.0000 N   0  0  0  0  0  0  0  0  0  0  0  0
   -3.7500    3.8971    0.0000 C   0  0  0  0  0  0  0  0  0  0  0  0
   -0.7500    3.8971    0.0000 N   0  0  0  0  0  0  0  0  0  0  0  0
  1  2  1  0
  2  3  2  0
  3  4  1  0
  4  5  2  0
  5  6  1  0
  6  7  1  0
  7  8  2  0
  7  9  1  0
  9 10  2  0
 10 11  1  0
 11 12  2  0
 12 13  1  0
 13 14  1  0
 14 15  1  0
 15 16  1  0
 16 17  1  0
 17 18  1  1
 18 19  1  0
 18 20  1  0
 17 21  1  0
 12 22  1  0
 22 23  1  0
 23 24  1  0
 23 25  1  0
 23 26  1  0
 22 27  2  0
  5 28  1  0
 28 29  2  0
 29 30  1  0
 30 31  1  0
 31 32  2  0
 32 33  1  0
 33 34  2  0
 34 35  1  0
 35 36  1  0
 36 37  2  0
 37 38  1  0
 38 39  2  0
 39 40  1  0
 40 41  2  0
 35 42  2  0
 29  2  1  0
 42 31  1  0
 27  9  1  0
 41 36  1  0
 21 14  1  0
M  END
>  <Compound_ID>  (88) 
CHEMBL536073

>  <Active>  (88) 
1

>  <Smiles>  (88) 
Cc1ccc(NC(=O)c2ccc(CN3CC[C@@H](N(C)C)C3)c(C(F)(F)F)c2)cc1Nc1nccc(-c2cncnc2)n1

>  <canonical_smi>  (88) 
Cc1ccc(NC(=O)c2ccc(CN3CC[C@@H](N(C)C)C3)c(C(F)(F)F)c2)cc1Nc1nccc(-c2cncnc2)n1

>  <Set>  (88) 
G2 active

>  <Set_type>  (88) 
Train

>  <MW>  (88) 
576.63

>  <HBD>  (88) 
2

>  <HBA>  (88) 
8

>  <NRB>  (88) 
8

>  <NR>  (88) 
5

>  <NAR>  (88) 
4

>  <PSA>  (88) 
99.17

>  <Standard Type>  (88) 
nan

>  <Standard Relation>  (88) 
nan

>  <Standard Units>  (88) 
nan

>  <Standard Value>  (88) 
nan

>  <Assay ChEMBL ID>  (88) 
nan

>  <Assay Description>  (88) 
nan

>  <BAO Label>  (88) 
nan

$$$$

     RDKit          2D

 40 45  0  0  0  0  0  0  0  0999 V2000
   -8.3617   -0.6987    0.0000 C   0  0  0  0  0  0  0  0  0  0  0  0
   -8.0498    0.7685    0.0000 C   0  0  0  0  0  0  0  0  0  0  0  0
   -9.1645    1.7722    0.0000 C   0  0  0  0  0  0  0  0  0  0  0  0
   -8.8527    3.2394    0.0000 C   0  0  0  0  0  0  0  0  0  0  0  0
   -7.4261    3.7029    0.0000 C   0  0  0  0  0  0  0  0  0  0  0  0
   -7.1142    5.1701    0.0000 C   0  0  0  0  0  0  0  0  0  0  0  0
   -8.2289    6.1738    0.0000 O   0  0  0  0  0  0  0  0  0  0  0  0
   -5.6876    5.6337    0.0000 N   0  0  0  0  0  0  0  0  0  0  0  0
   -5.3758    7.1009    0.0000 C   0  0  0  0  0  0  0  0  0  0  0  0
   -3.9492    7.5644    0.0000 C   0  0  0  0  0  0  0  0  0  0  0  0
   -3.6373    9.0316    0.0000 C   0  0  0  0  0  0  0  0  0  0  0  0
   -2.2107    9.4952    0.0000 N   0  0  0  0  0  0  0  0  0  0  0  0
   -1.7472   10.9217    0.0000 C   0  0  0  0  0  0  0  0  0  0  0  0
   -0.2472   10.9217    0.0000 C   0  0  0  0  0  0  0  0  0  0  0  0
    0.2163    9.4952    0.0000 N   0  0  0  0  0  0  0  0  0  0  0  0
   -0.9972    8.6135    0.0000 C   0  0  0  0  0  0  0  0  0  0  0  0
   -4.7520   10.0353    0.0000 C   0  0  0  0  0  0  0  0  0  0  0  0
   -6.1786    9.5718    0.0000 C   0  0  0  0  0  0  0  0  0  0  0  0
   -7.2933   10.5755    0.0000 C   0  0  0  0  0  0  0  0  0  0  0  0
   -8.4081   11.5792    0.0000 F   0  0  0  0  0  0  0  0  0  0  0  0
   -6.2896   11.6902    0.0000 F   0  0  0  0  0  0  0  0  0  0  0  0
   -8.2970    9.4608    0.0000 F   0  0  0  0  0  0  0  0  0  0  0  0
   -6.4905    8.1046    0.0000 C   0  0  0  0  0  0  0  0  0  0  0  0
   -6.3114    2.6992    0.0000 C   0  0  0  0  0  0  0  0  0  0  0  0
   -6.6232    1.2320    0.0000 C   0  0  0  0  0  0  0  0  0  0  0  0
   -5.5085    0.2283    0.0000 C   0  0  0  0  0  0  0  0  0  0  0  0
   -4.0819    0.6918    0.0000 C   0  0  0  0  0  0  0  0  0  0  0  0
   -2.9672   -0.3119    0.0000 N   0  0  0  0  0  0  0  0  0  0  0  0
   -3.1240   -1.8037    0.0000 C   0  0  0  0  0  0  0  0  0  0  0  0
   -1.7537   -2.4138    0.0000 N   0  0  0  0  0  0  0  0  0  0  0  0
   -0.7500   -1.2990    0.0000 C   0  0  0  0  0  0  0  0  0  0  0  0
    0.7500   -1.2990    0.0000 C   0  0  0  0  0  0  0  0  0  0  0  0
    1.5000   -2.5981    0.0000 N   0  0  0  0  0  0  0  0  0  0  0  0
    3.0000   -2.5981    0.0000 C   0  0  0  0  0  0  0  0  0  0  0  0
    4.2990   -1.8481    0.0000 C   0  0  0  0  0  0  0  0  0  0  0  0
    4.2990   -3.3481    0.0000 C   0  0  0  0  0  0  0  0  0  0  0  0
    1.5000    0.0000    0.0000 N   0  0  0  0  0  0  0  0  0  0  0  0
    0.7500    1.2990    0.0000 C   0  0  0  0  0  0  0  0  0  0  0  0
   -0.7500    1.2990    0.0000 N   0  0  0  0  0  0  0  0  0  0  0  0
   -1.5000    0.0000    0.0000 C   0  0  0  0  0  0  0  0  0  0  0  0
  1  2  1  0
  2  3  2  0
  3  4  1  0
  4  5  2  0
  5  6  1  0
  6  7  2  0
  6  8  1  0
  8  9  1  0
  9 10  2  0
 10 11  1  0
 11 12  1  0
 12 13  1  0
 13 14  2  0
 14 15  1  0
 15 16  2  0
 11 17  2  0
 17 18  1  0
 18 19  1  0
 19 20  1  0
 19 21  1  0
 19 22  1  0
 18 23  2  0
  5 24  1  0
 24 25  2  0
 25 26  1  0
 26 27  2  0
 27 28  1  0
 28 29  1  0
 29 30  2  0
 30 31  1  0
 31 32  2  0
 32 33  1  0
 33 34  1  0
 34 35  1  0
 35 36  1  0
 32 37  1  0
 37 38  2  0
 38 39  1  0
 39 40  2  0
 25  2  1  0
 40 28  1  0
 23  9  1  0
 40 31  1  0
 16 12  1  0
 36 34  1  0
M  END
>  <Compound_ID>  (89) 
CHEMBL559826

>  <Active>  (89) 
1

>  <Smiles>  (89) 
Cc1ccc(C(=O)Nc2cc(-n3ccnc3)cc(C(F)(F)F)c2)cc1/C=C/n1cnc2c(NC3CC3)ncnc21

>  <canonical_smi>  (89) 
Cc1ccc(C(=O)Nc2cc(-n3ccnc3)cc(C(F)(F)F)c2)cc1/C=C/n1cnc2c(NC3CC3)ncnc21

>  <Set>  (89) 
G2 active

>  <Set_type>  (89) 
Train

>  <MW>  (89) 
544.54

>  <HBD>  (89) 
2

>  <HBA>  (89) 
6

>  <NRB>  (89) 
7

>  <NR>  (89) 
6

>  <NAR>  (89) 
5

>  <PSA>  (89) 
102.55

>  <Standard Type>  (89) 
nan

>  <Standard Relation>  (89) 
nan

>  <Standard Units>  (89) 
nan

>  <Standard Value>  (89) 
nan

>  <Assay ChEMBL ID>  (89) 
nan

>  <Assay Description>  (89) 
nan

>  <BAO Label>  (89) 
nan

$$$$

     RDKit          2D

 22 24  0  0  0  0  0  0  0  0999 V2000
    3.7500   -1.2990    0.0000 C   0  0  0  0  0  0  0  0  0  0  0  0
    3.0000    0.0000    0.0000 O   0  0  0  0  0  0  0  0  0  0  0  0
    1.5000    0.0000    0.0000 C   0  0  0  0  0  0  0  0  0  0  0  0
    0.7500   -1.2990    0.0000 C   0  0  0  0  0  0  0  0  0  0  0  0
   -0.7500   -1.2990    0.0000 C   0  0  0  0  0  0  0  0  0  0  0  0
   -1.5000    0.0000    0.0000 C   0  0  0  0  0  0  0  0  0  0  0  0
   -3.0000    0.0000    0.0000 C   0  0  0  0  0  0  0  0  0  0  0  0
   -3.7500    1.2990    0.0000 C   0  0  0  0  0  0  0  0  0  0  0  0
   -5.2418    1.4558    0.0000 C   0  0  0  0  0  0  0  0  0  0  0  0
   -5.5537    2.9231    0.0000 N   0  0  0  0  0  0  0  0  0  0  0  0
   -4.2546    3.6731    0.0000 C   0  0  0  0  0  0  0  0  0  0  0  0
   -4.0978    5.1648    0.0000 N   0  0  0  0  0  0  0  0  0  0  0  0
   -2.7275    5.7749    0.0000 C   0  0  0  0  0  0  0  0  0  0  0  0
   -1.5140    4.8933    0.0000 O   0  0  0  0  0  0  0  0  0  0  0  0
   -2.5707    7.2667    0.0000 C   0  0  0  0  0  0  0  0  0  0  0  0
   -3.6854    8.2704    0.0000 C   0  0  0  0  0  0  0  0  0  0  0  0
   -3.0753    9.6407    0.0000 C   0  0  0  0  0  0  0  0  0  0  0  0
   -1.5835    9.4839    0.0000 C   0  0  0  0  0  0  0  0  0  0  0  0
   -1.2717    8.0167    0.0000 S   0  0  0  0  0  0  0  0  0  0  0  0
   -3.1399    2.6694    0.0000 S   0  0  0  0  0  0  0  0  0  0  0  0
   -0.7500    1.2990    0.0000 C   0  0  0  0  0  0  0  0  0  0  0  0
    0.7500    1.2990    0.0000 C   0  0  0  0  0  0  0  0  0  0  0  0
  1  2  1  0
  2  3  1  0
  3  4  2  0
  4  5  1  0
  5  6  2  0
  6  7  1  0
  7  8  1  0
  8  9  2  0
  9 10  1  0
 10 11  2  0
 11 12  1  0
 12 13  1  0
 13 14  2  0
 13 15  1  0
 15 16  2  0
 16 17  1  0
 17 18  2  0
 18 19  1  0
 11 20  1  0
  6 21  1  0
 21 22  2  0
 22  3  1  0
 20  8  1  0
 19 15  1  0
M  END
>  <Compound_ID>  (90) 
CHEMBL476304

>  <Active>  (90) 
1

>  <Smiles>  (90) 
COc1ccc(Cc2cnc(NC(=O)c3cccs3)s2)cc1

>  <canonical_smi>  (90) 
COc1ccc(Cc2cnc(NC(=O)c3cccs3)s2)cc1

>  <Set>  (90) 
G2 active

>  <Set_type>  (90) 
Train

>  <MW>  (90) 
330.43

>  <HBD>  (90) 
1

>  <HBA>  (90) 
3

>  <NRB>  (90) 
5

>  <NR>  (90) 
3

>  <NAR>  (90) 
3

>  <PSA>  (90) 
51.22

>  <Standard Type>  (90) 
nan

>  <Standard Relation>  (90) 
nan

>  <Standard Units>  (90) 
nan

>  <Standard Value>  (90) 
nan

>  <Assay ChEMBL ID>  (90) 
nan

>  <Assay Description>  (90) 
nan

>  <BAO Label>  (90) 
nan

$$$$

     RDKit          2D

 31 35  0  0  0  0  0  0  0  0999 V2000
    7.5000   -1.0981    0.0000 C   0  0  0  0  0  0  0  0  0  0  0  0
    7.5000   -2.5981    0.0000 P   0  0  0  0  0  0  0  0  0  0  0  0
    7.5000   -4.0981    0.0000 C   0  0  0  0  0  0  0  0  0  0  0  0
    9.0000   -2.5981    0.0000 O   0  0  0  0  0  0  0  0  0  0  0  0
    6.0000   -2.5981    0.0000 C   0  0  0  0  0  0  0  0  0  0  0  0
    5.2500   -3.8971    0.0000 C   0  0  0  0  0  0  0  0  0  0  0  0
    3.7500   -3.8971    0.0000 C   0  0  0  0  0  0  0  0  0  0  0  0
    3.0000   -2.5981    0.0000 C   0  0  0  0  0  0  0  0  0  0  0  0
    1.5000   -2.5981    0.0000 N   0  0  0  0  0  0  0  0  0  0  0  0
    0.7500   -1.2990    0.0000 C   0  0  0  0  0  0  0  0  0  0  0  0
    1.5000    0.0000    0.0000 N   0  0  0  0  0  0  0  0  0  0  0  0
    0.7500    1.2990    0.0000 C   0  0  0  0  0  0  0  0  0  0  0  0
   -0.7500    1.2990    0.0000 N   0  0  0  0  0  0  0  0  0  0  0  0
   -1.5000    0.0000    0.0000 C   0  0  0  0  0  0  0  0  0  0  0  0
   -0.7500   -1.2990    0.0000 C   0  0  0  0  0  0  0  0  0  0  0  0
   -1.7537   -2.4138    0.0000 N   0  0  0  0  0  0  0  0  0  0  0  0
   -3.1240   -1.8037    0.0000 C   0  0  0  0  0  0  0  0  0  0  0  0
   -2.9672   -0.3119    0.0000 N   0  0  0  0  0  0  0  0  0  0  0  0
   -4.0819    0.6918    0.0000 C   0  0  0  0  0  0  0  0  0  0  0  0
   -5.5085    0.2283    0.0000 C   0  0  0  0  0  0  0  0  0  0  0  0
   -6.6232    1.2320    0.0000 C   0  0  0  0  0  0  0  0  0  0  0  0
   -6.3114    2.6992    0.0000 C   0  0  0  0  0  0  0  0  0  0  0  0
   -7.4261    3.7029    0.0000 C   0  0  0  0  0  0  0  0  0  0  0  0
   -8.8527    3.2394    0.0000 C   0  0  0  0  0  0  0  0  0  0  0  0
   -9.1645    1.7722    0.0000 C   0  0  0  0  0  0  0  0  0  0  0  0
  -10.4636    1.0222    0.0000 N   0  0  0  0  0  0  0  0  0  0  0  0
  -10.1517   -0.4451    0.0000 C   0  0  0  0  0  0  0  0  0  0  0  0
   -8.6599   -0.6018    0.0000 C   0  0  0  0  0  0  0  0  0  0  0  0
   -8.0498    0.7685    0.0000 C   0  0  0  0  0  0  0  0  0  0  0  0
    3.7500   -1.2990    0.0000 C   0  0  0  0  0  0  0  0  0  0  0  0
    5.2500   -1.2990    0.0000 C   0  0  0  0  0  0  0  0  0  0  0  0
  1  2  1  0
  2  3  1  0
  2  4  2  0
  2  5  1  0
  5  6  2  0
  6  7  1  0
  7  8  2  0
  8  9  1  0
  9 10  1  0
 10 11  2  0
 11 12  1  0
 12 13  2  0
 13 14  1  0
 14 15  2  0
 15 16  1  0
 16 17  2  0
 17 18  1  0
 18 19  1  0
 19 20  2  0
 20 21  1  0
 21 22  2  0
 22 23  1  0
 23 24  2  0
 24 25  1  0
 25 26  1  0
 26 27  1  0
 27 28  2  0
 28 29  1  0
  8 30  1  0
 30 31  2  0
 31  5  1  0
 15 10  1  0
 29 21  1  0
 18 14  1  0
 29 25  2  0
M  END
>  <Compound_ID>  (91) 
CHEMBL454868

>  <Active>  (91) 
1

>  <Smiles>  (91) 
CP(C)(=O)c1ccc(Nc2ncnc3c2ncn3/C=C/c2cccc3[nH]ccc23)cc1

>  <canonical_smi>  (91) 
CP(C)(=O)c1ccc(Nc2ncnc3c2ncn3/C=C/c2cccc3[nH]ccc23)cc1

>  <Set>  (91) 
G2 active

>  <Set_type>  (91) 
Train

>  <MW>  (91) 
428.44

>  <HBD>  (91) 
2

>  <HBA>  (91) 
5

>  <NRB>  (91) 
5

>  <NR>  (91) 
5

>  <NAR>  (91) 
5

>  <PSA>  (91) 
88.49

>  <Standard Type>  (91) 
nan

>  <Standard Relation>  (91) 
nan

>  <Standard Units>  (91) 
nan

>  <Standard Value>  (91) 
nan

>  <Assay ChEMBL ID>  (91) 
nan

>  <Assay Description>  (91) 
nan

>  <BAO Label>  (91) 
nan

$$$$

     RDKit          2D

 38 41  0  0  0  0  0  0  0  0999 V2000
    3.0000    0.0000    0.0000 C   0  0  0  0  0  0  0  0  0  0  0  0
    1.5000    0.0000    0.0000 C   0  0  0  0  0  0  0  0  0  0  0  0
    0.7500   -1.2990    0.0000 C   0  0  0  0  0  0  0  0  0  0  0  0
   -0.7500   -1.2990    0.0000 C   0  0  0  0  0  0  0  0  0  0  0  0
   -1.5000    0.0000    0.0000 C   0  0  0  0  0  0  0  0  0  0  0  0
   -3.0000    0.0000    0.0000 N   0  0  0  0  0  0  0  0  0  0  0  0
   -3.7500    1.2990    0.0000 C   0  0  0  0  0  0  0  0  0  0  0  0
   -3.0000    2.5981    0.0000 O   0  0  0  0  0  0  0  0  0  0  0  0
   -5.2500    1.2990    0.0000 C   0  0  0  0  0  0  0  0  0  0  0  0
   -6.0000    2.5981    0.0000 C   0  0  0  0  0  0  0  0  0  0  0  0
   -7.5000    2.5981    0.0000 C   0  0  0  0  0  0  0  0  0  0  0  0
   -8.2500    1.2990    0.0000 C   0  0  0  0  0  0  0  0  0  0  0  0
   -9.7500    1.2990    0.0000 N   0  0  0  0  0  0  0  0  0  0  0  0
  -10.5000    2.5981    0.0000 N   0  0  0  0  0  0  0  0  0  0  0  0
  -12.0000    2.5981    0.0000 N   0  0  0  0  0  0  0  0  0  0  0  0
  -12.7500    3.8971    0.0000 C   0  0  0  0  0  0  0  0  0  0  0  0
  -12.7500    1.2990    0.0000 C   0  0  0  0  0  0  0  0  0  0  0  0
   -7.5000    0.0000    0.0000 C   0  0  0  0  0  0  0  0  0  0  0  0
   -8.2500   -1.2990    0.0000 C   0  0  0  0  0  0  0  0  0  0  0  0
   -9.0000   -2.5981    0.0000 F   0  0  0  0  0  0  0  0  0  0  0  0
   -6.9510   -2.0490    0.0000 F   0  0  0  0  0  0  0  0  0  0  0  0
   -9.5490   -0.5490    0.0000 F   0  0  0  0  0  0  0  0  0  0  0  0
   -6.0000    0.0000    0.0000 C   0  0  0  0  0  0  0  0  0  0  0  0
   -0.7500    1.2990    0.0000 C   0  0  0  0  0  0  0  0  0  0  0  0
    0.7500    1.2990    0.0000 C   0  0  0  0  0  0  0  0  0  0  0  0
    1.5000    2.5981    0.0000 N   0  0  0  0  0  0  0  0  0  0  0  0
    0.7500    3.8971    0.0000 C   0  0  0  0  0  0  0  0  0  0  0  0
    1.5000    5.1962    0.0000 N   0  0  0  0  0  0  0  0  0  0  0  0
    0.7500    6.4952    0.0000 C   0  0  0  0  0  0  0  0  0  0  0  0
   -0.7500    6.4952    0.0000 C   0  0  0  0  0  0  0  0  0  0  0  0
   -1.5000    5.1962    0.0000 C   0  0  0  0  0  0  0  0  0  0  0  0
   -3.0000    5.1962    0.0000 C   0  0  0  0  0  0  0  0  0  0  0  0
   -3.7500    6.4952    0.0000 C   0  0  0  0  0  0  0  0  0  0  0  0
   -5.2500    6.4952    0.0000 C   0  0  0  0  0  0  0  0  0  0  0  0
   -6.0000    5.1962    0.0000 C   0  0  0  0  0  0  0  0  0  0  0  0
   -5.2500    3.8971    0.0000 N   0  0  0  0  0  0  0  0  0  0  0  0
   -3.7500    3.8971    0.0000 C   0  0  0  0  0  0  0  0  0  0  0  0
   -0.7500    3.8971    0.0000 N   0  0  0  0  0  0  0  0  0  0  0  0
  1  2  1  0
  2  3  2  0
  3  4  1  0
  4  5  2  0
  5  6  1  0
  6  7  1  0
  7  8  2  0
  7  9  1  0
  9 10  2  0
 10 11  1  0
 11 12  2  0
 12 13  1  0
 13 14  2  3
 14 15  1  0
 15 16  1  0
 15 17  1  0
 12 18  1  0
 18 19  1  0
 19 20  1  0
 19 21  1  0
 19 22  1  0
 18 23  2  0
  5 24  1  0
 24 25  2  0
 25 26  1  0
 26 27  1  0
 27 28  2  0
 28 29  1  0
 29 30  2  0
 30 31  1  0
 31 32  1  0
 32 33  2  0
 33 34  1  0
 34 35  2  0
 35 36  1  0
 36 37  2  0
 31 38  2  0
 25  2  1  0
 38 27  1  0
 23  9  1  0
 37 32  1  0
M  END
>  <Compound_ID>  (92) 
CHEMBL230178

>  <Active>  (92) 
1

>  <Smiles>  (92) 
Cc1ccc(NC(=O)c2ccc(N=NN(C)C)c(C(F)(F)F)c2)cc1Nc1nccc(-c2cccnc2)n1

>  <canonical_smi>  (92) 
Cc1ccc(NC(=O)c2ccc(N=NN(C)C)c(C(F)(F)F)c2)cc1Nc1nccc(-c2cccnc2)n1

>  <Set>  (92) 
G2 active

>  <Set_type>  (92) 
Train

>  <MW>  (92) 
520.52

>  <HBD>  (92) 
2

>  <HBA>  (92) 
6

>  <NRB>  (92) 
7

>  <NR>  (92) 
4

>  <NAR>  (92) 
4

>  <PSA>  (92) 
107.76

>  <Standard Type>  (92) 
nan

>  <Standard Relation>  (92) 
nan

>  <Standard Units>  (92) 
nan

>  <Standard Value>  (92) 
nan

>  <Assay ChEMBL ID>  (92) 
nan

>  <Assay Description>  (92) 
nan

>  <BAO Label>  (92) 
nan

$$$$

     RDKit          2D

 39 43  0  0  0  0  0  0  0  0999 V2000
   -6.9177    4.3013    0.0000 C   0  0  0  0  0  0  0  0  0  0  0  0
   -6.6059    5.7685    0.0000 C   0  0  0  0  0  0  0  0  0  0  0  0
   -7.7206    6.7722    0.0000 C   0  0  0  0  0  0  0  0  0  0  0  0
   -7.4087    8.2394    0.0000 C   0  0  0  0  0  0  0  0  0  0  0  0
   -5.9821    8.7029    0.0000 C   0  0  0  0  0  0  0  0  0  0  0  0
   -5.6703   10.1701    0.0000 C   0  0  0  0  0  0  0  0  0  0  0  0
   -6.7850   11.1738    0.0000 O   0  0  0  0  0  0  0  0  0  0  0  0
   -4.2437   10.6337    0.0000 N   0  0  0  0  0  0  0  0  0  0  0  0
   -3.9318   12.1009    0.0000 C   0  0  0  0  0  0  0  0  0  0  0  0
   -2.5052   12.5644    0.0000 C   0  0  0  0  0  0  0  0  0  0  0  0
   -2.1934   14.0316    0.0000 C   0  0  0  0  0  0  0  0  0  0  0  0
   -3.3081   15.0353    0.0000 C   0  0  0  0  0  0  0  0  0  0  0  0
   -2.9962   16.5026    0.0000 C   0  0  0  0  0  0  0  0  0  0  0  0
   -1.5696   16.9661    0.0000 N   0  0  0  0  0  0  0  0  0  0  0  0
   -0.4549   15.9624    0.0000 C   0  0  0  0  0  0  0  0  0  0  0  0
    0.9717   16.4259    0.0000 C   0  0  0  0  0  0  0  0  0  0  0  0
    1.2835   17.8931    0.0000 N   0  0  0  0  0  0  0  0  0  0  0  0
    2.7101   18.3567    0.0000 C   0  0  0  0  0  0  0  0  0  0  0  0
    0.1688   18.8968    0.0000 C   0  0  0  0  0  0  0  0  0  0  0  0
   -1.2578   18.4333    0.0000 C   0  0  0  0  0  0  0  0  0  0  0  0
   -4.7347   14.5718    0.0000 C   0  0  0  0  0  0  0  0  0  0  0  0
   -5.8494   15.5755    0.0000 C   0  0  0  0  0  0  0  0  0  0  0  0
   -6.9641   16.5792    0.0000 F   0  0  0  0  0  0  0  0  0  0  0  0
   -6.8531   14.4608    0.0000 F   0  0  0  0  0  0  0  0  0  0  0  0
   -4.8457   16.6902    0.0000 F   0  0  0  0  0  0  0  0  0  0  0  0
   -5.0465   13.1046    0.0000 C   0  0  0  0  0  0  0  0  0  0  0  0
   -4.8674    7.6992    0.0000 C   0  0  0  0  0  0  0  0  0  0  0  0
   -5.1793    6.2320    0.0000 C   0  0  0  0  0  0  0  0  0  0  0  0
   -4.0646    5.2283    0.0000 C   0  0  0  0  0  0  0  0  0  0  0  0
   -2.9499    4.2246    0.0000 C   0  0  0  0  0  0  0  0  0  0  0  0
   -1.8351    3.2209    0.0000 C   0  0  0  0  0  0  0  0  0  0  0  0
   -0.4086    3.6844    0.0000 C   0  0  0  0  0  0  0  0  0  0  0  0
    0.7062    2.6807    0.0000 N   0  0  0  0  0  0  0  0  0  0  0  0
    0.3943    1.2135    0.0000 C   0  0  0  0  0  0  0  0  0  0  0  0
    1.2760    0.0000    0.0000 N   0  0  0  0  0  0  0  0  0  0  0  0
    0.3943   -1.2135    0.0000 C   0  0  0  0  0  0  0  0  0  0  0  0
   -1.0323   -0.7500    0.0000 N   0  0  0  0  0  0  0  0  0  0  0  0
   -1.0323    0.7500    0.0000 C   0  0  0  0  0  0  0  0  0  0  0  0
   -2.1470    1.7537    0.0000 C   0  0  0  0  0  0  0  0  0  0  0  0
  1  2  1  0
  2  3  2  0
  3  4  1  0
  4  5  2  0
  5  6  1  0
  6  7  2  0
  6  8  1  0
  8  9  1  0
  9 10  2  0
 10 11  1  0
 11 12  2  0
 12 13  1  0
 13 14  1  0
 14 15  1  0
 15 16  1  0
 16 17  1  0
 17 18  1  0
 17 19  1  0
 19 20  1  0
 12 21  1  0
 21 22  1  0
 22 23  1  0
 22 24  1  0
 22 25  1  0
 21 26  2  0
  5 27  1  0
 27 28  2  0
 28 29  1  0
 29 30  3  0
 30 31  1  0
 31 32  2  0
 32 33  1  0
 33 34  2  0
 34 35  1  0
 35 36  1  0
 36 37  2  0
 37 38  1  0
 38 39  2  0
 28  2  1  0
 39 31  1  0
 26  9  1  0
 38 34  1  0
 20 14  1  0
M  END
>  <Compound_ID>  (93) 
CHEMBL1171657

>  <Active>  (93) 
1

>  <Smiles>  (93) 
Cc1ccc(C(=O)Nc2ccc(CN3CCN(C)CC3)c(C(F)(F)F)c2)cc1C#Cc1cnc2[nH]cnc2c1

>  <canonical_smi>  (93) 
Cc1ccc(C(=O)Nc2ccc(CN3CCN(C)CC3)c(C(F)(F)F)c2)cc1C#Cc1cnc2[nH]cnc2c1

>  <Set>  (93) 
G2 active

>  <Set_type>  (93) 
Train

>  <MW>  (93) 
532.57

>  <HBD>  (93) 
2

>  <HBA>  (93) 
5

>  <NRB>  (93) 
4

>  <NR>  (93) 
5

>  <NAR>  (93) 
4

>  <PSA>  (93) 
77.15

>  <Standard Type>  (93) 
nan

>  <Standard Relation>  (93) 
nan

>  <Standard Units>  (93) 
nan

>  <Standard Value>  (93) 
nan

>  <Assay ChEMBL ID>  (93) 
nan

>  <Assay Description>  (93) 
nan

>  <BAO Label>  (93) 
nan

$$$$

     RDKit          2D

 39 43  0  0  0  0  0  0  0  0999 V2000
   -3.5757   -7.5908    0.0000 C   0  0  0  0  0  0  0  0  0  0  0  0
   -4.6904   -6.5871    0.0000 C   0  0  0  0  0  0  0  0  0  0  0  0
   -6.1170   -7.0506    0.0000 C   0  0  0  0  0  0  0  0  0  0  0  0
   -7.2317   -6.0469    0.0000 C   0  0  0  0  0  0  0  0  0  0  0  0
   -6.9199   -4.5797    0.0000 C   0  0  0  0  0  0  0  0  0  0  0  0
   -8.0346   -3.5760    0.0000 C   0  0  0  0  0  0  0  0  0  0  0  0
   -9.4612   -4.0396    0.0000 O   0  0  0  0  0  0  0  0  0  0  0  0
   -7.7227   -2.1088    0.0000 N   0  0  0  0  0  0  0  0  0  0  0  0
   -8.8374   -1.1051    0.0000 C   0  0  0  0  0  0  0  0  0  0  0  0
   -8.5256    0.3621    0.0000 C   0  0  0  0  0  0  0  0  0  0  0  0
   -9.6403    1.3658    0.0000 C   0  0  0  0  0  0  0  0  0  0  0  0
  -11.0669    0.9023    0.0000 C   0  0  0  0  0  0  0  0  0  0  0  0
  -12.1816    1.9060    0.0000 C   0  0  0  0  0  0  0  0  0  0  0  0
  -11.8697    3.3732    0.0000 N   0  0  0  0  0  0  0  0  0  0  0  0
  -10.4431    3.8367    0.0000 C   0  0  0  0  0  0  0  0  0  0  0  0
  -10.1313    5.3039    0.0000 C   0  0  0  0  0  0  0  0  0  0  0  0
  -11.2460    6.3076    0.0000 N   0  0  0  0  0  0  0  0  0  0  0  0
  -10.9341    7.7749    0.0000 C   0  0  0  0  0  0  0  0  0  0  0  0
  -12.6726    5.8441    0.0000 C   0  0  0  0  0  0  0  0  0  0  0  0
  -12.9844    4.3769    0.0000 C   0  0  0  0  0  0  0  0  0  0  0  0
  -11.3787   -0.5649    0.0000 C   0  0  0  0  0  0  0  0  0  0  0  0
  -12.8053   -1.0285    0.0000 C   0  0  0  0  0  0  0  0  0  0  0  0
  -14.2319   -1.4920    0.0000 F   0  0  0  0  0  0  0  0  0  0  0  0
  -12.3418   -2.4551    0.0000 F   0  0  0  0  0  0  0  0  0  0  0  0
  -13.2688    0.3981    0.0000 F   0  0  0  0  0  0  0  0  0  0  0  0
  -10.2640   -1.5686    0.0000 C   0  0  0  0  0  0  0  0  0  0  0  0
   -5.4933   -4.1162    0.0000 C   0  0  0  0  0  0  0  0  0  0  0  0
   -4.3786   -5.1199    0.0000 C   0  0  0  0  0  0  0  0  0  0  0  0
   -2.9520   -4.6564    0.0000 C   0  0  0  0  0  0  0  0  0  0  0  0
   -2.6401   -3.1891    0.0000 C   0  0  0  0  0  0  0  0  0  0  0  0
   -1.2135   -2.7256    0.0000 C   0  0  0  0  0  0  0  0  0  0  0  0
   -0.0000   -3.6073    0.0000 C   0  0  0  0  0  0  0  0  0  0  0  0
    1.2135   -2.7256    0.0000 N   0  0  0  0  0  0  0  0  0  0  0  0
    0.7500   -1.2990    0.0000 C   0  0  0  0  0  0  0  0  0  0  0  0
    1.5000    0.0000    0.0000 C   0  0  0  0  0  0  0  0  0  0  0  0
    0.7500    1.2990    0.0000 C   0  0  0  0  0  0  0  0  0  0  0  0
   -0.7500    1.2990    0.0000 C   0  0  0  0  0  0  0  0  0  0  0  0
   -1.5000    0.0000    0.0000 N   0  0  0  0  0  0  0  0  0  0  0  0
   -0.7500   -1.2990    0.0000 N   0  0  0  0  0  0  0  0  0  0  0  0
  1  2  1  0
  2  3  2  0
  3  4  1  0
  4  5  2  0
  5  6  1  0
  6  7  2  0
  6  8  1  0
  8  9  1  0
  9 10  2  0
 10 11  1  0
 11 12  2  0
 12 13  1  0
 13 14  1  0
 14 15  1  0
 15 16  1  0
 16 17  1  0
 17 18  1  0
 17 19  1  0
 19 20  1  0
 12 21  1  0
 21 22  1  0
 22 23  1  0
 22 24  1  0
 22 25  1  0
 21 26  2  0
  5 27  1  0
 27 28  2  0
 28 29  1  0
 29 30  1  0
 30 31  1  0
 31 32  2  0
 32 33  1  0
 33 34  2  0
 34 35  1  0
 35 36  2  0
 36 37  1  0
 37 38  2  0
 38 39  1  0
 28  2  1  0
 39 31  1  0
 26  9  1  0
 39 34  1  0
 20 14  1  0
M  END
>  <Compound_ID>  (94) 
CHEMBL1173200

>  <Active>  (94) 
1

>  <Smiles>  (94) 
Cc1ccc(C(=O)Nc2ccc(CN3CCN(C)CC3)c(C(F)(F)F)c2)cc1CCc1cnc2cccnn12

>  <canonical_smi>  (94) 
Cc1ccc(C(=O)Nc2ccc(CN3CCN(C)CC3)c(C(F)(F)F)c2)cc1CCc1cnc2cccnn12

>  <Set>  (94) 
G2 active

>  <Set_type>  (94) 
Train

>  <MW>  (94) 
536.6

>  <HBD>  (94) 
1

>  <HBA>  (94) 
5

>  <NRB>  (94) 
7

>  <NR>  (94) 
5

>  <NAR>  (94) 
4

>  <PSA>  (94) 
65.77

>  <Standard Type>  (94) 
nan

>  <Standard Relation>  (94) 
nan

>  <Standard Units>  (94) 
nan

>  <Standard Value>  (94) 
nan

>  <Assay ChEMBL ID>  (94) 
nan

>  <Assay Description>  (94) 
nan

>  <BAO Label>  (94) 
nan

$$$$

     RDKit          2D

 35 39  0  0  0  0  0  0  0  0999 V2000
    0.3177    5.1814    0.0000 C   0  0  0  0  0  0  0  0  0  0  0  0
    1.7849    5.4933    0.0000 C   0  0  0  0  0  0  0  0  0  0  0  0
    2.2484    6.9199    0.0000 C   0  0  0  0  0  0  0  0  0  0  0  0
    3.7156    7.2317    0.0000 C   0  0  0  0  0  0  0  0  0  0  0  0
    4.7193    6.1170    0.0000 C   0  0  0  0  0  0  0  0  0  0  0  0
    4.2558    4.6904    0.0000 C   0  0  0  0  0  0  0  0  0  0  0  0
    5.2595    3.5757    0.0000 C   0  0  0  0  0  0  0  0  0  0  0  0
    2.7886    4.3786    0.0000 C   0  0  0  0  0  0  0  0  0  0  0  0
    2.3250    2.9520    0.0000 C   0  0  0  0  0  0  0  0  0  0  0  0
    0.8578    2.6401    0.0000 C   0  0  0  0  0  0  0  0  0  0  0  0
    0.3943    1.2135    0.0000 N   0  0  0  0  0  0  0  0  0  0  0  0
    1.2760    0.0000    0.0000 C   0  0  0  0  0  0  0  0  0  0  0  0
    0.3943   -1.2135    0.0000 N   0  0  0  0  0  0  0  0  0  0  0  0
   -1.0323   -0.7500    0.0000 C   0  0  0  0  0  0  0  0  0  0  0  0
   -2.3313   -1.5000    0.0000 C   0  0  0  0  0  0  0  0  0  0  0  0
   -2.3313   -3.0000    0.0000 N   0  0  0  0  0  0  0  0  0  0  0  0
   -3.6304   -3.7500    0.0000 C   0  0  0  0  0  0  0  0  0  0  0  0
   -4.9294   -3.0000    0.0000 C   0  0  0  0  0  0  0  0  0  0  0  0
   -6.2284   -3.7500    0.0000 C   0  0  0  0  0  0  0  0  0  0  0  0
   -6.2284   -5.2500    0.0000 C   0  0  0  0  0  0  0  0  0  0  0  0
   -7.5275   -6.0000    0.0000 P   0  0  0  0  0  0  0  0  0  0  0  0
   -6.7775   -7.2990    0.0000 C   0  0  0  0  0  0  0  0  0  0  0  0
   -8.2775   -4.7010    0.0000 C   0  0  0  0  0  0  0  0  0  0  0  0
   -8.8265   -6.7500    0.0000 O   0  0  0  0  0  0  0  0  0  0  0  0
   -4.9294   -6.0000    0.0000 C   0  0  0  0  0  0  0  0  0  0  0  0
   -3.6304   -5.2500    0.0000 C   0  0  0  0  0  0  0  0  0  0  0  0
   -3.6304   -0.7500    0.0000 N   0  0  0  0  0  0  0  0  0  0  0  0
   -3.6304    0.7500    0.0000 C   0  0  0  0  0  0  0  0  0  0  0  0
   -4.9294    1.5000    0.0000 N   0  0  0  0  0  0  0  0  0  0  0  0
   -6.2997    0.8899    0.0000 C   0  0  0  0  0  0  0  0  0  0  0  0
   -7.3034    2.0046    0.0000 C   0  0  0  0  0  0  0  0  0  0  0  0
   -6.5534    3.3037    0.0000 C   0  0  0  0  0  0  0  0  0  0  0  0
   -5.0862    2.9918    0.0000 C   0  0  0  0  0  0  0  0  0  0  0  0
   -2.3313    1.5000    0.0000 N   0  0  0  0  0  0  0  0  0  0  0  0
   -1.0323    0.7500    0.0000 C   0  0  0  0  0  0  0  0  0  0  0  0
  1  2  1  0
  2  3  2  0
  3  4  1  0
  4  5  2  0
  5  6  1  0
  6  7  1  0
  6  8  2  0
  8  9  1  0
  9 10  2  0
 10 11  1  0
 11 12  1  0
 12 13  2  0
 13 14  1  0
 14 15  2  0
 15 16  1  0
 16 17  1  0
 17 18  2  0
 18 19  1  0
 19 20  2  0
 20 21  1  0
 21 22  1  0
 21 23  1  0
 21 24  2  0
 20 25  1  0
 25 26  2  0
 15 27  1  0
 27 28  2  0
 28 29  1  0
 29 30  1  0
 30 31  1  0
 31 32  1  0
 32 33  1  0
 28 34  1  0
 34 35  2  0
  8  2  1  0
 35 11  1  0
 35 14  1  0
 26 17  1  0
 33 29  1  0
M  END
>  <Compound_ID>  (95) 
CHEMBL451790

>  <Active>  (95) 
1

>  <Smiles>  (95) 
Cc1cccc(C)c1/C=C/n1cnc2c(Nc3ccc(P(C)(C)=O)cc3)nc(N3CCCC3)nc21

>  <canonical_smi>  (95) 
Cc1cccc(C)c1/C=C/n1cnc2c(Nc3ccc(P(C)(C)=O)cc3)nc(N3CCCC3)nc21

>  <Set>  (95) 
G2 active

>  <Set_type>  (95) 
Train

>  <MW>  (95) 
486.56

>  <HBD>  (95) 
1

>  <HBA>  (95) 
6

>  <NRB>  (95) 
6

>  <NR>  (95) 
5

>  <NAR>  (95) 
4

>  <PSA>  (95) 
75.94

>  <Standard Type>  (95) 
nan

>  <Standard Relation>  (95) 
nan

>  <Standard Units>  (95) 
nan

>  <Standard Value>  (95) 
nan

>  <Assay ChEMBL ID>  (95) 
nan

>  <Assay Description>  (95) 
nan

>  <BAO Label>  (95) 
nan

$$$$

     RDKit          2D

 22 25  0  0  0  0  0  0  0  0999 V2000
    3.0000    0.0000    0.0000 N   0  0  0  0  0  0  0  0  0  0  0  0
    1.5000    0.0000    0.0000 C   0  0  0  0  0  0  0  0  0  0  0  0
    0.7500   -1.2990    0.0000 N   0  0  0  0  0  0  0  0  0  0  0  0
   -0.7500   -1.2990    0.0000 C   0  0  0  0  0  0  0  0  0  0  0  0
   -1.5000    0.0000    0.0000 N   0  0  0  0  0  0  0  0  0  0  0  0
   -0.7500    1.2990    0.0000 C   0  0  0  0  0  0  0  0  0  0  0  0
    0.7500    1.2990    0.0000 C   0  0  0  0  0  0  0  0  0  0  0  0
    1.2135    2.7256    0.0000 C   0  0  0  0  0  0  0  0  0  0  0  0
    2.6401    3.1891    0.0000 C   0  0  0  0  0  0  0  0  0  0  0  0
    3.7548    2.1855    0.0000 C   0  0  0  0  0  0  0  0  0  0  0  0
    5.1814    2.6490    0.0000 C   0  0  0  0  0  0  0  0  0  0  0  0
    5.4933    4.1162    0.0000 C   0  0  0  0  0  0  0  0  0  0  0  0
    4.3786    5.1199    0.0000 C   0  0  0  0  0  0  0  0  0  0  0  0
    2.9520    4.6564    0.0000 C   0  0  0  0  0  0  0  0  0  0  0  0
   -0.0000    3.6073    0.0000 C   0  0  0  0  0  0  0  0  0  0  0  0
   -1.2135    2.7256    0.0000 N   0  0  0  0  0  0  0  0  0  0  0  0
   -2.6401    3.1891    0.0000 C   0  0  0  0  0  0  0  0  0  0  0  0
   -2.9520    4.6564    0.0000 C   0  0  0  0  0  0  0  0  0  0  0  0
   -4.3786    5.1199    0.0000 C   0  0  0  0  0  0  0  0  0  0  0  0
   -5.4933    4.1162    0.0000 C   0  0  0  0  0  0  0  0  0  0  0  0
   -5.1814    2.6490    0.0000 C   0  0  0  0  0  0  0  0  0  0  0  0
   -3.7548    2.1855    0.0000 C   0  0  0  0  0  0  0  0  0  0  0  0
  1  2  1  0
  2  3  2  0
  3  4  1  0
  4  5  2  0
  5  6  1  0
  6  7  2  0
  7  8  1  0
  8  9  1  0
  9 10  2  0
 10 11  1  0
 11 12  2  0
 12 13  1  0
 13 14  2  0
  8 15  2  0
 15 16  1  0
 16 17  1  0
 17 18  2  0
 18 19  1  0
 19 20  2  0
 20 21  1  0
 21 22  2  0
  7  2  1  0
 14  9  1  0
 22 17  1  0
 16  6  1  0
M  END
>  <Compound_ID>  (96) 
CHEMBL169757

>  <Active>  (96) 
1

>  <Smiles>  (96) 
Nc1ncnc2c1c(-c1ccccc1)cn2-c1ccccc1

>  <canonical_smi>  (96) 
Nc1ncnc2c1c(-c1ccccc1)cn2-c1ccccc1

>  <Set>  (96) 
G2 active

>  <Set_type>  (96) 
Train

>  <MW>  (96) 
286.34

>  <HBD>  (96) 
1

>  <HBA>  (96) 
3

>  <NRB>  (96) 
2

>  <NR>  (96) 
4

>  <NAR>  (96) 
4

>  <PSA>  (96) 
56.73

>  <Standard Type>  (96) 
nan

>  <Standard Relation>  (96) 
nan

>  <Standard Units>  (96) 
nan

>  <Standard Value>  (96) 
nan

>  <Assay ChEMBL ID>  (96) 
nan

>  <Assay Description>  (96) 
nan

>  <BAO Label>  (96) 
nan

$$$$

     RDKit          2D

 39 45  0  0  0  0  0  0  0  0999 V2000
    3.7500   -6.4952    0.0000 C   0  0  0  0  0  0  0  0  0  0  0  0
    3.0000   -5.1962    0.0000 O   0  0  0  0  0  0  0  0  0  0  0  0
    1.5000   -5.1962    0.0000 C   0  0  0  0  0  0  0  0  0  0  0  0
    0.7500   -6.4952    0.0000 C   0  0  0  0  0  0  0  0  0  0  0  0
   -0.7500   -6.4952    0.0000 C   0  0  0  0  0  0  0  0  0  0  0  0
   -1.5000   -5.1962    0.0000 C   0  0  0  0  0  0  0  0  0  0  0  0
   -0.7500   -3.8971    0.0000 C   0  0  0  0  0  0  0  0  0  0  0  0
    0.7500   -3.8971    0.0000 C   0  0  0  0  0  0  0  0  0  0  0  0
    1.5000   -2.5981    0.0000 O   0  0  0  0  0  0  0  0  0  0  0  0
    0.7500   -1.2990    0.0000 C   0  0  0  0  0  0  0  0  0  0  0  0
    1.5000    0.0000    0.0000 C   0  0  0  0  0  0  0  0  0  0  0  0
    0.7500    1.2990    0.0000 C   0  0  0  0  0  0  0  0  0  0  0  0
   -0.7500    1.2990    0.0000 C   0  0  0  0  0  0  0  0  0  0  0  0
   -1.7537    2.4138    0.0000 N   0  0  0  0  0  0  0  0  0  0  0  0
   -3.1240    1.8037    0.0000 N   0  0  0  0  0  0  0  0  0  0  0  0
   -2.9672    0.3119    0.0000 C   0  0  0  0  0  0  0  0  0  0  0  0
   -4.0819   -0.6918    0.0000 C   0  0  0  0  0  0  0  0  0  0  0  0
   -5.5492   -0.3800    0.0000 N   0  0  0  0  0  0  0  0  0  0  0  0
   -6.2992   -1.6790    0.0000 C   0  0  0  0  0  0  0  0  0  0  0  0
   -7.7664   -1.9909    0.0000 C   0  0  0  0  0  0  0  0  0  0  0  0
   -8.2299   -3.4175    0.0000 C   0  0  0  0  0  0  0  0  0  0  0  0
   -9.6971   -3.7293    0.0000 N   0  0  0  0  0  0  0  0  0  0  0  0
  -10.7008   -2.6146    0.0000 C   0  0  0  0  0  0  0  0  0  0  0  0
  -12.1680   -2.9265    0.0000 C   0  0  0  0  0  0  0  0  0  0  0  0
  -12.6316   -4.3531    0.0000 C   0  0  0  0  0  0  0  0  0  0  0  0
  -14.0988   -4.6649    0.0000 N   0  0  0  0  0  0  0  0  0  0  0  0
  -15.1025   -3.5502    0.0000 C   0  0  0  0  0  0  0  0  0  0  0  0
  -16.5697   -3.8621    0.0000 C   0  0  0  0  0  0  0  0  0  0  0  0
  -17.0332   -5.2887    0.0000 C   0  0  0  0  0  0  0  0  0  0  0  0
  -16.0295   -6.4034    0.0000 C   0  0  0  0  0  0  0  0  0  0  0  0
  -14.5623   -6.0915    0.0000 C   0  0  0  0  0  0  0  0  0  0  0  0
  -11.6279   -5.4678    0.0000 C   0  0  0  0  0  0  0  0  0  0  0  0
  -10.1607   -5.1559    0.0000 C   0  0  0  0  0  0  0  0  0  0  0  0
   -7.2262   -4.5322    0.0000 C   0  0  0  0  0  0  0  0  0  0  0  0
   -5.7590   -4.2203    0.0000 C   0  0  0  0  0  0  0  0  0  0  0  0
   -5.2955   -2.7937    0.0000 C   0  0  0  0  0  0  0  0  0  0  0  0
   -3.9251   -2.1836    0.0000 N   0  0  0  0  0  0  0  0  0  0  0  0
   -1.5000    0.0000    0.0000 C   0  0  0  0  0  0  0  0  0  0  0  0
   -0.7500   -1.2990    0.0000 C   0  0  0  0  0  0  0  0  0  0  0  0
  1  2  1  0
  2  3  1  0
  3  4  2  0
  4  5  1  0
  5  6  2  0
  6  7  1  0
  7  8  2  0
  8  9  1  0
  9 10  1  0
 10 11  2  0
 11 12  1  0
 12 13  2  0
 13 14  1  0
 14 15  1  0
 15 16  2  0
 16 17  1  0
 17 18  2  0
 18 19  1  0
 19 20  2  0
 20 21  1  0
 21 22  1  0
 22 23  1  0
 23 24  1  0
 24 25  1  0
 25 26  1  0
 26 27  1  0
 27 28  1  0
 28 29  1  0
 29 30  1  0
 30 31  1  0
 25 32  1  0
 32 33  1  0
 21 34  2  0
 34 35  1  0
 35 36  2  0
 36 37  1  0
 16 38  1  0
 38 39  2  0
  8  3  1  0
 39 10  1  0
 38 13  1  0
 37 17  1  0
 36 19  1  0
 33 22  1  0
 31 26  1  0
M  END
>  <Compound_ID>  (97) 
CHEMBL211508

>  <Active>  (97) 
1

>  <Smiles>  (97) 
COc1ccccc1Oc1ccc2[nH]nc(-c3nc4cc(N5CCC(N6CCCCC6)CC5)ccc4[nH]3)c2c1

>  <canonical_smi>  (97) 
COc1ccccc1Oc1ccc2[nH]nc(-c3nc4cc(N5CCC(N6CCCCC6)CC5)ccc4[nH]3)c2c1

>  <Set>  (97) 
G2 active

>  <Set_type>  (97) 
Train

>  <MW>  (97) 
522.65

>  <HBD>  (97) 
2

>  <HBA>  (97) 
6

>  <NRB>  (97) 
6

>  <NR>  (97) 
7

>  <NAR>  (97) 
5

>  <PSA>  (97) 
82.3

>  <Standard Type>  (97) 
nan

>  <Standard Relation>  (97) 
nan

>  <Standard Units>  (97) 
nan

>  <Standard Value>  (97) 
nan

>  <Assay ChEMBL ID>  (97) 
nan

>  <Assay Description>  (97) 
nan

>  <BAO Label>  (97) 
nan

$$$$

     RDKit          2D

 28 31  0  0  0  0  0  0  0  0999 V2000
   -9.9674    4.2431    0.0000 F   0  0  0  0  0  0  0  0  0  0  0  0
   -8.8527    3.2394    0.0000 C   0  0  0  0  0  0  0  0  0  0  0  0
   -7.4261    3.7029    0.0000 C   0  0  0  0  0  0  0  0  0  0  0  0
   -6.3114    2.6992    0.0000 C   0  0  0  0  0  0  0  0  0  0  0  0
   -6.6232    1.2320    0.0000 C   0  0  0  0  0  0  0  0  0  0  0  0
   -5.5085    0.2283    0.0000 C   0  0  0  0  0  0  0  0  0  0  0  0
   -5.8204   -1.2389    0.0000 Cl  0  0  0  0  0  0  0  0  0  0  0  0
   -4.0819    0.6918    0.0000 C   0  0  0  0  0  0  0  0  0  0  0  0
   -2.9672   -0.3119    0.0000 N   0  0  0  0  0  0  0  0  0  0  0  0
   -3.1240   -1.8037    0.0000 N   0  0  0  0  0  0  0  0  0  0  0  0
   -1.7537   -2.4138    0.0000 C   0  0  0  0  0  0  0  0  0  0  0  0
   -0.7500   -1.2990    0.0000 C   0  0  0  0  0  0  0  0  0  0  0  0
    0.7500   -1.2990    0.0000 C   0  0  0  0  0  0  0  0  0  0  0  0
    1.5000   -2.5981    0.0000 N   0  0  0  0  0  0  0  0  0  0  0  0
    3.0000   -2.5981    0.0000 C   0  0  0  0  0  0  0  0  0  0  0  0
    3.7500   -3.8971    0.0000 C   0  0  0  0  0  0  0  0  0  0  0  0
    3.0000   -5.1962    0.0000 C   0  0  0  0  0  0  0  0  0  0  0  0
    3.7500   -6.4952    0.0000 C   0  0  0  0  0  0  0  0  0  0  0  0
    5.2500   -6.4952    0.0000 C   0  0  0  0  0  0  0  0  0  0  0  0
    6.0000   -5.1962    0.0000 C   0  0  0  0  0  0  0  0  0  0  0  0
    5.2500   -3.8971    0.0000 C   0  0  0  0  0  0  0  0  0  0  0  0
    6.0000   -2.5981    0.0000 F   0  0  0  0  0  0  0  0  0  0  0  0
    1.5000    0.0000    0.0000 N   0  0  0  0  0  0  0  0  0  0  0  0
    0.7500    1.2990    0.0000 C   0  0  0  0  0  0  0  0  0  0  0  0
   -0.7500    1.2990    0.0000 N   0  0  0  0  0  0  0  0  0  0  0  0
   -1.5000    0.0000    0.0000 C   0  0  0  0  0  0  0  0  0  0  0  0
   -8.0498    0.7685    0.0000 C   0  0  0  0  0  0  0  0  0  0  0  0
   -9.1645    1.7722    0.0000 C   0  0  0  0  0  0  0  0  0  0  0  0
  1  2  1  0
  2  3  2  0
  3  4  1  0
  4  5  2  0
  5  6  1  0
  6  7  1  0
  6  8  1  0
  8  9  1  0
  9 10  1  0
 10 11  2  0
 11 12  1  0
 12 13  2  0
 13 14  1  0
 14 15  1  0
 15 16  1  0
 16 17  2  0
 17 18  1  0
 18 19  2  0
 19 20  1  0
 20 21  2  0
 21 22  1  0
 13 23  1  0
 23 24  2  0
 24 25  1  0
 25 26  2  0
  5 27  1  0
 27 28  2  0
 28  2  1  0
 26  9  1  0
 26 12  1  0
 21 16  1  0
M  END
>  <Compound_ID>  (98) 
CHEMBL270492

>  <Active>  (98) 
1

>  <Smiles>  (98) 
Fc1ccc(C(Cl)Cn2ncc3c(NCc4ccccc4F)ncnc32)cc1

>  <canonical_smi>  (98) 
Fc1ccc(C(Cl)Cn2ncc3c(NCc4ccccc4F)ncnc32)cc1

>  <Set>  (98) 
G2 active

>  <Set_type>  (98) 
Train

>  <MW>  (98) 
399.83

>  <HBD>  (98) 
1

>  <HBA>  (98) 
4

>  <NRB>  (98) 
6

>  <NR>  (98) 
4

>  <NAR>  (98) 
4

>  <PSA>  (98) 
55.63

>  <Standard Type>  (98) 
nan

>  <Standard Relation>  (98) 
nan

>  <Standard Units>  (98) 
nan

>  <Standard Value>  (98) 
nan

>  <Assay ChEMBL ID>  (98) 
nan

>  <Assay Description>  (98) 
nan

>  <BAO Label>  (98) 
nan

$$$$

     RDKit          2D

 34 38  0  0  0  0  0  0  0  0999 V2000
   -8.3617   -0.6987    0.0000 C   0  0  0  0  0  0  0  0  0  0  0  0
   -8.0498    0.7685    0.0000 C   0  0  0  0  0  0  0  0  0  0  0  0
   -9.1645    1.7722    0.0000 C   0  0  0  0  0  0  0  0  0  0  0  0
   -8.8527    3.2394    0.0000 C   0  0  0  0  0  0  0  0  0  0  0  0
   -7.4261    3.7029    0.0000 C   0  0  0  0  0  0  0  0  0  0  0  0
   -7.1142    5.1701    0.0000 C   0  0  0  0  0  0  0  0  0  0  0  0
   -8.2289    6.1738    0.0000 O   0  0  0  0  0  0  0  0  0  0  0  0
   -5.6876    5.6337    0.0000 N   0  0  0  0  0  0  0  0  0  0  0  0
   -5.3758    7.1009    0.0000 C   0  0  0  0  0  0  0  0  0  0  0  0
   -6.3795    8.2156    0.0000 C   0  0  0  0  0  0  0  0  0  0  0  0
   -5.6295    9.5146    0.0000 C   0  0  0  0  0  0  0  0  0  0  0  0
   -6.2396   10.8850    0.0000 C   0  0  0  0  0  0  0  0  0  0  0  0
   -6.8497   12.2553    0.0000 F   0  0  0  0  0  0  0  0  0  0  0  0
   -4.8693   11.4951    0.0000 F   0  0  0  0  0  0  0  0  0  0  0  0
   -7.6099   10.2749    0.0000 F   0  0  0  0  0  0  0  0  0  0  0  0
   -4.1622    9.2028    0.0000 O   0  0  0  0  0  0  0  0  0  0  0  0
   -4.0055    7.7110    0.0000 N   0  0  0  0  0  0  0  0  0  0  0  0
   -6.3114    2.6992    0.0000 C   0  0  0  0  0  0  0  0  0  0  0  0
   -6.6232    1.2320    0.0000 C   0  0  0  0  0  0  0  0  0  0  0  0
   -5.5085    0.2283    0.0000 C   0  0  0  0  0  0  0  0  0  0  0  0
   -4.0819    0.6918    0.0000 C   0  0  0  0  0  0  0  0  0  0  0  0
   -2.9672   -0.3119    0.0000 N   0  0  0  0  0  0  0  0  0  0  0  0
   -3.1240   -1.8037    0.0000 C   0  0  0  0  0  0  0  0  0  0  0  0
   -1.7537   -2.4138    0.0000 N   0  0  0  0  0  0  0  0  0  0  0  0
   -0.7500   -1.2990    0.0000 C   0  0  0  0  0  0  0  0  0  0  0  0
    0.7500   -1.2990    0.0000 C   0  0  0  0  0  0  0  0  0  0  0  0
    1.5000   -2.5981    0.0000 N   0  0  0  0  0  0  0  0  0  0  0  0
    3.0000   -2.5981    0.0000 C   0  0  0  0  0  0  0  0  0  0  0  0
    4.2990   -1.8481    0.0000 C   0  0  0  0  0  0  0  0  0  0  0  0
    4.2990   -3.3481    0.0000 C   0  0  0  0  0  0  0  0  0  0  0  0
    1.5000    0.0000    0.0000 N   0  0  0  0  0  0  0  0  0  0  0  0
    0.7500    1.2990    0.0000 C   0  0  0  0  0  0  0  0  0  0  0  0
   -0.7500    1.2990    0.0000 N   0  0  0  0  0  0  0  0  0  0  0  0
   -1.5000    0.0000    0.0000 C   0  0  0  0  0  0  0  0  0  0  0  0
  1  2  1  0
  2  3  2  0
  3  4  1  0
  4  5  2  0
  5  6  1  0
  6  7  2  0
  6  8  1  0
  8  9  1  0
  9 10  1  0
 10 11  2  0
 11 12  1  0
 12 13  1  0
 12 14  1  0
 12 15  1  0
 11 16  1  0
 16 17  1  0
  5 18  1  0
 18 19  2  0
 19 20  1  0
 20 21  2  0
 21 22  1  0
 22 23  1  0
 23 24  2  0
 24 25  1  0
 25 26  2  0
 26 27  1  0
 27 28  1  0
 28 29  1  0
 29 30  1  0
 26 31  1  0
 31 32  2  0
 32 33  1  0
 33 34  2  0
 19  2  1  0
 34 22  1  0
 17  9  2  0
 34 25  1  0
 30 28  1  0
M  END
>  <Compound_ID>  (99) 
CHEMBL1169876

>  <Active>  (99) 
1

>  <Smiles>  (99) 
Cc1ccc(C(=O)Nc2cc(C(F)(F)F)on2)cc1/C=C/n1cnc2c(NC3CC3)ncnc21

>  <canonical_smi>  (99) 
Cc1ccc(C(=O)Nc2cc(C(F)(F)F)on2)cc1/C=C/n1cnc2c(NC3CC3)ncnc21

>  <Set>  (99) 
G2 active

>  <Set_type>  (99) 
Train

>  <MW>  (99) 
469.43

>  <HBD>  (99) 
2

>  <HBA>  (99) 
7

>  <NRB>  (99) 
6

>  <NR>  (99) 
5

>  <NAR>  (99) 
4

>  <PSA>  (99) 
110.76

>  <Standard Type>  (99) 
nan

>  <Standard Relation>  (99) 
nan

>  <Standard Units>  (99) 
nan

>  <Standard Value>  (99) 
nan

>  <Assay ChEMBL ID>  (99) 
nan

>  <Assay Description>  (99) 
nan

>  <BAO Label>  (99) 
nan

$$$$

     RDKit          2D

 38 43  0  0  0  0  0  0  0  0999 V2000
   -3.0000   -2.5981    0.0000 C   0  0  0  0  0  0  0  0  0  0  0  0
   -1.5000   -2.5981    0.0000 C   0  0  0  0  0  0  0  0  0  0  0  0
   -0.7500   -3.8971    0.0000 C   0  0  0  0  0  0  0  0  0  0  0  0
    0.7500   -3.8971    0.0000 C   0  0  0  0  0  0  0  0  0  0  0  0
    1.5000   -5.1962    0.0000 C   0  0  0  0  0  0  0  0  0  0  0  0
    3.0000   -5.1962    0.0000 C   0  0  0  0  0  0  0  0  0  0  0  0
    3.7500   -6.4952    0.0000 C   0  0  0  0  0  0  0  0  0  0  0  0
    3.0000   -7.7942    0.0000 C   0  0  0  0  0  0  0  0  0  0  0  0
    1.5000   -7.7942    0.0000 C   0  0  0  0  0  0  0  0  0  0  0  0
    0.4963   -8.9089    0.0000 N   0  0  0  0  0  0  0  0  0  0  0  0
   -0.8740   -8.2988    0.0000 C   0  0  0  0  0  0  0  0  0  0  0  0
   -0.7172   -6.8071    0.0000 C   0  0  0  0  0  0  0  0  0  0  0  0
    0.7500   -6.4952    0.0000 C   0  0  0  0  0  0  0  0  0  0  0  0
    1.5000   -2.5981    0.0000 C   0  0  0  0  0  0  0  0  0  0  0  0
    0.7500   -1.2990    0.0000 C   0  0  0  0  0  0  0  0  0  0  0  0
    1.5000    0.0000    0.0000 N   0  0  0  0  0  0  0  0  0  0  0  0
    0.7500    1.2990    0.0000 N   0  0  0  0  0  0  0  0  0  0  0  0
   -0.7500    1.2990    0.0000 C   0  0  0  0  0  0  0  0  0  0  0  0
   -1.5000    2.5981    0.0000 N   0  0  0  0  0  0  0  0  0  0  0  0
   -0.7500    3.8971    0.0000 C   0  0  0  0  0  0  0  0  0  0  0  0
    0.7500    3.8971    0.0000 C   0  0  0  0  0  0  0  0  0  0  0  0
    1.5000    5.1962    0.0000 C   0  0  0  0  0  0  0  0  0  0  0  0
    0.7500    6.4952    0.0000 C   0  0  0  0  0  0  0  0  0  0  0  0
    1.5000    7.7942    0.0000 S   0  0  0  0  0  0  0  0  0  0  0  0
    2.7990    7.0442    0.0000 O   0  0  0  0  0  0  0  0  0  0  0  0
    0.2010    8.5442    0.0000 O   0  0  0  0  0  0  0  0  0  0  0  0
    2.2500    9.0933    0.0000 N   0  0  0  0  0  0  0  0  0  0  0  0
    1.5000   10.3923    0.0000 C   0  0  0  0  0  0  0  0  0  0  0  0
    2.2500   11.6913    0.0000 C   0  0  0  0  0  0  0  0  0  0  0  0
    1.5000   12.9904    0.0000 N   0  0  0  0  0  0  0  0  0  0  0  0
    0.0082   13.1472    0.0000 C   0  0  0  0  0  0  0  0  0  0  0  0
   -0.3037   14.6144    0.0000 C   0  0  0  0  0  0  0  0  0  0  0  0
    0.9954   15.3644    0.0000 C   0  0  0  0  0  0  0  0  0  0  0  0
    2.1101   14.3607    0.0000 C   0  0  0  0  0  0  0  0  0  0  0  0
   -0.7500    6.4952    0.0000 C   0  0  0  0  0  0  0  0  0  0  0  0
   -1.5000    5.1962    0.0000 C   0  0  0  0  0  0  0  0  0  0  0  0
   -1.5000    0.0000    0.0000 N   0  0  0  0  0  0  0  0  0  0  0  0
   -0.7500   -1.2990    0.0000 C   0  0  0  0  0  0  0  0  0  0  0  0
  1  2  1  0
  2  3  2  0
  3  4  1  0
  4  5  1  0
  5  6  2  0
  6  7  1  0
  7  8  2  0
  8  9  1  0
  9 10  1  0
 10 11  1  0
 11 12  2  0
 12 13  1  0
  4 14  2  0
 14 15  1  0
 15 16  2  0
 16 17  1  0
 17 18  2  0
 18 19  1  0
 19 20  1  0
 20 21  2  0
 21 22  1  0
 22 23  2  0
 23 24  1  0
 24 25  2  0
 24 26  2  0
 24 27  1  0
 27 28  1  0
 28 29  1  0
 29 30  1  0
 30 31  1  0
 31 32  1  0
 32 33  1  0
 33 34  1  0
 23 35  1  0
 35 36  2  0
 18 37  1  0
 37 38  2  0
 38  2  1  0
 13  5  1  0
 38 15  1  0
 13  9  2  0
 36 20  1  0
 34 30  1  0
M  END
>  <Compound_ID>  (100) 
CHEMBL251015

>  <Active>  (100) 
1

>  <Smiles>  (100) 
Cc1cc(-c2cccc3[nH]ccc23)cc2nnc(Nc3ccc(S(=O)(=O)NCCN4CCCC4)cc3)nc12

>  <canonical_smi>  (100) 
Cc1cc(-c2cccc3[nH]ccc23)cc2nnc(Nc3ccc(S(=O)(=O)NCCN4CCCC4)cc3)nc12

>  <Set>  (100) 
G2 active

>  <Set_type>  (100) 
Train

>  <MW>  (100) 
527.65

>  <HBD>  (100) 
3

>  <HBA>  (100) 
7

>  <NRB>  (100) 
8

>  <NR>  (100) 
6

>  <NAR>  (100) 
5

>  <PSA>  (100) 
115.9

>  <Standard Type>  (100) 
nan

>  <Standard Relation>  (100) 
nan

>  <Standard Units>  (100) 
nan

>  <Standard Value>  (100) 
nan

>  <Assay ChEMBL ID>  (100) 
nan

>  <Assay Description>  (100) 
nan

>  <BAO Label>  (100) 
nan

$$$$

     RDKit          2D

 39 43  0  0  0  0  0  0  0  0999 V2000
   -4.6904   -6.5871    0.0000 C   0  0  0  0  0  0  0  0  0  0  0  0
   -5.8051   -5.5834    0.0000 C   0  0  0  0  0  0  0  0  0  0  0  0
   -7.2317   -6.0469    0.0000 C   0  0  0  0  0  0  0  0  0  0  0  0
   -8.3464   -5.0433    0.0000 C   0  0  0  0  0  0  0  0  0  0  0  0
   -8.0346   -3.5760    0.0000 C   0  0  0  0  0  0  0  0  0  0  0  0
   -9.1493   -2.5723    0.0000 C   0  0  0  0  0  0  0  0  0  0  0  0
  -10.5759   -3.0359    0.0000 O   0  0  0  0  0  0  0  0  0  0  0  0
   -8.8374   -1.1051    0.0000 N   0  0  0  0  0  0  0  0  0  0  0  0
   -9.9521   -0.1014    0.0000 C   0  0  0  0  0  0  0  0  0  0  0  0
   -9.6403    1.3658    0.0000 C   0  0  0  0  0  0  0  0  0  0  0  0
  -10.7550    2.3695    0.0000 C   0  0  0  0  0  0  0  0  0  0  0  0
  -10.4431    3.8367    0.0000 C   0  0  0  0  0  0  0  0  0  0  0  0
   -9.0165    4.3002    0.0000 N   0  0  0  0  0  0  0  0  0  0  0  0
   -7.9018    3.2966    0.0000 C   0  0  0  0  0  0  0  0  0  0  0  0
   -6.4752    3.7601    0.0000 C   0  0  0  0  0  0  0  0  0  0  0  0
   -6.1634    5.2273    0.0000 N   0  0  0  0  0  0  0  0  0  0  0  0
   -4.7368    5.6908    0.0000 C   0  0  0  0  0  0  0  0  0  0  0  0
   -7.2781    6.2310    0.0000 C   0  0  0  0  0  0  0  0  0  0  0  0
   -8.7047    5.7675    0.0000 C   0  0  0  0  0  0  0  0  0  0  0  0
  -12.1816    1.9060    0.0000 C   0  0  0  0  0  0  0  0  0  0  0  0
  -12.4935    0.4388    0.0000 C   0  0  0  0  0  0  0  0  0  0  0  0
  -13.9200   -0.0248    0.0000 C   0  0  0  0  0  0  0  0  0  0  0  0
  -15.3466   -0.4883    0.0000 F   0  0  0  0  0  0  0  0  0  0  0  0
  -14.3836    1.4018    0.0000 F   0  0  0  0  0  0  0  0  0  0  0  0
  -13.4565   -1.4514    0.0000 F   0  0  0  0  0  0  0  0  0  0  0  0
  -11.3787   -0.5649    0.0000 C   0  0  0  0  0  0  0  0  0  0  0  0
   -6.6080   -3.1125    0.0000 C   0  0  0  0  0  0  0  0  0  0  0  0
   -5.4933   -4.1162    0.0000 C   0  0  0  0  0  0  0  0  0  0  0  0
   -4.0667   -3.6527    0.0000 C   0  0  0  0  0  0  0  0  0  0  0  0
   -2.6401   -3.1891    0.0000 C   0  0  0  0  0  0  0  0  0  0  0  0
   -1.2135   -2.7256    0.0000 C   0  0  0  0  0  0  0  0  0  0  0  0
   -0.0000   -3.6073    0.0000 C   0  0  0  0  0  0  0  0  0  0  0  0
    1.2135   -2.7256    0.0000 N   0  0  0  0  0  0  0  0  0  0  0  0
    0.7500   -1.2990    0.0000 C   0  0  0  0  0  0  0  0  0  0  0  0
    1.5000    0.0000    0.0000 C   0  0  0  0  0  0  0  0  0  0  0  0
    0.7500    1.2990    0.0000 C   0  0  0  0  0  0  0  0  0  0  0  0
   -0.7500    1.2990    0.0000 C   0  0  0  0  0  0  0  0  0  0  0  0
   -1.5000    0.0000    0.0000 C   0  0  0  0  0  0  0  0  0  0  0  0
   -0.7500   -1.2990    0.0000 N   0  0  0  0  0  0  0  0  0  0  0  0
  1  2  1  0
  2  3  2  0
  3  4  1  0
  4  5  2  0
  5  6  1  0
  6  7  2  0
  6  8  1  0
  8  9  1  0
  9 10  2  0
 10 11  1  0
 11 12  1  0
 12 13  1  0
 13 14  1  0
 14 15  1  0
 15 16  1  0
 16 17  1  0
 16 18  1  0
 18 19  1  0
 11 20  2  0
 20 21  1  0
 21 22  1  0
 22 23  1  0
 22 24  1  0
 22 25  1  0
 21 26  2  0
  5 27  1  0
 27 28  2  0
 28 29  1  0
 29 30  3  0
 30 31  1  0
 31 32  2  0
 32 33  1  0
 33 34  2  0
 34 35  1  0
 35 36  2  0
 36 37  1  0
 37 38  2  0
 38 39  1  0
 28  2  1  0
 39 31  1  0
 26  9  1  0
 39 34  1  0
 19 13  1  0
M  END
>  <Compound_ID>  (101) 
CHEMBL1171282

>  <Active>  (101) 
1

>  <Smiles>  (101) 
Cc1ccc(C(=O)Nc2cc(CN3CCN(C)CC3)cc(C(F)(F)F)c2)cc1C#Cc1cnc2ccccn12

>  <canonical_smi>  (101) 
Cc1ccc(C(=O)Nc2cc(CN3CCN(C)CC3)cc(C(F)(F)F)c2)cc1C#Cc1cnc2ccccn12

>  <Set>  (101) 
G2 active

>  <Set_type>  (101) 
Train

>  <MW>  (101) 
531.58

>  <HBD>  (101) 
1

>  <HBA>  (101) 
4

>  <NRB>  (101) 
4

>  <NR>  (101) 
5

>  <NAR>  (101) 
4

>  <PSA>  (101) 
52.88

>  <Standard Type>  (101) 
nan

>  <Standard Relation>  (101) 
nan

>  <Standard Units>  (101) 
nan

>  <Standard Value>  (101) 
nan

>  <Assay ChEMBL ID>  (101) 
nan

>  <Assay Description>  (101) 
nan

>  <BAO Label>  (101) 
nan

$$$$

     RDKit          2D

 42 47  0  0  0  0  0  0  0  0999 V2000
   -4.6904   -6.5871    0.0000 C   0  0  0  0  0  0  0  0  0  0  0  0
   -5.8051   -5.5834    0.0000 C   0  0  0  0  0  0  0  0  0  0  0  0
   -7.2317   -6.0469    0.0000 C   0  0  0  0  0  0  0  0  0  0  0  0
   -8.3464   -5.0433    0.0000 C   0  0  0  0  0  0  0  0  0  0  0  0
   -8.0346   -3.5760    0.0000 C   0  0  0  0  0  0  0  0  0  0  0  0
   -9.1493   -2.5723    0.0000 C   0  0  0  0  0  0  0  0  0  0  0  0
  -10.5759   -3.0359    0.0000 O   0  0  0  0  0  0  0  0  0  0  0  0
   -8.8374   -1.1051    0.0000 N   0  0  0  0  0  0  0  0  0  0  0  0
   -9.9521   -0.1014    0.0000 C   0  0  0  0  0  0  0  0  0  0  0  0
   -9.6403    1.3658    0.0000 C   0  0  0  0  0  0  0  0  0  0  0  0
  -10.7550    2.3695    0.0000 C   0  0  0  0  0  0  0  0  0  0  0  0
  -10.4431    3.8367    0.0000 N   0  0  0  0  0  0  0  0  0  0  0  0
  -11.4468    4.9514    0.0000 C   0  0  0  0  0  0  0  0  0  0  0  0
  -10.6968    6.2505    0.0000 N   0  0  0  0  0  0  0  0  0  0  0  0
   -9.2296    5.9386    0.0000 C   0  0  0  0  0  0  0  0  0  0  0  0
   -8.1149    6.9423    0.0000 C   0  0  0  0  0  0  0  0  0  0  0  0
   -6.6883    6.4788    0.0000 N   0  0  0  0  0  0  0  0  0  0  0  0
   -5.4748    7.3605    0.0000 C   0  0  0  0  0  0  0  0  0  0  0  0
   -4.2613    6.4788    0.0000 C   0  0  0  0  0  0  0  0  0  0  0  0
   -4.7248    5.0522    0.0000 C   0  0  0  0  0  0  0  0  0  0  0  0
   -6.2248    5.0522    0.0000 C   0  0  0  0  0  0  0  0  0  0  0  0
   -9.0728    4.4468    0.0000 C   0  0  0  0  0  0  0  0  0  0  0  0
  -12.1816    1.9060    0.0000 C   0  0  0  0  0  0  0  0  0  0  0  0
  -12.4935    0.4388    0.0000 C   0  0  0  0  0  0  0  0  0  0  0  0
  -13.9200   -0.0248    0.0000 C   0  0  0  0  0  0  0  0  0  0  0  0
  -15.3466   -0.4883    0.0000 F   0  0  0  0  0  0  0  0  0  0  0  0
  -14.3836    1.4018    0.0000 F   0  0  0  0  0  0  0  0  0  0  0  0
  -13.4565   -1.4514    0.0000 F   0  0  0  0  0  0  0  0  0  0  0  0
  -11.3787   -0.5649    0.0000 C   0  0  0  0  0  0  0  0  0  0  0  0
   -6.6080   -3.1125    0.0000 C   0  0  0  0  0  0  0  0  0  0  0  0
   -5.4933   -4.1162    0.0000 C   0  0  0  0  0  0  0  0  0  0  0  0
   -4.0667   -3.6527    0.0000 C   0  0  0  0  0  0  0  0  0  0  0  0
   -2.6401   -3.1891    0.0000 C   0  0  0  0  0  0  0  0  0  0  0  0
   -1.2135   -2.7256    0.0000 C   0  0  0  0  0  0  0  0  0  0  0  0
   -0.0000   -3.6073    0.0000 C   0  0  0  0  0  0  0  0  0  0  0  0
    1.2135   -2.7256    0.0000 N   0  0  0  0  0  0  0  0  0  0  0  0
    0.7500   -1.2990    0.0000 C   0  0  0  0  0  0  0  0  0  0  0  0
    1.5000    0.0000    0.0000 C   0  0  0  0  0  0  0  0  0  0  0  0
    0.7500    1.2990    0.0000 C   0  0  0  0  0  0  0  0  0  0  0  0
   -0.7500    1.2990    0.0000 C   0  0  0  0  0  0  0  0  0  0  0  0
   -1.5000    0.0000    0.0000 C   0  0  0  0  0  0  0  0  0  0  0  0
   -0.7500   -1.2990    0.0000 N   0  0  0  0  0  0  0  0  0  0  0  0
  1  2  1  0
  2  3  2  0
  3  4  1  0
  4  5  2  0
  5  6  1  0
  6  7  2  0
  6  8  1  0
  8  9  1  0
  9 10  2  0
 10 11  1  0
 11 12  1  0
 12 13  1  0
 13 14  2  0
 14 15  1  0
 15 16  1  0
 16 17  1  0
 17 18  1  0
 18 19  1  0
 19 20  1  0
 20 21  1  0
 15 22  2  0
 11 23  2  0
 23 24  1  0
 24 25  1  0
 25 26  1  0
 25 27  1  0
 25 28  1  0
 24 29  2  0
  5 30  1  0
 30 31  2  0
 31 32  1  0
 32 33  3  0
 33 34  1  0
 34 35  2  0
 35 36  1  0
 36 37  2  0
 37 38  1  0
 38 39  2  0
 39 40  1  0
 40 41  2  0
 41 42  1  0
 31  2  1  0
 42 34  1  0
 29  9  1  0
 42 37  1  0
 22 12  1  0
 21 17  1  0
M  END
>  <Compound_ID>  (102) 
CHEMBL1171038

>  <Active>  (102) 
1

>  <Smiles>  (102) 
Cc1ccc(C(=O)Nc2cc(-n3cnc(CN4CCCC4)c3)cc(C(F)(F)F)c2)cc1C#Cc1cnc2ccccn12

>  <canonical_smi>  (102) 
Cc1ccc(C(=O)Nc2cc(-n3cnc(CN4CCCC4)c3)cc(C(F)(F)F)c2)cc1C#Cc1cnc2ccccn12

>  <Set>  (102) 
G2 active

>  <Set_type>  (102) 
Train

>  <MW>  (102) 
568.6

>  <HBD>  (102) 
1

>  <HBA>  (102) 
4

>  <NRB>  (102) 
5

>  <NR>  (102) 
6

>  <NAR>  (102) 
5

>  <PSA>  (102) 
67.46

>  <Standard Type>  (102) 
nan

>  <Standard Relation>  (102) 
nan

>  <Standard Units>  (102) 
nan

>  <Standard Value>  (102) 
nan

>  <Assay ChEMBL ID>  (102) 
nan

>  <Assay Description>  (102) 
nan

>  <BAO Label>  (102) 
nan

$$$$

     RDKit          2D

 34 38  0  0  0  0  0  0  0  0999 V2000
   -8.0498    0.7685    0.0000 C   0  0  0  0  0  0  0  0  0  0  0  0
   -7.7380    2.2357    0.0000 C   0  0  0  0  0  0  0  0  0  0  0  0
   -8.8527    3.2394    0.0000 C   0  0  0  0  0  0  0  0  0  0  0  0
   -8.5408    4.7066    0.0000 C   0  0  0  0  0  0  0  0  0  0  0  0
   -7.1142    5.1701    0.0000 C   0  0  0  0  0  0  0  0  0  0  0  0
   -6.8024    6.6374    0.0000 C   0  0  0  0  0  0  0  0  0  0  0  0
   -7.9171    7.6411    0.0000 O   0  0  0  0  0  0  0  0  0  0  0  0
   -5.3758    7.1009    0.0000 N   0  0  0  0  0  0  0  0  0  0  0  0
   -5.0639    8.5681    0.0000 C   0  0  0  0  0  0  0  0  0  0  0  0
   -6.0676    9.6828    0.0000 C   0  0  0  0  0  0  0  0  0  0  0  0
   -5.3176   10.9819    0.0000 C   0  0  0  0  0  0  0  0  0  0  0  0
   -5.9277   12.3522    0.0000 C   0  0  0  0  0  0  0  0  0  0  0  0
   -6.5378   13.7225    0.0000 F   0  0  0  0  0  0  0  0  0  0  0  0
   -4.5574   12.9623    0.0000 F   0  0  0  0  0  0  0  0  0  0  0  0
   -7.2980   11.7421    0.0000 F   0  0  0  0  0  0  0  0  0  0  0  0
   -3.8504   10.6700    0.0000 O   0  0  0  0  0  0  0  0  0  0  0  0
   -3.6936    9.1782    0.0000 N   0  0  0  0  0  0  0  0  0  0  0  0
   -5.9995    4.1664    0.0000 C   0  0  0  0  0  0  0  0  0  0  0  0
   -6.3114    2.6992    0.0000 C   0  0  0  0  0  0  0  0  0  0  0  0
   -5.1967    1.6955    0.0000 C   0  0  0  0  0  0  0  0  0  0  0  0
   -4.0819    0.6918    0.0000 C   0  0  0  0  0  0  0  0  0  0  0  0
   -2.9672   -0.3119    0.0000 N   0  0  0  0  0  0  0  0  0  0  0  0
   -3.1240   -1.8037    0.0000 C   0  0  0  0  0  0  0  0  0  0  0  0
   -1.7537   -2.4138    0.0000 N   0  0  0  0  0  0  0  0  0  0  0  0
   -0.7500   -1.2990    0.0000 C   0  0  0  0  0  0  0  0  0  0  0  0
    0.7500   -1.2990    0.0000 C   0  0  0  0  0  0  0  0  0  0  0  0
    1.5000   -2.5981    0.0000 N   0  0  0  0  0  0  0  0  0  0  0  0
    3.0000   -2.5981    0.0000 C   0  0  0  0  0  0  0  0  0  0  0  0
    4.2990   -1.8481    0.0000 C   0  0  0  0  0  0  0  0  0  0  0  0
    4.2990   -3.3481    0.0000 C   0  0  0  0  0  0  0  0  0  0  0  0
    1.5000    0.0000    0.0000 C   0  0  0  0  0  0  0  0  0  0  0  0
    0.7500    1.2990    0.0000 C   0  0  0  0  0  0  0  0  0  0  0  0
   -0.7500    1.2990    0.0000 C   0  0  0  0  0  0  0  0  0  0  0  0
   -1.5000    0.0000    0.0000 C   0  0  0  0  0  0  0  0  0  0  0  0
  1  2  1  0
  2  3  2  0
  3  4  1  0
  4  5  2  0
  5  6  1  0
  6  7  2  0
  6  8  1  0
  8  9  1  0
  9 10  1  0
 10 11  2  0
 11 12  1  0
 12 13  1  0
 12 14  1  0
 12 15  1  0
 11 16  1  0
 16 17  1  0
  5 18  1  0
 18 19  2  0
 19 20  1  0
 20 21  3  0
 21 22  1  0
 22 23  1  0
 23 24  2  0
 24 25  1  0
 25 26  2  0
 26 27  1  0
 27 28  1  0
 28 29  1  0
 29 30  1  0
 26 31  1  0
 31 32  2  0
 32 33  1  0
 33 34  2  0
 19  2  1  0
 34 22  1  0
 17  9  2  0
 34 25  1  0
 30 28  1  0
M  END
>  <Compound_ID>  (103) 
CHEMBL1171280

>  <Active>  (103) 
1

>  <Smiles>  (103) 
Cc1ccc(C(=O)Nc2cc(C(F)(F)F)on2)cc1C#Cn1cnc2c(NC3CC3)cccc21

>  <canonical_smi>  (103) 
Cc1ccc(C(=O)Nc2cc(C(F)(F)F)on2)cc1C#Cn1cnc2c(NC3CC3)cccc21

>  <Set>  (103) 
G2 active

>  <Set_type>  (103) 
Train

>  <MW>  (103) 
465.44

>  <HBD>  (103) 
2

>  <HBA>  (103) 
5

>  <NRB>  (103) 
4

>  <NR>  (103) 
5

>  <NAR>  (103) 
4

>  <PSA>  (103) 
84.98

>  <Standard Type>  (103) 
nan

>  <Standard Relation>  (103) 
nan

>  <Standard Units>  (103) 
nan

>  <Standard Value>  (103) 
nan

>  <Assay ChEMBL ID>  (103) 
nan

>  <Assay Description>  (103) 
nan

>  <BAO Label>  (103) 
nan

$$$$

     RDKit          2D

 38 43  0  0  0  0  0  0  0  0999 V2000
    7.2990   -1.8481    0.0000 C   0  0  0  0  0  0  0  0  0  0  0  0
    6.0000   -2.5981    0.0000 C   0  0  0  0  0  0  0  0  0  0  0  0
    4.7010   -3.3481    0.0000 C   0  0  0  0  0  0  0  0  0  0  0  0
    6.7500   -3.8971    0.0000 C   0  0  0  0  0  0  0  0  0  0  0  0
    5.2500   -1.2990    0.0000 N   0  0  0  0  0  0  0  0  0  0  0  0
    3.7500   -1.2990    0.0000 C   0  0  0  0  0  0  0  0  0  0  0  0
    3.0000   -2.5981    0.0000 O   0  0  0  0  0  0  0  0  0  0  0  0
    3.0000    0.0000    0.0000 N   0  0  0  0  0  0  0  0  0  0  0  0
    1.5000    0.0000    0.0000 C   0  0  0  0  0  0  0  0  0  0  0  0
    0.7500   -1.2990    0.0000 C   0  0  0  0  0  0  0  0  0  0  0  0
   -0.7500   -1.2990    0.0000 C   0  0  0  0  0  0  0  0  0  0  0  0
   -1.5000    0.0000    0.0000 C   0  0  0  0  0  0  0  0  0  0  0  0
   -2.9672    0.3119    0.0000 N   0  0  0  0  0  0  0  0  0  0  0  0
   -3.1240    1.8037    0.0000 N   0  0  0  0  0  0  0  0  0  0  0  0
   -1.7537    2.4138    0.0000 C   0  0  0  0  0  0  0  0  0  0  0  0
   -1.4418    3.8810    0.0000 C   0  0  0  0  0  0  0  0  0  0  0  0
   -0.0715    4.4911    0.0000 N   0  0  0  0  0  0  0  0  0  0  0  0
   -0.2283    5.9829    0.0000 C   0  0  0  0  0  0  0  0  0  0  0  0
    0.7754    7.0976    0.0000 C   0  0  0  0  0  0  0  0  0  0  0  0
    0.3119    8.5242    0.0000 C   0  0  0  0  0  0  0  0  0  0  0  0
    1.3156    9.6389    0.0000 N   0  0  0  0  0  0  0  0  0  0  0  0
    2.7828    9.3270    0.0000 C   0  0  0  0  0  0  0  0  0  0  0  0
    3.7865   10.4417    0.0000 C   0  0  0  0  0  0  0  0  0  0  0  0
    3.3230   11.8683    0.0000 C   0  0  0  0  0  0  0  0  0  0  0  0
    4.3267   12.9830    0.0000 N   0  0  0  0  0  0  0  0  0  0  0  0
    5.7939   12.6712    0.0000 C   0  0  0  0  0  0  0  0  0  0  0  0
    6.7976   13.7859    0.0000 C   0  0  0  0  0  0  0  0  0  0  0  0
    6.3340   15.2125    0.0000 C   0  0  0  0  0  0  0  0  0  0  0  0
    4.8668   15.5243    0.0000 C   0  0  0  0  0  0  0  0  0  0  0  0
    3.8631   14.4096    0.0000 C   0  0  0  0  0  0  0  0  0  0  0  0
    1.8557   12.1802    0.0000 C   0  0  0  0  0  0  0  0  0  0  0  0
    0.8520   11.0655    0.0000 C   0  0  0  0  0  0  0  0  0  0  0  0
   -1.1554    8.8360    0.0000 C   0  0  0  0  0  0  0  0  0  0  0  0
   -2.1590    7.7213    0.0000 C   0  0  0  0  0  0  0  0  0  0  0  0
   -1.6955    6.2947    0.0000 C   0  0  0  0  0  0  0  0  0  0  0  0
   -2.4455    4.9957    0.0000 N   0  0  0  0  0  0  0  0  0  0  0  0
   -0.7500    1.2990    0.0000 C   0  0  0  0  0  0  0  0  0  0  0  0
    0.7500    1.2990    0.0000 C   0  0  0  0  0  0  0  0  0  0  0  0
  1  2  1  0
  2  3  1  0
  2  4  1  0
  2  5  1  0
  5  6  1  0
  6  7  2  0
  6  8  1  0
  8  9  1  0
  9 10  2  0
 10 11  1  0
 11 12  2  0
 12 13  1  0
 13 14  1  0
 14 15  2  0
 15 16  1  0
 16 17  2  0
 17 18  1  0
 18 19  2  0
 19 20  1  0
 20 21  1  0
 21 22  1  0
 22 23  1  0
 23 24  1  0
 24 25  1  0
 25 26  1  0
 26 27  1  0
 27 28  1  0
 28 29  1  0
 29 30  1  0
 24 31  1  0
 31 32  1  0
 20 33  2  0
 33 34  1  0
 34 35  2  0
 35 36  1  0
 15 37  1  0
 37 38  2  0
 38  9  1  0
 37 12  1  0
 36 16  1  0
 35 18  1  0
 32 21  1  0
 30 25  1  0
M  END
>  <Compound_ID>  (104) 
CHEMBL378024

>  <Active>  (104) 
1

>  <Smiles>  (104) 
CC(C)(C)NC(=O)Nc1ccc2[nH]nc(-c3nc4cc(N5CCC(N6CCCCC6)CC5)ccc4[nH]3)c2c1

>  <canonical_smi>  (104) 
CC(C)(C)NC(=O)Nc1ccc2[nH]nc(-c3nc4cc(N5CCC(N6CCCCC6)CC5)ccc4[nH]3)c2c1

>  <Set>  (104) 
G2 active

>  <Set_type>  (104) 
Train

>  <MW>  (104) 
514.68

>  <HBD>  (104) 
4

>  <HBA>  (104) 
5

>  <NRB>  (104) 
4

>  <NR>  (104) 
6

>  <NAR>  (104) 
4

>  <PSA>  (104) 
104.97

>  <Standard Type>  (104) 
nan

>  <Standard Relation>  (104) 
nan

>  <Standard Units>  (104) 
nan

>  <Standard Value>  (104) 
nan

>  <Assay ChEMBL ID>  (104) 
nan

>  <Assay Description>  (104) 
nan

>  <BAO Label>  (104) 
nan

$$$$

     RDKit          2D

 37 43  0  0  0  0  0  0  0  0999 V2000
   -0.7500   -6.4952    0.0000 C   0  0  0  0  0  0  0  0  0  0  0  0
   -1.5000   -5.1962    0.0000 C   0  0  0  0  0  0  0  0  0  0  0  0
   -0.7500   -3.8971    0.0000 C   0  0  0  0  0  0  0  0  0  0  0  0
    0.7500   -3.8971    0.0000 C   0  0  0  0  0  0  0  0  0  0  0  0
    1.5000   -2.5981    0.0000 O   0  0  0  0  0  0  0  0  0  0  0  0
    0.7500   -1.2990    0.0000 C   0  0  0  0  0  0  0  0  0  0  0  0
    1.5000    0.0000    0.0000 C   0  0  0  0  0  0  0  0  0  0  0  0
    0.7500    1.2990    0.0000 C   0  0  0  0  0  0  0  0  0  0  0  0
   -0.7500    1.2990    0.0000 C   0  0  0  0  0  0  0  0  0  0  0  0
   -1.7537    2.4138    0.0000 N   0  0  0  0  0  0  0  0  0  0  0  0
   -3.1240    1.8037    0.0000 N   0  0  0  0  0  0  0  0  0  0  0  0
   -2.9672    0.3119    0.0000 C   0  0  0  0  0  0  0  0  0  0  0  0
   -4.0819   -0.6918    0.0000 C   0  0  0  0  0  0  0  0  0  0  0  0
   -5.5492   -0.3800    0.0000 N   0  0  0  0  0  0  0  0  0  0  0  0
   -6.2992   -1.6790    0.0000 C   0  0  0  0  0  0  0  0  0  0  0  0
   -7.7664   -1.9909    0.0000 C   0  0  0  0  0  0  0  0  0  0  0  0
   -8.2299   -3.4175    0.0000 C   0  0  0  0  0  0  0  0  0  0  0  0
   -9.6971   -3.7293    0.0000 N   0  0  0  0  0  0  0  0  0  0  0  0
  -10.7008   -2.6146    0.0000 C   0  0  0  0  0  0  0  0  0  0  0  0
  -12.1680   -2.9265    0.0000 C   0  0  0  0  0  0  0  0  0  0  0  0
  -12.6316   -4.3531    0.0000 C   0  0  0  0  0  0  0  0  0  0  0  0
  -14.0988   -4.6649    0.0000 N   0  0  0  0  0  0  0  0  0  0  0  0
  -15.1025   -3.5502    0.0000 C   0  0  0  0  0  0  0  0  0  0  0  0
  -16.5697   -3.8621    0.0000 C   0  0  0  0  0  0  0  0  0  0  0  0
  -17.0332   -5.2887    0.0000 C   0  0  0  0  0  0  0  0  0  0  0  0
  -16.0295   -6.4034    0.0000 C   0  0  0  0  0  0  0  0  0  0  0  0
  -14.5623   -6.0915    0.0000 C   0  0  0  0  0  0  0  0  0  0  0  0
  -11.6279   -5.4678    0.0000 C   0  0  0  0  0  0  0  0  0  0  0  0
  -10.1607   -5.1559    0.0000 C   0  0  0  0  0  0  0  0  0  0  0  0
   -7.2262   -4.5322    0.0000 C   0  0  0  0  0  0  0  0  0  0  0  0
   -5.7590   -4.2203    0.0000 C   0  0  0  0  0  0  0  0  0  0  0  0
   -5.2955   -2.7937    0.0000 C   0  0  0  0  0  0  0  0  0  0  0  0
   -3.9251   -2.1836    0.0000 N   0  0  0  0  0  0  0  0  0  0  0  0
   -1.5000    0.0000    0.0000 C   0  0  0  0  0  0  0  0  0  0  0  0
   -0.7500   -1.2990    0.0000 C   0  0  0  0  0  0  0  0  0  0  0  0
    1.5000   -5.1962    0.0000 C   0  0  0  0  0  0  0  0  0  0  0  0
    0.7500   -6.4952    0.0000 C   0  0  0  0  0  0  0  0  0  0  0  0
  1  2  2  0
  2  3  1  0
  3  4  2  0
  4  5  1  0
  5  6  1  0
  6  7  1  0
  7  8  2  0
  8  9  1  0
  9 10  2  0
 10 11  1  0
 11 12  1  0
 12 13  1  0
 13 14  2  0
 14 15  1  0
 15 16  2  0
 16 17  1  0
 17 18  1  0
 18 19  1  0
 19 20  1  0
 20 21  1  0
 21 22  1  0
 22 23  1  0
 23 24  1  0
 24 25  1  0
 25 26  1  0
 26 27  1  0
 21 28  1  0
 28 29  1  0
 17 30  2  0
 30 31  1  0
 31 32  2  0
 32 33  1  0
 12 34  2  0
 34 35  1  0
  4 36  1  0
 36 37  2  0
 37  1  1  0
 35  6  2  0
 34  9  1  0
 33 13  1  0
 32 15  1  0
 29 18  1  0
 27 22  1  0
M  END
>  <Compound_ID>  (105) 
CHEMBL211662

>  <Active>  (105) 
1

>  <Smiles>  (105) 
c1ccc(Oc2ccc3n[nH]c(-c4nc5cc(N6CCC(N7CCCCC7)CC6)ccc5[nH]4)c3c2)cc1

>  <canonical_smi>  (105) 
c1ccc(Oc2ccc3n[nH]c(-c4nc5cc(N6CCC(N7CCCCC7)CC6)ccc5[nH]4)c3c2)cc1

>  <Set>  (105) 
G2 active

>  <Set_type>  (105) 
Train

>  <MW>  (105) 
492.63

>  <HBD>  (105) 
2

>  <HBA>  (105) 
5

>  <NRB>  (105) 
5

>  <NR>  (105) 
7

>  <NAR>  (105) 
5

>  <PSA>  (105) 
73.07

>  <Standard Type>  (105) 
nan

>  <Standard Relation>  (105) 
nan

>  <Standard Units>  (105) 
nan

>  <Standard Value>  (105) 
nan

>  <Assay ChEMBL ID>  (105) 
nan

>  <Assay Description>  (105) 
nan

>  <BAO Label>  (105) 
nan

$$$$

     RDKit          2D

 35 39  0  0  0  0  0  0  0  0999 V2000
   -8.0498    0.7685    0.0000 C   0  0  0  0  0  0  0  0  0  0  0  0
   -7.7380    2.2357    0.0000 C   0  0  0  0  0  0  0  0  0  0  0  0
   -8.8527    3.2394    0.0000 C   0  0  0  0  0  0  0  0  0  0  0  0
   -8.5408    4.7066    0.0000 C   0  0  0  0  0  0  0  0  0  0  0  0
   -7.1142    5.1701    0.0000 C   0  0  0  0  0  0  0  0  0  0  0  0
   -6.8024    6.6374    0.0000 C   0  0  0  0  0  0  0  0  0  0  0  0
   -7.9171    7.6411    0.0000 O   0  0  0  0  0  0  0  0  0  0  0  0
   -5.3758    7.1009    0.0000 N   0  0  0  0  0  0  0  0  0  0  0  0
   -5.0639    8.5681    0.0000 C   0  0  0  0  0  0  0  0  0  0  0  0
   -3.6373    9.0316    0.0000 C   0  0  0  0  0  0  0  0  0  0  0  0
   -3.3255   10.4989    0.0000 C   0  0  0  0  0  0  0  0  0  0  0  0
   -1.8989   10.9624    0.0000 C   0  0  0  0  0  0  0  0  0  0  0  0
   -0.4723   11.4259    0.0000 F   0  0  0  0  0  0  0  0  0  0  0  0
   -1.4353    9.5358    0.0000 F   0  0  0  0  0  0  0  0  0  0  0  0
   -2.3624   12.3890    0.0000 F   0  0  0  0  0  0  0  0  0  0  0  0
   -4.4402   11.5025    0.0000 C   0  0  0  0  0  0  0  0  0  0  0  0
   -5.8668   11.0390    0.0000 C   0  0  0  0  0  0  0  0  0  0  0  0
   -6.1786    9.5718    0.0000 N   0  0  0  0  0  0  0  0  0  0  0  0
   -5.9995    4.1664    0.0000 C   0  0  0  0  0  0  0  0  0  0  0  0
   -6.3114    2.6992    0.0000 C   0  0  0  0  0  0  0  0  0  0  0  0
   -5.1967    1.6955    0.0000 C   0  0  0  0  0  0  0  0  0  0  0  0
   -4.0819    0.6918    0.0000 C   0  0  0  0  0  0  0  0  0  0  0  0
   -2.9672   -0.3119    0.0000 N   0  0  0  0  0  0  0  0  0  0  0  0
   -3.1240   -1.8037    0.0000 C   0  0  0  0  0  0  0  0  0  0  0  0
   -1.7537   -2.4138    0.0000 N   0  0  0  0  0  0  0  0  0  0  0  0
   -0.7500   -1.2990    0.0000 C   0  0  0  0  0  0  0  0  0  0  0  0
    0.7500   -1.2990    0.0000 C   0  0  0  0  0  0  0  0  0  0  0  0
    1.5000   -2.5981    0.0000 N   0  0  0  0  0  0  0  0  0  0  0  0
    3.0000   -2.5981    0.0000 C   0  0  0  0  0  0  0  0  0  0  0  0
    4.2990   -1.8481    0.0000 C   0  0  0  0  0  0  0  0  0  0  0  0
    4.2990   -3.3481    0.0000 C   0  0  0  0  0  0  0  0  0  0  0  0
    1.5000    0.0000    0.0000 N   0  0  0  0  0  0  0  0  0  0  0  0
    0.7500    1.2990    0.0000 C   0  0  0  0  0  0  0  0  0  0  0  0
   -0.7500    1.2990    0.0000 N   0  0  0  0  0  0  0  0  0  0  0  0
   -1.5000    0.0000    0.0000 C   0  0  0  0  0  0  0  0  0  0  0  0
  1  2  1  0
  2  3  2  0
  3  4  1  0
  4  5  2  0
  5  6  1  0
  6  7  2  0
  6  8  1  0
  8  9  1  0
  9 10  2  0
 10 11  1  0
 11 12  1  0
 12 13  1  0
 12 14  1  0
 12 15  1  0
 11 16  2  0
 16 17  1  0
 17 18  2  0
  5 19  1  0
 19 20  2  0
 20 21  1  0
 21 22  3  0
 22 23  1  0
 23 24  1  0
 24 25  2  0
 25 26  1  0
 26 27  2  0
 27 28  1  0
 28 29  1  0
 29 30  1  0
 30 31  1  0
 27 32  1  0
 32 33  2  0
 33 34  1  0
 34 35  2  0
 20  2  1  0
 35 23  1  0
 18  9  1  0
 35 26  1  0
 31 29  1  0
M  END
>  <Compound_ID>  (106) 
CHEMBL1169875

>  <Active>  (106) 
1

>  <Smiles>  (106) 
Cc1ccc(C(=O)Nc2cc(C(F)(F)F)ccn2)cc1C#Cn1cnc2c(NC3CC3)ncnc21

>  <canonical_smi>  (106) 
Cc1ccc(C(=O)Nc2cc(C(F)(F)F)ccn2)cc1C#Cn1cnc2c(NC3CC3)ncnc21

>  <Set>  (106) 
G2 active

>  <Set_type>  (106) 
Train

>  <MW>  (106) 
477.45

>  <HBD>  (106) 
2

>  <HBA>  (106) 
6

>  <NRB>  (106) 
4

>  <NR>  (106) 
5

>  <NAR>  (106) 
4

>  <PSA>  (106) 
97.62

>  <Standard Type>  (106) 
nan

>  <Standard Relation>  (106) 
nan

>  <Standard Units>  (106) 
nan

>  <Standard Value>  (106) 
nan

>  <Assay ChEMBL ID>  (106) 
nan

>  <Assay Description>  (106) 
nan

>  <BAO Label>  (106) 
nan

$$$$

     RDKit          2D

 39 43  0  0  0  0  0  0  0  0999 V2000
    4.6740   -4.8322    0.0000 C   0  0  0  0  0  0  0  0  0  0  0  0
    3.3037   -4.2221    0.0000 C   0  0  0  0  0  0  0  0  0  0  0  0
    2.9918   -2.7549    0.0000 C   0  0  0  0  0  0  0  0  0  0  0  0
    1.5000   -2.5981    0.0000 N   0  0  0  0  0  0  0  0  0  0  0  0
    0.7500   -1.2990    0.0000 C   0  0  0  0  0  0  0  0  0  0  0  0
    1.5000    0.0000    0.0000 C   0  0  0  0  0  0  0  0  0  0  0  0
    0.7500    1.2990    0.0000 C   0  0  0  0  0  0  0  0  0  0  0  0
    1.5000    2.5981    0.0000 N   0  0  0  0  0  0  0  0  0  0  0  0
    3.0000    2.5981    0.0000 C   0  0  0  0  0  0  0  0  0  0  0  0
    3.7500    1.2990    0.0000 O   0  0  0  0  0  0  0  0  0  0  0  0
    3.7500    3.8971    0.0000 C   0  0  0  0  0  0  0  0  0  0  0  0
    5.2500    3.8971    0.0000 C   0  0  0  0  0  0  0  0  0  0  0  0
    6.0000    5.1962    0.0000 C   0  0  0  0  0  0  0  0  0  0  0  0
    5.2500    6.4952    0.0000 C   0  0  0  0  0  0  0  0  0  0  0  0
    6.0000    7.7942    0.0000 C   0  0  0  0  0  0  0  0  0  0  0  0
    3.7500    6.4952    0.0000 C   0  0  0  0  0  0  0  0  0  0  0  0
    3.0000    7.7942    0.0000 N   0  0  0  0  0  0  0  0  0  0  0  0
    1.5000    7.7942    0.0000 C   0  0  0  0  0  0  0  0  0  0  0  0
    0.7500    9.0933    0.0000 N   0  0  0  0  0  0  0  0  0  0  0  0
   -0.7500    9.0933    0.0000 C   0  0  0  0  0  0  0  0  0  0  0  0
   -1.5000    7.7942    0.0000 C   0  0  0  0  0  0  0  0  0  0  0  0
   -0.7500    6.4952    0.0000 C   0  0  0  0  0  0  0  0  0  0  0  0
   -1.5000    5.1962    0.0000 C   0  0  0  0  0  0  0  0  0  0  0  0
   -3.0000    5.1962    0.0000 C   0  0  0  0  0  0  0  0  0  0  0  0
   -3.7500    3.8971    0.0000 C   0  0  0  0  0  0  0  0  0  0  0  0
   -3.0000    2.5981    0.0000 C   0  0  0  0  0  0  0  0  0  0  0  0
   -1.5000    2.5981    0.0000 N   0  0  0  0  0  0  0  0  0  0  0  0
   -0.7500    3.8971    0.0000 C   0  0  0  0  0  0  0  0  0  0  0  0
    0.7500    6.4952    0.0000 N   0  0  0  0  0  0  0  0  0  0  0  0
    3.0000    5.1962    0.0000 C   0  0  0  0  0  0  0  0  0  0  0  0
   -0.7500    1.2990    0.0000 C   0  0  0  0  0  0  0  0  0  0  0  0
   -1.5000    0.0000    0.0000 C   0  0  0  0  0  0  0  0  0  0  0  0
   -3.0000    0.0000    0.0000 C   0  0  0  0  0  0  0  0  0  0  0  0
   -4.5000    0.0000    0.0000 F   0  0  0  0  0  0  0  0  0  0  0  0
   -3.0000    1.5000    0.0000 F   0  0  0  0  0  0  0  0  0  0  0  0
   -3.0000   -1.5000    0.0000 F   0  0  0  0  0  0  0  0  0  0  0  0
   -0.7500   -1.2990    0.0000 C   0  0  0  0  0  0  0  0  0  0  0  0
    0.8899   -3.9684    0.0000 C   0  0  0  0  0  0  0  0  0  0  0  0
    2.0046   -4.9721    0.0000 N   0  0  0  0  0  0  0  0  0  0  0  0
  1  2  1  0
  2  3  2  0
  3  4  1  0
  4  5  1  0
  5  6  2  0
  6  7  1  0
  7  8  1  0
  8  9  1  0
  9 10  2  0
  9 11  1  0
 11 12  2  0
 12 13  1  0
 13 14  2  0
 14 15  1  0
 14 16  1  0
 16 17  1  0
 17 18  1  0
 18 19  2  0
 19 20  1  0
 20 21  2  0
 21 22  1  0
 22 23  1  0
 23 24  2  0
 24 25  1  0
 25 26  2  0
 26 27  1  0
 27 28  2  0
 22 29  2  0
 16 30  2  0
  7 31  2  0
 31 32  1  0
 32 33  1  0
 33 34  1  0
 33 35  1  0
 33 36  1  0
 32 37  2  0
  4 38  1  0
 38 39  2  0
 39  2  1  0
 37  5  1  0
 30 11  1  0
 29 18  1  0
 28 23  1  0
M  END
>  <Compound_ID>  (107) 
CHEMBL255863

>  <Active>  (107) 
1

>  <Smiles>  (107) 
Cc1cn(-c2cc(NC(=O)c3ccc(C)c(Nc4nccc(-c5cccnc5)n4)c3)cc(C(F)(F)F)c2)cn1

>  <canonical_smi>  (107) 
Cc1cn(-c2cc(NC(=O)c3ccc(C)c(Nc4nccc(-c5cccnc5)n4)c3)cc(C(F)(F)F)c2)cn1

>  <Set>  (107) 
G2 active

>  <Set_type>  (107) 
Train

>  <MW>  (107) 
529.53

>  <HBD>  (107) 
2

>  <HBA>  (107) 
6

>  <NRB>  (107) 
6

>  <NR>  (107) 
5

>  <NAR>  (107) 
5

>  <PSA>  (107) 
97.62

>  <Standard Type>  (107) 
nan

>  <Standard Relation>  (107) 
nan

>  <Standard Units>  (107) 
nan

>  <Standard Value>  (107) 
nan

>  <Assay ChEMBL ID>  (107) 
nan

>  <Assay Description>  (107) 
nan

>  <BAO Label>  (107) 
nan

$$$$

     RDKit          2D

 31 34  0  0  0  0  0  0  0  0999 V2000
   -3.5757   -7.5908    0.0000 C   0  0  0  0  0  0  0  0  0  0  0  0
   -4.6904   -6.5871    0.0000 C   0  0  0  0  0  0  0  0  0  0  0  0
   -6.1170   -7.0506    0.0000 C   0  0  0  0  0  0  0  0  0  0  0  0
   -7.2317   -6.0469    0.0000 C   0  0  0  0  0  0  0  0  0  0  0  0
   -6.9199   -4.5797    0.0000 C   0  0  0  0  0  0  0  0  0  0  0  0
   -8.0346   -3.5760    0.0000 C   0  0  0  0  0  0  0  0  0  0  0  0
   -9.4612   -4.0396    0.0000 O   0  0  0  0  0  0  0  0  0  0  0  0
   -7.7227   -2.1088    0.0000 N   0  0  0  0  0  0  0  0  0  0  0  0
   -8.8374   -1.1051    0.0000 C   0  0  0  0  0  0  0  0  0  0  0  0
   -8.5256    0.3621    0.0000 C   0  0  0  0  0  0  0  0  0  0  0  0
   -9.6403    1.3658    0.0000 C   0  0  0  0  0  0  0  0  0  0  0  0
   -9.3284    2.8330    0.0000 C   0  0  0  0  0  0  0  0  0  0  0  0
   -9.0165    4.3002    0.0000 F   0  0  0  0  0  0  0  0  0  0  0  0
   -7.8612    2.5212    0.0000 F   0  0  0  0  0  0  0  0  0  0  0  0
  -10.7956    3.1449    0.0000 F   0  0  0  0  0  0  0  0  0  0  0  0
  -11.0669    0.9023    0.0000 C   0  0  0  0  0  0  0  0  0  0  0  0
  -11.3787   -0.5649    0.0000 C   0  0  0  0  0  0  0  0  0  0  0  0
  -10.2640   -1.5686    0.0000 N   0  0  0  0  0  0  0  0  0  0  0  0
   -5.4933   -4.1162    0.0000 C   0  0  0  0  0  0  0  0  0  0  0  0
   -4.3786   -5.1199    0.0000 C   0  0  0  0  0  0  0  0  0  0  0  0
   -2.9520   -4.6564    0.0000 C   0  0  0  0  0  0  0  0  0  0  0  0
   -2.6401   -3.1891    0.0000 C   0  0  0  0  0  0  0  0  0  0  0  0
   -1.2135   -2.7256    0.0000 N   0  0  0  0  0  0  0  0  0  0  0  0
   -0.0000   -3.6073    0.0000 C   0  0  0  0  0  0  0  0  0  0  0  0
    1.2135   -2.7256    0.0000 N   0  0  0  0  0  0  0  0  0  0  0  0
    0.7500   -1.2990    0.0000 C   0  0  0  0  0  0  0  0  0  0  0  0
    1.5000    0.0000    0.0000 C   0  0  0  0  0  0  0  0  0  0  0  0
    0.7500    1.2990    0.0000 N   0  0  0  0  0  0  0  0  0  0  0  0
   -0.7500    1.2990    0.0000 C   0  0  0  0  0  0  0  0  0  0  0  0
   -1.5000    0.0000    0.0000 N   0  0  0  0  0  0  0  0  0  0  0  0
   -0.7500   -1.2990    0.0000 C   0  0  0  0  0  0  0  0  0  0  0  0
  1  2  1  0
  2  3  2  0
  3  4  1  0
  4  5  2  0
  5  6  1  0
  6  7  2  0
  6  8  1  0
  8  9  1  0
  9 10  2  0
 10 11  1  0
 11 12  1  0
 12 13  1  0
 12 14  1  0
 12 15  1  0
 11 16  2  0
 16 17  1  0
 17 18  2  0
  5 19  1  0
 19 20  2  0
 20 21  1  0
 21 22  2  0
 22 23  1  0
 23 24  1  0
 24 25  2  0
 25 26  1  0
 26 27  2  0
 27 28  1  0
 28 29  2  0
 29 30  1  0
 30 31  2  0
 20  2  1  0
 31 23  1  0
 18  9  1  0
 31 26  1  0
M  END
>  <Compound_ID>  (108) 
CHEMBL550281

>  <Active>  (108) 
1

>  <Smiles>  (108) 
Cc1ccc(C(=O)Nc2cc(C(F)(F)F)ccn2)cc1/C=C/n1cnc2cncnc21

>  <canonical_smi>  (108) 
Cc1ccc(C(=O)Nc2cc(C(F)(F)F)ccn2)cc1/C=C/n1cnc2cncnc21

>  <Set>  (108) 
G2 active

>  <Set_type>  (108) 
Train

>  <MW>  (108) 
424.39

>  <HBD>  (108) 
1

>  <HBA>  (108) 
5

>  <NRB>  (108) 
4

>  <NR>  (108) 
4

>  <NAR>  (108) 
4

>  <PSA>  (108) 
85.59

>  <Standard Type>  (108) 
nan

>  <Standard Relation>  (108) 
nan

>  <Standard Units>  (108) 
nan

>  <Standard Value>  (108) 
nan

>  <Assay ChEMBL ID>  (108) 
nan

>  <Assay Description>  (108) 
nan

>  <BAO Label>  (108) 
nan

$$$$

     RDKit          2D

 29 32  0  0  0  0  0  0  0  0999 V2000
   -3.7527    6.6955    0.0000 C   0  0  0  0  0  0  0  0  0  0  0  0
   -2.6380    5.6918    0.0000 C   0  0  0  0  0  0  0  0  0  0  0  0
   -2.9499    4.2246    0.0000 S   0  0  0  0  0  0  0  0  0  0  0  0
   -1.8351    3.2209    0.0000 C   0  0  0  0  0  0  0  0  0  0  0  0
   -0.4086    3.6844    0.0000 N   0  0  0  0  0  0  0  0  0  0  0  0
    0.7062    2.6807    0.0000 C   0  0  0  0  0  0  0  0  0  0  0  0
    2.1328    3.1443    0.0000 N   0  0  0  0  0  0  0  0  0  0  0  0
    2.4446    4.6115    0.0000 C   0  0  0  0  0  0  0  0  0  0  0  0
    3.8712    5.0750    0.0000 C   0  0  0  0  0  0  0  0  0  0  0  0
    4.1831    6.5422    0.0000 C   0  0  0  0  0  0  0  0  0  0  0  0
    3.0684    7.5459    0.0000 C   0  0  0  0  0  0  0  0  0  0  0  0
    1.6418    7.0824    0.0000 C   0  0  0  0  0  0  0  0  0  0  0  0
    0.5271    8.0861    0.0000 Cl  0  0  0  0  0  0  0  0  0  0  0  0
    1.3299    5.6152    0.0000 C   0  0  0  0  0  0  0  0  0  0  0  0
    0.3943    1.2135    0.0000 C   0  0  0  0  0  0  0  0  0  0  0  0
    1.2760    0.0000    0.0000 C   0  0  0  0  0  0  0  0  0  0  0  0
    0.3943   -1.2135    0.0000 N   0  0  0  0  0  0  0  0  0  0  0  0
   -1.0323   -0.7500    0.0000 N   0  0  0  0  0  0  0  0  0  0  0  0
   -2.2458   -1.6317    0.0000 C   0  0  0  0  0  0  0  0  0  0  0  0
   -2.0890   -3.1235    0.0000 C   0  0  0  0  0  0  0  0  0  0  0  0
   -0.7187   -3.7336    0.0000 Cl  0  0  0  0  0  0  0  0  0  0  0  0
   -3.3025   -4.0051    0.0000 C   0  0  0  0  0  0  0  0  0  0  0  0
   -4.6729   -3.3950    0.0000 C   0  0  0  0  0  0  0  0  0  0  0  0
   -5.8864   -4.2767    0.0000 C   0  0  0  0  0  0  0  0  0  0  0  0
   -5.7296   -5.7685    0.0000 C   0  0  0  0  0  0  0  0  0  0  0  0
   -4.3593   -6.3786    0.0000 C   0  0  0  0  0  0  0  0  0  0  0  0
   -3.1458   -5.4969    0.0000 C   0  0  0  0  0  0  0  0  0  0  0  0
   -1.0323    0.7500    0.0000 C   0  0  0  0  0  0  0  0  0  0  0  0
   -2.1470    1.7537    0.0000 N   0  0  0  0  0  0  0  0  0  0  0  0
  1  2  1  0
  2  3  1  0
  3  4  1  0
  4  5  2  0
  5  6  1  0
  6  7  1  0
  7  8  1  0
  8  9  2  0
  9 10  1  0
 10 11  2  0
 11 12  1  0
 12 13  1  0
 12 14  2  0
  6 15  2  0
 15 16  1  0
 16 17  2  0
 17 18  1  0
 18 19  1  0
 19 20  1  0
 20 21  1  0
 20 22  1  0
 22 23  2  0
 23 24  1  0
 24 25  2  0
 25 26  1  0
 26 27  2  0
 18 28  1  0
 28 29  2  0
 29  4  1  0
 14  8  1  0
 28 15  1  0
 27 22  1  0
M  END
>  <Compound_ID>  (109) 
CHEMBL428029

>  <Active>  (109) 
1

>  <Smiles>  (109) 
CCSc1nc(Nc2cccc(Cl)c2)c2cnn(CC(Cl)c3ccccc3)c2n1

>  <canonical_smi>  (109) 
CCSc1nc(Nc2cccc(Cl)c2)c2cnn(CC(Cl)c3ccccc3)c2n1

>  <Set>  (109) 
G2 active

>  <Set_type>  (109) 
Train

>  <MW>  (109) 
444.39

>  <HBD>  (109) 
1

>  <HBA>  (109) 
5

>  <NRB>  (109) 
7

>  <NR>  (109) 
4

>  <NAR>  (109) 
4

>  <PSA>  (109) 
55.63

>  <Standard Type>  (109) 
nan

>  <Standard Relation>  (109) 
nan

>  <Standard Units>  (109) 
nan

>  <Standard Value>  (109) 
nan

>  <Assay ChEMBL ID>  (109) 
nan

>  <Assay Description>  (109) 
nan

>  <BAO Label>  (109) 
nan

$$$$

     RDKit          2D

 39 43  0  0  0  0  0  0  0  0999 V2000
  -11.5066   -0.8941    0.0000 C   0  0  0  0  0  0  0  0  0  0  0  0
  -10.5029   -2.0088    0.0000 C   0  0  0  0  0  0  0  0  0  0  0  0
  -10.9664   -3.4354    0.0000 C   0  0  0  0  0  0  0  0  0  0  0  0
   -9.9627   -4.5501    0.0000 C   0  0  0  0  0  0  0  0  0  0  0  0
   -8.4955   -4.2382    0.0000 C   0  0  0  0  0  0  0  0  0  0  0  0
   -7.4918   -5.3529    0.0000 N   0  0  0  0  0  0  0  0  0  0  0  0
   -7.8037   -6.8202    0.0000 N   0  0  0  0  0  0  0  0  0  0  0  0
   -6.5046   -7.5702    0.0000 C   0  0  0  0  0  0  0  0  0  0  0  0
   -6.3478   -9.0619    0.0000 C   0  0  0  0  0  0  0  0  0  0  0  0
   -4.8560   -8.9052    0.0000 C   0  0  0  0  0  0  0  0  0  0  0  0
   -7.8396   -9.2187    0.0000 C   0  0  0  0  0  0  0  0  0  0  0  0
   -6.1910  -10.5537    0.0000 C   0  0  0  0  0  0  0  0  0  0  0  0
   -5.3899   -6.5665    0.0000 C   0  0  0  0  0  0  0  0  0  0  0  0
   -6.0000   -5.1962    0.0000 C   0  0  0  0  0  0  0  0  0  0  0  0
   -5.2500   -3.8971    0.0000 N   0  0  0  0  0  0  0  0  0  0  0  0
   -3.7500   -3.8971    0.0000 C   0  0  0  0  0  0  0  0  0  0  0  0
   -3.0000   -5.1962    0.0000 O   0  0  0  0  0  0  0  0  0  0  0  0
   -3.0000   -2.5981    0.0000 N   0  0  0  0  0  0  0  0  0  0  0  0
   -1.5000   -2.5981    0.0000 C   0  0  0  0  0  0  0  0  0  0  0  0
   -0.7500   -3.8971    0.0000 C   0  0  0  0  0  0  0  0  0  0  0  0
    0.7500   -3.8971    0.0000 C   0  0  0  0  0  0  0  0  0  0  0  0
    1.5000   -2.5981    0.0000 C   0  0  0  0  0  0  0  0  0  0  0  0
    3.0000   -2.5981    0.0000 O   0  0  0  0  0  0  0  0  0  0  0  0
    3.7500   -3.8971    0.0000 C   0  0  0  0  0  0  0  0  0  0  0  0
    5.2500   -3.8971    0.0000 C   0  0  0  0  0  0  0  0  0  0  0  0
    6.0000   -5.1962    0.0000 N   0  0  0  0  0  0  0  0  0  0  0  0
    5.2500   -6.4952    0.0000 C   0  0  0  0  0  0  0  0  0  0  0  0
    6.0000   -7.7942    0.0000 C   0  0  0  0  0  0  0  0  0  0  0  0
    7.5000   -7.7942    0.0000 O   0  0  0  0  0  0  0  0  0  0  0  0
    8.2500   -6.4952    0.0000 C   0  0  0  0  0  0  0  0  0  0  0  0
    7.5000   -5.1962    0.0000 C   0  0  0  0  0  0  0  0  0  0  0  0
    0.7500   -1.2990    0.0000 C   0  0  0  0  0  0  0  0  0  0  0  0
    1.5000    0.0000    0.0000 C   0  0  0  0  0  0  0  0  0  0  0  0
    0.7500    1.2990    0.0000 C   0  0  0  0  0  0  0  0  0  0  0  0
   -0.7500    1.2990    0.0000 C   0  0  0  0  0  0  0  0  0  0  0  0
   -1.5000    0.0000    0.0000 C   0  0  0  0  0  0  0  0  0  0  0  0
   -0.7500   -1.2990    0.0000 C   0  0  0  0  0  0  0  0  0  0  0  0
   -8.0320   -2.8116    0.0000 C   0  0  0  0  0  0  0  0  0  0  0  0
   -9.0356   -1.6969    0.0000 C   0  0  0  0  0  0  0  0  0  0  0  0
  1  2  1  0
  2  3  2  0
  3  4  1  0
  4  5  2  0
  5  6  1  0
  6  7  1  0
  7  8  2  0
  8  9  1  0
  9 10  1  0
  9 11  1  0
  9 12  1  0
  8 13  1  0
 13 14  2  0
 14 15  1  0
 15 16  1  0
 16 17  2  0
 16 18  1  0
 18 19  1  0
 19 20  2  0
 20 21  1  0
 21 22  2  0
 22 23  1  0
 23 24  1  0
 24 25  1  0
 25 26  1  0
 26 27  1  0
 27 28  1  0
 28 29  1  0
 29 30  1  0
 30 31  1  0
 22 32  1  0
 32 33  2  0
 33 34  1  0
 34 35  2  0
 35 36  1  0
 36 37  2  0
  5 38  1  0
 38 39  2  0
 39  2  1  0
 14  6  1  0
 37 19  1  0
 31 26  1  0
 37 32  1  0
M  END
>  <Compound_ID>  (110) 
CHEMBL103667

>  <Active>  (110) 
1

>  <Smiles>  (110) 
Cc1ccc(-n2nc(C(C)(C)C)cc2NC(=O)Nc2ccc(OCCN3CCOCC3)c3ccccc23)cc1

>  <canonical_smi>  (110) 
Cc1ccc(-n2nc(C(C)(C)C)cc2NC(=O)Nc2ccc(OCCN3CCOCC3)c3ccccc23)cc1

>  <Set>  (110) 
G2 active

>  <Set_type>  (110) 
Train

>  <MW>  (110) 
527.67

>  <HBD>  (110) 
2

>  <HBA>  (110) 
5

>  <NRB>  (110) 
7

>  <NR>  (110) 
5

>  <NAR>  (110) 
4

>  <PSA>  (110) 
80.65

>  <Standard Type>  (110) 
nan

>  <Standard Relation>  (110) 
nan

>  <Standard Units>  (110) 
nan

>  <Standard Value>  (110) 
nan

>  <Assay ChEMBL ID>  (110) 
nan

>  <Assay Description>  (110) 
nan

>  <BAO Label>  (110) 
nan

$$$$

     RDKit          2D

 41 45  0  0  0  0  0  0  0  0999 V2000
    5.2500   -3.8971    0.0000 C   0  0  0  0  0  0  0  0  0  0  0  0
    4.5000   -5.1962    0.0000 C   0  0  0  0  0  0  0  0  0  0  0  0
    5.2500   -6.4952    0.0000 C   0  0  0  0  0  0  0  0  0  0  0  0
    4.5000   -7.7942    0.0000 C   0  0  0  0  0  0  0  0  0  0  0  0
    3.0000   -7.7942    0.0000 C   0  0  0  0  0  0  0  0  0  0  0  0
    2.2500   -9.0933    0.0000 C   0  0  0  0  0  0  0  0  0  0  0  0
    3.0000  -10.3923    0.0000 O   0  0  0  0  0  0  0  0  0  0  0  0
    0.7500   -9.0933    0.0000 N   0  0  0  0  0  0  0  0  0  0  0  0
    0.0000  -10.3923    0.0000 C   0  0  0  0  0  0  0  0  0  0  0  0
   -1.5000  -10.3923    0.0000 C   0  0  0  0  0  0  0  0  0  0  0  0
   -2.2500  -11.6913    0.0000 C   0  0  0  0  0  0  0  0  0  0  0  0
   -1.5000  -12.9904    0.0000 C   0  0  0  0  0  0  0  0  0  0  0  0
   -2.2500  -14.2894    0.0000 C   0  0  0  0  0  0  0  0  0  0  0  0
   -3.7500  -14.2894    0.0000 N   0  0  0  0  0  0  0  0  0  0  0  0
   -4.5000  -12.9904    0.0000 C   0  0  0  0  0  0  0  0  0  0  0  0
   -6.0000  -12.9904    0.0000 C   0  0  0  0  0  0  0  0  0  0  0  0
   -6.7500  -14.2894    0.0000 N   0  0  0  0  0  0  0  0  0  0  0  0
   -8.2500  -14.2894    0.0000 C   0  0  0  0  0  0  0  0  0  0  0  0
   -6.0000  -15.5885    0.0000 C   0  0  0  0  0  0  0  0  0  0  0  0
   -4.5000  -15.5885    0.0000 C   0  0  0  0  0  0  0  0  0  0  0  0
   -0.0000  -12.9904    0.0000 C   0  0  0  0  0  0  0  0  0  0  0  0
    0.7500  -14.2894    0.0000 C   0  0  0  0  0  0  0  0  0  0  0  0
    1.5000  -15.5885    0.0000 F   0  0  0  0  0  0  0  0  0  0  0  0
    2.0490  -13.5394    0.0000 F   0  0  0  0  0  0  0  0  0  0  0  0
   -0.5490  -15.0394    0.0000 F   0  0  0  0  0  0  0  0  0  0  0  0
    0.7500  -11.6913    0.0000 C   0  0  0  0  0  0  0  0  0  0  0  0
    2.2500   -6.4952    0.0000 C   0  0  0  0  0  0  0  0  0  0  0  0
    3.0000   -5.1962    0.0000 C   0  0  0  0  0  0  0  0  0  0  0  0
    2.2500   -3.8971    0.0000 C   0  0  0  0  0  0  0  0  0  0  0  0
    1.5000   -2.5981    0.0000 C   0  0  0  0  0  0  0  0  0  0  0  0
    0.7500   -1.2990    0.0000 C   0  0  0  0  0  0  0  0  0  0  0  0
    1.5000    0.0000    0.0000 C   0  0  0  0  0  0  0  0  0  0  0  0
    0.7500    1.2990    0.0000 N   0  0  0  0  0  0  0  0  0  0  0  0
   -0.7500    1.2990    0.0000 C   0  0  0  0  0  0  0  0  0  0  0  0
   -1.5000    0.0000    0.0000 C   0  0  0  0  0  0  0  0  0  0  0  0
   -0.7500   -1.2990    0.0000 C   0  0  0  0  0  0  0  0  0  0  0  0
   -3.0000    0.0000    0.0000 O   0  0  0  0  0  0  0  0  0  0  0  0
   -3.7500    1.2990    0.0000 C   0  0  0  0  0  0  0  0  0  0  0  0
   -3.0000    2.5981    0.0000 C   0  0  0  0  0  0  0  0  0  0  0  0
   -3.7500    3.8971    0.0000 O   0  0  0  0  0  0  0  0  0  0  0  0
   -1.5000    2.5981    0.0000 N   0  0  0  0  0  0  0  0  0  0  0  0
  1  2  1  0
  2  3  2  0
  3  4  1  0
  4  5  2  0
  5  6  1  0
  6  7  2  0
  6  8  1  0
  8  9  1  0
  9 10  2  0
 10 11  1  0
 11 12  2  0
 12 13  1  0
 13 14  1  0
 14 15  1  0
 15 16  1  0
 16 17  1  0
 17 18  1  0
 17 19  1  0
 19 20  1  0
 12 21  1  0
 21 22  1  0
 22 23  1  0
 22 24  1  0
 22 25  1  0
 21 26  2  0
  5 27  1  0
 27 28  2  0
 28 29  1  0
 29 30  3  0
 30 31  1  0
 31 32  2  0
 32 33  1  0
 33 34  2  0
 34 35  1  0
 35 36  2  0
 35 37  1  0
 37 38  1  0
 38 39  1  0
 39 40  2  0
 39 41  1  0
 28  2  1  0
 36 31  1  0
 26  9  1  0
 41 34  1  0
 20 14  1  0
M  END
>  <Compound_ID>  (111) 
CHEMBL1171247

>  <Active>  (111) 
1

>  <Smiles>  (111) 
Cc1ccc(C(=O)Nc2ccc(CN3CCN(C)CC3)c(C(F)(F)F)c2)cc1C#Cc1cnc2c(c1)OCC(=O)N2

>  <canonical_smi>  (111) 
Cc1ccc(C(=O)Nc2ccc(CN3CCN(C)CC3)c(C(F)(F)F)c2)cc1C#Cc1cnc2c(c1)OCC(=O)N2

>  <Set>  (111) 
G2 active

>  <Set_type>  (111) 
Train

>  <MW>  (111) 
563.58

>  <HBD>  (111) 
2

>  <HBA>  (111) 
6

>  <NRB>  (111) 
4

>  <NR>  (111) 
5

>  <NAR>  (111) 
3

>  <PSA>  (111) 
86.8

>  <Standard Type>  (111) 
nan

>  <Standard Relation>  (111) 
nan

>  <Standard Units>  (111) 
nan

>  <Standard Value>  (111) 
nan

>  <Assay ChEMBL ID>  (111) 
nan

>  <Assay Description>  (111) 
nan

>  <BAO Label>  (111) 
nan

$$$$

     RDKit          2D

 24 26  0  0  0  0  0  0  0  0999 V2000
    3.6172   -9.8037    0.0000 O   0  0  0  0  0  0  0  0  0  0  0  0
    4.8308   -8.9221    0.0000 C   0  0  0  0  0  0  0  0  0  0  0  0
    4.6740   -7.4303    0.0000 N   0  0  0  0  0  0  0  0  0  0  0  0
    3.3037   -6.8202    0.0000 C   0  0  0  0  0  0  0  0  0  0  0  0
    2.0046   -7.5702    0.0000 N   0  0  0  0  0  0  0  0  0  0  0  0
    0.8899   -6.5665    0.0000 N   0  0  0  0  0  0  0  0  0  0  0  0
    1.5000   -5.1962    0.0000 C   0  0  0  0  0  0  0  0  0  0  0  0
    0.7500   -3.8971    0.0000 S   0  0  0  0  0  0  0  0  0  0  0  0
    1.5000   -2.5981    0.0000 C   0  0  0  0  0  0  0  0  0  0  0  0
    0.7500   -1.2990    0.0000 C   0  0  0  0  0  0  0  0  0  0  0  0
    1.5000    0.0000    0.0000 C   0  0  0  0  0  0  0  0  0  0  0  0
    0.7500    1.2990    0.0000 C   0  0  0  0  0  0  0  0  0  0  0  0
   -0.7500    1.2990    0.0000 C   0  0  0  0  0  0  0  0  0  0  0  0
   -1.5000    2.5981    0.0000 F   0  0  0  0  0  0  0  0  0  0  0  0
   -1.5000    0.0000    0.0000 C   0  0  0  0  0  0  0  0  0  0  0  0
   -0.7500   -1.2990    0.0000 C   0  0  0  0  0  0  0  0  0  0  0  0
    2.9918   -5.3529    0.0000 S   0  0  0  0  0  0  0  0  0  0  0  0
    6.2011   -9.5322    0.0000 C   0  0  0  0  0  0  0  0  0  0  0  0
    6.3579  -11.0239    0.0000 C   0  0  0  0  0  0  0  0  0  0  0  0
    7.7282  -11.6340    0.0000 C   0  0  0  0  0  0  0  0  0  0  0  0
    8.9417  -10.7524    0.0000 C   0  0  0  0  0  0  0  0  0  0  0  0
   10.3120  -11.3625    0.0000 F   0  0  0  0  0  0  0  0  0  0  0  0
    8.7849   -9.2606    0.0000 C   0  0  0  0  0  0  0  0  0  0  0  0
    7.4146   -8.6505    0.0000 C   0  0  0  0  0  0  0  0  0  0  0  0
  1  2  2  0
  2  3  1  0
  3  4  1  0
  4  5  2  0
  5  6  1  0
  6  7  2  0
  7  8  1  0
  8  9  1  0
  9 10  1  0
 10 11  2  0
 11 12  1  0
 12 13  2  0
 13 14  1  0
 13 15  1  0
 15 16  2  0
  7 17  1  0
  2 18  1  0
 18 19  2  0
 19 20  1  0
 20 21  2  0
 21 22  1  0
 21 23  1  0
 23 24  2  0
 17  4  1  0
 24 18  1  0
 16 10  1  0
M  END
>  <Compound_ID>  (112) 
CHEMBL255738

>  <Active>  (112) 
1

>  <Smiles>  (112) 
O=C(Nc1nnc(SCc2ccc(F)cc2)s1)c1ccc(F)cc1

>  <canonical_smi>  (112) 
O=C(Nc1nnc(SCc2ccc(F)cc2)s1)c1ccc(F)cc1

>  <Set>  (112) 
G2 active

>  <Set_type>  (112) 
Train

>  <MW>  (112) 
363.41

>  <HBD>  (112) 
1

>  <HBA>  (112) 
4

>  <NRB>  (112) 
5

>  <NR>  (112) 
3

>  <NAR>  (112) 
3

>  <PSA>  (112) 
54.88

>  <Standard Type>  (112) 
nan

>  <Standard Relation>  (112) 
nan

>  <Standard Units>  (112) 
nan

>  <Standard Value>  (112) 
nan

>  <Assay ChEMBL ID>  (112) 
nan

>  <Assay Description>  (112) 
nan

>  <BAO Label>  (112) 
nan

$$$$

     RDKit          2D

 35 39  0  0  0  0  0  0  0  0999 V2000
    3.0000    0.0000    0.0000 C   0  0  0  0  0  0  0  0  0  0  0  0
    1.5000    0.0000    0.0000 C   0  0  0  0  0  0  0  0  0  0  0  0
    0.7500   -1.2990    0.0000 C   0  0  0  0  0  0  0  0  0  0  0  0
   -0.7500   -1.2990    0.0000 C   0  0  0  0  0  0  0  0  0  0  0  0
   -1.5000    0.0000    0.0000 C   0  0  0  0  0  0  0  0  0  0  0  0
   -3.0000    0.0000    0.0000 N   0  0  0  0  0  0  0  0  0  0  0  0
   -3.7500    1.2990    0.0000 C   0  0  0  0  0  0  0  0  0  0  0  0
   -3.0000    2.5981    0.0000 O   0  0  0  0  0  0  0  0  0  0  0  0
   -5.2500    1.2990    0.0000 N   0  0  0  0  0  0  0  0  0  0  0  0
   -6.0000    2.5981    0.0000 C   0  0  0  0  0  0  0  0  0  0  0  0
   -5.2500    3.8971    0.0000 C   0  0  0  0  0  0  0  0  0  0  0  0
   -6.0000    5.1962    0.0000 C   0  0  0  0  0  0  0  0  0  0  0  0
   -7.5000    5.1962    0.0000 C   0  0  0  0  0  0  0  0  0  0  0  0
   -8.2500    3.8971    0.0000 C   0  0  0  0  0  0  0  0  0  0  0  0
   -9.7500    3.8971    0.0000 N   0  0  0  0  0  0  0  0  0  0  0  0
  -10.6317    2.6836    0.0000 C   0  0  0  0  0  0  0  0  0  0  0  0
  -12.0583    3.1471    0.0000 C   0  0  0  0  0  0  0  0  0  0  0  0
  -12.0583    4.6471    0.0000 C   0  0  0  0  0  0  0  0  0  0  0  0
  -10.6317    5.1106    0.0000 C   0  0  0  0  0  0  0  0  0  0  0  0
   -7.5000    2.5981    0.0000 C   0  0  0  0  0  0  0  0  0  0  0  0
   -0.7500    1.2990    0.0000 C   0  0  0  0  0  0  0  0  0  0  0  0
    0.7500    1.2990    0.0000 C   0  0  0  0  0  0  0  0  0  0  0  0
    1.5000    2.5981    0.0000 N   0  0  0  0  0  0  0  0  0  0  0  0
    0.7500    3.8971    0.0000 C   0  0  0  0  0  0  0  0  0  0  0  0
   -0.7500    3.8971    0.0000 N   0  0  0  0  0  0  0  0  0  0  0  0
   -1.5000    5.1962    0.0000 C   0  0  0  0  0  0  0  0  0  0  0  0
   -0.7500    6.4952    0.0000 C   0  0  0  0  0  0  0  0  0  0  0  0
    0.7500    6.4952    0.0000 C   0  0  0  0  0  0  0  0  0  0  0  0
    1.5000    7.7942    0.0000 C   0  0  0  0  0  0  0  0  0  0  0  0
    3.0000    7.7942    0.0000 C   0  0  0  0  0  0  0  0  0  0  0  0
    3.7500    9.0933    0.0000 C   0  0  0  0  0  0  0  0  0  0  0  0
    3.0000   10.3923    0.0000 C   0  0  0  0  0  0  0  0  0  0  0  0
    1.5000   10.3923    0.0000 N   0  0  0  0  0  0  0  0  0  0  0  0
    0.7500    9.0933    0.0000 C   0  0  0  0  0  0  0  0  0  0  0  0
    1.5000    5.1962    0.0000 N   0  0  0  0  0  0  0  0  0  0  0  0
  1  2  1  0
  2  3  2  0
  3  4  1  0
  4  5  2  0
  5  6  1  0
  6  7  1  0
  7  8  2  0
  7  9  1  0
  9 10  1  0
 10 11  2  0
 11 12  1  0
 12 13  2  0
 13 14  1  0
 14 15  1  0
 15 16  1  0
 16 17  1  0
 17 18  1  0
 18 19  1  0
 14 20  2  0
  5 21  1  0
 21 22  2  0
 22 23  1  0
 23 24  1  0
 24 25  2  0
 25 26  1  0
 26 27  2  0
 27 28  1  0
 28 29  1  0
 29 30  2  0
 30 31  1  0
 31 32  2  0
 32 33  1  0
 33 34  2  0
 28 35  2  0
 22  2  1  0
 35 24  1  0
 20 10  1  0
 34 29  1  0
 19 15  1  0
M  END
>  <Compound_ID>  (113) 
CHEMBL184742

>  <Active>  (113) 
1

>  <Smiles>  (113) 
Cc1ccc(NC(=O)Nc2cccc(N3CCCC3)c2)cc1Nc1nccc(-c2cccnc2)n1

>  <canonical_smi>  (113) 
Cc1ccc(NC(=O)Nc2cccc(N3CCCC3)c2)cc1Nc1nccc(-c2cccnc2)n1

>  <Set>  (113) 
G2 active

>  <Set_type>  (113) 
Train

>  <MW>  (113) 
465.56

>  <HBD>  (113) 
3

>  <HBA>  (113) 
6

>  <NRB>  (113) 
6

>  <NR>  (113) 
5

>  <NAR>  (113) 
4

>  <PSA>  (113) 
95.07

>  <Standard Type>  (113) 
nan

>  <Standard Relation>  (113) 
nan

>  <Standard Units>  (113) 
nan

>  <Standard Value>  (113) 
nan

>  <Assay ChEMBL ID>  (113) 
nan

>  <Assay Description>  (113) 
nan

>  <BAO Label>  (113) 
nan

$$$$

     RDKit          2D

 39 43  0  0  0  0  0  0  0  0999 V2000
   -3.5757   -7.5908    0.0000 C   0  0  0  0  0  0  0  0  0  0  0  0
   -4.6904   -6.5871    0.0000 C   0  0  0  0  0  0  0  0  0  0  0  0
   -6.1170   -7.0506    0.0000 C   0  0  0  0  0  0  0  0  0  0  0  0
   -7.2317   -6.0469    0.0000 C   0  0  0  0  0  0  0  0  0  0  0  0
   -6.9199   -4.5797    0.0000 C   0  0  0  0  0  0  0  0  0  0  0  0
   -8.0346   -3.5760    0.0000 C   0  0  0  0  0  0  0  0  0  0  0  0
   -9.4612   -4.0396    0.0000 O   0  0  0  0  0  0  0  0  0  0  0  0
   -7.7227   -2.1088    0.0000 N   0  0  0  0  0  0  0  0  0  0  0  0
   -8.8374   -1.1051    0.0000 C   0  0  0  0  0  0  0  0  0  0  0  0
   -8.5256    0.3621    0.0000 C   0  0  0  0  0  0  0  0  0  0  0  0
   -9.6403    1.3658    0.0000 C   0  0  0  0  0  0  0  0  0  0  0  0
  -11.0669    0.9023    0.0000 C   0  0  0  0  0  0  0  0  0  0  0  0
  -12.1816    1.9060    0.0000 C   0  0  0  0  0  0  0  0  0  0  0  0
  -11.8697    3.3732    0.0000 N   0  0  0  0  0  0  0  0  0  0  0  0
  -10.4431    3.8367    0.0000 C   0  0  0  0  0  0  0  0  0  0  0  0
  -10.1313    5.3039    0.0000 C   0  0  0  0  0  0  0  0  0  0  0  0
  -11.2460    6.3076    0.0000 N   0  0  0  0  0  0  0  0  0  0  0  0
  -10.9341    7.7749    0.0000 C   0  0  0  0  0  0  0  0  0  0  0  0
  -12.6726    5.8441    0.0000 C   0  0  0  0  0  0  0  0  0  0  0  0
  -12.9844    4.3769    0.0000 C   0  0  0  0  0  0  0  0  0  0  0  0
  -11.3787   -0.5649    0.0000 C   0  0  0  0  0  0  0  0  0  0  0  0
  -12.8053   -1.0285    0.0000 C   0  0  0  0  0  0  0  0  0  0  0  0
  -14.2319   -1.4920    0.0000 F   0  0  0  0  0  0  0  0  0  0  0  0
  -12.3418   -2.4551    0.0000 F   0  0  0  0  0  0  0  0  0  0  0  0
  -13.2688    0.3981    0.0000 F   0  0  0  0  0  0  0  0  0  0  0  0
  -10.2640   -1.5686    0.0000 C   0  0  0  0  0  0  0  0  0  0  0  0
   -5.4933   -4.1162    0.0000 C   0  0  0  0  0  0  0  0  0  0  0  0
   -4.3786   -5.1199    0.0000 C   0  0  0  0  0  0  0  0  0  0  0  0
   -2.9520   -4.6564    0.0000 C   0  0  0  0  0  0  0  0  0  0  0  0
   -2.6401   -3.1891    0.0000 C   0  0  0  0  0  0  0  0  0  0  0  0
   -1.2135   -2.7256    0.0000 C   0  0  0  0  0  0  0  0  0  0  0  0
   -0.0000   -3.6073    0.0000 C   0  0  0  0  0  0  0  0  0  0  0  0
    1.2135   -2.7256    0.0000 N   0  0  0  0  0  0  0  0  0  0  0  0
    0.7500   -1.2990    0.0000 C   0  0  0  0  0  0  0  0  0  0  0  0
    1.5000    0.0000    0.0000 C   0  0  0  0  0  0  0  0  0  0  0  0
    0.7500    1.2990    0.0000 C   0  0  0  0  0  0  0  0  0  0  0  0
   -0.7500    1.2990    0.0000 C   0  0  0  0  0  0  0  0  0  0  0  0
   -1.5000    0.0000    0.0000 N   0  0  0  0  0  0  0  0  0  0  0  0
   -0.7500   -1.2990    0.0000 N   0  0  0  0  0  0  0  0  0  0  0  0
  1  2  1  0
  2  3  2  0
  3  4  1  0
  4  5  2  0
  5  6  1  0
  6  7  2  0
  6  8  1  0
  8  9  1  0
  9 10  2  0
 10 11  1  0
 11 12  2  0
 12 13  1  0
 13 14  1  0
 14 15  1  0
 15 16  1  0
 16 17  1  0
 17 18  1  0
 17 19  1  0
 19 20  1  0
 12 21  1  0
 21 22  1  0
 22 23  1  0
 22 24  1  0
 22 25  1  0
 21 26  2  0
  5 27  1  0
 27 28  2  0
 28 29  1  0
 29 30  2  0
 30 31  1  0
 31 32  2  0
 32 33  1  0
 33 34  2  0
 34 35  1  0
 35 36  2  0
 36 37  1  0
 37 38  2  0
 38 39  1  0
 28  2  1  0
 39 31  1  0
 26  9  1  0
 39 34  1  0
 20 14  1  0
M  END
>  <Compound_ID>  (114) 
CHEMBL1173201

>  <Active>  (114) 
1

>  <Smiles>  (114) 
Cc1ccc(C(=O)Nc2ccc(CN3CCN(C)CC3)c(C(F)(F)F)c2)cc1/C=C/c1cnc2cccnn12

>  <canonical_smi>  (114) 
Cc1ccc(C(=O)Nc2ccc(CN3CCN(C)CC3)c(C(F)(F)F)c2)cc1/C=C/c1cnc2cccnn12

>  <Set>  (114) 
G2 active

>  <Set_type>  (114) 
Train

>  <MW>  (114) 
534.59

>  <HBD>  (114) 
1

>  <HBA>  (114) 
5

>  <NRB>  (114) 
6

>  <NR>  (114) 
5

>  <NAR>  (114) 
4

>  <PSA>  (114) 
65.77

>  <Standard Type>  (114) 
nan

>  <Standard Relation>  (114) 
nan

>  <Standard Units>  (114) 
nan

>  <Standard Value>  (114) 
nan

>  <Assay ChEMBL ID>  (114) 
nan

>  <Assay Description>  (114) 
nan

>  <BAO Label>  (114) 
nan

$$$$

     RDKit          2D

 34 37  0  0  0  0  0  0  0  0999 V2000
   -3.7500   -6.4952    0.0000 C   0  0  0  0  0  0  0  0  0  0  0  0
   -3.0000   -5.1962    0.0000 O   0  0  0  0  0  0  0  0  0  0  0  0
   -1.5000   -5.1962    0.0000 C   0  0  0  0  0  0  0  0  0  0  0  0
   -0.7500   -3.8971    0.0000 C   0  0  0  0  0  0  0  0  0  0  0  0
    0.7500   -3.8971    0.0000 C   0  0  0  0  0  0  0  0  0  0  0  0
    1.5000   -2.5981    0.0000 N   0  0  0  0  0  0  0  0  0  0  0  0
    0.7500   -1.2990    0.0000 C   0  0  0  0  0  0  0  0  0  0  0  0
    1.5000    0.0000    0.0000 C   0  0  0  0  0  0  0  0  0  0  0  0
    3.0000    0.0000    0.0000 C   0  0  0  0  0  0  0  0  0  0  0  0
    4.5000    0.0000    0.0000 N   0  0  0  0  0  0  0  0  0  0  0  0
    0.7500    1.2990    0.0000 C   0  0  0  0  0  0  0  0  0  0  0  0
   -0.7500    1.2990    0.0000 N   0  0  0  0  0  0  0  0  0  0  0  0
   -1.5000    0.0000    0.0000 C   0  0  0  0  0  0  0  0  0  0  0  0
   -3.0000    0.0000    0.0000 C   0  0  0  0  0  0  0  0  0  0  0  0
   -3.7500   -1.2990    0.0000 C   0  0  0  0  0  0  0  0  0  0  0  0
   -5.2500   -1.2990    0.0000 O   0  0  0  0  0  0  0  0  0  0  0  0
   -6.0000    0.0000    0.0000 C   0  0  0  0  0  0  0  0  0  0  0  0
   -7.5000   -0.0000    0.0000 C   0  0  0  0  0  0  0  0  0  0  0  0
   -8.2500    1.2990    0.0000 C   0  0  0  0  0  0  0  0  0  0  0  0
   -9.7500    1.2990    0.0000 C   0  0  0  0  0  0  0  0  0  0  0  0
  -10.5000    0.0000    0.0000 C   0  0  0  0  0  0  0  0  0  0  0  0
   -9.7500   -1.2990    0.0000 C   0  0  0  0  0  0  0  0  0  0  0  0
   -8.2500   -1.2990    0.0000 N   0  0  0  0  0  0  0  0  0  0  0  0
   -7.5000   -2.5981    0.0000 C   0  0  0  0  0  0  0  0  0  0  0  0
   -3.0000   -2.5981    0.0000 C   0  0  0  0  0  0  0  0  0  0  0  0
   -3.7500   -3.8971    0.0000 O   0  0  0  0  0  0  0  0  0  0  0  0
   -5.2500   -3.8971    0.0000 C   0  0  0  0  0  0  0  0  0  0  0  0
   -1.5000   -2.5981    0.0000 C   0  0  0  0  0  0  0  0  0  0  0  0
   -0.7500   -1.2990    0.0000 C   0  0  0  0  0  0  0  0  0  0  0  0
    1.5000   -5.1962    0.0000 C   0  0  0  0  0  0  0  0  0  0  0  0
    3.0000   -5.1962    0.0000 Cl  0  0  0  0  0  0  0  0  0  0  0  0
    0.7500   -6.4952    0.0000 C   0  0  0  0  0  0  0  0  0  0  0  0
   -0.7500   -6.4952    0.0000 C   0  0  0  0  0  0  0  0  0  0  0  0
   -1.5000   -7.7942    0.0000 Cl  0  0  0  0  0  0  0  0  0  0  0  0
  1  2  1  0
  2  3  1  0
  3  4  2  0
  4  5  1  0
  5  6  1  0
  6  7  1  0
  7  8  2  0
  8  9  1  0
  9 10  3  0
  8 11  1  0
 11 12  2  0
 12 13  1  0
 13 14  2  0
 14 15  1  0
 15 16  1  0
 16 17  1  0
 17 18  1  0
 18 19  1  0
 19 20  1  0
 20 21  1  0
 21 22  1  0
 22 23  1  0
 23 24  1  0
 15 25  2  0
 25 26  1  0
 26 27  1  0
 25 28  1  0
 28 29  2  0
  5 30  2  0
 30 31  1  0
 30 32  1  0
 32 33  2  0
 33 34  1  0
 33  3  1  0
 29  7  1  0
 29 13  1  0
 23 18  1  0
M  END
>  <Compound_ID>  (115) 
CHEMBL296844

>  <Active>  (115) 
1

>  <Smiles>  (115) 
COc1cc(Nc2c(C#N)cnc3cc(OCC4CCCCN4C)c(OC)cc23)c(Cl)cc1Cl

>  <canonical_smi>  (115) 
COc1cc(Nc2c(C#N)cnc3cc(OCC4CCCCN4C)c(OC)cc23)c(Cl)cc1Cl

>  <Set>  (115) 
G2 active

>  <Set_type>  (115) 
Train

>  <MW>  (115) 
501.41

>  <HBD>  (115) 
1

>  <HBA>  (115) 
7

>  <NRB>  (115) 
7

>  <NR>  (115) 
4

>  <NAR>  (115) 
3

>  <PSA>  (115) 
79.64

>  <Standard Type>  (115) 
nan

>  <Standard Relation>  (115) 
nan

>  <Standard Units>  (115) 
nan

>  <Standard Value>  (115) 
nan

>  <Assay ChEMBL ID>  (115) 
nan

>  <Assay Description>  (115) 
nan

>  <BAO Label>  (115) 
nan

$$$$

     RDKit          2D

 28 31  0  0  0  0  0  0  0  0999 V2000
  -10.5759   -3.0359    0.0000 C   0  0  0  0  0  0  0  0  0  0  0  0
   -9.4612   -4.0396    0.0000 O   0  0  0  0  0  0  0  0  0  0  0  0
   -8.0346   -3.5760    0.0000 C   0  0  0  0  0  0  0  0  0  0  0  0
   -7.7227   -2.1088    0.0000 O   0  0  0  0  0  0  0  0  0  0  0  0
   -6.9199   -4.5797    0.0000 C   0  0  0  0  0  0  0  0  0  0  0  0
   -5.4933   -4.1162    0.0000 N   0  0  0  0  0  0  0  0  0  0  0  0
   -5.1814   -2.6490    0.0000 C   0  0  0  0  0  0  0  0  0  0  0  0
   -3.7548   -2.1855    0.0000 C   0  0  0  0  0  0  0  0  0  0  0  0
   -2.6401   -3.1891    0.0000 C   0  0  0  0  0  0  0  0  0  0  0  0
   -1.2135   -2.7256    0.0000 N   0  0  0  0  0  0  0  0  0  0  0  0
   -0.0000   -3.6073    0.0000 C   0  0  0  0  0  0  0  0  0  0  0  0
    1.2135   -2.7256    0.0000 C   0  0  0  0  0  0  0  0  0  0  0  0
    2.6401   -3.1891    0.0000 C   0  0  0  0  0  0  0  0  0  0  0  0
    2.9520   -4.6564    0.0000 C   0  0  0  0  0  0  0  0  0  0  0  0
    4.3786   -5.1199    0.0000 C   0  0  0  0  0  0  0  0  0  0  0  0
    5.4933   -4.1162    0.0000 C   0  0  0  0  0  0  0  0  0  0  0  0
    5.1814   -2.6490    0.0000 C   0  0  0  0  0  0  0  0  0  0  0  0
    6.2961   -1.6453    0.0000 O   0  0  0  0  0  0  0  0  0  0  0  0
    3.7548   -2.1855    0.0000 C   0  0  0  0  0  0  0  0  0  0  0  0
    0.7500   -1.2990    0.0000 C   0  0  0  0  0  0  0  0  0  0  0  0
    1.5000    0.0000    0.0000 C   0  0  0  0  0  0  0  0  0  0  0  0
    3.0000    0.0000    0.0000 N   0  0  0  0  0  0  0  0  0  0  0  0
    0.7500    1.2990    0.0000 N   0  0  0  0  0  0  0  0  0  0  0  0
   -0.7500    1.2990    0.0000 C   0  0  0  0  0  0  0  0  0  0  0  0
   -1.5000    0.0000    0.0000 N   0  0  0  0  0  0  0  0  0  0  0  0
   -0.7500   -1.2990    0.0000 C   0  0  0  0  0  0  0  0  0  0  0  0
   -2.9520   -4.6564    0.0000 C   0  0  0  0  0  0  0  0  0  0  0  0
   -4.3786   -5.1199    0.0000 C   0  0  0  0  0  0  0  0  0  0  0  0
  1  2  1  0
  2  3  1  0
  3  4  2  0
  3  5  1  0
  5  6  1  0
  6  7  1  0
  7  8  1  0
  8  9  1  0
  9 10  1  0
 10 11  1  0
 11 12  2  0
 12 13  1  0
 13 14  2  0
 14 15  1  0
 15 16  2  0
 16 17  1  0
 17 18  1  0
 17 19  2  0
 12 20  1  0
 20 21  2  0
 21 22  1  0
 21 23  1  0
 23 24  2  0
 24 25  1  0
 25 26  2  0
  9 27  1  0
 27 28  1  0
 28  6  1  0
 26 10  1  0
 19 13  1  0
 26 20  1  0
M  END
>  <Compound_ID>  (116) 
CHEMBL262276

>  <Active>  (116) 
1

>  <Smiles>  (116) 
COC(=O)CN1CCC(n2cc(-c3cccc(O)c3)c3c(N)ncnc32)CC1

>  <canonical_smi>  (116) 
COC(=O)CN1CCC(n2cc(-c3cccc(O)c3)c3c(N)ncnc32)CC1

>  <Set>  (116) 
G2 active

>  <Set_type>  (116) 
Train

>  <MW>  (116) 
381.44

>  <HBD>  (116) 
2

>  <HBA>  (116) 
7

>  <NRB>  (116) 
4

>  <NR>  (116) 
4

>  <NAR>  (116) 
3

>  <PSA>  (116) 
106.5

>  <Standard Type>  (116) 
nan

>  <Standard Relation>  (116) 
nan

>  <Standard Units>  (116) 
nan

>  <Standard Value>  (116) 
nan

>  <Assay ChEMBL ID>  (116) 
nan

>  <Assay Description>  (116) 
nan

>  <BAO Label>  (116) 
nan

$$$$

     RDKit          2D

 30 33  0  0  0  0  0  0  0  0999 V2000
   -5.2500   -3.8971    0.0000 C   0  0  0  0  0  0  0  0  0  0  0  0
   -3.7500   -3.8971    0.0000 O   0  0  0  0  0  0  0  0  0  0  0  0
   -3.0000   -2.5981    0.0000 C   0  0  0  0  0  0  0  0  0  0  0  0
   -1.5000   -2.5981    0.0000 C   0  0  0  0  0  0  0  0  0  0  0  0
   -0.7500   -1.2990    0.0000 C   0  0  0  0  0  0  0  0  0  0  0  0
    0.7500   -1.2990    0.0000 C   0  0  0  0  0  0  0  0  0  0  0  0
    1.5000   -2.5981    0.0000 N   0  0  0  0  0  0  0  0  0  0  0  0
    3.0000   -2.5981    0.0000 C   0  0  0  0  0  0  0  0  0  0  0  0
    3.7500   -3.8971    0.0000 C   0  0  0  0  0  0  0  0  0  0  0  0
    5.2500   -3.8971    0.0000 C   0  0  0  0  0  0  0  0  0  0  0  0
    6.0000   -2.5981    0.0000 C   0  0  0  0  0  0  0  0  0  0  0  0
    7.5000   -2.5981    0.0000 Br  0  0  0  0  0  0  0  0  0  0  0  0
    5.2500   -1.2990    0.0000 C   0  0  0  0  0  0  0  0  0  0  0  0
    3.7500   -1.2990    0.0000 C   0  0  0  0  0  0  0  0  0  0  0  0
    3.0000   -0.0000    0.0000 F   0  0  0  0  0  0  0  0  0  0  0  0
    1.5000    0.0000    0.0000 N   0  0  0  0  0  0  0  0  0  0  0  0
    0.7500    1.2990    0.0000 C   0  0  0  0  0  0  0  0  0  0  0  0
   -0.7500    1.2990    0.0000 N   0  0  0  0  0  0  0  0  0  0  0  0
   -1.5000    0.0000    0.0000 C   0  0  0  0  0  0  0  0  0  0  0  0
   -3.0000    0.0000    0.0000 C   0  0  0  0  0  0  0  0  0  0  0  0
   -3.7500   -1.2990    0.0000 C   0  0  0  0  0  0  0  0  0  0  0  0
   -5.2500   -1.2990    0.0000 O   0  0  0  0  0  0  0  0  0  0  0  0
   -6.0000    0.0000    0.0000 C   0  0  0  0  0  0  0  0  0  0  0  0
   -7.5000    0.0000    0.0000 C   0  0  0  0  0  0  0  0  0  0  0  0
   -8.2500    1.2990    0.0000 C   0  0  0  0  0  0  0  0  0  0  0  0
   -9.7500    1.2990    0.0000 C   0  0  0  0  0  0  0  0  0  0  0  0
  -10.5000    0.0000    0.0000 N   0  0  0  0  0  0  0  0  0  0  0  0
  -12.0000    0.0000    0.0000 C   0  0  0  0  0  0  0  0  0  0  0  0
   -9.7500   -1.2990    0.0000 C   0  0  0  0  0  0  0  0  0  0  0  0
   -8.2500   -1.2990    0.0000 C   0  0  0  0  0  0  0  0  0  0  0  0
  1  2  1  0
  2  3  1  0
  3  4  2  0
  4  5  1  0
  5  6  2  0
  6  7  1  0
  7  8  1  0
  8  9  2  0
  9 10  1  0
 10 11  2  0
 11 12  1  0
 11 13  1  0
 13 14  2  0
 14 15  1  0
  6 16  1  0
 16 17  2  0
 17 18  1  0
 18 19  2  0
 19 20  1  0
 20 21  2  0
 21 22  1  0
 22 23  1  0
 23 24  1  0
 24 25  1  0
 25 26  1  0
 26 27  1  0
 27 28  1  0
 27 29  1  0
 29 30  1  0
 21  3  1  0
 30 24  1  0
 19  5  1  0
 14  8  1  0
M  END
>  <Compound_ID>  (117) 
CHEMBL24828

>  <Active>  (117) 
1

>  <Smiles>  (117) 
COc1cc2c(Nc3ccc(Br)cc3F)ncnc2cc1OCC1CCN(C)CC1

>  <canonical_smi>  (117) 
COc1cc2c(Nc3ccc(Br)cc3F)ncnc2cc1OCC1CCN(C)CC1

>  <Set>  (117) 
G2 active

>  <Set_type>  (117) 
Train

>  <MW>  (117) 
475.36

>  <HBD>  (117) 
1

>  <HBA>  (117) 
6

>  <NRB>  (117) 
6

>  <NR>  (117) 
4

>  <NAR>  (117) 
3

>  <PSA>  (117) 
59.51

>  <Standard Type>  (117) 
nan

>  <Standard Relation>  (117) 
nan

>  <Standard Units>  (117) 
nan

>  <Standard Value>  (117) 
nan

>  <Assay ChEMBL ID>  (117) 
nan

>  <Assay Description>  (117) 
nan

>  <BAO Label>  (117) 
nan

$$$$

     RDKit          2D

 22 25  0  0  0  0  0  0  0  0999 V2000
    3.7500   -1.2990    0.0000 C   0  0  0  0  0  0  0  0  0  0  0  0
    3.0000    0.0000    0.0000 O   0  0  0  0  0  0  0  0  0  0  0  0
    1.5000    0.0000    0.0000 C   0  0  0  0  0  0  0  0  0  0  0  0
    0.7500   -1.2990    0.0000 C   0  0  0  0  0  0  0  0  0  0  0  0
   -0.7500   -1.2990    0.0000 C   0  0  0  0  0  0  0  0  0  0  0  0
   -1.5000    0.0000    0.0000 C   0  0  0  0  0  0  0  0  0  0  0  0
   -0.7500    1.2990    0.0000 C   0  0  0  0  0  0  0  0  0  0  0  0
    0.7500    1.2990    0.0000 C   0  0  0  0  0  0  0  0  0  0  0  0
   -1.7537    2.4138    0.0000 C   0  0  0  0  0  0  0  0  0  0  0  0
   -3.1240    1.8037    0.0000 C   0  0  0  0  0  0  0  0  0  0  0  0
   -4.5912    2.1155    0.0000 S   0  0  0  0  0  0  0  0  0  0  0  0
   -5.3412    0.8165    0.0000 C   0  0  0  0  0  0  0  0  0  0  0  0
   -6.8330    0.6597    0.0000 N   0  0  0  0  0  0  0  0  0  0  0  0
   -7.7147    1.8732    0.0000 C   0  0  0  0  0  0  0  0  0  0  0  0
   -7.1046    3.2435    0.0000 O   0  0  0  0  0  0  0  0  0  0  0  0
   -9.2065    1.7164    0.0000 C   0  0  0  0  0  0  0  0  0  0  0  0
   -9.9565    0.4174    0.0000 C   0  0  0  0  0  0  0  0  0  0  0  0
  -11.4237    0.7292    0.0000 C   0  0  0  0  0  0  0  0  0  0  0  0
  -11.5805    2.2210    0.0000 C   0  0  0  0  0  0  0  0  0  0  0  0
  -10.2102    2.8311    0.0000 S   0  0  0  0  0  0  0  0  0  0  0  0
   -4.3375   -0.2982    0.0000 N   0  0  0  0  0  0  0  0  0  0  0  0
   -2.9672    0.3119    0.0000 C   0  0  0  0  0  0  0  0  0  0  0  0
  1  2  1  0
  2  3  1  0
  3  4  2  0
  4  5  1  0
  5  6  2  0
  6  7  1  0
  7  8  2  0
  7  9  1  0
  9 10  1  0
 10 11  1  0
 11 12  1  0
 12 13  1  0
 13 14  1  0
 14 15  2  0
 14 16  1  0
 16 17  2  0
 17 18  1  0
 18 19  2  0
 19 20  1  0
 12 21  2  0
 21 22  1  0
  8  3  1  0
 22 10  2  0
 22  6  1  0
 20 16  1  0
M  END
>  <Compound_ID>  (118) 
CHEMBL477139

>  <Active>  (118) 
1

>  <Smiles>  (118) 
COc1ccc2c(c1)Cc1sc(NC(=O)c3cccs3)nc1-2

>  <canonical_smi>  (118) 
COc1ccc2c(c1)Cc1sc(NC(=O)c3cccs3)nc1-2

>  <Set>  (118) 
G2 active

>  <Set_type>  (118) 
Train

>  <MW>  (118) 
328.42

>  <HBD>  (118) 
1

>  <HBA>  (118) 
3

>  <NRB>  (118) 
3

>  <NR>  (118) 
4

>  <NAR>  (118) 
4

>  <PSA>  (118) 
51.22

>  <Standard Type>  (118) 
nan

>  <Standard Relation>  (118) 
nan

>  <Standard Units>  (118) 
nan

>  <Standard Value>  (118) 
nan

>  <Assay ChEMBL ID>  (118) 
nan

>  <Assay Description>  (118) 
nan

>  <BAO Label>  (118) 
nan

$$$$

     RDKit          2D

 33 36  0  0  0  0  0  0  0  0999 V2000
    3.5260    1.2990    0.0000 C   0  0  0  0  0  0  0  0  0  0  0  0
    2.7760    0.0000    0.0000 C   0  0  0  0  0  0  0  0  0  0  0  0
    1.2760    0.0000    0.0000 N   0  0  0  0  0  0  0  0  0  0  0  0
    0.3943    1.2135    0.0000 C   0  0  0  0  0  0  0  0  0  0  0  0
   -1.0323    0.7500    0.0000 N   0  0  0  0  0  0  0  0  0  0  0  0
   -1.0323   -0.7500    0.0000 C   0  0  0  0  0  0  0  0  0  0  0  0
   -2.1470   -1.7537    0.0000 C   0  0  0  0  0  0  0  0  0  0  0  0
   -3.5736   -1.2902    0.0000 N   0  0  0  0  0  0  0  0  0  0  0  0
   -4.6883   -2.2939    0.0000 C   0  0  0  0  0  0  0  0  0  0  0  0
   -6.1149   -1.8303    0.0000 C   0  0  0  0  0  0  0  0  0  0  0  0
   -7.2296   -2.8340    0.0000 C   0  0  0  0  0  0  0  0  0  0  0  0
   -6.9177   -4.3013    0.0000 C   0  0  0  0  0  0  0  0  0  0  0  0
   -8.0325   -5.3050    0.0000 P   0  0  0  0  0  0  0  0  0  0  0  0
   -9.0362   -4.1902    0.0000 O   0  0  0  0  0  0  0  0  0  0  0  0
   -7.0288   -6.4197    0.0000 O   0  0  0  0  0  0  0  0  0  0  0  0
   -9.1472   -6.3086    0.0000 C   0  0  0  0  0  0  0  0  0  0  0  0
   -8.8353   -7.7759    0.0000 P   0  0  0  0  0  0  0  0  0  0  0  0
   -8.5234   -9.2431    0.0000 O   0  0  0  0  0  0  0  0  0  0  0  0
  -10.3025   -8.0877    0.0000 O   0  0  0  0  0  0  0  0  0  0  0  0
   -7.3681   -7.4640    0.0000 O   0  0  0  0  0  0  0  0  0  0  0  0
   -5.4912   -4.7648    0.0000 C   0  0  0  0  0  0  0  0  0  0  0  0
   -4.3764   -3.7611    0.0000 C   0  0  0  0  0  0  0  0  0  0  0  0
   -1.8351   -3.2209    0.0000 N   0  0  0  0  0  0  0  0  0  0  0  0
   -0.4086   -3.6844    0.0000 C   0  0  0  0  0  0  0  0  0  0  0  0
   -0.0967   -5.1517    0.0000 C   0  0  0  0  0  0  0  0  0  0  0  0
   -1.2114   -6.1554    0.0000 C   0  0  0  0  0  0  0  0  0  0  0  0
   -0.8995   -7.6226    0.0000 C   0  0  0  0  0  0  0  0  0  0  0  0
    0.5271   -8.0861    0.0000 C   0  0  0  0  0  0  0  0  0  0  0  0
    0.8389   -9.5533    0.0000 N   0  0  0  0  0  0  0  0  0  0  0  0
    1.6418   -7.0824    0.0000 C   0  0  0  0  0  0  0  0  0  0  0  0
    1.3299   -5.6152    0.0000 C   0  0  0  0  0  0  0  0  0  0  0  0
    0.7062   -2.6807    0.0000 N   0  0  0  0  0  0  0  0  0  0  0  0
    0.3943   -1.2135    0.0000 C   0  0  0  0  0  0  0  0  0  0  0  0
  1  2  1  0
  2  3  1  0
  3  4  1  0
  4  5  2  0
  5  6  1  0
  6  7  2  0
  7  8  1  0
  8  9  1  0
  9 10  2  0
 10 11  1  0
 11 12  2  0
 12 13  1  0
 13 14  2  0
 13 15  1  0
 13 16  1  0
 16 17  1  0
 17 18  2  0
 17 19  1  0
 17 20  1  0
 12 21  1  0
 21 22  2  0
  7 23  1  0
 23 24  2  0
 24 25  1  0
 25 26  1  0
 26 27  1  0
 27 28  1  0
 28 29  1  0
 28 30  1  0
 30 31  1  0
 24 32  1  0
 32 33  2  0
 33  3  1  0
 33  6  1  0
 22  9  1  0
 31 25  1  0
M  END
>  <Compound_ID>  (119) 
CHEMBL1084268

>  <Active>  (119) 
1

>  <Smiles>  (119) 
CCn1cnc2c(Nc3ccc(P(=O)(O)CP(=O)(O)O)cc3)nc(C3CCC(N)CC3)nc21

>  <canonical_smi>  (119) 
CCn1cnc2c(Nc3ccc(P(=O)(O)CP(=O)(O)O)cc3)nc(C3CCC(N)CC3)nc21

>  <Set>  (119) 
G2 active

>  <Set_type>  (119) 
Train

>  <MW>  (119) 
494.43

>  <HBD>  (119) 
5

>  <HBA>  (119) 
10

>  <NRB>  (119) 
7

>  <NR>  (119) 
4

>  <NAR>  (119) 
3

>  <PSA>  (119) 
176.48

>  <Standard Type>  (119) 
nan

>  <Standard Relation>  (119) 
nan

>  <Standard Units>  (119) 
nan

>  <Standard Value>  (119) 
nan

>  <Assay ChEMBL ID>  (119) 
nan

>  <Assay Description>  (119) 
nan

>  <BAO Label>  (119) 
nan

$$$$

     RDKit          2D

 39 43  0  0  0  0  0  0  0  0999 V2000
   -4.6904   -6.5871    0.0000 C   0  0  0  0  0  0  0  0  0  0  0  0
   -5.8051   -5.5834    0.0000 C   0  0  0  0  0  0  0  0  0  0  0  0
   -7.2317   -6.0469    0.0000 C   0  0  0  0  0  0  0  0  0  0  0  0
   -8.3464   -5.0433    0.0000 C   0  0  0  0  0  0  0  0  0  0  0  0
   -8.0346   -3.5760    0.0000 C   0  0  0  0  0  0  0  0  0  0  0  0
   -9.1493   -2.5723    0.0000 C   0  0  0  0  0  0  0  0  0  0  0  0
  -10.5759   -3.0359    0.0000 O   0  0  0  0  0  0  0  0  0  0  0  0
   -8.8374   -1.1051    0.0000 N   0  0  0  0  0  0  0  0  0  0  0  0
   -9.9521   -0.1014    0.0000 C   0  0  0  0  0  0  0  0  0  0  0  0
   -9.6403    1.3658    0.0000 C   0  0  0  0  0  0  0  0  0  0  0  0
  -10.7550    2.3695    0.0000 C   0  0  0  0  0  0  0  0  0  0  0  0
  -12.1816    1.9060    0.0000 C   0  0  0  0  0  0  0  0  0  0  0  0
  -13.2963    2.9097    0.0000 C   0  0  0  0  0  0  0  0  0  0  0  0
  -12.9844    4.3769    0.0000 N   0  0  0  0  0  0  0  0  0  0  0  0
  -11.5578    4.8404    0.0000 C   0  0  0  0  0  0  0  0  0  0  0  0
  -11.2460    6.3076    0.0000 C   0  0  0  0  0  0  0  0  0  0  0  0
  -12.3607    7.3113    0.0000 N   0  0  0  0  0  0  0  0  0  0  0  0
  -12.0488    8.7786    0.0000 C   0  0  0  0  0  0  0  0  0  0  0  0
  -13.7873    6.8478    0.0000 C   0  0  0  0  0  0  0  0  0  0  0  0
  -14.0992    5.3806    0.0000 C   0  0  0  0  0  0  0  0  0  0  0  0
  -12.4935    0.4388    0.0000 C   0  0  0  0  0  0  0  0  0  0  0  0
  -13.9200   -0.0248    0.0000 C   0  0  0  0  0  0  0  0  0  0  0  0
  -15.3466   -0.4883    0.0000 F   0  0  0  0  0  0  0  0  0  0  0  0
  -13.4565   -1.4514    0.0000 F   0  0  0  0  0  0  0  0  0  0  0  0
  -14.3836    1.4018    0.0000 F   0  0  0  0  0  0  0  0  0  0  0  0
  -11.3787   -0.5649    0.0000 C   0  0  0  0  0  0  0  0  0  0  0  0
   -6.6080   -3.1125    0.0000 C   0  0  0  0  0  0  0  0  0  0  0  0
   -5.4933   -4.1162    0.0000 C   0  0  0  0  0  0  0  0  0  0  0  0
   -4.0667   -3.6527    0.0000 C   0  0  0  0  0  0  0  0  0  0  0  0
   -2.6401   -3.1891    0.0000 C   0  0  0  0  0  0  0  0  0  0  0  0
   -1.2135   -2.7256    0.0000 C   0  0  0  0  0  0  0  0  0  0  0  0
   -0.0000   -3.6073    0.0000 C   0  0  0  0  0  0  0  0  0  0  0  0
    1.2135   -2.7256    0.0000 N   0  0  0  0  0  0  0  0  0  0  0  0
    0.7500   -1.2990    0.0000 C   0  0  0  0  0  0  0  0  0  0  0  0
    1.5000    0.0000    0.0000 N   0  0  0  0  0  0  0  0  0  0  0  0
    0.7500    1.2990    0.0000 C   0  0  0  0  0  0  0  0  0  0  0  0
   -0.7500    1.2990    0.0000 C   0  0  0  0  0  0  0  0  0  0  0  0
   -1.5000    0.0000    0.0000 C   0  0  0  0  0  0  0  0  0  0  0  0
   -0.7500   -1.2990    0.0000 N   0  0  0  0  0  0  0  0  0  0  0  0
  1  2  1  0
  2  3  2  0
  3  4  1  0
  4  5  2  0
  5  6  1  0
  6  7  2  0
  6  8  1  0
  8  9  1  0
  9 10  2  0
 10 11  1  0
 11 12  2  0
 12 13  1  0
 13 14  1  0
 14 15  1  0
 15 16  1  0
 16 17  1  0
 17 18  1  0
 17 19  1  0
 19 20  1  0
 12 21  1  0
 21 22  1  0
 22 23  1  0
 22 24  1  0
 22 25  1  0
 21 26  2  0
  5 27  1  0
 27 28  2  0
 28 29  1  0
 29 30  3  0
 30 31  1  0
 31 32  2  0
 32 33  1  0
 33 34  2  0
 34 35  1  0
 35 36  2  0
 36 37  1  0
 37 38  2  0
 38 39  1  0
 28  2  1  0
 39 31  1  0
 26  9  1  0
 39 34  1  0
 20 14  1  0
M  END
>  <Compound_ID>  (120) 
CHEMBL1171835

>  <Active>  (120) 
1

>  <Smiles>  (120) 
Cc1ccc(C(=O)Nc2ccc(CN3CCN(C)CC3)c(C(F)(F)F)c2)cc1C#Cc1cnc2ncccn12

>  <canonical_smi>  (120) 
Cc1ccc(C(=O)Nc2ccc(CN3CCN(C)CC3)c(C(F)(F)F)c2)cc1C#Cc1cnc2ncccn12

>  <Set>  (120) 
G2 active

>  <Set_type>  (120) 
Train

>  <MW>  (120) 
532.57

>  <HBD>  (120) 
1

>  <HBA>  (120) 
5

>  <NRB>  (120) 
4

>  <NR>  (120) 
5

>  <NAR>  (120) 
4

>  <PSA>  (120) 
65.77

>  <Standard Type>  (120) 
nan

>  <Standard Relation>  (120) 
nan

>  <Standard Units>  (120) 
nan

>  <Standard Value>  (120) 
nan

>  <Assay ChEMBL ID>  (120) 
nan

>  <Assay Description>  (120) 
nan

>  <BAO Label>  (120) 
nan

$$$$

     RDKit          2D

 32 34  0  0  0  0  0  0  0  0999 V2000
    5.2500   -1.2990    0.0000 C   0  0  0  0  0  0  0  0  0  0  0  0
    3.7500   -1.2990    0.0000 N   0  0  0  0  0  0  0  0  0  0  0  0
    3.0000    0.0000    0.0000 C   0  0  0  0  0  0  0  0  0  0  0  0
    3.7500    1.2990    0.0000 O   0  0  0  0  0  0  0  0  0  0  0  0
    1.5000    0.0000    0.0000 C   0  0  0  0  0  0  0  0  0  0  0  0
    0.7500   -1.2990    0.0000 C   0  0  0  0  0  0  0  0  0  0  0  0
   -0.7500   -1.2990    0.0000 C   0  0  0  0  0  0  0  0  0  0  0  0
   -1.5000   -2.5981    0.0000 O   0  0  0  0  0  0  0  0  0  0  0  0
   -3.0000   -2.5981    0.0000 C   0  0  0  0  0  0  0  0  0  0  0  0
   -3.7500   -1.2990    0.0000 C   0  0  0  0  0  0  0  0  0  0  0  0
   -5.2500   -1.2990    0.0000 C   0  0  0  0  0  0  0  0  0  0  0  0
   -6.0000   -2.5981    0.0000 C   0  0  0  0  0  0  0  0  0  0  0  0
   -7.5000   -2.5981    0.0000 N   0  0  0  0  0  0  0  0  0  0  0  0
   -8.2500   -1.2990    0.0000 C   0  0  0  0  0  0  0  0  0  0  0  0
   -7.5000    0.0000    0.0000 O   0  0  0  0  0  0  0  0  0  0  0  0
   -9.7500   -1.2990    0.0000 N   0  0  0  0  0  0  0  0  0  0  0  0
  -10.5000    0.0000    0.0000 C   0  0  0  0  0  0  0  0  0  0  0  0
   -9.7500    1.2990    0.0000 C   0  0  0  0  0  0  0  0  0  0  0  0
  -10.5000    2.5981    0.0000 C   0  0  0  0  0  0  0  0  0  0  0  0
  -12.0000    2.5981    0.0000 C   0  0  0  0  0  0  0  0  0  0  0  0
  -12.7500    3.8971    0.0000 Cl  0  0  0  0  0  0  0  0  0  0  0  0
  -12.7500    1.2990    0.0000 C   0  0  0  0  0  0  0  0  0  0  0  0
  -14.2500    1.2990    0.0000 C   0  0  0  0  0  0  0  0  0  0  0  0
  -15.7500    1.2990    0.0000 F   0  0  0  0  0  0  0  0  0  0  0  0
  -14.2500   -0.2010    0.0000 F   0  0  0  0  0  0  0  0  0  0  0  0
  -14.2500    2.7990    0.0000 F   0  0  0  0  0  0  0  0  0  0  0  0
  -12.0000    0.0000    0.0000 C   0  0  0  0  0  0  0  0  0  0  0  0
   -5.2500   -3.8971    0.0000 C   0  0  0  0  0  0  0  0  0  0  0  0
   -3.7500   -3.8971    0.0000 C   0  0  0  0  0  0  0  0  0  0  0  0
   -1.5000    0.0000    0.0000 C   0  0  0  0  0  0  0  0  0  0  0  0
   -0.7500    1.2990    0.0000 C   0  0  0  0  0  0  0  0  0  0  0  0
    0.7500    1.2990    0.0000 N   0  0  0  0  0  0  0  0  0  0  0  0
  1  2  1  0
  2  3  1  0
  3  4  2  0
  3  5  1  0
  5  6  2  0
  6  7  1  0
  7  8  1  0
  8  9  1  0
  9 10  2  0
 10 11  1  0
 11 12  2  0
 12 13  1  0
 13 14  1  0
 14 15  2  0
 14 16  1  0
 16 17  1  0
 17 18  2  0
 18 19  1  0
 19 20  2  0
 20 21  1  0
 20 22  1  0
 22 23  1  0
 23 24  1  0
 23 25  1  0
 23 26  1  0
 22 27  2  0
 12 28  1  0
 28 29  2  0
  7 30  2  0
 30 31  1  0
 31 32  2  0
 32  5  1  0
 29  9  1  0
 27 17  1  0
M  END
>  <Compound_ID>  (121) 
CHEMBL1336

>  <Active>  (121) 
1

>  <Smiles>  (121) 
CNC(=O)c1cc(Oc2ccc(NC(=O)Nc3ccc(Cl)c(C(F)(F)F)c3)cc2)ccn1

>  <canonical_smi>  (121) 
CNC(=O)c1cc(Oc2ccc(NC(=O)Nc3ccc(Cl)c(C(F)(F)F)c3)cc2)ccn1

>  <Set>  (121) 
G2 active

>  <Set_type>  (121) 
Train

>  <MW>  (121) 
464.83

>  <HBD>  (121) 
3

>  <HBA>  (121) 
4

>  <NRB>  (121) 
5

>  <NR>  (121) 
3

>  <NAR>  (121) 
3

>  <PSA>  (121) 
92.35

>  <Standard Type>  (121) 
nan

>  <Standard Relation>  (121) 
nan

>  <Standard Units>  (121) 
nan

>  <Standard Value>  (121) 
nan

>  <Assay ChEMBL ID>  (121) 
nan

>  <Assay Description>  (121) 
nan

>  <BAO Label>  (121) 
nan

$$$$

     RDKit          2D

 33 36  0  0  0  0  0  0  0  0999 V2000
   -3.7500   -6.4952    0.0000 C   0  0  0  0  0  0  0  0  0  0  0  0
   -3.0000   -5.1962    0.0000 O   0  0  0  0  0  0  0  0  0  0  0  0
   -1.5000   -5.1962    0.0000 C   0  0  0  0  0  0  0  0  0  0  0  0
   -0.7500   -3.8971    0.0000 C   0  0  0  0  0  0  0  0  0  0  0  0
    0.7500   -3.8971    0.0000 C   0  0  0  0  0  0  0  0  0  0  0  0
    1.5000   -2.5981    0.0000 N   0  0  0  0  0  0  0  0  0  0  0  0
    0.7500   -1.2990    0.0000 C   0  0  0  0  0  0  0  0  0  0  0  0
    1.5000    0.0000    0.0000 C   0  0  0  0  0  0  0  0  0  0  0  0
    3.0000    0.0000    0.0000 C   0  0  0  0  0  0  0  0  0  0  0  0
    4.5000    0.0000    0.0000 N   0  0  0  0  0  0  0  0  0  0  0  0
    0.7500    1.2990    0.0000 C   0  0  0  0  0  0  0  0  0  0  0  0
   -0.7500    1.2990    0.0000 N   0  0  0  0  0  0  0  0  0  0  0  0
   -1.5000    0.0000    0.0000 C   0  0  0  0  0  0  0  0  0  0  0  0
   -3.0000    0.0000    0.0000 C   0  0  0  0  0  0  0  0  0  0  0  0
   -3.7500   -1.2990    0.0000 C   0  0  0  0  0  0  0  0  0  0  0  0
   -5.2500   -1.2990    0.0000 O   0  0  0  0  0  0  0  0  0  0  0  0
   -6.0000    0.0000    0.0000 C   0  0  0  0  0  0  0  0  0  0  0  0
   -5.2500    1.2990    0.0000 C   0  0  0  0  0  0  0  0  0  0  0  0
   -6.0000    2.5981    0.0000 C   0  0  0  0  0  0  0  0  0  0  0  0
   -7.5000    2.5981    0.0000 N   0  0  0  0  0  0  0  0  0  0  0  0
   -8.2500    3.8971    0.0000 C   0  0  0  0  0  0  0  0  0  0  0  0
   -8.2500    1.2990    0.0000 C   0  0  0  0  0  0  0  0  0  0  0  0
   -7.5000    0.0000    0.0000 C   0  0  0  0  0  0  0  0  0  0  0  0
   -3.0000   -2.5981    0.0000 C   0  0  0  0  0  0  0  0  0  0  0  0
   -3.7500   -3.8971    0.0000 O   0  0  0  0  0  0  0  0  0  0  0  0
   -5.2500   -3.8971    0.0000 C   0  0  0  0  0  0  0  0  0  0  0  0
   -1.5000   -2.5981    0.0000 C   0  0  0  0  0  0  0  0  0  0  0  0
   -0.7500   -1.2990    0.0000 C   0  0  0  0  0  0  0  0  0  0  0  0
    1.5000   -5.1962    0.0000 C   0  0  0  0  0  0  0  0  0  0  0  0
    3.0000   -5.1962    0.0000 Cl  0  0  0  0  0  0  0  0  0  0  0  0
    0.7500   -6.4952    0.0000 C   0  0  0  0  0  0  0  0  0  0  0  0
   -0.7500   -6.4952    0.0000 C   0  0  0  0  0  0  0  0  0  0  0  0
   -1.5000   -7.7942    0.0000 Cl  0  0  0  0  0  0  0  0  0  0  0  0
  1  2  1  0
  2  3  1  0
  3  4  2  0
  4  5  1  0
  5  6  1  0
  6  7  1  0
  7  8  2  0
  8  9  1  0
  9 10  3  0
  8 11  1  0
 11 12  2  0
 12 13  1  0
 13 14  2  0
 14 15  1  0
 15 16  1  0
 16 17  1  0
 17 18  1  0
 18 19  1  0
 19 20  1  0
 20 21  1  0
 20 22  1  0
 22 23  1  0
 15 24  2  0
 24 25  1  0
 25 26  1  0
 24 27  1  0
 27 28  2  0
  5 29  2  0
 29 30  1  0
 29 31  1  0
 31 32  2  0
 32 33  1  0
 32  3  1  0
 28  7  1  0
 28 13  1  0
 23 17  1  0
M  END
>  <Compound_ID>  (122) 
CHEMBL291297

>  <Active>  (122) 
1

>  <Smiles>  (122) 
COc1cc(Nc2c(C#N)cnc3cc(OC4CCN(C)CC4)c(OC)cc23)c(Cl)cc1Cl

>  <canonical_smi>  (122) 
COc1cc(Nc2c(C#N)cnc3cc(OC4CCN(C)CC4)c(OC)cc23)c(Cl)cc1Cl

>  <Set>  (122) 
G2 active

>  <Set_type>  (122) 
Train

>  <MW>  (122) 
487.39

>  <HBD>  (122) 
1

>  <HBA>  (122) 
7

>  <NRB>  (122) 
6

>  <NR>  (122) 
4

>  <NAR>  (122) 
3

>  <PSA>  (122) 
79.64

>  <Standard Type>  (122) 
nan

>  <Standard Relation>  (122) 
nan

>  <Standard Units>  (122) 
nan

>  <Standard Value>  (122) 
nan

>  <Assay ChEMBL ID>  (122) 
nan

>  <Assay Description>  (122) 
nan

>  <BAO Label>  (122) 
nan

$$$$

     RDKit          2D

 28 31  0  0  0  0  0  0  0  0999 V2000
    3.0000   -5.1962    0.0000 C   0  0  0  0  0  0  0  0  0  0  0  0
    1.5000   -5.1962    0.0000 O   0  0  0  0  0  0  0  0  0  0  0  0
    0.7500   -3.8971    0.0000 C   0  0  0  0  0  0  0  0  0  0  0  0
    1.5000   -2.5981    0.0000 C   0  0  0  0  0  0  0  0  0  0  0  0
    0.7500   -1.2990    0.0000 C   0  0  0  0  0  0  0  0  0  0  0  0
    1.5000    0.0000    0.0000 N   0  0  0  0  0  0  0  0  0  0  0  0
    0.7500    1.2990    0.0000 C   0  0  0  0  0  0  0  0  0  0  0  0
   -0.7500    1.2990    0.0000 C   0  0  0  0  0  0  0  0  0  0  0  0
   -1.5000    0.0000    0.0000 C   0  0  0  0  0  0  0  0  0  0  0  0
   -3.0000    0.0000    0.0000 O   0  0  0  0  0  0  0  0  0  0  0  0
   -3.7500    1.2990    0.0000 C   0  0  0  0  0  0  0  0  0  0  0  0
   -3.0000    2.5981    0.0000 C   0  0  0  0  0  0  0  0  0  0  0  0
   -3.7500    3.8971    0.0000 C   0  0  0  0  0  0  0  0  0  0  0  0
   -5.2500    3.8971    0.0000 C   0  0  0  0  0  0  0  0  0  0  0  0
   -6.0000    5.1962    0.0000 C   0  0  0  0  0  0  0  0  0  0  0  0
   -5.2500    6.4952    0.0000 C   0  0  0  0  0  0  0  0  0  0  0  0
   -6.0000    7.7942    0.0000 N   0  0  0  0  0  0  0  0  0  0  0  0
   -3.7500    6.4952    0.0000 O   0  0  0  0  0  0  0  0  0  0  0  0
   -7.5000    5.1962    0.0000 C   0  0  0  0  0  0  0  0  0  0  0  0
   -8.2500    3.8971    0.0000 C   0  0  0  0  0  0  0  0  0  0  0  0
   -7.5000    2.5981    0.0000 C   0  0  0  0  0  0  0  0  0  0  0  0
   -6.0000    2.5981    0.0000 C   0  0  0  0  0  0  0  0  0  0  0  0
   -5.2500    1.2990    0.0000 C   0  0  0  0  0  0  0  0  0  0  0  0
   -0.7500   -1.2990    0.0000 C   0  0  0  0  0  0  0  0  0  0  0  0
   -1.5000   -2.5981    0.0000 C   0  0  0  0  0  0  0  0  0  0  0  0
   -0.7500   -3.8971    0.0000 C   0  0  0  0  0  0  0  0  0  0  0  0
   -1.5000   -5.1962    0.0000 O   0  0  0  0  0  0  0  0  0  0  0  0
   -3.0000   -5.1962    0.0000 C   0  0  0  0  0  0  0  0  0  0  0  0
  1  2  1  0
  2  3  1  0
  3  4  2  0
  4  5  1  0
  5  6  2  0
  6  7  1  0
  7  8  2  0
  8  9  1  0
  9 10  1  0
 10 11  1  0
 11 12  2  0
 12 13  1  0
 13 14  2  0
 14 15  1  0
 15 16  1  0
 16 17  1  0
 16 18  2  0
 15 19  2  0
 19 20  1  0
 20 21  2  0
 21 22  1  0
 22 23  2  0
  9 24  2  0
 24 25  1  0
 25 26  2  0
 26 27  1  0
 27 28  1  0
 26  3  1  0
 24  5  1  0
 23 11  1  0
 22 14  1  0
M  END
>  <Compound_ID>  (123) 
CHEMBL271984

>  <Active>  (123) 
1

>  <Smiles>  (123) 
COc1cc2nccc(Oc3ccc4c(C(N)=O)cccc4c3)c2cc1OC

>  <canonical_smi>  (123) 
COc1cc2nccc(Oc3ccc4c(C(N)=O)cccc4c3)c2cc1OC

>  <Set>  (123) 
G2 active

>  <Set_type>  (123) 
Train

>  <MW>  (123) 
374.4

>  <HBD>  (123) 
1

>  <HBA>  (123) 
5

>  <NRB>  (123) 
5

>  <NR>  (123) 
4

>  <NAR>  (123) 
4

>  <PSA>  (123) 
83.67

>  <Standard Type>  (123) 
nan

>  <Standard Relation>  (123) 
nan

>  <Standard Units>  (123) 
nan

>  <Standard Value>  (123) 
nan

>  <Assay ChEMBL ID>  (123) 
nan

>  <Assay Description>  (123) 
nan

>  <BAO Label>  (123) 
nan

$$$$

     RDKit          2D

 33 35  0  0  0  0  0  0  0  0999 V2000
    5.2500   -1.2990    0.0000 C   0  0  0  0  0  0  0  0  0  0  0  0
    3.7500   -1.2990    0.0000 C   0  0  0  0  0  0  0  0  0  0  0  0
    3.0000    0.0000    0.0000 O   0  0  0  0  0  0  0  0  0  0  0  0
    1.5000    0.0000    0.0000 C   0  0  0  0  0  0  0  0  0  0  0  0
    0.7500   -1.2990    0.0000 C   0  0  0  0  0  0  0  0  0  0  0  0
   -0.7500   -1.2990    0.0000 C   0  0  0  0  0  0  0  0  0  0  0  0
   -1.5000   -2.5981    0.0000 N   0  0  0  0  0  0  0  0  0  0  0  0
   -3.0000   -2.5981    0.0000 C   0  0  0  0  0  0  0  0  0  0  0  0
   -3.7500   -1.2990    0.0000 C   0  0  0  0  0  0  0  0  0  0  0  0
   -5.2500   -1.2990    0.0000 C   0  0  0  0  0  0  0  0  0  0  0  0
   -6.7500   -1.2990    0.0000 N   0  0  0  0  0  0  0  0  0  0  0  0
   -3.0000    0.0000    0.0000 C   0  0  0  0  0  0  0  0  0  0  0  0
   -3.7500    1.2990    0.0000 N   0  0  0  0  0  0  0  0  0  0  0  0
   -3.0000    2.5981    0.0000 C   0  0  0  0  0  0  0  0  0  0  0  0
   -1.5000    2.5981    0.0000 C   0  0  0  0  0  0  0  0  0  0  0  0
   -0.7500    3.8971    0.0000 C   0  0  0  0  0  0  0  0  0  0  0  0
   -1.5000    5.1962    0.0000 C   0  0  0  0  0  0  0  0  0  0  0  0
   -0.7500    6.4952    0.0000 F   0  0  0  0  0  0  0  0  0  0  0  0
   -3.0000    5.1962    0.0000 C   0  0  0  0  0  0  0  0  0  0  0  0
   -3.7500    6.4952    0.0000 Cl  0  0  0  0  0  0  0  0  0  0  0  0
   -3.7500    3.8971    0.0000 C   0  0  0  0  0  0  0  0  0  0  0  0
   -1.5000    0.0000    0.0000 C   0  0  0  0  0  0  0  0  0  0  0  0
   -0.7500    1.2990    0.0000 C   0  0  0  0  0  0  0  0  0  0  0  0
    0.7500    1.2990    0.0000 C   0  0  0  0  0  0  0  0  0  0  0  0
    1.5000    2.5981    0.0000 N   0  0  0  0  0  0  0  0  0  0  0  0
    3.0000    2.5981    0.0000 C   0  0  0  0  0  0  0  0  0  0  0  0
    3.7500    1.2990    0.0000 O   0  0  0  0  0  0  0  0  0  0  0  0
    3.7500    3.8971    0.0000 C   0  0  0  0  0  0  0  0  0  0  0  0
    5.2500    3.8971    0.0000 C   0  0  0  0  0  0  0  0  0  0  0  0
    6.0000    5.1962    0.0000 C   0  0  0  0  0  0  0  0  0  0  0  0
    7.5000    5.1962    0.0000 N   0  0  0  0  0  0  0  0  0  0  0  0
    8.2500    6.4952    0.0000 C   0  0  0  0  0  0  0  0  0  0  0  0
    8.2500    3.8971    0.0000 C   0  0  0  0  0  0  0  0  0  0  0  0
  1  2  1  0
  2  3  1  0
  3  4  1  0
  4  5  2  0
  5  6  1  0
  6  7  2  0
  7  8  1  0
  8  9  2  0
  9 10  1  0
 10 11  3  0
  9 12  1  0
 12 13  1  0
 13 14  1  0
 14 15  2  0
 15 16  1  0
 16 17  2  0
 17 18  1  0
 17 19  1  0
 19 20  1  0
 19 21  2  0
 12 22  2  0
 22 23  1  0
 23 24  2  0
 24 25  1  0
 25 26  1  0
 26 27  2  0
 26 28  1  0
 28 29  2  0
 29 30  1  0
 30 31  1  0
 31 32  1  0
 31 33  1  0
 24  4  1  0
 22  6  1  0
 21 14  1  0
M  END
>  <Compound_ID>  (124) 
CHEMBL607707

>  <Active>  (124) 
1

>  <Smiles>  (124) 
CCOc1cc2ncc(C#N)c(Nc3ccc(F)c(Cl)c3)c2cc1NC(=O)/C=C/CN(C)C

>  <canonical_smi>  (124) 
CCOc1cc2ncc(C#N)c(Nc3ccc(F)c(Cl)c3)c2cc1NC(=O)/C=C/CN(C)C

>  <Set>  (124) 
G2 active

>  <Set_type>  (124) 
Train

>  <MW>  (124) 
467.93

>  <HBD>  (124) 
2

>  <HBA>  (124) 
6

>  <NRB>  (124) 
8

>  <NR>  (124) 
3

>  <NAR>  (124) 
3

>  <PSA>  (124) 
90.28

>  <Standard Type>  (124) 
nan

>  <Standard Relation>  (124) 
nan

>  <Standard Units>  (124) 
nan

>  <Standard Value>  (124) 
nan

>  <Assay ChEMBL ID>  (124) 
nan

>  <Assay Description>  (124) 
nan

>  <BAO Label>  (124) 
nan

$$$$

     RDKit          2D

 26 28  0  0  0  0  0  0  0  0999 V2000
    5.6097    7.0058    0.0000 C   0  0  0  0  0  0  0  0  0  0  0  0
    4.1831    6.5422    0.0000 C   0  0  0  0  0  0  0  0  0  0  0  0
    3.8712    5.0750    0.0000 C   0  0  0  0  0  0  0  0  0  0  0  0
    2.4446    4.6115    0.0000 C   0  0  0  0  0  0  0  0  0  0  0  0
    2.1328    3.1443    0.0000 N   0  0  0  0  0  0  0  0  0  0  0  0
    0.7062    2.6807    0.0000 C   0  0  0  0  0  0  0  0  0  0  0  0
   -0.4086    3.6844    0.0000 N   0  0  0  0  0  0  0  0  0  0  0  0
   -1.8351    3.2209    0.0000 C   0  0  0  0  0  0  0  0  0  0  0  0
   -2.9499    4.2246    0.0000 S   0  0  0  0  0  0  0  0  0  0  0  0
   -2.6380    5.6918    0.0000 C   0  0  0  0  0  0  0  0  0  0  0  0
   -2.1470    1.7537    0.0000 N   0  0  0  0  0  0  0  0  0  0  0  0
   -1.0323    0.7500    0.0000 C   0  0  0  0  0  0  0  0  0  0  0  0
    0.3943    1.2135    0.0000 C   0  0  0  0  0  0  0  0  0  0  0  0
    1.2760    0.0000    0.0000 C   0  0  0  0  0  0  0  0  0  0  0  0
    0.3943   -1.2135    0.0000 N   0  0  0  0  0  0  0  0  0  0  0  0
   -1.0323   -0.7500    0.0000 N   0  0  0  0  0  0  0  0  0  0  0  0
   -2.2458   -1.6317    0.0000 C   0  0  0  0  0  0  0  0  0  0  0  0
   -2.0890   -3.1235    0.0000 C   0  0  0  0  0  0  0  0  0  0  0  0
   -0.7187   -3.7336    0.0000 Cl  0  0  0  0  0  0  0  0  0  0  0  0
   -3.3025   -4.0051    0.0000 C   0  0  0  0  0  0  0  0  0  0  0  0
   -4.6729   -3.3950    0.0000 C   0  0  0  0  0  0  0  0  0  0  0  0
   -5.8864   -4.2767    0.0000 C   0  0  0  0  0  0  0  0  0  0  0  0
   -5.7296   -5.7685    0.0000 C   0  0  0  0  0  0  0  0  0  0  0  0
   -6.9431   -6.6502    0.0000 F   0  0  0  0  0  0  0  0  0  0  0  0
   -4.3593   -6.3786    0.0000 C   0  0  0  0  0  0  0  0  0  0  0  0
   -3.1458   -5.4969    0.0000 C   0  0  0  0  0  0  0  0  0  0  0  0
  1  2  1  0
  2  3  1  0
  3  4  1  0
  4  5  1  0
  5  6  1  0
  6  7  2  0
  7  8  1  0
  8  9  1  0
  9 10  1  0
  8 11  2  0
 11 12  1  0
 12 13  2  0
 13 14  1  0
 14 15  2  0
 15 16  1  0
 16 17  1  0
 17 18  1  0
 18 19  1  0
 18 20  1  0
 20 21  2  0
 21 22  1  0
 22 23  2  0
 23 24  1  0
 23 25  1  0
 25 26  2  0
 13  6  1  0
 26 20  1  0
 16 12  1  0
M  END
>  <Compound_ID>  (125) 
CHEMBL454119

>  <Active>  (125) 
1

>  <Smiles>  (125) 
CCCCNc1nc(SC)nc2c1cnn2CC(Cl)c1ccc(F)cc1

>  <canonical_smi>  (125) 
CCCCNc1nc(SC)nc2c1cnn2CC(Cl)c1ccc(F)cc1

>  <Set>  (125) 
G2 active

>  <Set_type>  (125) 
Train

>  <MW>  (125) 
393.92

>  <HBD>  (125) 
1

>  <HBA>  (125) 
5

>  <NRB>  (125) 
8

>  <NR>  (125) 
3

>  <NAR>  (125) 
3

>  <PSA>  (125) 
55.63

>  <Standard Type>  (125) 
nan

>  <Standard Relation>  (125) 
nan

>  <Standard Units>  (125) 
nan

>  <Standard Value>  (125) 
nan

>  <Assay ChEMBL ID>  (125) 
nan

>  <Assay Description>  (125) 
nan

>  <BAO Label>  (125) 
nan

$$$$

     RDKit          2D

 38 44  0  0  0  0  0  0  0  0999 V2000
    3.0000   -7.7942    0.0000 C   0  0  0  0  0  0  0  0  0  0  0  0
    1.5000   -7.7942    0.0000 C   0  0  0  0  0  0  0  0  0  0  0  0
    0.7500   -6.4952    0.0000 C   0  0  0  0  0  0  0  0  0  0  0  0
    1.5000   -5.1962    0.0000 C   0  0  0  0  0  0  0  0  0  0  0  0
    0.7500   -3.8971    0.0000 C   0  0  0  0  0  0  0  0  0  0  0  0
    1.5000   -2.5981    0.0000 N   0  0  0  0  0  0  0  0  0  0  0  0
    0.7500   -1.2990    0.0000 C   0  0  0  0  0  0  0  0  0  0  0  0
    1.5000    0.0000    0.0000 C   0  0  0  0  0  0  0  0  0  0  0  0
    0.7500    1.2990    0.0000 C   0  0  0  0  0  0  0  0  0  0  0  0
   -0.7500    1.2990    0.0000 C   0  0  0  0  0  0  0  0  0  0  0  0
   -1.7537    2.4138    0.0000 N   0  0  0  0  0  0  0  0  0  0  0  0
   -3.1240    1.8037    0.0000 N   0  0  0  0  0  0  0  0  0  0  0  0
   -2.9672    0.3119    0.0000 C   0  0  0  0  0  0  0  0  0  0  0  0
   -4.0819   -0.6918    0.0000 C   0  0  0  0  0  0  0  0  0  0  0  0
   -5.5492   -0.3800    0.0000 N   0  0  0  0  0  0  0  0  0  0  0  0
   -6.2992   -1.6790    0.0000 C   0  0  0  0  0  0  0  0  0  0  0  0
   -7.7664   -1.9909    0.0000 C   0  0  0  0  0  0  0  0  0  0  0  0
   -8.2299   -3.4175    0.0000 C   0  0  0  0  0  0  0  0  0  0  0  0
   -9.6971   -3.7293    0.0000 N   0  0  0  0  0  0  0  0  0  0  0  0
  -10.7008   -2.6146    0.0000 C   0  0  0  0  0  0  0  0  0  0  0  0
  -12.1680   -2.9265    0.0000 C   0  0  0  0  0  0  0  0  0  0  0  0
  -12.6316   -4.3531    0.0000 C   0  0  0  0  0  0  0  0  0  0  0  0
  -14.0988   -4.6649    0.0000 N   0  0  0  0  0  0  0  0  0  0  0  0
  -15.1025   -3.5502    0.0000 C   0  0  0  0  0  0  0  0  0  0  0  0
  -16.5697   -3.8621    0.0000 C   0  0  0  0  0  0  0  0  0  0  0  0
  -17.0332   -5.2887    0.0000 C   0  0  0  0  0  0  0  0  0  0  0  0
  -16.0295   -6.4034    0.0000 C   0  0  0  0  0  0  0  0  0  0  0  0
  -14.5623   -6.0915    0.0000 C   0  0  0  0  0  0  0  0  0  0  0  0
  -11.6279   -5.4678    0.0000 C   0  0  0  0  0  0  0  0  0  0  0  0
  -10.1607   -5.1559    0.0000 C   0  0  0  0  0  0  0  0  0  0  0  0
   -7.2262   -4.5322    0.0000 C   0  0  0  0  0  0  0  0  0  0  0  0
   -5.7590   -4.2203    0.0000 C   0  0  0  0  0  0  0  0  0  0  0  0
   -5.2955   -2.7937    0.0000 C   0  0  0  0  0  0  0  0  0  0  0  0
   -3.9251   -2.1836    0.0000 N   0  0  0  0  0  0  0  0  0  0  0  0
   -1.5000    0.0000    0.0000 C   0  0  0  0  0  0  0  0  0  0  0  0
   -0.7500   -1.2990    0.0000 C   0  0  0  0  0  0  0  0  0  0  0  0
    3.0000   -5.1962    0.0000 C   0  0  0  0  0  0  0  0  0  0  0  0
    3.7500   -6.4952    0.0000 C   0  0  0  0  0  0  0  0  0  0  0  0
  1  2  2  0
  2  3  1  0
  3  4  2  0
  4  5  1  0
  5  6  1  0
  6  7  1  0
  7  8  2  0
  8  9  1  0
  9 10  2  0
 10 11  1  0
 11 12  1  0
 12 13  2  0
 13 14  1  0
 14 15  2  0
 15 16  1  0
 16 17  2  0
 17 18  1  0
 18 19  1  0
 19 20  1  0
 20 21  1  0
 21 22  1  0
 22 23  1  0
 23 24  1  0
 24 25  1  0
 25 26  1  0
 26 27  1  0
 27 28  1  0
 22 29  1  0
 29 30  1  0
 18 31  2  0
 31 32  1  0
 32 33  2  0
 33 34  1  0
 13 35  1  0
 35 36  2  0
  4 37  1  0
 37 38  2  0
 38  1  1  0
 36  7  1  0
 35 10  1  0
 34 14  1  0
 33 16  1  0
 30 19  1  0
 28 23  1  0
M  END
>  <Compound_ID>  (126) 
CHEMBL384213

>  <Active>  (126) 
1

>  <Smiles>  (126) 
c1ccc(CNc2ccc3[nH]nc(-c4nc5cc(N6CCC(N7CCCCC7)CC6)ccc5[nH]4)c3c2)cc1

>  <canonical_smi>  (126) 
c1ccc(CNc2ccc3[nH]nc(-c4nc5cc(N6CCC(N7CCCCC7)CC6)ccc5[nH]4)c3c2)cc1

>  <Set>  (126) 
G2 active

>  <Set_type>  (126) 
Train

>  <MW>  (126) 
505.67

>  <HBD>  (126) 
3

>  <HBA>  (126) 
5

>  <NRB>  (126) 
6

>  <NR>  (126) 
7

>  <NAR>  (126) 
5

>  <PSA>  (126) 
75.87

>  <Standard Type>  (126) 
nan

>  <Standard Relation>  (126) 
nan

>  <Standard Units>  (126) 
nan

>  <Standard Value>  (126) 
nan

>  <Assay ChEMBL ID>  (126) 
nan

>  <Assay Description>  (126) 
nan

>  <BAO Label>  (126) 
nan

$$$$

     RDKit          2D

 39 43  0  0  0  0  0  0  0  0999 V2000
    3.7500   -3.8971    0.0000 C   0  0  0  0  0  0  0  0  0  0  0  0
    3.0000   -5.1962    0.0000 C   0  0  0  0  0  0  0  0  0  0  0  0
    3.7500   -6.4952    0.0000 C   0  0  0  0  0  0  0  0  0  0  0  0
    3.0000   -7.7942    0.0000 C   0  0  0  0  0  0  0  0  0  0  0  0
    1.5000   -7.7942    0.0000 C   0  0  0  0  0  0  0  0  0  0  0  0
    0.7500   -9.0933    0.0000 N   0  0  0  0  0  0  0  0  0  0  0  0
   -0.7500   -9.0933    0.0000 C   0  0  0  0  0  0  0  0  0  0  0  0
   -1.5000   -7.7942    0.0000 O   0  0  0  0  0  0  0  0  0  0  0  0
   -1.5000  -10.3923    0.0000 C   0  0  0  0  0  0  0  0  0  0  0  0
   -3.0000  -10.3923    0.0000 C   0  0  0  0  0  0  0  0  0  0  0  0
   -3.7500  -11.6913    0.0000 C   0  0  0  0  0  0  0  0  0  0  0  0
   -3.0000  -12.9904    0.0000 C   0  0  0  0  0  0  0  0  0  0  0  0
   -1.5000  -12.9904    0.0000 C   0  0  0  0  0  0  0  0  0  0  0  0
   -0.7500  -14.2894    0.0000 C   0  0  0  0  0  0  0  0  0  0  0  0
    0.0000  -15.5885    0.0000 F   0  0  0  0  0  0  0  0  0  0  0  0
   -2.0490  -15.0394    0.0000 F   0  0  0  0  0  0  0  0  0  0  0  0
    0.5490  -13.5394    0.0000 F   0  0  0  0  0  0  0  0  0  0  0  0
   -0.7500  -11.6913    0.0000 C   0  0  0  0  0  0  0  0  0  0  0  0
    0.7500   -6.4952    0.0000 C   0  0  0  0  0  0  0  0  0  0  0  0
    1.5000   -5.1962    0.0000 C   0  0  0  0  0  0  0  0  0  0  0  0
    0.7500   -3.8971    0.0000 N   0  0  0  0  0  0  0  0  0  0  0  0
    1.5000   -2.5981    0.0000 C   0  0  0  0  0  0  0  0  0  0  0  0
    0.7500   -1.2990    0.0000 C   0  0  0  0  0  0  0  0  0  0  0  0
    1.5000    0.0000    0.0000 C   0  0  0  0  0  0  0  0  0  0  0  0
    0.7500    1.2990    0.0000 N   0  0  0  0  0  0  0  0  0  0  0  0
   -0.7500    1.2990    0.0000 C   0  0  0  0  0  0  0  0  0  0  0  0
   -1.5000    2.5981    0.0000 N   0  0  0  0  0  0  0  0  0  0  0  0
   -0.7500    3.8971    0.0000 C   0  0  0  0  0  0  0  0  0  0  0  0
    0.7500    3.8971    0.0000 C   0  0  0  0  0  0  0  0  0  0  0  0
    1.5000    5.1962    0.0000 C   0  0  0  0  0  0  0  0  0  0  0  0
    0.7500    6.4952    0.0000 C   0  0  0  0  0  0  0  0  0  0  0  0
   -0.7500    6.4952    0.0000 C   0  0  0  0  0  0  0  0  0  0  0  0
   -1.5000    5.1962    0.0000 C   0  0  0  0  0  0  0  0  0  0  0  0
   -1.5000    0.0000    0.0000 N   0  0  0  0  0  0  0  0  0  0  0  0
   -0.7500   -1.2990    0.0000 C   0  0  0  0  0  0  0  0  0  0  0  0
   -1.5000   -2.5981    0.0000 N   0  0  0  0  0  0  0  0  0  0  0  0
   -3.0000   -2.5981    0.0000 C   0  0  0  0  0  0  0  0  0  0  0  0
   -0.7500   -3.8971    0.0000 C   0  0  0  0  0  0  0  0  0  0  0  0
   -1.5000   -5.1962    0.0000 O   0  0  0  0  0  0  0  0  0  0  0  0
  1  2  1  0
  2  3  2  0
  3  4  1  0
  4  5  2  0
  5  6  1  0
  6  7  1  0
  7  8  2  0
  7  9  1  0
  9 10  2  0
 10 11  1  0
 11 12  2  0
 12 13  1  0
 13 14  1  0
 14 15  1  0
 14 16  1  0
 14 17  1  0
 13 18  2  0
  5 19  1  0
 19 20  2  0
 20 21  1  0
 21 22  1  0
 22 23  1  0
 23 24  2  0
 24 25  1  0
 25 26  2  0
 26 27  1  0
 27 28  1  0
 28 29  2  0
 29 30  1  0
 30 31  2  0
 31 32  1  0
 32 33  2  0
 26 34  1  0
 34 35  2  0
 35 36  1  0
 36 37  1  0
 36 38  1  0
 38 39  2  0
 20  2  1  0
 38 21  1  0
 18  9  1  0
 35 23  1  0
 33 28  1  0
M  END
>  <Compound_ID>  (127) 
CHEMBL1214142

>  <Active>  (127) 
1

>  <Smiles>  (127) 
Cc1ccc(NC(=O)c2cccc(C(F)(F)F)c2)cc1N1Cc2cnc(Nc3ccccc3)nc2N(C)C1=O

>  <canonical_smi>  (127) 
Cc1ccc(NC(=O)c2cccc(C(F)(F)F)c2)cc1N1Cc2cnc(Nc3ccccc3)nc2N(C)C1=O

>  <Set>  (127) 
G2 active

>  <Set_type>  (127) 
Train

>  <MW>  (127) 
532.53

>  <HBD>  (127) 
2

>  <HBA>  (127) 
5

>  <NRB>  (127) 
5

>  <NR>  (127) 
5

>  <NAR>  (127) 
4

>  <PSA>  (127) 
90.46

>  <Standard Type>  (127) 
nan

>  <Standard Relation>  (127) 
nan

>  <Standard Units>  (127) 
nan

>  <Standard Value>  (127) 
nan

>  <Assay ChEMBL ID>  (127) 
nan

>  <Assay Description>  (127) 
nan

>  <BAO Label>  (127) 
nan

$$$$

     RDKit          2D

 41 45  0  0  0  0  0  0  0  0999 V2000
    3.0000    0.0000    0.0000 C   0  0  0  0  0  0  0  0  0  0  0  0
    1.5000    0.0000    0.0000 C   0  0  0  0  0  0  0  0  0  0  0  0
    0.7500   -1.2990    0.0000 C   0  0  0  0  0  0  0  0  0  0  0  0
   -0.7500   -1.2990    0.0000 C   0  0  0  0  0  0  0  0  0  0  0  0
   -1.5000    0.0000    0.0000 C   0  0  0  0  0  0  0  0  0  0  0  0
   -3.0000    0.0000    0.0000 N   0  0  0  0  0  0  0  0  0  0  0  0
   -3.7500    1.2990    0.0000 C   0  0  0  0  0  0  0  0  0  0  0  0
   -3.0000    2.5981    0.0000 O   0  0  0  0  0  0  0  0  0  0  0  0
   -5.2500    1.2990    0.0000 C   0  0  0  0  0  0  0  0  0  0  0  0
   -6.0000    2.5981    0.0000 C   0  0  0  0  0  0  0  0  0  0  0  0
   -7.5000    2.5981    0.0000 C   0  0  0  0  0  0  0  0  0  0  0  0
   -8.2500    1.2990    0.0000 C   0  0  0  0  0  0  0  0  0  0  0  0
   -9.7500    1.2990    0.0000 C   0  0  0  0  0  0  0  0  0  0  0  0
  -10.5000    2.5981    0.0000 N   0  0  0  0  0  0  0  0  0  0  0  0
  -10.1118    4.0470    0.0000 C   0  0  0  0  0  0  0  0  0  0  0  0
  -11.5607    4.4352    0.0000 C   0  0  0  0  0  0  0  0  0  0  0  0
  -12.3107    5.7342    0.0000 N   0  0  0  0  0  0  0  0  0  0  0  0
  -11.5607    7.0333    0.0000 C   0  0  0  0  0  0  0  0  0  0  0  0
  -13.8107    5.7342    0.0000 C   0  0  0  0  0  0  0  0  0  0  0  0
  -11.9489    2.9863    0.0000 C   0  0  0  0  0  0  0  0  0  0  0  0
   -7.5000    0.0000    0.0000 C   0  0  0  0  0  0  0  0  0  0  0  0
   -8.2500   -1.2990    0.0000 C   0  0  0  0  0  0  0  0  0  0  0  0
   -9.0000   -2.5981    0.0000 F   0  0  0  0  0  0  0  0  0  0  0  0
   -6.9510   -2.0490    0.0000 F   0  0  0  0  0  0  0  0  0  0  0  0
   -9.5490   -0.5490    0.0000 F   0  0  0  0  0  0  0  0  0  0  0  0
   -6.0000    0.0000    0.0000 C   0  0  0  0  0  0  0  0  0  0  0  0
   -0.7500    1.2990    0.0000 C   0  0  0  0  0  0  0  0  0  0  0  0
    0.7500    1.2990    0.0000 C   0  0  0  0  0  0  0  0  0  0  0  0
    1.5000    2.5981    0.0000 N   0  0  0  0  0  0  0  0  0  0  0  0
    0.7500    3.8971    0.0000 C   0  0  0  0  0  0  0  0  0  0  0  0
    1.5000    5.1962    0.0000 N   0  0  0  0  0  0  0  0  0  0  0  0
    0.7500    6.4952    0.0000 C   0  0  0  0  0  0  0  0  0  0  0  0
   -0.7500    6.4952    0.0000 C   0  0  0  0  0  0  0  0  0  0  0  0
   -1.5000    5.1962    0.0000 C   0  0  0  0  0  0  0  0  0  0  0  0
   -3.0000    5.1962    0.0000 C   0  0  0  0  0  0  0  0  0  0  0  0
   -3.7500    6.4952    0.0000 C   0  0  0  0  0  0  0  0  0  0  0  0
   -5.2500    6.4952    0.0000 N   0  0  0  0  0  0  0  0  0  0  0  0
   -6.0000    5.1962    0.0000 C   0  0  0  0  0  0  0  0  0  0  0  0
   -5.2500    3.8971    0.0000 N   0  0  0  0  0  0  0  0  0  0  0  0
   -3.7500    3.8971    0.0000 C   0  0  0  0  0  0  0  0  0  0  0  0
   -0.7500    3.8971    0.0000 N   0  0  0  0  0  0  0  0  0  0  0  0
  1  2  1  0
  2  3  2  0
  3  4  1  0
  4  5  2  0
  5  6  1  0
  6  7  1  0
  7  8  1  0
  7  9  1  0
  9 10  2  0
 10 11  1  0
 11 12  2  0
 12 13  1  0
 13 14  1  0
 14 15  1  0
 15 16  1  0
 16 17  1  0
 17 18  1  0
 17 19  1  0
 16 20  1  0
 12 21  1  0
 21 22  1  0
 22 23  1  0
 22 24  1  0
 22 25  1  0
 21 26  2  0
  5 27  1  0
 27 28  2  0
 28 29  1  0
 29 30  1  0
 30 31  2  0
 31 32  1  0
 32 33  2  0
 33 34  1  0
 34 35  1  0
 35 36  2  0
 36 37  1  0
 37 38  2  0
 38 39  1  0
 39 40  2  0
 34 41  2  0
 28  2  1  0
 41 30  1  0
 26  9  1  0
 40 35  1  0
 20 14  1  0
M  END
>  <Compound_ID>  (128) 
CHEMBL536983

>  <Active>  (128) 
1

>  <Smiles>  (128) 
Cc1ccc(NC(O)c2ccc(CN3CC(N(C)C)C3)c(C(F)(F)F)c2)cc1Nc1nccc(-c2cncnc2)n1

>  <canonical_smi>  (128) 
Cc1ccc(NC(O)c2ccc(CN3CC(N(C)C)C3)c(C(F)(F)F)c2)cc1Nc1nccc(-c2cncnc2)n1

>  <Set>  (128) 
G2 active

>  <Set_type>  (128) 
Train

>  <MW>  (128) 
564.62

>  <HBD>  (128) 
3

>  <HBA>  (128) 
9

>  <NRB>  (128) 
9

>  <NR>  (128) 
5

>  <NAR>  (128) 
4

>  <PSA>  (128) 
102.33

>  <Standard Type>  (128) 
nan

>  <Standard Relation>  (128) 
nan

>  <Standard Units>  (128) 
nan

>  <Standard Value>  (128) 
nan

>  <Assay ChEMBL ID>  (128) 
nan

>  <Assay Description>  (128) 
nan

>  <BAO Label>  (128) 
nan

$$$$

     RDKit          2D

 29 31  0  0  0  0  0  0  0  0999 V2000
  -12.9041   -9.3825    0.0000 C   0  0  0  0  0  0  0  0  0  0  0  0
  -11.7894   -8.3788    0.0000 C   0  0  0  0  0  0  0  0  0  0  0  0
  -10.3628   -8.8423    0.0000 N   0  0  0  0  0  0  0  0  0  0  0  0
  -10.0510  -10.3095    0.0000 C   0  0  0  0  0  0  0  0  0  0  0  0
  -11.1657  -11.3132    0.0000 C   0  0  0  0  0  0  0  0  0  0  0  0
   -9.2481   -7.8386    0.0000 C   0  0  0  0  0  0  0  0  0  0  0  0
   -7.8215   -8.3021    0.0000 C   0  0  0  0  0  0  0  0  0  0  0  0
   -6.7068   -7.2984    0.0000 N   0  0  0  0  0  0  0  0  0  0  0  0
   -5.2802   -7.7620    0.0000 C   0  0  0  0  0  0  0  0  0  0  0  0
   -4.9684   -9.2292    0.0000 O   0  0  0  0  0  0  0  0  0  0  0  0
   -4.1655   -6.7583    0.0000 C   0  0  0  0  0  0  0  0  0  0  0  0
   -2.6983   -7.0701    0.0000 C   0  0  0  0  0  0  0  0  0  0  0  0
   -2.0882   -8.4404    0.0000 C   0  0  0  0  0  0  0  0  0  0  0  0
   -1.9483   -5.7711    0.0000 N   0  0  0  0  0  0  0  0  0  0  0  0
   -2.9520   -4.6564    0.0000 C   0  0  0  0  0  0  0  0  0  0  0  0
   -2.6401   -3.1891    0.0000 C   0  0  0  0  0  0  0  0  0  0  0  0
   -1.2135   -2.7256    0.0000 C   0  0  0  0  0  0  0  0  0  0  0  0
   -0.0000   -3.6073    0.0000 C   0  0  0  0  0  0  0  0  0  0  0  0
    0.0000   -5.1073    0.0000 O   0  0  0  0  0  0  0  0  0  0  0  0
    1.2135   -2.7256    0.0000 N   0  0  0  0  0  0  0  0  0  0  0  0
    0.7500   -1.2990    0.0000 C   0  0  0  0  0  0  0  0  0  0  0  0
    1.5000    0.0000    0.0000 C   0  0  0  0  0  0  0  0  0  0  0  0
    0.7500    1.2990    0.0000 C   0  0  0  0  0  0  0  0  0  0  0  0
   -0.7500    1.2990    0.0000 C   0  0  0  0  0  0  0  0  0  0  0  0
   -1.5000    2.5981    0.0000 F   0  0  0  0  0  0  0  0  0  0  0  0
   -1.5000    0.0000    0.0000 C   0  0  0  0  0  0  0  0  0  0  0  0
   -0.7500   -1.2990    0.0000 C   0  0  0  0  0  0  0  0  0  0  0  0
   -4.3223   -5.2665    0.0000 C   0  0  0  0  0  0  0  0  0  0  0  0
   -5.6213   -4.5165    0.0000 C   0  0  0  0  0  0  0  0  0  0  0  0
  1  2  1  0
  2  3  1  0
  3  4  1  0
  4  5  1  0
  3  6  1  0
  6  7  1  0
  7  8  1  0
  8  9  1  0
  9 10  2  0
  9 11  1  0
 11 12  2  0
 12 13  1  0
 12 14  1  0
 14 15  1  0
 15 16  1  0
 16 17  2  0
 17 18  1  0
 18 19  2  0
 18 20  1  0
 20 21  1  0
 21 22  2  0
 22 23  1  0
 23 24  2  0
 24 25  1  0
 24 26  1  0
 26 27  2  0
 15 28  2  0
 28 29  1  0
 28 11  1  0
 27 17  1  0
 27 21  1  0
M  END
>  <Compound_ID>  (129) 
CHEMBL535

>  <Active>  (129) 
1

>  <Smiles>  (129) 
CCN(CC)CCNC(=O)c1c(C)[nH]c(/C=C2\C(=O)Nc3ccc(F)cc32)c1C

>  <canonical_smi>  (129) 
CCN(CC)CCNC(=O)c1c(C)[nH]c(/C=C2\C(=O)Nc3ccc(F)cc32)c1C

>  <Set>  (129) 
G2 active

>  <Set_type>  (129) 
Train

>  <MW>  (129) 
398.48

>  <HBD>  (129) 
3

>  <HBA>  (129) 
3

>  <NRB>  (129) 
7

>  <NR>  (129) 
3

>  <NAR>  (129) 
2

>  <PSA>  (129) 
77.23

>  <Standard Type>  (129) 
nan

>  <Standard Relation>  (129) 
nan

>  <Standard Units>  (129) 
nan

>  <Standard Value>  (129) 
nan

>  <Assay ChEMBL ID>  (129) 
nan

>  <Assay Description>  (129) 
nan

>  <BAO Label>  (129) 
nan

$$$$

     RDKit          2D

 25 28  0  0  0  0  0  0  0  0999 V2000
   -3.8876   -9.0580    0.0000 O   0  0  0  0  0  0  0  0  0  0  0  0
   -3.5757   -7.5908    0.0000 C   0  0  0  0  0  0  0  0  0  0  0  0
   -4.6904   -6.5871    0.0000 C   0  0  0  0  0  0  0  0  0  0  0  0
   -4.3786   -5.1199    0.0000 C   0  0  0  0  0  0  0  0  0  0  0  0
   -2.9520   -4.6564    0.0000 C   0  0  0  0  0  0  0  0  0  0  0  0
   -2.6401   -3.1891    0.0000 N   0  0  0  0  0  0  0  0  0  0  0  0
   -1.2135   -2.7256    0.0000 C   0  0  0  0  0  0  0  0  0  0  0  0
   -0.0000   -3.6073    0.0000 N   0  0  0  0  0  0  0  0  0  0  0  0
    1.2135   -2.7256    0.0000 N   0  0  0  0  0  0  0  0  0  0  0  0
    0.7500   -1.2990    0.0000 C   0  0  0  0  0  0  0  0  0  0  0  0
    1.5000    0.0000    0.0000 N   0  0  0  0  0  0  0  0  0  0  0  0
    0.7500    1.2990    0.0000 C   0  0  0  0  0  0  0  0  0  0  0  0
   -0.7500    1.2990    0.0000 N   0  0  0  0  0  0  0  0  0  0  0  0
   -1.5000    0.0000    0.0000 C   0  0  0  0  0  0  0  0  0  0  0  0
   -3.0000    0.0000    0.0000 N   0  0  0  0  0  0  0  0  0  0  0  0
   -3.7500    1.2990    0.0000 C   0  0  0  0  0  0  0  0  0  0  0  0
   -3.0000    2.5981    0.0000 C   0  0  0  0  0  0  0  0  0  0  0  0
   -3.7500    3.8971    0.0000 C   0  0  0  0  0  0  0  0  0  0  0  0
   -5.2500    3.8971    0.0000 C   0  0  0  0  0  0  0  0  0  0  0  0
   -6.0000    2.5981    0.0000 C   0  0  0  0  0  0  0  0  0  0  0  0
   -7.5000    2.5981    0.0000 Cl  0  0  0  0  0  0  0  0  0  0  0  0
   -5.2500    1.2990    0.0000 C   0  0  0  0  0  0  0  0  0  0  0  0
   -0.7500   -1.2990    0.0000 C   0  0  0  0  0  0  0  0  0  0  0  0
   -1.8373   -5.6601    0.0000 C   0  0  0  0  0  0  0  0  0  0  0  0
   -2.1491   -7.1273    0.0000 C   0  0  0  0  0  0  0  0  0  0  0  0
  1  2  1  0
  2  3  2  0
  3  4  1  0
  4  5  2  0
  5  6  1  0
  6  7  1  0
  7  8  1  0
  8  9  1  0
  9 10  2  0
 10 11  1  0
 11 12  2  0
 12 13  1  0
 13 14  2  0
 14 15  1  0
 15 16  1  0
 16 17  2  0
 17 18  1  0
 18 19  2  0
 19 20  1  0
 20 21  1  0
 20 22  2  0
 14 23  1  0
  5 24  1  0
 24 25  2  0
 25  2  1  0
 23  7  2  0
 23 10  1  0
 22 16  1  0
M  END
>  <Compound_ID>  (130) 
CHEMBL122182

>  <Active>  (130) 
1

>  <Smiles>  (130) 
Oc1ccc(Nc2[nH]nc3ncnc(Nc4cccc(Cl)c4)c23)cc1

>  <canonical_smi>  (130) 
Oc1ccc(Nc2[nH]nc3ncnc(Nc4cccc(Cl)c4)c23)cc1

>  <Set>  (130) 
G2 active

>  <Set_type>  (130) 
Train

>  <MW>  (130) 
352.79

>  <HBD>  (130) 
4

>  <HBA>  (130) 
6

>  <NRB>  (130) 
4

>  <NR>  (130) 
4

>  <NAR>  (130) 
4

>  <PSA>  (130) 
98.75

>  <Standard Type>  (130) 
nan

>  <Standard Relation>  (130) 
nan

>  <Standard Units>  (130) 
nan

>  <Standard Value>  (130) 
nan

>  <Assay ChEMBL ID>  (130) 
nan

>  <Assay Description>  (130) 
nan

>  <BAO Label>  (130) 
nan

$$$$

     RDKit          2D

 38 44  0  0  0  0  0  0  0  0999 V2000
   -0.7500   -3.8971    0.0000 O   0  0  0  0  0  0  0  0  0  0  0  0
    0.7500   -3.8971    0.0000 C   0  0  0  0  0  0  0  0  0  0  0  0
    1.5000   -2.5981    0.0000 N   0  0  0  0  0  0  0  0  0  0  0  0
    0.7500   -1.2990    0.0000 C   0  0  0  0  0  0  0  0  0  0  0  0
    1.5000    0.0000    0.0000 C   0  0  0  0  0  0  0  0  0  0  0  0
    0.7500    1.2990    0.0000 C   0  0  0  0  0  0  0  0  0  0  0  0
   -0.7500    1.2990    0.0000 C   0  0  0  0  0  0  0  0  0  0  0  0
   -1.7537    2.4138    0.0000 N   0  0  0  0  0  0  0  0  0  0  0  0
   -3.1240    1.8037    0.0000 N   0  0  0  0  0  0  0  0  0  0  0  0
   -2.9672    0.3119    0.0000 C   0  0  0  0  0  0  0  0  0  0  0  0
   -4.0819   -0.6918    0.0000 C   0  0  0  0  0  0  0  0  0  0  0  0
   -5.5492   -0.3800    0.0000 N   0  0  0  0  0  0  0  0  0  0  0  0
   -6.2992   -1.6790    0.0000 C   0  0  0  0  0  0  0  0  0  0  0  0
   -7.7664   -1.9909    0.0000 C   0  0  0  0  0  0  0  0  0  0  0  0
   -8.2299   -3.4175    0.0000 C   0  0  0  0  0  0  0  0  0  0  0  0
   -9.6971   -3.7293    0.0000 N   0  0  0  0  0  0  0  0  0  0  0  0
  -10.7008   -2.6146    0.0000 C   0  0  0  0  0  0  0  0  0  0  0  0
  -12.1680   -2.9265    0.0000 C   0  0  0  0  0  0  0  0  0  0  0  0
  -12.6316   -4.3531    0.0000 C   0  0  0  0  0  0  0  0  0  0  0  0
  -14.0988   -4.6649    0.0000 N   0  0  0  0  0  0  0  0  0  0  0  0
  -15.1025   -3.5502    0.0000 C   0  0  0  0  0  0  0  0  0  0  0  0
  -16.5697   -3.8621    0.0000 C   0  0  0  0  0  0  0  0  0  0  0  0
  -17.0332   -5.2887    0.0000 C   0  0  0  0  0  0  0  0  0  0  0  0
  -16.0295   -6.4034    0.0000 C   0  0  0  0  0  0  0  0  0  0  0  0
  -14.5623   -6.0915    0.0000 C   0  0  0  0  0  0  0  0  0  0  0  0
  -11.6279   -5.4678    0.0000 C   0  0  0  0  0  0  0  0  0  0  0  0
  -10.1607   -5.1559    0.0000 C   0  0  0  0  0  0  0  0  0  0  0  0
   -7.2262   -4.5322    0.0000 C   0  0  0  0  0  0  0  0  0  0  0  0
   -5.7590   -4.2203    0.0000 C   0  0  0  0  0  0  0  0  0  0  0  0
   -5.2955   -2.7937    0.0000 C   0  0  0  0  0  0  0  0  0  0  0  0
   -3.9251   -2.1836    0.0000 N   0  0  0  0  0  0  0  0  0  0  0  0
   -1.5000    0.0000    0.0000 C   0  0  0  0  0  0  0  0  0  0  0  0
   -0.7500   -1.2990    0.0000 C   0  0  0  0  0  0  0  0  0  0  0  0
    1.5000   -5.1962    0.0000 C   0  0  0  0  0  0  0  0  0  0  0  0
    2.9918   -5.3529    0.0000 C   0  0  0  0  0  0  0  0  0  0  0  0
    3.3037   -6.8202    0.0000 C   0  0  0  0  0  0  0  0  0  0  0  0
    2.0046   -7.5702    0.0000 C   0  0  0  0  0  0  0  0  0  0  0  0
    0.8899   -6.5665    0.0000 O   0  0  0  0  0  0  0  0  0  0  0  0
  1  2  2  0
  2  3  1  0
  3  4  1  0
  4  5  2  0
  5  6  1  0
  6  7  2  0
  7  8  1  0
  8  9  1  0
  9 10  2  0
 10 11  1  0
 11 12  2  0
 12 13  1  0
 13 14  2  0
 14 15  1  0
 15 16  1  0
 16 17  1  0
 17 18  1  0
 18 19  1  0
 19 20  1  0
 20 21  1  0
 21 22  1  0
 22 23  1  0
 23 24  1  0
 24 25  1  0
 19 26  1  0
 26 27  1  0
 15 28  2  0
 28 29  1  0
 29 30  2  0
 30 31  1  0
 10 32  1  0
 32 33  2  0
  2 34  1  0
 34 35  2  0
 35 36  1  0
 36 37  2  0
 37 38  1  0
 33  4  1  0
 38 34  1  0
 32  7  1  0
 31 11  1  0
 30 13  1  0
 27 16  1  0
 25 20  1  0
M  END
>  <Compound_ID>  (131) 
CHEMBL377463

>  <Active>  (131) 
1

>  <Smiles>  (131) 
O=C(Nc1ccc2[nH]nc(-c3nc4cc(N5CCC(N6CCCCC6)CC5)ccc4[nH]3)c2c1)c1ccco1

>  <canonical_smi>  (131) 
O=C(Nc1ccc2[nH]nc(-c3nc4cc(N5CCC(N6CCCCC6)CC5)ccc4[nH]3)c2c1)c1ccco1

>  <Set>  (131) 
G2 active

>  <Set_type>  (131) 
Train

>  <MW>  (131) 
509.61

>  <HBD>  (131) 
3

>  <HBA>  (131) 
6

>  <NRB>  (131) 
5

>  <NR>  (131) 
7

>  <NAR>  (131) 
5

>  <PSA>  (131) 
106.08

>  <Standard Type>  (131) 
nan

>  <Standard Relation>  (131) 
nan

>  <Standard Units>  (131) 
nan

>  <Standard Value>  (131) 
nan

>  <Assay ChEMBL ID>  (131) 
nan

>  <Assay Description>  (131) 
nan

>  <BAO Label>  (131) 
nan

$$$$

     RDKit          2D

 24 27  0  0  0  0  0  0  0  0999 V2000
   -4.6904   -6.5871    0.0000 O   0  0  0  0  0  0  0  0  0  0  0  0
   -4.3786   -5.1199    0.0000 C   0  0  0  0  0  0  0  0  0  0  0  0
   -5.4933   -4.1162    0.0000 C   0  0  0  0  0  0  0  0  0  0  0  0
   -5.1814   -2.6490    0.0000 C   0  0  0  0  0  0  0  0  0  0  0  0
   -3.7548   -2.1855    0.0000 C   0  0  0  0  0  0  0  0  0  0  0  0
   -2.6401   -3.1891    0.0000 C   0  0  0  0  0  0  0  0  0  0  0  0
   -1.2135   -2.7256    0.0000 C   0  0  0  0  0  0  0  0  0  0  0  0
   -0.0000   -3.6073    0.0000 N   0  0  0  0  0  0  0  0  0  0  0  0
    1.2135   -2.7256    0.0000 N   0  0  0  0  0  0  0  0  0  0  0  0
    0.7500   -1.2990    0.0000 C   0  0  0  0  0  0  0  0  0  0  0  0
    1.5000    0.0000    0.0000 N   0  0  0  0  0  0  0  0  0  0  0  0
    0.7500    1.2990    0.0000 C   0  0  0  0  0  0  0  0  0  0  0  0
   -0.7500    1.2990    0.0000 N   0  0  0  0  0  0  0  0  0  0  0  0
   -1.5000    0.0000    0.0000 C   0  0  0  0  0  0  0  0  0  0  0  0
   -3.0000    0.0000    0.0000 N   0  0  0  0  0  0  0  0  0  0  0  0
   -3.7500    1.2990    0.0000 C   0  0  0  0  0  0  0  0  0  0  0  0
   -3.0000    2.5981    0.0000 C   0  0  0  0  0  0  0  0  0  0  0  0
   -3.7500    3.8971    0.0000 C   0  0  0  0  0  0  0  0  0  0  0  0
   -5.2500    3.8971    0.0000 C   0  0  0  0  0  0  0  0  0  0  0  0
   -6.0000    2.5981    0.0000 C   0  0  0  0  0  0  0  0  0  0  0  0
   -7.5000    2.5981    0.0000 Cl  0  0  0  0  0  0  0  0  0  0  0  0
   -5.2500    1.2990    0.0000 C   0  0  0  0  0  0  0  0  0  0  0  0
   -0.7500   -1.2990    0.0000 C   0  0  0  0  0  0  0  0  0  0  0  0
   -2.9520   -4.6564    0.0000 C   0  0  0  0  0  0  0  0  0  0  0  0
  1  2  1  0
  2  3  2  0
  3  4  1  0
  4  5  2  0
  5  6  1  0
  6  7  1  0
  7  8  1  0
  8  9  1  0
  9 10  2  0
 10 11  1  0
 11 12  2  0
 12 13  1  0
 13 14  2  0
 14 15  1  0
 15 16  1  0
 16 17  2  0
 17 18  1  0
 18 19  2  0
 19 20  1  0
 20 21  1  0
 20 22  2  0
 14 23  1  0
  6 24  2  0
 24  2  1  0
 23  7  2  0
 23 10  1  0
 22 16  1  0
M  END
>  <Compound_ID>  (132) 
CHEMBL331906

>  <Active>  (132) 
1

>  <Smiles>  (132) 
Oc1cccc(-c2[nH]nc3ncnc(Nc4cccc(Cl)c4)c23)c1

>  <canonical_smi>  (132) 
Oc1cccc(-c2[nH]nc3ncnc(Nc4cccc(Cl)c4)c23)c1

>  <Set>  (132) 
G2 active

>  <Set_type>  (132) 
Train

>  <MW>  (132) 
337.77

>  <HBD>  (132) 
3

>  <HBA>  (132) 
5

>  <NRB>  (132) 
3

>  <NR>  (132) 
4

>  <NAR>  (132) 
4

>  <PSA>  (132) 
86.72

>  <Standard Type>  (132) 
nan

>  <Standard Relation>  (132) 
nan

>  <Standard Units>  (132) 
nan

>  <Standard Value>  (132) 
nan

>  <Assay ChEMBL ID>  (132) 
nan

>  <Assay Description>  (132) 
nan

>  <BAO Label>  (132) 
nan

$$$$

     RDKit          2D

 33 37  0  0  0  0  0  0  0  0999 V2000
   -6.0000  -10.3923    0.0000 C   0  0  0  0  0  0  0  0  0  0  0  0
   -5.2500   -9.0933    0.0000 C   0  0  0  0  0  0  0  0  0  0  0  0
   -6.0000   -7.7942    0.0000 C   0  0  0  0  0  0  0  0  0  0  0  0
   -5.2500   -6.4952    0.0000 C   0  0  0  0  0  0  0  0  0  0  0  0
   -3.7500   -6.4952    0.0000 C   0  0  0  0  0  0  0  0  0  0  0  0
   -3.0000   -5.1962    0.0000 N   0  0  0  0  0  0  0  0  0  0  0  0
   -1.5000   -5.1962    0.0000 C   0  0  0  0  0  0  0  0  0  0  0  0
   -0.7500   -6.4952    0.0000 O   0  0  0  0  0  0  0  0  0  0  0  0
   -0.7500   -3.8971    0.0000 C   0  0  0  0  0  0  0  0  0  0  0  0
    0.7500   -3.8971    0.0000 C   0  0  0  0  0  0  0  0  0  0  0  0
    1.5000   -2.5981    0.0000 C   0  0  0  0  0  0  0  0  0  0  0  0
    0.7500   -1.2990    0.0000 C   0  0  0  0  0  0  0  0  0  0  0  0
    1.5000    0.0000    0.0000 C   0  0  0  0  0  0  0  0  0  0  0  0
    0.7500    1.2990    0.0000 C   0  0  0  0  0  0  0  0  0  0  0  0
   -0.7500    1.2990    0.0000 C   0  0  0  0  0  0  0  0  0  0  0  0
   -1.5000    0.0000    0.0000 C   0  0  0  0  0  0  0  0  0  0  0  0
   -0.7500   -1.2990    0.0000 C   0  0  0  0  0  0  0  0  0  0  0  0
   -1.5000   -2.5981    0.0000 C   0  0  0  0  0  0  0  0  0  0  0  0
   -3.0000   -7.7942    0.0000 C   0  0  0  0  0  0  0  0  0  0  0  0
   -3.7500   -9.0933    0.0000 C   0  0  0  0  0  0  0  0  0  0  0  0
   -3.0000  -10.3923    0.0000 N   0  0  0  0  0  0  0  0  0  0  0  0
   -1.5000  -10.3923    0.0000 C   0  0  0  0  0  0  0  0  0  0  0  0
   -0.7500  -11.6913    0.0000 N   0  0  0  0  0  0  0  0  0  0  0  0
    0.7500  -11.6913    0.0000 C   0  0  0  0  0  0  0  0  0  0  0  0
    1.5000  -10.3923    0.0000 C   0  0  0  0  0  0  0  0  0  0  0  0
    0.7500   -9.0933    0.0000 C   0  0  0  0  0  0  0  0  0  0  0  0
    1.5000   -7.7942    0.0000 C   0  0  0  0  0  0  0  0  0  0  0  0
    3.0000   -7.7942    0.0000 C   0  0  0  0  0  0  0  0  0  0  0  0
    3.7500   -6.4952    0.0000 C   0  0  0  0  0  0  0  0  0  0  0  0
    3.0000   -5.1962    0.0000 C   0  0  0  0  0  0  0  0  0  0  0  0
    1.5000   -5.1962    0.0000 N   0  0  0  0  0  0  0  0  0  0  0  0
    0.7500   -6.4952    0.0000 C   0  0  0  0  0  0  0  0  0  0  0  0
   -0.7500   -9.0933    0.0000 N   0  0  0  0  0  0  0  0  0  0  0  0
  1  2  1  0
  2  3  2  0
  3  4  1  0
  4  5  2  0
  5  6  1  0
  6  7  1  0
  7  8  2  0
  7  9  1  0
  9 10  2  0
 10 11  1  0
 11 12  2  0
 12 13  1  0
 13 14  2  0
 14 15  1  0
 15 16  2  0
 16 17  1  0
 17 18  2  0
  5 19  1  0
 19 20  2  0
 20 21  1  0
 21 22  1  0
 22 23  2  0
 23 24  1  0
 24 25  2  0
 25 26  1  0
 26 27  1  0
 27 28  2  0
 28 29  1  0
 29 30  2  0
 30 31  1  0
 31 32  2  0
 26 33  2  0
 20  2  1  0
 33 22  1  0
 18  9  1  0
 32 27  1  0
 17 12  1  0
M  END
>  <Compound_ID>  (133) 
CHEMBL20252

>  <Active>  (133) 
1

>  <Smiles>  (133) 
Cc1ccc(NC(=O)c2ccc3ccccc3c2)cc1Nc1nccc(-c2cccnc2)n1

>  <canonical_smi>  (133) 
Cc1ccc(NC(=O)c2ccc3ccccc3c2)cc1Nc1nccc(-c2cccnc2)n1

>  <Set>  (133) 
G2 active

>  <Set_type>  (133) 
Train

>  <MW>  (133) 
431.5

>  <HBD>  (133) 
2

>  <HBA>  (133) 
5

>  <NRB>  (133) 
5

>  <NR>  (133) 
5

>  <NAR>  (133) 
5

>  <PSA>  (133) 
79.8

>  <Standard Type>  (133) 
nan

>  <Standard Relation>  (133) 
nan

>  <Standard Units>  (133) 
nan

>  <Standard Value>  (133) 
nan

>  <Assay ChEMBL ID>  (133) 
nan

>  <Assay Description>  (133) 
nan

>  <BAO Label>  (133) 
nan

$$$$

     RDKit          2D

 27 29  0  0  0  0  0  0  0  0999 V2000
    9.7500   -3.8971    0.0000 C   0  0  0  0  0  0  0  0  0  0  0  0
    8.2500   -3.8971    0.0000 C   0  0  0  0  0  0  0  0  0  0  0  0
    7.5000   -2.5981    0.0000 C   0  0  0  0  0  0  0  0  0  0  0  0
    6.0000   -2.5981    0.0000 C   0  0  0  0  0  0  0  0  0  0  0  0
    5.2500   -1.2990    0.0000 C   0  0  0  0  0  0  0  0  0  0  0  0
    3.7500   -1.2990    0.0000 C   0  0  0  0  0  0  0  0  0  0  0  0
    3.0000   -2.5981    0.0000 O   0  0  0  0  0  0  0  0  0  0  0  0
    3.0000    0.0000    0.0000 N   0  0  0  0  0  0  0  0  0  0  0  0
    1.5000    0.0000    0.0000 C   0  0  0  0  0  0  0  0  0  0  0  0
    0.7500   -1.2990    0.0000 C   0  0  0  0  0  0  0  0  0  0  0  0
   -0.7500   -1.2990    0.0000 C   0  0  0  0  0  0  0  0  0  0  0  0
   -1.5000    0.0000    0.0000 C   0  0  0  0  0  0  0  0  0  0  0  0
   -0.7500    1.2990    0.0000 C   0  0  0  0  0  0  0  0  0  0  0  0
   -1.5000    2.5981    0.0000 N   0  0  0  0  0  0  0  0  0  0  0  0
   -0.7500    3.8971    0.0000 C   0  0  0  0  0  0  0  0  0  0  0  0
    0.7500    3.8971    0.0000 N   0  0  0  0  0  0  0  0  0  0  0  0
    1.5000    5.1962    0.0000 C   0  0  0  0  0  0  0  0  0  0  0  0
    0.7500    6.4952    0.0000 C   0  0  0  0  0  0  0  0  0  0  0  0
   -0.7500    6.4952    0.0000 C   0  0  0  0  0  0  0  0  0  0  0  0
   -1.5000    7.7942    0.0000 C   0  0  0  0  0  0  0  0  0  0  0  0
   -0.7500    9.0933    0.0000 C   0  0  0  0  0  0  0  0  0  0  0  0
   -1.5000   10.3923    0.0000 C   0  0  0  0  0  0  0  0  0  0  0  0
   -3.0000   10.3923    0.0000 C   0  0  0  0  0  0  0  0  0  0  0  0
   -3.7500    9.0933    0.0000 N   0  0  0  0  0  0  0  0  0  0  0  0
   -3.0000    7.7942    0.0000 C   0  0  0  0  0  0  0  0  0  0  0  0
   -1.5000    5.1962    0.0000 N   0  0  0  0  0  0  0  0  0  0  0  0
    0.7500    1.2990    0.0000 C   0  0  0  0  0  0  0  0  0  0  0  0
  1  2  1  0
  2  3  1  0
  3  4  1  0
  4  5  1  0
  5  6  1  0
  6  7  2  0
  6  8  1  0
  8  9  1  0
  9 10  2  0
 10 11  1  0
 11 12  2  0
 12 13  1  0
 13 14  1  0
 14 15  1  0
 15 16  2  0
 16 17  1  0
 17 18  2  0
 18 19  1  0
 19 20  1  0
 20 21  2  0
 21 22  1  0
 22 23  2  0
 23 24  1  0
 24 25  2  0
 19 26  2  0
 13 27  2  0
 27  9  1  0
 26 15  1  0
 25 20  1  0
M  END
>  <Compound_ID>  (134) 
CHEMBL56669

>  <Active>  (134) 
1

>  <Smiles>  (134) 
CCCCCC(=O)Nc1cccc(Nc2nccc(-c3cccnc3)n2)c1

>  <canonical_smi>  (134) 
CCCCCC(=O)Nc1cccc(Nc2nccc(-c3cccnc3)n2)c1

>  <Set>  (134) 
G2 active

>  <Set_type>  (134) 
Train

>  <MW>  (134) 
361.45

>  <HBD>  (134) 
2

>  <HBA>  (134) 
5

>  <NRB>  (134) 
8

>  <NR>  (134) 
3

>  <NAR>  (134) 
3

>  <PSA>  (134) 
79.8

>  <Standard Type>  (134) 
nan

>  <Standard Relation>  (134) 
nan

>  <Standard Units>  (134) 
nan

>  <Standard Value>  (134) 
nan

>  <Assay ChEMBL ID>  (134) 
nan

>  <Assay Description>  (134) 
nan

>  <BAO Label>  (134) 
nan

$$$$

     RDKit          2D

 34 38  0  0  0  0  0  0  0  0999 V2000
    3.7500   -1.2990    0.0000 C   0  0  0  0  0  0  0  0  0  0  0  0
    3.0000    0.0000    0.0000 O   0  0  0  0  0  0  0  0  0  0  0  0
    1.5000    0.0000    0.0000 C   0  0  0  0  0  0  0  0  0  0  0  0
    0.7500   -1.2990    0.0000 C   0  0  0  0  0  0  0  0  0  0  0  0
   -0.7500   -1.2990    0.0000 C   0  0  0  0  0  0  0  0  0  0  0  0
   -1.5000   -2.5981    0.0000 C   0  0  0  0  0  0  0  0  0  0  0  0
   -0.7500   -3.8971    0.0000 N   0  0  0  0  0  0  0  0  0  0  0  0
   -1.5000   -5.1962    0.0000 C   0  0  0  0  0  0  0  0  0  0  0  0
   -2.7990   -5.9462    0.0000 C   0  0  0  0  0  0  0  0  0  0  0  0
   -1.5000   -6.6962    0.0000 C   0  0  0  0  0  0  0  0  0  0  0  0
   -0.7500   -7.9952    0.0000 C   0  0  0  0  0  0  0  0  0  0  0  0
    0.7500   -7.9952    0.0000 C   0  0  0  0  0  0  0  0  0  0  0  0
    1.5000   -9.2942    0.0000 C   0  0  0  0  0  0  0  0  0  0  0  0
    0.7500  -10.5933    0.0000 C   0  0  0  0  0  0  0  0  0  0  0  0
   -0.7500  -10.5933    0.0000 C   0  0  0  0  0  0  0  0  0  0  0  0
   -1.5000   -9.2942    0.0000 C   0  0  0  0  0  0  0  0  0  0  0  0
   -3.0000   -2.5981    0.0000 C   0  0  0  0  0  0  0  0  0  0  0  0
   -3.7500   -3.8971    0.0000 C   0  0  0  0  0  0  0  0  0  0  0  0
   -4.5000   -5.1962    0.0000 N   0  0  0  0  0  0  0  0  0  0  0  0
   -3.7500   -1.2990    0.0000 C   0  0  0  0  0  0  0  0  0  0  0  0
   -3.0000    0.0000    0.0000 N   0  0  0  0  0  0  0  0  0  0  0  0
   -1.5000    0.0000    0.0000 C   0  0  0  0  0  0  0  0  0  0  0  0
   -0.7500    1.2990    0.0000 C   0  0  0  0  0  0  0  0  0  0  0  0
    0.7500    1.2990    0.0000 C   0  0  0  0  0  0  0  0  0  0  0  0
    1.5000    2.5981    0.0000 O   0  0  0  0  0  0  0  0  0  0  0  0
    0.7500    3.8971    0.0000 C   0  0  0  0  0  0  0  0  0  0  0  0
    1.5000    5.1962    0.0000 C   0  0  0  0  0  0  0  0  0  0  0  0
    0.7500    6.4952    0.0000 C   0  0  0  0  0  0  0  0  0  0  0  0
    1.5000    7.7942    0.0000 N   0  0  0  0  0  0  0  0  0  0  0  0
    3.0000    7.7942    0.0000 C   0  0  0  0  0  0  0  0  0  0  0  0
    3.7500    9.0933    0.0000 C   0  0  0  0  0  0  0  0  0  0  0  0
    3.0000   10.3923    0.0000 O   0  0  0  0  0  0  0  0  0  0  0  0
    1.5000   10.3923    0.0000 C   0  0  0  0  0  0  0  0  0  0  0  0
    0.7500    9.0933    0.0000 C   0  0  0  0  0  0  0  0  0  0  0  0
  1  2  1  0
  2  3  1  0
  3  4  2  0
  4  5  1  0
  5  6  2  0
  6  7  1  0
  8  7  1  1
  8  9  1  0
  9 10  1  0
 10 11  1  6
 11 12  2  0
 12 13  1  0
 13 14  2  0
 14 15  1  0
 15 16  2  0
  6 17  1  0
 17 18  1  0
 18 19  3  0
 17 20  2  0
 20 21  1  0
 21 22  2  0
 22 23  1  0
 23 24  2  0
 24 25  1  0
 25 26  1  0
 26 27  1  0
 27 28  1  0
 28 29  1  0
 29 30  1  0
 30 31  1  0
 31 32  1  0
 32 33  1  0
 33 34  1  0
 24  3  1  0
 34 29  1  0
 22  5  1  0
 10  8  1  0
 16 11  1  0
M  END
>  <Compound_ID>  (135) 
CHEMBL248392

>  <Active>  (135) 
1

>  <Smiles>  (135) 
COc1cc2c(N[C@@H]3C[C@H]3c3ccccc3)c(C#N)cnc2cc1OCCCN1CCOCC1

>  <canonical_smi>  (135) 
COc1cc2c(N[C@@H]3C[C@H]3c3ccccc3)c(C#N)cnc2cc1OCCCN1CCOCC1

>  <Set>  (135) 
G2 active

>  <Set_type>  (135) 
Train

>  <MW>  (135) 
458.56

>  <HBD>  (135) 
1

>  <HBA>  (135) 
7

>  <NRB>  (135) 
9

>  <NR>  (135) 
5

>  <NAR>  (135) 
3

>  <PSA>  (135) 
79.64

>  <Standard Type>  (135) 
nan

>  <Standard Relation>  (135) 
nan

>  <Standard Units>  (135) 
nan

>  <Standard Value>  (135) 
nan

>  <Assay ChEMBL ID>  (135) 
nan

>  <Assay Description>  (135) 
nan

>  <BAO Label>  (135) 
nan

$$$$

     RDKit          2D

 38 44  0  0  0  0  0  0  0  0999 V2000
    3.0000   -7.7942    0.0000 C   0  0  0  0  0  0  0  0  0  0  0  0
    1.5000   -7.7942    0.0000 C   0  0  0  0  0  0  0  0  0  0  0  0
    0.7500   -6.4952    0.0000 C   0  0  0  0  0  0  0  0  0  0  0  0
    1.5000   -5.1962    0.0000 C   0  0  0  0  0  0  0  0  0  0  0  0
    0.7500   -3.8971    0.0000 C   0  0  0  0  0  0  0  0  0  0  0  0
    1.5000   -2.5981    0.0000 O   0  0  0  0  0  0  0  0  0  0  0  0
    0.7500   -1.2990    0.0000 C   0  0  0  0  0  0  0  0  0  0  0  0
    1.5000    0.0000    0.0000 C   0  0  0  0  0  0  0  0  0  0  0  0
    0.7500    1.2990    0.0000 C   0  0  0  0  0  0  0  0  0  0  0  0
   -0.7500    1.2990    0.0000 C   0  0  0  0  0  0  0  0  0  0  0  0
   -1.7537    2.4138    0.0000 C   0  0  0  0  0  0  0  0  0  0  0  0
   -1.4418    3.8810    0.0000 C   0  0  0  0  0  0  0  0  0  0  0  0
   -0.0715    4.4911    0.0000 N   0  0  0  0  0  0  0  0  0  0  0  0
   -0.2283    5.9829    0.0000 C   0  0  0  0  0  0  0  0  0  0  0  0
    0.7754    7.0976    0.0000 C   0  0  0  0  0  0  0  0  0  0  0  0
    0.3119    8.5242    0.0000 C   0  0  0  0  0  0  0  0  0  0  0  0
    1.3156    9.6389    0.0000 N   0  0  0  0  0  0  0  0  0  0  0  0
    2.7828    9.3270    0.0000 C   0  0  0  0  0  0  0  0  0  0  0  0
    3.7865   10.4417    0.0000 C   0  0  0  0  0  0  0  0  0  0  0  0
    3.3230   11.8683    0.0000 C   0  0  0  0  0  0  0  0  0  0  0  0
    4.3267   12.9830    0.0000 N   0  0  0  0  0  0  0  0  0  0  0  0
    5.7939   12.6712    0.0000 C   0  0  0  0  0  0  0  0  0  0  0  0
    6.7976   13.7859    0.0000 C   0  0  0  0  0  0  0  0  0  0  0  0
    6.3340   15.2125    0.0000 C   0  0  0  0  0  0  0  0  0  0  0  0
    4.8668   15.5243    0.0000 C   0  0  0  0  0  0  0  0  0  0  0  0
    3.8631   14.4096    0.0000 C   0  0  0  0  0  0  0  0  0  0  0  0
    1.8557   12.1802    0.0000 C   0  0  0  0  0  0  0  0  0  0  0  0
    0.8520   11.0655    0.0000 C   0  0  0  0  0  0  0  0  0  0  0  0
   -1.1554    8.8360    0.0000 C   0  0  0  0  0  0  0  0  0  0  0  0
   -2.1590    7.7213    0.0000 C   0  0  0  0  0  0  0  0  0  0  0  0
   -1.6955    6.2947    0.0000 C   0  0  0  0  0  0  0  0  0  0  0  0
   -2.4455    4.9957    0.0000 N   0  0  0  0  0  0  0  0  0  0  0  0
   -3.1240    1.8037    0.0000 N   0  0  0  0  0  0  0  0  0  0  0  0
   -2.9672    0.3119    0.0000 N   0  0  0  0  0  0  0  0  0  0  0  0
   -1.5000    0.0000    0.0000 C   0  0  0  0  0  0  0  0  0  0  0  0
   -0.7500   -1.2990    0.0000 C   0  0  0  0  0  0  0  0  0  0  0  0
    3.0000   -5.1962    0.0000 C   0  0  0  0  0  0  0  0  0  0  0  0
    3.7500   -6.4952    0.0000 C   0  0  0  0  0  0  0  0  0  0  0  0
  1  2  2  0
  2  3  1  0
  3  4  2  0
  4  5  1  0
  5  6  1  0
  6  7  1  0
  7  8  1  0
  8  9  2  0
  9 10  1  0
 10 11  2  0
 11 12  1  0
 12 13  2  0
 13 14  1  0
 14 15  2  0
 15 16  1  0
 16 17  1  0
 17 18  1  0
 18 19  1  0
 19 20  1  0
 20 21  1  0
 21 22  1  0
 22 23  1  0
 23 24  1  0
 24 25  1  0
 25 26  1  0
 20 27  1  0
 27 28  1  0
 16 29  2  0
 29 30  1  0
 30 31  2  0
 31 32  1  0
 11 33  1  0
 33 34  1  0
 34 35  2  0
 35 36  1  0
  4 37  1  0
 37 38  2  0
 38  1  1  0
 36  7  2  0
 35 10  1  0
 32 12  1  0
 31 14  1  0
 28 17  1  0
 26 21  1  0
M  END
>  <Compound_ID>  (136) 
CHEMBL209704

>  <Active>  (136) 
1

>  <Smiles>  (136) 
c1ccc(COc2ccc3c(-c4nc5cc(N6CCC(N7CCCCC7)CC6)ccc5[nH]4)[nH]nc3c2)cc1

>  <canonical_smi>  (136) 
c1ccc(COc2ccc3c(-c4nc5cc(N6CCC(N7CCCCC7)CC6)ccc5[nH]4)[nH]nc3c2)cc1

>  <Set>  (136) 
G2 active

>  <Set_type>  (136) 
Train

>  <MW>  (136) 
506.65

>  <HBD>  (136) 
2

>  <HBA>  (136) 
5

>  <NRB>  (136) 
6

>  <NR>  (136) 
7

>  <NAR>  (136) 
5

>  <PSA>  (136) 
73.07

>  <Standard Type>  (136) 
nan

>  <Standard Relation>  (136) 
nan

>  <Standard Units>  (136) 
nan

>  <Standard Value>  (136) 
nan

>  <Assay ChEMBL ID>  (136) 
nan

>  <Assay Description>  (136) 
nan

>  <BAO Label>  (136) 
nan

$$$$

     RDKit          2D

 29 31  0  0  0  0  0  0  0  0999 V2000
    3.0000    0.0000    0.0000 C   0  0  0  0  0  0  0  0  0  0  0  0
    1.5000    0.0000    0.0000 C   0  0  0  0  0  0  0  0  0  0  0  0
    0.7500   -1.2990    0.0000 C   0  0  0  0  0  0  0  0  0  0  0  0
   -0.7500   -1.2990    0.0000 C   0  0  0  0  0  0  0  0  0  0  0  0
   -1.5000    0.0000    0.0000 C   0  0  0  0  0  0  0  0  0  0  0  0
   -3.0000    0.0000    0.0000 N   0  0  0  0  0  0  0  0  0  0  0  0
   -3.7500    1.2990    0.0000 C   0  0  0  0  0  0  0  0  0  0  0  0
   -3.0000    2.5981    0.0000 O   0  0  0  0  0  0  0  0  0  0  0  0
   -5.2500    1.2990    0.0000 C   0  0  0  0  0  0  0  0  0  0  0  0
   -6.0000    2.5981    0.0000 C   0  0  0  0  0  0  0  0  0  0  0  0
   -7.5000    2.5981    0.0000 C   0  0  0  0  0  0  0  0  0  0  0  0
   -8.2500    1.2990    0.0000 C   0  0  0  0  0  0  0  0  0  0  0  0
   -7.5000    0.0000    0.0000 C   0  0  0  0  0  0  0  0  0  0  0  0
   -8.2500   -1.2990    0.0000 C   0  0  0  0  0  0  0  0  0  0  0  0
   -9.0000   -2.5981    0.0000 F   0  0  0  0  0  0  0  0  0  0  0  0
   -9.5490   -0.5490    0.0000 F   0  0  0  0  0  0  0  0  0  0  0  0
   -6.9510   -2.0490    0.0000 F   0  0  0  0  0  0  0  0  0  0  0  0
   -6.0000    0.0000    0.0000 C   0  0  0  0  0  0  0  0  0  0  0  0
   -0.7500    1.2990    0.0000 C   0  0  0  0  0  0  0  0  0  0  0  0
    0.7500    1.2990    0.0000 C   0  0  0  0  0  0  0  0  0  0  0  0
    1.5000    2.5981    0.0000 C   0  0  0  0  0  0  0  0  0  0  0  0
    3.0000    2.5981    0.0000 O   0  0  0  0  0  0  0  0  0  0  0  0
    0.7500    3.8971    0.0000 N   0  0  0  0  0  0  0  0  0  0  0  0
    1.5000    5.1962    0.0000 C   0  0  0  0  0  0  0  0  0  0  0  0
    3.0000    5.1962    0.0000 C   0  0  0  0  0  0  0  0  0  0  0  0
    3.7500    6.4952    0.0000 N   0  0  0  0  0  0  0  0  0  0  0  0
    3.0000    7.7942    0.0000 C   0  0  0  0  0  0  0  0  0  0  0  0
    1.5000    7.7942    0.0000 N   0  0  0  0  0  0  0  0  0  0  0  0
    0.7500    6.4952    0.0000 C   0  0  0  0  0  0  0  0  0  0  0  0
  1  2  1  0
  2  3  2  0
  3  4  1  0
  4  5  2  0
  5  6  1  0
  6  7  1  0
  7  8  2  0
  7  9  1  0
  9 10  2  0
 10 11  1  0
 11 12  2  0
 12 13  1  0
 13 14  1  0
 14 15  1  0
 14 16  1  0
 14 17  1  0
 13 18  2  0
  5 19  1  0
 19 20  2  0
 20 21  1  0
 21 22  2  0
 21 23  1  0
 23 24  1  0
 24 25  2  0
 25 26  1  0
 26 27  2  0
 27 28  1  0
 28 29  2  0
 20  2  1  0
 29 24  1  0
 18  9  1  0
M  END
>  <Compound_ID>  (137) 
CHEMBL259247

>  <Active>  (137) 
1

>  <Smiles>  (137) 
Cc1ccc(NC(=O)c2cccc(C(F)(F)F)c2)cc1C(=O)Nc1cncnc1

>  <canonical_smi>  (137) 
Cc1ccc(NC(=O)c2cccc(C(F)(F)F)c2)cc1C(=O)Nc1cncnc1

>  <Set>  (137) 
G2 active

>  <Set_type>  (137) 
Train

>  <MW>  (137) 
400.36

>  <HBD>  (137) 
2

>  <HBA>  (137) 
4

>  <NRB>  (137) 
4

>  <NR>  (137) 
3

>  <NAR>  (137) 
3

>  <PSA>  (137) 
83.98

>  <Standard Type>  (137) 
nan

>  <Standard Relation>  (137) 
nan

>  <Standard Units>  (137) 
nan

>  <Standard Value>  (137) 
nan

>  <Assay ChEMBL ID>  (137) 
nan

>  <Assay Description>  (137) 
nan

>  <BAO Label>  (137) 
nan

$$$$

     RDKit          2D

 22 25  0  0  0  0  0  0  0  0999 V2000
    3.0000   -7.7942    0.0000 N   0  0  0  0  0  0  0  0  0  0  0  0
    3.7500   -6.4952    0.0000 C   0  0  0  0  0  0  0  0  0  0  0  0
    3.0000   -5.1962    0.0000 C   0  0  0  0  0  0  0  0  0  0  0  0
    1.5000   -5.1962    0.0000 C   0  0  0  0  0  0  0  0  0  0  0  0
    0.7500   -3.8971    0.0000 C   0  0  0  0  0  0  0  0  0  0  0  0
    1.5000   -2.5981    0.0000 C   0  0  0  0  0  0  0  0  0  0  0  0
    0.7500   -1.2990    0.0000 C   0  0  0  0  0  0  0  0  0  0  0  0
    1.5000    0.0000    0.0000 C   0  0  0  0  0  0  0  0  0  0  0  0
    0.7500    1.2990    0.0000 N   0  0  0  0  0  0  0  0  0  0  0  0
    1.2135    2.7256    0.0000 C   0  0  0  0  0  0  0  0  0  0  0  0
    2.6401    3.1891    0.0000 C   0  0  0  0  0  0  0  0  0  0  0  0
    3.1036    4.6157    0.0000 C   0  0  0  0  0  0  0  0  0  0  0  0
    4.6036    4.6157    0.0000 N   0  0  0  0  0  0  0  0  0  0  0  0
    5.0672    3.1891    0.0000 N   0  0  0  0  0  0  0  0  0  0  0  0
    3.8536    2.3075    0.0000 C   0  0  0  0  0  0  0  0  0  0  0  0
   -0.0000    3.6073    0.0000 C   0  0  0  0  0  0  0  0  0  0  0  0
   -1.2135    2.7256    0.0000 N   0  0  0  0  0  0  0  0  0  0  0  0
   -0.7500    1.2990    0.0000 C   0  0  0  0  0  0  0  0  0  0  0  0
   -1.5000    0.0000    0.0000 C   0  0  0  0  0  0  0  0  0  0  0  0
   -0.7500   -1.2990    0.0000 N   0  0  0  0  0  0  0  0  0  0  0  0
    3.0000   -2.5981    0.0000 C   0  0  0  0  0  0  0  0  0  0  0  0
    3.7500   -3.8971    0.0000 C   0  0  0  0  0  0  0  0  0  0  0  0
  1  2  1  0
  2  3  1  0
  3  4  2  0
  4  5  1  0
  5  6  2  0
  6  7  1  0
  7  8  2  0
  8  9  1  0
  9 10  1  0
 10 11  1  0
 11 12  1  0
 12 13  2  0
 13 14  1  0
 14 15  1  0
 10 16  2  0
 16 17  1  0
 17 18  2  0
 18 19  1  0
 19 20  2  0
  6 21  1  0
 21 22  2  0
 22  3  1  0
 20  7  1  0
 18  9  1  0
 15 11  2  0
M  END
>  <Compound_ID>  (138) 
CHEMBL1170747

>  <Active>  (138) 
1

>  <Smiles>  (138) 
NCc1ccc(-c2cn3c(-c4cn[nH]c4)cnc3cn2)cc1

>  <canonical_smi>  (138) 
NCc1ccc(-c2cn3c(-c4cn[nH]c4)cnc3cn2)cc1

>  <Set>  (138) 
G2 active

>  <Set_type>  (138) 
Train

>  <MW>  (138) 
290.33

>  <HBD>  (138) 
2

>  <HBA>  (138) 
4

>  <NRB>  (138) 
3

>  <NR>  (138) 
4

>  <NAR>  (138) 
4

>  <PSA>  (138) 
84.89

>  <Standard Type>  (138) 
nan

>  <Standard Relation>  (138) 
nan

>  <Standard Units>  (138) 
nan

>  <Standard Value>  (138) 
nan

>  <Assay ChEMBL ID>  (138) 
nan

>  <Assay Description>  (138) 
nan

>  <BAO Label>  (138) 
nan

$$$$

     RDKit          2D

 30 32  0  0  0  0  0  0  0  0999 V2000
   -0.7500   -3.8971    0.0000 O   0  0  0  0  0  0  0  0  0  0  0  0
    0.7500   -3.8971    0.0000 C   0  0  0  0  0  0  0  0  0  0  0  0
    1.5000   -2.5981    0.0000 N   0  0  0  0  0  0  0  0  0  0  0  0
    0.7500   -1.2990    0.0000 C   0  0  0  0  0  0  0  0  0  0  0  0
    1.5000    0.0000    0.0000 C   0  0  0  0  0  0  0  0  0  0  0  0
    0.7500    1.2990    0.0000 C   0  0  0  0  0  0  0  0  0  0  0  0
   -0.7500    1.2990    0.0000 C   0  0  0  0  0  0  0  0  0  0  0  0
   -1.5000    2.5981    0.0000 O   0  0  0  0  0  0  0  0  0  0  0  0
   -0.7500    3.8971    0.0000 C   0  0  0  0  0  0  0  0  0  0  0  0
   -1.5000    5.1962    0.0000 C   0  0  0  0  0  0  0  0  0  0  0  0
   -0.7500    6.4952    0.0000 N   0  0  0  0  0  0  0  0  0  0  0  0
    0.7500    6.4952    0.0000 C   0  0  0  0  0  0  0  0  0  0  0  0
    1.5000    7.7942    0.0000 C   0  0  0  0  0  0  0  0  0  0  0  0
    0.7500    9.0933    0.0000 O   0  0  0  0  0  0  0  0  0  0  0  0
   -0.7500    9.0933    0.0000 C   0  0  0  0  0  0  0  0  0  0  0  0
   -1.5000    7.7942    0.0000 C   0  0  0  0  0  0  0  0  0  0  0  0
   -1.5000    0.0000    0.0000 C   0  0  0  0  0  0  0  0  0  0  0  0
   -0.7500   -1.2990    0.0000 C   0  0  0  0  0  0  0  0  0  0  0  0
    1.5000   -5.1962    0.0000 N   0  0  0  0  0  0  0  0  0  0  0  0
    0.7500   -6.4952    0.0000 C   0  0  0  0  0  0  0  0  0  0  0  0
   -0.7500   -6.4952    0.0000 C   0  0  0  0  0  0  0  0  0  0  0  0
   -1.5000   -7.7942    0.0000 C   0  0  0  0  0  0  0  0  0  0  0  0
   -0.7500   -9.0933    0.0000 C   0  0  0  0  0  0  0  0  0  0  0  0
   -1.5000  -10.3923    0.0000 Cl  0  0  0  0  0  0  0  0  0  0  0  0
    0.7500   -9.0933    0.0000 C   0  0  0  0  0  0  0  0  0  0  0  0
    1.5000  -10.3923    0.0000 C   0  0  0  0  0  0  0  0  0  0  0  0
    2.2500  -11.6913    0.0000 F   0  0  0  0  0  0  0  0  0  0  0  0
    2.7990   -9.6423    0.0000 F   0  0  0  0  0  0  0  0  0  0  0  0
    0.2010  -11.1423    0.0000 F   0  0  0  0  0  0  0  0  0  0  0  0
    1.5000   -7.7942    0.0000 C   0  0  0  0  0  0  0  0  0  0  0  0
  1  2  2  0
  2  3  1  0
  3  4  1  0
  4  5  2  0
  5  6  1  0
  6  7  2  0
  7  8  1  0
  8  9  1  0
  9 10  1  0
 10 11  1  0
 11 12  1  0
 12 13  1  0
 13 14  1  0
 14 15  1  0
 15 16  1  0
  7 17  1  0
 17 18  2  0
  2 19  1  0
 19 20  1  0
 20 21  2  0
 21 22  1  0
 22 23  2  0
 23 24  1  0
 23 25  1  0
 25 26  1  0
 26 27  1  0
 26 28  1  0
 26 29  1  0
 25 30  2  0
 18  4  1  0
 30 20  1  0
 16 11  1  0
M  END
>  <Compound_ID>  (139) 
CHEMBL1213976

>  <Active>  (139) 
1

>  <Smiles>  (139) 
O=C(Nc1ccc(OCCN2CCOCC2)cc1)Nc1ccc(Cl)c(C(F)(F)F)c1

>  <canonical_smi>  (139) 
O=C(Nc1ccc(OCCN2CCOCC2)cc1)Nc1ccc(Cl)c(C(F)(F)F)c1

>  <Set>  (139) 
G2 active

>  <Set_type>  (139) 
Train

>  <MW>  (139) 
443.85

>  <HBD>  (139) 
2

>  <HBA>  (139) 
4

>  <NRB>  (139) 
6

>  <NR>  (139) 
3

>  <NAR>  (139) 
2

>  <PSA>  (139) 
62.83

>  <Standard Type>  (139) 
nan

>  <Standard Relation>  (139) 
nan

>  <Standard Units>  (139) 
nan

>  <Standard Value>  (139) 
nan

>  <Assay ChEMBL ID>  (139) 
nan

>  <Assay Description>  (139) 
nan

>  <BAO Label>  (139) 
nan

$$$$

     RDKit          2D

 21 23  0  0  0  0  0  0  0  0999 V2000
    3.6172   -9.8037    0.0000 O   0  0  0  0  0  0  0  0  0  0  0  0
    4.8308   -8.9221    0.0000 C   0  0  0  0  0  0  0  0  0  0  0  0
    4.6740   -7.4303    0.0000 N   0  0  0  0  0  0  0  0  0  0  0  0
    3.3037   -6.8202    0.0000 C   0  0  0  0  0  0  0  0  0  0  0  0
    2.0046   -7.5702    0.0000 N   0  0  0  0  0  0  0  0  0  0  0  0
    0.8899   -6.5665    0.0000 N   0  0  0  0  0  0  0  0  0  0  0  0
    1.5000   -5.1962    0.0000 C   0  0  0  0  0  0  0  0  0  0  0  0
    0.7500   -3.8971    0.0000 C   0  0  0  0  0  0  0  0  0  0  0  0
    1.5000   -2.5981    0.0000 O   0  0  0  0  0  0  0  0  0  0  0  0
    0.7500   -1.2990    0.0000 C   0  0  0  0  0  0  0  0  0  0  0  0
    1.5000    0.0000    0.0000 C   0  0  0  0  0  0  0  0  0  0  0  0
    0.7500    1.2990    0.0000 C   0  0  0  0  0  0  0  0  0  0  0  0
   -0.7500    1.2990    0.0000 C   0  0  0  0  0  0  0  0  0  0  0  0
   -1.5000    0.0000    0.0000 C   0  0  0  0  0  0  0  0  0  0  0  0
   -0.7500   -1.2990    0.0000 C   0  0  0  0  0  0  0  0  0  0  0  0
    2.9918   -5.3529    0.0000 S   0  0  0  0  0  0  0  0  0  0  0  0
    6.2011   -9.5322    0.0000 C   0  0  0  0  0  0  0  0  0  0  0  0
    7.5001   -8.7822    0.0000 C   0  0  0  0  0  0  0  0  0  0  0  0
    8.6148   -9.7859    0.0000 C   0  0  0  0  0  0  0  0  0  0  0  0
    8.0047  -11.1562    0.0000 C   0  0  0  0  0  0  0  0  0  0  0  0
    6.5129  -10.9994    0.0000 S   0  0  0  0  0  0  0  0  0  0  0  0
  1  2  2  0
  2  3  1  0
  3  4  1  0
  4  5  2  0
  5  6  1  0
  6  7  2  0
  7  8  1  0
  8  9  1  0
  9 10  1  0
 10 11  2  0
 11 12  1  0
 12 13  2  0
 13 14  1  0
 14 15  2  0
  7 16  1  0
  2 17  1  0
 17 18  2  0
 18 19  1  0
 19 20  2  0
 20 21  1  0
 16  4  1  0
 21 17  1  0
 15 10  1  0
M  END
>  <Compound_ID>  (140) 
CHEMBL477342

>  <Active>  (140) 
1

>  <Smiles>  (140) 
O=C(Nc1nnc(COc2ccccc2)s1)c1cccs1

>  <canonical_smi>  (140) 
O=C(Nc1nnc(COc2ccccc2)s1)c1cccs1

>  <Set>  (140) 
G2 active

>  <Set_type>  (140) 
Train

>  <MW>  (140) 
317.4

>  <HBD>  (140) 
1

>  <HBA>  (140) 
4

>  <NRB>  (140) 
5

>  <NR>  (140) 
3

>  <NAR>  (140) 
3

>  <PSA>  (140) 
64.11

>  <Standard Type>  (140) 
nan

>  <Standard Relation>  (140) 
nan

>  <Standard Units>  (140) 
nan

>  <Standard Value>  (140) 
nan

>  <Assay ChEMBL ID>  (140) 
nan

>  <Assay Description>  (140) 
nan

>  <BAO Label>  (140) 
nan

$$$$

     RDKit          2D

 27 30  0  0  0  0  0  0  0  0999 V2000
   -2.6380    5.6918    0.0000 C   0  0  0  0  0  0  0  0  0  0  0  0
   -2.9499    4.2246    0.0000 N   0  0  0  0  0  0  0  0  0  0  0  0
   -4.3764    3.7611    0.0000 C   0  0  0  0  0  0  0  0  0  0  0  0
   -1.8351    3.2209    0.0000 C   0  0  0  0  0  0  0  0  0  0  0  0
   -0.4086    3.6844    0.0000 N   0  0  0  0  0  0  0  0  0  0  0  0
    0.7062    2.6807    0.0000 C   0  0  0  0  0  0  0  0  0  0  0  0
    2.1328    3.1443    0.0000 N   0  0  0  0  0  0  0  0  0  0  0  0
    3.2475    2.1406    0.0000 C   0  0  0  0  0  0  0  0  0  0  0  0
    4.6741    2.6041    0.0000 C   0  0  0  0  0  0  0  0  0  0  0  0
    4.9859    4.0713    0.0000 O   0  0  0  0  0  0  0  0  0  0  0  0
    3.8712    5.0750    0.0000 C   0  0  0  0  0  0  0  0  0  0  0  0
    2.4446    4.6115    0.0000 C   0  0  0  0  0  0  0  0  0  0  0  0
    0.3943    1.2135    0.0000 C   0  0  0  0  0  0  0  0  0  0  0  0
    1.2760    0.0000    0.0000 C   0  0  0  0  0  0  0  0  0  0  0  0
    0.3943   -1.2135    0.0000 N   0  0  0  0  0  0  0  0  0  0  0  0
   -1.0323   -0.7500    0.0000 N   0  0  0  0  0  0  0  0  0  0  0  0
   -2.2458   -1.6317    0.0000 C   0  0  0  0  0  0  0  0  0  0  0  0
   -2.0890   -3.1235    0.0000 C   0  0  0  0  0  0  0  0  0  0  0  0
   -0.7187   -3.7336    0.0000 Cl  0  0  0  0  0  0  0  0  0  0  0  0
   -3.3025   -4.0051    0.0000 C   0  0  0  0  0  0  0  0  0  0  0  0
   -4.6729   -3.3950    0.0000 C   0  0  0  0  0  0  0  0  0  0  0  0
   -5.8864   -4.2767    0.0000 C   0  0  0  0  0  0  0  0  0  0  0  0
   -5.7296   -5.7685    0.0000 C   0  0  0  0  0  0  0  0  0  0  0  0
   -4.3593   -6.3786    0.0000 C   0  0  0  0  0  0  0  0  0  0  0  0
   -3.1458   -5.4969    0.0000 C   0  0  0  0  0  0  0  0  0  0  0  0
   -1.0323    0.7500    0.0000 C   0  0  0  0  0  0  0  0  0  0  0  0
   -2.1470    1.7537    0.0000 N   0  0  0  0  0  0  0  0  0  0  0  0
  1  2  1  0
  2  3  1  0
  2  4  1  0
  4  5  2  0
  5  6  1  0
  6  7  1  0
  7  8  1  0
  8  9  1  0
  9 10  1  0
 10 11  1  0
 11 12  1  0
  6 13  2  0
 13 14  1  0
 14 15  2  0
 15 16  1  0
 16 17  1  0
 17 18  1  0
 18 19  1  0
 18 20  1  0
 20 21  2  0
 21 22  1  0
 22 23  2  0
 23 24  1  0
 24 25  2  0
 16 26  1  0
 26 27  2  0
 27  4  1  0
 12  7  1  0
 26 13  1  0
 25 20  1  0
M  END
>  <Compound_ID>  (141) 
CHEMBL473923

>  <Active>  (141) 
1

>  <Smiles>  (141) 
CN(C)c1nc(N2CCOCC2)c2cnn(CC(Cl)c3ccccc3)c2n1

>  <canonical_smi>  (141) 
CN(C)c1nc(N2CCOCC2)c2cnn(CC(Cl)c3ccccc3)c2n1

>  <Set>  (141) 
G2 active

>  <Set_type>  (141) 
Train

>  <MW>  (141) 
386.89

>  <HBD>  (141) 
0

>  <HBA>  (141) 
6

>  <NRB>  (141) 
5

>  <NR>  (141) 
4

>  <NAR>  (141) 
3

>  <PSA>  (141) 
59.31

>  <Standard Type>  (141) 
nan

>  <Standard Relation>  (141) 
nan

>  <Standard Units>  (141) 
nan

>  <Standard Value>  (141) 
nan

>  <Assay ChEMBL ID>  (141) 
nan

>  <Assay Description>  (141) 
nan

>  <BAO Label>  (141) 
nan

$$$$

     RDKit          2D

 34 38  0  0  0  0  0  0  0  0999 V2000
    8.9488   -1.8011    0.0000 O   0  0  0  0  0  0  0  0  0  0  0  0
    9.1056   -3.2929    0.0000 C   0  0  0  0  0  0  0  0  0  0  0  0
    7.8921   -4.1746    0.0000 C   0  0  0  0  0  0  0  0  0  0  0  0
    6.5218   -3.5645    0.0000 C   0  0  0  0  0  0  0  0  0  0  0  0
    5.3083   -4.4462    0.0000 C   0  0  0  0  0  0  0  0  0  0  0  0
    5.3083   -5.9462    0.0000 C   0  0  0  0  0  0  0  0  0  0  0  0
    3.8817   -6.4097    0.0000 C   0  0  0  0  0  0  0  0  0  0  0  0
    3.0000   -5.1962    0.0000 C   0  0  0  0  0  0  0  0  0  0  0  0
    1.5000   -5.1962    0.0000 C   0  0  0  0  0  0  0  0  0  0  0  0
    0.7500   -3.8971    0.0000 C   0  0  0  0  0  0  0  0  0  0  0  0
    1.5000   -2.5981    0.0000 O   0  0  0  0  0  0  0  0  0  0  0  0
    0.7500   -1.2990    0.0000 C   0  0  0  0  0  0  0  0  0  0  0  0
    1.5000    0.0000    0.0000 C   0  0  0  0  0  0  0  0  0  0  0  0
    0.7500    1.2990    0.0000 C   0  0  0  0  0  0  0  0  0  0  0  0
   -0.7500    1.2990    0.0000 C   0  0  0  0  0  0  0  0  0  0  0  0
   -1.5000    0.0000    0.0000 C   0  0  0  0  0  0  0  0  0  0  0  0
   -0.7500   -1.2990    0.0000 C   0  0  0  0  0  0  0  0  0  0  0  0
   -1.5000   -2.5981    0.0000 N   0  0  0  0  0  0  0  0  0  0  0  0
   -0.7500   -3.8971    0.0000 C   0  0  0  0  0  0  0  0  0  0  0  0
   -1.5000   -5.1962    0.0000 O   0  0  0  0  0  0  0  0  0  0  0  0
    3.8817   -3.9826    0.0000 S   0  0  0  0  0  0  0  0  0  0  0  0
   10.4760   -3.9030    0.0000 N   0  0  0  0  0  0  0  0  0  0  0  0
   11.6895   -3.0213    0.0000 C   0  0  0  0  0  0  0  0  0  0  0  0
   13.0598   -3.6314    0.0000 C   0  0  0  0  0  0  0  0  0  0  0  0
   14.2733   -2.7498    0.0000 C   0  0  0  0  0  0  0  0  0  0  0  0
   14.1165   -1.2580    0.0000 C   0  0  0  0  0  0  0  0  0  0  0  0
   15.3301   -0.3763    0.0000 N   0  0  0  0  0  0  0  0  0  0  0  0
   16.7004   -0.9864    0.0000 C   0  0  0  0  0  0  0  0  0  0  0  0
   17.9139   -0.1047    0.0000 C   0  0  0  0  0  0  0  0  0  0  0  0
   17.7571    1.3871    0.0000 O   0  0  0  0  0  0  0  0  0  0  0  0
   16.3868    1.9972    0.0000 C   0  0  0  0  0  0  0  0  0  0  0  0
   15.1733    1.1155    0.0000 C   0  0  0  0  0  0  0  0  0  0  0  0
   12.7462   -0.6479    0.0000 C   0  0  0  0  0  0  0  0  0  0  0  0
   11.5327   -1.5295    0.0000 C   0  0  0  0  0  0  0  0  0  0  0  0
  1  2  2  0
  2  3  1  0
  3  4  2  0
  4  5  1  0
  5  6  2  0
  6  7  1  0
  7  8  2  0
  8  9  1  0
  9 10  2  0
 10 11  1  0
 11 12  1  0
 12 13  2  0
 13 14  1  0
 14 15  2  0
 15 16  1  0
 16 17  2  0
 17 18  1  0
 18 19  1  0
 19 20  2  0
  8 21  1  0
  2 22  1  0
 22 23  1  0
 23 24  2  0
 24 25  1  0
 25 26  2  0
 26 27  1  0
 27 28  1  0
 28 29  1  0
 29 30  1  0
 30 31  1  0
 31 32  1  0
 26 33  1  0
 33 34  2  0
 21  5  1  0
 34 23  1  0
 19 10  1  0
 32 27  1  0
 17 12  1  0
M  END
>  <Compound_ID>  (142) 
CHEMBL518031

>  <Active>  (142) 
1

>  <Smiles>  (142) 
O=C(/C=C/c1ccc(/C=C2\Oc3ccccc3NC2=O)s1)Nc1ccc(N2CCOCC2)cc1

>  <canonical_smi>  (142) 
O=C(/C=C/c1ccc(/C=C2\Oc3ccccc3NC2=O)s1)Nc1ccc(N2CCOCC2)cc1

>  <Set>  (142) 
G2 active

>  <Set_type>  (142) 
Train

>  <MW>  (142) 
473.55

>  <HBD>  (142) 
2

>  <HBA>  (142) 
5

>  <NRB>  (142) 
5

>  <NR>  (142) 
5

>  <NAR>  (142) 
3

>  <PSA>  (142) 
79.9

>  <Standard Type>  (142) 
nan

>  <Standard Relation>  (142) 
nan

>  <Standard Units>  (142) 
nan

>  <Standard Value>  (142) 
nan

>  <Assay ChEMBL ID>  (142) 
nan

>  <Assay Description>  (142) 
nan

>  <BAO Label>  (142) 
nan

$$$$

     RDKit          2D

 27 30  0  0  0  0  0  0  0  0999 V2000
   -0.7500   -3.8971    0.0000 O   0  0  0  0  0  0  0  0  0  0  0  0
    0.7500   -3.8971    0.0000 C   0  0  0  0  0  0  0  0  0  0  0  0
    1.5000   -2.5981    0.0000 N   0  0  0  0  0  0  0  0  0  0  0  0
    0.7500   -1.2990    0.0000 C   0  0  0  0  0  0  0  0  0  0  0  0
    1.5000    0.0000    0.0000 C   0  0  0  0  0  0  0  0  0  0  0  0
    0.7500    1.2990    0.0000 C   0  0  0  0  0  0  0  0  0  0  0  0
   -0.7500    1.2990    0.0000 C   0  0  0  0  0  0  0  0  0  0  0  0
   -1.5000    0.0000    0.0000 C   0  0  0  0  0  0  0  0  0  0  0  0
   -3.0000    0.0000    0.0000 N   0  0  0  0  0  0  0  0  0  0  0  0
   -3.7500    1.2990    0.0000 C   0  0  0  0  0  0  0  0  0  0  0  0
   -3.0000    2.5981    0.0000 N   0  0  0  0  0  0  0  0  0  0  0  0
   -3.7500    3.8971    0.0000 C   0  0  0  0  0  0  0  0  0  0  0  0
   -5.2500    3.8971    0.0000 C   0  0  0  0  0  0  0  0  0  0  0  0
   -6.0000    2.5981    0.0000 C   0  0  0  0  0  0  0  0  0  0  0  0
   -7.5000    2.5981    0.0000 C   0  0  0  0  0  0  0  0  0  0  0  0
   -8.2500    3.8971    0.0000 C   0  0  0  0  0  0  0  0  0  0  0  0
   -9.7500    3.8971    0.0000 C   0  0  0  0  0  0  0  0  0  0  0  0
  -10.5000    2.5981    0.0000 C   0  0  0  0  0  0  0  0  0  0  0  0
   -9.7500    1.2990    0.0000 N   0  0  0  0  0  0  0  0  0  0  0  0
   -8.2500    1.2990    0.0000 C   0  0  0  0  0  0  0  0  0  0  0  0
   -5.2500    1.2990    0.0000 N   0  0  0  0  0  0  0  0  0  0  0  0
   -0.7500   -1.2990    0.0000 C   0  0  0  0  0  0  0  0  0  0  0  0
    1.5000   -5.1962    0.0000 C   0  0  0  0  0  0  0  0  0  0  0  0
    2.9918   -5.3529    0.0000 C   0  0  0  0  0  0  0  0  0  0  0  0
    3.3037   -6.8202    0.0000 C   0  0  0  0  0  0  0  0  0  0  0  0
    2.0046   -7.5702    0.0000 C   0  0  0  0  0  0  0  0  0  0  0  0
    0.8899   -6.5665    0.0000 S   0  0  0  0  0  0  0  0  0  0  0  0
  1  2  2  0
  2  3  1  0
  3  4  1  0
  4  5  2  0
  5  6  1  0
  6  7  2  0
  7  8  1  0
  8  9  1  0
  9 10  1  0
 10 11  2  0
 11 12  1  0
 12 13  2  0
 13 14  1  0
 14 15  1  0
 15 16  2  0
 16 17  1  0
 17 18  2  0
 18 19  1  0
 19 20  2  0
 14 21  2  0
  8 22  2  0
  2 23  1  0
 23 24  2  0
 24 25  1  0
 25 26  2  0
 26 27  1  0
 22  4  1  0
 27 23  1  0
 21 10  1  0
 20 15  1  0
M  END
>  <Compound_ID>  (143) 
CHEMBL56359

>  <Active>  (143) 
1

>  <Smiles>  (143) 
O=C(Nc1cccc(Nc2nccc(-c3cccnc3)n2)c1)c1cccs1

>  <canonical_smi>  (143) 
O=C(Nc1cccc(Nc2nccc(-c3cccnc3)n2)c1)c1cccs1

>  <Set>  (143) 
G2 active

>  <Set_type>  (143) 
Train

>  <MW>  (143) 
373.44

>  <HBD>  (143) 
2

>  <HBA>  (143) 
5

>  <NRB>  (143) 
5

>  <NR>  (143) 
4

>  <NAR>  (143) 
4

>  <PSA>  (143) 
79.8

>  <Standard Type>  (143) 
nan

>  <Standard Relation>  (143) 
nan

>  <Standard Units>  (143) 
nan

>  <Standard Value>  (143) 
nan

>  <Assay ChEMBL ID>  (143) 
nan

>  <Assay Description>  (143) 
nan

>  <BAO Label>  (143) 
nan

$$$$

     RDKit          2D

 35 40  0  0  0  0  0  0  0  0999 V2000
   -2.2500   -6.4952    0.0000 N   0  0  0  0  0  0  0  0  0  0  0  0
   -1.5000   -5.1962    0.0000 C   0  0  0  0  0  0  0  0  0  0  0  0
   -0.7500   -3.8971    0.0000 C   0  0  0  0  0  0  0  0  0  0  0  0
    0.7500   -3.8971    0.0000 C   0  0  0  0  0  0  0  0  0  0  0  0
    1.5000   -2.5981    0.0000 N   0  0  0  0  0  0  0  0  0  0  0  0
    0.7500   -1.2990    0.0000 C   0  0  0  0  0  0  0  0  0  0  0  0
    1.5000    0.0000    0.0000 C   0  0  0  0  0  0  0  0  0  0  0  0
    0.7500    1.2990    0.0000 C   0  0  0  0  0  0  0  0  0  0  0  0
    1.5000    2.5981    0.0000 C   0  0  0  0  0  0  0  0  0  0  0  0
    3.0000    2.5981    0.0000 C   0  0  0  0  0  0  0  0  0  0  0  0
    3.7500    3.8971    0.0000 C   0  0  0  0  0  0  0  0  0  0  0  0
    3.0000    5.1962    0.0000 C   0  0  0  0  0  0  0  0  0  0  0  0
    3.7500    6.4952    0.0000 C   0  0  0  0  0  0  0  0  0  0  0  0
    5.2500    6.4952    0.0000 N   0  0  0  0  0  0  0  0  0  0  0  0
    6.0000    5.1962    0.0000 C   0  0  0  0  0  0  0  0  0  0  0  0
    7.5000    5.1962    0.0000 C   0  0  0  0  0  0  0  0  0  0  0  0
    8.2500    6.4952    0.0000 O   0  0  0  0  0  0  0  0  0  0  0  0
    7.5000    7.7942    0.0000 C   0  0  0  0  0  0  0  0  0  0  0  0
    6.0000    7.7942    0.0000 C   0  0  0  0  0  0  0  0  0  0  0  0
    1.5000    5.1962    0.0000 C   0  0  0  0  0  0  0  0  0  0  0  0
    0.7500    3.8971    0.0000 C   0  0  0  0  0  0  0  0  0  0  0  0
   -0.7500    1.2990    0.0000 C   0  0  0  0  0  0  0  0  0  0  0  0
   -1.5000    0.0000    0.0000 C   0  0  0  0  0  0  0  0  0  0  0  0
   -0.7500   -1.2990    0.0000 C   0  0  0  0  0  0  0  0  0  0  0  0
   -1.5000   -2.5981    0.0000 C   0  0  0  0  0  0  0  0  0  0  0  0
   -3.0000   -2.5981    0.0000 N   0  0  0  0  0  0  0  0  0  0  0  0
   -3.7500   -1.2990    0.0000 C   0  0  0  0  0  0  0  0  0  0  0  0
   -5.0490   -0.5490    0.0000 C   0  0  0  0  0  0  0  0  0  0  0  0
   -3.7500    0.2010    0.0000 C   0  0  0  0  0  0  0  0  0  0  0  0
   -3.0000    1.5000    0.0000 C   0  0  0  0  0  0  0  0  0  0  0  0
   -1.5000    1.5000    0.0000 C   0  0  0  0  0  0  0  0  0  0  0  0
   -0.7500    2.7990    0.0000 C   0  0  0  0  0  0  0  0  0  0  0  0
   -1.5000    4.0981    0.0000 C   0  0  0  0  0  0  0  0  0  0  0  0
   -3.0000    4.0981    0.0000 C   0  0  0  0  0  0  0  0  0  0  0  0
   -3.7500    2.7990    0.0000 C   0  0  0  0  0  0  0  0  0  0  0  0
  1  2  3  0
  2  3  1  0
  3  4  2  0
  4  5  1  0
  5  6  2  0
  6  7  1  0
  7  8  2  0
  8  9  1  0
  9 10  2  0
 10 11  1  0
 11 12  2  0
 12 13  1  0
 13 14  1  0
 14 15  1  0
 15 16  1  0
 16 17  1  0
 17 18  1  0
 18 19  1  0
 12 20  1  0
 20 21  2  0
  8 22  1  0
 22 23  2  0
 23 24  1  0
 24 25  2  0
 25 26  1  0
 27 26  1  6
 27 28  1  0
 28 29  1  0
 29 30  1  1
 30 31  2  0
 31 32  1  0
 32 33  2  0
 33 34  1  0
 34 35  2  0
 25  3  1  0
 29 27  1  0
 35 30  1  0
 24  6  1  0
 21  9  1  0
 19 14  1  0
M  END
>  <Compound_ID>  (144) 
CHEMBL399438

>  <Active>  (144) 
1

>  <Smiles>  (144) 
N#Cc1cnc2cc(-c3ccc(CN4CCOCC4)cc3)ccc2c1N[C@@H]1C[C@H]1c1ccccc1

>  <canonical_smi>  (144) 
N#Cc1cnc2cc(-c3ccc(CN4CCOCC4)cc3)ccc2c1N[C@@H]1C[C@H]1c1ccccc1

>  <Set>  (144) 
G2 active

>  <Set_type>  (144) 
Train

>  <MW>  (144) 
460.58

>  <HBD>  (144) 
1

>  <HBA>  (144) 
5

>  <NRB>  (144) 
6

>  <NR>  (144) 
6

>  <NAR>  (144) 
4

>  <PSA>  (144) 
61.18

>  <Standard Type>  (144) 
nan

>  <Standard Relation>  (144) 
nan

>  <Standard Units>  (144) 
nan

>  <Standard Value>  (144) 
nan

>  <Assay ChEMBL ID>  (144) 
nan

>  <Assay Description>  (144) 
nan

>  <BAO Label>  (144) 
nan

$$$$

     RDKit          2D

 33 36  0  0  0  0  0  0  0  0999 V2000
   -8.0498    0.7685    0.0000 N   0  0  0  0  0  0  0  0  0  0  0  0
   -6.6232    1.2320    0.0000 C   0  0  0  0  0  0  0  0  0  0  0  0
   -5.5085    0.2283    0.0000 C   0  0  0  0  0  0  0  0  0  0  0  0
   -4.0819    0.6918    0.0000 C   0  0  0  0  0  0  0  0  0  0  0  0
   -2.9672   -0.3119    0.0000 N   0  0  0  0  0  0  0  0  0  0  0  0
   -3.1240   -1.8037    0.0000 C   0  0  0  0  0  0  0  0  0  0  0  0
   -1.7537   -2.4138    0.0000 C   0  0  0  0  0  0  0  0  0  0  0  0
   -0.7500   -1.2990    0.0000 C   0  0  0  0  0  0  0  0  0  0  0  0
    0.7500   -1.2990    0.0000 C   0  0  0  0  0  0  0  0  0  0  0  0
    1.5000   -2.5981    0.0000 C   0  0  0  0  0  0  0  0  0  0  0  0
    0.7500   -3.8971    0.0000 C   0  0  0  0  0  0  0  0  0  0  0  0
    1.5000   -5.1962    0.0000 C   0  0  0  0  0  0  0  0  0  0  0  0
    3.0000   -5.1962    0.0000 N   0  0  0  0  0  0  0  0  0  0  0  0
    3.7500   -3.8971    0.0000 C   0  0  0  0  0  0  0  0  0  0  0  0
    5.2500   -3.8971    0.0000 N   0  0  0  0  0  0  0  0  0  0  0  0
    6.0000   -5.1962    0.0000 C   0  0  0  0  0  0  0  0  0  0  0  0
    5.2500   -6.4952    0.0000 C   0  0  0  0  0  0  0  0  0  0  0  0
    6.0000   -7.7942    0.0000 C   0  0  0  0  0  0  0  0  0  0  0  0
    7.5000   -7.7942    0.0000 C   0  0  0  0  0  0  0  0  0  0  0  0
    8.2500   -6.4952    0.0000 C   0  0  0  0  0  0  0  0  0  0  0  0
    9.7500   -6.4952    0.0000 O   0  0  0  0  0  0  0  0  0  0  0  0
   10.5000   -7.7942    0.0000 C   0  0  0  0  0  0  0  0  0  0  0  0
    9.2010   -8.5442    0.0000 F   0  0  0  0  0  0  0  0  0  0  0  0
   11.7990   -7.0442    0.0000 F   0  0  0  0  0  0  0  0  0  0  0  0
   11.2500   -9.0933    0.0000 C   0  0  0  0  0  0  0  0  0  0  0  0
   10.5000  -10.3923    0.0000 F   0  0  0  0  0  0  0  0  0  0  0  0
   12.7500   -9.0933    0.0000 F   0  0  0  0  0  0  0  0  0  0  0  0
    7.5000   -5.1962    0.0000 C   0  0  0  0  0  0  0  0  0  0  0  0
    3.0000   -2.5981    0.0000 N   0  0  0  0  0  0  0  0  0  0  0  0
    1.5000    0.0000    0.0000 C   0  0  0  0  0  0  0  0  0  0  0  0
    0.7500    1.2990    0.0000 C   0  0  0  0  0  0  0  0  0  0  0  0
   -0.7500    1.2990    0.0000 C   0  0  0  0  0  0  0  0  0  0  0  0
   -1.5000    0.0000    0.0000 C   0  0  0  0  0  0  0  0  0  0  0  0
  1  2  1  0
  2  3  1  0
  3  4  1  0
  4  5  1  0
  5  6  1  0
  6  7  2  0
  7  8  1  0
  8  9  2  0
  9 10  1  0
 10 11  2  0
 11 12  1  0
 12 13  2  0
 13 14  1  0
 14 15  1  0
 15 16  1  0
 16 17  2  0
 17 18  1  0
 18 19  2  0
 19 20  1  0
 20 21  1  0
 21 22  1  0
 22 23  1  0
 22 24  1  0
 22 25  1  0
 25 26  1  0
 25 27  1  0
 20 28  2  0
 14 29  2  0
  9 30  1  0
 30 31  2  0
 31 32  1  0
 32 33  2  0
 33  5  1  0
 33  8  1  0
 29 10  1  0
 28 16  1  0
M  END
>  <Compound_ID>  (145) 
CHEMBL293991

>  <Active>  (145) 
1

>  <Smiles>  (145) 
NCCCn1ccc2c(-c3ccnc(Nc4cccc(OC(F)(F)C(F)F)c4)n3)cccc21

>  <canonical_smi>  (145) 
NCCCn1ccc2c(-c3ccnc(Nc4cccc(OC(F)(F)C(F)F)c4)n3)cccc21

>  <Set>  (145) 
G2 active

>  <Set_type>  (145) 
Train

>  <MW>  (145) 
459.45

>  <HBD>  (145) 
2

>  <HBA>  (145) 
5

>  <NRB>  (145) 
9

>  <NR>  (145) 
4

>  <NAR>  (145) 
4

>  <PSA>  (145) 
77.99

>  <Standard Type>  (145) 
nan

>  <Standard Relation>  (145) 
nan

>  <Standard Units>  (145) 
nan

>  <Standard Value>  (145) 
nan

>  <Assay ChEMBL ID>  (145) 
nan

>  <Assay Description>  (145) 
nan

>  <BAO Label>  (145) 
nan

$$$$

     RDKit          2D

 20 22  0  0  0  0  0  0  0  0999 V2000
   -2.1817   -8.0345    0.0000 O   0  0  0  0  0  0  0  0  0  0  0  0
   -0.8113   -8.6446    0.0000 C   0  0  0  0  0  0  0  0  0  0  0  0
    0.4022   -7.7629    0.0000 N   0  0  0  0  0  0  0  0  0  0  0  0
    0.2454   -6.2711    0.0000 C   0  0  0  0  0  0  0  0  0  0  0  0
   -1.0537   -5.5211    0.0000 N   0  0  0  0  0  0  0  0  0  0  0  0
   -0.7418   -4.0539    0.0000 N   0  0  0  0  0  0  0  0  0  0  0  0
    0.7500   -3.8971    0.0000 C   0  0  0  0  0  0  0  0  0  0  0  0
    1.5000   -2.5981    0.0000 C   0  0  0  0  0  0  0  0  0  0  0  0
    0.7500   -1.2990    0.0000 C   0  0  0  0  0  0  0  0  0  0  0  0
    1.5000    0.0000    0.0000 C   0  0  0  0  0  0  0  0  0  0  0  0
    0.7500    1.2990    0.0000 C   0  0  0  0  0  0  0  0  0  0  0  0
   -0.7500    1.2990    0.0000 C   0  0  0  0  0  0  0  0  0  0  0  0
   -1.5000    0.0000    0.0000 C   0  0  0  0  0  0  0  0  0  0  0  0
   -0.7500   -1.2990    0.0000 C   0  0  0  0  0  0  0  0  0  0  0  0
    1.3601   -5.2674    0.0000 S   0  0  0  0  0  0  0  0  0  0  0  0
   -0.6546  -10.1364    0.0000 C   0  0  0  0  0  0  0  0  0  0  0  0
    0.6445  -10.8864    0.0000 C   0  0  0  0  0  0  0  0  0  0  0  0
    0.3326  -12.3536    0.0000 C   0  0  0  0  0  0  0  0  0  0  0  0
   -1.1592  -12.5104    0.0000 C   0  0  0  0  0  0  0  0  0  0  0  0
   -1.7693  -11.1401    0.0000 S   0  0  0  0  0  0  0  0  0  0  0  0
  1  2  2  0
  2  3  1  0
  3  4  1  0
  4  5  2  0
  5  6  1  0
  6  7  2  0
  7  8  1  0
  8  9  1  0
  9 10  2  0
 10 11  1  0
 11 12  2  0
 12 13  1  0
 13 14  2  0
  7 15  1  0
  2 16  1  0
 16 17  2  0
 17 18  1  0
 18 19  2  0
 19 20  1  0
 15  4  1  0
 20 16  1  0
 14  9  1  0
M  END
>  <Compound_ID>  (146) 
CHEMBL478825

>  <Active>  (146) 
1

>  <Smiles>  (146) 
O=C(Nc1nnc(Cc2ccccc2)s1)c1cccs1

>  <canonical_smi>  (146) 
O=C(Nc1nnc(Cc2ccccc2)s1)c1cccs1

>  <Set>  (146) 
G2 active

>  <Set_type>  (146) 
Train

>  <MW>  (146) 
301.4

>  <HBD>  (146) 
1

>  <HBA>  (146) 
3

>  <NRB>  (146) 
4

>  <NR>  (146) 
3

>  <NAR>  (146) 
3

>  <PSA>  (146) 
54.88

>  <Standard Type>  (146) 
nan

>  <Standard Relation>  (146) 
nan

>  <Standard Units>  (146) 
nan

>  <Standard Value>  (146) 
nan

>  <Assay ChEMBL ID>  (146) 
nan

>  <Assay Description>  (146) 
nan

>  <BAO Label>  (146) 
nan

$$$$

     RDKit          2D

 29 32  0  0  0  0  0  0  0  0999 V2000
    7.5000   -2.5981    0.0000 C   0  0  0  0  0  0  0  0  0  0  0  0
    6.0000   -2.5981    0.0000 O   0  0  0  0  0  0  0  0  0  0  0  0
    5.2500   -1.2990    0.0000 C   0  0  0  0  0  0  0  0  0  0  0  0
    3.7500   -1.2990    0.0000 C   0  0  0  0  0  0  0  0  0  0  0  0
    3.0000    0.0000    0.0000 O   0  0  0  0  0  0  0  0  0  0  0  0
    1.5000    0.0000    0.0000 C   0  0  0  0  0  0  0  0  0  0  0  0
    0.7500   -1.2990    0.0000 C   0  0  0  0  0  0  0  0  0  0  0  0
   -0.7500   -1.2990    0.0000 C   0  0  0  0  0  0  0  0  0  0  0  0
   -1.5000   -2.5981    0.0000 N   0  0  0  0  0  0  0  0  0  0  0  0
   -3.0000   -2.5981    0.0000 C   0  0  0  0  0  0  0  0  0  0  0  0
   -3.7500   -1.2990    0.0000 C   0  0  0  0  0  0  0  0  0  0  0  0
   -5.2500   -1.2990    0.0000 C   0  0  0  0  0  0  0  0  0  0  0  0
   -6.7500   -1.2990    0.0000 N   0  0  0  0  0  0  0  0  0  0  0  0
   -3.0000    0.0000    0.0000 C   0  0  0  0  0  0  0  0  0  0  0  0
   -3.7500    1.2990    0.0000 N   0  0  0  0  0  0  0  0  0  0  0  0
   -5.2500    1.2990    0.0000 C   0  0  0  0  0  0  0  0  0  0  0  0
   -6.5490    0.5490    0.0000 C   0  0  0  0  0  0  0  0  0  0  0  0
   -6.5490    2.0490    0.0000 C   0  0  0  0  0  0  0  0  0  0  0  0
   -7.2990    3.3481    0.0000 C   0  0  0  0  0  0  0  0  0  0  0  0
   -6.5490    4.6471    0.0000 C   0  0  0  0  0  0  0  0  0  0  0  0
   -7.2990    5.9462    0.0000 C   0  0  0  0  0  0  0  0  0  0  0  0
   -8.7990    5.9462    0.0000 C   0  0  0  0  0  0  0  0  0  0  0  0
   -9.5490    4.6471    0.0000 C   0  0  0  0  0  0  0  0  0  0  0  0
   -8.7990    3.3481    0.0000 C   0  0  0  0  0  0  0  0  0  0  0  0
   -1.5000    0.0000    0.0000 C   0  0  0  0  0  0  0  0  0  0  0  0
   -0.7500    1.2990    0.0000 C   0  0  0  0  0  0  0  0  0  0  0  0
    0.7500    1.2990    0.0000 C   0  0  0  0  0  0  0  0  0  0  0  0
    1.5000    2.5981    0.0000 O   0  0  0  0  0  0  0  0  0  0  0  0
    3.0000    2.5981    0.0000 C   0  0  0  0  0  0  0  0  0  0  0  0
  1  2  1  0
  2  3  1  0
  3  4  1  0
  4  5  1  0
  5  6  1  0
  6  7  2  0
  7  8  1  0
  8  9  2  0
  9 10  1  0
 10 11  2  0
 11 12  1  0
 12 13  3  0
 11 14  1  0
 14 15  1  0
 16 15  1  6
 16 17  1  0
 17 18  1  0
 18 19  1  1
 19 20  2  0
 20 21  1  0
 21 22  2  0
 22 23  1  0
 23 24  2  0
 14 25  2  0
 25 26  1  0
 26 27  2  0
 27 28  1  0
 28 29  1  0
 27  6  1  0
 25  8  1  0
 18 16  1  0
 24 19  1  0
M  END
>  <Compound_ID>  (147) 
CHEMBL401251

>  <Active>  (147) 
1

>  <Smiles>  (147) 
COCCOc1cc2ncc(C#N)c(N[C@@H]3C[C@H]3c3ccccc3)c2cc1OC

>  <canonical_smi>  (147) 
COCCOc1cc2ncc(C#N)c(N[C@@H]3C[C@H]3c3ccccc3)c2cc1OC

>  <Set>  (147) 
G2 active

>  <Set_type>  (147) 
Train

>  <MW>  (147) 
389.46

>  <HBD>  (147) 
1

>  <HBA>  (147) 
6

>  <NRB>  (147) 
8

>  <NR>  (147) 
4

>  <NAR>  (147) 
3

>  <PSA>  (147) 
76.4

>  <Standard Type>  (147) 
nan

>  <Standard Relation>  (147) 
nan

>  <Standard Units>  (147) 
nan

>  <Standard Value>  (147) 
nan

>  <Assay ChEMBL ID>  (147) 
nan

>  <Assay Description>  (147) 
nan

>  <BAO Label>  (147) 
nan

$$$$

     RDKit          2D

 19 21  0  0  0  0  0  0  0  0999 V2000
   -4.9294   -1.5000    0.0000 N   0  0  0  0  0  0  0  0  0  0  0  0
   -3.6304   -0.7500    0.0000 C   0  0  0  0  0  0  0  0  0  0  0  0
   -3.6304    0.7500    0.0000 N   0  0  0  0  0  0  0  0  0  0  0  0
   -2.3313    1.5000    0.0000 C   0  0  0  0  0  0  0  0  0  0  0  0
   -2.3313    3.0000    0.0000 N   0  0  0  0  0  0  0  0  0  0  0  0
   -1.0323    0.7500    0.0000 C   0  0  0  0  0  0  0  0  0  0  0  0
    0.3943    1.2135    0.0000 C   0  0  0  0  0  0  0  0  0  0  0  0
    0.8578    2.6401    0.0000 N   0  0  0  0  0  0  0  0  0  0  0  0
    2.3250    2.9520    0.0000 C   0  0  0  0  0  0  0  0  0  0  0  0
    3.3287    1.8373    0.0000 C   0  0  0  0  0  0  0  0  0  0  0  0
    4.7960    2.1491    0.0000 C   0  0  0  0  0  0  0  0  0  0  0  0
    5.2595    3.5757    0.0000 C   0  0  0  0  0  0  0  0  0  0  0  0
    4.2558    4.6904    0.0000 C   0  0  0  0  0  0  0  0  0  0  0  0
    4.7193    6.1170    0.0000 Cl  0  0  0  0  0  0  0  0  0  0  0  0
    2.7886    4.3786    0.0000 C   0  0  0  0  0  0  0  0  0  0  0  0
    1.2760    0.0000    0.0000 N   0  0  0  0  0  0  0  0  0  0  0  0
    0.3943   -1.2135    0.0000 N   0  0  0  0  0  0  0  0  0  0  0  0
   -1.0323   -0.7500    0.0000 C   0  0  0  0  0  0  0  0  0  0  0  0
   -2.3313   -1.5000    0.0000 N   0  0  0  0  0  0  0  0  0  0  0  0
  1  2  1  0
  2  3  1  0
  3  4  2  0
  4  5  1  0
  4  6  1  0
  6  7  2  0
  7  8  1  0
  8  9  1  0
  9 10  2  0
 10 11  1  0
 11 12  2  0
 12 13  1  0
 13 14  1  0
 13 15  2  0
  7 16  1  0
 16 17  1  0
 17 18  2  0
 18 19  1  0
 19  2  2  0
 18  6  1  0
 15  9  1  0
M  END
>  <Compound_ID>  (148) 
CHEMBL122068

>  <Active>  (148) 
1

>  <Smiles>  (148) 
Nc1nc(N)c2c(Nc3cccc(Cl)c3)[nH]nc2n1

>  <canonical_smi>  (148) 
Nc1nc(N)c2c(Nc3cccc(Cl)c3)[nH]nc2n1

>  <Set>  (148) 
G2 active

>  <Set_type>  (148) 
Train

>  <MW>  (148) 
275.7

>  <HBD>  (148) 
4

>  <HBA>  (148) 
6

>  <NRB>  (148) 
2

>  <NR>  (148) 
3

>  <NAR>  (148) 
3

>  <PSA>  (148) 
118.53

>  <Standard Type>  (148) 
nan

>  <Standard Relation>  (148) 
nan

>  <Standard Units>  (148) 
nan

>  <Standard Value>  (148) 
nan

>  <Assay ChEMBL ID>  (148) 
nan

>  <Assay Description>  (148) 
nan

>  <BAO Label>  (148) 
nan

$$$$

     RDKit          2D

 38 42  0  0  0  0  0  0  0  0999 V2000
   -3.7500   -6.4952    0.0000 C   0  0  0  0  0  0  0  0  0  0  0  0
   -3.0000   -5.1962    0.0000 O   0  0  0  0  0  0  0  0  0  0  0  0
   -1.5000   -5.1962    0.0000 C   0  0  0  0  0  0  0  0  0  0  0  0
   -0.7500   -3.8971    0.0000 C   0  0  0  0  0  0  0  0  0  0  0  0
    0.7500   -3.8971    0.0000 C   0  0  0  0  0  0  0  0  0  0  0  0
    1.5000   -2.5981    0.0000 N   0  0  0  0  0  0  0  0  0  0  0  0
    0.7500   -1.2990    0.0000 C   0  0  0  0  0  0  0  0  0  0  0  0
    1.5000    0.0000    0.0000 C   0  0  0  0  0  0  0  0  0  0  0  0
    3.0000    0.0000    0.0000 C   0  0  0  0  0  0  0  0  0  0  0  0
    4.5000    0.0000    0.0000 N   0  0  0  0  0  0  0  0  0  0  0  0
    0.7500    1.2990    0.0000 C   0  0  0  0  0  0  0  0  0  0  0  0
   -0.7500    1.2990    0.0000 N   0  0  0  0  0  0  0  0  0  0  0  0
   -1.5000    0.0000    0.0000 C   0  0  0  0  0  0  0  0  0  0  0  0
   -3.0000    0.0000    0.0000 C   0  0  0  0  0  0  0  0  0  0  0  0
   -3.7500   -1.2990    0.0000 C   0  0  0  0  0  0  0  0  0  0  0  0
   -5.2500   -1.2990    0.0000 C   0  0  0  0  0  0  0  0  0  0  0  0
   -6.0000   -2.5981    0.0000 C   0  0  0  0  0  0  0  0  0  0  0  0
   -7.5000   -2.5981    0.0000 O   0  0  0  0  0  0  0  0  0  0  0  0
   -8.2500   -1.2990    0.0000 C   0  0  0  0  0  0  0  0  0  0  0  0
   -9.7500   -1.2990    0.0000 C   0  0  0  0  0  0  0  0  0  0  0  0
  -10.5000    0.0000    0.0000 N   0  0  0  0  0  0  0  0  0  0  0  0
   -9.7500    1.2990    0.0000 C   0  0  0  0  0  0  0  0  0  0  0  0
  -10.5000    2.5981    0.0000 C   0  0  0  0  0  0  0  0  0  0  0  0
  -12.0000    2.5981    0.0000 O   0  0  0  0  0  0  0  0  0  0  0  0
  -12.7500    1.2990    0.0000 C   0  0  0  0  0  0  0  0  0  0  0  0
  -12.0000    0.0000    0.0000 C   0  0  0  0  0  0  0  0  0  0  0  0
   -5.2500   -3.8971    0.0000 C   0  0  0  0  0  0  0  0  0  0  0  0
   -6.0000   -5.1962    0.0000 O   0  0  0  0  0  0  0  0  0  0  0  0
   -7.5000   -5.1962    0.0000 C   0  0  0  0  0  0  0  0  0  0  0  0
   -3.7500   -3.8971    0.0000 C   0  0  0  0  0  0  0  0  0  0  0  0
   -3.0000   -2.5981    0.0000 C   0  0  0  0  0  0  0  0  0  0  0  0
   -1.5000   -2.5981    0.0000 C   0  0  0  0  0  0  0  0  0  0  0  0
   -0.7500   -1.2990    0.0000 C   0  0  0  0  0  0  0  0  0  0  0  0
    1.5000   -5.1962    0.0000 C   0  0  0  0  0  0  0  0  0  0  0  0
    3.0000   -5.1962    0.0000 Cl  0  0  0  0  0  0  0  0  0  0  0  0
    0.7500   -6.4952    0.0000 C   0  0  0  0  0  0  0  0  0  0  0  0
   -0.7500   -6.4952    0.0000 C   0  0  0  0  0  0  0  0  0  0  0  0
   -1.5000   -7.7942    0.0000 Cl  0  0  0  0  0  0  0  0  0  0  0  0
  1  2  1  0
  2  3  1  0
  3  4  2  0
  4  5  1  0
  5  6  1  0
  6  7  1  0
  7  8  2  0
  8  9  1  0
  9 10  3  0
  8 11  1  0
 11 12  2  0
 12 13  1  0
 13 14  2  0
 14 15  1  0
 15 16  2  0
 16 17  1  0
 17 18  1  0
 18 19  1  0
 19 20  1  0
 20 21  1  0
 21 22  1  0
 22 23  1  0
 23 24  1  0
 24 25  1  0
 25 26  1  0
 17 27  2  0
 27 28  1  0
 28 29  1  0
 27 30  1  0
 30 31  2  0
 31 32  1  0
 32 33  2  0
  5 34  2  0
 34 35  1  0
 34 36  1  0
 36 37  2  0
 37 38  1  0
 37  3  1  0
 33  7  1  0
 33 13  1  0
 31 15  1  0
 26 21  1  0
M  END
>  <Compound_ID>  (149) 
CHEMBL195029

>  <Active>  (149) 
1

>  <Smiles>  (149) 
COc1cc(Nc2c(C#N)cnc3cc4cc(OCCN5CCOCC5)c(OC)cc4cc23)c(Cl)cc1Cl

>  <canonical_smi>  (149) 
COc1cc(Nc2c(C#N)cnc3cc4cc(OCCN5CCOCC5)c(OC)cc4cc23)c(Cl)cc1Cl

>  <Set>  (149) 
G2 active

>  <Set_type>  (149) 
Train

>  <MW>  (149) 
553.45

>  <HBD>  (149) 
1

>  <HBA>  (149) 
8

>  <NRB>  (149) 
8

>  <NR>  (149) 
5

>  <NAR>  (149) 
4

>  <PSA>  (149) 
88.87

>  <Standard Type>  (149) 
nan

>  <Standard Relation>  (149) 
nan

>  <Standard Units>  (149) 
nan

>  <Standard Value>  (149) 
nan

>  <Assay ChEMBL ID>  (149) 
nan

>  <Assay Description>  (149) 
nan

>  <BAO Label>  (149) 
nan

$$$$

     RDKit          2D

 28 31  0  0  0  0  0  0  0  0999 V2000
   -0.7500   -3.8971    0.0000 O   0  0  0  0  0  0  0  0  0  0  0  0
    0.7500   -3.8971    0.0000 C   0  0  0  0  0  0  0  0  0  0  0  0
    1.5000   -2.5981    0.0000 N   0  0  0  0  0  0  0  0  0  0  0  0
    0.7500   -1.2990    0.0000 C   0  0  0  0  0  0  0  0  0  0  0  0
    1.5000    0.0000    0.0000 C   0  0  0  0  0  0  0  0  0  0  0  0
    0.7500    1.2990    0.0000 C   0  0  0  0  0  0  0  0  0  0  0  0
   -0.7500    1.2990    0.0000 C   0  0  0  0  0  0  0  0  0  0  0  0
   -1.5000    0.0000    0.0000 C   0  0  0  0  0  0  0  0  0  0  0  0
   -3.0000    0.0000    0.0000 N   0  0  0  0  0  0  0  0  0  0  0  0
   -3.7500    1.2990    0.0000 C   0  0  0  0  0  0  0  0  0  0  0  0
   -3.0000    2.5981    0.0000 N   0  0  0  0  0  0  0  0  0  0  0  0
   -3.7500    3.8971    0.0000 C   0  0  0  0  0  0  0  0  0  0  0  0
   -5.2500    3.8971    0.0000 C   0  0  0  0  0  0  0  0  0  0  0  0
   -6.0000    2.5981    0.0000 C   0  0  0  0  0  0  0  0  0  0  0  0
   -7.5000    2.5981    0.0000 C   0  0  0  0  0  0  0  0  0  0  0  0
   -8.2500    3.8971    0.0000 C   0  0  0  0  0  0  0  0  0  0  0  0
   -9.7500    3.8971    0.0000 C   0  0  0  0  0  0  0  0  0  0  0  0
  -10.5000    2.5981    0.0000 C   0  0  0  0  0  0  0  0  0  0  0  0
   -9.7500    1.2990    0.0000 N   0  0  0  0  0  0  0  0  0  0  0  0
   -8.2500    1.2990    0.0000 C   0  0  0  0  0  0  0  0  0  0  0  0
   -5.2500    1.2990    0.0000 N   0  0  0  0  0  0  0  0  0  0  0  0
   -0.7500   -1.2990    0.0000 C   0  0  0  0  0  0  0  0  0  0  0  0
    1.5000   -5.1962    0.0000 C   0  0  0  0  0  0  0  0  0  0  0  0
    0.7500   -6.4952    0.0000 C   0  0  0  0  0  0  0  0  0  0  0  0
    1.5000   -7.7942    0.0000 C   0  0  0  0  0  0  0  0  0  0  0  0
    3.0000   -7.7942    0.0000 N   0  0  0  0  0  0  0  0  0  0  0  0
    3.7500   -6.4952    0.0000 C   0  0  0  0  0  0  0  0  0  0  0  0
    3.0000   -5.1962    0.0000 C   0  0  0  0  0  0  0  0  0  0  0  0
  1  2  2  0
  2  3  1  0
  3  4  1  0
  4  5  2  0
  5  6  1  0
  6  7  2  0
  7  8  1  0
  8  9  1  0
  9 10  1  0
 10 11  2  0
 11 12  1  0
 12 13  2  0
 13 14  1  0
 14 15  1  0
 15 16  2  0
 16 17  1  0
 17 18  2  0
 18 19  1  0
 19 20  2  0
 14 21  2  0
  8 22  2  0
  2 23  1  0
 23 24  2  0
 24 25  1  0
 25 26  2  0
 26 27  1  0
 27 28  2  0
 22  4  1  0
 28 23  1  0
 21 10  1  0
 20 15  1  0
M  END
>  <Compound_ID>  (150) 
CHEMBL55592

>  <Active>  (150) 
1

>  <Smiles>  (150) 
O=C(Nc1cccc(Nc2nccc(-c3cccnc3)n2)c1)c1ccncc1

>  <canonical_smi>  (150) 
O=C(Nc1cccc(Nc2nccc(-c3cccnc3)n2)c1)c1ccncc1

>  <Set>  (150) 
G2 active

>  <Set_type>  (150) 
Train

>  <MW>  (150) 
368.4

>  <HBD>  (150) 
2

>  <HBA>  (150) 
6

>  <NRB>  (150) 
5

>  <NR>  (150) 
4

>  <NAR>  (150) 
4

>  <PSA>  (150) 
92.69

>  <Standard Type>  (150) 
nan

>  <Standard Relation>  (150) 
nan

>  <Standard Units>  (150) 
nan

>  <Standard Value>  (150) 
nan

>  <Assay ChEMBL ID>  (150) 
nan

>  <Assay Description>  (150) 
nan

>  <BAO Label>  (150) 
nan

$$$$

     RDKit          2D

 17 19  0  0  0  0  0  0  0  0999 V2000
    3.0000    0.0000    0.0000 N   0  0  0  0  0  0  0  0  0  0  0  0
    1.5000    0.0000    0.0000 C   0  0  0  0  0  0  0  0  0  0  0  0
    0.7500   -1.2990    0.0000 N   0  0  0  0  0  0  0  0  0  0  0  0
   -0.7500   -1.2990    0.0000 C   0  0  0  0  0  0  0  0  0  0  0  0
   -1.5000    0.0000    0.0000 N   0  0  0  0  0  0  0  0  0  0  0  0
   -0.7500    1.2990    0.0000 C   0  0  0  0  0  0  0  0  0  0  0  0
   -1.2135    2.7256    0.0000 N   0  0  0  0  0  0  0  0  0  0  0  0
   -0.0000    3.6073    0.0000 N   0  0  0  0  0  0  0  0  0  0  0  0
    1.2135    2.7256    0.0000 C   0  0  0  0  0  0  0  0  0  0  0  0
    2.6401    3.1891    0.0000 C   0  0  0  0  0  0  0  0  0  0  0  0
    3.7548    2.1855    0.0000 C   0  0  0  0  0  0  0  0  0  0  0  0
    5.1814    2.6490    0.0000 C   0  0  0  0  0  0  0  0  0  0  0  0
    5.4933    4.1162    0.0000 C   0  0  0  0  0  0  0  0  0  0  0  0
    6.9199    4.5797    0.0000 Cl  0  0  0  0  0  0  0  0  0  0  0  0
    4.3786    5.1199    0.0000 C   0  0  0  0  0  0  0  0  0  0  0  0
    2.9520    4.6564    0.0000 C   0  0  0  0  0  0  0  0  0  0  0  0
    0.7500    1.2990    0.0000 C   0  0  0  0  0  0  0  0  0  0  0  0
  1  2  1  0
  2  3  1  0
  3  4  1  0
  4  5  2  0
  5  6  1  0
  6  7  2  0
  7  8  1  0
  8  9  2  0
  9 10  1  0
 10 11  2  0
 11 12  1  0
 12 13  2  0
 13 14  1  0
 13 15  1  0
 15 16  2  0
  9 17  1  0
 17  2  2  0
 17  6  1  0
 16 10  1  0
M  END
>  <Compound_ID>  (151) 
CHEMBL207471

>  <Active>  (151) 
1

>  <Smiles>  (151) 
Nc1[nH]cnc2nnc(-c3ccc(Cl)cc3)c1-2

>  <canonical_smi>  (151) 
Nc1[nH]cnc2nnc(-c3ccc(Cl)cc3)c1-2

>  <Set>  (151) 
G2 active

>  <Set_type>  (151) 
Train

>  <MW>  (151) 
245.67

>  <HBD>  (151) 
2

>  <HBA>  (151) 
4

>  <NRB>  (151) 
1

>  <NR>  (151) 
3

>  <NAR>  (151) 
3

>  <PSA>  (151) 
80.48

>  <Standard Type>  (151) 
nan

>  <Standard Relation>  (151) 
nan

>  <Standard Units>  (151) 
nan

>  <Standard Value>  (151) 
nan

>  <Assay ChEMBL ID>  (151) 
nan

>  <Assay Description>  (151) 
nan

>  <BAO Label>  (151) 
nan

$$$$

     RDKit          2D

 35 38  0  0  0  0  0  0  0  0999 V2000
    5.2500   -1.2990    0.0000 C   0  0  0  0  0  0  0  0  0  0  0  0
    3.7500   -1.2990    0.0000 N   0  0  0  0  0  0  0  0  0  0  0  0
    3.0000    0.0000    0.0000 C   0  0  0  0  0  0  0  0  0  0  0  0
    3.7500    1.2990    0.0000 O   0  0  0  0  0  0  0  0  0  0  0  0
    1.5000    0.0000    0.0000 C   0  0  0  0  0  0  0  0  0  0  0  0
    0.7500   -1.2990    0.0000 C   0  0  0  0  0  0  0  0  0  0  0  0
   -0.7500   -1.2990    0.0000 C   0  0  0  0  0  0  0  0  0  0  0  0
   -1.5000   -2.5981    0.0000 O   0  0  0  0  0  0  0  0  0  0  0  0
   -3.0000   -2.5981    0.0000 C   0  0  0  0  0  0  0  0  0  0  0  0
   -3.7500   -1.2990    0.0000 C   0  0  0  0  0  0  0  0  0  0  0  0
   -5.2500   -1.2990    0.0000 C   0  0  0  0  0  0  0  0  0  0  0  0
   -6.0000   -2.5981    0.0000 C   0  0  0  0  0  0  0  0  0  0  0  0
   -7.5000   -2.5981    0.0000 N   0  0  0  0  0  0  0  0  0  0  0  0
   -8.2500   -1.2990    0.0000 C   0  0  0  0  0  0  0  0  0  0  0  0
   -7.5000    0.0000    0.0000 O   0  0  0  0  0  0  0  0  0  0  0  0
   -9.7500   -1.2990    0.0000 N   0  0  0  0  0  0  0  0  0  0  0  0
  -10.5000    0.0000    0.0000 C   0  0  0  0  0  0  0  0  0  0  0  0
   -9.7500    1.2990    0.0000 C   0  0  0  0  0  0  0  0  0  0  0  0
  -10.5000    2.5981    0.0000 C   0  0  0  0  0  0  0  0  0  0  0  0
  -12.0000    2.5981    0.0000 C   0  0  0  0  0  0  0  0  0  0  0  0
  -12.7500    3.8971    0.0000 C   0  0  0  0  0  0  0  0  0  0  0  0
  -12.0000    5.1962    0.0000 N   0  0  0  0  0  0  0  0  0  0  0  0
  -10.5000    5.1962    0.0000 C   0  0  0  0  0  0  0  0  0  0  0  0
   -9.7500    6.4952    0.0000 C   0  0  0  0  0  0  0  0  0  0  0  0
  -10.5000    7.7942    0.0000 N   0  0  0  0  0  0  0  0  0  0  0  0
   -9.7500    9.0933    0.0000 C   0  0  0  0  0  0  0  0  0  0  0  0
  -12.0000    7.7942    0.0000 C   0  0  0  0  0  0  0  0  0  0  0  0
  -12.7500    6.4952    0.0000 C   0  0  0  0  0  0  0  0  0  0  0  0
  -12.7500    1.2990    0.0000 C   0  0  0  0  0  0  0  0  0  0  0  0
  -12.0000    0.0000    0.0000 C   0  0  0  0  0  0  0  0  0  0  0  0
   -5.2500   -3.8971    0.0000 C   0  0  0  0  0  0  0  0  0  0  0  0
   -3.7500   -3.8971    0.0000 C   0  0  0  0  0  0  0  0  0  0  0  0
   -1.5000    0.0000    0.0000 C   0  0  0  0  0  0  0  0  0  0  0  0
   -0.7500    1.2990    0.0000 C   0  0  0  0  0  0  0  0  0  0  0  0
    0.7500    1.2990    0.0000 N   0  0  0  0  0  0  0  0  0  0  0  0
  1  2  1  0
  2  3  1  0
  3  4  2  0
  3  5  1  0
  5  6  2  0
  6  7  1  0
  7  8  1  0
  8  9  1  0
  9 10  2  0
 10 11  1  0
 11 12  2  0
 12 13  1  0
 13 14  1  0
 14 15  2  0
 14 16  1  0
 16 17  1  0
 17 18  2  0
 18 19  1  0
 19 20  2  0
 20 21  1  0
 21 22  1  0
 22 23  1  0
 23 24  1  0
 24 25  1  0
 25 26  1  0
 25 27  1  0
 27 28  1  0
 20 29  1  0
 29 30  2  0
 12 31  1  0
 31 32  2  0
  7 33  2  0
 33 34  1  0
 34 35  2  0
 35  5  1  0
 32  9  1  0
 30 17  1  0
 28 22  1  0
M  END
>  <Compound_ID>  (152) 
CHEMBL1213975

>  <Active>  (152) 
1

>  <Smiles>  (152) 
CNC(=O)c1cc(Oc2ccc(NC(=O)Nc3ccc(CN4CCN(C)CC4)cc3)cc2)ccn1

>  <canonical_smi>  (152) 
CNC(=O)c1cc(Oc2ccc(NC(=O)Nc3ccc(CN4CCN(C)CC4)cc3)cc2)ccn1

>  <Set>  (152) 
G2 active

>  <Set_type>  (152) 
Train

>  <MW>  (152) 
474.57

>  <HBD>  (152) 
3

>  <HBA>  (152) 
6

>  <NRB>  (152) 
7

>  <NR>  (152) 
4

>  <NAR>  (152) 
3

>  <PSA>  (152) 
98.83

>  <Standard Type>  (152) 
nan

>  <Standard Relation>  (152) 
nan

>  <Standard Units>  (152) 
nan

>  <Standard Value>  (152) 
nan

>  <Assay ChEMBL ID>  (152) 
nan

>  <Assay Description>  (152) 
nan

>  <BAO Label>  (152) 
nan

$$$$

     RDKit          2D

 20 22  0  0  0  0  0  0  0  0999 V2000
    3.0000    0.0000    0.0000 N   0  0  0  0  0  0  0  0  0  0  0  0
    1.5000    0.0000    0.0000 C   0  0  0  0  0  0  0  0  0  0  0  0
    0.7500   -1.2990    0.0000 C   0  0  0  0  0  0  0  0  0  0  0  0
   -0.7500   -1.2990    0.0000 C   0  0  0  0  0  0  0  0  0  0  0  0
   -1.5000    0.0000    0.0000 C   0  0  0  0  0  0  0  0  0  0  0  0
   -0.7500    1.2990    0.0000 C   0  0  0  0  0  0  0  0  0  0  0  0
   -1.5000    2.5981    0.0000 N   0  0  0  0  0  0  0  0  0  0  0  0
   -0.7500    3.8971    0.0000 C   0  0  0  0  0  0  0  0  0  0  0  0
    0.7500    3.8971    0.0000 N   0  0  0  0  0  0  0  0  0  0  0  0
    1.5000    5.1962    0.0000 C   0  0  0  0  0  0  0  0  0  0  0  0
    0.7500    6.4952    0.0000 C   0  0  0  0  0  0  0  0  0  0  0  0
   -0.7500    6.4952    0.0000 C   0  0  0  0  0  0  0  0  0  0  0  0
   -1.5000    7.7942    0.0000 C   0  0  0  0  0  0  0  0  0  0  0  0
   -0.7500    9.0933    0.0000 C   0  0  0  0  0  0  0  0  0  0  0  0
   -1.5000   10.3923    0.0000 C   0  0  0  0  0  0  0  0  0  0  0  0
   -3.0000   10.3923    0.0000 N   0  0  0  0  0  0  0  0  0  0  0  0
   -3.7500    9.0933    0.0000 C   0  0  0  0  0  0  0  0  0  0  0  0
   -3.0000    7.7942    0.0000 C   0  0  0  0  0  0  0  0  0  0  0  0
   -1.5000    5.1962    0.0000 N   0  0  0  0  0  0  0  0  0  0  0  0
    0.7500    1.2990    0.0000 C   0  0  0  0  0  0  0  0  0  0  0  0
  1  2  1  0
  2  3  2  0
  3  4  1  0
  4  5  2  0
  5  6  1  0
  6  7  1  0
  7  8  1  0
  8  9  2  0
  9 10  1  0
 10 11  2  0
 11 12  1  0
 12 13  1  0
 13 14  2  0
 14 15  1  0
 15 16  2  0
 16 17  1  0
 17 18  2  0
 12 19  2  0
  6 20  2  0
 20  2  1  0
 19  8  1  0
 18 13  1  0
M  END
>  <Compound_ID>  (153) 
CHEMBL57443

>  <Active>  (153) 
1

>  <Smiles>  (153) 
Nc1cccc(Nc2nccc(-c3ccncc3)n2)c1

>  <canonical_smi>  (153) 
Nc1cccc(Nc2nccc(-c3ccncc3)n2)c1

>  <Set>  (153) 
G2 active

>  <Set_type>  (153) 
Train

>  <MW>  (153) 
263.3

>  <HBD>  (153) 
2

>  <HBA>  (153) 
5

>  <NRB>  (153) 
3

>  <NR>  (153) 
3

>  <NAR>  (153) 
3

>  <PSA>  (153) 
76.72

>  <Standard Type>  (153) 
nan

>  <Standard Relation>  (153) 
nan

>  <Standard Units>  (153) 
nan

>  <Standard Value>  (153) 
nan

>  <Assay ChEMBL ID>  (153) 
nan

>  <Assay Description>  (153) 
nan

>  <BAO Label>  (153) 
nan

$$$$

     RDKit          2D

 39 43  0  0  0  0  0  0  0  0999 V2000
    3.0000    0.0000    0.0000 C   0  0  0  0  0  0  0  0  0  0  0  0
    1.5000    0.0000    0.0000 C   0  0  0  0  0  0  0  0  0  0  0  0
    0.7500   -1.2990    0.0000 C   0  0  0  0  0  0  0  0  0  0  0  0
   -0.7500   -1.2990    0.0000 C   0  0  0  0  0  0  0  0  0  0  0  0
   -1.5000    0.0000    0.0000 C   0  0  0  0  0  0  0  0  0  0  0  0
   -3.0000    0.0000    0.0000 N   0  0  0  0  0  0  0  0  0  0  0  0
   -3.7500    1.2990    0.0000 C   0  0  0  0  0  0  0  0  0  0  0  0
   -3.0000    2.5981    0.0000 O   0  0  0  0  0  0  0  0  0  0  0  0
   -5.2500    1.2990    0.0000 N   0  0  0  0  0  0  0  0  0  0  0  0
   -6.0000    2.5981    0.0000 C   0  0  0  0  0  0  0  0  0  0  0  0
   -5.2500    3.8971    0.0000 C   0  0  0  0  0  0  0  0  0  0  0  0
   -6.0000    5.1962    0.0000 C   0  0  0  0  0  0  0  0  0  0  0  0
   -7.5000    5.1962    0.0000 C   0  0  0  0  0  0  0  0  0  0  0  0
   -8.2500    3.8971    0.0000 C   0  0  0  0  0  0  0  0  0  0  0  0
   -7.5000    2.5981    0.0000 C   0  0  0  0  0  0  0  0  0  0  0  0
   -8.2500    1.2990    0.0000 C   0  0  0  0  0  0  0  0  0  0  0  0
   -9.7500    1.2990    0.0000 N   0  0  0  0  0  0  0  0  0  0  0  0
  -10.5000    0.0000    0.0000 C   0  0  0  0  0  0  0  0  0  0  0  0
  -10.5000    2.5981    0.0000 C   0  0  0  0  0  0  0  0  0  0  0  0
   -9.7500    3.8971    0.0000 C   0  0  0  0  0  0  0  0  0  0  0  0
  -10.5000    5.1962    0.0000 C   0  0  0  0  0  0  0  0  0  0  0  0
  -12.0000    5.1962    0.0000 C   0  0  0  0  0  0  0  0  0  0  0  0
  -12.7500    3.8971    0.0000 C   0  0  0  0  0  0  0  0  0  0  0  0
  -12.0000    2.5981    0.0000 C   0  0  0  0  0  0  0  0  0  0  0  0
   -0.7500    1.2990    0.0000 C   0  0  0  0  0  0  0  0  0  0  0  0
    0.7500    1.2990    0.0000 C   0  0  0  0  0  0  0  0  0  0  0  0
    1.5000    2.5981    0.0000 N   0  0  0  0  0  0  0  0  0  0  0  0
    0.7500    3.8971    0.0000 C   0  0  0  0  0  0  0  0  0  0  0  0
   -0.7500    3.8971    0.0000 N   0  0  0  0  0  0  0  0  0  0  0  0
   -1.5000    5.1962    0.0000 C   0  0  0  0  0  0  0  0  0  0  0  0
   -0.7500    6.4952    0.0000 C   0  0  0  0  0  0  0  0  0  0  0  0
    0.7500    6.4952    0.0000 C   0  0  0  0  0  0  0  0  0  0  0  0
    1.5000    7.7942    0.0000 C   0  0  0  0  0  0  0  0  0  0  0  0
    3.0000    7.7942    0.0000 C   0  0  0  0  0  0  0  0  0  0  0  0
    3.7500    9.0933    0.0000 C   0  0  0  0  0  0  0  0  0  0  0  0
    3.0000   10.3923    0.0000 C   0  0  0  0  0  0  0  0  0  0  0  0
    1.5000   10.3923    0.0000 N   0  0  0  0  0  0  0  0  0  0  0  0
    0.7500    9.0933    0.0000 C   0  0  0  0  0  0  0  0  0  0  0  0
    1.5000    5.1962    0.0000 N   0  0  0  0  0  0  0  0  0  0  0  0
  1  2  1  0
  2  3  2  0
  3  4  1  0
  4  5  2  0
  5  6  1  0
  6  7  1  0
  7  8  2  0
  7  9  1  0
  9 10  1  0
 10 11  2  0
 11 12  1  0
 12 13  2  0
 13 14  1  0
 14 15  2  0
 15 16  1  0
 16 17  1  0
 17 18  1  0
 17 19  1  0
 19 20  1  0
 20 21  1  0
 21 22  1  0
 22 23  1  0
 23 24  1  0
  5 25  1  0
 25 26  2  0
 26 27  1  0
 27 28  1  0
 28 29  2  0
 29 30  1  0
 30 31  2  0
 31 32  1  0
 32 33  1  0
 33 34  2  0
 34 35  1  0
 35 36  2  0
 36 37  1  0
 37 38  2  0
 32 39  2  0
 26  2  1  0
 39 28  1  0
 15 10  1  0
 24 19  1  0
 38 33  1  0
M  END
>  <Compound_ID>  (154) 
CHEMBL365277

>  <Active>  (154) 
1

>  <Smiles>  (154) 
Cc1ccc(NC(=O)Nc2ccccc2CN(C)C2CCCCC2)cc1Nc1nccc(-c2cccnc2)n1

>  <canonical_smi>  (154) 
Cc1ccc(NC(=O)Nc2ccccc2CN(C)C2CCCCC2)cc1Nc1nccc(-c2cccnc2)n1

>  <Set>  (154) 
G2 active

>  <Set_type>  (154) 
Train

>  <MW>  (154) 
521.67

>  <HBD>  (154) 
3

>  <HBA>  (154) 
6

>  <NRB>  (154) 
8

>  <NR>  (154) 
5

>  <NAR>  (154) 
4

>  <PSA>  (154) 
95.07

>  <Standard Type>  (154) 
nan

>  <Standard Relation>  (154) 
nan

>  <Standard Units>  (154) 
nan

>  <Standard Value>  (154) 
nan

>  <Assay ChEMBL ID>  (154) 
nan

>  <Assay Description>  (154) 
nan

>  <BAO Label>  (154) 
nan

$$$$

     RDKit          2D

 26 29  0  0  0  0  0  0  0  0999 V2000
   -2.6380    5.6918    0.0000 C   0  0  0  0  0  0  0  0  0  0  0  0
   -2.9499    4.2246    0.0000 S   0  0  0  0  0  0  0  0  0  0  0  0
   -1.8351    3.2209    0.0000 C   0  0  0  0  0  0  0  0  0  0  0  0
   -0.4086    3.6844    0.0000 N   0  0  0  0  0  0  0  0  0  0  0  0
    0.7062    2.6807    0.0000 C   0  0  0  0  0  0  0  0  0  0  0  0
    2.1328    3.1443    0.0000 N   0  0  0  0  0  0  0  0  0  0  0  0
    3.2475    2.1406    0.0000 C   0  0  0  0  0  0  0  0  0  0  0  0
    4.6741    2.6041    0.0000 C   0  0  0  0  0  0  0  0  0  0  0  0
    4.9859    4.0713    0.0000 C   0  0  0  0  0  0  0  0  0  0  0  0
    3.8712    5.0750    0.0000 C   0  0  0  0  0  0  0  0  0  0  0  0
    2.4446    4.6115    0.0000 C   0  0  0  0  0  0  0  0  0  0  0  0
    0.3943    1.2135    0.0000 C   0  0  0  0  0  0  0  0  0  0  0  0
    1.2760    0.0000    0.0000 C   0  0  0  0  0  0  0  0  0  0  0  0
    0.3943   -1.2135    0.0000 N   0  0  0  0  0  0  0  0  0  0  0  0
   -1.0323   -0.7500    0.0000 N   0  0  0  0  0  0  0  0  0  0  0  0
   -2.2458   -1.6317    0.0000 C   0  0  0  0  0  0  0  0  0  0  0  0
   -2.0890   -3.1235    0.0000 C   0  0  0  0  0  0  0  0  0  0  0  0
   -0.7187   -3.7336    0.0000 Br  0  0  0  0  0  0  0  0  0  0  0  0
   -3.3025   -4.0051    0.0000 C   0  0  0  0  0  0  0  0  0  0  0  0
   -4.6729   -3.3950    0.0000 C   0  0  0  0  0  0  0  0  0  0  0  0
   -5.8864   -4.2767    0.0000 C   0  0  0  0  0  0  0  0  0  0  0  0
   -5.7296   -5.7685    0.0000 C   0  0  0  0  0  0  0  0  0  0  0  0
   -4.3593   -6.3786    0.0000 C   0  0  0  0  0  0  0  0  0  0  0  0
   -3.1458   -5.4969    0.0000 C   0  0  0  0  0  0  0  0  0  0  0  0
   -1.0323    0.7500    0.0000 C   0  0  0  0  0  0  0  0  0  0  0  0
   -2.1470    1.7537    0.0000 N   0  0  0  0  0  0  0  0  0  0  0  0
  1  2  1  0
  2  3  1  0
  3  4  2  0
  4  5  1  0
  5  6  1  0
  6  7  1  0
  7  8  1  0
  8  9  1  0
  9 10  1  0
 10 11  1  0
  5 12  2  0
 12 13  1  0
 13 14  2  0
 14 15  1  0
 15 16  1  0
 16 17  1  0
 17 18  1  0
 17 19  1  0
 19 20  2  0
 20 21  1  0
 21 22  2  0
 22 23  1  0
 23 24  2  0
 15 25  1  0
 25 26  2  0
 26  3  1  0
 11  6  1  0
 25 12  1  0
 24 19  1  0
M  END
>  <Compound_ID>  (155) 
CHEMBL455164

>  <Active>  (155) 
1

>  <Smiles>  (155) 
CSc1nc(N2CCCCC2)c2cnn(CC(Br)c3ccccc3)c2n1

>  <canonical_smi>  (155) 
CSc1nc(N2CCCCC2)c2cnn(CC(Br)c3ccccc3)c2n1

>  <Set>  (155) 
G2 active

>  <Set_type>  (155) 
Train

>  <MW>  (155) 
432.39

>  <HBD>  (155) 
0

>  <HBA>  (155) 
5

>  <NRB>  (155) 
5

>  <NR>  (155) 
4

>  <NAR>  (155) 
3

>  <PSA>  (155) 
46.84

>  <Standard Type>  (155) 
nan

>  <Standard Relation>  (155) 
nan

>  <Standard Units>  (155) 
nan

>  <Standard Value>  (155) 
nan

>  <Assay ChEMBL ID>  (155) 
nan

>  <Assay Description>  (155) 
nan

>  <BAO Label>  (155) 
nan

$$$$

     RDKit          2D

 29 32  0  0  0  0  0  0  0  0999 V2000
    3.0000    0.0000    0.0000 C   0  0  0  0  0  0  0  0  0  0  0  0
    1.5000    0.0000    0.0000 C   0  0  0  0  0  0  0  0  0  0  0  0
    0.7500   -1.2990    0.0000 C   0  0  0  0  0  0  0  0  0  0  0  0
   -0.7500   -1.2990    0.0000 C   0  0  0  0  0  0  0  0  0  0  0  0
   -1.5000    0.0000    0.0000 C   0  0  0  0  0  0  0  0  0  0  0  0
   -3.0000    0.0000    0.0000 N   0  0  0  0  0  0  0  0  0  0  0  0
   -3.7500    1.2990    0.0000 C   0  0  0  0  0  0  0  0  0  0  0  0
   -3.0000    2.5981    0.0000 O   0  0  0  0  0  0  0  0  0  0  0  0
   -5.2500    1.2990    0.0000 N   0  0  0  0  0  0  0  0  0  0  0  0
   -6.0000    2.5981    0.0000 C   0  0  0  0  0  0  0  0  0  0  0  0
   -7.5000    2.5981    0.0000 C   0  0  0  0  0  0  0  0  0  0  0  0
   -8.2500    1.2990    0.0000 C   0  0  0  0  0  0  0  0  0  0  0  0
   -7.5000    0.0000    0.0000 C   0  0  0  0  0  0  0  0  0  0  0  0
   -6.0000    0.0000    0.0000 C   0  0  0  0  0  0  0  0  0  0  0  0
   -0.7500    1.2990    0.0000 C   0  0  0  0  0  0  0  0  0  0  0  0
    0.7500    1.2990    0.0000 C   0  0  0  0  0  0  0  0  0  0  0  0
    1.5000    2.5981    0.0000 N   0  0  0  0  0  0  0  0  0  0  0  0
    0.7500    3.8971    0.0000 C   0  0  0  0  0  0  0  0  0  0  0  0
    1.5000    5.1962    0.0000 N   0  0  0  0  0  0  0  0  0  0  0  0
    0.7500    6.4952    0.0000 C   0  0  0  0  0  0  0  0  0  0  0  0
   -0.7500    6.4952    0.0000 C   0  0  0  0  0  0  0  0  0  0  0  0
   -1.5000    5.1962    0.0000 C   0  0  0  0  0  0  0  0  0  0  0  0
   -3.0000    5.1962    0.0000 C   0  0  0  0  0  0  0  0  0  0  0  0
   -3.7500    6.4952    0.0000 C   0  0  0  0  0  0  0  0  0  0  0  0
   -5.2500    6.4952    0.0000 C   0  0  0  0  0  0  0  0  0  0  0  0
   -6.0000    5.1962    0.0000 C   0  0  0  0  0  0  0  0  0  0  0  0
   -5.2500    3.8971    0.0000 N   0  0  0  0  0  0  0  0  0  0  0  0
   -3.7500    3.8971    0.0000 C   0  0  0  0  0  0  0  0  0  0  0  0
   -0.7500    3.8971    0.0000 N   0  0  0  0  0  0  0  0  0  0  0  0
  1  2  1  0
  2  3  2  0
  3  4  1  0
  4  5  2  0
  5  6  1  0
  6  7  1  0
  7  8  2  0
  7  9  1  0
  9 10  1  0
 10 11  1  0
 11 12  1  0
 12 13  1  0
 13 14  1  0
  5 15  1  0
 15 16  2  0
 16 17  1  0
 17 18  1  0
 18 19  2  0
 19 20  1  0
 20 21  2  0
 21 22  1  0
 22 23  1  0
 23 24  2  0
 24 25  1  0
 25 26  2  0
 26 27  1  0
 27 28  2  0
 22 29  2  0
 16  2  1  0
 29 18  1  0
 14  9  1  0
 28 23  1  0
M  END
>  <Compound_ID>  (156) 
CHEMBL185775

>  <Active>  (156) 
1

>  <Smiles>  (156) 
Cc1ccc(NC(=O)N2CCCCC2)cc1Nc1nccc(-c2cccnc2)n1

>  <canonical_smi>  (156) 
Cc1ccc(NC(=O)N2CCCCC2)cc1Nc1nccc(-c2cccnc2)n1

>  <Set>  (156) 
G2 active

>  <Set_type>  (156) 
Train

>  <MW>  (156) 
388.48

>  <HBD>  (156) 
2

>  <HBA>  (156) 
5

>  <NRB>  (156) 
4

>  <NR>  (156) 
4

>  <NAR>  (156) 
3

>  <PSA>  (156) 
83.04

>  <Standard Type>  (156) 
nan

>  <Standard Relation>  (156) 
nan

>  <Standard Units>  (156) 
nan

>  <Standard Value>  (156) 
nan

>  <Assay ChEMBL ID>  (156) 
nan

>  <Assay Description>  (156) 
nan

>  <BAO Label>  (156) 
nan

$$$$

     RDKit          2D

 34 38  0  0  0  0  0  0  0  0999 V2000
   -3.0000   -2.5981    0.0000 C   0  0  0  0  0  0  0  0  0  0  0  0
   -1.5000   -2.5981    0.0000 C   0  0  0  0  0  0  0  0  0  0  0  0
   -0.7500   -3.8971    0.0000 C   0  0  0  0  0  0  0  0  0  0  0  0
    0.7500   -3.8971    0.0000 C   0  0  0  0  0  0  0  0  0  0  0  0
    1.5000   -5.1962    0.0000 C   0  0  0  0  0  0  0  0  0  0  0  0
    0.7500   -6.4952    0.0000 C   0  0  0  0  0  0  0  0  0  0  0  0
    1.5000   -7.7942    0.0000 C   0  0  0  0  0  0  0  0  0  0  0  0
    0.7500   -9.0933    0.0000 O   0  0  0  0  0  0  0  0  0  0  0  0
    3.0000   -7.7942    0.0000 C   0  0  0  0  0  0  0  0  0  0  0  0
    3.7500   -6.4952    0.0000 C   0  0  0  0  0  0  0  0  0  0  0  0
    3.0000   -5.1962    0.0000 C   0  0  0  0  0  0  0  0  0  0  0  0
    3.7500   -3.8971    0.0000 Cl  0  0  0  0  0  0  0  0  0  0  0  0
    1.5000   -2.5981    0.0000 C   0  0  0  0  0  0  0  0  0  0  0  0
    0.7500   -1.2990    0.0000 C   0  0  0  0  0  0  0  0  0  0  0  0
    1.5000    0.0000    0.0000 N   0  0  0  0  0  0  0  0  0  0  0  0
    0.7500    1.2990    0.0000 N   0  0  0  0  0  0  0  0  0  0  0  0
   -0.7500    1.2990    0.0000 C   0  0  0  0  0  0  0  0  0  0  0  0
   -1.5000    2.5981    0.0000 N   0  0  0  0  0  0  0  0  0  0  0  0
   -0.7500    3.8971    0.0000 C   0  0  0  0  0  0  0  0  0  0  0  0
    0.7500    3.8971    0.0000 C   0  0  0  0  0  0  0  0  0  0  0  0
    1.5000    5.1962    0.0000 C   0  0  0  0  0  0  0  0  0  0  0  0
    0.7500    6.4952    0.0000 C   0  0  0  0  0  0  0  0  0  0  0  0
    1.5000    7.7942    0.0000 C   0  0  0  0  0  0  0  0  0  0  0  0
    3.0000    7.7942    0.0000 C   0  0  0  0  0  0  0  0  0  0  0  0
    3.7500    9.0933    0.0000 C   0  0  0  0  0  0  0  0  0  0  0  0
    5.2500    9.0933    0.0000 N   0  0  0  0  0  0  0  0  0  0  0  0
    6.1317   10.3068    0.0000 C   0  0  0  0  0  0  0  0  0  0  0  0
    7.5583    9.8433    0.0000 C   0  0  0  0  0  0  0  0  0  0  0  0
    7.5583    8.3433    0.0000 C   0  0  0  0  0  0  0  0  0  0  0  0
    6.1317    7.8797    0.0000 C   0  0  0  0  0  0  0  0  0  0  0  0
   -0.7500    6.4952    0.0000 C   0  0  0  0  0  0  0  0  0  0  0  0
   -1.5000    5.1962    0.0000 C   0  0  0  0  0  0  0  0  0  0  0  0
   -1.5000    0.0000    0.0000 N   0  0  0  0  0  0  0  0  0  0  0  0
   -0.7500   -1.2990    0.0000 C   0  0  0  0  0  0  0  0  0  0  0  0
  1  2  1  0
  2  3  2  0
  3  4  1  0
  4  5  1  0
  5  6  2  0
  6  7  1  0
  7  8  1  0
  7  9  2  0
  9 10  1  0
 10 11  2  0
 11 12  1  0
  4 13  2  0
 13 14  1  0
 14 15  2  0
 15 16  1  0
 16 17  2  0
 17 18  1  0
 18 19  1  0
 19 20  2  0
 20 21  1  0
 21 22  2  0
 22 23  1  0
 23 24  1  0
 24 25  1  0
 25 26  1  0
 26 27  1  0
 27 28  1  0
 28 29  1  0
 29 30  1  0
 22 31  1  0
 31 32  2  0
 17 33  1  0
 33 34  2  0
 34  2  1  0
 11  5  1  0
 34 14  1  0
 32 19  1  0
 30 26  1  0
M  END
>  <Compound_ID>  (157) 
CHEMBL250213

>  <Active>  (157) 
1

>  <Smiles>  (157) 
Cc1cc(-c2cc(O)ccc2Cl)cc2nnc(Nc3ccc(CCCN4CCCC4)cc3)nc12

>  <canonical_smi>  (157) 
Cc1cc(-c2cc(O)ccc2Cl)cc2nnc(Nc3ccc(CCCN4CCCC4)cc3)nc12

>  <Set>  (157) 
G2 active

>  <Set_type>  (157) 
Test

>  <MW>  (157) 
474.01

>  <HBD>  (157) 
2

>  <HBA>  (157) 
6

>  <NRB>  (157) 
7

>  <NR>  (157) 
5

>  <NAR>  (157) 
4

>  <PSA>  (157) 
74.17

>  <Standard Type>  (157) 
nan

>  <Standard Relation>  (157) 
nan

>  <Standard Units>  (157) 
nan

>  <Standard Value>  (157) 
nan

>  <Assay ChEMBL ID>  (157) 
nan

>  <Assay Description>  (157) 
nan

>  <BAO Label>  (157) 
nan

$$$$

     RDKit          2D

 38 42  0  0  0  0  0  0  0  0999 V2000
   -3.0000   -2.5981    0.0000 C   0  0  0  0  0  0  0  0  0  0  0  0
   -1.5000   -2.5981    0.0000 C   0  0  0  0  0  0  0  0  0  0  0  0
   -0.7500   -3.8971    0.0000 C   0  0  0  0  0  0  0  0  0  0  0  0
    0.7500   -3.8971    0.0000 C   0  0  0  0  0  0  0  0  0  0  0  0
    1.5000   -5.1962    0.0000 C   0  0  0  0  0  0  0  0  0  0  0  0
    0.7500   -6.4952    0.0000 C   0  0  0  0  0  0  0  0  0  0  0  0
    1.5000   -7.7942    0.0000 C   0  0  0  0  0  0  0  0  0  0  0  0
    0.7500   -9.0933    0.0000 O   0  0  0  0  0  0  0  0  0  0  0  0
    3.0000   -7.7942    0.0000 C   0  0  0  0  0  0  0  0  0  0  0  0
    3.7500   -6.4952    0.0000 C   0  0  0  0  0  0  0  0  0  0  0  0
    3.0000   -5.1962    0.0000 C   0  0  0  0  0  0  0  0  0  0  0  0
    3.7500   -3.8971    0.0000 Cl  0  0  0  0  0  0  0  0  0  0  0  0
    1.5000   -2.5981    0.0000 C   0  0  0  0  0  0  0  0  0  0  0  0
    0.7500   -1.2990    0.0000 C   0  0  0  0  0  0  0  0  0  0  0  0
    1.5000    0.0000    0.0000 N   0  0  0  0  0  0  0  0  0  0  0  0
    0.7500    1.2990    0.0000 N   0  0  0  0  0  0  0  0  0  0  0  0
   -0.7500    1.2990    0.0000 C   0  0  0  0  0  0  0  0  0  0  0  0
   -1.5000    2.5981    0.0000 N   0  0  0  0  0  0  0  0  0  0  0  0
   -0.7500    3.8971    0.0000 C   0  0  0  0  0  0  0  0  0  0  0  0
    0.7500    3.8971    0.0000 C   0  0  0  0  0  0  0  0  0  0  0  0
    1.5000    5.1962    0.0000 C   0  0  0  0  0  0  0  0  0  0  0  0
    0.7500    6.4952    0.0000 C   0  0  0  0  0  0  0  0  0  0  0  0
    1.5000    7.7942    0.0000 S   0  0  0  0  0  0  0  0  0  0  0  0
    2.7990    7.0442    0.0000 O   0  0  0  0  0  0  0  0  0  0  0  0
    0.2010    8.5442    0.0000 O   0  0  0  0  0  0  0  0  0  0  0  0
    2.2500    9.0933    0.0000 N   0  0  0  0  0  0  0  0  0  0  0  0
    1.5000   10.3923    0.0000 C   0  0  0  0  0  0  0  0  0  0  0  0
    3.7500    9.0933    0.0000 C   0  0  0  0  0  0  0  0  0  0  0  0
    4.5000   10.3923    0.0000 C   0  0  0  0  0  0  0  0  0  0  0  0
    6.0000   10.3923    0.0000 N   0  0  0  0  0  0  0  0  0  0  0  0
    6.8817   11.6058    0.0000 C   0  0  0  0  0  0  0  0  0  0  0  0
    8.3083   11.1423    0.0000 C   0  0  0  0  0  0  0  0  0  0  0  0
    8.3083    9.6423    0.0000 C   0  0  0  0  0  0  0  0  0  0  0  0
    6.8817    9.1788    0.0000 C   0  0  0  0  0  0  0  0  0  0  0  0
   -0.7500    6.4952    0.0000 C   0  0  0  0  0  0  0  0  0  0  0  0
   -1.5000    5.1962    0.0000 C   0  0  0  0  0  0  0  0  0  0  0  0
   -1.5000    0.0000    0.0000 N   0  0  0  0  0  0  0  0  0  0  0  0
   -0.7500   -1.2990    0.0000 C   0  0  0  0  0  0  0  0  0  0  0  0
  1  2  1  0
  2  3  2  0
  3  4  1  0
  4  5  1  0
  5  6  2  0
  6  7  1  0
  7  8  1  0
  7  9  2  0
  9 10  1  0
 10 11  2  0
 11 12  1  0
  4 13  2  0
 13 14  1  0
 14 15  2  0
 15 16  1  0
 16 17  2  0
 17 18  1  0
 18 19  1  0
 19 20  2  0
 20 21  1  0
 21 22  2  0
 22 23  1  0
 23 24  2  0
 23 25  2  0
 23 26  1  0
 26 27  1  0
 26 28  1  0
 28 29  1  0
 29 30  1  0
 30 31  1  0
 31 32  1  0
 32 33  1  0
 33 34  1  0
 22 35  1  0
 35 36  2  0
 17 37  1  0
 37 38  2  0
 38  2  1  0
 11  5  1  0
 38 14  1  0
 36 19  1  0
 34 30  1  0
M  END
>  <Compound_ID>  (158) 
CHEMBL250019

>  <Active>  (158) 
1

>  <Smiles>  (158) 
Cc1cc(-c2cc(O)ccc2Cl)cc2nnc(Nc3ccc(S(=O)(=O)N(C)CCN4CCCC4)cc3)nc12

>  <canonical_smi>  (158) 
Cc1cc(-c2cc(O)ccc2Cl)cc2nnc(Nc3ccc(S(=O)(=O)N(C)CCN4CCCC4)cc3)nc12

>  <Set>  (158) 
G2 active

>  <Set_type>  (158) 
Test

>  <MW>  (158) 
553.09

>  <HBD>  (158) 
2

>  <HBA>  (158) 
8

>  <NRB>  (158) 
8

>  <NR>  (158) 
5

>  <NAR>  (158) 
4

>  <PSA>  (158) 
111.55

>  <Standard Type>  (158) 
nan

>  <Standard Relation>  (158) 
nan

>  <Standard Units>  (158) 
nan

>  <Standard Value>  (158) 
nan

>  <Assay ChEMBL ID>  (158) 
nan

>  <Assay Description>  (158) 
nan

>  <BAO Label>  (158) 
nan

$$$$

     RDKit          2D

 39 43  0  0  0  0  0  0  0  0999 V2000
   -4.6904   -6.5871    0.0000 C   0  0  0  0  0  0  0  0  0  0  0  0
   -5.8051   -5.5834    0.0000 C   0  0  0  0  0  0  0  0  0  0  0  0
   -7.2317   -6.0469    0.0000 C   0  0  0  0  0  0  0  0  0  0  0  0
   -8.3464   -5.0433    0.0000 C   0  0  0  0  0  0  0  0  0  0  0  0
   -8.0346   -3.5760    0.0000 C   0  0  0  0  0  0  0  0  0  0  0  0
   -9.1493   -2.5723    0.0000 C   0  0  0  0  0  0  0  0  0  0  0  0
  -10.5759   -3.0359    0.0000 O   0  0  0  0  0  0  0  0  0  0  0  0
   -8.8374   -1.1051    0.0000 N   0  0  0  0  0  0  0  0  0  0  0  0
   -9.9521   -0.1014    0.0000 C   0  0  0  0  0  0  0  0  0  0  0  0
   -9.6403    1.3658    0.0000 C   0  0  0  0  0  0  0  0  0  0  0  0
  -10.7550    2.3695    0.0000 C   0  0  0  0  0  0  0  0  0  0  0  0
  -12.1816    1.9060    0.0000 C   0  0  0  0  0  0  0  0  0  0  0  0
  -13.2963    2.9097    0.0000 C   0  0  0  0  0  0  0  0  0  0  0  0
  -12.9844    4.3769    0.0000 N   0  0  0  0  0  0  0  0  0  0  0  0
  -11.5578    4.8404    0.0000 C   0  0  0  0  0  0  0  0  0  0  0  0
  -11.2460    6.3076    0.0000 C   0  0  0  0  0  0  0  0  0  0  0  0
  -12.3607    7.3113    0.0000 N   0  0  0  0  0  0  0  0  0  0  0  0
  -12.0488    8.7786    0.0000 C   0  0  0  0  0  0  0  0  0  0  0  0
  -13.7873    6.8478    0.0000 C   0  0  0  0  0  0  0  0  0  0  0  0
  -14.0992    5.3806    0.0000 C   0  0  0  0  0  0  0  0  0  0  0  0
  -12.4935    0.4388    0.0000 C   0  0  0  0  0  0  0  0  0  0  0  0
  -13.9200   -0.0248    0.0000 C   0  0  0  0  0  0  0  0  0  0  0  0
  -15.3466   -0.4883    0.0000 F   0  0  0  0  0  0  0  0  0  0  0  0
  -13.4565   -1.4514    0.0000 F   0  0  0  0  0  0  0  0  0  0  0  0
  -14.3836    1.4018    0.0000 F   0  0  0  0  0  0  0  0  0  0  0  0
  -11.3787   -0.5649    0.0000 C   0  0  0  0  0  0  0  0  0  0  0  0
   -6.6080   -3.1125    0.0000 C   0  0  0  0  0  0  0  0  0  0  0  0
   -5.4933   -4.1162    0.0000 C   0  0  0  0  0  0  0  0  0  0  0  0
   -4.0667   -3.6527    0.0000 C   0  0  0  0  0  0  0  0  0  0  0  0
   -2.6401   -3.1891    0.0000 C   0  0  0  0  0  0  0  0  0  0  0  0
   -1.2135   -2.7256    0.0000 C   0  0  0  0  0  0  0  0  0  0  0  0
   -0.0000   -3.6073    0.0000 C   0  0  0  0  0  0  0  0  0  0  0  0
    1.2135   -2.7256    0.0000 N   0  0  0  0  0  0  0  0  0  0  0  0
    0.7500   -1.2990    0.0000 C   0  0  0  0  0  0  0  0  0  0  0  0
    1.5000    0.0000    0.0000 C   0  0  0  0  0  0  0  0  0  0  0  0
    0.7500    1.2990    0.0000 C   0  0  0  0  0  0  0  0  0  0  0  0
   -0.7500    1.2990    0.0000 C   0  0  0  0  0  0  0  0  0  0  0  0
   -1.5000    0.0000    0.0000 N   0  0  0  0  0  0  0  0  0  0  0  0
   -0.7500   -1.2990    0.0000 N   0  0  0  0  0  0  0  0  0  0  0  0
  1  2  1  0
  2  3  2  0
  3  4  1  0
  4  5  2  0
  5  6  1  0
  6  7  2  0
  6  8  1  0
  8  9  1  0
  9 10  2  0
 10 11  1  0
 11 12  2  0
 12 13  1  0
 13 14  1  0
 14 15  1  0
 15 16  1  0
 16 17  1  0
 17 18  1  0
 17 19  1  0
 19 20  1  0
 12 21  1  0
 21 22  1  0
 22 23  1  0
 22 24  1  0
 22 25  1  0
 21 26  2  0
  5 27  1  0
 27 28  2  0
 28 29  1  0
 29 30  3  0
 30 31  1  0
 31 32  2  0
 32 33  1  0
 33 34  2  0
 34 35  1  0
 35 36  2  0
 36 37  1  0
 37 38  2  0
 38 39  1  0
 28  2  1  0
 39 31  1  0
 26  9  1  0
 39 34  1  0
 20 14  1  0
M  END
>  <Compound_ID>  (159) 
CHEMBL1171837

>  <Active>  (159) 
1

>  <Smiles>  (159) 
Cc1ccc(C(=O)Nc2ccc(CN3CCN(C)CC3)c(C(F)(F)F)c2)cc1C#Cc1cnc2cccnn12

>  <canonical_smi>  (159) 
Cc1ccc(C(=O)Nc2ccc(CN3CCN(C)CC3)c(C(F)(F)F)c2)cc1C#Cc1cnc2cccnn12

>  <Set>  (159) 
G2 active

>  <Set_type>  (159) 
Test

>  <MW>  (159) 
532.57

>  <HBD>  (159) 
1

>  <HBA>  (159) 
5

>  <NRB>  (159) 
4

>  <NR>  (159) 
5

>  <NAR>  (159) 
4

>  <PSA>  (159) 
65.77

>  <Standard Type>  (159) 
nan

>  <Standard Relation>  (159) 
nan

>  <Standard Units>  (159) 
nan

>  <Standard Value>  (159) 
nan

>  <Assay ChEMBL ID>  (159) 
nan

>  <Assay Description>  (159) 
nan

>  <BAO Label>  (159) 
nan

$$$$

     RDKit          2D

 36 39  0  0  0  0  0  0  0  0999 V2000
   -3.7500   -6.4952    0.0000 C   0  0  0  0  0  0  0  0  0  0  0  0
   -3.0000   -5.1962    0.0000 O   0  0  0  0  0  0  0  0  0  0  0  0
   -1.5000   -5.1962    0.0000 C   0  0  0  0  0  0  0  0  0  0  0  0
   -0.7500   -3.8971    0.0000 C   0  0  0  0  0  0  0  0  0  0  0  0
    0.7500   -3.8971    0.0000 C   0  0  0  0  0  0  0  0  0  0  0  0
    1.5000   -2.5981    0.0000 N   0  0  0  0  0  0  0  0  0  0  0  0
    0.7500   -1.2990    0.0000 C   0  0  0  0  0  0  0  0  0  0  0  0
    1.5000    0.0000    0.0000 C   0  0  0  0  0  0  0  0  0  0  0  0
    3.0000    0.0000    0.0000 C   0  0  0  0  0  0  0  0  0  0  0  0
    4.5000    0.0000    0.0000 N   0  0  0  0  0  0  0  0  0  0  0  0
    0.7500    1.2990    0.0000 C   0  0  0  0  0  0  0  0  0  0  0  0
   -0.7500    1.2990    0.0000 N   0  0  0  0  0  0  0  0  0  0  0  0
   -1.5000    0.0000    0.0000 C   0  0  0  0  0  0  0  0  0  0  0  0
   -3.0000    0.0000    0.0000 C   0  0  0  0  0  0  0  0  0  0  0  0
   -3.7500   -1.2990    0.0000 C   0  0  0  0  0  0  0  0  0  0  0  0
   -5.2500   -1.2990    0.0000 O   0  0  0  0  0  0  0  0  0  0  0  0
   -6.0000    0.0000    0.0000 C   0  0  0  0  0  0  0  0  0  0  0  0
   -7.5000   -0.0000    0.0000 C   0  0  0  0  0  0  0  0  0  0  0  0
   -8.2500    1.2990    0.0000 C   0  0  0  0  0  0  0  0  0  0  0  0
   -9.7500    1.2990    0.0000 C   0  0  0  0  0  0  0  0  0  0  0  0
  -10.5000    2.5981    0.0000 C   0  0  0  0  0  0  0  0  0  0  0  0
  -12.0000    2.5981    0.0000 C   0  0  0  0  0  0  0  0  0  0  0  0
  -12.7500    1.2990    0.0000 N   0  0  0  0  0  0  0  0  0  0  0  0
  -14.2500    1.2990    0.0000 C   0  0  0  0  0  0  0  0  0  0  0  0
  -12.0000    0.0000    0.0000 C   0  0  0  0  0  0  0  0  0  0  0  0
  -10.5000    0.0000    0.0000 C   0  0  0  0  0  0  0  0  0  0  0  0
   -3.0000   -2.5981    0.0000 C   0  0  0  0  0  0  0  0  0  0  0  0
   -3.7500   -3.8971    0.0000 O   0  0  0  0  0  0  0  0  0  0  0  0
   -5.2500   -3.8971    0.0000 C   0  0  0  0  0  0  0  0  0  0  0  0
   -1.5000   -2.5981    0.0000 C   0  0  0  0  0  0  0  0  0  0  0  0
   -0.7500   -1.2990    0.0000 C   0  0  0  0  0  0  0  0  0  0  0  0
    1.5000   -5.1962    0.0000 C   0  0  0  0  0  0  0  0  0  0  0  0
    3.0000   -5.1962    0.0000 Cl  0  0  0  0  0  0  0  0  0  0  0  0
    0.7500   -6.4952    0.0000 C   0  0  0  0  0  0  0  0  0  0  0  0
   -0.7500   -6.4952    0.0000 C   0  0  0  0  0  0  0  0  0  0  0  0
   -1.5000   -7.7942    0.0000 Cl  0  0  0  0  0  0  0  0  0  0  0  0
  1  2  1  0
  2  3  1  0
  3  4  2  0
  4  5  1  0
  5  6  1  0
  6  7  1  0
  7  8  2  0
  8  9  1  0
  9 10  3  0
  8 11  1  0
 11 12  2  0
 12 13  1  0
 13 14  2  0
 14 15  1  0
 15 16  1  0
 16 17  1  0
 17 18  1  0
 18 19  1  0
 19 20  1  0
 20 21  1  0
 21 22  1  0
 22 23  1  0
 23 24  1  0
 23 25  1  0
 25 26  1  0
 15 27  2  0
 27 28  1  0
 28 29  1  0
 27 30  1  0
 30 31  2  0
  5 32  2  0
 32 33  1  0
 32 34  1  0
 34 35  2  0
 35 36  1  0
 35  3  1  0
 31  7  1  0
 31 13  1  0
 26 20  1  0
M  END
>  <Compound_ID>  (160) 
CHEMBL290921

>  <Active>  (160) 
1

>  <Smiles>  (160) 
COc1cc(Nc2c(C#N)cnc3cc(OCCCC4CCN(C)CC4)c(OC)cc23)c(Cl)cc1Cl

>  <canonical_smi>  (160) 
COc1cc(Nc2c(C#N)cnc3cc(OCCCC4CCN(C)CC4)c(OC)cc23)c(Cl)cc1Cl

>  <Set>  (160) 
G2 active

>  <Set_type>  (160) 
Test

>  <MW>  (160) 
529.47

>  <HBD>  (160) 
1

>  <HBA>  (160) 
7

>  <NRB>  (160) 
9

>  <NR>  (160) 
4

>  <NAR>  (160) 
3

>  <PSA>  (160) 
79.64

>  <Standard Type>  (160) 
nan

>  <Standard Relation>  (160) 
nan

>  <Standard Units>  (160) 
nan

>  <Standard Value>  (160) 
nan

>  <Assay ChEMBL ID>  (160) 
nan

>  <Assay Description>  (160) 
nan

>  <BAO Label>  (160) 
nan

$$$$

     RDKit          2D

 36 40  0  0  0  0  0  0  0  0999 V2000
   -6.2940    7.2357    0.0000 C   0  0  0  0  0  0  0  0  0  0  0  0
   -5.1793    6.2320    0.0000 O   0  0  0  0  0  0  0  0  0  0  0  0
   -5.4912    4.7648    0.0000 C   0  0  0  0  0  0  0  0  0  0  0  0
   -4.3764    3.7611    0.0000 C   0  0  0  0  0  0  0  0  0  0  0  0
   -4.6883    2.2939    0.0000 C   0  0  0  0  0  0  0  0  0  0  0  0
   -3.5736    1.2902    0.0000 N   0  0  0  0  0  0  0  0  0  0  0  0
   -2.1470    1.7537    0.0000 C   0  0  0  0  0  0  0  0  0  0  0  0
   -1.8351    3.2209    0.0000 C   0  0  0  0  0  0  0  0  0  0  0  0
   -2.9499    4.2246    0.0000 C   0  0  0  0  0  0  0  0  0  0  0  0
   -4.0646    5.2283    0.0000 N   0  0  0  0  0  0  0  0  0  0  0  0
   -0.4086    3.6844    0.0000 C   0  0  0  0  0  0  0  0  0  0  0  0
    0.7062    2.6807    0.0000 N   0  0  0  0  0  0  0  0  0  0  0  0
    0.3943    1.2135    0.0000 C   0  0  0  0  0  0  0  0  0  0  0  0
    1.2760    0.0000    0.0000 C   0  0  0  0  0  0  0  0  0  0  0  0
    0.3943   -1.2135    0.0000 C   0  0  0  0  0  0  0  0  0  0  0  0
    0.8578   -2.6401    0.0000 C   0  0  0  0  0  0  0  0  0  0  0  0
   -0.1459   -3.7548    0.0000 C   0  0  0  0  0  0  0  0  0  0  0  0
    0.3177   -5.1814    0.0000 C   0  0  0  0  0  0  0  0  0  0  0  0
    1.7849   -5.4933    0.0000 C   0  0  0  0  0  0  0  0  0  0  0  0
    2.2484   -6.9199    0.0000 C   0  0  0  0  0  0  0  0  0  0  0  0
    1.2447   -8.0346    0.0000 N   0  0  0  0  0  0  0  0  0  0  0  0
   -0.2225   -7.7227    0.0000 C   0  0  0  0  0  0  0  0  0  0  0  0
   -1.2262   -8.8374    0.0000 C   0  0  0  0  0  0  0  0  0  0  0  0
   -0.7627  -10.2640    0.0000 N   0  0  0  0  0  0  0  0  0  0  0  0
   -1.7664  -11.3787    0.0000 C   0  0  0  0  0  0  0  0  0  0  0  0
    0.7045  -10.5759    0.0000 C   0  0  0  0  0  0  0  0  0  0  0  0
    1.7082   -9.4612    0.0000 C   0  0  0  0  0  0  0  0  0  0  0  0
    2.7886   -4.3786    0.0000 C   0  0  0  0  0  0  0  0  0  0  0  0
    2.3250   -2.9520    0.0000 N   0  0  0  0  0  0  0  0  0  0  0  0
   -1.0323   -0.7500    0.0000 S   0  0  0  0  0  0  0  0  0  0  0  0
   -1.0323    0.7500    0.0000 C   0  0  0  0  0  0  0  0  0  0  0  0
   -6.1149    1.8303    0.0000 C   0  0  0  0  0  0  0  0  0  0  0  0
   -6.4268    0.3631    0.0000 Cl  0  0  0  0  0  0  0  0  0  0  0  0
   -7.2296    2.8340    0.0000 C   0  0  0  0  0  0  0  0  0  0  0  0
   -6.9177    4.3013    0.0000 C   0  0  0  0  0  0  0  0  0  0  0  0
   -8.0325    5.3050    0.0000 Cl  0  0  0  0  0  0  0  0  0  0  0  0
  1  2  1  0
  2  3  1  0
  3  4  2  0
  4  5  1  0
  5  6  1  0
  6  7  1  0
  7  8  2  0
  8  9  1  0
  9 10  3  0
  8 11  1  0
 11 12  2  0
 12 13  1  0
 13 14  1  0
 14 15  2  0
 15 16  1  0
 16 17  2  0
 17 18  1  0
 18 19  2  0
 19 20  1  0
 20 21  1  0
 21 22  1  0
 22 23  1  0
 23 24  1  0
 24 25  1  0
 24 26  1  0
 26 27  1  0
 19 28  1  0
 28 29  2  0
 15 30  1  0
 30 31  1  0
  5 32  2  0
 32 33  1  0
 32 34  1  0
 34 35  2  0
 35 36  1  0
 35  3  1  0
 31  7  1  0
 31 13  2  0
 29 16  1  0
 27 21  1  0
M  END
>  <Compound_ID>  (161) 
CHEMBL373101

>  <Active>  (161) 
1

>  <Smiles>  (161) 
COc1cc(Nc2c(C#N)cnc3cc(-c4ccc(CN5CCN(C)CC5)cn4)sc23)c(Cl)cc1Cl

>  <canonical_smi>  (161) 
COc1cc(Nc2c(C#N)cnc3cc(-c4ccc(CN5CCN(C)CC5)cn4)sc23)c(Cl)cc1Cl

>  <Set>  (161) 
G2 active

>  <Set_type>  (161) 
Test

>  <MW>  (161) 
539.49

>  <HBD>  (161) 
1

>  <HBA>  (161) 
7

>  <NRB>  (161) 
6

>  <NR>  (161) 
5

>  <NAR>  (161) 
4

>  <PSA>  (161) 
77.31

>  <Standard Type>  (161) 
nan

>  <Standard Relation>  (161) 
nan

>  <Standard Units>  (161) 
nan

>  <Standard Value>  (161) 
nan

>  <Assay ChEMBL ID>  (161) 
nan

>  <Assay Description>  (161) 
nan

>  <BAO Label>  (161) 
nan

$$$$

     RDKit          2D

 39 43  0  0  0  0  0  0  0  0999 V2000
   -4.6904   -6.5871    0.0000 C   0  0  0  0  0  0  0  0  0  0  0  0
   -5.8051   -5.5834    0.0000 C   0  0  0  0  0  0  0  0  0  0  0  0
   -7.2317   -6.0469    0.0000 C   0  0  0  0  0  0  0  0  0  0  0  0
   -8.3464   -5.0433    0.0000 C   0  0  0  0  0  0  0  0  0  0  0  0
   -8.0346   -3.5760    0.0000 C   0  0  0  0  0  0  0  0  0  0  0  0
   -9.1493   -2.5723    0.0000 C   0  0  0  0  0  0  0  0  0  0  0  0
  -10.5759   -3.0359    0.0000 O   0  0  0  0  0  0  0  0  0  0  0  0
   -8.8374   -1.1051    0.0000 N   0  0  0  0  0  0  0  0  0  0  0  0
   -9.9521   -0.1014    0.0000 C   0  0  0  0  0  0  0  0  0  0  0  0
   -9.6403    1.3658    0.0000 C   0  0  0  0  0  0  0  0  0  0  0  0
  -10.7550    2.3695    0.0000 C   0  0  0  0  0  0  0  0  0  0  0  0
  -12.1816    1.9060    0.0000 C   0  0  0  0  0  0  0  0  0  0  0  0
  -13.2963    2.9097    0.0000 C   0  0  0  0  0  0  0  0  0  0  0  0
  -12.9844    4.3769    0.0000 N   0  0  0  0  0  0  0  0  0  0  0  0
  -11.5578    4.8404    0.0000 C   0  0  0  0  0  0  0  0  0  0  0  0
  -11.2460    6.3076    0.0000 C   0  0  0  0  0  0  0  0  0  0  0  0
  -12.3607    7.3113    0.0000 N   0  0  0  0  0  0  0  0  0  0  0  0
  -12.0488    8.7786    0.0000 C   0  0  0  0  0  0  0  0  0  0  0  0
  -13.7873    6.8478    0.0000 C   0  0  0  0  0  0  0  0  0  0  0  0
  -14.0992    5.3806    0.0000 C   0  0  0  0  0  0  0  0  0  0  0  0
  -12.4935    0.4388    0.0000 C   0  0  0  0  0  0  0  0  0  0  0  0
  -13.9200   -0.0248    0.0000 C   0  0  0  0  0  0  0  0  0  0  0  0
  -15.3466   -0.4883    0.0000 F   0  0  0  0  0  0  0  0  0  0  0  0
  -13.4565   -1.4514    0.0000 F   0  0  0  0  0  0  0  0  0  0  0  0
  -14.3836    1.4018    0.0000 F   0  0  0  0  0  0  0  0  0  0  0  0
  -11.3787   -0.5649    0.0000 C   0  0  0  0  0  0  0  0  0  0  0  0
   -6.6080   -3.1125    0.0000 C   0  0  0  0  0  0  0  0  0  0  0  0
   -5.4933   -4.1162    0.0000 C   0  0  0  0  0  0  0  0  0  0  0  0
   -4.0667   -3.6527    0.0000 C   0  0  0  0  0  0  0  0  0  0  0  0
   -2.6401   -3.1891    0.0000 C   0  0  0  0  0  0  0  0  0  0  0  0
   -1.2135   -2.7256    0.0000 C   0  0  0  0  0  0  0  0  0  0  0  0
   -0.0000   -3.6073    0.0000 C   0  0  0  0  0  0  0  0  0  0  0  0
    1.2135   -2.7256    0.0000 N   0  0  0  0  0  0  0  0  0  0  0  0
    0.7500   -1.2990    0.0000 C   0  0  0  0  0  0  0  0  0  0  0  0
    1.5000    0.0000    0.0000 C   0  0  0  0  0  0  0  0  0  0  0  0
    0.7500    1.2990    0.0000 N   0  0  0  0  0  0  0  0  0  0  0  0
   -0.7500    1.2990    0.0000 C   0  0  0  0  0  0  0  0  0  0  0  0
   -1.5000    0.0000    0.0000 C   0  0  0  0  0  0  0  0  0  0  0  0
   -0.7500   -1.2990    0.0000 N   0  0  0  0  0  0  0  0  0  0  0  0
  1  2  1  0
  2  3  2  0
  3  4  1  0
  4  5  2  0
  5  6  1  0
  6  7  2  0
  6  8  1  0
  8  9  1  0
  9 10  2  0
 10 11  1  0
 11 12  2  0
 12 13  1  0
 13 14  1  0
 14 15  1  0
 15 16  1  0
 16 17  1  0
 17 18  1  0
 17 19  1  0
 19 20  1  0
 12 21  1  0
 21 22  1  0
 22 23  1  0
 22 24  1  0
 22 25  1  0
 21 26  2  0
  5 27  1  0
 27 28  2  0
 28 29  1  0
 29 30  3  0
 30 31  1  0
 31 32  2  0
 32 33  1  0
 33 34  2  0
 34 35  1  0
 35 36  2  0
 36 37  1  0
 37 38  2  0
 38 39  1  0
 28  2  1  0
 39 31  1  0
 26  9  1  0
 39 34  1  0
 20 14  1  0
M  END
>  <Compound_ID>  (162) 
CHEMBL1171836

>  <Active>  (162) 
1

>  <Smiles>  (162) 
Cc1ccc(C(=O)Nc2ccc(CN3CCN(C)CC3)c(C(F)(F)F)c2)cc1C#Cc1cnc2cnccn12

>  <canonical_smi>  (162) 
Cc1ccc(C(=O)Nc2ccc(CN3CCN(C)CC3)c(C(F)(F)F)c2)cc1C#Cc1cnc2cnccn12

>  <Set>  (162) 
G2 active

>  <Set_type>  (162) 
Test

>  <MW>  (162) 
532.57

>  <HBD>  (162) 
1

>  <HBA>  (162) 
5

>  <NRB>  (162) 
4

>  <NR>  (162) 
5

>  <NAR>  (162) 
4

>  <PSA>  (162) 
65.77

>  <Standard Type>  (162) 
nan

>  <Standard Relation>  (162) 
nan

>  <Standard Units>  (162) 
nan

>  <Standard Value>  (162) 
nan

>  <Assay ChEMBL ID>  (162) 
nan

>  <Assay Description>  (162) 
nan

>  <BAO Label>  (162) 
nan

$$$$

     RDKit          2D

 35 38  0  0  0  0  0  0  0  0999 V2000
   -3.7500   -6.4952    0.0000 C   0  0  0  0  0  0  0  0  0  0  0  0
   -3.0000   -5.1962    0.0000 O   0  0  0  0  0  0  0  0  0  0  0  0
   -1.5000   -5.1962    0.0000 C   0  0  0  0  0  0  0  0  0  0  0  0
   -0.7500   -3.8971    0.0000 C   0  0  0  0  0  0  0  0  0  0  0  0
    0.7500   -3.8971    0.0000 C   0  0  0  0  0  0  0  0  0  0  0  0
    1.5000   -2.5981    0.0000 N   0  0  0  0  0  0  0  0  0  0  0  0
    0.7500   -1.2990    0.0000 C   0  0  0  0  0  0  0  0  0  0  0  0
    1.5000    0.0000    0.0000 C   0  0  0  0  0  0  0  0  0  0  0  0
    3.0000    0.0000    0.0000 C   0  0  0  0  0  0  0  0  0  0  0  0
    4.5000    0.0000    0.0000 N   0  0  0  0  0  0  0  0  0  0  0  0
    0.7500    1.2990    0.0000 C   0  0  0  0  0  0  0  0  0  0  0  0
   -0.7500    1.2990    0.0000 N   0  0  0  0  0  0  0  0  0  0  0  0
   -1.5000    0.0000    0.0000 C   0  0  0  0  0  0  0  0  0  0  0  0
   -3.0000    0.0000    0.0000 C   0  0  0  0  0  0  0  0  0  0  0  0
   -3.7500   -1.2990    0.0000 C   0  0  0  0  0  0  0  0  0  0  0  0
   -5.2500   -1.2990    0.0000 O   0  0  0  0  0  0  0  0  0  0  0  0
   -6.0000    0.0000    0.0000 C   0  0  0  0  0  0  0  0  0  0  0  0
   -7.5000   -0.0000    0.0000 C   0  0  0  0  0  0  0  0  0  0  0  0
   -8.2500    1.2990    0.0000 C   0  0  0  0  0  0  0  0  0  0  0  0
   -7.5000    2.5981    0.0000 C   0  0  0  0  0  0  0  0  0  0  0  0
   -8.2500    3.8971    0.0000 C   0  0  0  0  0  0  0  0  0  0  0  0
   -9.7500    3.8971    0.0000 N   0  0  0  0  0  0  0  0  0  0  0  0
  -10.5000    5.1962    0.0000 C   0  0  0  0  0  0  0  0  0  0  0  0
  -10.5000    2.5981    0.0000 C   0  0  0  0  0  0  0  0  0  0  0  0
   -9.7500    1.2990    0.0000 C   0  0  0  0  0  0  0  0  0  0  0  0
   -3.0000   -2.5981    0.0000 C   0  0  0  0  0  0  0  0  0  0  0  0
   -3.7500   -3.8971    0.0000 O   0  0  0  0  0  0  0  0  0  0  0  0
   -5.2500   -3.8971    0.0000 C   0  0  0  0  0  0  0  0  0  0  0  0
   -1.5000   -2.5981    0.0000 C   0  0  0  0  0  0  0  0  0  0  0  0
   -0.7500   -1.2990    0.0000 C   0  0  0  0  0  0  0  0  0  0  0  0
    1.5000   -5.1962    0.0000 C   0  0  0  0  0  0  0  0  0  0  0  0
    3.0000   -5.1962    0.0000 Cl  0  0  0  0  0  0  0  0  0  0  0  0
    0.7500   -6.4952    0.0000 C   0  0  0  0  0  0  0  0  0  0  0  0
   -0.7500   -6.4952    0.0000 C   0  0  0  0  0  0  0  0  0  0  0  0
   -1.5000   -7.7942    0.0000 Cl  0  0  0  0  0  0  0  0  0  0  0  0
  1  2  1  0
  2  3  1  0
  3  4  2  0
  4  5  1  0
  5  6  1  0
  6  7  1  0
  7  8  2  0
  8  9  1  0
  9 10  3  0
  8 11  1  0
 11 12  2  0
 12 13  1  0
 13 14  2  0
 14 15  1  0
 15 16  1  0
 16 17  1  0
 17 18  1  0
 18 19  1  0
 19 20  1  0
 20 21  1  0
 21 22  1  0
 22 23  1  0
 22 24  1  0
 24 25  1  0
 15 26  2  0
 26 27  1  0
 27 28  1  0
 26 29  1  0
 29 30  2  0
  5 31  2  0
 31 32  1  0
 31 33  1  0
 33 34  2  0
 34 35  1  0
 34  3  1  0
 30  7  1  0
 30 13  1  0
 25 19  1  0
M  END
>  <Compound_ID>  (163) 
CHEMBL41465

>  <Active>  (163) 
1

>  <Smiles>  (163) 
COc1cc(Nc2c(C#N)cnc3cc(OCCC4CCN(C)CC4)c(OC)cc23)c(Cl)cc1Cl

>  <canonical_smi>  (163) 
COc1cc(Nc2c(C#N)cnc3cc(OCCC4CCN(C)CC4)c(OC)cc23)c(Cl)cc1Cl

>  <Set>  (163) 
G2 active

>  <Set_type>  (163) 
Test

>  <MW>  (163) 
515.44

>  <HBD>  (163) 
1

>  <HBA>  (163) 
7

>  <NRB>  (163) 
8

>  <NR>  (163) 
4

>  <NAR>  (163) 
3

>  <PSA>  (163) 
79.64

>  <Standard Type>  (163) 
nan

>  <Standard Relation>  (163) 
nan

>  <Standard Units>  (163) 
nan

>  <Standard Value>  (163) 
nan

>  <Assay ChEMBL ID>  (163) 
nan

>  <Assay Description>  (163) 
nan

>  <BAO Label>  (163) 
nan

$$$$

     RDKit          2D

 36 40  0  0  0  0  0  0  0  0999 V2000
    0.3177    5.1814    0.0000 C   0  0  0  0  0  0  0  0  0  0  0  0
    1.7849    5.4933    0.0000 C   0  0  0  0  0  0  0  0  0  0  0  0
    2.2484    6.9199    0.0000 C   0  0  0  0  0  0  0  0  0  0  0  0
    3.7156    7.2317    0.0000 C   0  0  0  0  0  0  0  0  0  0  0  0
    4.7193    6.1170    0.0000 C   0  0  0  0  0  0  0  0  0  0  0  0
    4.2558    4.6904    0.0000 C   0  0  0  0  0  0  0  0  0  0  0  0
    5.2595    3.5757    0.0000 C   0  0  0  0  0  0  0  0  0  0  0  0
    2.7886    4.3786    0.0000 C   0  0  0  0  0  0  0  0  0  0  0  0
    2.3250    2.9520    0.0000 C   0  0  0  0  0  0  0  0  0  0  0  0
    0.8578    2.6401    0.0000 C   0  0  0  0  0  0  0  0  0  0  0  0
    0.3943    1.2135    0.0000 N   0  0  0  0  0  0  0  0  0  0  0  0
    1.2760    0.0000    0.0000 C   0  0  0  0  0  0  0  0  0  0  0  0
    0.3943   -1.2135    0.0000 N   0  0  0  0  0  0  0  0  0  0  0  0
   -1.0323   -0.7500    0.0000 C   0  0  0  0  0  0  0  0  0  0  0  0
   -2.3313   -1.5000    0.0000 C   0  0  0  0  0  0  0  0  0  0  0  0
   -2.3313   -3.0000    0.0000 N   0  0  0  0  0  0  0  0  0  0  0  0
   -3.6304   -3.7500    0.0000 C   0  0  0  0  0  0  0  0  0  0  0  0
   -4.9294   -3.0000    0.0000 C   0  0  0  0  0  0  0  0  0  0  0  0
   -6.2284   -3.7500    0.0000 C   0  0  0  0  0  0  0  0  0  0  0  0
   -6.2284   -5.2500    0.0000 C   0  0  0  0  0  0  0  0  0  0  0  0
   -7.5275   -6.0000    0.0000 P   0  0  0  0  0  0  0  0  0  0  0  0
   -6.7775   -7.2990    0.0000 C   0  0  0  0  0  0  0  0  0  0  0  0
   -8.2775   -4.7010    0.0000 C   0  0  0  0  0  0  0  0  0  0  0  0
   -8.8265   -6.7500    0.0000 O   0  0  0  0  0  0  0  0  0  0  0  0
   -4.9294   -6.0000    0.0000 C   0  0  0  0  0  0  0  0  0  0  0  0
   -3.6304   -5.2500    0.0000 C   0  0  0  0  0  0  0  0  0  0  0  0
   -3.6304   -0.7500    0.0000 N   0  0  0  0  0  0  0  0  0  0  0  0
   -3.6304    0.7500    0.0000 C   0  0  0  0  0  0  0  0  0  0  0  0
   -4.9294    1.5000    0.0000 N   0  0  0  0  0  0  0  0  0  0  0  0
   -4.9294    3.0000    0.0000 C   0  0  0  0  0  0  0  0  0  0  0  0
   -6.2284    3.7500    0.0000 C   0  0  0  0  0  0  0  0  0  0  0  0
   -7.5275    3.0000    0.0000 O   0  0  0  0  0  0  0  0  0  0  0  0
   -7.5275    1.5000    0.0000 C   0  0  0  0  0  0  0  0  0  0  0  0
   -6.2284    0.7500    0.0000 C   0  0  0  0  0  0  0  0  0  0  0  0
   -2.3313    1.5000    0.0000 N   0  0  0  0  0  0  0  0  0  0  0  0
   -1.0323    0.7500    0.0000 C   0  0  0  0  0  0  0  0  0  0  0  0
  1  2  1  0
  2  3  2  0
  3  4  1  0
  4  5  2  0
  5  6  1  0
  6  7  1  0
  6  8  2  0
  8  9  1  0
  9 10  2  0
 10 11  1  0
 11 12  1  0
 12 13  2  0
 13 14  1  0
 14 15  2  0
 15 16  1  0
 16 17  1  0
 17 18  2  0
 18 19  1  0
 19 20  2  0
 20 21  1  0
 21 22  1  0
 21 23  1  0
 21 24  2  0
 20 25  1  0
 25 26  2  0
 15 27  1  0
 27 28  2  0
 28 29  1  0
 29 30  1  0
 30 31  1  0
 31 32  1  0
 32 33  1  0
 33 34  1  0
 28 35  1  0
 35 36  2  0
  8  2  1  0
 36 11  1  0
 36 14  1  0
 26 17  1  0
 34 29  1  0
M  END
>  <Compound_ID>  (164) 
CHEMBL454358

>  <Active>  (164) 
1

>  <Smiles>  (164) 
Cc1cccc(C)c1/C=C/n1cnc2c(Nc3ccc(P(C)(C)=O)cc3)nc(N3CCOCC3)nc21

>  <canonical_smi>  (164) 
Cc1cccc(C)c1/C=C/n1cnc2c(Nc3ccc(P(C)(C)=O)cc3)nc(N3CCOCC3)nc21

>  <Set>  (164) 
G2 active

>  <Set_type>  (164) 
Test

>  <MW>  (164) 
502.56

>  <HBD>  (164) 
1

>  <HBA>  (164) 
7

>  <NRB>  (164) 
6

>  <NR>  (164) 
5

>  <NAR>  (164) 
4

>  <PSA>  (164) 
85.17

>  <Standard Type>  (164) 
nan

>  <Standard Relation>  (164) 
nan

>  <Standard Units>  (164) 
nan

>  <Standard Value>  (164) 
nan

>  <Assay ChEMBL ID>  (164) 
nan

>  <Assay Description>  (164) 
nan

>  <BAO Label>  (164) 
nan

$$$$

     RDKit          2D

 21 24  0  0  0  0  0  0  0  0999 V2000
    3.0000    0.0000    0.0000 N   0  0  0  0  0  0  0  0  0  0  0  0
    1.5000    0.0000    0.0000 C   0  0  0  0  0  0  0  0  0  0  0  0
    0.7500   -1.2990    0.0000 N   0  0  0  0  0  0  0  0  0  0  0  0
   -0.7500   -1.2990    0.0000 C   0  0  0  0  0  0  0  0  0  0  0  0
   -1.5000    0.0000    0.0000 N   0  0  0  0  0  0  0  0  0  0  0  0
   -0.7500    1.2990    0.0000 C   0  0  0  0  0  0  0  0  0  0  0  0
    0.7500    1.2990    0.0000 C   0  0  0  0  0  0  0  0  0  0  0  0
    1.2135    2.7256    0.0000 C   0  0  0  0  0  0  0  0  0  0  0  0
    2.6401    3.1891    0.0000 C   0  0  0  0  0  0  0  0  0  0  0  0
    3.7548    2.1855    0.0000 C   0  0  0  0  0  0  0  0  0  0  0  0
    5.1814    2.6490    0.0000 C   0  0  0  0  0  0  0  0  0  0  0  0
    5.4933    4.1162    0.0000 C   0  0  0  0  0  0  0  0  0  0  0  0
    4.3786    5.1199    0.0000 C   0  0  0  0  0  0  0  0  0  0  0  0
    4.6904    6.5871    0.0000 O   0  0  0  0  0  0  0  0  0  0  0  0
    2.9520    4.6564    0.0000 C   0  0  0  0  0  0  0  0  0  0  0  0
   -0.0000    3.6073    0.0000 C   0  0  0  0  0  0  0  0  0  0  0  0
   -1.2135    2.7256    0.0000 N   0  0  0  0  0  0  0  0  0  0  0  0
   -2.6401    3.1891    0.0000 C   0  0  0  0  0  0  0  0  0  0  0  0
   -3.3211    4.5257    0.0000 C   0  0  0  0  0  0  0  0  0  0  0  0
   -4.6576    3.8447    0.0000 C   0  0  0  0  0  0  0  0  0  0  0  0
   -3.9766    2.5082    0.0000 C   0  0  0  0  0  0  0  0  0  0  0  0
  1  2  1  0
  2  3  2  0
  3  4  1  0
  4  5  2  0
  5  6  1  0
  6  7  2  0
  7  8  1  0
  8  9  1  0
  9 10  2  0
 10 11  1  0
 11 12  2  0
 12 13  1  0
 13 14  1  0
 13 15  2  0
  8 16  2  0
 16 17  1  0
 17 18  1  0
 18 19  1  0
 19 20  1  0
 20 21  1  0
  7  2  1  0
 15  9  1  0
 21 18  1  0
 17  6  1  0
M  END
>  <Compound_ID>  (165) 
CHEMBL355330

>  <Active>  (165) 
1

>  <Smiles>  (165) 
Nc1ncnc2c1c(-c1cccc(O)c1)cn2C1CCC1

>  <canonical_smi>  (165) 
Nc1ncnc2c1c(-c1cccc(O)c1)cn2C1CCC1

>  <Set>  (165) 
G2 active

>  <Set_type>  (165) 
Test

>  <MW>  (165) 
280.33

>  <HBD>  (165) 
2

>  <HBA>  (165) 
4

>  <NRB>  (165) 
2

>  <NR>  (165) 
4

>  <NAR>  (165) 
3

>  <PSA>  (165) 
76.96

>  <Standard Type>  (165) 
nan

>  <Standard Relation>  (165) 
nan

>  <Standard Units>  (165) 
nan

>  <Standard Value>  (165) 
nan

>  <Assay ChEMBL ID>  (165) 
nan

>  <Assay Description>  (165) 
nan

>  <BAO Label>  (165) 
nan

$$$$

     RDKit          2D

 33 36  0  0  0  0  0  0  0  0999 V2000
    3.7500   -3.8971    0.0000 C   0  0  0  0  0  0  0  0  0  0  0  0
    3.0000   -5.1962    0.0000 C   0  0  0  0  0  0  0  0  0  0  0  0
    3.7500   -6.4952    0.0000 C   0  0  0  0  0  0  0  0  0  0  0  0
    3.0000   -7.7942    0.0000 C   0  0  0  0  0  0  0  0  0  0  0  0
    1.5000   -7.7942    0.0000 C   0  0  0  0  0  0  0  0  0  0  0  0
    0.7500   -9.0933    0.0000 N   0  0  0  0  0  0  0  0  0  0  0  0
   -0.7500   -9.0933    0.0000 C   0  0  0  0  0  0  0  0  0  0  0  0
   -1.5000   -7.7942    0.0000 O   0  0  0  0  0  0  0  0  0  0  0  0
   -1.5000  -10.3923    0.0000 C   0  0  0  0  0  0  0  0  0  0  0  0
   -3.0000  -10.3923    0.0000 C   0  0  0  0  0  0  0  0  0  0  0  0
   -3.7500  -11.6913    0.0000 C   0  0  0  0  0  0  0  0  0  0  0  0
   -3.0000  -12.9904    0.0000 C   0  0  0  0  0  0  0  0  0  0  0  0
   -1.5000  -12.9904    0.0000 C   0  0  0  0  0  0  0  0  0  0  0  0
   -0.7500  -14.2894    0.0000 C   0  0  0  0  0  0  0  0  0  0  0  0
    0.0000  -15.5885    0.0000 F   0  0  0  0  0  0  0  0  0  0  0  0
   -2.0490  -15.0394    0.0000 F   0  0  0  0  0  0  0  0  0  0  0  0
    0.5490  -13.5394    0.0000 F   0  0  0  0  0  0  0  0  0  0  0  0
   -0.7500  -11.6913    0.0000 C   0  0  0  0  0  0  0  0  0  0  0  0
    0.7500   -6.4952    0.0000 C   0  0  0  0  0  0  0  0  0  0  0  0
    1.5000   -5.1962    0.0000 C   0  0  0  0  0  0  0  0  0  0  0  0
    0.7500   -3.8971    0.0000 N   0  0  0  0  0  0  0  0  0  0  0  0
    1.5000   -2.5981    0.0000 C   0  0  0  0  0  0  0  0  0  0  0  0
    0.7500   -1.2990    0.0000 C   0  0  0  0  0  0  0  0  0  0  0  0
    1.5000    0.0000    0.0000 C   0  0  0  0  0  0  0  0  0  0  0  0
    0.7500    1.2990    0.0000 N   0  0  0  0  0  0  0  0  0  0  0  0
   -0.7500    1.2990    0.0000 C   0  0  0  0  0  0  0  0  0  0  0  0
   -1.5000    2.5981    0.0000 N   0  0  0  0  0  0  0  0  0  0  0  0
   -1.5000    0.0000    0.0000 N   0  0  0  0  0  0  0  0  0  0  0  0
   -0.7500   -1.2990    0.0000 C   0  0  0  0  0  0  0  0  0  0  0  0
   -1.5000   -2.5981    0.0000 N   0  0  0  0  0  0  0  0  0  0  0  0
   -3.0000   -2.5981    0.0000 C   0  0  0  0  0  0  0  0  0  0  0  0
   -0.7500   -3.8971    0.0000 C   0  0  0  0  0  0  0  0  0  0  0  0
   -1.5000   -5.1962    0.0000 O   0  0  0  0  0  0  0  0  0  0  0  0
  1  2  1  0
  2  3  2  0
  3  4  1  0
  4  5  2  0
  5  6  1  0
  6  7  1  0
  7  8  2  0
  7  9  1  0
  9 10  2  0
 10 11  1  0
 11 12  2  0
 12 13  1  0
 13 14  1  0
 14 15  1  0
 14 16  1  0
 14 17  1  0
 13 18  2  0
  5 19  1  0
 19 20  2  0
 20 21  1  0
 21 22  1  0
 22 23  1  0
 23 24  2  0
 24 25  1  0
 25 26  2  0
 26 27  1  0
 26 28  1  0
 28 29  2  0
 29 30  1  0
 30 31  1  0
 30 32  1  0
 32 33  2  0
 20  2  1  0
 32 21  1  0
 18  9  1  0
 29 23  1  0
M  END
>  <Compound_ID>  (166) 
CHEMBL459850

>  <Active>  (166) 
1

>  <Smiles>  (166) 
Cc1ccc(NC(=O)c2cccc(C(F)(F)F)c2)cc1N1Cc2cnc(N)nc2N(C)C1=O

>  <canonical_smi>  (166) 
Cc1ccc(NC(=O)c2cccc(C(F)(F)F)c2)cc1N1Cc2cnc(N)nc2N(C)C1=O

>  <Set>  (166) 
G2 active

>  <Set_type>  (166) 
Test

>  <MW>  (166) 
456.43

>  <HBD>  (166) 
2

>  <HBA>  (166) 
5

>  <NRB>  (166) 
3

>  <NR>  (166) 
4

>  <NAR>  (166) 
3

>  <PSA>  (166) 
104.45

>  <Standard Type>  (166) 
nan

>  <Standard Relation>  (166) 
nan

>  <Standard Units>  (166) 
nan

>  <Standard Value>  (166) 
nan

>  <Assay ChEMBL ID>  (166) 
nan

>  <Assay Description>  (166) 
nan

>  <BAO Label>  (166) 
nan

$$$$

     RDKit          2D

 37 41  0  0  0  0  0  0  0  0999 V2000
    0.3177    5.1814    0.0000 C   0  0  0  0  0  0  0  0  0  0  0  0
    1.7849    5.4933    0.0000 C   0  0  0  0  0  0  0  0  0  0  0  0
    2.2484    6.9199    0.0000 C   0  0  0  0  0  0  0  0  0  0  0  0
    3.7156    7.2317    0.0000 C   0  0  0  0  0  0  0  0  0  0  0  0
    4.7193    6.1170    0.0000 C   0  0  0  0  0  0  0  0  0  0  0  0
    4.2558    4.6904    0.0000 C   0  0  0  0  0  0  0  0  0  0  0  0
    5.2595    3.5757    0.0000 C   0  0  0  0  0  0  0  0  0  0  0  0
    2.7886    4.3786    0.0000 C   0  0  0  0  0  0  0  0  0  0  0  0
    2.3250    2.9520    0.0000 C   0  0  0  0  0  0  0  0  0  0  0  0
    0.8578    2.6401    0.0000 C   0  0  0  0  0  0  0  0  0  0  0  0
    0.3943    1.2135    0.0000 N   0  0  0  0  0  0  0  0  0  0  0  0
    1.2760    0.0000    0.0000 C   0  0  0  0  0  0  0  0  0  0  0  0
    0.3943   -1.2135    0.0000 N   0  0  0  0  0  0  0  0  0  0  0  0
   -1.0323   -0.7500    0.0000 C   0  0  0  0  0  0  0  0  0  0  0  0
   -2.3313   -1.5000    0.0000 C   0  0  0  0  0  0  0  0  0  0  0  0
   -2.3313   -3.0000    0.0000 N   0  0  0  0  0  0  0  0  0  0  0  0
   -3.6304   -3.7500    0.0000 C   0  0  0  0  0  0  0  0  0  0  0  0
   -4.9294   -3.0000    0.0000 C   0  0  0  0  0  0  0  0  0  0  0  0
   -6.2284   -3.7500    0.0000 C   0  0  0  0  0  0  0  0  0  0  0  0
   -6.2284   -5.2500    0.0000 C   0  0  0  0  0  0  0  0  0  0  0  0
   -7.5275   -6.0000    0.0000 P   0  0  0  0  0  0  0  0  0  0  0  0
   -6.7775   -7.2990    0.0000 C   0  0  0  0  0  0  0  0  0  0  0  0
   -8.2775   -4.7010    0.0000 C   0  0  0  0  0  0  0  0  0  0  0  0
   -8.8265   -6.7500    0.0000 O   0  0  0  0  0  0  0  0  0  0  0  0
   -4.9294   -6.0000    0.0000 C   0  0  0  0  0  0  0  0  0  0  0  0
   -3.6304   -5.2500    0.0000 C   0  0  0  0  0  0  0  0  0  0  0  0
   -3.6304   -0.7500    0.0000 N   0  0  0  0  0  0  0  0  0  0  0  0
   -3.6304    0.7500    0.0000 C   0  0  0  0  0  0  0  0  0  0  0  0
   -4.9294    1.5000    0.0000 N   0  0  0  0  0  0  0  0  0  0  0  0
   -4.9294    3.0000    0.0000 C   0  0  0  0  0  0  0  0  0  0  0  0
   -6.2284    3.7500    0.0000 C   0  0  0  0  0  0  0  0  0  0  0  0
   -7.5275    3.0000    0.0000 N   0  0  0  0  0  0  0  0  0  0  0  0
   -8.8265    3.7500    0.0000 C   0  0  0  0  0  0  0  0  0  0  0  0
   -7.5275    1.5000    0.0000 C   0  0  0  0  0  0  0  0  0  0  0  0
   -6.2284    0.7500    0.0000 C   0  0  0  0  0  0  0  0  0  0  0  0
   -2.3313    1.5000    0.0000 N   0  0  0  0  0  0  0  0  0  0  0  0
   -1.0323    0.7500    0.0000 C   0  0  0  0  0  0  0  0  0  0  0  0
  1  2  1  0
  2  3  2  0
  3  4  1  0
  4  5  2  0
  5  6  1  0
  6  7  1  0
  6  8  2  0
  8  9  1  0
  9 10  2  0
 10 11  1  0
 11 12  1  0
 12 13  2  0
 13 14  1  0
 14 15  2  0
 15 16  1  0
 16 17  1  0
 17 18  2  0
 18 19  1  0
 19 20  2  0
 20 21  1  0
 21 22  1  0
 21 23  1  0
 21 24  2  0
 20 25  1  0
 25 26  2  0
 15 27  1  0
 27 28  2  0
 28 29  1  0
 29 30  1  0
 30 31  1  0
 31 32  1  0
 32 33  1  0
 32 34  1  0
 34 35  1  0
 28 36  1  0
 36 37  2  0
  8  2  1  0
 37 11  1  0
 37 14  1  0
 26 17  1  0
 35 29  1  0
M  END
>  <Compound_ID>  (167) 
CHEMBL509941

>  <Active>  (167) 
1

>  <Smiles>  (167) 
Cc1cccc(C)c1/C=C/n1cnc2c(Nc3ccc(P(C)(C)=O)cc3)nc(N3CCN(C)CC3)nc21

>  <canonical_smi>  (167) 
Cc1cccc(C)c1/C=C/n1cnc2c(Nc3ccc(P(C)(C)=O)cc3)nc(N3CCN(C)CC3)nc21

>  <Set>  (167) 
G2 active

>  <Set_type>  (167) 
Test

>  <MW>  (167) 
515.6

>  <HBD>  (167) 
1

>  <HBA>  (167) 
7

>  <NRB>  (167) 
6

>  <NR>  (167) 
5

>  <NAR>  (167) 
4

>  <PSA>  (167) 
79.18

>  <Standard Type>  (167) 
nan

>  <Standard Relation>  (167) 
nan

>  <Standard Units>  (167) 
nan

>  <Standard Value>  (167) 
nan

>  <Assay ChEMBL ID>  (167) 
nan

>  <Assay Description>  (167) 
nan

>  <BAO Label>  (167) 
nan

$$$$

     RDKit          2D

 40 44  0  0  0  0  0  0  0  0999 V2000
    5.2500   -3.8971    0.0000 C   0  0  0  0  0  0  0  0  0  0  0  0
    4.5000   -5.1962    0.0000 C   0  0  0  0  0  0  0  0  0  0  0  0
    5.2500   -6.4952    0.0000 C   0  0  0  0  0  0  0  0  0  0  0  0
    4.5000   -7.7942    0.0000 C   0  0  0  0  0  0  0  0  0  0  0  0
    3.0000   -7.7942    0.0000 C   0  0  0  0  0  0  0  0  0  0  0  0
    2.2500   -9.0933    0.0000 C   0  0  0  0  0  0  0  0  0  0  0  0
    3.0000  -10.3923    0.0000 O   0  0  0  0  0  0  0  0  0  0  0  0
    0.7500   -9.0933    0.0000 N   0  0  0  0  0  0  0  0  0  0  0  0
    0.0000  -10.3923    0.0000 C   0  0  0  0  0  0  0  0  0  0  0  0
   -1.5000  -10.3923    0.0000 C   0  0  0  0  0  0  0  0  0  0  0  0
   -2.2500  -11.6913    0.0000 C   0  0  0  0  0  0  0  0  0  0  0  0
   -1.5000  -12.9904    0.0000 C   0  0  0  0  0  0  0  0  0  0  0  0
   -2.2500  -14.2894    0.0000 C   0  0  0  0  0  0  0  0  0  0  0  0
   -3.7500  -14.2894    0.0000 N   0  0  0  0  0  0  0  0  0  0  0  0
   -4.5000  -12.9904    0.0000 C   0  0  0  0  0  0  0  0  0  0  0  0
   -6.0000  -12.9904    0.0000 C   0  0  0  0  0  0  0  0  0  0  0  0
   -6.7500  -14.2894    0.0000 N   0  0  0  0  0  0  0  0  0  0  0  0
   -8.2500  -14.2894    0.0000 C   0  0  0  0  0  0  0  0  0  0  0  0
   -6.0000  -15.5885    0.0000 C   0  0  0  0  0  0  0  0  0  0  0  0
   -4.5000  -15.5885    0.0000 C   0  0  0  0  0  0  0  0  0  0  0  0
   -0.0000  -12.9904    0.0000 C   0  0  0  0  0  0  0  0  0  0  0  0
    0.7500  -14.2894    0.0000 C   0  0  0  0  0  0  0  0  0  0  0  0
    1.5000  -15.5885    0.0000 F   0  0  0  0  0  0  0  0  0  0  0  0
    2.0490  -13.5394    0.0000 F   0  0  0  0  0  0  0  0  0  0  0  0
   -0.5490  -15.0394    0.0000 F   0  0  0  0  0  0  0  0  0  0  0  0
    0.7500  -11.6913    0.0000 C   0  0  0  0  0  0  0  0  0  0  0  0
    2.2500   -6.4952    0.0000 C   0  0  0  0  0  0  0  0  0  0  0  0
    3.0000   -5.1962    0.0000 C   0  0  0  0  0  0  0  0  0  0  0  0
    2.2500   -3.8971    0.0000 C   0  0  0  0  0  0  0  0  0  0  0  0
    1.5000   -2.5981    0.0000 C   0  0  0  0  0  0  0  0  0  0  0  0
    0.7500   -1.2990    0.0000 C   0  0  0  0  0  0  0  0  0  0  0  0
    1.5000    0.0000    0.0000 C   0  0  0  0  0  0  0  0  0  0  0  0
    0.7500    1.2990    0.0000 N   0  0  0  0  0  0  0  0  0  0  0  0
   -0.7500    1.2990    0.0000 C   0  0  0  0  0  0  0  0  0  0  0  0
   -1.7537    2.4138    0.0000 N   0  0  0  0  0  0  0  0  0  0  0  0
   -3.1240    1.8037    0.0000 C   0  0  0  0  0  0  0  0  0  0  0  0
   -4.4231    2.5537    0.0000 O   0  0  0  0  0  0  0  0  0  0  0  0
   -2.9672    0.3119    0.0000 N   0  0  0  0  0  0  0  0  0  0  0  0
   -1.5000    0.0000    0.0000 C   0  0  0  0  0  0  0  0  0  0  0  0
   -0.7500   -1.2990    0.0000 C   0  0  0  0  0  0  0  0  0  0  0  0
  1  2  1  0
  2  3  2  0
  3  4  1  0
  4  5  2  0
  5  6  1  0
  6  7  2  0
  6  8  1  0
  8  9  1  0
  9 10  2  0
 10 11  1  0
 11 12  2  0
 12 13  1  0
 13 14  1  0
 14 15  1  0
 15 16  1  0
 16 17  1  0
 17 18  1  0
 17 19  1  0
 19 20  1  0
 12 21  1  0
 21 22  1  0
 22 23  1  0
 22 24  1  0
 22 25  1  0
 21 26  2  0
  5 27  1  0
 27 28  2  0
 28 29  1  0
 29 30  3  0
 30 31  1  0
 31 32  2  0
 32 33  1  0
 33 34  2  0
 34 35  1  0
 35 36  1  0
 36 37  2  0
 36 38  1  0
 38 39  1  0
 39 40  2  0
 28  2  1  0
 40 31  1  0
 26  9  1  0
 39 34  1  0
 20 14  1  0
M  END
>  <Compound_ID>  (168) 
CHEMBL1171658

>  <Active>  (168) 
1

>  <Smiles>  (168) 
Cc1ccc(C(=O)Nc2ccc(CN3CCN(C)CC3)c(C(F)(F)F)c2)cc1C#Cc1cnc2[nH]c(=O)[nH]c2c1

>  <canonical_smi>  (168) 
Cc1ccc(C(=O)Nc2ccc(CN3CCN(C)CC3)c(C(F)(F)F)c2)cc1C#Cc1cnc2[nH]c(=O)[nH]c2c1

>  <Set>  (168) 
G2 active

>  <Set_type>  (168) 
Test

>  <MW>  (168) 
548.57

>  <HBD>  (168) 
3

>  <HBA>  (168) 
5

>  <NRB>  (168) 
4

>  <NR>  (168) 
5

>  <NAR>  (168) 
4

>  <PSA>  (168) 
97.12

>  <Standard Type>  (168) 
nan

>  <Standard Relation>  (168) 
nan

>  <Standard Units>  (168) 
nan

>  <Standard Value>  (168) 
nan

>  <Assay ChEMBL ID>  (168) 
nan

>  <Assay Description>  (168) 
nan

>  <BAO Label>  (168) 
nan

$$$$

     RDKit          2D

 39 43  0  0  0  0  0  0  0  0999 V2000
   -4.6904   -6.5871    0.0000 C   0  0  0  0  0  0  0  0  0  0  0  0
   -5.8051   -5.5834    0.0000 C   0  0  0  0  0  0  0  0  0  0  0  0
   -7.2317   -6.0469    0.0000 C   0  0  0  0  0  0  0  0  0  0  0  0
   -8.3464   -5.0433    0.0000 C   0  0  0  0  0  0  0  0  0  0  0  0
   -8.0346   -3.5760    0.0000 C   0  0  0  0  0  0  0  0  0  0  0  0
   -9.1493   -2.5723    0.0000 N   0  0  0  0  0  0  0  0  0  0  0  0
   -8.8374   -1.1051    0.0000 C   0  0  0  0  0  0  0  0  0  0  0  0
   -7.4108   -0.6416    0.0000 O   0  0  0  0  0  0  0  0  0  0  0  0
   -9.9521   -0.1014    0.0000 C   0  0  0  0  0  0  0  0  0  0  0  0
   -9.6403    1.3658    0.0000 C   0  0  0  0  0  0  0  0  0  0  0  0
  -10.7550    2.3695    0.0000 C   0  0  0  0  0  0  0  0  0  0  0  0
  -12.1816    1.9060    0.0000 C   0  0  0  0  0  0  0  0  0  0  0  0
  -13.2963    2.9097    0.0000 C   0  0  0  0  0  0  0  0  0  0  0  0
  -12.9844    4.3769    0.0000 N   0  0  0  0  0  0  0  0  0  0  0  0
  -11.5578    4.8404    0.0000 C   0  0  0  0  0  0  0  0  0  0  0  0
  -11.2460    6.3076    0.0000 C   0  0  0  0  0  0  0  0  0  0  0  0
  -12.3607    7.3113    0.0000 N   0  0  0  0  0  0  0  0  0  0  0  0
  -12.0488    8.7786    0.0000 C   0  0  0  0  0  0  0  0  0  0  0  0
  -13.7873    6.8478    0.0000 C   0  0  0  0  0  0  0  0  0  0  0  0
  -14.0992    5.3806    0.0000 C   0  0  0  0  0  0  0  0  0  0  0  0
  -12.4935    0.4388    0.0000 C   0  0  0  0  0  0  0  0  0  0  0  0
  -13.9200   -0.0248    0.0000 C   0  0  0  0  0  0  0  0  0  0  0  0
  -15.3466   -0.4883    0.0000 F   0  0  0  0  0  0  0  0  0  0  0  0
  -13.4565   -1.4514    0.0000 F   0  0  0  0  0  0  0  0  0  0  0  0
  -14.3836    1.4018    0.0000 F   0  0  0  0  0  0  0  0  0  0  0  0
  -11.3787   -0.5649    0.0000 C   0  0  0  0  0  0  0  0  0  0  0  0
   -6.6080   -3.1125    0.0000 C   0  0  0  0  0  0  0  0  0  0  0  0
   -5.4933   -4.1162    0.0000 C   0  0  0  0  0  0  0  0  0  0  0  0
   -4.0667   -3.6527    0.0000 C   0  0  0  0  0  0  0  0  0  0  0  0
   -2.6401   -3.1891    0.0000 C   0  0  0  0  0  0  0  0  0  0  0  0
   -1.2135   -2.7256    0.0000 C   0  0  0  0  0  0  0  0  0  0  0  0
   -0.0000   -3.6073    0.0000 C   0  0  0  0  0  0  0  0  0  0  0  0
    1.2135   -2.7256    0.0000 N   0  0  0  0  0  0  0  0  0  0  0  0
    0.7500   -1.2990    0.0000 C   0  0  0  0  0  0  0  0  0  0  0  0
    1.5000    0.0000    0.0000 C   0  0  0  0  0  0  0  0  0  0  0  0
    0.7500    1.2990    0.0000 C   0  0  0  0  0  0  0  0  0  0  0  0
   -0.7500    1.2990    0.0000 C   0  0  0  0  0  0  0  0  0  0  0  0
   -1.5000    0.0000    0.0000 C   0  0  0  0  0  0  0  0  0  0  0  0
   -0.7500   -1.2990    0.0000 N   0  0  0  0  0  0  0  0  0  0  0  0
  1  2  1  0
  2  3  2  0
  3  4  1  0
  4  5  2  0
  5  6  1  0
  6  7  1  0
  7  8  2  0
  7  9  1  0
  9 10  2  0
 10 11  1  0
 11 12  2  0
 12 13  1  0
 13 14  1  0
 14 15  1  0
 15 16  1  0
 16 17  1  0
 17 18  1  0
 17 19  1  0
 19 20  1  0
 12 21  1  0
 21 22  1  0
 22 23  1  0
 22 24  1  0
 22 25  1  0
 21 26  2  0
  5 27  1  0
 27 28  2  0
 28 29  1  0
 29 30  3  0
 30 31  1  0
 31 32  2  0
 32 33  1  0
 33 34  2  0
 34 35  1  0
 35 36  2  0
 36 37  1  0
 37 38  2  0
 38 39  1  0
 28  2  1  0
 39 31  1  0
 26  9  1  0
 39 34  1  0
 20 14  1  0
M  END
>  <Compound_ID>  (169) 
CHEMBL1171281

>  <Active>  (169) 
1

>  <Smiles>  (169) 
Cc1ccc(NC(=O)c2ccc(CN3CCN(C)CC3)c(C(F)(F)F)c2)cc1C#Cc1cnc2ccccn12

>  <canonical_smi>  (169) 
Cc1ccc(NC(=O)c2ccc(CN3CCN(C)CC3)c(C(F)(F)F)c2)cc1C#Cc1cnc2ccccn12

>  <Set>  (169) 
G2 active

>  <Set_type>  (169) 
Test

>  <MW>  (169) 
531.58

>  <HBD>  (169) 
1

>  <HBA>  (169) 
4

>  <NRB>  (169) 
4

>  <NR>  (169) 
5

>  <NAR>  (169) 
4

>  <PSA>  (169) 
52.88

>  <Standard Type>  (169) 
nan

>  <Standard Relation>  (169) 
nan

>  <Standard Units>  (169) 
nan

>  <Standard Value>  (169) 
nan

>  <Assay ChEMBL ID>  (169) 
nan

>  <Assay Description>  (169) 
nan

>  <BAO Label>  (169) 
nan

$$$$

     RDKit          2D

 37 43  0  0  0  0  0  0  0  0999 V2000
    2.0046   -7.5702    0.0000 C   0  0  0  0  0  0  0  0  0  0  0  0
    3.3037   -6.8202    0.0000 C   0  0  0  0  0  0  0  0  0  0  0  0
    2.9918   -5.3529    0.0000 S   0  0  0  0  0  0  0  0  0  0  0  0
    1.5000   -5.1962    0.0000 C   0  0  0  0  0  0  0  0  0  0  0  0
    0.7500   -3.8971    0.0000 C   0  0  0  0  0  0  0  0  0  0  0  0
    1.5000   -2.5981    0.0000 N   0  0  0  0  0  0  0  0  0  0  0  0
    0.7500   -1.2990    0.0000 C   0  0  0  0  0  0  0  0  0  0  0  0
    1.5000    0.0000    0.0000 C   0  0  0  0  0  0  0  0  0  0  0  0
    0.7500    1.2990    0.0000 C   0  0  0  0  0  0  0  0  0  0  0  0
   -0.7500    1.2990    0.0000 C   0  0  0  0  0  0  0  0  0  0  0  0
   -1.7537    2.4138    0.0000 N   0  0  0  0  0  0  0  0  0  0  0  0
   -3.1240    1.8037    0.0000 N   0  0  0  0  0  0  0  0  0  0  0  0
   -2.9672    0.3119    0.0000 C   0  0  0  0  0  0  0  0  0  0  0  0
   -4.0819   -0.6918    0.0000 C   0  0  0  0  0  0  0  0  0  0  0  0
   -5.5492   -0.3800    0.0000 N   0  0  0  0  0  0  0  0  0  0  0  0
   -6.2992   -1.6790    0.0000 C   0  0  0  0  0  0  0  0  0  0  0  0
   -7.7664   -1.9909    0.0000 C   0  0  0  0  0  0  0  0  0  0  0  0
   -8.2299   -3.4175    0.0000 C   0  0  0  0  0  0  0  0  0  0  0  0
   -9.6971   -3.7293    0.0000 N   0  0  0  0  0  0  0  0  0  0  0  0
  -10.7008   -2.6146    0.0000 C   0  0  0  0  0  0  0  0  0  0  0  0
  -12.1680   -2.9265    0.0000 C   0  0  0  0  0  0  0  0  0  0  0  0
  -12.6316   -4.3531    0.0000 C   0  0  0  0  0  0  0  0  0  0  0  0
  -14.0988   -4.6649    0.0000 N   0  0  0  0  0  0  0  0  0  0  0  0
  -15.1025   -3.5502    0.0000 C   0  0  0  0  0  0  0  0  0  0  0  0
  -16.5697   -3.8621    0.0000 C   0  0  0  0  0  0  0  0  0  0  0  0
  -17.0332   -5.2887    0.0000 C   0  0  0  0  0  0  0  0  0  0  0  0
  -16.0295   -6.4034    0.0000 C   0  0  0  0  0  0  0  0  0  0  0  0
  -14.5623   -6.0915    0.0000 C   0  0  0  0  0  0  0  0  0  0  0  0
  -11.6279   -5.4678    0.0000 C   0  0  0  0  0  0  0  0  0  0  0  0
  -10.1607   -5.1559    0.0000 C   0  0  0  0  0  0  0  0  0  0  0  0
   -7.2262   -4.5322    0.0000 C   0  0  0  0  0  0  0  0  0  0  0  0
   -5.7590   -4.2203    0.0000 C   0  0  0  0  0  0  0  0  0  0  0  0
   -5.2955   -2.7937    0.0000 C   0  0  0  0  0  0  0  0  0  0  0  0
   -3.9251   -2.1836    0.0000 N   0  0  0  0  0  0  0  0  0  0  0  0
   -1.5000    0.0000    0.0000 C   0  0  0  0  0  0  0  0  0  0  0  0
   -0.7500   -1.2990    0.0000 C   0  0  0  0  0  0  0  0  0  0  0  0
    0.8899   -6.5665    0.0000 N   0  0  0  0  0  0  0  0  0  0  0  0
  1  2  2  0
  2  3  1  0
  3  4  1  0
  4  5  1  0
  5  6  1  0
  6  7  1  0
  7  8  2  0
  8  9  1  0
  9 10  2  0
 10 11  1  0
 11 12  1  0
 12 13  2  0
 13 14  1  0
 14 15  2  0
 15 16  1  0
 16 17  2  0
 17 18  1  0
 18 19  1  0
 19 20  1  0
 20 21  1  0
 21 22  1  0
 22 23  1  0
 23 24  1  0
 24 25  1  0
 25 26  1  0
 26 27  1  0
 27 28  1  0
 22 29  1  0
 29 30  1  0
 18 31  2  0
 31 32  1  0
 32 33  2  0
 33 34  1  0
 13 35  1  0
 35 36  2  0
  4 37  2  0
 37  1  1  0
 36  7  1  0
 35 10  1  0
 34 14  1  0
 33 16  1  0
 30 19  1  0
 28 23  1  0
M  END
>  <Compound_ID>  (170) 
CHEMBL376945

>  <Active>  (170) 
1

>  <Smiles>  (170) 
c1csc(CNc2ccc3[nH]nc(-c4nc5cc(N6CCC(N7CCCCC7)CC6)ccc5[nH]4)c3c2)n1

>  <canonical_smi>  (170) 
c1csc(CNc2ccc3[nH]nc(-c4nc5cc(N6CCC(N7CCCCC7)CC6)ccc5[nH]4)c3c2)n1

>  <Set>  (170) 
G2 active

>  <Set_type>  (170) 
Test

>  <MW>  (170) 
512.69

>  <HBD>  (170) 
3

>  <HBA>  (170) 
6

>  <NRB>  (170) 
6

>  <NR>  (170) 
7

>  <NAR>  (170) 
5

>  <PSA>  (170) 
88.76

>  <Standard Type>  (170) 
nan

>  <Standard Relation>  (170) 
nan

>  <Standard Units>  (170) 
nan

>  <Standard Value>  (170) 
nan

>  <Assay ChEMBL ID>  (170) 
nan

>  <Assay Description>  (170) 
nan

>  <BAO Label>  (170) 
nan

$$$$

     RDKit          2D

 40 44  0  0  0  0  0  0  0  0999 V2000
   -4.6904   -6.5871    0.0000 C   0  0  0  0  0  0  0  0  0  0  0  0
   -5.8051   -5.5834    0.0000 C   0  0  0  0  0  0  0  0  0  0  0  0
   -7.2317   -6.0469    0.0000 C   0  0  0  0  0  0  0  0  0  0  0  0
   -8.3464   -5.0433    0.0000 C   0  0  0  0  0  0  0  0  0  0  0  0
   -8.0346   -3.5760    0.0000 C   0  0  0  0  0  0  0  0  0  0  0  0
   -9.1493   -2.5723    0.0000 C   0  0  0  0  0  0  0  0  0  0  0  0
  -10.5759   -3.0359    0.0000 O   0  0  0  0  0  0  0  0  0  0  0  0
   -8.8374   -1.1051    0.0000 N   0  0  0  0  0  0  0  0  0  0  0  0
   -9.9521   -0.1014    0.0000 C   0  0  0  0  0  0  0  0  0  0  0  0
   -9.6403    1.3658    0.0000 C   0  0  0  0  0  0  0  0  0  0  0  0
  -10.7550    2.3695    0.0000 C   0  0  0  0  0  0  0  0  0  0  0  0
  -12.1816    1.9060    0.0000 C   0  0  0  0  0  0  0  0  0  0  0  0
  -13.2963    2.9097    0.0000 C   0  0  0  0  0  0  0  0  0  0  0  0
  -12.9844    4.3769    0.0000 N   0  0  0  0  0  0  0  0  0  0  0  0
  -14.1710    5.2945    0.0000 C   0  0  0  0  0  0  0  0  0  0  0  0
  -14.1935    6.7943    0.0000 C   0  0  0  0  0  0  0  0  0  0  0  0
  -13.0349    7.7470    0.0000 C   0  0  0  0  0  0  0  0  0  0  0  0
  -11.5676    7.4351    0.0000 N   0  0  0  0  0  0  0  0  0  0  0  0
  -10.6500    8.6217    0.0000 C   0  0  0  0  0  0  0  0  0  0  0  0
  -10.8967    6.0936    0.0000 C   0  0  0  0  0  0  0  0  0  0  0  0
  -11.5272    4.7325    0.0000 C   0  0  0  0  0  0  0  0  0  0  0  0
  -12.4935    0.4388    0.0000 C   0  0  0  0  0  0  0  0  0  0  0  0
  -13.9200   -0.0248    0.0000 C   0  0  0  0  0  0  0  0  0  0  0  0
  -15.3466   -0.4883    0.0000 F   0  0  0  0  0  0  0  0  0  0  0  0
  -13.4565   -1.4514    0.0000 F   0  0  0  0  0  0  0  0  0  0  0  0
  -14.3836    1.4018    0.0000 F   0  0  0  0  0  0  0  0  0  0  0  0
  -11.3787   -0.5649    0.0000 C   0  0  0  0  0  0  0  0  0  0  0  0
   -6.6080   -3.1125    0.0000 C   0  0  0  0  0  0  0  0  0  0  0  0
   -5.4933   -4.1162    0.0000 C   0  0  0  0  0  0  0  0  0  0  0  0
   -4.0667   -3.6527    0.0000 C   0  0  0  0  0  0  0  0  0  0  0  0
   -2.6401   -3.1891    0.0000 C   0  0  0  0  0  0  0  0  0  0  0  0
   -1.2135   -2.7256    0.0000 C   0  0  0  0  0  0  0  0  0  0  0  0
   -0.0000   -3.6073    0.0000 C   0  0  0  0  0  0  0  0  0  0  0  0
    1.2135   -2.7256    0.0000 N   0  0  0  0  0  0  0  0  0  0  0  0
    0.7500   -1.2990    0.0000 C   0  0  0  0  0  0  0  0  0  0  0  0
    1.5000    0.0000    0.0000 C   0  0  0  0  0  0  0  0  0  0  0  0
    0.7500    1.2990    0.0000 C   0  0  0  0  0  0  0  0  0  0  0  0
   -0.7500    1.2990    0.0000 C   0  0  0  0  0  0  0  0  0  0  0  0
   -1.5000    0.0000    0.0000 C   0  0  0  0  0  0  0  0  0  0  0  0
   -0.7500   -1.2990    0.0000 N   0  0  0  0  0  0  0  0  0  0  0  0
  1  2  1  0
  2  3  2  0
  3  4  1  0
  4  5  2  0
  5  6  1  0
  6  7  2  0
  6  8  1  0
  8  9  1  0
  9 10  2  0
 10 11  1  0
 11 12  2  0
 12 13  1  0
 13 14  1  0
 14 15  1  0
 15 16  1  0
 16 17  1  0
 17 18  1  0
 18 19  1  0
 18 20  1  0
 20 21  1  0
 12 22  1  0
 22 23  1  0
 23 24  1  0
 23 25  1  0
 23 26  1  0
 22 27  2  0
  5 28  1  0
 28 29  2  0
 29 30  1  0
 30 31  3  0
 31 32  1  0
 32 33  2  0
 33 34  1  0
 34 35  2  0
 35 36  1  0
 36 37  2  0
 37 38  1  0
 38 39  2  0
 39 40  1  0
 29  2  1  0
 40 32  1  0
 27  9  1  0
 40 35  1  0
 21 14  1  0
M  END
>  <Compound_ID>  (171) 
CHEMBL1169705

>  <Active>  (171) 
1

>  <Smiles>  (171) 
Cc1ccc(C(=O)Nc2ccc(CN3CCCN(C)CC3)c(C(F)(F)F)c2)cc1C#Cc1cnc2ccccn12

>  <canonical_smi>  (171) 
Cc1ccc(C(=O)Nc2ccc(CN3CCCN(C)CC3)c(C(F)(F)F)c2)cc1C#Cc1cnc2ccccn12

>  <Set>  (171) 
G2 active

>  <Set_type>  (171) 
Test

>  <MW>  (171) 
545.61

>  <HBD>  (171) 
1

>  <HBA>  (171) 
4

>  <NRB>  (171) 
4

>  <NR>  (171) 
5

>  <NAR>  (171) 
4

>  <PSA>  (171) 
52.88

>  <Standard Type>  (171) 
nan

>  <Standard Relation>  (171) 
nan

>  <Standard Units>  (171) 
nan

>  <Standard Value>  (171) 
nan

>  <Assay ChEMBL ID>  (171) 
nan

>  <Assay Description>  (171) 
nan

>  <BAO Label>  (171) 
nan

$$$$

     RDKit          2D

 40 44  0  0  0  0  0  0  0  0999 V2000
   -4.6904   -6.5871    0.0000 C   0  0  0  0  0  0  0  0  0  0  0  0
   -5.8051   -5.5834    0.0000 C   0  0  0  0  0  0  0  0  0  0  0  0
   -7.2317   -6.0469    0.0000 C   0  0  0  0  0  0  0  0  0  0  0  0
   -8.3464   -5.0433    0.0000 C   0  0  0  0  0  0  0  0  0  0  0  0
   -8.0346   -3.5760    0.0000 C   0  0  0  0  0  0  0  0  0  0  0  0
   -9.1493   -2.5723    0.0000 C   0  0  0  0  0  0  0  0  0  0  0  0
  -10.5759   -3.0359    0.0000 O   0  0  0  0  0  0  0  0  0  0  0  0
   -8.8374   -1.1051    0.0000 N   0  0  0  0  0  0  0  0  0  0  0  0
   -9.9521   -0.1014    0.0000 C   0  0  0  0  0  0  0  0  0  0  0  0
   -9.6403    1.3658    0.0000 C   0  0  0  0  0  0  0  0  0  0  0  0
  -10.7550    2.3695    0.0000 C   0  0  0  0  0  0  0  0  0  0  0  0
  -12.1816    1.9060    0.0000 C   0  0  0  0  0  0  0  0  0  0  0  0
  -13.2963    2.9097    0.0000 C   0  0  0  0  0  0  0  0  0  0  0  0
  -12.9844    4.3769    0.0000 N   0  0  0  0  0  0  0  0  0  0  0  0
  -13.9881    5.4916    0.0000 C   0  0  0  0  0  0  0  0  0  0  0  0
  -13.2381    6.7906    0.0000 C   0  0  0  0  0  0  0  0  0  0  0  0
  -11.7709    6.4788    0.0000 C   0  0  0  0  0  0  0  0  0  0  0  0
  -10.6562    7.4825    0.0000 N   0  0  0  0  0  0  0  0  0  0  0  0
   -9.2296    7.0190    0.0000 C   0  0  0  0  0  0  0  0  0  0  0  0
  -10.9681    8.9497    0.0000 C   0  0  0  0  0  0  0  0  0  0  0  0
  -11.6141    4.9870    0.0000 C   0  0  0  0  0  0  0  0  0  0  0  0
  -12.4935    0.4388    0.0000 C   0  0  0  0  0  0  0  0  0  0  0  0
  -13.9200   -0.0248    0.0000 C   0  0  0  0  0  0  0  0  0  0  0  0
  -15.3466   -0.4883    0.0000 F   0  0  0  0  0  0  0  0  0  0  0  0
  -13.4565   -1.4514    0.0000 F   0  0  0  0  0  0  0  0  0  0  0  0
  -14.3836    1.4018    0.0000 F   0  0  0  0  0  0  0  0  0  0  0  0
  -11.3787   -0.5649    0.0000 C   0  0  0  0  0  0  0  0  0  0  0  0
   -6.6080   -3.1125    0.0000 C   0  0  0  0  0  0  0  0  0  0  0  0
   -5.4933   -4.1162    0.0000 C   0  0  0  0  0  0  0  0  0  0  0  0
   -4.0667   -3.6527    0.0000 C   0  0  0  0  0  0  0  0  0  0  0  0
   -2.6401   -3.1891    0.0000 C   0  0  0  0  0  0  0  0  0  0  0  0
   -1.2135   -2.7256    0.0000 C   0  0  0  0  0  0  0  0  0  0  0  0
   -0.0000   -3.6073    0.0000 C   0  0  0  0  0  0  0  0  0  0  0  0
    1.2135   -2.7256    0.0000 N   0  0  0  0  0  0  0  0  0  0  0  0
    0.7500   -1.2990    0.0000 C   0  0  0  0  0  0  0  0  0  0  0  0
    1.5000    0.0000    0.0000 C   0  0  0  0  0  0  0  0  0  0  0  0
    0.7500    1.2990    0.0000 C   0  0  0  0  0  0  0  0  0  0  0  0
   -0.7500    1.2990    0.0000 C   0  0  0  0  0  0  0  0  0  0  0  0
   -1.5000    0.0000    0.0000 C   0  0  0  0  0  0  0  0  0  0  0  0
   -0.7500   -1.2990    0.0000 N   0  0  0  0  0  0  0  0  0  0  0  0
  1  2  1  0
  2  3  2  0
  3  4  1  0
  4  5  2  0
  5  6  1  0
  6  7  2  0
  6  8  1  0
  8  9  1  0
  9 10  2  0
 10 11  1  0
 11 12  2  0
 12 13  1  0
 13 14  1  0
 14 15  1  0
 15 16  1  0
 16 17  1  0
 17 18  1  1
 18 19  1  0
 18 20  1  0
 17 21  1  0
 12 22  1  0
 22 23  1  0
 23 24  1  0
 23 25  1  0
 23 26  1  0
 22 27  2  0
  5 28  1  0
 28 29  2  0
 29 30  1  0
 30 31  3  0
 31 32  1  0
 32 33  2  0
 33 34  1  0
 34 35  2  0
 35 36  1  0
 36 37  2  0
 37 38  1  0
 38 39  2  0
 39 40  1  0
 29  2  1  0
 40 32  1  0
 27  9  1  0
 40 35  1  0
 21 14  1  0
M  END
>  <Compound_ID>  (172) 
CHEMBL1171473

>  <Active>  (172) 
1

>  <Smiles>  (172) 
Cc1ccc(C(=O)Nc2ccc(CN3CC[C@@H](N(C)C)C3)c(C(F)(F)F)c2)cc1C#Cc1cnc2ccccn12

>  <canonical_smi>  (172) 
Cc1ccc(C(=O)Nc2ccc(CN3CC[C@@H](N(C)C)C3)c(C(F)(F)F)c2)cc1C#Cc1cnc2ccccn12

>  <Set>  (172) 
G2 active

>  <Set_type>  (172) 
Test

>  <MW>  (172) 
545.61

>  <HBD>  (172) 
1

>  <HBA>  (172) 
4

>  <NRB>  (172) 
5

>  <NR>  (172) 
5

>  <NAR>  (172) 
4

>  <PSA>  (172) 
52.88

>  <Standard Type>  (172) 
nan

>  <Standard Relation>  (172) 
nan

>  <Standard Units>  (172) 
nan

>  <Standard Value>  (172) 
nan

>  <Assay ChEMBL ID>  (172) 
nan

>  <Assay Description>  (172) 
nan

>  <BAO Label>  (172) 
nan

$$$$

     RDKit          2D

 39 43  0  0  0  0  0  0  0  0999 V2000
   -6.9177    4.3013    0.0000 C   0  0  0  0  0  0  0  0  0  0  0  0
   -6.6059    5.7685    0.0000 C   0  0  0  0  0  0  0  0  0  0  0  0
   -7.7206    6.7722    0.0000 C   0  0  0  0  0  0  0  0  0  0  0  0
   -7.4087    8.2394    0.0000 C   0  0  0  0  0  0  0  0  0  0  0  0
   -5.9821    8.7029    0.0000 C   0  0  0  0  0  0  0  0  0  0  0  0
   -5.6703   10.1701    0.0000 C   0  0  0  0  0  0  0  0  0  0  0  0
   -6.7850   11.1738    0.0000 O   0  0  0  0  0  0  0  0  0  0  0  0
   -4.2437   10.6337    0.0000 N   0  0  0  0  0  0  0  0  0  0  0  0
   -3.9318   12.1009    0.0000 C   0  0  0  0  0  0  0  0  0  0  0  0
   -2.5052   12.5644    0.0000 C   0  0  0  0  0  0  0  0  0  0  0  0
   -2.1934   14.0316    0.0000 C   0  0  0  0  0  0  0  0  0  0  0  0
   -3.3081   15.0353    0.0000 C   0  0  0  0  0  0  0  0  0  0  0  0
   -2.9962   16.5026    0.0000 C   0  0  0  0  0  0  0  0  0  0  0  0
   -1.5696   16.9661    0.0000 N   0  0  0  0  0  0  0  0  0  0  0  0
   -0.4549   15.9624    0.0000 C   0  0  0  0  0  0  0  0  0  0  0  0
    0.9717   16.4259    0.0000 C   0  0  0  0  0  0  0  0  0  0  0  0
    1.2835   17.8931    0.0000 N   0  0  0  0  0  0  0  0  0  0  0  0
    2.7101   18.3567    0.0000 C   0  0  0  0  0  0  0  0  0  0  0  0
    0.1688   18.8968    0.0000 C   0  0  0  0  0  0  0  0  0  0  0  0
   -1.2578   18.4333    0.0000 C   0  0  0  0  0  0  0  0  0  0  0  0
   -4.7347   14.5718    0.0000 C   0  0  0  0  0  0  0  0  0  0  0  0
   -5.8494   15.5755    0.0000 C   0  0  0  0  0  0  0  0  0  0  0  0
   -6.9641   16.5792    0.0000 F   0  0  0  0  0  0  0  0  0  0  0  0
   -6.8531   14.4608    0.0000 F   0  0  0  0  0  0  0  0  0  0  0  0
   -4.8457   16.6902    0.0000 F   0  0  0  0  0  0  0  0  0  0  0  0
   -5.0465   13.1046    0.0000 C   0  0  0  0  0  0  0  0  0  0  0  0
   -4.8674    7.6992    0.0000 C   0  0  0  0  0  0  0  0  0  0  0  0
   -5.1793    6.2320    0.0000 C   0  0  0  0  0  0  0  0  0  0  0  0
   -4.0646    5.2283    0.0000 C   0  0  0  0  0  0  0  0  0  0  0  0
   -2.9499    4.2246    0.0000 C   0  0  0  0  0  0  0  0  0  0  0  0
   -1.8351    3.2209    0.0000 C   0  0  0  0  0  0  0  0  0  0  0  0
   -0.4086    3.6844    0.0000 C   0  0  0  0  0  0  0  0  0  0  0  0
    0.7062    2.6807    0.0000 N   0  0  0  0  0  0  0  0  0  0  0  0
    0.3943    1.2135    0.0000 C   0  0  0  0  0  0  0  0  0  0  0  0
    1.2760    0.0000    0.0000 N   0  0  0  0  0  0  0  0  0  0  0  0
    0.3943   -1.2135    0.0000 C   0  0  0  0  0  0  0  0  0  0  0  0
   -1.0323   -0.7500    0.0000 C   0  0  0  0  0  0  0  0  0  0  0  0
   -1.0323    0.7500    0.0000 C   0  0  0  0  0  0  0  0  0  0  0  0
   -2.1470    1.7537    0.0000 C   0  0  0  0  0  0  0  0  0  0  0  0
  1  2  1  0
  2  3  2  0
  3  4  1  0
  4  5  2  0
  5  6  1  0
  6  7  2  0
  6  8  1  0
  8  9  1  0
  9 10  2  0
 10 11  1  0
 11 12  2  0
 12 13  1  0
 13 14  1  0
 14 15  1  0
 15 16  1  0
 16 17  1  0
 17 18  1  0
 17 19  1  0
 19 20  1  0
 12 21  1  0
 21 22  1  0
 22 23  1  0
 22 24  1  0
 22 25  1  0
 21 26  2  0
  5 27  1  0
 27 28  2  0
 28 29  1  0
 29 30  3  0
 30 31  1  0
 31 32  2  0
 32 33  1  0
 33 34  2  0
 34 35  1  0
 35 36  1  0
 36 37  2  0
 37 38  1  0
 38 39  2  0
 28  2  1  0
 39 31  1  0
 26  9  1  0
 38 34  1  0
 20 14  1  0
M  END
>  <Compound_ID>  (173) 
CHEMBL1171479

>  <Active>  (173) 
1

>  <Smiles>  (173) 
Cc1ccc(C(=O)Nc2ccc(CN3CCN(C)CC3)c(C(F)(F)F)c2)cc1C#Cc1cnc2[nH]ccc2c1

>  <canonical_smi>  (173) 
Cc1ccc(C(=O)Nc2ccc(CN3CCN(C)CC3)c(C(F)(F)F)c2)cc1C#Cc1cnc2[nH]ccc2c1

>  <Set>  (173) 
G2 active

>  <Set_type>  (173) 
Test

>  <MW>  (173) 
531.58

>  <HBD>  (173) 
2

>  <HBA>  (173) 
4

>  <NRB>  (173) 
4

>  <NR>  (173) 
5

>  <NAR>  (173) 
4

>  <PSA>  (173) 
64.26

>  <Standard Type>  (173) 
nan

>  <Standard Relation>  (173) 
nan

>  <Standard Units>  (173) 
nan

>  <Standard Value>  (173) 
nan

>  <Assay ChEMBL ID>  (173) 
nan

>  <Assay Description>  (173) 
nan

>  <BAO Label>  (173) 
nan

$$$$

     RDKit          2D

 35 39  0  0  0  0  0  0  0  0999 V2000
   -8.3617   -0.6987    0.0000 C   0  0  0  0  0  0  0  0  0  0  0  0
   -8.0498    0.7685    0.0000 C   0  0  0  0  0  0  0  0  0  0  0  0
   -9.1645    1.7722    0.0000 C   0  0  0  0  0  0  0  0  0  0  0  0
   -8.8527    3.2394    0.0000 C   0  0  0  0  0  0  0  0  0  0  0  0
   -7.4261    3.7029    0.0000 C   0  0  0  0  0  0  0  0  0  0  0  0
   -7.1142    5.1701    0.0000 C   0  0  0  0  0  0  0  0  0  0  0  0
   -8.2289    6.1738    0.0000 O   0  0  0  0  0  0  0  0  0  0  0  0
   -5.6876    5.6337    0.0000 N   0  0  0  0  0  0  0  0  0  0  0  0
   -5.3758    7.1009    0.0000 C   0  0  0  0  0  0  0  0  0  0  0  0
   -3.9492    7.5644    0.0000 C   0  0  0  0  0  0  0  0  0  0  0  0
   -3.6373    9.0316    0.0000 C   0  0  0  0  0  0  0  0  0  0  0  0
   -2.2107    9.4952    0.0000 C   0  0  0  0  0  0  0  0  0  0  0  0
   -0.7841    9.9587    0.0000 F   0  0  0  0  0  0  0  0  0  0  0  0
   -1.7472    8.0686    0.0000 F   0  0  0  0  0  0  0  0  0  0  0  0
   -2.6743   10.9217    0.0000 F   0  0  0  0  0  0  0  0  0  0  0  0
   -4.7520   10.0353    0.0000 C   0  0  0  0  0  0  0  0  0  0  0  0
   -6.1786    9.5718    0.0000 C   0  0  0  0  0  0  0  0  0  0  0  0
   -6.4905    8.1046    0.0000 N   0  0  0  0  0  0  0  0  0  0  0  0
   -6.3114    2.6992    0.0000 C   0  0  0  0  0  0  0  0  0  0  0  0
   -6.6232    1.2320    0.0000 C   0  0  0  0  0  0  0  0  0  0  0  0
   -5.5085    0.2283    0.0000 C   0  0  0  0  0  0  0  0  0  0  0  0
   -4.0819    0.6918    0.0000 C   0  0  0  0  0  0  0  0  0  0  0  0
   -2.9672   -0.3119    0.0000 N   0  0  0  0  0  0  0  0  0  0  0  0
   -3.1240   -1.8037    0.0000 C   0  0  0  0  0  0  0  0  0  0  0  0
   -1.7537   -2.4138    0.0000 N   0  0  0  0  0  0  0  0  0  0  0  0
   -0.7500   -1.2990    0.0000 C   0  0  0  0  0  0  0  0  0  0  0  0
    0.7500   -1.2990    0.0000 C   0  0  0  0  0  0  0  0  0  0  0  0
    1.5000   -2.5981    0.0000 N   0  0  0  0  0  0  0  0  0  0  0  0
    3.0000   -2.5981    0.0000 C   0  0  0  0  0  0  0  0  0  0  0  0
    4.2990   -1.8481    0.0000 C   0  0  0  0  0  0  0  0  0  0  0  0
    4.2990   -3.3481    0.0000 C   0  0  0  0  0  0  0  0  0  0  0  0
    1.5000    0.0000    0.0000 N   0  0  0  0  0  0  0  0  0  0  0  0
    0.7500    1.2990    0.0000 C   0  0  0  0  0  0  0  0  0  0  0  0
   -0.7500    1.2990    0.0000 N   0  0  0  0  0  0  0  0  0  0  0  0
   -1.5000    0.0000    0.0000 C   0  0  0  0  0  0  0  0  0  0  0  0
  1  2  1  0
  2  3  2  0
  3  4  1  0
  4  5  2  0
  5  6  1  0
  6  7  2  0
  6  8  1  0
  8  9  1  0
  9 10  2  0
 10 11  1  0
 11 12  1  0
 12 13  1  0
 12 14  1  0
 12 15  1  0
 11 16  2  0
 16 17  1  0
 17 18  2  0
  5 19  1  0
 19 20  2  0
 20 21  1  0
 21 22  2  0
 22 23  1  0
 23 24  1  0
 24 25  2  0
 25 26  1  0
 26 27  2  0
 27 28  1  0
 28 29  1  0
 29 30  1  0
 30 31  1  0
 27 32  1  0
 32 33  2  0
 33 34  1  0
 34 35  2  0
 20  2  1  0
 35 23  1  0
 18  9  1  0
 35 26  1  0
 31 29  1  0
M  END
>  <Compound_ID>  (174) 
CHEMBL556874

>  <Active>  (174) 
1

>  <Smiles>  (174) 
Cc1ccc(C(=O)Nc2cc(C(F)(F)F)ccn2)cc1/C=C/n1cnc2c(NC3CC3)ncnc21

>  <canonical_smi>  (174) 
Cc1ccc(C(=O)Nc2cc(C(F)(F)F)ccn2)cc1/C=C/n1cnc2c(NC3CC3)ncnc21

>  <Set>  (174) 
G2 active

>  <Set_type>  (174) 
Test

>  <MW>  (174) 
479.47

>  <HBD>  (174) 
2

>  <HBA>  (174) 
6

>  <NRB>  (174) 
6

>  <NR>  (174) 
5

>  <NAR>  (174) 
4

>  <PSA>  (174) 
97.62

>  <Standard Type>  (174) 
nan

>  <Standard Relation>  (174) 
nan

>  <Standard Units>  (174) 
nan

>  <Standard Value>  (174) 
nan

>  <Assay ChEMBL ID>  (174) 
nan

>  <Assay Description>  (174) 
nan

>  <BAO Label>  (174) 
nan

$$$$

     RDKit          2D

 37 43  0  0  0  0  0  0  0  0999 V2000
    2.0046   -7.5702    0.0000 C   0  0  0  0  0  0  0  0  0  0  0  0
    3.3037   -6.8202    0.0000 C   0  0  0  0  0  0  0  0  0  0  0  0
    2.9918   -5.3529    0.0000 O   0  0  0  0  0  0  0  0  0  0  0  0
    1.5000   -5.1962    0.0000 C   0  0  0  0  0  0  0  0  0  0  0  0
    0.7500   -3.8971    0.0000 C   0  0  0  0  0  0  0  0  0  0  0  0
    1.5000   -2.5981    0.0000 N   0  0  0  0  0  0  0  0  0  0  0  0
    0.7500   -1.2990    0.0000 C   0  0  0  0  0  0  0  0  0  0  0  0
    1.5000    0.0000    0.0000 C   0  0  0  0  0  0  0  0  0  0  0  0
    0.7500    1.2990    0.0000 C   0  0  0  0  0  0  0  0  0  0  0  0
   -0.7500    1.2990    0.0000 C   0  0  0  0  0  0  0  0  0  0  0  0
   -1.7537    2.4138    0.0000 N   0  0  0  0  0  0  0  0  0  0  0  0
   -3.1240    1.8037    0.0000 N   0  0  0  0  0  0  0  0  0  0  0  0
   -2.9672    0.3119    0.0000 C   0  0  0  0  0  0  0  0  0  0  0  0
   -4.0819   -0.6918    0.0000 C   0  0  0  0  0  0  0  0  0  0  0  0
   -5.5492   -0.3800    0.0000 N   0  0  0  0  0  0  0  0  0  0  0  0
   -6.2992   -1.6790    0.0000 C   0  0  0  0  0  0  0  0  0  0  0  0
   -7.7664   -1.9909    0.0000 C   0  0  0  0  0  0  0  0  0  0  0  0
   -8.2299   -3.4175    0.0000 C   0  0  0  0  0  0  0  0  0  0  0  0
   -9.6971   -3.7293    0.0000 N   0  0  0  0  0  0  0  0  0  0  0  0
  -10.7008   -2.6146    0.0000 C   0  0  0  0  0  0  0  0  0  0  0  0
  -12.1680   -2.9265    0.0000 C   0  0  0  0  0  0  0  0  0  0  0  0
  -12.6316   -4.3531    0.0000 C   0  0  0  0  0  0  0  0  0  0  0  0
  -14.0988   -4.6649    0.0000 N   0  0  0  0  0  0  0  0  0  0  0  0
  -15.1025   -3.5502    0.0000 C   0  0  0  0  0  0  0  0  0  0  0  0
  -16.5697   -3.8621    0.0000 C   0  0  0  0  0  0  0  0  0  0  0  0
  -17.0332   -5.2887    0.0000 C   0  0  0  0  0  0  0  0  0  0  0  0
  -16.0295   -6.4034    0.0000 C   0  0  0  0  0  0  0  0  0  0  0  0
  -14.5623   -6.0915    0.0000 C   0  0  0  0  0  0  0  0  0  0  0  0
  -11.6279   -5.4678    0.0000 C   0  0  0  0  0  0  0  0  0  0  0  0
  -10.1607   -5.1559    0.0000 C   0  0  0  0  0  0  0  0  0  0  0  0
   -7.2262   -4.5322    0.0000 C   0  0  0  0  0  0  0  0  0  0  0  0
   -5.7590   -4.2203    0.0000 C   0  0  0  0  0  0  0  0  0  0  0  0
   -5.2955   -2.7937    0.0000 C   0  0  0  0  0  0  0  0  0  0  0  0
   -3.9251   -2.1836    0.0000 N   0  0  0  0  0  0  0  0  0  0  0  0
   -1.5000    0.0000    0.0000 C   0  0  0  0  0  0  0  0  0  0  0  0
   -0.7500   -1.2990    0.0000 C   0  0  0  0  0  0  0  0  0  0  0  0
    0.8899   -6.5665    0.0000 C   0  0  0  0  0  0  0  0  0  0  0  0
  1  2  2  0
  2  3  1  0
  3  4  1  0
  4  5  1  0
  5  6  1  0
  6  7  1  0
  7  8  2  0
  8  9  1  0
  9 10  2  0
 10 11  1  0
 11 12  1  0
 12 13  2  0
 13 14  1  0
 14 15  2  0
 15 16  1  0
 16 17  2  0
 17 18  1  0
 18 19  1  0
 19 20  1  0
 20 21  1  0
 21 22  1  0
 22 23  1  0
 23 24  1  0
 24 25  1  0
 25 26  1  0
 26 27  1  0
 27 28  1  0
 22 29  1  0
 29 30  1  0
 18 31  2  0
 31 32  1  0
 32 33  2  0
 33 34  1  0
 13 35  1  0
 35 36  2  0
  4 37  2  0
 37  1  1  0
 36  7  1  0
 35 10  1  0
 34 14  1  0
 33 16  1  0
 30 19  1  0
 28 23  1  0
M  END
>  <Compound_ID>  (175) 
CHEMBL211154

>  <Active>  (175) 
1

>  <Smiles>  (175) 
c1coc(CNc2ccc3[nH]nc(-c4nc5cc(N6CCC(N7CCCCC7)CC6)ccc5[nH]4)c3c2)c1

>  <canonical_smi>  (175) 
c1coc(CNc2ccc3[nH]nc(-c4nc5cc(N6CCC(N7CCCCC7)CC6)ccc5[nH]4)c3c2)c1

>  <Set>  (175) 
G2 active

>  <Set_type>  (175) 
Test

>  <MW>  (175) 
495.63

>  <HBD>  (175) 
3

>  <HBA>  (175) 
6

>  <NRB>  (175) 
6

>  <NR>  (175) 
7

>  <NAR>  (175) 
5

>  <PSA>  (175) 
89.01

>  <Standard Type>  (175) 
nan

>  <Standard Relation>  (175) 
nan

>  <Standard Units>  (175) 
nan

>  <Standard Value>  (175) 
nan

>  <Assay ChEMBL ID>  (175) 
nan

>  <Assay Description>  (175) 
nan

>  <BAO Label>  (175) 
nan

$$$$

     RDKit          2D

 43 47  0  0  0  0  0  0  0  0999 V2000
    3.0000    0.0000    0.0000 C   0  0  0  0  0  0  0  0  0  0  0  0
    1.5000    0.0000    0.0000 C   0  0  0  0  0  0  0  0  0  0  0  0
    0.7500   -1.2990    0.0000 C   0  0  0  0  0  0  0  0  0  0  0  0
   -0.7500   -1.2990    0.0000 C   0  0  0  0  0  0  0  0  0  0  0  0
   -1.5000    0.0000    0.0000 C   0  0  0  0  0  0  0  0  0  0  0  0
   -3.0000    0.0000    0.0000 N   0  0  0  0  0  0  0  0  0  0  0  0
   -3.7500    1.2990    0.0000 C   0  0  0  0  0  0  0  0  0  0  0  0
   -3.0000    2.5981    0.0000 O   0  0  0  0  0  0  0  0  0  0  0  0
   -5.2500    1.2990    0.0000 C   0  0  0  0  0  0  0  0  0  0  0  0
   -6.0000    2.5981    0.0000 C   0  0  0  0  0  0  0  0  0  0  0  0
   -7.5000    2.5981    0.0000 C   0  0  0  0  0  0  0  0  0  0  0  0
   -8.2500    1.2990    0.0000 C   0  0  0  0  0  0  0  0  0  0  0  0
   -9.7500    1.2990    0.0000 C   0  0  0  0  0  0  0  0  0  0  0  0
  -10.5000    2.5981    0.0000 N   0  0  0  0  0  0  0  0  0  0  0  0
  -11.9918    2.7549    0.0000 C   0  0  0  0  0  0  0  0  0  0  0  0
  -12.3037    4.2221    0.0000 C   0  0  0  0  0  0  0  0  0  0  0  0
  -11.0046    4.9721    0.0000 C   0  0  0  0  0  0  0  0  0  0  0  0
  -10.8478    6.4639    0.0000 C   0  0  0  0  0  0  0  0  0  0  0  0
   -9.4775    7.0740    0.0000 N   0  0  0  0  0  0  0  0  0  0  0  0
   -9.3207    8.5658    0.0000 C   0  0  0  0  0  0  0  0  0  0  0  0
   -8.2640    6.1923    0.0000 C   0  0  0  0  0  0  0  0  0  0  0  0
   -9.8899    3.9684    0.0000 C   0  0  0  0  0  0  0  0  0  0  0  0
   -7.5000    0.0000    0.0000 C   0  0  0  0  0  0  0  0  0  0  0  0
   -8.2500   -1.2990    0.0000 C   0  0  0  0  0  0  0  0  0  0  0  0
   -9.0000   -2.5981    0.0000 F   0  0  0  0  0  0  0  0  0  0  0  0
   -6.9510   -2.0490    0.0000 F   0  0  0  0  0  0  0  0  0  0  0  0
   -9.5490   -0.5490    0.0000 F   0  0  0  0  0  0  0  0  0  0  0  0
   -6.0000    0.0000    0.0000 C   0  0  0  0  0  0  0  0  0  0  0  0
   -0.7500    1.2990    0.0000 C   0  0  0  0  0  0  0  0  0  0  0  0
    0.7500    1.2990    0.0000 C   0  0  0  0  0  0  0  0  0  0  0  0
    1.5000    2.5981    0.0000 N   0  0  0  0  0  0  0  0  0  0  0  0
    0.7500    3.8971    0.0000 C   0  0  0  0  0  0  0  0  0  0  0  0
    1.5000    5.1962    0.0000 N   0  0  0  0  0  0  0  0  0  0  0  0
    0.7500    6.4952    0.0000 C   0  0  0  0  0  0  0  0  0  0  0  0
   -0.7500    6.4952    0.0000 C   0  0  0  0  0  0  0  0  0  0  0  0
   -1.5000    5.1962    0.0000 C   0  0  0  0  0  0  0  0  0  0  0  0
   -3.0000    5.1962    0.0000 C   0  0  0  0  0  0  0  0  0  0  0  0
   -3.7500    6.4952    0.0000 C   0  0  0  0  0  0  0  0  0  0  0  0
   -5.2500    6.4952    0.0000 N   0  0  0  0  0  0  0  0  0  0  0  0
   -6.0000    5.1962    0.0000 C   0  0  0  0  0  0  0  0  0  0  0  0
   -5.2500    3.8971    0.0000 N   0  0  0  0  0  0  0  0  0  0  0  0
   -3.7500    3.8971    0.0000 C   0  0  0  0  0  0  0  0  0  0  0  0
   -0.7500    3.8971    0.0000 N   0  0  0  0  0  0  0  0  0  0  0  0
  1  2  1  0
  2  3  2  0
  3  4  1  0
  4  5  2  0
  5  6  1  0
  6  7  1  0
  7  8  1  0
  7  9  1  0
  9 10  2  0
 10 11  1  0
 11 12  2  0
 12 13  1  0
 13 14  1  0
 14 15  1  0
 15 16  1  0
 16 17  1  0
 17 18  1  6
 18 19  1  0
 19 20  1  0
 19 21  1  0
 17 22  1  0
 12 23  1  0
 23 24  1  0
 24 25  1  0
 24 26  1  0
 24 27  1  0
 23 28  2  0
  5 29  1  0
 29 30  2  0
 30 31  1  0
 31 32  1  0
 32 33  2  0
 33 34  1  0
 34 35  2  0
 35 36  1  0
 36 37  1  0
 37 38  2  0
 38 39  1  0
 39 40  2  0
 40 41  1  0
 41 42  2  0
 36 43  2  0
 30  2  1  0
 43 32  1  0
 28  9  1  0
 42 37  1  0
 22 14  1  0
M  END
>  <Compound_ID>  (176) 
CHEMBL538337

>  <Active>  (176) 
1

>  <Smiles>  (176) 
Cc1ccc(NC(O)c2ccc(CN3CC[C@H](CN(C)C)C3)c(C(F)(F)F)c2)cc1Nc1nccc(-c2cncnc2)n1

>  <canonical_smi>  (176) 
Cc1ccc(NC(O)c2ccc(CN3CC[C@H](CN(C)C)C3)c(C(F)(F)F)c2)cc1Nc1nccc(-c2cncnc2)n1

>  <Set>  (176) 
G2 active

>  <Set_type>  (176) 
Test

>  <MW>  (176) 
592.67

>  <HBD>  (176) 
3

>  <HBA>  (176) 
9

>  <NRB>  (176) 
10

>  <NR>  (176) 
5

>  <NAR>  (176) 
4

>  <PSA>  (176) 
102.33

>  <Standard Type>  (176) 
nan

>  <Standard Relation>  (176) 
nan

>  <Standard Units>  (176) 
nan

>  <Standard Value>  (176) 
nan

>  <Assay ChEMBL ID>  (176) 
nan

>  <Assay Description>  (176) 
nan

>  <BAO Label>  (176) 
nan

$$$$

     RDKit          2D

 35 39  0  0  0  0  0  0  0  0999 V2000
    3.7500   -1.2990    0.0000 C   0  0  0  0  0  0  0  0  0  0  0  0
    3.0000    0.0000    0.0000 O   0  0  0  0  0  0  0  0  0  0  0  0
    1.5000    0.0000    0.0000 C   0  0  0  0  0  0  0  0  0  0  0  0
    0.7500   -1.2990    0.0000 C   0  0  0  0  0  0  0  0  0  0  0  0
   -0.7500   -1.2990    0.0000 C   0  0  0  0  0  0  0  0  0  0  0  0
   -1.5000   -2.5981    0.0000 C   0  0  0  0  0  0  0  0  0  0  0  0
   -0.7500   -3.8971    0.0000 N   0  0  0  0  0  0  0  0  0  0  0  0
   -1.5000   -5.1962    0.0000 C   0  0  0  0  0  0  0  0  0  0  0  0
   -2.7990   -5.9462    0.0000 C   0  0  0  0  0  0  0  0  0  0  0  0
   -1.5000   -6.6962    0.0000 C   0  0  0  0  0  0  0  0  0  0  0  0
   -0.7500   -7.9952    0.0000 C   0  0  0  0  0  0  0  0  0  0  0  0
    0.7500   -7.9952    0.0000 C   0  0  0  0  0  0  0  0  0  0  0  0
    1.5000   -9.2942    0.0000 C   0  0  0  0  0  0  0  0  0  0  0  0
    0.7500  -10.5933    0.0000 C   0  0  0  0  0  0  0  0  0  0  0  0
   -0.7500  -10.5933    0.0000 C   0  0  0  0  0  0  0  0  0  0  0  0
   -1.5000   -9.2942    0.0000 C   0  0  0  0  0  0  0  0  0  0  0  0
   -3.0000   -2.5981    0.0000 C   0  0  0  0  0  0  0  0  0  0  0  0
   -3.7500   -3.8971    0.0000 C   0  0  0  0  0  0  0  0  0  0  0  0
   -4.5000   -5.1962    0.0000 N   0  0  0  0  0  0  0  0  0  0  0  0
   -3.7500   -1.2990    0.0000 C   0  0  0  0  0  0  0  0  0  0  0  0
   -3.0000    0.0000    0.0000 N   0  0  0  0  0  0  0  0  0  0  0  0
   -1.5000    0.0000    0.0000 C   0  0  0  0  0  0  0  0  0  0  0  0
   -0.7500    1.2990    0.0000 C   0  0  0  0  0  0  0  0  0  0  0  0
    0.7500    1.2990    0.0000 C   0  0  0  0  0  0  0  0  0  0  0  0
    1.5000    2.5981    0.0000 O   0  0  0  0  0  0  0  0  0  0  0  0
    0.7500    3.8971    0.0000 C   0  0  0  0  0  0  0  0  0  0  0  0
    1.5000    5.1962    0.0000 C   0  0  0  0  0  0  0  0  0  0  0  0
    0.7500    6.4952    0.0000 C   0  0  0  0  0  0  0  0  0  0  0  0
    1.5000    7.7942    0.0000 N   0  0  0  0  0  0  0  0  0  0  0  0
    3.0000    7.7942    0.0000 C   0  0  0  0  0  0  0  0  0  0  0  0
    3.7500    9.0933    0.0000 C   0  0  0  0  0  0  0  0  0  0  0  0
    3.0000   10.3923    0.0000 N   0  0  0  0  0  0  0  0  0  0  0  0
    3.7500   11.6913    0.0000 C   0  0  0  0  0  0  0  0  0  0  0  0
    1.5000   10.3923    0.0000 C   0  0  0  0  0  0  0  0  0  0  0  0
    0.7500    9.0933    0.0000 C   0  0  0  0  0  0  0  0  0  0  0  0
  1  2  1  0
  2  3  1  0
  3  4  2  0
  4  5  1  0
  5  6  2  0
  6  7  1  0
  8  7  1  1
  8  9  1  0
  9 10  1  0
 10 11  1  6
 11 12  2  0
 12 13  1  0
 13 14  2  0
 14 15  1  0
 15 16  2  0
  6 17  1  0
 17 18  1  0
 18 19  3  0
 17 20  2  0
 20 21  1  0
 21 22  2  0
 22 23  1  0
 23 24  2  0
 24 25  1  0
 25 26  1  0
 26 27  1  0
 27 28  1  0
 28 29  1  0
 29 30  1  0
 30 31  1  0
 31 32  1  0
 32 33  1  0
 32 34  1  0
 34 35  1  0
 24  3  1  0
 35 29  1  0
 22  5  1  0
 10  8  1  0
 16 11  1  0
M  END
>  <Compound_ID>  (177) 
CHEMBL248393

>  <Active>  (177) 
1

>  <Smiles>  (177) 
COc1cc2c(N[C@@H]3C[C@H]3c3ccccc3)c(C#N)cnc2cc1OCCCN1CCN(C)CC1

>  <canonical_smi>  (177) 
COc1cc2c(N[C@@H]3C[C@H]3c3ccccc3)c(C#N)cnc2cc1OCCCN1CCN(C)CC1

>  <Set>  (177) 
G2 active

>  <Set_type>  (177) 
Test

>  <MW>  (177) 
471.61

>  <HBD>  (177) 
1

>  <HBA>  (177) 
7

>  <NRB>  (177) 
9

>  <NR>  (177) 
5

>  <NAR>  (177) 
3

>  <PSA>  (177) 
73.65

>  <Standard Type>  (177) 
nan

>  <Standard Relation>  (177) 
nan

>  <Standard Units>  (177) 
nan

>  <Standard Value>  (177) 
nan

>  <Assay ChEMBL ID>  (177) 
nan

>  <Assay Description>  (177) 
nan

>  <BAO Label>  (177) 
nan

$$$$

     RDKit          2D

 27 30  0  0  0  0  0  0  0  0999 V2000
   -8.5441    0.6723    0.0000 C   0  0  0  0  0  0  0  0  0  0  0  0
   -8.2322   -0.7949    0.0000 O   0  0  0  0  0  0  0  0  0  0  0  0
   -6.8056   -1.2584    0.0000 C   0  0  0  0  0  0  0  0  0  0  0  0
   -5.6909   -0.2547    0.0000 O   0  0  0  0  0  0  0  0  0  0  0  0
   -6.4937   -2.7256    0.0000 C   0  0  0  0  0  0  0  0  0  0  0  0
   -5.0672   -3.1891    0.0000 N   0  0  0  0  0  0  0  0  0  0  0  0
   -4.6036   -4.6157    0.0000 C   0  0  0  0  0  0  0  0  0  0  0  0
   -3.1036   -4.6157    0.0000 C   0  0  0  0  0  0  0  0  0  0  0  0
   -2.6401   -3.1891    0.0000 C   0  0  0  0  0  0  0  0  0  0  0  0
   -1.2135   -2.7256    0.0000 N   0  0  0  0  0  0  0  0  0  0  0  0
   -0.0000   -3.6073    0.0000 C   0  0  0  0  0  0  0  0  0  0  0  0
    1.2135   -2.7256    0.0000 C   0  0  0  0  0  0  0  0  0  0  0  0
    2.6401   -3.1891    0.0000 C   0  0  0  0  0  0  0  0  0  0  0  0
    2.9520   -4.6564    0.0000 C   0  0  0  0  0  0  0  0  0  0  0  0
    4.3786   -5.1199    0.0000 C   0  0  0  0  0  0  0  0  0  0  0  0
    5.4933   -4.1162    0.0000 C   0  0  0  0  0  0  0  0  0  0  0  0
    5.1814   -2.6490    0.0000 C   0  0  0  0  0  0  0  0  0  0  0  0
    6.2961   -1.6453    0.0000 O   0  0  0  0  0  0  0  0  0  0  0  0
    3.7548   -2.1855    0.0000 C   0  0  0  0  0  0  0  0  0  0  0  0
    0.7500   -1.2990    0.0000 C   0  0  0  0  0  0  0  0  0  0  0  0
    1.5000    0.0000    0.0000 C   0  0  0  0  0  0  0  0  0  0  0  0
    3.0000    0.0000    0.0000 N   0  0  0  0  0  0  0  0  0  0  0  0
    0.7500    1.2990    0.0000 N   0  0  0  0  0  0  0  0  0  0  0  0
   -0.7500    1.2990    0.0000 C   0  0  0  0  0  0  0  0  0  0  0  0
   -1.5000    0.0000    0.0000 N   0  0  0  0  0  0  0  0  0  0  0  0
   -0.7500   -1.2990    0.0000 C   0  0  0  0  0  0  0  0  0  0  0  0
   -3.8536   -2.3075    0.0000 C   0  0  0  0  0  0  0  0  0  0  0  0
  1  2  1  0
  2  3  1  0
  3  4  2  0
  3  5  1  0
  5  6  1  0
  6  7  1  0
  7  8  1  0
  8  9  1  0
  9 10  1  0
 10 11  1  0
 11 12  2  0
 12 13  1  0
 13 14  2  0
 14 15  1  0
 15 16  2  0
 16 17  1  0
 17 18  1  0
 17 19  2  0
 12 20  1  0
 20 21  2  0
 21 22  1  0
 21 23  1  0
 23 24  2  0
 24 25  1  0
 25 26  2  0
  9 27  1  0
 27  6  1  0
 26 10  1  0
 19 13  1  0
 26 20  1  0
M  END
>  <Compound_ID>  (178) 
CHEMBL355019

>  <Active>  (178) 
1

>  <Smiles>  (178) 
COC(=O)CN1CCC(n2cc(-c3cccc(O)c3)c3c(N)ncnc32)C1

>  <canonical_smi>  (178) 
COC(=O)CN1CCC(n2cc(-c3cccc(O)c3)c3c(N)ncnc32)C1

>  <Set>  (178) 
G2 active

>  <Set_type>  (178) 
Test

>  <MW>  (178) 
367.41

>  <HBD>  (178) 
2

>  <HBA>  (178) 
7

>  <NRB>  (178) 
4

>  <NR>  (178) 
4

>  <NAR>  (178) 
3

>  <PSA>  (178) 
106.5

>  <Standard Type>  (178) 
nan

>  <Standard Relation>  (178) 
nan

>  <Standard Units>  (178) 
nan

>  <Standard Value>  (178) 
nan

>  <Assay ChEMBL ID>  (178) 
nan

>  <Assay Description>  (178) 
nan

>  <BAO Label>  (178) 
nan

$$$$

     RDKit          2D

 38 42  0  0  0  0  0  0  0  0999 V2000
   -4.6904   -6.5871    0.0000 C   0  0  0  0  0  0  0  0  0  0  0  0
   -5.8051   -5.5834    0.0000 C   0  0  0  0  0  0  0  0  0  0  0  0
   -7.2317   -6.0469    0.0000 C   0  0  0  0  0  0  0  0  0  0  0  0
   -8.3464   -5.0433    0.0000 C   0  0  0  0  0  0  0  0  0  0  0  0
   -8.0346   -3.5760    0.0000 C   0  0  0  0  0  0  0  0  0  0  0  0
   -9.1493   -2.5723    0.0000 C   0  0  0  0  0  0  0  0  0  0  0  0
  -10.5759   -3.0359    0.0000 O   0  0  0  0  0  0  0  0  0  0  0  0
   -8.8374   -1.1051    0.0000 N   0  0  0  0  0  0  0  0  0  0  0  0
   -9.9521   -0.1014    0.0000 C   0  0  0  0  0  0  0  0  0  0  0  0
   -9.6403    1.3658    0.0000 C   0  0  0  0  0  0  0  0  0  0  0  0
  -10.7550    2.3695    0.0000 C   0  0  0  0  0  0  0  0  0  0  0  0
  -12.1816    1.9060    0.0000 C   0  0  0  0  0  0  0  0  0  0  0  0
  -13.2963    2.9097    0.0000 C   0  0  0  0  0  0  0  0  0  0  0  0
  -12.9844    4.3769    0.0000 N   0  0  0  0  0  0  0  0  0  0  0  0
  -11.5578    4.8404    0.0000 C   0  0  0  0  0  0  0  0  0  0  0  0
  -11.2460    6.3076    0.0000 C   0  0  0  0  0  0  0  0  0  0  0  0
  -12.3607    7.3113    0.0000 O   0  0  0  0  0  0  0  0  0  0  0  0
  -13.7873    6.8478    0.0000 C   0  0  0  0  0  0  0  0  0  0  0  0
  -14.0992    5.3806    0.0000 C   0  0  0  0  0  0  0  0  0  0  0  0
  -12.4935    0.4388    0.0000 C   0  0  0  0  0  0  0  0  0  0  0  0
  -13.9200   -0.0248    0.0000 C   0  0  0  0  0  0  0  0  0  0  0  0
  -15.3466   -0.4883    0.0000 F   0  0  0  0  0  0  0  0  0  0  0  0
  -13.4565   -1.4514    0.0000 F   0  0  0  0  0  0  0  0  0  0  0  0
  -14.3836    1.4018    0.0000 F   0  0  0  0  0  0  0  0  0  0  0  0
  -11.3787   -0.5649    0.0000 C   0  0  0  0  0  0  0  0  0  0  0  0
   -6.6080   -3.1125    0.0000 C   0  0  0  0  0  0  0  0  0  0  0  0
   -5.4933   -4.1162    0.0000 C   0  0  0  0  0  0  0  0  0  0  0  0
   -4.0667   -3.6527    0.0000 C   0  0  0  0  0  0  0  0  0  0  0  0
   -2.6401   -3.1891    0.0000 C   0  0  0  0  0  0  0  0  0  0  0  0
   -1.2135   -2.7256    0.0000 C   0  0  0  0  0  0  0  0  0  0  0  0
   -0.0000   -3.6073    0.0000 C   0  0  0  0  0  0  0  0  0  0  0  0
    1.2135   -2.7256    0.0000 N   0  0  0  0  0  0  0  0  0  0  0  0
    0.7500   -1.2990    0.0000 C   0  0  0  0  0  0  0  0  0  0  0  0
    1.5000    0.0000    0.0000 C   0  0  0  0  0  0  0  0  0  0  0  0
    0.7500    1.2990    0.0000 C   0  0  0  0  0  0  0  0  0  0  0  0
   -0.7500    1.2990    0.0000 C   0  0  0  0  0  0  0  0  0  0  0  0
   -1.5000    0.0000    0.0000 C   0  0  0  0  0  0  0  0  0  0  0  0
   -0.7500   -1.2990    0.0000 N   0  0  0  0  0  0  0  0  0  0  0  0
  1  2  1  0
  2  3  2  0
  3  4  1  0
  4  5  2  0
  5  6  1  0
  6  7  2  0
  6  8  1  0
  8  9  1  0
  9 10  2  0
 10 11  1  0
 11 12  2  0
 12 13  1  0
 13 14  1  0
 14 15  1  0
 15 16  1  0
 16 17  1  0
 17 18  1  0
 18 19  1  0
 12 20  1  0
 20 21  1  0
 21 22  1  0
 21 23  1  0
 21 24  1  0
 20 25  2  0
  5 26  1  0
 26 27  2  0
 27 28  1  0
 28 29  3  0
 29 30  1  0
 30 31  2  0
 31 32  1  0
 32 33  2  0
 33 34  1  0
 34 35  2  0
 35 36  1  0
 36 37  2  0
 37 38  1  0
 27  2  1  0
 38 30  1  0
 25  9  1  0
 38 33  1  0
 19 14  1  0
M  END
>  <Compound_ID>  (179) 
CHEMBL1171283

>  <Active>  (179) 
1

>  <Smiles>  (179) 
Cc1ccc(C(=O)Nc2ccc(CN3CCOCC3)c(C(F)(F)F)c2)cc1C#Cc1cnc2ccccn12

>  <canonical_smi>  (179) 
Cc1ccc(C(=O)Nc2ccc(CN3CCOCC3)c(C(F)(F)F)c2)cc1C#Cc1cnc2ccccn12

>  <Set>  (179) 
G2 active

>  <Set_type>  (179) 
Test

>  <MW>  (179) 
518.54

>  <HBD>  (179) 
1

>  <HBA>  (179) 
4

>  <NRB>  (179) 
4

>  <NR>  (179) 
5

>  <NAR>  (179) 
4

>  <PSA>  (179) 
58.87

>  <Standard Type>  (179) 
nan

>  <Standard Relation>  (179) 
nan

>  <Standard Units>  (179) 
nan

>  <Standard Value>  (179) 
nan

>  <Assay ChEMBL ID>  (179) 
nan

>  <Assay Description>  (179) 
nan

>  <BAO Label>  (179) 
nan

$$$$

     RDKit          2D

 40 44  0  0  0  0  0  0  0  0999 V2000
   -1.5000   -7.7942    0.0000 C   0  0  0  0  0  0  0  0  0  0  0  0
   -0.7500   -6.4952    0.0000 C   0  0  0  0  0  0  0  0  0  0  0  0
   -1.5000   -5.1962    0.0000 C   0  0  0  0  0  0  0  0  0  0  0  0
   -0.7500   -3.8971    0.0000 C   0  0  0  0  0  0  0  0  0  0  0  0
    0.7500   -3.8971    0.0000 C   0  0  0  0  0  0  0  0  0  0  0  0
    1.5000   -2.5981    0.0000 N   0  0  0  0  0  0  0  0  0  0  0  0
    0.7500   -1.2990    0.0000 C   0  0  0  0  0  0  0  0  0  0  0  0
    1.5000    0.0000    0.0000 N   0  0  0  0  0  0  0  0  0  0  0  0
    0.7500    1.2990    0.0000 C   0  0  0  0  0  0  0  0  0  0  0  0
   -0.7500    1.2990    0.0000 C   0  0  0  0  0  0  0  0  0  0  0  0
   -1.5000    0.0000    0.0000 C   0  0  0  0  0  0  0  0  0  0  0  0
   -0.7500   -1.2990    0.0000 N   0  0  0  0  0  0  0  0  0  0  0  0
   -3.0000    0.0000    0.0000 N   0  0  0  0  0  0  0  0  0  0  0  0
   -3.7500   -1.2990    0.0000 C   0  0  0  0  0  0  0  0  0  0  0  0
   -3.7500    1.2990    0.0000 C   0  0  0  0  0  0  0  0  0  0  0  0
   -5.2500    1.2990    0.0000 O   0  0  0  0  0  0  0  0  0  0  0  0
   -3.0000    2.5981    0.0000 N   0  0  0  0  0  0  0  0  0  0  0  0
   -3.7500    3.8971    0.0000 C   0  0  0  0  0  0  0  0  0  0  0  0
   -3.0000    5.1962    0.0000 C   0  0  0  0  0  0  0  0  0  0  0  0
   -3.7500    6.4952    0.0000 C   0  0  0  0  0  0  0  0  0  0  0  0
   -3.0000    7.7942    0.0000 N   0  0  0  0  0  0  0  0  0  0  0  0
   -1.5000    7.7942    0.0000 C   0  0  0  0  0  0  0  0  0  0  0  0
   -0.7500    6.4952    0.0000 O   0  0  0  0  0  0  0  0  0  0  0  0
   -0.7500    9.0933    0.0000 C   0  0  0  0  0  0  0  0  0  0  0  0
    0.7500    9.0933    0.0000 C   0  0  0  0  0  0  0  0  0  0  0  0
    1.5000   10.3923    0.0000 C   0  0  0  0  0  0  0  0  0  0  0  0
    0.7500   11.6913    0.0000 C   0  0  0  0  0  0  0  0  0  0  0  0
   -0.7500   11.6913    0.0000 C   0  0  0  0  0  0  0  0  0  0  0  0
   -1.5000   12.9904    0.0000 C   0  0  0  0  0  0  0  0  0  0  0  0
   -2.2500   14.2894    0.0000 F   0  0  0  0  0  0  0  0  0  0  0  0
   -0.2010   13.7404    0.0000 F   0  0  0  0  0  0  0  0  0  0  0  0
   -2.7990   12.2404    0.0000 F   0  0  0  0  0  0  0  0  0  0  0  0
   -1.5000   10.3923    0.0000 C   0  0  0  0  0  0  0  0  0  0  0  0
   -5.2500    6.4952    0.0000 C   0  0  0  0  0  0  0  0  0  0  0  0
   -6.0000    5.1962    0.0000 C   0  0  0  0  0  0  0  0  0  0  0  0
   -5.2500    3.8971    0.0000 C   0  0  0  0  0  0  0  0  0  0  0  0
   -6.0000    2.5981    0.0000 C   0  0  0  0  0  0  0  0  0  0  0  0
   -1.5000    2.5981    0.0000 C   0  0  0  0  0  0  0  0  0  0  0  0
    1.5000   -5.1962    0.0000 C   0  0  0  0  0  0  0  0  0  0  0  0
    0.7500   -6.4952    0.0000 N   0  0  0  0  0  0  0  0  0  0  0  0
  1  2  1  0
  2  3  2  0
  3  4  1  0
  4  5  2  0
  5  6  1  0
  6  7  1  0
  7  8  2  0
  8  9  1  0
  9 10  2  0
 10 11  1  0
 11 12  2  0
 11 13  1  0
 13 14  1  0
 13 15  1  0
 15 16  2  0
 15 17  1  0
 17 18  1  0
 18 19  2  0
 19 20  1  0
 20 21  1  0
 21 22  1  0
 22 23  2  0
 22 24  1  0
 24 25  2  0
 25 26  1  0
 26 27  2  0
 27 28  1  0
 28 29  1  0
 29 30  1  0
 29 31  1  0
 29 32  1  0
 28 33  2  0
 20 34  2  0
 34 35  1  0
 35 36  2  0
 36 37  1  0
 17 38  1  0
  5 39  1  0
 39 40  2  0
 40  2  1  0
 12  7  1  0
 36 18  1  0
 38 10  1  0
 33 24  1  0
M  END
>  <Compound_ID>  (180) 
CHEMBL1214141

>  <Active>  (180) 
1

>  <Smiles>  (180) 
Cc1ccc(Nc2ncc3c(n2)N(C)C(=O)N(c2cc(NC(=O)c4cccc(C(F)(F)F)c4)ccc2C)C3)cn1

>  <canonical_smi>  (180) 
Cc1ccc(Nc2ncc3c(n2)N(C)C(=O)N(c2cc(NC(=O)c4cccc(C(F)(F)F)c4)ccc2C)C3)cn1

>  <Set>  (180) 
G2 active

>  <Set_type>  (180) 
Test

>  <MW>  (180) 
547.54

>  <HBD>  (180) 
2

>  <HBA>  (180) 
6

>  <NRB>  (180) 
5

>  <NR>  (180) 
5

>  <NAR>  (180) 
4

>  <PSA>  (180) 
103.35

>  <Standard Type>  (180) 
nan

>  <Standard Relation>  (180) 
nan

>  <Standard Units>  (180) 
nan

>  <Standard Value>  (180) 
nan

>  <Assay ChEMBL ID>  (180) 
nan

>  <Assay Description>  (180) 
nan

>  <BAO Label>  (180) 
nan

$$$$

     RDKit          2D

 28 31  0  0  0  0  0  0  0  0999 V2000
   -0.7500   -3.8971    0.0000 O   0  0  0  0  0  0  0  0  0  0  0  0
    0.7500   -3.8971    0.0000 C   0  0  0  0  0  0  0  0  0  0  0  0
    1.5000   -2.5981    0.0000 N   0  0  0  0  0  0  0  0  0  0  0  0
    0.7500   -1.2990    0.0000 C   0  0  0  0  0  0  0  0  0  0  0  0
    1.5000    0.0000    0.0000 C   0  0  0  0  0  0  0  0  0  0  0  0
    0.7500    1.2990    0.0000 C   0  0  0  0  0  0  0  0  0  0  0  0
   -0.7500    1.2990    0.0000 C   0  0  0  0  0  0  0  0  0  0  0  0
   -1.5000    0.0000    0.0000 C   0  0  0  0  0  0  0  0  0  0  0  0
   -3.0000    0.0000    0.0000 N   0  0  0  0  0  0  0  0  0  0  0  0
   -3.7500    1.2990    0.0000 C   0  0  0  0  0  0  0  0  0  0  0  0
   -3.0000    2.5981    0.0000 N   0  0  0  0  0  0  0  0  0  0  0  0
   -3.7500    3.8971    0.0000 C   0  0  0  0  0  0  0  0  0  0  0  0
   -5.2500    3.8971    0.0000 C   0  0  0  0  0  0  0  0  0  0  0  0
   -6.0000    2.5981    0.0000 C   0  0  0  0  0  0  0  0  0  0  0  0
   -7.5000    2.5981    0.0000 C   0  0  0  0  0  0  0  0  0  0  0  0
   -8.2500    3.8971    0.0000 C   0  0  0  0  0  0  0  0  0  0  0  0
   -9.7500    3.8971    0.0000 C   0  0  0  0  0  0  0  0  0  0  0  0
  -10.5000    2.5981    0.0000 C   0  0  0  0  0  0  0  0  0  0  0  0
   -9.7500    1.2990    0.0000 N   0  0  0  0  0  0  0  0  0  0  0  0
   -8.2500    1.2990    0.0000 C   0  0  0  0  0  0  0  0  0  0  0  0
   -5.2500    1.2990    0.0000 N   0  0  0  0  0  0  0  0  0  0  0  0
   -0.7500   -1.2990    0.0000 C   0  0  0  0  0  0  0  0  0  0  0  0
    1.5000   -5.1962    0.0000 C   0  0  0  0  0  0  0  0  0  0  0  0
    0.7500   -6.4952    0.0000 C   0  0  0  0  0  0  0  0  0  0  0  0
    1.5000   -7.7942    0.0000 C   0  0  0  0  0  0  0  0  0  0  0  0
    3.0000   -7.7942    0.0000 C   0  0  0  0  0  0  0  0  0  0  0  0
    3.7500   -6.4952    0.0000 N   0  0  0  0  0  0  0  0  0  0  0  0
    3.0000   -5.1962    0.0000 C   0  0  0  0  0  0  0  0  0  0  0  0
  1  2  2  0
  2  3  1  0
  3  4  1  0
  4  5  2  0
  5  6  1  0
  6  7  2  0
  7  8  1  0
  8  9  1  0
  9 10  1  0
 10 11  2  0
 11 12  1  0
 12 13  2  0
 13 14  1  0
 14 15  1  0
 15 16  2  0
 16 17  1  0
 17 18  2  0
 18 19  1  0
 19 20  2  0
 14 21  2  0
  8 22  2  0
  2 23  1  0
 23 24  2  0
 24 25  1  0
 25 26  2  0
 26 27  1  0
 27 28  2  0
 22  4  1  0
 28 23  1  0
 21 10  1  0
 20 15  1  0
M  END
>  <Compound_ID>  (181) 
CHEMBL418270

>  <Active>  (181) 
1

>  <Smiles>  (181) 
O=C(Nc1cccc(Nc2nccc(-c3cccnc3)n2)c1)c1cccnc1

>  <canonical_smi>  (181) 
O=C(Nc1cccc(Nc2nccc(-c3cccnc3)n2)c1)c1cccnc1

>  <Set>  (181) 
G2 active

>  <Set_type>  (181) 
Test

>  <MW>  (181) 
368.4

>  <HBD>  (181) 
2

>  <HBA>  (181) 
6

>  <NRB>  (181) 
5

>  <NR>  (181) 
4

>  <NAR>  (181) 
4

>  <PSA>  (181) 
92.69

>  <Standard Type>  (181) 
nan

>  <Standard Relation>  (181) 
nan

>  <Standard Units>  (181) 
nan

>  <Standard Value>  (181) 
nan

>  <Assay ChEMBL ID>  (181) 
nan

>  <Assay Description>  (181) 
nan

>  <BAO Label>  (181) 
nan

$$$$

     RDKit          2D

 34 38  0  0  0  0  0  0  0  0999 V2000
    3.7500   -1.2990    0.0000 C   0  0  0  0  0  0  0  0  0  0  0  0
    3.0000    0.0000    0.0000 O   0  0  0  0  0  0  0  0  0  0  0  0
    1.5000    0.0000    0.0000 C   0  0  0  0  0  0  0  0  0  0  0  0
    0.7500   -1.2990    0.0000 C   0  0  0  0  0  0  0  0  0  0  0  0
   -0.7500   -1.2990    0.0000 C   0  0  0  0  0  0  0  0  0  0  0  0
   -1.5000   -2.5981    0.0000 C   0  0  0  0  0  0  0  0  0  0  0  0
   -0.7500   -3.8971    0.0000 N   0  0  0  0  0  0  0  0  0  0  0  0
   -1.5000   -5.1962    0.0000 C   0  0  0  0  0  0  0  0  0  0  0  0
   -2.7990   -5.9462    0.0000 C   0  0  0  0  0  0  0  0  0  0  0  0
   -1.5000   -6.6962    0.0000 C   0  0  0  0  0  0  0  0  0  0  0  0
   -0.7500   -7.9952    0.0000 C   0  0  0  0  0  0  0  0  0  0  0  0
    0.7500   -7.9952    0.0000 C   0  0  0  0  0  0  0  0  0  0  0  0
    1.5000   -9.2942    0.0000 C   0  0  0  0  0  0  0  0  0  0  0  0
    0.7500  -10.5933    0.0000 C   0  0  0  0  0  0  0  0  0  0  0  0
   -0.7500  -10.5933    0.0000 C   0  0  0  0  0  0  0  0  0  0  0  0
   -1.5000   -9.2942    0.0000 C   0  0  0  0  0  0  0  0  0  0  0  0
   -3.0000   -2.5981    0.0000 C   0  0  0  0  0  0  0  0  0  0  0  0
   -3.7500   -3.8971    0.0000 C   0  0  0  0  0  0  0  0  0  0  0  0
   -4.5000   -5.1962    0.0000 N   0  0  0  0  0  0  0  0  0  0  0  0
   -3.7500   -1.2990    0.0000 C   0  0  0  0  0  0  0  0  0  0  0  0
   -3.0000    0.0000    0.0000 N   0  0  0  0  0  0  0  0  0  0  0  0
   -1.5000    0.0000    0.0000 C   0  0  0  0  0  0  0  0  0  0  0  0
   -0.7500    1.2990    0.0000 C   0  0  0  0  0  0  0  0  0  0  0  0
    0.7500    1.2990    0.0000 C   0  0  0  0  0  0  0  0  0  0  0  0
    1.5000    2.5981    0.0000 O   0  0  0  0  0  0  0  0  0  0  0  0
    0.7500    3.8971    0.0000 C   0  0  0  0  0  0  0  0  0  0  0  0
    1.5000    5.1962    0.0000 C   0  0  0  0  0  0  0  0  0  0  0  0
    0.7500    6.4952    0.0000 C   0  0  0  0  0  0  0  0  0  0  0  0
    1.5000    7.7942    0.0000 C   0  0  0  0  0  0  0  0  0  0  0  0
    3.0000    7.7942    0.0000 C   0  0  0  0  0  0  0  0  0  0  0  0
    3.7500    9.0933    0.0000 C   0  0  0  0  0  0  0  0  0  0  0  0
    3.0000   10.3923    0.0000 C   0  0  0  0  0  0  0  0  0  0  0  0
    1.5000   10.3923    0.0000 N   0  0  0  0  0  0  0  0  0  0  0  0
    0.7500    9.0933    0.0000 C   0  0  0  0  0  0  0  0  0  0  0  0
  1  2  1  0
  2  3  1  0
  3  4  2  0
  4  5  1  0
  5  6  2  0
  6  7  1  0
  8  7  1  1
  8  9  1  0
  9 10  1  0
 10 11  1  6
 11 12  2  0
 12 13  1  0
 13 14  2  0
 14 15  1  0
 15 16  2  0
  6 17  1  0
 17 18  1  0
 18 19  3  0
 17 20  2  0
 20 21  1  0
 21 22  2  0
 22 23  1  0
 23 24  2  0
 24 25  1  0
 25 26  1  0
 26 27  1  0
 27 28  1  0
 28 29  1  0
 29 30  2  0
 30 31  1  0
 31 32  2  0
 32 33  1  0
 33 34  2  0
 24  3  1  0
 34 29  1  0
 22  5  1  0
 10  8  1  0
 16 11  1  0
M  END
>  <Compound_ID>  (182) 
CHEMBL248391

>  <Active>  (182) 
1

>  <Smiles>  (182) 
COc1cc2c(N[C@@H]3C[C@H]3c3ccccc3)c(C#N)cnc2cc1OCCCc1cccnc1

>  <canonical_smi>  (182) 
COc1cc2c(N[C@@H]3C[C@H]3c3ccccc3)c(C#N)cnc2cc1OCCCc1cccnc1

>  <Set>  (182) 
G2 active

>  <Set_type>  (182) 
Test

>  <MW>  (182) 
450.54

>  <HBD>  (182) 
1

>  <HBA>  (182) 
6

>  <NRB>  (182) 
9

>  <NR>  (182) 
5

>  <NAR>  (182) 
4

>  <PSA>  (182) 
80.06

>  <Standard Type>  (182) 
nan

>  <Standard Relation>  (182) 
nan

>  <Standard Units>  (182) 
nan

>  <Standard Value>  (182) 
nan

>  <Assay ChEMBL ID>  (182) 
nan

>  <Assay Description>  (182) 
nan

>  <BAO Label>  (182) 
nan

$$$$
