
     RDKit          2D

 24 25  0  0  0  0  0  0  0  0999 V2000
    7.4668   -1.0051    0.0000 C   0  0  0  0  0  0  0  0  0  0  0  0
    7.3100    0.4867    0.0000 C   0  0  0  0  0  0  0  0  0  0  0  0
    5.9397    1.0968    0.0000 N   0  0  0  0  0  0  0  0  0  0  0  0
    5.7829    2.5885    0.0000 C   0  0  0  0  0  0  0  0  0  0  0  0
    6.9964    3.4702    0.0000 O   0  0  0  0  0  0  0  0  0  0  0  0
    4.4126    3.1986    0.0000 N   0  0  0  0  0  0  0  0  0  0  0  0
    4.2558    4.6904    0.0000 C   0  0  0  0  0  0  0  0  0  0  0  0
    2.7886    4.3786    0.0000 C   0  0  0  0  0  0  0  0  0  0  0  0
    1.7849    5.4933    0.0000 O   0  0  0  0  0  0  0  0  0  0  0  0
    2.3250    2.9520    0.0000 N   0  0  0  0  0  0  0  0  0  0  0  0
    0.8578    2.6401    0.0000 C   0  0  0  0  0  0  0  0  0  0  0  0
    0.3943    1.2135    0.0000 C   0  0  0  0  0  0  0  0  0  0  0  0
    1.2760    0.0000    0.0000 N   0  0  0  0  0  0  0  0  0  0  0  0
    0.3943   -1.2135    0.0000 N   0  0  0  0  0  0  0  0  0  0  0  0
   -1.0323   -0.7500    0.0000 C   0  0  0  0  0  0  0  0  0  0  0  0
   -2.2458   -1.6317    0.0000 S   0  0  0  0  0  0  0  0  0  0  0  0
   -1.0323    0.7500    0.0000 N   0  0  0  0  0  0  0  0  0  0  0  0
   -2.2458    1.6317    0.0000 C   0  0  0  0  0  0  0  0  0  0  0  0
   -2.0890    3.1235    0.0000 C   0  0  0  0  0  0  0  0  0  0  0  0
   -3.6161    1.0216    0.0000 C   0  0  0  0  0  0  0  0  0  0  0  0
    5.7558    4.6904    0.0000 C   0  0  0  0  0  0  0  0  0  0  0  0
    6.2193    6.1170    0.0000 C   0  0  0  0  0  0  0  0  0  0  0  0
    5.0058    6.9987    0.0000 C   0  0  0  0  0  0  0  0  0  0  0  0
    3.7923    6.1170    0.0000 C   0  0  0  0  0  0  0  0  0  0  0  0
  1  2  1  0
  2  3  1  0
  3  4  1  0
  4  5  2  0
  4  6  1  0
  6  7  1  0
  7  8  1  0
  8  9  2  0
  8 10  1  0
 10 11  1  0
 11 12  1  0
 12 13  2  0
 13 14  1  0
 14 15  1  0
 15 16  2  0
 15 17  1  0
 17 18  1  0
 18 19  1  0
 18 20  1  0
  7 21  1  0
 21 22  1  0
 22 23  1  0
 23 24  1  0
 24  7  1  0
 17 12  1  0
M  END
>  <Compound_ID>  (1) 
C67072196

>  <Active>  (1) 
0

>  <Smiles>  (1) 
CCNC(=O)NC1(C(=O)NCc2n[nH]c(=S)n2C(C)C)CCCC1

>  <canonical_smi>  (1) 
CCNC(=O)NC1(C(=O)NCc2n[nH]c(=S)n2C(C)C)CCCC1

>  <Set>  (1) 
G2 inactive

>  <Set_type>  (1) 
Train

>  <MW>  (1) 
354.48

>  <HBD>  (1) 
4

>  <HBA>  (1) 
4

>  <NRB>  (1) 
6

>  <NR>  (1) 
2

>  <NAR>  (1) 
1

>  <PSA>  (1) 
103.84

>  <Standard Type>  (1) 
nan

>  <Standard Relation>  (1) 
nan

>  <Standard Units>  (1) 
nan

>  <Standard Value>  (1) 
nan

>  <Assay ChEMBL ID>  (1) 
nan

>  <Assay Description>  (1) 
nan

>  <BAO Label>  (1) 
nan

$$$$

     RDKit          2D

 25 29  0  0  0  0  0  0  0  0999 V2000
   -9.0625   -3.8643    0.0000 Cl  0  0  0  0  0  0  0  0  0  0  0  0
   -7.9478   -4.8680    0.0000 C   0  0  0  0  0  0  0  0  0  0  0  0
   -6.5212   -4.4045    0.0000 C   0  0  0  0  0  0  0  0  0  0  0  0
   -5.4065   -5.4082    0.0000 C   0  0  0  0  0  0  0  0  0  0  0  0
   -5.7184   -6.8754    0.0000 C   0  0  0  0  0  0  0  0  0  0  0  0
   -4.6036   -7.8791    0.0000 C   0  0  0  0  0  0  0  0  0  0  0  0
   -3.1771   -7.4156    0.0000 C   0  0  0  0  0  0  0  0  0  0  0  0
   -2.7135   -5.9890    0.0000 N   0  0  0  0  0  0  0  0  0  0  0  0
   -1.2135   -5.9890    0.0000 N   0  0  0  0  0  0  0  0  0  0  0  0
   -0.0000   -5.1073    0.0000 C   0  0  0  0  0  0  0  0  0  0  0  0
   -0.0000   -3.6073    0.0000 C   0  0  0  0  0  0  0  0  0  0  0  0
    1.2135   -2.7256    0.0000 C   0  0  0  0  0  0  0  0  0  0  0  0
    0.7500   -1.2990    0.0000 C   0  0  0  0  0  0  0  0  0  0  0  0
    1.5000    0.0000    0.0000 C   0  0  0  0  0  0  0  0  0  0  0  0
    0.7500    1.2990    0.0000 C   0  0  0  0  0  0  0  0  0  0  0  0
   -0.7500    1.2990    0.0000 C   0  0  0  0  0  0  0  0  0  0  0  0
   -1.5000    0.0000    0.0000 C   0  0  0  0  0  0  0  0  0  0  0  0
   -0.7500   -1.2990    0.0000 C   0  0  0  0  0  0  0  0  0  0  0  0
   -1.2135   -2.7256    0.0000 N   0  0  0  0  0  4  0  0  0  0  0  0
    1.2135   -5.9890    0.0000 N   0  0  0  0  0  0  0  0  0  0  0  0
    0.7500   -7.4156    0.0000 N   0  0  0  0  0  0  0  0  0  0  0  0
   -0.7500   -7.4156    0.0000 C   0  0  0  0  0  0  0  0  0  0  0  0
   -1.9635   -8.2972    0.0000 S   0  0  0  0  0  0  0  0  0  0  0  0
   -7.1449   -7.3389    0.0000 C   0  0  0  0  0  0  0  0  0  0  0  0
   -8.2597   -6.3352    0.0000 C   0  0  0  0  0  0  0  0  0  0  0  0
  1  2  1  0
  2  3  2  0
  3  4  1  0
  4  5  2  0
  5  6  1  0
  6  7  1  0
  7  8  2  0
  8  9  1  0
  9 10  1  0
 10 11  1  0
 11 12  1  6
 12 13  2  0
 13 14  1  0
 14 15  2  0
 15 16  1  0
 16 17  2  0
 17 18  1  0
 18 19  2  0
 10 20  1  1
 20 21  1  0
 22 21  1  1
 22 23  1  0
  5 24  1  0
 24 25  2  0
 25  2  1  0
 23  7  1  0
 22  9  1  0
 19 11  1  0
 18 13  1  0
M  CHG  1  19   1
M  END
>  <Compound_ID>  (2) 
C63280737

>  <Active>  (2) 
0

>  <Smiles>  (2) 
Clc1ccc(CC2=NN3[C@@H]([C@H]4C=c5ccccc5=[NH+]4)NN[C@H]3S2)cc1

>  <canonical_smi>  (2) 
Clc1ccc(CC2=NN3[C@@H]([C@H]4C=c5ccccc5=[NH+]4)NN[C@H]3S2)cc1

>  <Set>  (2) 
G2 inactive

>  <Set_type>  (2) 
Train

>  <MW>  (2) 
370.89

>  <HBD>  (2) 
3

>  <HBA>  (2) 
4

>  <NRB>  (2) 
3

>  <NR>  (2) 
5

>  <NAR>  (2) 
2

>  <PSA>  (2) 
53.63

>  <Standard Type>  (2) 
nan

>  <Standard Relation>  (2) 
nan

>  <Standard Units>  (2) 
nan

>  <Standard Value>  (2) 
nan

>  <Assay ChEMBL ID>  (2) 
nan

>  <Assay Description>  (2) 
nan

>  <BAO Label>  (2) 
nan

$$$$

     RDKit          2D

 16 17  0  0  0  0  0  0  0  0999 V2000
    5.3582   -5.6519    0.0000 C   0  0  0  0  0  0  0  0  0  0  0  0
    5.2536   -4.1556    0.0000 C   0  0  0  0  0  0  0  0  0  0  0  0
    6.4972   -3.3168    0.0000 C   0  0  0  0  0  0  0  0  0  0  0  0
    3.9054   -3.4980    0.0000 C   0  0  0  0  0  0  0  0  0  0  0  0
    3.6449   -2.0208    0.0000 C   0  0  0  0  0  0  0  0  0  0  0  0
    2.1595   -1.8121    0.0000 C   0  0  0  0  0  0  0  0  0  0  0  0
    2.5224   -0.3566    0.0000 O   0  0  0  0  0  0  0  0  0  0  0  0
    0.7500   -1.2990    0.0000 C   0  0  0  0  0  0  0  0  0  0  0  0
    0.4895   -2.7762    0.0000 O   0  0  0  0  0  0  0  0  0  0  0  0
    1.5000    0.0000    0.0000 C   0  0  0  0  0  0  0  0  0  0  0  0
    0.7500    1.2990    0.0000 C   0  0  0  0  0  0  0  0  0  0  0  0
   -0.7500    1.2990    0.0000 C   0  0  0  0  0  0  0  0  0  0  0  0
   -1.5000    0.0000    0.0000 C   0  0  0  0  0  0  0  0  0  0  0  0
   -0.7500   -1.2990    0.0000 C   0  0  0  0  0  0  0  0  0  0  0  0
    1.5020   -3.1603    0.0000 O   0  0  0  0  0  0  0  0  0  0  0  0
    2.5810   -4.2022    0.0000 N   0  0  0  0  0  0  0  0  0  0  0  0
  1  2  1  0
  2  3  1  0
  4  2  1  1
  4  5  1  0
  5  6  1  0
  6  7  1  1
  6  8  1  0
  8  9  1  0
  8 10  1  0
 10 11  1  0
 11 12  1  0
 12 13  1  0
 13 14  1  0
  6 15  1  0
 15 16  1  0
 16  4  1  0
 14  8  1  0
M  END
>  <Compound_ID>  (3) 
C00092501

>  <Active>  (3) 
0

>  <Smiles>  (3) 
CC(C)[C@@H]1C[C@@](O)(C2(O)CCCCC2)ON1

>  <canonical_smi>  (3) 
CC(C)[C@@H]1C[C@@](O)(C2(O)CCCCC2)ON1

>  <Set>  (3) 
G2 inactive

>  <Set_type>  (3) 
Train

>  <MW>  (3) 
229.32

>  <HBD>  (3) 
3

>  <HBA>  (3) 
4

>  <NRB>  (3) 
2

>  <NR>  (3) 
2

>  <NAR>  (3) 
0

>  <PSA>  (3) 
61.72

>  <Standard Type>  (3) 
nan

>  <Standard Relation>  (3) 
nan

>  <Standard Units>  (3) 
nan

>  <Standard Value>  (3) 
nan

>  <Assay ChEMBL ID>  (3) 
nan

>  <Assay Description>  (3) 
nan

>  <BAO Label>  (3) 
nan

$$$$

     RDKit          2D

 16 16  0  0  0  0  0  0  0  0999 V2000
    3.0000    0.0000    0.0000 C   0  0  0  0  0  0  0  0  0  0  0  0
    1.5000    0.0000    0.0000 C   0  0  0  0  0  0  0  0  0  0  0  0
    0.7500   -1.2990    0.0000 C   0  0  0  0  0  0  0  0  0  0  0  0
    1.5000   -2.5981    0.0000 C   0  0  0  0  0  0  0  0  0  0  0  0
   -0.7500   -1.2990    0.0000 C   0  0  0  0  0  0  0  0  0  0  0  0
   -1.5000   -2.5981    0.0000 C   0  0  0  0  0  0  0  0  0  0  0  0
   -1.5000    0.0000    0.0000 C   0  0  0  0  0  0  0  0  0  0  0  0
   -3.0000    0.0000    0.0000 S   0  0  0  0  0  0  0  0  0  0  0  0
   -3.0000    1.5000    0.0000 O   0  0  0  0  0  0  0  0  0  0  0  0
   -3.0000   -1.5000    0.0000 O   0  0  0  0  0  0  0  0  0  0  0  0
   -4.5000    0.0000    0.0000 N   0  0  0  0  0  0  0  0  0  0  0  0
   -5.2500   -1.2990    0.0000 N   0  0  0  0  0  0  0  0  0  0  0  0
   -0.7500    1.2990    0.0000 C   0  0  0  0  0  0  0  0  0  0  0  0
   -1.5000    2.5981    0.0000 C   0  0  0  0  0  0  0  0  0  0  0  0
    0.7500    1.2990    0.0000 C   0  0  0  0  0  0  0  0  0  0  0  0
    1.5000    2.5981    0.0000 C   0  0  0  0  0  0  0  0  0  0  0  0
  1  2  1  0
  2  3  2  0
  3  4  1  0
  3  5  1  0
  5  6  1  0
  5  7  2  0
  7  8  1  0
  8  9  2  0
  8 10  2  0
  8 11  1  0
 11 12  1  0
  7 13  1  0
 13 14  1  0
 13 15  2  0
 15 16  1  0
 15  2  1  0
M  END
>  <Compound_ID>  (4) 
C02569084

>  <Active>  (4) 
0

>  <Smiles>  (4) 
Cc1c(C)c(C)c(S(=O)(=O)NN)c(C)c1C

>  <canonical_smi>  (4) 
Cc1c(C)c(C)c(S(=O)(=O)NN)c(C)c1C

>  <Set>  (4) 
G2 inactive

>  <Set_type>  (4) 
Train

>  <MW>  (4) 
242.34

>  <HBD>  (4) 
2

>  <HBA>  (4) 
3

>  <NRB>  (4) 
2

>  <NR>  (4) 
1

>  <NAR>  (4) 
1

>  <PSA>  (4) 
72.19

>  <Standard Type>  (4) 
nan

>  <Standard Relation>  (4) 
nan

>  <Standard Units>  (4) 
nan

>  <Standard Value>  (4) 
nan

>  <Assay ChEMBL ID>  (4) 
nan

>  <Assay Description>  (4) 
nan

>  <BAO Label>  (4) 
nan

$$$$

     RDKit          2D

 17 17  0  0  0  0  0  0  0  0999 V2000
    7.5000   -2.5981    0.0000 C   0  0  0  0  0  0  0  0  0  0  0  0
    6.0000   -2.5981    0.0000 N   0  0  0  0  0  0  0  0  0  0  0  0
    5.2500   -1.2990    0.0000 C   0  0  0  0  0  0  0  0  0  0  0  0
    6.0000    0.0000    0.0000 O   0  0  0  0  0  0  0  0  0  0  0  0
    3.7500   -1.2990    0.0000 N   0  0  0  0  0  0  0  0  0  0  0  0
    3.0000    0.0000    0.0000 N   0  0  0  0  0  0  0  0  0  0  0  0
    1.5000    0.0000    0.0000 C   0  0  0  0  0  0  0  0  0  0  0  0
    0.7500   -1.2990    0.0000 C   0  0  0  0  0  0  0  0  0  0  0  0
    1.5000   -2.5981    0.0000 F   0  0  0  0  0  0  0  0  0  0  0  0
   -0.7500   -1.2990    0.0000 C   0  0  0  0  0  0  0  0  0  0  0  0
   -1.5000   -2.5981    0.0000 F   0  0  0  0  0  0  0  0  0  0  0  0
   -1.5000    0.0000    0.0000 C   0  0  0  0  0  0  0  0  0  0  0  0
   -3.0000    0.0000    0.0000 F   0  0  0  0  0  0  0  0  0  0  0  0
   -0.7500    1.2990    0.0000 C   0  0  0  0  0  0  0  0  0  0  0  0
   -1.5000    2.5981    0.0000 F   0  0  0  0  0  0  0  0  0  0  0  0
    0.7500    1.2990    0.0000 C   0  0  0  0  0  0  0  0  0  0  0  0
    1.5000    2.5981    0.0000 F   0  0  0  0  0  0  0  0  0  0  0  0
  1  2  1  0
  2  3  1  0
  3  4  2  0
  3  5  1  0
  5  6  1  0
  6  7  1  0
  7  8  2  0
  8  9  1  0
  8 10  1  0
 10 11  1  0
 10 12  2  0
 12 13  1  0
 12 14  1  0
 14 15  1  0
 14 16  2  0
 16 17  1  0
 16  7  1  0
M  END
>  <Compound_ID>  (5) 
C48644330

>  <Active>  (5) 
0

>  <Smiles>  (5) 
CNC(=O)NNc1c(F)c(F)c(F)c(F)c1F

>  <canonical_smi>  (5) 
CNC(=O)NNc1c(F)c(F)c(F)c(F)c1F

>  <Set>  (5) 
G2 inactive

>  <Set_type>  (5) 
Train

>  <MW>  (5) 
255.15

>  <HBD>  (5) 
3

>  <HBA>  (5) 
2

>  <NRB>  (5) 
2

>  <NR>  (5) 
1

>  <NAR>  (5) 
1

>  <PSA>  (5) 
53.16

>  <Standard Type>  (5) 
nan

>  <Standard Relation>  (5) 
nan

>  <Standard Units>  (5) 
nan

>  <Standard Value>  (5) 
nan

>  <Assay ChEMBL ID>  (5) 
nan

>  <Assay Description>  (5) 
nan

>  <BAO Label>  (5) 
nan

$$$$

     RDKit          2D

 17 18  0  0  0  0  0  0  0  0999 V2000
    4.6740   -4.8322    0.0000 C   0  0  0  0  0  0  0  0  0  0  0  0
    3.3037   -4.2221    0.0000 C   0  0  0  0  0  0  0  0  0  0  0  0
    2.9918   -2.7549    0.0000 N   0  0  0  0  0  0  0  0  0  0  0  0
    1.5000   -2.5981    0.0000 C   0  0  0  0  0  0  0  0  0  0  0  0
    0.7500   -1.2990    0.0000 N   0  0  0  0  0  0  0  0  0  0  0  0
    1.5000    0.0000    0.0000 C   0  0  0  0  0  0  0  0  0  0  0  0
    0.7500    1.2990    0.0000 C   0  0  0  0  0  0  0  0  0  0  0  0
   -0.7500    1.2990    0.0000 C   0  0  0  0  0  0  0  0  0  0  0  0
   -1.5000    2.5981    0.0000 C   0  0  0  0  0  0  0  0  0  0  0  0
   -0.2010    3.3481    0.0000 C   0  0  0  0  0  0  0  0  0  0  0  0
   -2.7990    1.8481    0.0000 C   0  0  0  0  0  0  0  0  0  0  0  0
   -2.2500    3.8971    0.0000 C   0  0  0  0  0  0  0  0  0  0  0  0
   -1.5000    0.0000    0.0000 C   0  0  0  0  0  0  0  0  0  0  0  0
   -0.7500   -1.2990    0.0000 C   0  0  0  0  0  0  0  0  0  0  0  0
    0.8899   -3.9684    0.0000 C   0  0  0  0  0  0  0  0  0  0  0  0
   -0.5773   -4.2803    0.0000 N   0  0  0  0  0  0  0  0  0  0  0  0
    2.0046   -4.9721    0.0000 N   0  0  0  0  0  4  0  0  0  0  0  0
  1  2  1  0
  2  3  2  0
  3  4  1  0
  4  5  1  1
  5  6  1  0
  6  7  1  0
  7  8  1  0
  8  9  1  0
  9 10  1  0
  9 11  1  0
  9 12  1  0
  8 13  1  0
 13 14  1  0
  4 15  1  0
 15 16  1  0
 15 17  2  0
 17  2  1  0
 14  5  1  0
M  CHG  1  17   1
M  END
>  <Compound_ID>  (6) 
C50346824

>  <Active>  (6) 
0

>  <Smiles>  (6) 
CC1=N[C@H](N2CCC(C(C)(C)C)CC2)C(N)=[NH+]1

>  <canonical_smi>  (6) 
CC1=N[C@H](N2CCC(C(C)(C)C)CC2)C(N)=[NH+]1

>  <Set>  (6) 
G2 inactive

>  <Set_type>  (6) 
Train

>  <MW>  (6) 
237.37

>  <HBD>  (6) 
2

>  <HBA>  (6) 
2

>  <NRB>  (6) 
1

>  <NR>  (6) 
2

>  <NAR>  (6) 
0

>  <PSA>  (6) 
55.59

>  <Standard Type>  (6) 
nan

>  <Standard Relation>  (6) 
nan

>  <Standard Units>  (6) 
nan

>  <Standard Value>  (6) 
nan

>  <Assay ChEMBL ID>  (6) 
nan

>  <Assay Description>  (6) 
nan

>  <BAO Label>  (6) 
nan

$$$$

     RDKit          2D

 17 18  0  0  0  0  0  0  0  0999 V2000
   -0.2487    5.6515    0.0000 C   0  0  0  0  0  0  0  0  0  0  0  0
    0.1935    4.2182    0.0000 C   0  0  0  0  0  0  0  0  0  0  0  0
   -0.8268    3.1186    0.0000 C   0  0  0  0  0  0  0  0  0  0  0  0
   -2.2892    3.4524    0.0000 N   0  0  0  0  0  0  0  0  0  0  0  0
   -0.3846    1.6852    0.0000 C   0  0  0  0  0  0  0  0  0  0  0  0
    1.0777    1.3515    0.0000 C   0  0  0  0  0  0  0  0  0  0  0  0
    2.0980    2.4510    0.0000 C   0  0  0  0  0  0  0  0  0  0  0  0
    3.5604    2.1172    0.0000 C   0  0  0  0  0  0  0  0  0  0  0  0
    1.6559    3.8844    0.0000 C   0  0  0  0  0  0  0  0  0  0  0  0
    2.6761    4.9840    0.0000 Cl  0  0  0  0  0  0  0  0  0  0  0  0
    1.7286    0.0000    0.0000 N   0  0  0  0  0  0  0  0  0  0  0  0
    1.0777   -1.3515    0.0000 C   0  0  0  0  0  0  0  0  0  0  0  0
    2.0130   -2.5242    0.0000 O   0  0  0  0  0  0  0  0  0  0  0  0
   -0.3846   -1.6852    0.0000 C   0  0  0  0  0  0  0  0  0  0  0  0
   -1.5574   -0.7500    0.0000 C   0  0  0  0  0  0  0  0  0  0  0  0
   -2.9088   -1.4008    0.0000 C   0  0  0  0  0  0  0  0  0  0  0  0
   -1.5574    0.7500    0.0000 O   0  0  0  0  0  0  0  0  0  0  0  0
  1  2  1  0
  2  3  2  0
  3  4  1  0
  3  5  1  0
  5  6  2  0
  6  7  1  0
  7  8  1  0
  7  9  2  0
  9 10  1  0
  6 11  1  0
 11 12  1  0
 12 13  2  0
 12 14  1  0
 14 15  1  0
 15 16  1  1
 15 17  1  0
  9  2  1  0
 17  5  1  0
M  END
>  <Compound_ID>  (7) 
C62537082

>  <Active>  (7) 
0

>  <Smiles>  (7) 
Cc1c(N)c2c(c(C)c1Cl)NC(=O)C[C@@H](C)O2

>  <canonical_smi>  (7) 
Cc1c(N)c2c(c(C)c1Cl)NC(=O)C[C@@H](C)O2

>  <Set>  (7) 
G2 inactive

>  <Set_type>  (7) 
Train

>  <MW>  (7) 
254.72

>  <HBD>  (7) 
2

>  <HBA>  (7) 
3

>  <NRB>  (7) 
0

>  <NR>  (7) 
2

>  <NAR>  (7) 
1

>  <PSA>  (7) 
64.35

>  <Standard Type>  (7) 
nan

>  <Standard Relation>  (7) 
nan

>  <Standard Units>  (7) 
nan

>  <Standard Value>  (7) 
nan

>  <Assay ChEMBL ID>  (7) 
nan

>  <Assay Description>  (7) 
nan

>  <BAO Label>  (7) 
nan

$$$$

     RDKit          2D

 22 24  0  0  0  0  0  0  0  0999 V2000
    3.0000    0.0000    0.0000 O   0  0  0  0  0  0  0  0  0  0  0  0
    1.5000    0.0000    0.0000 C   0  0  0  0  0  0  0  0  0  0  0  0
    0.7500   -1.2990    0.0000 C   0  0  0  0  0  0  0  0  0  0  0  0
   -0.7500   -1.2990    0.0000 C   0  0  0  0  0  0  0  0  0  0  0  0
   -1.5000   -2.5981    0.0000 O   0  0  0  0  0  0  0  0  0  0  0  0
   -1.5000    0.0000    0.0000 C   0  0  0  0  0  0  0  0  0  0  0  0
   -0.7500    1.2990    0.0000 C   0  0  0  0  0  0  0  0  0  0  0  0
    0.7500    1.2990    0.0000 C   0  0  0  0  0  0  0  0  0  0  0  0
   -1.5000    2.5981    0.0000 O   0  0  0  0  0  0  0  0  0  0  0  0
   -3.0000    2.5981    0.0000 C   0  0  0  0  0  0  0  0  0  0  0  0
   -3.7500    3.8971    0.0000 C   0  0  0  0  0  0  0  0  0  0  0  0
   -3.0000    5.1962    0.0000 C   0  0  0  0  0  0  0  0  0  0  0  0
   -3.7500    6.4952    0.0000 C   0  0  0  0  0  0  0  0  0  0  0  0
   -3.0000    7.7942    0.0000 O   0  0  0  0  0  0  0  0  0  0  0  0
   -5.2500    6.4952    0.0000 C   0  0  0  0  0  0  0  0  0  0  0  0
   -6.0000    7.7942    0.0000 O   0  0  0  0  0  0  0  0  0  0  0  0
   -6.0000    5.1962    0.0000 C   0  0  0  0  0  0  0  0  0  0  0  0
   -7.5000    5.1962    0.0000 O   0  0  0  0  0  0  0  0  0  0  0  0
   -5.2500    3.8971    0.0000 C   0  0  0  0  0  0  0  0  0  0  0  0
   -3.7500    1.2990    0.0000 C   0  0  0  0  0  0  0  0  0  0  0  0
   -5.2500    1.2990    0.0000 O   0  0  0  0  0  0  0  0  0  0  0  0
   -3.0000    0.0000    0.0000 C   0  0  0  0  0  0  0  0  0  0  0  0
  1  2  1  0
  2  3  2  0
  3  4  1  0
  4  5  1  0
  4  6  2  0
  6  7  1  0
  7  8  2  0
  7  9  1  0
  9 10  1  0
 10 11  1  6
 11 12  2  0
 12 13  1  0
 13 14  1  0
 13 15  2  0
 15 16  1  0
 15 17  1  0
 17 18  1  0
 17 19  2  0
 10 20  1  0
 20 21  1  1
 20 22  1  0
  8  2  1  0
 19 11  1  0
 22  6  1  0
M  END
>  <Compound_ID>  (8) 
C03870337

>  <Active>  (8) 
0

>  <Smiles>  (8) 
Oc1cc(O)c2c(c1)O[C@@H](c1cc(O)c(O)c(O)c1)[C@H](O)C2

>  <canonical_smi>  (8) 
Oc1cc(O)c2c(c1)O[C@@H](c1cc(O)c(O)c(O)c1)[C@H](O)C2

>  <Set>  (8) 
G2 inactive

>  <Set_type>  (8) 
Train

>  <MW>  (8) 
306.27

>  <HBD>  (8) 
6

>  <HBA>  (8) 
7

>  <NRB>  (8) 
1

>  <NR>  (8) 
3

>  <NAR>  (8) 
2

>  <PSA>  (8) 
130.61

>  <Standard Type>  (8) 
nan

>  <Standard Relation>  (8) 
nan

>  <Standard Units>  (8) 
nan

>  <Standard Value>  (8) 
nan

>  <Assay ChEMBL ID>  (8) 
nan

>  <Assay Description>  (8) 
nan

>  <BAO Label>  (8) 
nan

$$$$

     RDKit          2D

 17 18  0  0  0  0  0  0  0  0999 V2000
    2.7760    0.0000    0.0000 C   0  0  0  0  0  0  0  0  0  0  0  0
    1.2760    0.0000    0.0000 C   0  0  0  0  0  0  0  0  0  0  0  0
    0.3943    1.2135    0.0000 N   0  0  0  0  0  0  0  0  0  0  0  0
   -1.0323    0.7500    0.0000 N   0  0  0  0  0  0  0  0  0  0  0  0
   -1.0323   -0.7500    0.0000 C   0  0  0  0  0  0  0  0  0  0  0  0
    0.3943   -1.2135    0.0000 C   0  0  0  0  0  0  0  0  0  0  0  0
    0.7062   -2.6807    0.0000 C   0  0  0  0  0  0  0  0  0  0  0  0
    2.1328   -3.1443    0.0000 N   0  0  0  0  0  0  0  0  0  0  0  0
    3.2475   -2.1406    0.0000 N   0  0  0  0  0  0  0  0  0  0  0  0
    4.6741   -2.6041    0.0000 C   0  0  0  0  0  0  0  0  0  0  0  0
    5.7888   -1.6004    0.0000 N   0  0  0  0  0  0  0  0  0  0  0  0
    4.9859   -4.0713    0.0000 S   0  0  0  0  0  0  0  0  0  0  0  0
   -0.4086   -3.6844    0.0000 C   0  0  0  0  0  0  0  0  0  0  0  0
   -1.8351   -3.2209    0.0000 C   0  0  0  0  0  0  0  0  0  0  0  0
   -3.3342   -3.2733    0.0000 C   0  0  0  0  0  0  0  0  0  0  0  0
   -2.0439   -4.7063    0.0000 C   0  0  0  0  0  0  0  0  0  0  0  0
   -2.1470   -1.7537    0.0000 C   0  0  0  0  0  0  0  0  0  0  0  0
  1  2  1  0
  2  3  1  0
  3  4  1  0
  4  5  2  0
  5  6  1  0
  6  7  1  0
  7  8  2  0
  8  9  1  0
  9 10  1  0
 10 11  1  0
 10 12  2  0
  7 13  1  0
 13 14  1  0
 14 15  1  0
 14 16  1  0
 14 17  1  0
  6  2  2  0
 17  5  1  0
M  END
>  <Compound_ID>  (9) 
C13080825

>  <Active>  (9) 
0

>  <Smiles>  (9) 
Cc1[nH]nc2c1/C(=N\NC(N)=S)CC(C)(C)C2

>  <canonical_smi>  (9) 
Cc1[nH]nc2c1/C(=N\NC(N)=S)CC(C)(C)C2

>  <Set>  (9) 
G2 inactive

>  <Set_type>  (9) 
Train

>  <MW>  (9) 
251.36

>  <HBD>  (9) 
3

>  <HBA>  (9) 
4

>  <NRB>  (9) 
1

>  <NR>  (9) 
2

>  <NAR>  (9) 
1

>  <PSA>  (9) 
79.09

>  <Standard Type>  (9) 
nan

>  <Standard Relation>  (9) 
nan

>  <Standard Units>  (9) 
nan

>  <Standard Value>  (9) 
nan

>  <Assay ChEMBL ID>  (9) 
nan

>  <Assay Description>  (9) 
nan

>  <BAO Label>  (9) 
nan

$$$$

     RDKit          2D

 28 30  0  0  0  0  0  0  0  0999 V2000
    3.0000    0.0000    0.0000 C   0  0  0  0  0  0  0  0  0  0  0  0
    1.5000    0.0000    0.0000 C   0  0  0  0  0  0  0  0  0  0  0  0
    0.7500   -1.2990    0.0000 C   0  0  0  0  0  0  0  0  0  0  0  0
   -0.7500   -1.2990    0.0000 C   0  0  0  0  0  0  0  0  0  0  0  0
   -1.5000    0.0000    0.0000 C   0  0  0  0  0  0  0  0  0  0  0  0
   -3.0000    0.0000    0.0000 N   0  0  0  0  0  0  0  0  0  0  0  0
   -3.7500   -1.2990    0.0000 N   0  0  0  0  0  0  0  0  0  0  0  0
   -5.2500   -1.2990    0.0000 C   0  0  0  0  0  0  0  0  0  0  0  0
   -6.0000    0.0000    0.0000 C   0  0  0  0  0  0  0  0  0  0  0  0
   -7.5000    0.0000    0.0000 C   0  0  0  0  0  0  0  0  0  0  0  0
   -8.2500    1.2990    0.0000 C   0  0  0  0  0  0  0  0  0  0  0  0
   -8.2500   -1.2990    0.0000 C   0  0  0  0  0  0  0  0  0  0  0  0
   -9.7500   -1.2990    0.0000 C   0  0  0  0  0  0  0  0  0  0  0  0
   -7.5000   -2.5981    0.0000 C   0  0  0  0  0  0  0  0  0  0  0  0
   -6.0000   -2.5981    0.0000 C   0  0  0  0  0  0  0  0  0  0  0  0
   -5.2500   -3.8971    0.0000 N   0  0  0  0  0  0  0  0  0  0  0  0
   -6.0000   -5.1962    0.0000 C   0  0  0  0  0  0  0  0  0  0  0  0
   -7.5000   -5.1962    0.0000 O   0  0  0  0  0  0  0  0  0  0  0  0
   -8.2500   -6.4952    0.0000 C   0  0  0  0  0  0  0  0  0  0  0  0
   -7.5000   -7.7942    0.0000 C   0  0  0  0  0  0  0  0  0  0  0  0
   -8.2500   -9.0933    0.0000 O   0  0  0  0  0  0  0  0  0  0  0  0
   -6.0000   -7.7942    0.0000 C   0  0  0  0  0  0  0  0  0  0  0  0
   -5.2500   -9.0933    0.0000 O   0  0  0  0  0  0  0  0  0  0  0  0
   -5.2500   -6.4952    0.0000 C   0  0  0  0  0  0  0  0  0  0  0  0
   -3.7500   -6.4952    0.0000 O   0  0  0  0  0  0  0  0  0  0  0  0
   -0.7500    1.2990    0.0000 C   0  0  0  0  0  0  0  0  0  0  0  0
    0.7500    1.2990    0.0000 C   0  0  0  0  0  0  0  0  0  0  0  0
    1.5000    2.5981    0.0000 C   0  0  0  0  0  0  0  0  0  0  0  0
  1  2  1  0
  2  3  2  0
  3  4  1  0
  4  5  2  0
  5  6  1  0
  6  7  2  0
  7  8  1  0
  8  9  2  0
  9 10  1  0
 10 11  1  0
 10 12  2  0
 12 13  1  0
 12 14  1  0
 14 15  2  0
 15 16  1  0
 17 16  1  1
 17 18  1  0
 18 19  1  0
 19 20  1  0
 20 21  1  6
 20 22  1  0
 22 23  1  6
 22 24  1  0
 24 25  1  6
  5 26  1  0
 26 27  2  0
 27 28  1  0
 27  2  1  0
 15  8  1  0
 24 17  1  0
M  END
>  <Compound_ID>  (10) 
C05394422

>  <Active>  (10) 
0

>  <Smiles>  (10) 
Cc1ccc(/N=N/c2cc(C)c(C)cc2N[C@@H]2OC[C@@H](O)[C@@H](O)[C@H]2O)cc1C

>  <canonical_smi>  (10) 
Cc1ccc(/N=N/c2cc(C)c(C)cc2N[C@@H]2OC[C@@H](O)[C@@H](O)[C@H]2O)cc1C

>  <Set>  (10) 
G2 inactive

>  <Set_type>  (10) 
Train

>  <MW>  (10) 
385.46

>  <HBD>  (10) 
4

>  <HBA>  (10) 
5

>  <NRB>  (10) 
4

>  <NR>  (10) 
3

>  <NAR>  (10) 
2

>  <PSA>  (10) 
106.67

>  <Standard Type>  (10) 
nan

>  <Standard Relation>  (10) 
nan

>  <Standard Units>  (10) 
nan

>  <Standard Value>  (10) 
nan

>  <Assay ChEMBL ID>  (10) 
nan

>  <Assay Description>  (10) 
nan

>  <BAO Label>  (10) 
nan

$$$$

     RDKit          2D

 37 42  0  0  0  0  0  0  0  0999 V2000
    3.7500   -1.2990    0.0000 C   0  0  0  0  0  0  0  0  0  0  0  0
    3.0000    0.0000    0.0000 O   0  0  0  0  0  0  0  0  0  0  0  0
    1.5000    0.0000    0.0000 C   0  0  0  0  0  0  0  0  0  0  0  0
    0.7500   -1.2990    0.0000 C   0  0  0  0  0  0  0  0  0  0  0  0
    1.5000   -2.5981    0.0000 O   0  0  0  0  0  0  0  0  0  0  0  0
   -0.7500   -1.2990    0.0000 C   0  0  0  0  0  0  0  0  0  0  0  0
   -1.5000    0.0000    0.0000 C   0  0  0  0  0  0  0  0  0  0  0  0
   -0.7500    1.2990    0.0000 C   0  0  0  0  0  0  0  0  0  0  0  0
    0.7500    1.2990    0.0000 C   0  0  0  0  0  0  0  0  0  0  0  0
    1.5000    2.5981    0.0000 C   0  0  0  0  0  0  0  0  0  0  0  0
    0.7500    3.8971    0.0000 C   0  0  0  0  0  0  0  0  0  0  0  0
   -0.7500    3.8971    0.0000 C   0  0  0  0  0  0  0  0  0  0  0  0
   -1.5000    5.1962    0.0000 C   0  0  0  0  0  0  0  0  0  0  0  0
   -3.0000    5.1962    0.0000 C   0  0  0  0  0  0  0  0  0  0  0  0
   -3.7500    6.4952    0.0000 C   0  0  0  0  0  0  0  0  0  0  0  0
   -5.2500    6.4952    0.0000 C   0  0  0  0  0  0  0  0  0  0  0  0
   -6.0000    5.1962    0.0000 C   0  0  0  0  0  0  0  0  0  0  0  0
   -5.2500    3.8971    0.0000 C   0  0  0  0  0  0  0  0  0  0  0  0
   -6.0000    2.5981    0.0000 C   0  0  0  0  0  0  0  0  0  0  0  0
   -7.5000    2.5981    0.0000 C   0  0  0  0  0  0  0  0  0  0  0  0
   -8.2500    1.2990    0.0000 C   0  0  0  0  0  0  0  0  0  0  0  0
   -7.5000    0.0000    0.0000 C   0  0  0  0  0  0  0  0  0  0  0  0
   -6.0000    0.0000    0.0000 N   0  0  0  0  0  0  0  0  0  0  0  0
   -5.2500    1.2990    0.0000 C   0  0  0  0  0  0  0  0  0  0  0  0
   -3.7500    3.8971    0.0000 C   0  0  0  0  0  0  0  0  0  0  0  0
   -1.5000    2.5981    0.0000 O   0  0  0  0  0  0  0  0  0  0  0  0
    1.5000    5.1962    0.0000 C   0  0  0  0  0  0  0  0  0  0  0  0
    0.7500    6.4952    0.0000 C   0  0  0  0  0  0  0  0  0  0  0  0
   -0.7500    6.4952    0.0000 C   0  0  0  0  0  0  0  0  0  0  0  0
    1.5000    7.7942    0.0000 C   0  0  0  0  0  0  0  0  0  0  0  0
    3.0000    7.7942    0.0000 C   0  0  0  0  0  0  0  0  0  0  0  0
    4.4095    8.3073    0.0000 C   0  0  0  0  0  0  0  0  0  0  0  0
    2.7395    9.2714    0.0000 C   0  0  0  0  0  0  0  0  0  0  0  0
    3.7500    6.4952    0.0000 N   0  0  0  0  0  4  0  0  0  0  0  0
    3.0000    5.1962    0.0000 C   0  0  0  0  0  0  0  0  0  0  0  0
    3.7500    3.8971    0.0000 C   0  0  0  0  0  0  0  0  0  0  0  0
    3.0000    2.5981    0.0000 C   0  0  0  0  0  0  0  0  0  0  0  0
  1  2  1  0
  2  3  1  0
  3  4  2  0
  4  5  1  0
  4  6  1  0
  6  7  2  0
  7  8  1  0
  8  9  2  0
  9 10  1  0
 10 11  2  0
 11 12  1  0
 12 13  2  0
 13 14  1  0
 14 15  2  0
 15 16  1  0
 16 17  2  0
 17 18  1  0
 18 19  1  0
 19 20  2  0
 20 21  1  0
 21 22  2  0
 22 23  1  0
 23 24  2  0
 18 25  2  0
 12 26  1  0
 11 27  1  0
 27 28  1  6
 28 29  1  0
 28 30  2  0
 30 31  1  0
 31 32  1  0
 31 33  1  0
 31 34  1  0
 35 34  1  1
 35 36  1  0
 36 37  2  0
  9  3  1  0
 37 10  1  0
 26  8  1  0
 35 27  1  0
 25 14  1  0
 24 19  1  0
M  CHG  1  34   1
M  END
>  <Compound_ID>  (11) 
C28823510

>  <Active>  (11) 
0

>  <Smiles>  (11) 
COc1c(O)ccc2c1C1=C(/C(=C/c3cccc(-c4cccnc4)c3)O2)[C@@H]2C(C)=CC(C)(C)[NH2+][C@H]2C=C1

>  <canonical_smi>  (11) 
COc1c(O)ccc2c1C1=C(/C(=C/c3cccc(-c4cccnc4)c3)O2)[C@@H]2C(C)=CC(C)(C)[NH2+][C@H]2C=C1

>  <Set>  (11) 
G2 inactive

>  <Set_type>  (11) 
Train

>  <MW>  (11) 
491.61

>  <HBD>  (11) 
2

>  <HBA>  (11) 
4

>  <NRB>  (11) 
3

>  <NR>  (11) 
6

>  <NAR>  (11) 
3

>  <PSA>  (11) 
68.19

>  <Standard Type>  (11) 
nan

>  <Standard Relation>  (11) 
nan

>  <Standard Units>  (11) 
nan

>  <Standard Value>  (11) 
nan

>  <Assay ChEMBL ID>  (11) 
nan

>  <Assay Description>  (11) 
nan

>  <BAO Label>  (11) 
nan

$$$$

     RDKit          2D

 35 40  0  0  0  0  0  0  0  0999 V2000
   -2.6962  -16.5776    0.0000 C   0  0  0  0  0  0  0  0  0  0  0  0
   -1.8146  -15.3641    0.0000 C   0  0  0  0  0  0  0  0  0  0  0  0
   -2.4247  -13.9938    0.0000 O   0  0  0  0  0  0  0  0  0  0  0  0
   -1.5430  -12.7803    0.0000 C   0  0  0  0  0  0  0  0  0  0  0  0
   -0.0512  -12.9371    0.0000 O   0  0  0  0  0  0  0  0  0  0  0  0
   -2.1531  -11.4100    0.0000 C   0  0  0  0  0  0  0  0  0  0  0  0
   -3.6203  -11.0981    0.0000 S   0  0  0  0  0  0  0  0  0  0  0  0
   -3.7771   -9.6063    0.0000 C   0  0  0  0  0  0  0  0  0  0  0  0
   -4.9906   -8.7246    0.0000 N   0  0  0  0  0  4  0  0  0  0  0  0
   -4.8338   -7.2328    0.0000 C   0  0  0  0  0  0  0  0  0  0  0  0
   -6.0474   -6.3512    0.0000 C   0  0  0  0  0  0  0  0  0  0  0  0
   -3.4635   -6.6227    0.0000 C   0  0  0  0  0  0  0  0  0  0  0  0
   -2.2500   -7.5044    0.0000 C   0  0  0  0  0  0  0  0  0  0  0  0
   -2.4068   -8.9962    0.0000 C   0  0  0  0  0  0  0  0  0  0  0  0
   -1.4031  -10.1109    0.0000 C   0  0  0  0  0  0  0  0  0  0  0  0
    0.0887   -9.9541    0.0000 N   0  0  0  0  0  0  0  0  0  0  0  0
   -1.0365   -6.6227    0.0000 C   0  0  0  0  0  0  0  0  0  0  0  0
    0.3901   -7.0863    0.0000 C   0  0  0  0  0  0  0  0  0  0  0  0
   -1.5000   -5.1962    0.0000 C   0  0  0  0  0  0  0  0  0  0  0  0
   -0.7500   -3.8971    0.0000 C   0  0  0  0  0  0  0  0  0  0  0  0
    0.7500   -3.8971    0.0000 C   0  0  0  0  0  0  0  0  0  0  0  0
    1.5000   -2.5981    0.0000 C   0  0  0  0  0  0  0  0  0  0  0  0
    0.7500   -1.2990    0.0000 C   0  0  0  0  0  0  0  0  0  0  0  0
    1.5000    0.0000    0.0000 C   0  0  0  0  0  0  0  0  0  0  0  0
    0.7500    1.2990    0.0000 C   0  0  0  0  0  0  0  0  0  0  0  0
    1.5000    2.5981    0.0000 O   0  0  0  0  0  0  0  0  0  0  0  0
   -0.7500    1.2990    0.0000 C   0  0  0  0  0  0  0  0  0  0  0  0
   -1.5000    0.0000    0.0000 C   0  0  0  0  0  0  0  0  0  0  0  0
   -0.7500   -1.2990    0.0000 C   0  0  0  0  0  0  0  0  0  0  0  0
   -2.2500   -1.2990    0.0000 C   0  0  0  0  0  0  0  0  0  0  0  0
   -1.5000   -2.5981    0.0000 C   0  0  0  0  0  0  0  0  0  0  0  0
   -3.0000   -2.5981    0.0000 C   0  0  0  0  0  0  0  0  0  0  0  0
   -3.7500   -3.8971    0.0000 C   0  0  0  0  0  0  0  0  0  0  0  0
   -3.0000   -5.1962    0.0000 C   0  0  0  0  0  0  0  0  0  0  0  0
   -4.4918   -5.3529    0.0000 C   0  0  0  0  0  0  0  0  0  0  0  0
  1  2  1  0
  2  3  1  0
  3  4  1  0
  4  5  2  0
  4  6  1  0
  6  7  1  0
  7  8  1  0
  8  9  2  0
  9 10  1  0
 10 11  1  0
 10 12  2  0
 12 13  1  0
 13 14  2  0
 14 15  1  0
 15 16  1  0
 13 17  1  0
 17 18  1  6
 19 17  1  6
 19 20  1  0
 20 21  1  6
 21 22  1  0
 22 23  2  0
 23 24  1  0
 24 25  1  0
 25 26  1  6
 25 27  1  0
 27 28  1  0
 28 29  1  0
 29 30  1  6
 29 31  1  0
 31 32  1  1
 32 33  1  0
 33 34  1  0
 34 35  1  1
 15  6  2  0
 34 19  1  0
 14  8  1  0
 31 20  1  0
 34 12  1  0
 29 23  1  0
M  CHG  1   9   1
M  END
>  <Compound_ID>  (12) 
C35188573

>  <Active>  (12) 
0

>  <Smiles>  (12) 
CCOC(=O)c1sc2[nH+]c(C)c3c(c2c1N)[C@@H](C)[C@H]1[C@H]2CC=C4C[C@@H](O)CC[C@]4(C)[C@@H]2CC[C@@]31C

>  <canonical_smi>  (12) 
CCOC(=O)c1sc2[nH+]c(C)c3c(c2c1N)[C@@H](C)[C@H]1[C@H]2CC=C4C[C@@H](O)CC[C@]4(C)[C@@H]2CC[C@@]31C

>  <Set>  (12) 
G2 inactive

>  <Set_type>  (12) 
Train

>  <MW>  (12) 
495.71

>  <HBD>  (12) 
2

>  <HBA>  (12) 
4

>  <NRB>  (12) 
2

>  <NR>  (12) 
6

>  <NAR>  (12) 
2

>  <PSA>  (12) 
86.69

>  <Standard Type>  (12) 
nan

>  <Standard Relation>  (12) 
nan

>  <Standard Units>  (12) 
nan

>  <Standard Value>  (12) 
nan

>  <Assay ChEMBL ID>  (12) 
nan

>  <Assay Description>  (12) 
nan

>  <BAO Label>  (12) 
nan

$$$$

     RDKit          2D

 37 41  0  0  0  0  0  0  0  0999 V2000
    2.6491    0.9642    0.0000 C   0  0  0  0  0  0  0  0  0  0  0  0
    1.5000    0.0000    0.0000 C   0  0  0  0  0  0  0  0  0  0  0  0
    2.6491   -0.9642    0.0000 C   0  0  0  0  0  0  0  0  0  0  0  0
    0.7500   -1.2990    0.0000 C   0  0  0  0  0  0  0  0  0  0  0  0
    1.5000   -2.5981    0.0000 C   0  0  0  0  0  0  0  0  0  0  0  0
    0.7500   -3.8971    0.0000 C   0  0  0  0  0  0  0  0  0  0  0  0
   -0.7500   -3.8971    0.0000 C   0  0  0  0  0  0  0  0  0  0  0  0
   -0.0000   -5.1962    0.0000 C   0  0  0  0  0  0  0  0  0  0  0  0
   -1.5000   -2.5981    0.0000 C   0  0  0  0  0  0  0  0  0  0  0  0
   -3.0000   -2.5981    0.0000 C   0  0  0  0  0  0  0  0  0  0  0  0
   -3.7500   -3.8971    0.0000 C   0  0  0  0  0  0  0  0  0  0  0  0
   -3.0000   -5.1962    0.0000 C   0  0  0  0  0  0  0  0  0  0  0  0
   -3.7500   -6.4952    0.0000 C   0  0  0  0  0  0  0  0  0  0  0  0
   -5.2500   -6.4952    0.0000 C   0  0  0  0  0  0  0  0  0  0  0  0
   -6.0000   -7.7942    0.0000 C   0  0  0  0  0  0  0  0  0  0  0  0
   -7.1491   -8.7584    0.0000 C   0  0  0  0  0  0  0  0  0  0  0  0
   -7.1491   -6.8300    0.0000 C   0  0  0  0  0  0  0  0  0  0  0  0
   -8.5586   -7.3431    0.0000 O   0  0  0  0  0  0  0  0  0  0  0  0
   -6.8886   -5.3528    0.0000 O   0  0  0  0  0  0  0  0  0  0  0  0
   -8.0377   -4.3887    0.0000 C   0  0  0  0  0  0  0  0  0  0  0  0
   -7.7772   -2.9114    0.0000 C   0  0  0  0  0  0  0  0  0  0  0  0
   -8.9263   -1.9473    0.0000 N   0  0  0  0  0  4  0  0  0  0  0  0
   -5.2500   -9.0933    0.0000 C   0  0  0  0  0  0  0  0  0  0  0  0
   -3.7500   -9.0933    0.0000 C   0  0  0  0  0  0  0  0  0  0  0  0
   -3.0000  -10.3923    0.0000 O   0  0  0  0  0  0  0  0  0  0  0  0
   -3.0000   -7.7942    0.0000 C   0  0  0  0  0  0  0  0  0  0  0  0
   -2.2500   -9.0933    0.0000 C   0  0  0  0  0  0  0  0  0  0  0  0
   -1.5000   -7.7942    0.0000 C   0  0  0  0  0  0  0  0  0  0  0  0
   -0.7500   -6.4952    0.0000 C   0  0  0  0  0  0  0  0  0  0  0  0
   -1.5000   -5.1962    0.0000 C   0  0  0  0  0  0  0  0  0  0  0  0
   -2.2500   -3.8971    0.0000 C   0  0  0  0  0  0  0  0  0  0  0  0
   -0.7500   -1.2990    0.0000 C   0  0  0  0  0  0  0  0  0  0  0  0
   -2.2500   -1.2990    0.0000 C   0  0  0  0  0  0  0  0  0  0  0  0
   -1.5000    0.0000    0.0000 C   0  0  0  0  0  0  0  0  0  0  0  0
   -0.7500    1.2990    0.0000 C   0  0  0  0  0  0  0  0  0  0  0  0
    0.7500    1.2990    0.0000 C   0  0  0  0  0  0  0  0  0  0  0  0
    1.5000    2.5981    0.0000 O   0  0  0  0  0  0  0  0  0  0  0  0
  1  2  1  0
  2  3  1  0
  2  4  1  0
  4  5  1  1
  5  6  1  0
  6  7  1  0
  7  8  1  6
  7  9  1  0
  9 10  1  1
 10 11  2  0
 11 12  1  0
 12 13  2  0
 13 14  1  0
 14 15  1  0
 15 16  1  6
 15 17  1  0
 17 18  2  0
 17 19  1  0
 19 20  1  0
 20 21  1  0
 21 22  1  0
 15 23  1  0
 23 24  1  0
 24 25  2  0
 24 26  1  0
 26 27  1  6
 26 28  1  0
 28 29  1  0
 29 30  1  0
 30 31  1  1
  9 32  1  0
 32 33  1  6
 32 34  1  0
 34 35  1  0
 35 36  1  0
 36 37  1  6
 36  2  1  0
 32  4  1  0
 30  7  1  0
 30 12  1  0
 26 13  1  0
M  CHG  1  22   1
M  END
>  <Compound_ID>  (13) 
C38545633

>  <Active>  (13) 
0

>  <Smiles>  (13) 
CC1(C)[C@H]2CC[C@]3(C)[C@@H](C=CC4=C5C[C@](C)(C(=O)OCC[NH3+])CC(=O)[C@]5(C)CC[C@]43C)[C@@]2(C)CC[C@@H]1O

>  <canonical_smi>  (13) 
CC1(C)[C@@H](O)CC[C@@]2(C)[C@@H]1CC[C@]1(C)[C@H]2C=CC2=C3C[C@](C)(C(=O)OCC[NH3+])CC(=O)[C@]3(C)CC[C@]21C

>  <Set>  (13) 
G2 inactive

>  <Set_type>  (13) 
Train

>  <MW>  (13) 
512.76

>  <HBD>  (13) 
2

>  <HBA>  (13) 
4

>  <NRB>  (13) 
3

>  <NR>  (13) 
5

>  <NAR>  (13) 
0

>  <PSA>  (13) 
91.24

>  <Standard Type>  (13) 
nan

>  <Standard Relation>  (13) 
nan

>  <Standard Units>  (13) 
nan

>  <Standard Value>  (13) 
nan

>  <Assay ChEMBL ID>  (13) 
nan

>  <Assay Description>  (13) 
nan

>  <BAO Label>  (13) 
nan

$$$$

     RDKit          2D

 28 30  0  0  0  0  0  0  0  0999 V2000
    6.9510   -7.2452    0.0000 O   0  0  0  0  0  0  0  0  0  0  0  0
    8.2500   -6.4952    0.0000 S   0  0  0  0  0  0  0  0  0  0  0  0
    9.5490   -5.7452    0.0000 O   0  0  0  0  0  0  0  0  0  0  0  0
    7.5000   -5.1962    0.0000 N   0  0  0  0  0  0  0  0  0  0  0  0
    6.0000   -5.1962    0.0000 C   0  0  0  0  0  0  0  0  0  0  0  0
    5.2500   -3.8971    0.0000 C   0  0  0  0  0  0  0  0  0  0  0  0
    3.7500   -3.8971    0.0000 C   0  0  0  0  0  0  0  0  0  0  0  0
    3.0000   -2.5981    0.0000 C   0  0  0  0  0  0  0  0  0  0  0  0
    1.5000   -2.5981    0.0000 N   0  0  0  0  0  0  0  0  0  0  0  0
    0.7500   -1.2990    0.0000 C   0  0  0  0  0  0  0  0  0  0  0  0
    1.5000    0.0000    0.0000 C   0  0  0  0  0  0  0  0  0  0  0  0
    0.7500    1.2990    0.0000 C   0  0  0  0  0  0  0  0  0  0  0  0
   -0.7500    1.2990    0.0000 N   0  0  0  0  0  4  0  0  0  0  0  0
   -1.5000    0.0000    0.0000 C   0  0  0  0  0  0  0  0  0  0  0  0
   -3.0000    0.0000    0.0000 C   0  0  0  0  0  0  0  0  0  0  0  0
   -3.7500   -1.2990    0.0000 C   0  0  0  0  0  0  0  0  0  0  0  0
   -5.2500   -1.2990    0.0000 Cl  0  0  0  0  0  0  0  0  0  0  0  0
   -3.0000   -2.5981    0.0000 C   0  0  0  0  0  0  0  0  0  0  0  0
   -1.5000   -2.5981    0.0000 C   0  0  0  0  0  0  0  0  0  0  0  0
   -0.7500   -1.2990    0.0000 C   0  0  0  0  0  0  0  0  0  0  0  0
    9.0000   -7.7942    0.0000 C   0  0  0  0  0  0  0  0  0  0  0  0
    8.2500   -9.0933    0.0000 C   0  0  0  0  0  0  0  0  0  0  0  0
    9.0000  -10.3923    0.0000 C   0  0  0  0  0  0  0  0  0  0  0  0
    8.2500  -11.6913    0.0000 Cl  0  0  0  0  0  0  0  0  0  0  0  0
   10.5000  -10.3923    0.0000 C   0  0  0  0  0  0  0  0  0  0  0  0
   11.2500   -9.0933    0.0000 C   0  0  0  0  0  0  0  0  0  0  0  0
   10.5000   -7.7942    0.0000 C   0  0  0  0  0  0  0  0  0  0  0  0
   11.2500   -6.4952    0.0000 Cl  0  0  0  0  0  0  0  0  0  0  0  0
  1  2  2  0
  2  3  2  0
  2  4  1  0
  4  5  1  0
  5  6  1  0
  6  7  1  0
  7  8  1  0
  8  9  1  0
  9 10  1  0
 10 11  2  0
 11 12  1  0
 12 13  2  0
 13 14  1  0
 14 15  2  0
 15 16  1  0
 16 17  1  0
 16 18  2  0
 18 19  1  0
 19 20  2  0
  2 21  1  0
 21 22  2  0
 22 23  1  0
 23 24  1  0
 23 25  2  0
 25 26  1  0
 26 27  2  0
 27 28  1  0
 20 10  1  0
 27 21  1  0
 20 14  1  0
M  CHG  1  13   1
M  END
>  <Compound_ID>  (14) 
C35190806

>  <Active>  (14) 
0

>  <Smiles>  (14) 
O=S(=O)(NCCCCNc1cc[nH+]c2cc(Cl)ccc12)c1cc(Cl)ccc1Cl

>  <canonical_smi>  (14) 
O=S(=O)(NCCCCNc1cc[nH+]c2cc(Cl)ccc12)c1cc(Cl)ccc1Cl

>  <Set>  (14) 
G2 inactive

>  <Set_type>  (14) 
Train

>  <MW>  (14) 
459.81

>  <HBD>  (14) 
2

>  <HBA>  (14) 
3

>  <NRB>  (14) 
8

>  <NR>  (14) 
3

>  <NAR>  (14) 
3

>  <PSA>  (14) 
72.34

>  <Standard Type>  (14) 
nan

>  <Standard Relation>  (14) 
nan

>  <Standard Units>  (14) 
nan

>  <Standard Value>  (14) 
nan

>  <Assay ChEMBL ID>  (14) 
nan

>  <Assay Description>  (14) 
nan

>  <BAO Label>  (14) 
nan

$$$$

     RDKit          2D

 35 40  0  0  0  0  0  0  0  0999 V2000
    4.4298   -7.1557    0.0000 C   0  0  0  0  0  0  0  0  0  0  0  0
    2.9625   -7.4676    0.0000 C   0  0  0  0  0  0  0  0  0  0  0  0
    1.8478   -6.4639    0.0000 C   0  0  0  0  0  0  0  0  0  0  0  0
    2.0046   -4.9721    0.0000 C   0  0  0  0  0  0  0  0  0  0  0  0
    0.8899   -3.9684    0.0000 N   0  0  0  0  0  0  0  0  0  0  0  0
    1.5000   -2.5981    0.0000 C   0  0  0  0  0  0  0  0  0  0  0  0
    0.7500   -1.2990    0.0000 C   0  0  0  0  0  0  0  0  0  0  0  0
    1.5000    0.0000    0.0000 C   0  0  0  0  0  0  0  0  0  0  0  0
    0.7500    1.2990    0.0000 C   0  0  0  0  0  0  0  0  0  0  0  0
   -0.7500    1.2990    0.0000 C   0  0  0  0  0  0  0  0  0  0  0  0
   -1.5000    0.0000    0.0000 C   0  0  0  0  0  0  0  0  0  0  0  0
   -0.7500   -1.2990    0.0000 C   0  0  0  0  0  0  0  0  0  0  0  0
    2.9918   -2.7549    0.0000 C   0  0  0  0  0  0  0  0  0  0  0  0
    3.9955   -1.6402    0.0000 C   0  0  0  0  0  0  0  0  0  0  0  0
    5.4627   -1.9520    0.0000 C   0  0  0  0  0  0  0  0  0  0  0  0
    6.4664   -0.8373    0.0000 C   0  0  0  0  0  0  0  0  0  0  0  0
    6.0029    0.5893    0.0000 C   0  0  0  0  0  0  0  0  0  0  0  0
    4.5356    0.9012    0.0000 C   0  0  0  0  0  0  0  0  0  0  0  0
    3.5320   -0.2136    0.0000 C   0  0  0  0  0  0  0  0  0  0  0  0
    3.3037   -4.2221    0.0000 N   0  0  0  0  0  4  0  0  0  0  0  0
    0.5488   -7.2139    0.0000 C   0  0  0  0  0  0  0  0  0  0  0  0
   -0.8215   -6.6038    0.0000 N   0  0  0  0  0  0  0  0  0  0  0  0
   -0.9783   -5.1120    0.0000 C   0  0  0  0  0  0  0  0  0  0  0  0
   -2.3486   -4.5019    0.0000 C   0  0  0  0  0  0  0  0  0  0  0  0
   -3.5622   -5.3836    0.0000 C   0  0  0  0  0  0  0  0  0  0  0  0
   -3.4054   -6.8753    0.0000 C   0  0  0  0  0  0  0  0  0  0  0  0
   -2.0351   -7.4854    0.0000 C   0  0  0  0  0  0  0  0  0  0  0  0
    0.8606   -8.6811    0.0000 N   0  0  0  0  0  0  0  0  0  0  0  0
   -0.1430   -9.7958    0.0000 C   0  0  0  0  0  0  0  0  0  0  0  0
   -1.6103   -9.4839    0.0000 C   0  0  0  0  0  0  0  0  0  0  0  0
   -2.6140  -10.5987    0.0000 C   0  0  0  0  0  0  0  0  0  0  0  0
   -2.1504  -12.0252    0.0000 C   0  0  0  0  0  0  0  0  0  0  0  0
   -0.6832  -12.3371    0.0000 C   0  0  0  0  0  0  0  0  0  0  0  0
    0.3205  -11.2224    0.0000 C   0  0  0  0  0  0  0  0  0  0  0  0
    2.3524   -8.8379    0.0000 N   0  0  0  0  0  0  0  0  0  0  0  0
  1  2  1  0
  2  3  2  0
  3  4  1  0
  4  5  1  0
  5  6  1  0
  6  7  1  0
  7  8  2  0
  8  9  1  0
  9 10  2  0
 10 11  1  0
 11 12  2  0
  6 13  2  0
 13 14  1  0
 14 15  2  0
 15 16  1  0
 16 17  2  0
 17 18  1  0
 18 19  2  0
 13 20  1  0
  3 21  1  0
 21 22  1  6
 22 23  1  0
 23 24  1  0
 24 25  1  0
 25 26  1  0
 26 27  1  0
 21 28  1  0
 28 29  1  0
 29 30  2  0
 30 31  1  0
 31 32  2  0
 32 33  1  0
 33 34  2  0
 28 35  1  0
 35  2  1  0
 20  4  2  0
 27 22  1  0
 34 29  1  0
 12  7  1  0
 19 14  1  0
M  CHG  1  20   1
M  END
>  <Compound_ID>  (15) 
C39944098

>  <Active>  (15) 
0

>  <Smiles>  (15) 
CC1=C(c2[nH]c(-c3ccccc3)c(-c3ccccc3)[nH+]2)[C@@H](N2CCCCC2)N(c2ccccc2)N1

>  <canonical_smi>  (15) 
CC1=C(c2[nH]c(-c3ccccc3)c(-c3ccccc3)[nH+]2)[C@@H](N2CCCCC2)N(c2ccccc2)N1

>  <Set>  (15) 
G2 inactive

>  <Set_type>  (15) 
Train

>  <MW>  (15) 
462.62

>  <HBD>  (15) 
2

>  <HBA>  (15) 
3

>  <NRB>  (15) 
5

>  <NR>  (15) 
6

>  <NAR>  (15) 
4

>  <PSA>  (15) 
48.44

>  <Standard Type>  (15) 
nan

>  <Standard Relation>  (15) 
nan

>  <Standard Units>  (15) 
nan

>  <Standard Value>  (15) 
nan

>  <Assay ChEMBL ID>  (15) 
nan

>  <Assay Description>  (15) 
nan

>  <BAO Label>  (15) 
nan

$$$$

     RDKit          2D

 33 37  0  0  0  0  0  0  0  0999 V2000
   -0.3991   -5.5310    0.0000 O   0  0  0  0  0  0  0  0  0  0  0  0
    0.7500   -6.4952    0.0000 P   0  0  0  0  0  0  0  0  0  0  0  0
    1.5000   -5.1962    0.0000 N   0  0  0  0  0  0  0  0  0  0  0  0
    0.7500   -3.8971    0.0000 C   0  0  0  0  0  0  0  0  0  0  0  0
    1.5000   -2.5981    0.0000 C   0  0  0  0  0  0  0  0  0  0  0  0
    3.0000   -2.5981    0.0000 C   0  0  0  0  0  0  0  0  0  0  0  0
    3.8817   -1.3846    0.0000 C   0  0  0  0  0  0  0  0  0  0  0  0
    5.3083   -1.8481    0.0000 C   0  0  0  0  0  0  0  0  0  0  0  0
    5.3083   -3.3481    0.0000 C   0  0  0  0  0  0  0  0  0  0  0  0
    3.8817   -3.8116    0.0000 S   0  0  0  0  0  0  0  0  0  0  0  0
    0.7500   -1.2990    0.0000 N   0  0  0  0  0  4  0  0  0  0  0  0
    1.5000    0.0000    0.0000 C   0  0  0  0  0  0  0  0  0  0  0  0
    0.7500    1.2990    0.0000 C   0  0  0  0  0  0  0  0  0  0  0  0
   -0.7500    1.2990    0.0000 O   0  0  0  0  0  0  0  0  0  0  0  0
   -1.5000    0.0000    0.0000 C   0  0  0  0  0  0  0  0  0  0  0  0
   -0.7500   -1.2990    0.0000 C   0  0  0  0  0  0  0  0  0  0  0  0
    2.1595   -7.0082    0.0000 C   0  0  0  0  0  0  0  0  0  0  0  0
    2.4200   -8.4854    0.0000 C   0  0  0  0  0  0  0  0  0  0  0  0
    3.8296   -8.9985    0.0000 C   0  0  0  0  0  0  0  0  0  0  0  0
    4.0900  -10.4757    0.0000 C   0  0  0  0  0  0  0  0  0  0  0  0
    5.4996  -10.9887    0.0000 C   0  0  0  0  0  0  0  0  0  0  0  0
    6.6486  -10.0245    0.0000 C   0  0  0  0  0  0  0  0  0  0  0  0
    6.3882   -8.5473    0.0000 C   0  0  0  0  0  0  0  0  0  0  0  0
    4.9786   -8.0343    0.0000 C   0  0  0  0  0  0  0  0  0  0  0  0
    1.2709   -9.4496    0.0000 O   0  0  0  0  0  0  0  0  0  0  0  0
   -0.1386   -8.9366    0.0000 C   0  0  0  0  0  0  0  0  0  0  0  0
   -1.2877   -9.9008    0.0000 C   0  0  0  0  0  0  0  0  0  0  0  0
   -2.6972   -9.3877    0.0000 C   0  0  0  0  0  0  0  0  0  0  0  0
   -3.8463  -10.3519    0.0000 C   0  0  0  0  0  0  0  0  0  0  0  0
   -3.5858  -11.8291    0.0000 C   0  0  0  0  0  0  0  0  0  0  0  0
   -2.1763  -12.3422    0.0000 C   0  0  0  0  0  0  0  0  0  0  0  0
   -1.0272  -11.3780    0.0000 C   0  0  0  0  0  0  0  0  0  0  0  0
   -0.3991   -7.4594    0.0000 C   0  0  0  0  0  0  0  0  0  0  0  0
  1  2  2  0
  2  3  1  0
  3  4  1  0
  5  4  1  1
  5  6  1  0
  6  7  2  0
  7  8  1  0
  8  9  2  0
  9 10  1  0
  5 11  1  0
 11 12  1  0
 12 13  1  0
 13 14  1  0
 14 15  1  0
 15 16  1  0
  2 17  1  0
 17 18  2  0
 18 19  1  0
 19 20  2  0
 20 21  1  0
 21 22  2  0
 22 23  1  0
 23 24  2  0
 18 25  1  0
 25 26  1  0
 26 27  1  0
 27 28  2  0
 28 29  1  0
 29 30  2  0
 30 31  1  0
 31 32  2  0
 26 33  2  0
 33  2  1  0
 10  6  1  0
 16 11  1  0
 24 19  1  0
 32 27  1  0
M  CHG  1  11   1
M  END
>  <Compound_ID>  (16) 
C03168484

>  <Active>  (16) 
0

>  <Smiles>  (16) 
O=P1(NC[C@H](c2cccs2)[NH+]2CCOCC2)C=C(c2ccccc2)OC(c2ccccc2)=C1

>  <canonical_smi>  (16) 
O=P1(NC[C@H](c2cccs2)[NH+]2CCOCC2)C=C(c2ccccc2)OC(c2ccccc2)=C1

>  <Set>  (16) 
G2 inactive

>  <Set_type>  (16) 
Train

>  <MW>  (16) 
479.56

>  <HBD>  (16) 
2

>  <HBA>  (16) 
4

>  <NRB>  (16) 
7

>  <NR>  (16) 
5

>  <NAR>  (16) 
3

>  <PSA>  (16) 
52.0

>  <Standard Type>  (16) 
nan

>  <Standard Relation>  (16) 
nan

>  <Standard Units>  (16) 
nan

>  <Standard Value>  (16) 
nan

>  <Assay ChEMBL ID>  (16) 
nan

>  <Assay Description>  (16) 
nan

>  <BAO Label>  (16) 
nan

$$$$

     RDKit          2D

 34 39  0  0  0  0  0  0  0  0999 V2000
   -2.6401   -3.1891    0.0000 N   0  0  0  0  0  0  0  0  0  0  0  0
   -1.2135   -2.7256    0.0000 C   0  0  0  0  0  0  0  0  0  0  0  0
   -0.0000   -3.6073    0.0000 N   0  0  0  0  0  0  0  0  0  0  0  0
    1.2135   -2.7256    0.0000 C   0  0  0  0  0  0  0  0  0  0  0  0
    2.5838   -2.1155    0.0000 C   0  0  0  0  0  0  0  0  0  0  0  0
    3.7974   -2.9972    0.0000 C   0  0  0  0  0  0  0  0  0  0  0  0
    5.1677   -2.3871    0.0000 C   0  0  0  0  0  0  0  0  0  0  0  0
    5.3245   -0.8953    0.0000 C   0  0  0  0  0  0  0  0  0  0  0  0
    4.1110   -0.0136    0.0000 C   0  0  0  0  0  0  0  0  0  0  0  0
    4.2677    1.4782    0.0000 C   0  0  0  0  0  0  0  0  0  0  0  0
    5.6381    2.0883    0.0000 C   0  0  0  0  0  0  0  0  0  0  0  0
    5.7949    3.5800    0.0000 C   0  0  0  0  0  0  0  0  0  0  0  0
    4.5813    4.4617    0.0000 C   0  0  0  0  0  0  0  0  0  0  0  0
    3.2110    3.8516    0.0000 N   0  0  0  0  0  0  0  0  0  0  0  0
    3.0542    2.3598    0.0000 C   0  0  0  0  0  0  0  0  0  0  0  0
    1.6839    1.7497    0.0000 F   0  0  0  0  0  0  0  0  0  0  0  0
    2.7406   -0.6237    0.0000 C   0  0  0  0  0  0  0  0  0  0  0  0
    1.9635   -4.0247    0.0000 C   0  0  0  0  0  0  0  0  0  0  0  0
    3.4635   -4.0247    0.0000 C   0  0  0  0  0  0  0  0  0  0  0  0
    4.2135   -5.3237    0.0000 C   0  0  0  0  0  0  0  0  0  0  0  0
    3.4635   -6.6227    0.0000 C   0  0  0  0  0  0  0  0  0  0  0  0
    1.9635   -6.6227    0.0000 C   0  0  0  0  0  0  0  0  0  0  0  0
    1.2135   -5.3237    0.0000 C   0  0  0  0  0  0  0  0  0  0  0  0
    1.5000   -8.0493    0.0000 O   0  0  0  0  0  0  0  0  0  0  0  0
    2.7135   -8.9310    0.0000 C   0  0  0  0  0  0  0  0  0  0  0  0
    1.7098  -10.0457    0.0000 F   0  0  0  0  0  0  0  0  0  0  0  0
    3.7172  -10.0457    0.0000 F   0  0  0  0  0  0  0  0  0  0  0  0
    3.9271   -8.0493    0.0000 O   0  0  0  0  0  0  0  0  0  0  0  0
    0.7500   -1.2990    0.0000 C   0  0  0  0  0  0  0  0  0  0  0  0
    1.5000    0.0000    0.0000 N   0  0  0  0  0  4  0  0  0  0  0  0
    0.7500    1.2990    0.0000 C   0  0  0  0  0  0  0  0  0  0  0  0
   -0.7500    1.2990    0.0000 C   0  0  0  0  0  0  0  0  0  0  0  0
   -1.5000    0.0000    0.0000 C   0  0  0  0  0  0  0  0  0  0  0  0
   -0.7500   -1.2990    0.0000 N   0  0  0  0  0  0  0  0  0  0  0  0
  1  2  1  0
  2  3  2  0
  3  4  1  0
  4  5  1  6
  5  6  2  0
  6  7  1  0
  7  8  2  0
  8  9  1  0
  9 10  1  0
 10 11  2  0
 11 12  1  0
 12 13  2  0
 13 14  1  0
 14 15  2  0
 15 16  1  0
  9 17  2  0
  4 18  1  0
 18 19  2  0
 19 20  1  0
 20 21  2  0
 21 22  1  0
 22 23  2  0
 22 24  1  0
 24 25  1  0
 25 26  1  0
 25 27  1  0
 25 28  1  0
  4 29  1  0
 29 30  2  0
 30 31  1  0
 31 32  1  0
 32 33  1  0
 33 34  1  0
 34  2  1  0
 17  5  1  0
 23 18  1  0
 34 29  1  0
 15 10  1  0
 28 21  1  0
M  CHG  1  30   1
M  END
>  <Compound_ID>  (17) 
C45245378

>  <Active>  (17) 
0

>  <Smiles>  (17) 
NC1=N[C@](c2cccc(-c3cccnc3F)c2)(c2ccc3c(c2)OC(F)(F)O3)C2=[NH+]CCCN12

>  <canonical_smi>  (17) 
NC1=N[C@](c2cccc(-c3cccnc3F)c2)(c2ccc3c(c2)OC(F)(F)O3)C2=[NH+]CCCN12

>  <Set>  (17) 
G2 inactive

>  <Set_type>  (17) 
Train

>  <MW>  (17) 
466.44

>  <HBD>  (17) 
2

>  <HBA>  (17) 
5

>  <NRB>  (17) 
3

>  <NR>  (17) 
6

>  <NAR>  (17) 
3

>  <PSA>  (17) 
86.94

>  <Standard Type>  (17) 
nan

>  <Standard Relation>  (17) 
nan

>  <Standard Units>  (17) 
nan

>  <Standard Value>  (17) 
nan

>  <Assay ChEMBL ID>  (17) 
nan

>  <Assay Description>  (17) 
nan

>  <BAO Label>  (17) 
nan

$$$$

     RDKit          2D

 32 37  0  0  0  0  0  0  0  0999 V2000
    4.7779    9.2179    0.0000 C   0  0  0  0  0  0  0  0  0  0  0  0
    4.1678   10.5882    0.0000 C   0  0  0  0  0  0  0  0  0  0  0  0
    2.8687    9.8382    0.0000 C   0  0  0  0  0  0  0  0  0  0  0  0
    1.4984   10.4483    0.0000 C   0  0  0  0  0  0  0  0  0  0  0  0
    0.4947    9.3336    0.0000 C   0  0  0  0  0  0  0  0  0  0  0  0
    1.2447    8.0346    0.0000 C   0  0  0  0  0  0  0  0  0  0  0  0
    0.7812    6.6080    0.0000 C   0  0  0  0  0  0  0  0  0  0  0  0
   -0.6860    6.2961    0.0000 C   0  0  0  0  0  0  0  0  0  0  0  0
   -1.1496    4.8695    0.0000 C   0  0  0  0  0  0  0  0  0  0  0  0
   -0.1459    3.7548    0.0000 C   0  0  0  0  0  0  0  0  0  0  0  0
   -0.6094    2.3282    0.0000 C   0  0  0  0  0  0  0  0  0  0  0  0
    0.3943    1.2135    0.0000 C   0  0  0  0  0  0  0  0  0  0  0  0
    1.8615    1.5254    0.0000 C   0  0  0  0  0  0  0  0  0  0  0  0
    2.3250    2.9520    0.0000 C   0  0  0  0  0  0  0  0  0  0  0  0
    1.3213    4.0667    0.0000 C   0  0  0  0  0  0  0  0  0  0  0  0
    2.7886    4.3786    0.0000 C   0  0  0  0  0  0  0  0  0  0  0  0
    1.7849    5.4933    0.0000 C   0  0  0  0  0  0  0  0  0  0  0  0
    3.2521    5.8051    0.0000 C   0  0  0  0  0  0  0  0  0  0  0  0
    4.2558    4.6904    0.0000 O   0  0  0  0  0  0  0  0  0  0  0  0
    3.7156    7.2317    0.0000 C   0  0  0  0  0  0  0  0  0  0  0  0
    2.7119    8.3464    0.0000 C   0  0  0  0  0  0  0  0  0  0  0  0
    4.1385    8.8100    0.0000 C   0  0  0  0  0  0  0  0  0  0  0  0
    5.2532    7.8063    0.0000 N   0  0  0  0  0  0  0  0  0  0  0  0
    6.6798    8.2698    0.0000 O   0  0  0  0  0  0  0  0  0  0  0  0
    1.2760    0.0000    0.0000 O   0  0  0  0  0  0  0  0  0  0  0  0
    0.3943   -1.2135    0.0000 C   0  0  0  0  0  0  0  0  0  0  0  0
   -1.0323   -0.7500    0.0000 C   0  0  0  0  0  0  0  0  0  0  0  0
   -1.0323    0.7500    0.0000 O   0  0  0  0  0  0  0  0  0  0  0  0
    5.5943   11.0518    0.0000 O   0  0  0  0  0  0  0  0  0  0  0  0
    5.5943   12.5518    0.0000 C   0  0  0  0  0  0  0  0  0  0  0  0
    4.1678   13.0153    0.0000 C   0  0  0  0  0  0  0  0  0  0  0  0
    3.2861   11.8018    0.0000 O   0  0  0  0  0  0  0  0  0  0  0  0
  1  2  1  0
  3  2  1  6
  3  4  1  0
  4  5  1  0
  6  5  1  1
  6  7  1  0
  7  8  1  6
  8  9  1  0
 10  9  1  1
 10 11  1  0
 11 12  1  0
 12 13  1  0
 13 14  1  0
 14 15  1  0
 15 16  1  6
 15 17  1  0
 17 18  1  6
 18 19  1  1
 18 20  1  0
 20 21  1  0
 21 22  1  1
 22 23  2  0
 23 24  1  0
 12 25  1  0
 25 26  1  0
 26 27  1  0
 27 28  1  0
  2 29  1  0
 29 30  1  0
 30 31  1  0
 31 32  1  0
 32  2  1  0
 21  3  1  0
 21  6  1  0
 17  7  1  0
 15 10  1  0
 28 12  1  0
M  END
>  <Compound_ID>  (18) 
C35361518

>  <Active>  (18) 
0

>  <Smiles>  (18) 
CC1([C@H]2CC[C@@H]3[C@H]4CC[C@@H]5CC6(CC[C@]5(C)[C@H]4[C@H](O)C[C@]32/C=N/O)OCCO6)OCCO1

>  <canonical_smi>  (18) 
CC1([C@H]2CC[C@@H]3[C@H]4CC[C@@H]5CC6(CC[C@]5(C)[C@H]4[C@H](O)C[C@@]23/C=N/O)OCCO6)OCCO1

>  <Set>  (18) 
G2 inactive

>  <Set_type>  (18) 
Train

>  <MW>  (18) 
449.59

>  <HBD>  (18) 
2

>  <HBA>  (18) 
6

>  <NRB>  (18) 
2

>  <NR>  (18) 
6

>  <NAR>  (18) 
0

>  <PSA>  (18) 
89.74

>  <Standard Type>  (18) 
nan

>  <Standard Relation>  (18) 
nan

>  <Standard Units>  (18) 
nan

>  <Standard Value>  (18) 
nan

>  <Assay ChEMBL ID>  (18) 
nan

>  <Assay Description>  (18) 
nan

>  <BAO Label>  (18) 
nan

$$$$

     RDKit          2D

 30 34  0  0  0  0  0  0  0  0999 V2000
  -10.2619    7.3123    0.0000 C   0  0  0  0  0  0  0  0  0  0  0  0
  -10.5738    5.8451    0.0000 O   0  0  0  0  0  0  0  0  0  0  0  0
   -9.4590    4.8414    0.0000 C   0  0  0  0  0  0  0  0  0  0  0  0
   -8.0325    5.3050    0.0000 C   0  0  0  0  0  0  0  0  0  0  0  0
   -6.9177    4.3013    0.0000 C   0  0  0  0  0  0  0  0  0  0  0  0
   -5.4912    4.7648    0.0000 C   0  0  0  0  0  0  0  0  0  0  0  0
   -4.3764    3.7611    0.0000 C   0  0  0  0  0  0  0  0  0  0  0  0
   -2.9499    4.2246    0.0000 C   0  0  0  0  0  0  0  0  0  0  0  0
   -1.8351    3.2209    0.0000 C   0  0  0  0  0  0  0  0  0  0  0  0
   -2.1470    1.7537    0.0000 C   0  0  0  0  0  0  0  0  0  0  0  0
   -1.0323    0.7500    0.0000 C   0  0  0  0  0  0  0  0  0  0  0  0
    0.3943    1.2135    0.0000 C   0  0  0  0  0  0  0  0  0  0  0  0
    0.7062    2.6807    0.0000 C   0  0  0  0  0  0  0  0  0  0  0  0
   -0.4086    3.6844    0.0000 C   0  0  0  0  0  0  0  0  0  0  0  0
   -0.0967    5.1517    0.0000 C   0  0  0  0  0  0  0  0  0  0  0  0
   -1.2114    6.1554    0.0000 C   0  0  0  0  0  0  0  0  0  0  0  0
   -2.6380    5.6918    0.0000 N   0  0  0  0  0  0  0  0  0  0  0  0
   -3.7527    6.6955    0.0000 C   0  0  0  0  0  0  0  0  0  0  0  0
   -3.4408    8.1628    0.0000 N   0  0  0  0  0  0  0  0  0  0  0  0
   -5.1793    6.2320    0.0000 C   0  0  0  0  0  0  0  0  0  0  0  0
   -6.2940    7.2357    0.0000 C   0  0  0  0  0  0  0  0  0  0  0  0
   -7.4087    8.2394    0.0000 N   0  0  0  0  0  0  0  0  0  0  0  0
    1.2760    0.0000    0.0000 O   0  0  0  0  0  0  0  0  0  0  0  0
    0.3943   -1.2135    0.0000 C   0  0  0  0  0  0  0  0  0  0  0  0
   -1.0323   -0.7500    0.0000 O   0  0  0  0  0  0  0  0  0  0  0  0
   -7.2296    2.8340    0.0000 C   0  0  0  0  0  0  0  0  0  0  0  0
   -8.6562    2.3705    0.0000 C   0  0  0  0  0  0  0  0  0  0  0  0
   -8.9681    0.9033    0.0000 Br  0  0  0  0  0  0  0  0  0  0  0  0
   -9.7709    3.3742    0.0000 C   0  0  0  0  0  0  0  0  0  0  0  0
  -11.1975    2.9107    0.0000 O   0  0  0  0  0  0  0  0  0  0  0  0
  1  2  1  0
  2  3  1  0
  3  4  2  0
  4  5  1  0
  5  6  2  0
  6  7  1  0
  7  8  2  0
  8  9  1  0
  9 10  2  0
 10 11  1  0
 11 12  2  0
 12 13  1  0
 13 14  2  0
 14 15  1  0
 15 16  1  0
 16 17  1  0
 17 18  1  0
 18 19  1  0
 18 20  2  0
 20 21  1  0
 21 22  3  0
 12 23  1  0
 23 24  1  0
 24 25  1  0
  5 26  1  0
 26 27  2  0
 27 28  1  0
 27 29  1  0
 29 30  2  0
 29  3  1  0
 20  6  1  0
 17  8  1  0
 14  9  1  0
 25 11  1  0
M  END
>  <Compound_ID>  (19) 
C38184282

>  <Active>  (19) 
0

>  <Smiles>  (19) 
COC1=C/C(=C2/C=C3c4cc5c(cc4CCN3C(N)=C2C#N)OCO5)C=C(Br)C1=O

>  <canonical_smi>  (19) 
COC1=C/C(=C2/C=C3c4cc5c(cc4CCN3C(N)=C2C#N)OCO5)C=C(Br)C1=O

>  <Set>  (19) 
G2 inactive

>  <Set_type>  (19) 
Train

>  <MW>  (19) 
466.29

>  <HBD>  (19) 
1

>  <HBA>  (19) 
7

>  <NRB>  (19) 
1

>  <NR>  (19) 
5

>  <NAR>  (19) 
1

>  <PSA>  (19) 
97.81

>  <Standard Type>  (19) 
nan

>  <Standard Relation>  (19) 
nan

>  <Standard Units>  (19) 
nan

>  <Standard Value>  (19) 
nan

>  <Assay ChEMBL ID>  (19) 
nan

>  <Assay Description>  (19) 
nan

>  <BAO Label>  (19) 
nan

$$$$

     RDKit          2D

 31 33  0  0  0  0  0  0  0  0999 V2000
    5.4338   -6.2997    0.0000 C   0  0  0  0  0  0  0  0  0  0  0  0
    6.3469   -5.1097    0.0000 C   0  0  0  0  0  0  0  0  0  0  0  0
    5.7729   -3.7239    0.0000 C   0  0  0  0  0  0  0  0  0  0  0  0
    4.3017   -4.0165    0.0000 C   0  0  0  0  0  0  0  0  0  0  0  0
    2.8306   -3.7239    0.0000 C   0  0  0  0  0  0  0  0  0  0  0  0
    2.2565   -5.1097    0.0000 O   0  0  0  0  0  0  0  0  0  0  0  0
    1.5834   -2.8905    0.0000 O   0  0  0  0  0  0  0  0  0  0  0  0
    0.7500   -1.2990    0.0000 C   0  0  0  0  0  0  0  0  0  0  0  0
    1.5000    0.0000    0.0000 C   0  0  0  0  0  0  0  0  0  0  0  0
    0.7500    1.2990    0.0000 C   0  0  0  0  0  0  0  0  0  0  0  0
    1.5834    2.5462    0.0000 C   0  0  0  0  0  0  0  0  0  0  0  0
    2.8306    3.3796    0.0000 C   0  0  0  0  0  0  0  0  0  0  0  0
    4.3017    3.6722    0.0000 C   0  0  0  0  0  0  0  0  0  0  0  0
    4.3017    5.1722    0.0000 C   0  0  0  0  0  0  0  0  0  0  0  0
    5.6008    5.9222    0.0000 C   0  0  0  0  0  0  0  0  0  0  0  0
    5.7729    3.3796    0.0000 C   0  0  0  0  0  0  0  0  0  0  0  0
    7.0201    2.5462    0.0000 C   0  0  0  0  0  0  0  0  0  0  0  0
    7.8535    1.2990    0.0000 C   0  0  0  0  0  0  0  0  0  0  0  0
    8.1461   -0.1721    0.0000 C   0  0  0  0  0  0  0  0  0  0  0  0
    7.8535   -1.6433    0.0000 C   0  0  0  0  0  0  0  0  0  0  0  0
    7.0201   -2.8905    0.0000 C   0  0  0  0  0  0  0  0  0  0  0  0
   -0.7500    1.2990    0.0000 O   0  0  0  0  0  0  0  0  0  0  0  0
   -1.5000    0.0000    0.0000 C   0  0  0  0  0  0  0  0  0  0  0  0
   -2.6491    0.9642    0.0000 O   0  0  0  0  0  0  0  0  0  0  0  0
   -2.6491   -0.9642    0.0000 C   0  0  0  0  0  0  0  0  0  0  0  0
   -2.5444   -2.4605    0.0000 C   0  0  0  0  0  0  0  0  0  0  0  0
   -3.9352   -3.0224    0.0000 S   0  0  0  0  0  0  0  0  0  0  0  0
   -4.8994   -1.8734    0.0000 C   0  0  0  0  0  0  0  0  0  0  0  0
   -6.3957   -1.9780    0.0000 O   0  0  0  0  0  0  0  0  0  0  0  0
   -4.1045   -0.6013    0.0000 N   0  0  0  0  0  0  0  0  0  0  0  0
   -0.7500   -1.2990    0.0000 C   0  0  0  0  0  0  0  0  0  0  0  0
  1  2  1  0
  2  3  1  0
  3  4  2  0
  4  5  1  0
  5  6  2  0
  5  7  1  0
  7  8  1  0
  8  9  1  0
  9 10  1  0
 10 11  1  6
 11 12  1  0
 12 13  1  0
 13 14  1  6
 14 15  1  0
 13 16  1  0
 16 17  2  0
 17 18  1  0
 18 19  2  0
 19 20  1  0
 20 21  1  0
 10 22  1  0
 22 23  1  0
 23 24  1  1
 23 25  1  0
 25 26  1  6
 26 27  1  0
 27 28  1  0
 28 29  2  0
 28 30  1  0
 23 31  1  0
 21  3  1  0
 30 25  1  0
  8 31  1  6
M  END
>  <Compound_ID>  (20) 
C45789111

>  <Active>  (20) 
0

>  <Smiles>  (20) 
CC/C1=C\C(=O)O[C@H]2C[C@@H](CC[C@H](CC)/C=C/C=C\CC1)O[C@@](O)([C@@H]1CSC(=O)N1)C2

>  <canonical_smi>  (20) 
CC/C1=C\C(=O)O[C@H]2C[C@@H](CC[C@H](CC)/C=C/C=C\CC1)O[C@@](O)([C@@H]1CSC(=O)N1)C2

>  <Set>  (20) 
G2 inactive

>  <Set_type>  (20) 
Train

>  <MW>  (20) 
449.61

>  <HBD>  (20) 
2

>  <HBA>  (20) 
6

>  <NRB>  (20) 
3

>  <NR>  (20) 
3

>  <NAR>  (20) 
0

>  <PSA>  (20) 
84.86

>  <Standard Type>  (20) 
nan

>  <Standard Relation>  (20) 
nan

>  <Standard Units>  (20) 
nan

>  <Standard Value>  (20) 
nan

>  <Assay ChEMBL ID>  (20) 
nan

>  <Assay Description>  (20) 
nan

>  <BAO Label>  (20) 
nan

$$$$

     RDKit          2D

 28 32  0  0  0  0  0  0  0  0999 V2000
   -0.0854    4.3414    0.0000 C   0  0  0  0  0  0  0  0  0  0  0  0
   -0.9117    3.0896    0.0000 C   0  0  0  0  0  0  0  0  0  0  0  0
   -2.4102    3.0223    0.0000 N   0  0  0  0  0  0  0  0  0  0  0  0
   -2.8093    1.5763    0.0000 N   0  0  0  0  0  0  0  0  0  0  0  0
   -4.2136    1.0493    0.0000 C   0  0  0  0  0  0  0  0  0  0  0  0
   -4.4593   -0.4305    0.0000 N   0  0  0  0  0  0  0  0  0  0  0  0
   -5.8637   -0.9575    0.0000 C   0  0  0  0  0  0  0  0  0  0  0  0
   -7.0223   -0.0048    0.0000 N   0  0  0  0  0  0  0  0  0  0  0  0
   -6.7766    1.4749    0.0000 C   0  0  0  0  0  0  0  0  0  0  0  0
   -7.7118    2.6476    0.0000 N   0  0  0  0  0  0  0  0  0  0  0  0
   -6.8855    3.8995    0.0000 C   0  0  0  0  0  0  0  0  0  0  0  0
   -5.4395    3.5004    0.0000 N   0  0  0  0  0  0  0  0  0  0  0  0
   -5.3722    2.0020    0.0000 C   0  0  0  0  0  0  0  0  0  0  0  0
   -1.5574    0.7500    0.0000 C   0  0  0  0  0  0  0  0  0  0  0  0
   -0.3846    1.6852    0.0000 C   0  0  0  0  0  0  0  0  0  0  0  0
    1.0777    1.3515    0.0000 C   0  0  0  0  0  0  0  0  0  0  0  0
    2.0130    2.5242    0.0000 C   0  0  0  0  0  0  0  0  0  0  0  0
    1.4650    3.9205    0.0000 C   0  0  0  0  0  0  0  0  0  0  0  0
    2.4002    5.0933    0.0000 C   0  0  0  0  0  0  0  0  0  0  0  0
    3.8835    4.8697    0.0000 C   0  0  0  0  0  0  0  0  0  0  0  0
    4.4315    3.4734    0.0000 C   0  0  0  0  0  0  0  0  0  0  0  0
    3.4962    2.3006    0.0000 C   0  0  0  0  0  0  0  0  0  0  0  0
    4.0442    0.9043    0.0000 Br  0  0  0  0  0  0  0  0  0  0  0  0
    1.7286    0.0000    0.0000 S   0  0  0  0  0  0  0  0  0  0  0  0
    1.0777   -1.3515    0.0000 C   0  0  0  0  0  0  0  0  0  0  0  0
   -0.3846   -1.6852    0.0000 C   0  0  0  0  0  0  0  0  0  0  0  0
   -0.7184   -3.1476    0.0000 O   0  0  0  0  0  0  0  0  0  0  0  0
   -1.5574   -0.7500    0.0000 N   0  0  0  0  0  0  0  0  0  0  0  0
  1  2  1  0
  2  3  2  0
  3  4  1  0
  4  5  1  0
  5  6  2  0
  6  7  1  0
  7  8  2  0
  8  9  1  0
  9 10  1  0
 10 11  1  0
 11 12  2  0
 12 13  1  0
  4 14  1  0
 14 15  2  0
 15 16  1  0
 16 17  1  1
 17 18  2  0
 18 19  1  0
 19 20  2  0
 20 21  1  0
 21 22  2  0
 22 23  1  0
 16 24  1  0
 24 25  1  0
 25 26  1  0
 26 27  2  0
 26 28  1  0
 15  2  1  0
 22 17  1  0
 13  5  1  0
 28 14  1  0
 13  9  2  0
M  END
>  <Compound_ID>  (21) 
C31810387

>  <Active>  (21) 
0

>  <Smiles>  (21) 
Cc1nn(-c2ncnc3[nH]cnc23)c2c1[C@@H](c1ccccc1Br)SCC(=O)N2

>  <canonical_smi>  (21) 
Cc1nn(-c2ncnc3[nH]cnc23)c2c1[C@@H](c1ccccc1Br)SCC(=O)N2

>  <Set>  (21) 
G2 inactive

>  <Set_type>  (21) 
Train

>  <MW>  (21) 
456.33

>  <HBD>  (21) 
2

>  <HBA>  (21) 
6

>  <NRB>  (21) 
2

>  <NR>  (21) 
5

>  <NAR>  (21) 
4

>  <PSA>  (21) 
101.38

>  <Standard Type>  (21) 
nan

>  <Standard Relation>  (21) 
nan

>  <Standard Units>  (21) 
nan

>  <Standard Value>  (21) 
nan

>  <Assay ChEMBL ID>  (21) 
nan

>  <Assay Description>  (21) 
nan

>  <BAO Label>  (21) 
nan

$$$$

     RDKit          2D

 34 37  0  0  0  0  0  0  0  0999 V2000
    3.7500   -1.2990    0.0000 C   0  0  0  0  0  0  0  0  0  0  0  0
    3.0000    0.0000    0.0000 N   0  0  0  0  0  0  0  0  0  0  0  0
    3.7500    1.2990    0.0000 C   0  0  0  0  0  0  0  0  0  0  0  0
    1.5000    0.0000    0.0000 C   0  0  0  0  0  0  0  0  0  0  0  0
    0.7500   -1.2990    0.0000 C   0  0  0  0  0  0  0  0  0  0  0  0
   -0.7500   -1.2990    0.0000 C   0  0  0  0  0  0  0  0  0  0  0  0
   -1.5000    0.0000    0.0000 C   0  0  0  0  0  0  0  0  0  0  0  0
   -3.0000    0.0000    0.0000 C   0  0  0  0  0  0  0  0  0  0  0  0
   -3.8817   -1.2135    0.0000 N   0  0  0  0  0  4  0  0  0  0  0  0
   -5.3083   -0.7500    0.0000 C   0  0  0  0  0  0  0  0  0  0  0  0
   -5.3083    0.7500    0.0000 C   0  0  0  0  0  0  0  0  0  0  0  0
   -6.5218    1.6317    0.0000 C   0  0  0  0  0  0  0  0  0  0  0  0
   -6.3650    3.1235    0.0000 S   0  0  0  0  0  0  0  0  0  0  0  0
   -7.5785    4.0051    0.0000 C   0  0  0  0  0  0  0  0  0  0  0  0
   -7.4217    5.4969    0.0000 N   0  0  0  0  0  0  0  0  0  0  0  0
   -8.6353    6.3786    0.0000 C   0  0  0  0  0  0  0  0  0  0  0  0
   -8.4785    7.8704    0.0000 C   0  0  0  0  0  0  0  0  0  0  0  0
   -7.1081    8.4805    0.0000 C   0  0  0  0  0  0  0  0  0  0  0  0
   -6.9514    9.9723    0.0000 C   0  0  0  0  0  0  0  0  0  0  0  0
   -8.1649   10.8539    0.0000 C   0  0  0  0  0  0  0  0  0  0  0  0
   -9.5352   10.2438    0.0000 C   0  0  0  0  0  0  0  0  0  0  0  0
   -9.6920    8.7521    0.0000 C   0  0  0  0  0  0  0  0  0  0  0  0
  -10.0056    5.7685    0.0000 C   0  0  0  0  0  0  0  0  0  0  0  0
  -10.1624    4.2767    0.0000 C   0  0  0  0  0  0  0  0  0  0  0  0
  -11.5327    3.6666    0.0000 C   0  0  0  0  0  0  0  0  0  0  0  0
  -12.9030    3.0565    0.0000 F   0  0  0  0  0  0  0  0  0  0  0  0
  -12.1428    5.0369    0.0000 F   0  0  0  0  0  0  0  0  0  0  0  0
  -10.9226    2.2963    0.0000 F   0  0  0  0  0  0  0  0  0  0  0  0
   -8.9488    3.3950    0.0000 C   0  0  0  0  0  0  0  0  0  0  0  0
   -9.1056    1.9033    0.0000 C   0  0  0  0  0  0  0  0  0  0  0  0
   -9.2624    0.4115    0.0000 N   0  0  0  0  0  0  0  0  0  0  0  0
   -3.8817    1.2135    0.0000 O   0  0  0  0  0  0  0  0  0  0  0  0
   -0.7500    1.2990    0.0000 C   0  0  0  0  0  0  0  0  0  0  0  0
    0.7500    1.2990    0.0000 C   0  0  0  0  0  0  0  0  0  0  0  0
  1  2  1  0
  2  3  1  0
  2  4  1  0
  4  5  2  0
  5  6  1  0
  6  7  2  0
  8  7  1  1
  8  9  1  0
  9 10  1  0
 10 11  1  0
 11 12  1  6
 12 13  1  0
 13 14  1  0
 14 15  2  0
 15 16  1  0
 16 17  1  0
 17 18  2  0
 18 19  1  0
 19 20  2  0
 20 21  1  0
 21 22  2  0
 16 23  2  0
 23 24  1  0
 24 25  1  0
 25 26  1  0
 25 27  1  0
 25 28  1  0
 24 29  2  0
 29 30  1  0
 30 31  3  0
 11 32  1  0
  7 33  1  0
 33 34  2  0
 34  4  1  0
 32  8  1  0
 29 14  1  0
 22 17  1  0
M  CHG  1   9   1
M  END
>  <Compound_ID>  (22) 
C25583822

>  <Active>  (22) 
0

>  <Smiles>  (22) 
CN(C)c1ccc([C@H]2[NH2+]C[C@H](CSc3nc(-c4ccccc4)cc(C(F)(F)F)c3C#N)O2)cc1

>  <canonical_smi>  (22) 
CN(C)c1ccc([C@H]2[NH2+]C[C@H](CSc3nc(-c4ccccc4)cc(C(F)(F)F)c3C#N)O2)cc1

>  <Set>  (22) 
G2 inactive

>  <Set_type>  (22) 
Train

>  <MW>  (22) 
485.56

>  <HBD>  (22) 
1

>  <HBA>  (22) 
5

>  <NRB>  (22) 
6

>  <NR>  (22) 
4

>  <NAR>  (22) 
3

>  <PSA>  (22) 
65.76

>  <Standard Type>  (22) 
nan

>  <Standard Relation>  (22) 
nan

>  <Standard Units>  (22) 
nan

>  <Standard Value>  (22) 
nan

>  <Assay ChEMBL ID>  (22) 
nan

>  <Assay Description>  (22) 
nan

>  <BAO Label>  (22) 
nan

$$$$

     RDKit          2D

 34 37  0  0  0  0  0  0  0  0999 V2000
   -2.5242   -4.8694    0.0000 O   0  0  0  0  0  0  0  0  0  0  0  0
   -1.3515   -3.9342    0.0000 C   0  0  0  0  0  0  0  0  0  0  0  0
   -0.0000   -4.5850    0.0000 C   0  0  0  0  0  0  0  0  0  0  0  0
    1.3515   -3.9342    0.0000 C   0  0  0  0  0  0  0  0  0  0  0  0
    2.5242   -4.8694    0.0000 C   0  0  0  0  0  0  0  0  0  0  0  0
    3.6969   -5.8046    0.0000 F   0  0  0  0  0  0  0  0  0  0  0  0
    1.5890   -6.0422    0.0000 F   0  0  0  0  0  0  0  0  0  0  0  0
    3.4594   -3.6967    0.0000 F   0  0  0  0  0  0  0  0  0  0  0  0
    1.6852   -2.4718    0.0000 N   0  0  0  0  0  0  0  0  0  0  0  0
    3.1476   -2.1380    0.0000 C   0  0  0  0  0  0  0  0  0  0  0  0
    3.5898   -0.7046    0.0000 O   0  0  0  0  0  0  0  0  0  0  0  0
    4.1679   -3.2376    0.0000 C   0  0  0  0  0  0  0  0  0  0  0  0
    5.6303   -2.9038    0.0000 N   0  0  0  0  0  4  0  0  0  0  0  0
    6.6505   -4.0034    0.0000 C   0  0  0  0  0  0  0  0  0  0  0  0
    8.1129   -3.6696    0.0000 C   0  0  0  0  0  0  0  0  0  0  0  0
    9.1332   -4.7692    0.0000 C   0  0  0  0  0  0  0  0  0  0  0  0
   10.5956   -4.4354    0.0000 C   0  0  0  0  0  0  0  0  0  0  0  0
   11.0377   -3.0020    0.0000 C   0  0  0  0  0  0  0  0  0  0  0  0
   12.5001   -2.6683    0.0000 C   0  0  0  0  0  0  0  0  0  0  0  0
   13.9625   -2.3345    0.0000 F   0  0  0  0  0  0  0  0  0  0  0  0
   12.8339   -4.1306    0.0000 F   0  0  0  0  0  0  0  0  0  0  0  0
   12.1663   -1.2059    0.0000 F   0  0  0  0  0  0  0  0  0  0  0  0
   10.0175   -1.9025    0.0000 C   0  0  0  0  0  0  0  0  0  0  0  0
    8.5551   -2.2362    0.0000 C   0  0  0  0  0  0  0  0  0  0  0  0
    6.0724   -1.4704    0.0000 C   0  0  0  0  0  0  0  0  0  0  0  0
    5.7386   -0.0080    0.0000 C   0  0  0  0  0  0  0  0  0  0  0  0
    7.1720   -0.4502    0.0000 C   0  0  0  0  0  0  0  0  0  0  0  0
    0.7500   -1.2990    0.0000 C   0  0  0  0  0  0  0  0  0  0  0  0
    1.5000    0.0000    0.0000 C   0  0  0  0  0  0  0  0  0  0  0  0
    0.7500    1.2990    0.0000 C   0  0  0  0  0  0  0  0  0  0  0  0
   -0.7500    1.2990    0.0000 C   0  0  0  0  0  0  0  0  0  0  0  0
   -1.5000    0.0000    0.0000 C   0  0  0  0  0  0  0  0  0  0  0  0
   -0.7500   -1.2990    0.0000 C   0  0  0  0  0  0  0  0  0  0  0  0
   -1.6852   -2.4718    0.0000 N   0  0  0  0  0  0  0  0  0  0  0  0
  1  2  2  0
  2  3  1  0
  3  4  1  0
  4  5  1  1
  5  6  1  0
  5  7  1  0
  5  8  1  0
  4  9  1  0
  9 10  1  0
 10 11  2  0
 10 12  1  0
 12 13  1  0
 13 14  1  0
 14 15  1  0
 15 16  2  0
 16 17  1  0
 17 18  2  0
 18 19  1  0
 19 20  1  0
 19 21  1  0
 19 22  1  0
 18 23  1  0
 23 24  2  0
 13 25  1  0
 25 26  1  0
 26 27  1  0
  9 28  1  0
 28 29  2  0
 29 30  1  0
 30 31  2  0
 31 32  1  0
 32 33  2  0
 33 34  1  0
 34  2  1  0
 24 15  1  0
 27 25  1  0
 33 28  1  0
M  CHG  1  13   1
M  END
>  <Compound_ID>  (23) 
C46583187

>  <Active>  (23) 
0

>  <Smiles>  (23) 
O=C1C[C@H](C(F)(F)F)N(C(=O)C[NH+](Cc2ccc(C(F)(F)F)cc2)C2CC2)c2ccccc2N1

>  <canonical_smi>  (23) 
O=C1C[C@H](C(F)(F)F)N(C(=O)C[NH+](Cc2ccc(C(F)(F)F)cc2)C2CC2)c2ccccc2N1

>  <Set>  (23) 
G2 inactive

>  <Set_type>  (23) 
Train

>  <MW>  (23) 
486.44

>  <HBD>  (23) 
2

>  <HBA>  (23) 
2

>  <NRB>  (23) 
5

>  <NR>  (23) 
4

>  <NAR>  (23) 
2

>  <PSA>  (23) 
53.85

>  <Standard Type>  (23) 
nan

>  <Standard Relation>  (23) 
nan

>  <Standard Units>  (23) 
nan

>  <Standard Value>  (23) 
nan

>  <Assay ChEMBL ID>  (23) 
nan

>  <Assay Description>  (23) 
nan

>  <BAO Label>  (23) 
nan

$$$$

     RDKit          2D

 38 42  0  0  0  0  0  0  0  0999 V2000
    1.0866   -6.6381    0.0000 C   0  0  0  0  0  0  0  0  0  0  0  0
    1.5000   -5.1962    0.0000 C   0  0  0  0  0  0  0  0  0  0  0  0
    0.7500   -3.8971    0.0000 C   0  0  0  0  0  0  0  0  0  0  0  0
    1.5000   -2.5981    0.0000 C   0  0  0  0  0  0  0  0  0  0  0  0
    1.2803   -1.8318    0.0000 O   0  0  0  0  0  0  0  0  0  0  0  0
    3.0000   -2.5981    0.0000 C   0  0  0  0  0  0  0  0  0  0  0  0
    3.7500   -1.2990    0.0000 C   0  0  0  0  0  0  0  0  0  0  0  0
    5.2500   -1.2990    0.0000 C   0  0  0  0  0  0  0  0  0  0  0  0
    6.0000   -2.5981    0.0000 C   0  0  0  0  0  0  0  0  0  0  0  0
    5.2500   -3.8971    0.0000 C   0  0  0  0  0  0  0  0  0  0  0  0
    6.0000   -5.1962    0.0000 N   0  0  0  0  0  4  0  0  0  0  0  0
    5.2500   -6.4952    0.0000 O   0  0  0  0  0  0  0  0  0  0  0  0
    7.5000   -5.1962    0.0000 O   0  0  0  0  0  1  0  0  0  0  0  0
    3.7500   -3.8971    0.0000 C   0  0  0  0  0  0  0  0  0  0  0  0
   -0.7500   -3.8971    0.0000 N   0  0  0  0  0  4  0  0  0  0  0  0
   -1.5000   -2.5981    0.0000 C   0  0  0  0  0  0  0  0  0  0  0  0
   -0.7500   -1.2990    0.0000 C   0  0  0  0  0  0  0  0  0  0  0  0
    0.7500   -1.2990    0.0000 C   0  0  0  0  0  0  0  0  0  0  0  0
    1.5000   -0.0000    0.0000 C   0  0  0  0  0  0  0  0  0  0  0  0
    0.7500    1.2990    0.0000 C   0  0  0  0  0  0  0  0  0  0  0  0
   -0.7500    1.2990    0.0000 C   0  0  0  0  0  0  0  0  0  0  0  0
   -1.5000    0.0000    0.0000 C   0  0  0  0  0  0  0  0  0  0  0  0
   -3.0000   -2.5981    0.0000 C   0  0  0  0  0  0  0  0  0  0  0  0
   -3.7500   -3.8971    0.0000 C   0  0  0  0  0  0  0  0  0  0  0  0
   -5.2500   -3.8971    0.0000 C   0  0  0  0  0  0  0  0  0  0  0  0
   -6.0000   -2.5981    0.0000 C   0  0  0  0  0  0  0  0  0  0  0  0
   -7.5000   -2.5981    0.0000 C   0  0  0  0  0  0  0  0  0  0  0  0
   -8.2500   -3.8971    0.0000 C   0  0  0  0  0  0  0  0  0  0  0  0
   -7.5000   -5.1962    0.0000 C   0  0  0  0  0  0  0  0  0  0  0  0
   -6.0000   -5.1962    0.0000 C   0  0  0  0  0  0  0  0  0  0  0  0
   -3.0000   -5.1962    0.0000 C   0  0  0  0  0  0  0  0  0  0  0  0
   -1.5000   -5.1962    0.0000 C   0  0  0  0  0  0  0  0  0  0  0  0
   -0.7500   -6.4952    0.0000 C   0  0  0  0  0  0  0  0  0  0  0  0
   -1.5000   -7.7942    0.0000 C   0  0  0  0  0  0  0  0  0  0  0  0
   -0.7500   -9.0933    0.0000 C   0  0  0  0  0  0  0  0  0  0  0  0
    0.7500   -9.0933    0.0000 C   0  0  0  0  0  0  0  0  0  0  0  0
    1.5000   -7.7942    0.0000 C   0  0  0  0  0  0  0  0  0  0  0  0
    0.7500   -6.4952    0.0000 C   0  0  0  0  0  0  0  0  0  0  0  0
  1  2  2  0
  3  2  1  6
  3  4  1  0
  4  5  1  6
  4  6  1  0
  6  7  2  0
  7  8  1  0
  8  9  2  0
  9 10  1  0
 10 11  1  0
 11 12  2  0
 11 13  1  0
 10 14  2  0
  3 15  1  0
 15 16  1  0
 16 17  1  0
 17 18  2  0
 18 19  1  0
 19 20  2  0
 20 21  1  0
 21 22  2  0
 16 23  2  0
 23 24  1  0
 24 25  1  0
 25 26  2  0
 26 27  1  0
 27 28  2  0
 28 29  1  0
 29 30  2  0
 24 31  2  0
 31 32  1  0
 32 33  1  0
 33 34  2  0
 34 35  1  0
 35 36  2  0
 36 37  1  0
 37 38  2  0
 14  6  1  0
 32 15  2  0
 38 33  1  0
 22 17  1  0
 30 25  1  0
M  CHG  3  11   1  13  -1  15   1
M  END
>  <Compound_ID>  (24) 
C15770724

>  <Active>  (24) 
0

>  <Smiles>  (24) 
C=C[C@@H]([C@H](O)c1cccc([N+](=O)[O-])c1)[n+]1c(-c2ccccc2)cc(-c2ccccc2)cc1-c1ccccc1

>  <canonical_smi>  (24) 
C=C[C@@H]([C@H](O)c1cccc([N+](=O)[O-])c1)[n+]1c(-c2ccccc2)cc(-c2ccccc2)cc1-c1ccccc1

>  <Set>  (24) 
G2 inactive

>  <Set_type>  (24) 
Train

>  <MW>  (24) 
499.59

>  <HBD>  (24) 
1

>  <HBA>  (24) 
3

>  <NRB>  (24) 
8

>  <NR>  (24) 
5

>  <NAR>  (24) 
5

>  <PSA>  (24) 
67.25

>  <Standard Type>  (24) 
nan

>  <Standard Relation>  (24) 
nan

>  <Standard Units>  (24) 
nan

>  <Standard Value>  (24) 
nan

>  <Assay ChEMBL ID>  (24) 
nan

>  <Assay Description>  (24) 
nan

>  <BAO Label>  (24) 
nan

$$$$

     RDKit          2D

 32 35  0  0  0  0  0  0  0  0999 V2000
   -8.0346   -6.1741    0.0000 C   0  0  0  0  0  0  0  0  0  0  0  0
   -6.9199   -7.1778    0.0000 C   0  0  0  0  0  0  0  0  0  0  0  0
   -5.4933   -6.7143    0.0000 C   0  0  0  0  0  0  0  0  0  0  0  0
   -5.1814   -5.2471    0.0000 C   0  0  0  0  0  0  0  0  0  0  0  0
   -3.7548   -4.7835    0.0000 C   0  0  0  0  0  0  0  0  0  0  0  0
   -2.6401   -5.7872    0.0000 C   0  0  0  0  0  0  0  0  0  0  0  0
   -1.2135   -5.3237    0.0000 C   0  0  0  0  0  0  0  0  0  0  0  0
   -0.7500   -3.8971    0.0000 C   0  0  0  0  0  0  0  0  0  0  0  0
    0.7500   -3.8971    0.0000 C   0  0  0  0  0  0  0  0  0  0  0  0
    1.5000   -2.5981    0.0000 O   0  0  0  0  0  0  0  0  0  0  0  0
    0.7500   -1.2990    0.0000 C   0  0  0  0  0  0  0  0  0  0  0  0
    1.5000    0.0000    0.0000 C   0  0  0  0  0  0  0  0  0  0  0  0
    0.7500    1.2990    0.0000 C   0  0  0  0  0  0  0  0  0  0  0  0
   -0.7500    1.2990    0.0000 C   0  0  0  0  0  0  0  0  0  0  0  0
   -1.5000    2.5981    0.0000 Br  0  0  0  0  0  0  0  0  0  0  0  0
   -1.5000    0.0000    0.0000 C   0  0  0  0  0  0  0  0  0  0  0  0
   -0.7500   -1.2990    0.0000 C   0  0  0  0  0  0  0  0  0  0  0  0
   -1.5000   -2.5981    0.0000 C   0  0  0  0  0  0  0  0  0  0  0  0
   -3.0000   -2.5981    0.0000 O   0  0  0  0  0  0  0  0  0  0  0  0
    1.2135   -5.3237    0.0000 C   0  0  0  0  0  0  0  0  0  0  0  0
    2.6401   -5.7872    0.0000 O   0  0  0  0  0  0  0  0  0  0  0  0
   -0.0000   -6.2054    0.0000 N   0  0  0  0  0  0  0  0  0  0  0  0
   -0.0000   -7.7054    0.0000 C   0  0  0  0  0  0  0  0  0  0  0  0
    1.2990   -8.4554    0.0000 C   0  0  0  0  0  0  0  0  0  0  0  0
    1.2990   -9.9554    0.0000 C   0  0  0  0  0  0  0  0  0  0  0  0
    2.5981  -10.7054    0.0000 N   0  0  0  0  0  4  0  0  0  0  0  0
    2.5981  -12.2054    0.0000 C   0  0  0  0  0  0  0  0  0  0  0  0
    3.8971  -12.9554    0.0000 C   0  0  0  0  0  0  0  0  0  0  0  0
    3.8971   -9.9554    0.0000 C   0  0  0  0  0  0  0  0  0  0  0  0
    5.1962  -10.7054    0.0000 C   0  0  0  0  0  0  0  0  0  0  0  0
   -2.9520   -7.2544    0.0000 C   0  0  0  0  0  0  0  0  0  0  0  0
   -4.3786   -7.7180    0.0000 C   0  0  0  0  0  0  0  0  0  0  0  0
  1  2  1  0
  2  3  1  0
  3  4  2  0
  4  5  1  0
  5  6  2  0
  7  6  1  1
  7  8  1  0
  8  9  2  0
  9 10  1  0
 10 11  1  0
 11 12  2  0
 12 13  1  0
 13 14  2  0
 14 15  1  0
 14 16  1  0
 16 17  2  0
 17 18  1  0
 18 19  2  0
  9 20  1  0
 20 21  2  0
 20 22  1  0
 22 23  1  0
 23 24  1  0
 24 25  1  0
 25 26  1  0
 26 27  1  0
 27 28  1  0
 26 29  1  0
 29 30  1  0
  6 31  1  0
 31 32  2  0
 32  3  1  0
 22  7  1  0
 18  8  1  0
 17 11  1  0
M  CHG  1  26   1
M  END
>  <Compound_ID>  (25) 
C40008602

>  <Active>  (25) 
0

>  <Smiles>  (25) 
CCc1ccc([C@H]2c3c(oc4ccc(Br)cc4c3=O)C(=O)N2CCC[NH+](CC)CC)cc1

>  <canonical_smi>  (25) 
CCc1ccc([C@H]2c3c(oc4ccc(Br)cc4c3=O)C(=O)N2CCC[NH+](CC)CC)cc1

>  <Set>  (25) 
G2 inactive

>  <Set_type>  (25) 
Train

>  <MW>  (25) 
498.44

>  <HBD>  (25) 
1

>  <HBA>  (25) 
3

>  <NRB>  (25) 
8

>  <NR>  (25) 
4

>  <NAR>  (25) 
3

>  <PSA>  (25) 
54.96

>  <Standard Type>  (25) 
nan

>  <Standard Relation>  (25) 
nan

>  <Standard Units>  (25) 
nan

>  <Standard Value>  (25) 
nan

>  <Assay ChEMBL ID>  (25) 
nan

>  <Assay Description>  (25) 
nan

>  <BAO Label>  (25) 
nan

$$$$

     RDKit          2D

 36 40  0  0  0  0  0  0  0  0999 V2000
   -0.8607    7.2521    0.0000 C   0  0  0  0  0  0  0  0  0  0  0  0
   -1.5417    5.9156    0.0000 C   0  0  0  0  0  0  0  0  0  0  0  0
   -0.7248    4.6576    0.0000 C   0  0  0  0  0  0  0  0  0  0  0  0
    0.2789    5.7723    0.0000 C   0  0  0  0  0  0  0  0  0  0  0  0
   -2.1513    4.1941    0.0000 C   0  0  0  0  0  0  0  0  0  0  0  0
   -2.8323    2.8576    0.0000 C   0  0  0  0  0  0  0  0  0  0  0  0
   -4.3277    2.9753    0.0000 O   0  0  0  0  0  0  0  0  0  0  0  0
   -4.9735    4.3291    0.0000 C   0  0  0  0  0  0  0  0  0  0  0  0
   -4.1239    5.5653    0.0000 O   0  0  0  0  0  0  0  0  0  0  0  0
   -6.4688    4.4468    0.0000 C   0  0  0  0  0  0  0  0  0  0  0  0
   -7.1146    5.8007    0.0000 S   0  0  0  0  0  0  0  0  0  0  0  0
   -8.6100    5.9184    0.0000 C   0  0  0  0  0  0  0  0  0  0  0  0
   -9.2557    7.2723    0.0000 C   0  0  0  0  0  0  0  0  0  0  0  0
  -10.7511    7.3900    0.0000 C   0  0  0  0  0  0  0  0  0  0  0  0
  -12.2097    7.0398    0.0000 C   0  0  0  0  0  0  0  0  0  0  0  0
  -12.3274    5.5444    0.0000 C   0  0  0  0  0  0  0  0  0  0  0  0
  -10.9415    4.9704    0.0000 C   0  0  0  0  0  0  0  0  0  0  0  0
   -9.4596    4.6822    0.0000 C   0  0  0  0  0  0  0  0  0  0  0  0
   -9.9674    6.1110    0.0000 N   0  0  0  0  0  4  0  0  0  0  0  0
   -9.2114    5.8580    0.0000 C   0  0  0  0  0  0  0  0  0  0  0  0
   -2.3688    1.4310    0.0000 C   0  0  0  0  0  0  0  0  0  0  0  0
   -3.5094    0.4568    0.0000 C   0  0  0  0  0  0  0  0  0  0  0  0
   -2.0781    2.9127    0.0000 C   0  0  0  0  0  0  0  0  0  0  0  0
   -3.3143    3.7624    0.0000 C   0  0  0  0  0  0  0  0  0  0  0  0
   -0.7242    3.5585    0.0000 C   0  0  0  0  0  0  0  0  0  0  0  0
    0.5120    2.7089    0.0000 C   0  0  0  0  0  0  0  0  0  0  0  0
    0.3943    1.2135    0.0000 C   0  0  0  0  0  0  0  0  0  0  0  0
    1.2760    0.0000    0.0000 C   0  0  0  0  0  0  0  0  0  0  0  0
    0.3943   -1.2135    0.0000 C   0  0  0  0  0  0  0  0  0  0  0  0
   -1.0323   -0.7500    0.0000 C   0  0  0  0  0  0  0  0  0  0  0  0
   -2.2458   -1.6317    0.0000 O   0  0  0  0  0  0  0  0  0  0  0  0
   -1.0323    0.7500    0.0000 C   0  0  0  0  0  0  0  0  0  0  0  0
    1.0753    2.5500    0.0000 C   0  0  0  0  0  0  0  0  0  0  0  0
    2.5707    2.4323    0.0000 C   0  0  0  0  0  0  0  0  0  0  0  0
    0.6118    3.9766    0.0000 C   0  0  0  0  0  0  0  0  0  0  0  0
    1.7524    4.9508    0.0000 O   0  0  0  0  0  0  0  0  0  0  0  0
  1  2  2  0
  2  3  1  0
  3  4  1  6
  3  5  1  0
  5  6  1  0
  6  7  1  6
  7  8  1  0
  8  9  2  0
  8 10  1  0
 10 11  1  0
 11 12  1  0
 12 13  1  0
 14 13  1  6
 14 15  1  0
 15 16  1  0
 17 16  1  6
 17 18  1  0
 17 19  1  0
 19 20  1  0
  6 21  1  0
 21 22  1  1
 21 23  1  0
 23 24  1  6
 23 25  1  0
 25 26  1  0
 27 26  1  1
 27 28  1  0
 28 29  1  0
 29 30  1  0
 30 31  2  0
 32 30  1  1
 27 33  1  0
 33 34  1  6
 33 35  1  0
 35 36  1  1
 35  3  1  0
 18 12  1  0
 32 21  1  0
 19 14  1  0
 32 27  1  0
M  CHG  1  19   1
M  END
>  <Compound_ID>  (26) 
C29051126

>  <Active>  (26) 
0

>  <Smiles>  (26) 
C=C[C@]1(C)C[C@@H](OC(=O)CSC2C[C@H]3CC[C@@H](C2)[NH+]3C)[C@]2(C)[C@H](C)CC[C@]3(CCC(=O)[C@H]32)[C@@H](C)[C@@H]1O

>  <canonical_smi>  (26) 
C=C[C@]1(C)C[C@@H](OC(=O)CSC2C[C@@H]3CC[C@H](C2)[NH+]3C)[C@]2(C)[C@H](C)CC[C@]3(CCC(=O)[C@H]32)[C@@H](C)[C@@H]1O

>  <Set>  (26) 
G2 inactive

>  <Set_type>  (26) 
Train

>  <MW>  (26) 
518.78

>  <HBD>  (26) 
2

>  <HBA>  (26) 
5

>  <NRB>  (26) 
5

>  <NR>  (26) 
5

>  <NAR>  (26) 
0

>  <PSA>  (26) 
68.04

>  <Standard Type>  (26) 
nan

>  <Standard Relation>  (26) 
nan

>  <Standard Units>  (26) 
nan

>  <Standard Value>  (26) 
nan

>  <Assay ChEMBL ID>  (26) 
nan

>  <Assay Description>  (26) 
nan

>  <BAO Label>  (26) 
nan

$$$$

     RDKit          2D

 33 38  0  0  0  0  0  0  0  0999 V2000
   -5.5921   -2.7382    0.0000 C   0  0  0  0  0  0  0  0  0  0  0  0
   -5.5921   -4.2382    0.0000 N   0  0  0  0  0  4  0  0  0  0  0  0
   -6.8056   -5.1199    0.0000 C   0  0  0  0  0  0  0  0  0  0  0  0
   -6.3421   -6.5465    0.0000 C   0  0  0  0  0  0  0  0  0  0  0  0
   -4.8421   -6.5465    0.0000 C   0  0  0  0  0  0  0  0  0  0  0  0
   -4.3786   -5.1199    0.0000 C   0  0  0  0  0  0  0  0  0  0  0  0
   -2.9520   -4.6564    0.0000 C   0  0  0  0  0  0  0  0  0  0  0  0
   -2.6401   -3.1891    0.0000 C   0  0  0  0  0  0  0  0  0  0  0  0
   -1.2135   -2.7256    0.0000 N   0  0  0  0  0  0  0  0  0  0  0  0
   -0.0000   -3.6073    0.0000 C   0  0  0  0  0  0  0  0  0  0  0  0
    1.2135   -2.7256    0.0000 C   0  0  0  0  0  0  0  0  0  0  0  0
    2.6401   -3.1891    0.0000 C   0  0  0  0  0  0  0  0  0  0  0  0
    3.8536   -2.3075    0.0000 C   0  0  0  0  0  0  0  0  0  0  0  0
    3.8536   -0.8075    0.0000 C   0  0  0  0  0  0  0  0  0  0  0  0
    2.6401    0.0742    0.0000 C   0  0  0  0  0  0  0  0  0  0  0  0
    3.1036    1.5008    0.0000 N   0  0  0  0  0  0  0  0  0  0  0  0
    4.6036    1.5008    0.0000 C   0  0  0  0  0  0  0  0  0  0  0  0
    5.6073    2.6155    0.0000 C   0  0  0  0  0  0  0  0  0  0  0  0
    7.0746    2.3036    0.0000 C   0  0  0  0  0  0  0  0  0  0  0  0
    7.5381    0.8771    0.0000 C   0  0  0  0  0  0  0  0  0  0  0  0
    6.5344   -0.2377    0.0000 C   0  0  0  0  0  0  0  0  0  0  0  0
    5.0672    0.0742    0.0000 C   0  0  0  0  0  0  0  0  0  0  0  0
    5.0672   -3.1891    0.0000 C   0  0  0  0  0  0  0  0  0  0  0  0
    6.4937   -2.7256    0.0000 O   0  0  0  0  0  0  0  0  0  0  0  0
    4.6036   -4.6157    0.0000 N   0  0  0  0  0  0  0  0  0  0  0  0
    3.1036   -4.6157    0.0000 C   0  0  0  0  0  0  0  0  0  0  0  0
    2.2220   -5.8293    0.0000 O   0  0  0  0  0  0  0  0  0  0  0  0
    0.7500   -1.2990    0.0000 C   0  0  0  0  0  0  0  0  0  0  0  0
    1.5000    0.0000    0.0000 C   0  0  0  0  0  0  0  0  0  0  0  0
    0.7500    1.2990    0.0000 C   0  0  0  0  0  0  0  0  0  0  0  0
   -0.7500    1.2990    0.0000 C   0  0  0  0  0  0  0  0  0  0  0  0
   -1.5000    0.0000    0.0000 C   0  0  0  0  0  0  0  0  0  0  0  0
   -0.7500   -1.2990    0.0000 C   0  0  0  0  0  0  0  0  0  0  0  0
  1  2  1  0
  2  3  1  0
  3  4  1  0
  4  5  1  0
  5  6  1  0
  6  7  1  1
  7  8  1  0
  8  9  1  0
  9 10  1  0
 10 11  2  0
 11 12  1  0
 12 13  2  0
 13 14  1  0
 14 15  2  0
 15 16  1  0
 16 17  1  0
 17 18  2  0
 18 19  1  0
 19 20  2  0
 20 21  1  0
 21 22  2  0
 13 23  1  0
 23 24  2  0
 23 25  1  0
 25 26  1  0
 26 27  2  0
 11 28  1  0
 28 29  2  0
 29 30  1  0
 30 31  2  0
 31 32  1  0
 32 33  2  0
  6  2  1  0
 33  9  1  0
 26 12  1  0
 33 28  1  0
 22 14  1  0
 22 17  1  0
M  CHG  1   2   1
M  END
>  <Compound_ID>  (27) 
C02560260

>  <Active>  (27) 
0

>  <Smiles>  (27) 
C[NH+]1CCC[C@@H]1CCn1cc(C2=C(c3c[nH]c4ccccc34)C(=O)NC2=O)c2ccccc21

>  <canonical_smi>  (27) 
C[NH+]1CCC[C@@H]1CCn1cc(C2=C(c3c[nH]c4ccccc34)C(=O)NC2=O)c2ccccc21

>  <Set>  (27) 
G2 inactive

>  <Set_type>  (27) 
Train

>  <MW>  (27) 
439.54

>  <HBD>  (27) 
3

>  <HBA>  (27) 
2

>  <NRB>  (27) 
5

>  <NR>  (27) 
6

>  <NAR>  (27) 
4

>  <PSA>  (27) 
71.33

>  <Standard Type>  (27) 
nan

>  <Standard Relation>  (27) 
nan

>  <Standard Units>  (27) 
nan

>  <Standard Value>  (27) 
nan

>  <Assay ChEMBL ID>  (27) 
nan

>  <Assay Description>  (27) 
nan

>  <BAO Label>  (27) 
nan

$$$$

     RDKit          2D

 35 37  0  0  0  0  0  0  0  0999 V2000
    0.7500   -6.4952    0.0000 C   0  0  0  0  0  0  0  0  0  0  0  0
    1.5000   -5.1962    0.0000 C   0  0  0  0  0  0  0  0  0  0  0  0
    0.7500   -3.8971    0.0000 C   0  0  0  0  0  0  0  0  0  0  0  0
    1.5000   -2.5981    0.0000 N   0  0  0  0  0  0  0  0  0  0  0  0
    0.7500   -1.2990    0.0000 C   0  0  0  0  0  0  0  0  0  0  0  0
    1.5000    0.0000    0.0000 C   0  0  0  0  0  0  0  0  0  0  0  0
    0.7500    1.2990    0.0000 C   0  0  0  0  0  0  0  0  0  0  0  0
    1.5000    2.5981    0.0000 Cl  0  0  0  0  0  0  0  0  0  0  0  0
   -0.7500    1.2990    0.0000 C   0  0  0  0  0  0  0  0  0  0  0  0
   -1.5000    0.0000    0.0000 C   0  0  0  0  0  0  0  0  0  0  0  0
   -0.7500   -1.2990    0.0000 C   0  0  0  0  0  0  0  0  0  0  0  0
   -1.5000   -2.5981    0.0000 C   0  0  0  0  0  0  0  0  0  0  0  0
   -3.0000   -2.5981    0.0000 O   0  0  0  0  0  0  0  0  0  0  0  0
   -0.7500   -3.8971    0.0000 N   0  0  0  0  0  0  0  0  0  0  0  0
   -1.5000   -5.1962    0.0000 C   0  0  0  0  0  0  0  0  0  0  0  0
    3.0000   -5.1962    0.0000 N   0  0  0  0  0  0  0  0  0  0  0  0
    3.7500   -6.4952    0.0000 C   0  0  0  0  0  0  0  0  0  0  0  0
    5.2500   -6.4952    0.0000 C   0  0  0  0  0  0  0  0  0  0  0  0
    6.0000   -7.7942    0.0000 C   0  0  0  0  0  0  0  0  0  0  0  0
    7.5000   -7.7942    0.0000 C   0  0  0  0  0  0  0  0  0  0  0  0
    8.2500   -9.0933    0.0000 C   0  0  0  0  0  0  0  0  0  0  0  0
    9.7500   -9.0933    0.0000 C   0  0  0  0  0  0  0  0  0  0  0  0
   10.5000  -10.3923    0.0000 N   0  0  0  0  0  4  0  0  0  0  0  0
    3.7500   -3.8971    0.0000 C   0  0  0  0  0  0  0  0  0  0  0  0
    3.0000   -2.5981    0.0000 O   0  0  0  0  0  0  0  0  0  0  0  0
    5.2500   -3.8971    0.0000 C   0  0  0  0  0  0  0  0  0  0  0  0
    6.0000   -5.1962    0.0000 C   0  0  0  0  0  0  0  0  0  0  0  0
    7.5000   -5.1962    0.0000 C   0  0  0  0  0  0  0  0  0  0  0  0
    8.2500   -3.8971    0.0000 C   0  0  0  0  0  0  0  0  0  0  0  0
    9.7500   -3.8971    0.0000 N   0  0  0  0  0  4  0  0  0  0  0  0
   10.5000   -2.5981    0.0000 O   0  0  0  0  0  0  0  0  0  0  0  0
   10.5000   -5.1962    0.0000 O   0  0  0  0  0  1  0  0  0  0  0  0
    7.5000   -2.5981    0.0000 C   0  0  0  0  0  0  0  0  0  0  0  0
    6.0000   -2.5981    0.0000 C   0  0  0  0  0  0  0  0  0  0  0  0
    5.2500   -1.2990    0.0000 Cl  0  0  0  0  0  0  0  0  0  0  0  0
  2  1  1  6
  2  3  1  0
  3  4  2  0
  4  5  1  0
  5  6  2  0
  6  7  1  0
  7  8  1  0
  7  9  2  0
  9 10  1  0
 10 11  2  0
 11 12  1  0
 12 13  2  0
 12 14  1  0
 14 15  1  0
  2 16  1  0
 16 17  1  0
 17 18  1  0
 18 19  1  0
 19 20  1  0
 20 21  1  0
 21 22  1  0
 22 23  1  0
 16 24  1  0
 24 25  2  0
 24 26  1  0
 26 27  2  0
 27 28  1  0
 28 29  2  0
 29 30  1  0
 30 31  2  0
 30 32  1  0
 29 33  1  0
 33 34  2  0
 34 35  1  0
 14  3  1  0
 34 26  1  0
 11  5  1  0
M  CHG  3  23   1  30   1  32  -1
M  END
>  <Compound_ID>  (28) 
C35743750

>  <Active>  (28) 
0

>  <Smiles>  (28) 
C[C@H](c1nc2cc(Cl)ccc2c(=O)n1C)N(CCCCCC[NH3+])C(=O)c1ccc([N+](=O)[O-])cc1Cl

>  <canonical_smi>  (28) 
C[C@H](c1nc2cc(Cl)ccc2c(=O)n1C)N(CCCCCC[NH3+])C(=O)c1ccc([N+](=O)[O-])cc1Cl

>  <Set>  (28) 
G2 inactive

>  <Set_type>  (28) 
Train

>  <MW>  (28) 
521.43

>  <HBD>  (28) 
1

>  <HBA>  (28) 
5

>  <NRB>  (28) 
10

>  <NR>  (28) 
3

>  <NAR>  (28) 
3

>  <PSA>  (28) 
125.98

>  <Standard Type>  (28) 
nan

>  <Standard Relation>  (28) 
nan

>  <Standard Units>  (28) 
nan

>  <Standard Value>  (28) 
nan

>  <Assay ChEMBL ID>  (28) 
nan

>  <Assay Description>  (28) 
nan

>  <BAO Label>  (28) 
nan

$$$$

     RDKit          2D

 38 42  0  0  0  0  0  0  0  0999 V2000
   -3.0000  -10.3923    0.0000 C   0  0  0  0  0  0  0  0  0  0  0  0
   -1.5000  -10.3923    0.0000 O   0  0  0  0  0  0  0  0  0  0  0  0
   -0.7500   -9.0933    0.0000 C   0  0  0  0  0  0  0  0  0  0  0  0
   -1.5000   -7.7942    0.0000 O   0  0  0  0  0  0  0  0  0  0  0  0
    0.7500   -9.0933    0.0000 C   0  0  0  0  0  0  0  0  0  0  0  0
    1.5000  -10.3923    0.0000 C   0  0  0  0  0  0  0  0  0  0  0  0
    0.7500  -11.6913    0.0000 C   0  0  0  0  0  0  0  0  0  0  0  0
    1.3601  -13.0617    0.0000 C   0  0  0  0  0  0  0  0  0  0  0  0
    0.2454  -14.0654    0.0000 N   0  0  0  0  0  0  0  0  0  0  0  0
   -1.0537  -13.3154    0.0000 C   0  0  0  0  0  0  0  0  0  0  0  0
   -0.7418  -11.8481    0.0000 N   0  0  0  0  0  0  0  0  0  0  0  0
    1.5000   -7.7942    0.0000 N   0  0  0  0  0  0  0  0  0  0  0  0
    0.7500   -6.4952    0.0000 C   0  0  0  0  0  0  0  0  0  0  0  0
   -0.7500   -6.4952    0.0000 O   0  0  0  0  0  0  0  0  0  0  0  0
    1.5000   -5.1962    0.0000 C   0  0  0  0  0  0  0  0  0  0  0  0
    0.7500   -3.8971    0.0000 O   0  0  0  0  0  0  0  0  0  0  0  0
    1.5000   -2.5981    0.0000 N   0  0  0  0  0  0  0  0  0  0  0  0
    0.7500   -1.2990    0.0000 C   0  0  0  0  0  0  0  0  0  0  0  0
    1.5000    0.0000    0.0000 C   0  0  0  0  0  0  0  0  0  0  0  0
    0.7500    1.2990    0.0000 C   0  0  0  0  0  0  0  0  0  0  0  0
   -0.7500    1.2990    0.0000 C   0  0  0  0  0  0  0  0  0  0  0  0
    0.0000    2.5981    0.0000 C   0  0  0  0  0  0  0  0  0  0  0  0
   -1.5000    0.0000    0.0000 C   0  0  0  0  0  0  0  0  0  0  0  0
   -0.7500   -1.2990    0.0000 C   0  0  0  0  0  0  0  0  0  0  0  0
   -3.0000    0.0000    0.0000 C   0  0  0  0  0  0  0  0  0  0  0  0
   -3.7500    1.2990    0.0000 C   0  0  0  0  0  0  0  0  0  0  0  0
   -3.0000    2.5981    0.0000 C   0  0  0  0  0  0  0  0  0  0  0  0
   -1.5000    2.5981    0.0000 C   0  0  0  0  0  0  0  0  0  0  0  0
   -0.7500    3.8971    0.0000 C   0  0  0  0  0  0  0  0  0  0  0  0
   -1.5000    5.1962    0.0000 C   0  0  0  0  0  0  0  0  0  0  0  0
   -3.0000    5.1962    0.0000 C   0  0  0  0  0  0  0  0  0  0  0  0
   -2.2274    6.4819    0.0000 C   0  0  0  0  0  0  0  0  0  0  0  0
   -3.7500    3.8971    0.0000 C   0  0  0  0  0  0  0  0  0  0  0  0
   -5.2172    4.2090    0.0000 C   0  0  0  0  0  0  0  0  0  0  0  0
   -5.3740    5.7008    0.0000 C   0  0  0  0  0  0  0  0  0  0  0  0
   -4.0037    6.3109    0.0000 C   0  0  0  0  0  0  0  0  0  0  0  0
   -4.7537    7.6099    0.0000 C   0  0  0  0  0  0  0  0  0  0  0  0
   -2.9067    7.3339    0.0000 O   0  0  0  0  0  0  0  0  0  0  0  0
  1  2  1  0
  2  3  1  0
  3  4  2  0
  3  5  1  0
  5  6  1  1
  6  7  1  0
  7  8  2  0
  8  9  1  0
  9 10  2  0
 10 11  1  0
  5 12  1  0
 12 13  1  0
 13 14  2  0
 13 15  1  0
 15 16  1  0
 16 17  1  0
 17 18  2  0
 18 19  1  0
 19 20  2  0
 20 21  1  0
 21 22  1  1
 21 23  1  0
 23 24  2  0
 23 25  1  0
 25 26  1  0
 27 26  1  6
 27 28  1  0
 28 29  1  1
 29 30  1  0
 30 31  1  0
 31 32  1  6
 31 33  1  0
 33 34  1  6
 34 35  1  0
 35 36  1  0
 36 37  1  6
 36 38  1  0
 11  7  1  0
 24 18  1  0
 33 27  1  0
 28 21  1  0
 36 31  1  0
M  END
>  <Compound_ID>  (29) 
C08914497

>  <Active>  (29) 
0

>  <Smiles>  (29) 
COC(=O)[C@H](Cc1cnc[nH]1)NC(=O)CO/N=C1/C=C[C@]2(C)C(=C1)CC[C@H]1[C@H]2CC[C@@]2(C)[C@H]1CC[C@@]2(C)O

>  <canonical_smi>  (29) 
COC(=O)[C@H](Cc1cnc[nH]1)NC(=O)CO/N=C1/C=C[C@]2(C)C(=C1)CC[C@@H]1[C@@H]3CC[C@@](C)(O)[C@@]3(C)CC[C@H]12

>  <Set>  (29) 
G2 inactive

>  <Set_type>  (29) 
Train

>  <MW>  (29) 
524.66

>  <HBD>  (29) 
3

>  <HBA>  (29) 
6

>  <NRB>  (29) 
7

>  <NR>  (29) 
5

>  <NAR>  (29) 
1

>  <PSA>  (29) 
125.9

>  <Standard Type>  (29) 
nan

>  <Standard Relation>  (29) 
nan

>  <Standard Units>  (29) 
nan

>  <Standard Value>  (29) 
nan

>  <Assay ChEMBL ID>  (29) 
nan

>  <Assay Description>  (29) 
nan

>  <BAO Label>  (29) 
nan

$$$$

     RDKit          2D

 39 41  0  0  0  0  0  0  0  0999 V2000
    6.0000   -0.0000    0.0000 C   0  0  0  0  0  0  0  0  0  0  0  0
    5.2500   -1.2990    0.0000 N   0  0  0  0  0  0  0  0  0  0  0  0
    3.7500   -1.2990    0.0000 C   0  0  0  0  0  0  0  0  0  0  0  0
    3.0000   -2.5981    0.0000 O   0  0  0  0  0  0  0  0  0  0  0  0
    3.0000    0.0000    0.0000 C   0  0  0  0  0  0  0  0  0  0  0  0
    1.5000    0.0000    0.0000 C   0  0  0  0  0  0  0  0  0  0  0  0
    0.7500   -1.2990    0.0000 C   0  0  0  0  0  0  0  0  0  0  0  0
    1.5000   -2.5981    0.0000 C   0  0  0  0  0  0  0  0  0  0  0  0
    0.7500   -3.8971    0.0000 C   0  0  0  0  0  0  0  0  0  0  0  0
   -0.7500   -3.8971    0.0000 C   0  0  0  0  0  0  0  0  0  0  0  0
   -1.5000   -2.5981    0.0000 C   0  0  0  0  0  0  0  0  0  0  0  0
   -0.7500   -1.2990    0.0000 C   0  0  0  0  0  0  0  0  0  0  0  0
    3.7500    1.2990    0.0000 C   0  0  0  0  0  0  0  0  0  0  0  0
    3.0000    2.5981    0.0000 C   0  0  0  0  0  0  0  0  0  0  0  0
    3.7500    3.8971    0.0000 C   0  0  0  0  0  0  0  0  0  0  0  0
    5.2500    3.8971    0.0000 C   0  0  0  0  0  0  0  0  0  0  0  0
    6.0000    2.5981    0.0000 C   0  0  0  0  0  0  0  0  0  0  0  0
    5.2500    1.2990    0.0000 C   0  0  0  0  0  0  0  0  0  0  0  0
    6.0000   -2.5981    0.0000 C   0  0  0  0  0  0  0  0  0  0  0  0
    5.2500   -3.8971    0.0000 C   0  0  0  0  0  0  0  0  0  0  0  0
    3.7500   -3.8971    0.0000 O   0  0  0  0  0  0  0  0  0  0  0  0
    6.0000   -5.1962    0.0000 N   0  0  0  0  0  0  0  0  0  0  0  0
    5.2500   -6.4952    0.0000 C   0  0  0  0  0  0  0  0  0  0  0  0
    6.5490   -7.2452    0.0000 C   0  0  0  0  0  0  0  0  0  0  0  0
    3.9510   -5.7452    0.0000 C   0  0  0  0  0  0  0  0  0  0  0  0
    4.5000   -7.7942    0.0000 C   0  0  0  0  0  0  0  0  0  0  0  0
    5.2500   -9.0933    0.0000 C   0  0  0  0  0  0  0  0  0  0  0  0
    3.9510   -9.8433    0.0000 C   0  0  0  0  0  0  0  0  0  0  0  0
    6.5490   -8.3433    0.0000 C   0  0  0  0  0  0  0  0  0  0  0  0
    6.0000  -10.3923    0.0000 C   0  0  0  0  0  0  0  0  0  0  0  0
    7.5000   -2.5981    0.0000 C   0  0  0  0  0  0  0  0  0  0  0  0
    8.2500   -3.8971    0.0000 C   0  0  0  0  0  0  0  0  0  0  0  0
    7.5000   -5.1962    0.0000 O   0  0  0  0  0  0  0  0  0  0  0  0
    9.7500   -3.8971    0.0000 C   0  0  0  0  0  0  0  0  0  0  0  0
   10.5000   -2.5981    0.0000 C   0  0  0  0  0  0  0  0  0  0  0  0
   12.0000   -2.5981    0.0000 O   0  0  0  0  0  0  0  0  0  0  0  0
    9.7500   -1.2990    0.0000 C   0  0  0  0  0  0  0  0  0  0  0  0
    8.2500   -1.2990    0.0000 C   0  0  0  0  0  0  0  0  0  0  0  0
    7.5000    0.0000    0.0000 O   0  0  0  0  0  0  0  0  0  0  0  0
  1  2  1  0
  2  3  1  0
  3  4  2  0
  3  5  1  0
  5  6  2  0
  6  7  1  0
  7  8  2  0
  8  9  1  0
  9 10  2  0
 10 11  1  0
 11 12  2  0
  5 13  1  0
 13 14  2  0
 14 15  1  0
 15 16  2  0
 16 17  1  0
 17 18  2  0
 19  2  1  1
 19 20  1  0
 20 21  2  0
 20 22  1  0
 22 23  1  0
 23 24  1  0
 23 25  1  0
 23 26  1  0
 26 27  1  0
 27 28  1  0
 27 29  1  0
 27 30  1  0
 19 31  1  0
 31 32  2  0
 32 33  1  0
 32 34  1  0
 34 35  2  0
 35 36  1  0
 35 37  1  0
 37 38  2  0
 38 39  1  0
 12  7  1  0
 18 13  1  0
 38 31  1  0
M  END
>  <Compound_ID>  (30) 
C36523166

>  <Active>  (30) 
0

>  <Smiles>  (30) 
CN(C(=O)/C(=C\c1ccccc1)c1ccccc1)[C@H](C(=O)NC(C)(C)CC(C)(C)C)c1c(O)cc(O)cc1O

>  <canonical_smi>  (30) 
CN(C(=O)/C(=C\c1ccccc1)c1ccccc1)[C@H](C(=O)NC(C)(C)CC(C)(C)C)c1c(O)cc(O)cc1O

>  <Set>  (30) 
G2 inactive

>  <Set_type>  (30) 
Train

>  <MW>  (30) 
530.67

>  <HBD>  (30) 
4

>  <HBA>  (30) 
5

>  <NRB>  (30) 
8

>  <NR>  (30) 
3

>  <NAR>  (30) 
3

>  <PSA>  (30) 
110.1

>  <Standard Type>  (30) 
nan

>  <Standard Relation>  (30) 
nan

>  <Standard Units>  (30) 
nan

>  <Standard Value>  (30) 
nan

>  <Assay ChEMBL ID>  (30) 
nan

>  <Assay Description>  (30) 
nan

>  <BAO Label>  (30) 
nan

$$$$

     RDKit          2D

 38 41  0  0  0  0  0  0  0  0999 V2000
    5.2500   -1.2990    0.0000 C   0  0  0  0  0  0  0  0  0  0  0  0
    3.7500   -1.2990    0.0000 C   0  0  0  0  0  0  0  0  0  0  0  0
    3.0000   -2.5981    0.0000 O   0  0  0  0  0  0  0  0  0  0  0  0
    3.0000    0.0000    0.0000 O   0  0  0  0  0  0  0  0  0  0  0  0
    1.5000    0.0000    0.0000 C   0  0  0  0  0  0  0  0  0  0  0  0
    0.7500   -1.2990    0.0000 C   0  0  0  0  0  0  0  0  0  0  0  0
   -0.7500   -1.2990    0.0000 C   0  0  0  0  0  0  0  0  0  0  0  0
   -1.5000    0.0000    0.0000 C   0  0  0  0  0  0  0  0  0  0  0  0
   -2.2500   -1.2990    0.0000 C   0  0  0  0  0  0  0  0  0  0  0  0
   -0.7500    1.2990    0.0000 C   0  0  0  0  0  0  0  0  0  0  0  0
    0.7500    1.2990    0.0000 C   0  0  0  0  0  0  0  0  0  0  0  0
   -1.5000    2.5981    0.0000 C   0  0  0  0  0  0  0  0  0  0  0  0
   -0.7500    3.8971    0.0000 O   0  0  0  0  0  0  0  0  0  0  0  0
   -3.0000    2.5981    0.0000 C   0  0  0  0  0  0  0  0  0  0  0  0
   -3.7500    1.2990    0.0000 C   0  0  0  0  0  0  0  0  0  0  0  0
   -3.0000    0.0000    0.0000 C   0  0  0  0  0  0  0  0  0  0  0  0
   -3.7500   -1.2990    0.0000 C   0  0  0  0  0  0  0  0  0  0  0  0
   -5.2500   -1.2990    0.0000 C   0  0  0  0  0  0  0  0  0  0  0  0
   -6.0000    0.0000    0.0000 C   0  0  0  0  0  0  0  0  0  0  0  0
   -6.8817   -1.2135    0.0000 C   0  0  0  0  0  0  0  0  0  0  0  0
   -7.4672    0.3119    0.0000 C   0  0  0  0  0  0  0  0  0  0  0  0
   -8.5819   -0.6918    0.0000 C   0  0  0  0  0  0  0  0  0  0  0  0
  -10.0085   -0.2283    0.0000 C   0  0  0  0  0  0  0  0  0  0  0  0
   -8.2701   -2.1590    0.0000 C   0  0  0  0  0  0  0  0  0  0  0  0
   -9.3848   -3.1627    0.0000 C   0  0  0  0  0  0  0  0  0  0  0  0
   -9.0729   -4.6300    0.0000 C   0  0  0  0  0  0  0  0  0  0  0  0
  -10.1876   -5.6337    0.0000 C   0  0  0  0  0  0  0  0  0  0  0  0
  -11.1913   -4.5189    0.0000 C   0  0  0  0  0  0  0  0  0  0  0  0
   -9.1839   -6.7484    0.0000 C   0  0  0  0  0  0  0  0  0  0  0  0
  -11.3024   -6.6374    0.0000 O   0  0  0  0  0  0  0  0  0  0  0  0
   -6.8435   -2.6226    0.0000 O   0  0  0  0  0  0  0  0  0  0  0  0
   -6.5316   -4.0898    0.0000 C   0  0  0  0  0  0  0  0  0  0  0  0
   -5.1050   -4.5533    0.0000 C   0  0  0  0  0  0  0  0  0  0  0  0
   -7.6463   -5.0935    0.0000 O   0  0  0  0  0  0  0  0  0  0  0  0
   -7.6240    1.8037    0.0000 C   0  0  0  0  0  0  0  0  0  0  0  0
   -6.2537    2.4138    0.0000 C   0  0  0  0  0  0  0  0  0  0  0  0
   -5.2500    1.2990    0.0000 C   0  0  0  0  0  0  0  0  0  0  0  0
   -4.6399    2.6694    0.0000 O   0  0  0  0  0  0  0  0  0  0  0  0
  1  2  1  0
  2  3  2  0
  2  4  1  0
  5  4  1  1
  5  6  1  0
  6  7  1  0
  7  8  1  0
  8  9  1  1
  8 10  1  0
 10 11  1  1
 10 12  1  0
 12 13  2  0
 12 14  1  0
 14 15  2  0
 15 16  1  0
 16 17  1  6
 17 18  1  0
 18 19  1  0
 19 20  1  6
 19 21  1  0
 21 22  1  0
 22 23  1  1
 22 24  1  0
 24 25  1  6
 25 26  1  0
 26 27  1  0
 27 28  1  0
 27 29  1  0
 27 30  1  0
 24 31  1  0
 31 32  1  0
 32 33  1  0
 32 34  2  0
 21 35  1  1
 35 36  1  0
 36 37  1  0
 37 38  1  1
 11  5  1  0
 37 15  1  0
 16  8  1  0
 37 19  1  0
M  END
>  <Compound_ID>  (31) 
C43867082

>  <Active>  (31) 
0

>  <Smiles>  (31) 
CC(=O)O[C@H]1CC[C@@]2(C)[C@H](C1)C(=O)C=C1[C@H]2CC[C@@]2(C)[C@@H]([C@H](C)[C@@H](CCC(C)(C)O)OC(C)=O)CC[C@]12O

>  <canonical_smi>  (31) 
CC(=O)O[C@H]1CC[C@@]2(C)[C@H](C1)C(=O)C=C1[C@H]2CC[C@@]2(C)[C@@H]([C@H](C)[C@@H](CCC(C)(C)O)OC(C)=O)CC[C@]12O

>  <Set>  (31) 
G2 inactive

>  <Set_type>  (31) 
Train

>  <MW>  (31) 
532.72

>  <HBD>  (31) 
2

>  <HBA>  (31) 
7

>  <NRB>  (31) 
7

>  <NR>  (31) 
4

>  <NAR>  (31) 
0

>  <PSA>  (31) 
110.13

>  <Standard Type>  (31) 
nan

>  <Standard Relation>  (31) 
nan

>  <Standard Units>  (31) 
nan

>  <Standard Value>  (31) 
nan

>  <Assay ChEMBL ID>  (31) 
nan

>  <Assay Description>  (31) 
nan

>  <BAO Label>  (31) 
nan

$$$$

     RDKit          2D

 28 30  0  0  0  0  0  0  0  0999 V2000
    5.4933   -4.1162    0.0000 O   0  0  0  0  0  0  0  0  0  0  0  0
    4.3786   -5.1199    0.0000 C   0  0  0  0  0  0  0  0  0  0  0  0
    4.6904   -6.5871    0.0000 C   0  0  0  0  0  0  0  0  0  0  0  0
    6.1170   -7.0506    0.0000 C   0  0  0  0  0  0  0  0  0  0  0  0
    6.4289   -8.5179    0.0000 C   0  0  0  0  0  0  0  0  0  0  0  0
    7.8555   -8.9814    0.0000 O   0  0  0  0  0  0  0  0  0  0  0  0
    8.1673  -10.4486    0.0000 C   0  0  0  0  0  0  0  0  0  0  0  0
    7.0526  -11.4523    0.0000 C   0  0  0  0  0  0  0  0  0  0  0  0
    7.3645  -12.9195    0.0000 C   0  0  0  0  0  0  0  0  0  0  0  0
    8.7911  -13.3831    0.0000 C   0  0  0  0  0  0  0  0  0  0  0  0
    9.1029  -14.8503    0.0000 Cl  0  0  0  0  0  0  0  0  0  0  0  0
    9.9058  -12.3794    0.0000 C   0  0  0  0  0  0  0  0  0  0  0  0
    9.5939  -10.9121    0.0000 C   0  0  0  0  0  0  0  0  0  0  0  0
   10.7086   -9.9084    0.0000 Cl  0  0  0  0  0  0  0  0  0  0  0  0
    2.9520   -4.6564    0.0000 N   0  0  0  0  0  0  0  0  0  0  0  0
    2.6401   -3.1891    0.0000 N   0  0  0  0  0  0  0  0  0  0  0  0
    1.2135   -2.7256    0.0000 C   0  0  0  0  0  0  0  0  0  0  0  0
    0.7500   -1.2990    0.0000 C   0  0  0  0  0  0  0  0  0  0  0  0
    1.5000    0.0000    0.0000 C   0  0  0  0  0  0  0  0  0  0  0  0
    0.7500    1.2990    0.0000 C   0  0  0  0  0  0  0  0  0  0  0  0
    1.5000    2.5981    0.0000 Cl  0  0  0  0  0  0  0  0  0  0  0  0
   -0.7500    1.2990    0.0000 C   0  0  0  0  0  0  0  0  0  0  0  0
   -1.5000    0.0000    0.0000 C   0  0  0  0  0  0  0  0  0  0  0  0
   -3.0000    0.0000    0.0000 Br  0  0  0  0  0  0  0  0  0  0  0  0
   -0.7500   -1.2990    0.0000 C   0  0  0  0  0  0  0  0  0  0  0  0
   -1.2135   -2.7256    0.0000 N   0  0  0  0  0  4  0  0  0  0  0  0
    0.0000   -3.6073    0.0000 C   0  0  0  0  0  0  0  0  0  0  0  0
    0.0000   -5.1073    0.0000 O   0  0  0  0  0  0  0  0  0  0  0  0
  1  2  2  0
  2  3  1  0
  3  4  1  0
  4  5  1  0
  5  6  1  0
  6  7  1  0
  7  8  2  0
  8  9  1  0
  9 10  2  0
 10 11  1  0
 10 12  1  0
 12 13  2  0
 13 14  1  0
  2 15  1  0
 15 16  1  0
 16 17  1  0
 17 18  2  0
 18 19  1  0
 19 20  2  0
 20 21  1  0
 20 22  1  0
 22 23  2  0
 23 24  1  0
 23 25  1  0
 25 26  2  0
 26 27  1  0
 27 28  2  0
 13  7  1  0
 27 17  1  0
 25 18  1  0
M  CHG  1  26   1
M  END
>  <Compound_ID>  (32) 
C02675531

>  <Active>  (32) 
0

>  <Smiles>  (32) 
O=C(CCCOc1ccc(Cl)cc1Cl)NNC1=c2cc(Cl)cc(Br)c2=[NH+]C1=O

>  <canonical_smi>  (32) 
O=C(CCCOc1ccc(Cl)cc1Cl)NNC1=c2cc(Cl)cc(Br)c2=[NH+]C1=O

>  <Set>  (32) 
G2 inactive

>  <Set_type>  (32) 
Train

>  <MW>  (32) 
506.59

>  <HBD>  (32) 
3

>  <HBA>  (32) 
4

>  <NRB>  (32) 
7

>  <NR>  (32) 
3

>  <NAR>  (32) 
2

>  <PSA>  (32) 
81.4

>  <Standard Type>  (32) 
nan

>  <Standard Relation>  (32) 
nan

>  <Standard Units>  (32) 
nan

>  <Standard Value>  (32) 
nan

>  <Assay ChEMBL ID>  (32) 
nan

>  <Assay Description>  (32) 
nan

>  <BAO Label>  (32) 
nan

$$$$

     RDKit          2D

 35 38  0  0  0  0  0  0  0  0999 V2000
    3.0000  -18.1865    0.0000 C   0  0  0  0  0  0  0  0  0  0  0  0
    3.7500  -16.8875    0.0000 C   0  0  0  0  0  0  0  0  0  0  0  0
    3.0000  -15.5885    0.0000 C   0  0  0  0  0  0  0  0  0  0  0  0
    3.7500  -14.2894    0.0000 C   0  0  0  0  0  0  0  0  0  0  0  0
    3.0000  -12.9904    0.0000 N   0  0  0  0  0  0  0  0  0  0  0  0
    3.7500  -11.6913    0.0000 C   0  0  0  0  0  0  0  0  0  0  0  0
    5.2500  -11.6913    0.0000 O   0  0  0  0  0  0  0  0  0  0  0  0
    3.0000  -10.3923    0.0000 N   0  0  0  0  0  0  0  0  0  0  0  0
    1.5000  -10.3923    0.0000 C   0  0  0  0  0  0  0  0  0  0  0  0
    0.7500   -9.0933    0.0000 C   0  0  0  0  0  0  0  0  0  0  0  0
    1.5000   -7.7942    0.0000 N   0  0  0  0  0  4  0  0  0  0  0  0
    0.7500   -6.4952    0.0000 C   0  0  0  0  0  0  0  0  0  0  0  0
    1.5000   -5.1962    0.0000 C   0  0  0  0  0  0  0  0  0  0  0  0
    0.7500   -3.8971    0.0000 N   0  0  0  0  0  0  0  0  0  0  0  0
    1.5000   -2.5981    0.0000 C   0  0  0  0  0  0  0  0  0  0  0  0
    0.7500   -1.2990    0.0000 C   0  0  0  0  0  0  0  0  0  0  0  0
    1.5000    0.0000    0.0000 C   0  0  0  0  0  0  0  0  0  0  0  0
    0.7500    1.2990    0.0000 C   0  0  0  0  0  0  0  0  0  0  0  0
   -0.7500    1.2990    0.0000 C   0  0  0  0  0  0  0  0  0  0  0  0
   -1.5000    0.0000    0.0000 C   0  0  0  0  0  0  0  0  0  0  0  0
   -0.7500   -1.2990    0.0000 C   0  0  0  0  0  0  0  0  0  0  0  0
   -0.0000   -0.0000    0.0000 C   0  0  0  0  0  0  0  0  0  0  0  0
    0.9829   -0.4793    0.0000 C   0  0  0  0  0  0  0  0  0  0  0  0
    0.9829    0.4793    0.0000 C   0  0  0  0  0  0  0  0  0  0  0  0
   -0.7500   -3.8971    0.0000 C   0  0  0  0  0  0  0  0  0  0  0  0
   -1.5000   -2.5981    0.0000 O   0  0  0  0  0  0  0  0  0  0  0  0
   -1.5000   -5.1962    0.0000 C   0  0  0  0  0  0  0  0  0  0  0  0
   -3.0000   -5.1962    0.0000 C   0  0  0  0  0  0  0  0  0  0  0  0
   -3.7500   -6.4952    0.0000 C   0  0  0  0  0  0  0  0  0  0  0  0
   -3.0000   -7.7942    0.0000 C   0  0  0  0  0  0  0  0  0  0  0  0
   -3.7500   -9.0933    0.0000 C   0  0  0  0  0  0  0  0  0  0  0  0
   -1.5000   -7.7942    0.0000 C   0  0  0  0  0  0  0  0  0  0  0  0
   -0.7500   -6.4952    0.0000 C   0  0  0  0  0  0  0  0  0  0  0  0
    3.0000   -7.7942    0.0000 C   0  0  0  0  0  0  0  0  0  0  0  0
    3.7500   -9.0933    0.0000 C   0  0  0  0  0  0  0  0  0  0  0  0
  1  2  1  0
  2  3  1  0
  3  4  1  0
  4  5  1  0
  5  6  1  0
  6  7  2  0
  6  8  1  0
  8  9  1  0
  9 10  1  0
 10 11  1  0
 11 12  1  0
 12 13  1  0
 13 14  1  0
 14 15  1  0
 15 16  1  0
 16 17  2  0
 17 18  1  0
 19 18  1  6
 19 20  1  0
 21 20  1  6
 21 22  1  0
 22 23  1  0
 22 24  1  0
 14 25  1  0
 25 26  2  0
 25 27  1  0
 27 28  2  0
 28 29  1  0
 29 30  2  0
 30 31  1  0
 30 32  1  0
 32 33  2  0
 11 34  1  0
 34 35  1  0
 35  8  1  0
 21 16  1  0
 33 27  1  0
 22 19  1  0
M  CHG  1  11   1
M  END
>  <Compound_ID>  (33) 
C34997860

>  <Active>  (33) 
0

>  <Smiles>  (33) 
CCCCNC(=O)N1CC[NH+](CCN(CC2=CC[C@H]3C[C@@H]2C3(C)C)C(=O)c2ccc(C)cc2)CC1

>  <canonical_smi>  (33) 
CCCCNC(=O)N1CC[NH+](CCN(CC2=CC[C@H]3C[C@@H]2C3(C)C)C(=O)c2ccc(C)cc2)CC1

>  <Set>  (33) 
G2 inactive

>  <Set_type>  (33) 
Train

>  <MW>  (33) 
481.71

>  <HBD>  (33) 
2

>  <HBA>  (33) 
2

>  <NRB>  (33) 
9

>  <NR>  (33) 
5

>  <NAR>  (33) 
1

>  <PSA>  (33) 
57.09

>  <Standard Type>  (33) 
nan

>  <Standard Relation>  (33) 
nan

>  <Standard Units>  (33) 
nan

>  <Standard Value>  (33) 
nan

>  <Assay ChEMBL ID>  (33) 
nan

>  <Assay Description>  (33) 
nan

>  <BAO Label>  (33) 
nan

$$$$

     RDKit          2D

 40 44  0  0  0  0  0  0  0  0999 V2000
    3.0000   -5.1962    0.0000 O   0  0  0  0  0  0  0  0  0  0  0  0
    1.5000   -5.1962    0.0000 C   0  0  0  0  0  0  0  0  0  0  0  0
    0.7500   -3.8971    0.0000 C   0  0  0  0  0  0  0  0  0  0  0  0
    1.5000   -2.5981    0.0000 O   0  0  0  0  0  0  0  0  0  0  0  0
    0.7500   -1.2990    0.0000 C   0  0  0  0  0  0  0  0  0  0  0  0
    1.5000    0.0000    0.0000 C   0  0  0  0  0  0  0  0  0  0  0  0
    0.7500    1.2990    0.0000 C   0  0  0  0  0  0  0  0  0  0  0  0
   -0.7500    1.2990    0.0000 C   0  0  0  0  0  0  0  0  0  0  0  0
   -1.5000    2.5981    0.0000 O   0  0  0  0  0  0  0  0  0  0  0  0
   -0.7500    3.8971    0.0000 C   0  0  0  0  0  0  0  0  0  0  0  0
   -1.5000    5.1962    0.0000 C   0  0  0  0  0  0  0  0  0  0  0  0
   -3.0000    5.1962    0.0000 O   0  0  0  0  0  0  0  0  0  0  0  0
   -0.7500    6.4952    0.0000 C   0  0  0  0  0  0  0  0  0  0  0  0
   -1.5000    7.7942    0.0000 N   0  0  0  0  0  0  0  0  0  0  0  0
   -0.7500    9.0933    0.0000 C   0  0  0  0  0  0  0  0  0  0  0  0
   -1.5000   10.3923    0.0000 C   0  0  0  0  0  0  0  0  0  0  0  0
   -3.0000   10.3923    0.0000 N   0  0  0  0  0  0  0  0  0  0  0  0
   -3.7500   11.6913    0.0000 C   0  0  0  0  0  0  0  0  0  0  0  0
   -3.0000   12.9904    0.0000 C   0  0  0  0  0  0  0  0  0  0  0  0
   -3.7500   14.2894    0.0000 C   0  0  0  0  0  0  0  0  0  0  0  0
   -5.2500   14.2894    0.0000 C   0  0  0  0  0  0  0  0  0  0  0  0
   -6.0000   12.9904    0.0000 C   0  0  0  0  0  0  0  0  0  0  0  0
   -5.2500   11.6913    0.0000 N   0  0  0  0  0  4  0  0  0  0  0  0
   -3.7500    9.0933    0.0000 C   0  0  0  0  0  0  0  0  0  0  0  0
   -3.0000    7.7942    0.0000 C   0  0  0  0  0  0  0  0  0  0  0  0
   -1.5000    0.0000    0.0000 C   0  0  0  0  0  0  0  0  0  0  0  0
   -0.7500   -1.2990    0.0000 C   0  0  0  0  0  0  0  0  0  0  0  0
    0.7500   -6.4952    0.0000 C   0  0  0  0  0  0  0  0  0  0  0  0
    1.5000   -7.7942    0.0000 N   0  0  0  0  0  0  0  0  0  0  0  0
    0.7500   -9.0933    0.0000 C   0  0  0  0  0  0  0  0  0  0  0  0
    1.5000  -10.3923    0.0000 C   0  0  0  0  0  0  0  0  0  0  0  0
    3.0000  -10.3923    0.0000 N   0  0  0  0  0  0  0  0  0  0  0  0
    3.7500  -11.6913    0.0000 C   0  0  0  0  0  0  0  0  0  0  0  0
    3.0000  -12.9904    0.0000 C   0  0  0  0  0  0  0  0  0  0  0  0
    3.7500  -14.2894    0.0000 C   0  0  0  0  0  0  0  0  0  0  0  0
    5.2500  -14.2894    0.0000 C   0  0  0  0  0  0  0  0  0  0  0  0
    6.0000  -12.9904    0.0000 C   0  0  0  0  0  0  0  0  0  0  0  0
    5.2500  -11.6913    0.0000 N   0  0  0  0  0  4  0  0  0  0  0  0
    3.7500   -9.0933    0.0000 C   0  0  0  0  0  0  0  0  0  0  0  0
    3.0000   -7.7942    0.0000 C   0  0  0  0  0  0  0  0  0  0  0  0
  2  1  1  1
  2  3  1  0
  3  4  1  0
  4  5  1  0
  5  6  2  0
  6  7  1  0
  7  8  2  0
  8  9  1  0
  9 10  1  0
 10 11  1  0
 11 12  1  1
 11 13  1  0
 13 14  1  0
 14 15  1  0
 15 16  1  0
 16 17  1  0
 17 18  1  0
 18 19  2  0
 19 20  1  0
 20 21  2  0
 21 22  1  0
 22 23  2  0
 17 24  1  0
 24 25  1  0
  8 26  1  0
 26 27  2  0
  2 28  1  0
 28 29  1  0
 29 30  1  0
 30 31  1  0
 31 32  1  0
 32 33  1  0
 33 34  2  0
 34 35  1  0
 35 36  2  0
 36 37  1  0
 37 38  2  0
 32 39  1  0
 39 40  1  0
 27  5  1  0
 40 29  1  0
 25 14  1  0
 38 33  1  0
 23 18  1  0
M  CHG  2  23   1  38   1
M  END
>  <Compound_ID>  (34) 
C00820863

>  <Active>  (34) 
0

>  <Smiles>  (34) 
O[C@H](COc1ccc(OC[C@@H](O)CN2CCN(c3cccc[nH+]3)CC2)cc1)CN1CCN(c2cccc[nH+]2)CC1

>  <canonical_smi>  (34) 
O[C@H](COc1ccc(OC[C@@H](O)CN2CCN(c3cccc[nH+]3)CC2)cc1)CN1CCN(c2cccc[nH+]2)CC1

>  <Set>  (34) 
G2 inactive

>  <Set_type>  (34) 
Train

>  <MW>  (34) 
550.7

>  <HBD>  (34) 
2

>  <HBA>  (34) 
8

>  <NRB>  (34) 
12

>  <NR>  (34) 
5

>  <NAR>  (34) 
3

>  <PSA>  (34) 
100.16

>  <Standard Type>  (34) 
nan

>  <Standard Relation>  (34) 
nan

>  <Standard Units>  (34) 
nan

>  <Standard Value>  (34) 
nan

>  <Assay ChEMBL ID>  (34) 
nan

>  <Assay Description>  (34) 
nan

>  <BAO Label>  (34) 
nan

$$$$

     RDKit          2D

 39 43  0  0  0  0  0  0  0  0999 V2000
   -3.8971  -16.3573    0.0000 N   0  0  0  0  0  4  0  0  0  0  0  0
   -3.8971  -14.8573    0.0000 C   0  0  0  0  0  0  0  0  0  0  0  0
   -2.5981  -14.1073    0.0000 N   0  0  0  0  0  0  0  0  0  0  0  0
   -2.5981  -12.6073    0.0000 N   0  0  0  0  0  0  0  0  0  0  0  0
   -1.2990  -11.8573    0.0000 C   0  0  0  0  0  0  0  0  0  0  0  0
   -1.2990  -10.3573    0.0000 C   0  0  0  0  0  0  0  0  0  0  0  0
   -0.0000   -9.6073    0.0000 C   0  0  0  0  0  0  0  0  0  0  0  0
   -0.0000   -8.1073    0.0000 C   0  0  0  0  0  0  0  0  0  0  0  0
    1.2990   -7.3573    0.0000 C   0  0  0  0  0  0  0  0  0  0  0  0
    1.2990   -5.8573    0.0000 C   0  0  0  0  0  0  0  0  0  0  0  0
   -0.0000   -5.1073    0.0000 C   0  0  0  0  0  0  0  0  0  0  0  0
   -0.0000   -3.6073    0.0000 C   0  0  0  0  0  0  0  0  0  0  0  0
    1.2135   -2.7256    0.0000 C   0  0  0  0  0  0  0  0  0  0  0  0
    0.7500   -1.2990    0.0000 N   0  0  0  0  0  0  0  0  0  0  0  0
    1.5000    0.0000    0.0000 C   0  0  0  0  0  0  0  0  0  0  0  0
    0.7500    1.2990    0.0000 C   0  0  0  0  0  0  0  0  0  0  0  0
    1.5000    2.5981    0.0000 C   0  0  0  0  0  0  0  0  0  0  0  0
    0.7500    3.8971    0.0000 C   0  0  0  0  0  0  0  0  0  0  0  0
    1.5000    5.1962    0.0000 C   0  0  0  0  0  0  0  0  0  0  0  0
    0.7500    6.4952    0.0000 N   0  0  0  0  0  0  0  0  0  0  0  0
    1.5000    7.7942    0.0000 N   0  0  0  0  0  0  0  0  0  0  0  0
    0.7500    9.0933    0.0000 C   0  0  0  0  0  0  0  0  0  0  0  0
    1.5000   10.3923    0.0000 N   0  0  0  0  0  4  0  0  0  0  0  0
   -0.7500    9.0933    0.0000 N   0  0  0  0  0  0  0  0  0  0  0  0
   -1.6317    7.8797    0.0000 C   0  0  0  0  0  0  0  0  0  0  0  0
   -3.0583    8.3433    0.0000 C   0  0  0  0  0  0  0  0  0  0  0  0
   -3.0583    9.8433    0.0000 C   0  0  0  0  0  0  0  0  0  0  0  0
   -1.6317   10.3068    0.0000 C   0  0  0  0  0  0  0  0  0  0  0  0
   -0.7500    1.2990    0.0000 C   0  0  0  0  0  0  0  0  0  0  0  0
   -1.5000    0.0000    0.0000 C   0  0  0  0  0  0  0  0  0  0  0  0
   -0.7500   -1.2990    0.0000 C   0  0  0  0  0  0  0  0  0  0  0  0
   -1.2135   -2.7256    0.0000 N   0  0  0  0  0  0  0  0  0  0  0  0
   -1.2990   -5.8573    0.0000 C   0  0  0  0  0  0  0  0  0  0  0  0
   -1.2990   -7.3573    0.0000 C   0  0  0  0  0  0  0  0  0  0  0  0
   -5.1962  -14.1073    0.0000 N   0  0  0  0  0  0  0  0  0  0  0  0
   -6.5665  -14.7174    0.0000 C   0  0  0  0  0  0  0  0  0  0  0  0
   -7.5702  -13.6027    0.0000 C   0  0  0  0  0  0  0  0  0  0  0  0
   -6.8202  -12.3037    0.0000 C   0  0  0  0  0  0  0  0  0  0  0  0
   -5.3529  -12.6155    0.0000 C   0  0  0  0  0  0  0  0  0  0  0  0
  1  2  2  0
  2  3  1  0
  3  4  1  0
  4  5  2  0
  5  6  1  0
  6  7  2  0
  7  8  1  0
  8  9  2  0
  9 10  1  0
 10 11  2  0
 11 12  1  0
 12 13  2  0
 13 14  1  0
 14 15  1  0
 15 16  2  0
 16 17  1  0
 17 18  2  0
 18 19  1  0
 19 20  2  0
 20 21  1  0
 21 22  1  0
 22 23  2  0
 22 24  1  0
 24 25  1  0
 25 26  1  0
 26 27  1  0
 27 28  1  0
 16 29  1  0
 29 30  2  0
 30 31  1  0
 31 32  2  0
 11 33  1  0
 33 34  2  0
  2 35  1  0
 35 36  1  0
 36 37  1  0
 37 38  1  0
 38 39  1  0
 34  8  1  0
 39 35  1  0
 32 12  1  0
 31 14  1  0
 28 24  1  0
M  CHG  2   1   1  23   1
M  END
>  <Compound_ID>  (35) 
C52541557

>  <Active>  (35) 
0

>  <Smiles>  (35) 
[NH2+]=C(N/N=C/C=C/c1ccc(-c2cn3cc(/C=C/C=N/NC(=[NH2+])N4CCCC4)ccc3n2)cc1)N1CCCC1

>  <canonical_smi>  (35) 
[NH2+]=C(N/N=C/C=C/c1ccc(-c2cn3cc(/C=C/C=N/NC(=[NH2+])N4CCCC4)ccc3n2)cc1)N1CCCC1

>  <Set>  (35) 
G2 inactive

>  <Set_type>  (35) 
Train

>  <MW>  (35) 
524.68

>  <HBD>  (35) 
4

>  <HBA>  (35) 
5

>  <NRB>  (35) 
7

>  <NR>  (35) 
5

>  <NAR>  (35) 
3

>  <PSA>  (35) 
123.74

>  <Standard Type>  (35) 
nan

>  <Standard Relation>  (35) 
nan

>  <Standard Units>  (35) 
nan

>  <Standard Value>  (35) 
nan

>  <Assay ChEMBL ID>  (35) 
nan

>  <Assay Description>  (35) 
nan

>  <BAO Label>  (35) 
nan

$$$$

     RDKit          2D

 31 34  0  0  0  0  0  0  0  0999 V2000
    3.0000    0.0000    0.0000 N   0  0  0  0  0  0  0  0  0  0  0  0
    1.5000    0.0000    0.0000 C   0  0  0  0  0  0  0  0  0  0  0  0
    0.7500   -1.2990    0.0000 C   0  0  0  0  0  0  0  0  0  0  0  0
    1.5000   -2.5981    0.0000 N   0  0  0  0  0  0  0  0  0  0  0  0
    0.7500   -3.8971    0.0000 C   0  0  0  0  0  0  0  0  0  0  0  0
   -0.7500   -3.8971    0.0000 C   0  0  0  0  0  0  0  0  0  0  0  0
   -1.5000   -5.1962    0.0000 C   0  0  0  0  0  0  0  0  0  0  0  0
   -3.0000   -5.1962    0.0000 C   0  0  0  0  0  0  0  0  0  0  0  0
   -3.7500   -3.8971    0.0000 C   0  0  0  0  0  0  0  0  0  0  0  0
   -3.0000   -2.5981    0.0000 C   0  0  0  0  0  0  0  0  0  0  0  0
   -1.5000   -2.5981    0.0000 C   0  0  0  0  0  0  0  0  0  0  0  0
    3.0000   -2.5981    0.0000 C   0  0  0  0  0  0  0  0  0  0  0  0
    3.7500   -3.8971    0.0000 C   0  0  0  0  0  0  0  0  0  0  0  0
    3.1399   -5.2674    0.0000 N   0  0  0  0  0  0  0  0  0  0  0  0
    4.2546   -6.2711    0.0000 N   0  0  0  0  0  0  0  0  0  0  0  0
    5.5537   -5.5211    0.0000 S   0  0  0  0  0  0  0  0  0  0  0  0
    5.2418   -4.0539    0.0000 C   0  0  0  0  0  0  0  0  0  0  0  0
    6.2455   -2.9392    0.0000 Cl  0  0  0  0  0  0  0  0  0  0  0  0
   -0.7500   -1.2990    0.0000 C   0  0  0  0  0  0  0  0  0  0  0  0
   -1.3038   -1.8724    0.0000 O   0  0  0  0  0  0  0  0  0  0  0  0
   -1.5000    0.0000    0.0000 N   0  0  0  0  0  0  0  0  0  0  0  0
   -0.7500    1.2990    0.0000 C   0  0  0  0  0  0  0  0  0  0  0  0
   -1.5000    2.5981    0.0000 O   0  0  0  0  0  0  0  0  0  0  0  0
    0.7500    1.2990    0.0000 N   0  0  0  0  0  0  0  0  0  0  0  0
    1.5000    2.5981    0.0000 C   0  0  0  0  0  0  0  0  0  0  0  0
    3.0000    2.5981    0.0000 C   0  0  0  0  0  0  0  0  0  0  0  0
    3.7500    1.2990    0.0000 C   0  0  0  0  0  0  0  0  0  0  0  0
    5.2500    1.2990    0.0000 C   0  0  0  0  0  0  0  0  0  0  0  0
    6.0000    2.5981    0.0000 C   0  0  0  0  0  0  0  0  0  0  0  0
    5.2500    3.8971    0.0000 C   0  0  0  0  0  0  0  0  0  0  0  0
    3.7500    3.8971    0.0000 C   0  0  0  0  0  0  0  0  0  0  0  0
  1  2  1  0
  2  3  2  0
  3  4  1  0
  4  5  1  0
  5  6  1  0
  6  7  2  0
  7  8  1  0
  8  9  2  0
  9 10  1  0
 10 11  2  0
  4 12  1  0
 12 13  1  0
 13 14  1  0
 14 15  2  0
 15 16  1  0
 16 17  1  0
 17 18  1  0
  3 19  1  0
 19 20  2  0
 19 21  1  0
 21 22  1  0
 22 23  2  0
 22 24  1  0
 24 25  1  0
 25 26  1  0
 26 27  2  0
 27 28  1  0
 28 29  2  0
 29 30  1  0
 30 31  2  0
 24  2  1  0
 31 26  1  0
 11  6  1  0
 17 13  2  0
M  END
>  <Compound_ID>  (36) 
C27308691

>  <Active>  (36) 
0

>  <Smiles>  (36) 
Nc1c(N(Cc2ccccc2)Cc2nnsc2Cl)c(=O)[nH]c(=O)n1Cc1ccccc1

>  <canonical_smi>  (36) 
Nc1c(N(Cc2ccccc2)Cc2nnsc2Cl)c(=O)[nH]c(=O)n1Cc1ccccc1

>  <Set>  (36) 
G2 inactive

>  <Set_type>  (36) 
Train

>  <MW>  (36) 
454.94

>  <HBD>  (36) 
2

>  <HBA>  (36) 
6

>  <NRB>  (36) 
7

>  <NR>  (36) 
4

>  <NAR>  (36) 
4

>  <PSA>  (36) 
109.9

>  <Standard Type>  (36) 
nan

>  <Standard Relation>  (36) 
nan

>  <Standard Units>  (36) 
nan

>  <Standard Value>  (36) 
nan

>  <Assay ChEMBL ID>  (36) 
nan

>  <Assay Description>  (36) 
nan

>  <BAO Label>  (36) 
nan

$$$$

     RDKit          2D

 27 30  0  0  0  0  0  0  0  0999 V2000
    7.8576    7.6226    0.0000 C   0  0  0  0  0  0  0  0  0  0  0  0
    6.4310    8.0861    0.0000 C   0  0  0  0  0  0  0  0  0  0  0  0
    6.1191    9.5533    0.0000 C   0  0  0  0  0  0  0  0  0  0  0  0
    4.6926   10.0169    0.0000 N   0  0  0  0  0  0  0  0  0  0  0  0
    4.2290   11.4434    0.0000 N   0  0  0  0  0  0  0  0  0  0  0  0
    2.7290   11.4434    0.0000 C   0  0  0  0  0  0  0  0  0  0  0  0
    2.2655   10.0169    0.0000 C   0  0  0  0  0  0  0  0  0  0  0  0
    0.8389    9.5533    0.0000 C   0  0  0  0  0  0  0  0  0  0  0  0
   -0.2758   10.5570    0.0000 C   0  0  0  0  0  0  0  0  0  0  0  0
   -1.7024   10.0935    0.0000 C   0  0  0  0  0  0  0  0  0  0  0  0
   -2.0143    8.6263    0.0000 N   0  0  0  0  0  4  0  0  0  0  0  0
   -0.8995    7.6226    0.0000 C   0  0  0  0  0  0  0  0  0  0  0  0
   -1.2114    6.1554    0.0000 N   0  0  0  0  0  0  0  0  0  0  0  0
   -0.0967    5.1517    0.0000 C   0  0  0  0  0  0  0  0  0  0  0  0
    1.3299    5.6152    0.0000 C   0  0  0  0  0  0  0  0  0  0  0  0
   -0.4086    3.6844    0.0000 C   0  0  0  0  0  0  0  0  0  0  0  0
    0.7062    2.6807    0.0000 C   0  0  0  0  0  0  0  0  0  0  0  0
    0.3943    1.2135    0.0000 C   0  0  0  0  0  0  0  0  0  0  0  0
    1.2760    0.0000    0.0000 C   0  0  0  0  0  0  0  0  0  0  0  0
    0.3943   -1.2135    0.0000 C   0  0  0  0  0  0  0  0  0  0  0  0
   -1.0323   -0.7500    0.0000 N   0  0  0  0  0  0  0  0  0  0  0  0
   -1.0323    0.7500    0.0000 C   0  0  0  0  0  0  0  0  0  0  0  0
   -2.1470    1.7537    0.0000 C   0  0  0  0  0  0  0  0  0  0  0  0
   -1.8351    3.2209    0.0000 C   0  0  0  0  0  0  0  0  0  0  0  0
    0.5271    8.0861    0.0000 N   0  0  0  0  0  0  0  0  0  0  0  0
    3.4790    9.1352    0.0000 C   0  0  0  0  0  0  0  0  0  0  0  0
    3.4790    7.6352    0.0000 C   0  0  0  0  0  0  0  0  0  0  0  0
  1  2  1  0
  2  3  1  0
  3  4  1  0
  4  5  1  0
  5  6  1  0
  6  7  2  0
  7  8  1  0
  8  9  2  0
  9 10  1  0
 10 11  2  0
 11 12  1  0
 12 13  1  0
 13 14  1  0
 14 15  1  1
 14 16  1  0
 16 17  2  0
 17 18  1  0
 18 19  2  0
 19 20  1  0
 20 21  2  0
 21 22  1  0
 22 23  1  6
 23 24  2  0
 12 25  2  0
  7 26  1  0
 26 27  1  6
 26  4  1  0
 25  8  1  0
 24 16  1  0
 22 18  1  0
M  CHG  1  11   1
M  END
>  <Compound_ID>  (37) 
C63845754

>  <Active>  (37) 
0

>  <Smiles>  (37) 
CCCN1NC=C(c2cc[nH+]c(N[C@@H](C)C3=CC4=CC=N[C@@H]4C=C3)n2)[C@H]1C

>  <canonical_smi>  (37) 
CCCN1NC=C(c2cc[nH+]c(N[C@@H](C)C3=CC4=CC=N[C@@H]4C=C3)n2)[C@H]1C

>  <Set>  (37) 
G2 inactive

>  <Set_type>  (37) 
Train

>  <MW>  (37) 
363.49

>  <HBD>  (37) 
2

>  <HBA>  (37) 
4

>  <NRB>  (37) 
6

>  <NR>  (37) 
4

>  <NAR>  (37) 
1

>  <PSA>  (37) 
66.69

>  <Standard Type>  (37) 
nan

>  <Standard Relation>  (37) 
nan

>  <Standard Units>  (37) 
nan

>  <Standard Value>  (37) 
nan

>  <Assay ChEMBL ID>  (37) 
nan

>  <Assay Description>  (37) 
nan

>  <BAO Label>  (37) 
nan

$$$$

     RDKit          2D

 30 32  0  0  0  0  0  0  0  0999 V2000
    3.0000    0.0000    0.0000 C   0  0  0  0  0  0  0  0  0  0  0  0
    1.5000    0.0000    0.0000 C   0  0  0  0  0  0  0  0  0  0  0  0
    0.7500   -1.2990    0.0000 C   0  0  0  0  0  0  0  0  0  0  0  0
   -0.7500   -1.2990    0.0000 C   0  0  0  0  0  0  0  0  0  0  0  0
   -1.5000    0.0000    0.0000 C   0  0  0  0  0  0  0  0  0  0  0  0
   -0.7500    1.2990    0.0000 C   0  0  0  0  0  0  0  0  0  0  0  0
   -2.2500    1.2990    0.0000 C   0  0  0  0  0  0  0  0  0  0  0  0
   -1.5000    2.5981    0.0000 C   0  0  0  0  0  0  0  0  0  0  0  0
   -0.7500    3.8971    0.0000 C   0  0  0  0  0  0  0  0  0  0  0  0
   -1.2135    5.3237    0.0000 O   0  0  0  0  0  0  0  0  0  0  0  0
   -0.0000    6.2054    0.0000 C   0  0  0  0  0  0  0  0  0  0  0  0
   -0.0000    7.7054    0.0000 O   0  0  0  0  0  0  0  0  0  0  0  0
    1.2135    5.3237    0.0000 C   0  0  0  0  0  0  0  0  0  0  0  0
    2.6401    5.7872    0.0000 C   0  0  0  0  0  0  0  0  0  0  0  0
    2.9520    7.2544    0.0000 N   0  0  0  0  0  4  0  0  0  0  0  0
    4.3786    7.7180    0.0000 C   0  0  0  0  0  0  0  0  0  0  0  0
    1.8373    8.2581    0.0000 C   0  0  0  0  0  0  0  0  0  0  0  0
    2.1491    9.7254    0.0000 C   0  0  0  0  0  0  0  0  0  0  0  0
    3.5757   10.1889    0.0000 O   0  0  0  0  0  0  0  0  0  0  0  0
    1.0344   10.7291    0.0000 C   0  0  0  0  0  0  0  0  0  0  0  0
   -0.3922   10.2655    0.0000 O   0  0  0  0  0  0  0  0  0  0  0  0
    1.3463   12.1963    0.0000 C   0  0  0  0  0  0  0  0  0  0  0  0
    2.7729   12.6598    0.0000 O   0  0  0  0  0  0  0  0  0  0  0  0
    0.2316   13.2000    0.0000 C   0  0  0  0  0  0  0  0  0  0  0  0
   -1.1950   12.7365    0.0000 O   0  0  0  0  0  0  0  0  0  0  0  0
    0.5434   14.6672    0.0000 C   0  0  0  0  0  0  0  0  0  0  0  0
   -0.5713   15.6709    0.0000 O   0  0  0  0  0  0  0  0  0  0  0  0
    0.7500    3.8971    0.0000 C   0  0  0  0  0  0  0  0  0  0  0  0
    1.5000    2.5981    0.0000 C   0  0  0  0  0  0  0  0  0  0  0  0
    0.7500    1.2990    0.0000 C   0  0  0  0  0  0  0  0  0  0  0  0
  1  2  2  0
  2  3  1  0
  3  4  1  0
  4  5  1  0
  5  6  1  0
  6  7  1  1
  6  8  1  0
  9  8  1  1
  9 10  1  0
 10 11  1  0
 11 12  2  0
 11 13  1  0
 13 14  1  6
 14 15  1  0
 15 16  1  0
 15 17  1  0
 17 18  1  0
 18 19  1  1
 18 20  1  0
 20 21  1  1
 20 22  1  0
 22 23  1  6
 22 24  1  0
 24 25  1  1
 24 26  1  0
 26 27  1  0
 13 28  1  0
 28 29  1  1
 30 29  1  1
 30  2  1  0
 30  6  1  0
 28  9  1  0
M  CHG  1  15   1
M  END
>  <Compound_ID>  (38) 
C12654285

>  <Active>  (38) 
0

>  <Smiles>  (38) 
C=C1CCC[C@]2(C)C[C@H]3OC(=O)[C@H](C[NH+](C)C[C@H](O)[C@@H](O)[C@@H](O)[C@@H](O)CO)[C@H]3C[C@@H]12

>  <canonical_smi>  (38) 
C=C1CCC[C@]2(C)C[C@H]3OC(=O)[C@H](C[NH+](C)C[C@H](O)[C@@H](O)[C@@H](O)[C@@H](O)CO)[C@H]3C[C@@H]12

>  <Set>  (38) 
G2 inactive

>  <Set_type>  (38) 
Train

>  <MW>  (38) 
428.55

>  <HBD>  (38) 
6

>  <HBA>  (38) 
7

>  <NRB>  (38) 
8

>  <NR>  (38) 
3

>  <NAR>  (38) 
0

>  <PSA>  (38) 
131.89

>  <Standard Type>  (38) 
nan

>  <Standard Relation>  (38) 
nan

>  <Standard Units>  (38) 
nan

>  <Standard Value>  (38) 
nan

>  <Assay ChEMBL ID>  (38) 
nan

>  <Assay Description>  (38) 
nan

>  <BAO Label>  (38) 
nan

$$$$

     RDKit          2D

 27 28  0  0  0  0  0  0  0  0999 V2000
   -0.6546  -12.7344    0.0000 C   0  0  0  0  0  0  0  0  0  0  0  0
   -0.8113  -11.2427    0.0000 C   0  0  0  0  0  0  0  0  0  0  0  0
    0.4022  -10.3610    0.0000 C   0  0  0  0  0  0  0  0  0  0  0  0
    0.2454   -8.8692    0.0000 C   0  0  0  0  0  0  0  0  0  0  0  0
    1.3601   -7.8655    0.0000 C   0  0  0  0  0  0  0  0  0  0  0  0
    0.7500   -6.4952    0.0000 C   0  0  0  0  0  0  0  0  0  0  0  0
    1.5000   -5.1962    0.0000 C   0  0  0  0  0  0  0  0  0  0  0  0
    3.0000   -5.1962    0.0000 O   0  0  0  0  0  0  0  0  0  0  0  0
    0.7500   -3.8971    0.0000 N   0  0  0  0  0  0  0  0  0  0  0  0
    1.5000   -2.5981    0.0000 C   0  0  0  0  0  0  0  0  0  0  0  0
    0.7500   -1.2990    0.0000 C   0  0  0  0  0  0  0  0  0  0  0  0
    1.5000    0.0000    0.0000 O   0  0  0  0  0  0  0  0  0  0  0  0
    0.7500    1.2990    0.0000 C   0  0  0  0  0  0  0  0  0  0  0  0
    1.5000    2.5981    0.0000 S   0  0  0  0  0  0  0  0  0  0  0  0
    3.0000    2.5981    0.0000 C   0  0  0  0  0  0  0  0  0  0  0  0
   -0.7500    1.2990    0.0000 C   0  0  0  0  0  0  0  0  0  0  0  0
   -1.5000    2.5981    0.0000 O   0  0  0  0  0  0  0  0  0  0  0  0
   -1.5000    0.0000    0.0000 C   0  0  0  0  0  0  0  0  0  0  0  0
   -3.0000    0.0000    0.0000 O   0  0  0  0  0  0  0  0  0  0  0  0
   -0.7500   -1.2990    0.0000 C   0  0  0  0  0  0  0  0  0  0  0  0
   -1.5000   -2.5981    0.0000 O   0  0  0  0  0  0  0  0  0  0  0  0
    3.0000   -2.5981    0.0000 C   0  0  0  0  0  0  0  0  0  0  0  0
    3.7500   -3.8971    0.0000 C   0  0  0  0  0  0  0  0  0  0  0  0
    3.7500   -1.2990    0.0000 O   0  0  0  0  0  0  0  0  0  0  0  0
   -0.7418   -6.6520    0.0000 N   0  0  0  0  0  4  0  0  0  0  0  0
   -1.7455   -5.5373    0.0000 C   0  0  0  0  0  0  0  0  0  0  0  0
   -1.0537   -8.1192    0.0000 C   0  0  0  0  0  0  0  0  0  0  0  0
  1  2  1  0
  2  3  1  0
  4  3  1  1
  4  5  1  0
  5  6  1  0
  6  7  1  6
  7  8  2  0
  7  9  1  0
 10  9  1  6
 10 11  1  0
 11 12  1  1
 12 13  1  0
 13 14  1  1
 14 15  1  0
 13 16  1  0
 16 17  1  1
 16 18  1  0
 18 19  1  6
 18 20  1  0
 20 21  1  6
 10 22  1  0
 22 23  1  1
 22 24  1  0
  6 25  1  0
 25 26  1  0
 25 27  1  0
 27  4  1  0
 20 11  1  0
M  CHG  1  25   1
M  END
>  <Compound_ID>  (39) 
C31357046

>  <Active>  (39) 
0

>  <Smiles>  (39) 
CCC[C@@H]1C[C@@H](C(=O)N[C@H]([C@@H]2O[C@H](SC)[C@H](O)[C@@H](O)[C@H]2O)[C@H](C)O)[NH+](C)C1

>  <canonical_smi>  (39) 
CCC[C@@H]1C[C@@H](C(=O)N[C@@H]([C@H](C)O)[C@@H]2O[C@H](SC)[C@H](O)[C@@H](O)[C@H]2O)[NH+](C)C1

>  <Set>  (39) 
G2 inactive

>  <Set_type>  (39) 
Train

>  <MW>  (39) 
407.55

>  <HBD>  (39) 
6

>  <HBA>  (39) 
7

>  <NRB>  (39) 
7

>  <NR>  (39) 
2

>  <NAR>  (39) 
0

>  <PSA>  (39) 
123.69

>  <Standard Type>  (39) 
nan

>  <Standard Relation>  (39) 
nan

>  <Standard Units>  (39) 
nan

>  <Standard Value>  (39) 
nan

>  <Assay ChEMBL ID>  (39) 
nan

>  <Assay Description>  (39) 
nan

>  <BAO Label>  (39) 
nan

$$$$

     RDKit          2D

 26 28  0  0  0  0  0  0  0  0999 V2000
    1.6418    7.0824    0.0000 C   0  0  0  0  0  0  0  0  0  0  0  0
    1.3299    5.6152    0.0000 C   0  0  0  0  0  0  0  0  0  0  0  0
   -0.0967    5.1517    0.0000 N   0  0  0  0  0  0  0  0  0  0  0  0
   -0.4086    3.6844    0.0000 C   0  0  0  0  0  0  0  0  0  0  0  0
   -1.8351    3.2209    0.0000 N   0  0  0  0  0  0  0  0  0  0  0  0
   -2.1470    1.7537    0.0000 C   0  0  0  0  0  0  0  0  0  0  0  0
   -3.5736    1.2902    0.0000 N   0  0  0  0  0  0  0  0  0  0  0  0
   -4.6883    2.2939    0.0000 C   0  0  0  0  0  0  0  0  0  0  0  0
   -6.1149    1.8303    0.0000 C   0  0  0  0  0  0  0  0  0  0  0  0
   -1.0323    0.7500    0.0000 N   0  0  0  0  0  4  0  0  0  0  0  0
    0.3943    1.2135    0.0000 C   0  0  0  0  0  0  0  0  0  0  0  0
    0.7062    2.6807    0.0000 N   0  0  0  0  0  0  0  0  0  0  0  0
    1.2760    0.0000    0.0000 S   0  0  0  0  0  0  0  0  0  0  0  0
    0.3943   -1.2135    0.0000 C   0  0  0  0  0  0  0  0  0  0  0  0
   -1.0323   -0.7500    0.0000 C   0  0  0  0  0  0  0  0  0  0  0  0
   -2.5241   -0.5932    0.0000 O   0  0  0  0  0  0  0  0  0  0  0  0
   -1.3442   -2.2172    0.0000 N   0  0  0  0  0  0  0  0  0  0  0  0
   -2.7707   -2.6807    0.0000 C   0  0  0  0  0  0  0  0  0  0  0  0
   -3.8855   -1.6771    0.0000 C   0  0  0  0  0  0  0  0  0  0  0  0
   -3.5736   -0.2098    0.0000 Cl  0  0  0  0  0  0  0  0  0  0  0  0
   -5.3120   -2.1406    0.0000 C   0  0  0  0  0  0  0  0  0  0  0  0
   -5.6239   -3.6078    0.0000 C   0  0  0  0  0  0  0  0  0  0  0  0
   -7.0505   -4.0713    0.0000 Cl  0  0  0  0  0  0  0  0  0  0  0  0
   -4.5092   -4.6115    0.0000 C   0  0  0  0  0  0  0  0  0  0  0  0
   -3.0826   -4.1480    0.0000 C   0  0  0  0  0  0  0  0  0  0  0  0
   -1.9679   -5.1517    0.0000 Cl  0  0  0  0  0  0  0  0  0  0  0  0
  1  2  1  0
  2  3  1  0
  3  4  1  0
  4  5  2  0
  5  6  1  0
  6  7  1  0
  7  8  1  0
  8  9  1  0
  6 10  2  0
 10 11  1  0
 11 12  2  0
 11 13  1  0
 13 14  1  0
 14 15  1  0
 15 16  1  6
 15 17  1  0
 17 18  1  0
 18 19  2  0
 19 20  1  0
 19 21  1  0
 21 22  2  0
 22 23  1  0
 22 24  1  0
 24 25  2  0
 25 26  1  0
 12  4  1  0
 25 18  1  0
 15 10  1  0
M  CHG  1  10   1
M  END
>  <Compound_ID>  (40) 
C67321247

>  <Active>  (40) 
0

>  <Smiles>  (40) 
CCNc1nc(NCC)[n+]2c(n1)SC[C@@]2(O)Nc1c(Cl)cc(Cl)cc1Cl

>  <canonical_smi>  (40) 
CCNc1nc(NCC)[n+]2c(n1)SC[C@@]2(O)Nc1c(Cl)cc(Cl)cc1Cl

>  <Set>  (40) 
G2 inactive

>  <Set_type>  (40) 
Train

>  <MW>  (40) 
436.78

>  <HBD>  (40) 
4

>  <HBA>  (40) 
7

>  <NRB>  (40) 
6

>  <NR>  (40) 
3

>  <NAR>  (40) 
2

>  <PSA>  (40) 
85.98

>  <Standard Type>  (40) 
nan

>  <Standard Relation>  (40) 
nan

>  <Standard Units>  (40) 
nan

>  <Standard Value>  (40) 
nan

>  <Assay ChEMBL ID>  (40) 
nan

>  <Assay Description>  (40) 
nan

>  <BAO Label>  (40) 
nan

$$$$

     RDKit          2D

 21 23  0  0  0  0  0  0  0  0999 V2000
   -5.1793    6.2320    0.0000 C   0  0  0  0  0  0  0  0  0  0  0  0
   -3.7527    6.6955    0.0000 C   0  0  0  0  0  0  0  0  0  0  0  0
   -3.4408    8.1628    0.0000 C   0  0  0  0  0  0  0  0  0  0  0  0
   -2.0143    8.6263    0.0000 N   0  0  0  0  0  4  0  0  0  0  0  0
   -1.7024   10.0935    0.0000 C   0  0  0  0  0  0  0  0  0  0  0  0
   -0.8995    7.6226    0.0000 C   0  0  0  0  0  0  0  0  0  0  0  0
    0.5271    8.0861    0.0000 C   0  0  0  0  0  0  0  0  0  0  0  0
   -1.2114    6.1554    0.0000 C   0  0  0  0  0  0  0  0  0  0  0  0
   -2.6380    5.6918    0.0000 C   0  0  0  0  0  0  0  0  0  0  0  0
   -2.9499    4.2246    0.0000 N   0  0  0  0  0  0  0  0  0  0  0  0
   -1.8351    3.2209    0.0000 C   0  0  0  0  0  0  0  0  0  0  0  0
   -2.1470    1.7537    0.0000 C   0  0  0  0  0  0  0  0  0  0  0  0
   -1.0323    0.7500    0.0000 C   0  0  0  0  0  0  0  0  0  0  0  0
    0.3943    1.2135    0.0000 C   0  0  0  0  0  0  0  0  0  0  0  0
    0.7062    2.6807    0.0000 C   0  0  0  0  0  0  0  0  0  0  0  0
   -0.4086    3.6844    0.0000 C   0  0  0  0  0  0  0  0  0  0  0  0
   -0.0967    5.1517    0.0000 Cl  0  0  0  0  0  0  0  0  0  0  0  0
    1.2760    0.0000    0.0000 N   0  0  0  0  0  0  0  0  0  0  0  0
    0.3943   -1.2135    0.0000 C   0  0  0  0  0  0  0  0  0  0  0  0
    0.8578   -2.6401    0.0000 O   0  0  0  0  0  0  0  0  0  0  0  0
   -1.0323   -0.7500    0.0000 C   0  0  0  0  0  0  0  0  0  0  0  0
  2  1  1  6
  2  3  1  0
  3  4  1  0
  4  5  1  0
  4  6  1  0
  6  7  1  1
  6  8  1  0
  8  9  1  0
  9 10  1  6
 10 11  1  0
 11 12  2  0
 12 13  1  0
 13 14  2  0
 14 15  1  0
 15 16  2  0
 16 17  1  0
 14 18  1  0
 18 19  1  0
 19 20  2  0
 19 21  1  0
  9  2  1  0
 16 11  1  0
 21 13  1  0
M  CHG  1   4   1
M  END
>  <Compound_ID>  (41) 
C36990810

>  <Active>  (41) 
0

>  <Smiles>  (41) 
C[C@@H]1C[NH+](C)[C@@H](C)C[C@@H]1Nc1cc2c(cc1Cl)NC(=O)C2

>  <canonical_smi>  (41) 
C[C@H]1C[C@H](Nc2cc3c(cc2Cl)NC(=O)C3)[C@H](C)C[NH+]1C

>  <Set>  (41) 
G2 inactive

>  <Set_type>  (41) 
Train

>  <MW>  (41) 
308.83

>  <HBD>  (41) 
3

>  <HBA>  (41) 
2

>  <NRB>  (41) 
2

>  <NR>  (41) 
3

>  <NAR>  (41) 
1

>  <PSA>  (41) 
45.57

>  <Standard Type>  (41) 
nan

>  <Standard Relation>  (41) 
nan

>  <Standard Units>  (41) 
nan

>  <Standard Value>  (41) 
nan

>  <Assay ChEMBL ID>  (41) 
nan

>  <Assay Description>  (41) 
nan

>  <BAO Label>  (41) 
nan

$$$$

     RDKit          2D

 20 22  0  0  0  0  0  0  0  0999 V2000
    3.0000    0.0000    0.0000 C   0  0  0  0  0  0  0  0  0  0  0  0
    1.5000    0.0000    0.0000 C   0  0  0  0  0  0  0  0  0  0  0  0
    0.7500   -1.2990    0.0000 C   0  0  0  0  0  0  0  0  0  0  0  0
   -0.7500   -1.2990    0.0000 C   0  0  0  0  0  0  0  0  0  0  0  0
   -1.5000    0.0000    0.0000 C   0  0  0  0  0  0  0  0  0  0  0  0
   -3.0000    0.0000    0.0000 C   0  0  0  0  0  0  0  0  0  0  0  0
   -3.8817   -1.2135    0.0000 N   0  0  0  0  0  0  0  0  0  0  0  0
   -5.3083   -0.7500    0.0000 O   0  0  0  0  0  0  0  0  0  0  0  0
   -5.3083    0.7500    0.0000 C   0  0  0  0  0  0  0  0  0  0  0  0
   -6.5218    1.6317    0.0000 C   0  0  0  0  0  0  0  0  0  0  0  0
   -5.4428    2.6737    0.0000 N   0  0  0  0  0  4  0  0  0  0  0  0
   -7.1793    0.2835    0.0000 C   0  0  0  0  0  0  0  0  0  0  0  0
   -8.6757    0.1789    0.0000 C   0  0  0  0  0  0  0  0  0  0  0  0
   -9.5145    1.4224    0.0000 C   0  0  0  0  0  0  0  0  0  0  0  0
   -8.8569    2.7706    0.0000 C   0  0  0  0  0  0  0  0  0  0  0  0
   -9.6957    4.0142    0.0000 C   0  0  0  0  0  0  0  0  0  0  0  0
   -7.3606    2.8752    0.0000 C   0  0  0  0  0  0  0  0  0  0  0  0
   -3.8817    1.2135    0.0000 N   0  0  0  0  0  0  0  0  0  0  0  0
   -0.7500    1.2990    0.0000 C   0  0  0  0  0  0  0  0  0  0  0  0
    0.7500    1.2990    0.0000 C   0  0  0  0  0  0  0  0  0  0  0  0
  1  2  1  0
  2  3  1  0
  3  4  1  0
  4  5  1  0
  5  6  1  0
  6  7  2  0
  7  8  1  0
  8  9  1  0
  9 10  1  0
 10 11  1  1
 10 12  1  0
 12 13  1  0
 13 14  1  0
 14 15  1  0
 15 16  1  1
 15 17  1  0
  9 18  2  0
  5 19  1  0
 19 20  1  0
 20  2  1  0
 18  6  1  0
 17 10  1  0
M  CHG  1  11   1
M  END
>  <Compound_ID>  (42) 
C44983174

>  <Active>  (42) 
0

>  <Smiles>  (42) 
CC1CCC(c2noc([C@]3([NH3+])CCC[C@@H](C)C3)n2)CC1

>  <canonical_smi>  (42) 
CC1CCC(c2noc([C@]3([NH3+])CCC[C@@H](C)C3)n2)CC1

>  <Set>  (42) 
G2 inactive

>  <Set_type>  (42) 
Train

>  <MW>  (42) 
278.42

>  <HBD>  (42) 
1

>  <HBA>  (42) 
3

>  <NRB>  (42) 
2

>  <NR>  (42) 
3

>  <NAR>  (42) 
1

>  <PSA>  (42) 
66.56

>  <Standard Type>  (42) 
nan

>  <Standard Relation>  (42) 
nan

>  <Standard Units>  (42) 
nan

>  <Standard Value>  (42) 
nan

>  <Assay ChEMBL ID>  (42) 
nan

>  <Assay Description>  (42) 
nan

>  <BAO Label>  (42) 
nan

$$$$

     RDKit          2D

 20 22  0  0  0  0  0  0  0  0999 V2000
    1.0037   -4.7220    0.0000 C   0  0  0  0  0  0  0  0  0  0  0  0
   -0.0000   -3.6073    0.0000 C   0  0  0  0  0  0  0  0  0  0  0  0
   -1.0037   -4.7220    0.0000 C   0  0  0  0  0  0  0  0  0  0  0  0
    1.2135   -2.7256    0.0000 C   0  0  0  0  0  0  0  0  0  0  0  0
    0.7500   -1.2990    0.0000 C   0  0  0  0  0  0  0  0  0  0  0  0
    1.5000    0.0000    0.0000 C   0  0  0  0  0  0  0  0  0  0  0  0
    0.7500    1.2990    0.0000 C   0  0  0  0  0  0  0  0  0  0  0  0
   -0.7500    1.2990    0.0000 C   0  0  0  0  0  0  0  0  0  0  0  0
   -1.5000    0.0000    0.0000 C   0  0  0  0  0  0  0  0  0  0  0  0
   -3.0000    0.0000    0.0000 O   0  0  0  0  0  0  0  0  0  0  0  0
   -3.7500    1.2990    0.0000 C   0  0  0  0  0  0  0  0  0  0  0  0
   -3.0000    2.5981    0.0000 C   0  0  0  0  0  0  0  0  0  0  0  0
   -3.7500    3.8971    0.0000 C   0  0  0  0  0  0  0  0  0  0  0  0
   -5.2500    3.8971    0.0000 C   0  0  0  0  0  0  0  0  0  0  0  0
   -6.0000    2.5981    0.0000 C   0  0  0  0  0  0  0  0  0  0  0  0
   -7.5000    2.5981    0.0000 C   0  0  0  0  0  0  0  0  0  0  0  0
   -8.2500    3.8971    0.0000 N   0  0  0  0  0  4  0  0  0  0  0  0
   -5.2500    1.2990    0.0000 N   0  0  0  0  0  0  0  0  0  0  0  0
   -0.7500   -1.2990    0.0000 C   0  0  0  0  0  0  0  0  0  0  0  0
   -1.2135   -2.7256    0.0000 O   0  0  0  0  0  0  0  0  0  0  0  0
  1  2  1  0
  2  3  1  0
  2  4  1  0
  4  5  1  0
  5  6  2  0
  6  7  1  0
  7  8  2  0
  8  9  1  0
  9 10  1  0
 10 11  1  0
 11 12  2  0
 12 13  1  0
 13 14  2  0
 14 15  1  0
 15 16  1  0
 16 17  1  0
 15 18  2  0
  9 19  2  0
 19 20  1  0
 20  2  1  0
 19  5  1  0
 18 11  1  0
M  CHG  1  17   1
M  END
>  <Compound_ID>  (43) 
C51546427

>  <Active>  (43) 
0

>  <Smiles>  (43) 
CC1(C)Cc2cccc(Oc3cccc(C[NH3+])n3)c2O1

>  <canonical_smi>  (43) 
CC1(C)Cc2cccc(Oc3cccc(C[NH3+])n3)c2O1

>  <Set>  (43) 
G2 inactive

>  <Set_type>  (43) 
Train

>  <MW>  (43) 
271.34

>  <HBD>  (43) 
1

>  <HBA>  (43) 
3

>  <NRB>  (43) 
3

>  <NR>  (43) 
3

>  <NAR>  (43) 
2

>  <PSA>  (43) 
58.99

>  <Standard Type>  (43) 
nan

>  <Standard Relation>  (43) 
nan

>  <Standard Units>  (43) 
nan

>  <Standard Value>  (43) 
nan

>  <Assay ChEMBL ID>  (43) 
nan

>  <Assay Description>  (43) 
nan

>  <BAO Label>  (43) 
nan

$$$$

     RDKit          2D

 32 36  0  0  0  0  0  0  0  0999 V2000
    3.7500   -9.0933    0.0000 C   0  0  0  0  0  0  0  0  0  0  0  0
    3.0000   -7.7942    0.0000 C   0  0  0  0  0  0  0  0  0  0  0  0
    1.5000   -7.7942    0.0000 O   0  0  0  0  0  0  0  0  0  0  0  0
    0.7500   -6.4952    0.0000 C   0  0  0  0  0  0  0  0  0  0  0  0
    1.5000   -5.1962    0.0000 C   0  0  0  0  0  0  0  0  0  0  0  0
    0.7500   -3.8971    0.0000 C   0  0  0  0  0  0  0  0  0  0  0  0
    1.5000   -2.5981    0.0000 C   0  0  0  0  0  0  0  0  0  0  0  0
    0.7500   -1.2990    0.0000 C   0  0  0  0  0  0  0  0  0  0  0  0
    1.5000    0.0000    0.0000 C   0  0  0  0  0  0  0  0  0  0  0  0
    0.7500    1.2990    0.0000 O   0  0  0  0  0  0  0  0  0  0  0  0
   -0.7500    1.2990    0.0000 P   0  0  0  0  0  5  0  0  0  0  0  0
   -0.4895    2.7762    0.0000 O   0  0  0  0  0  0  0  0  0  0  0  0
   -2.1595    1.8121    0.0000 C   0  0  0  0  0  0  0  0  0  0  0  0
   -2.4200    3.2893    0.0000 C   0  0  0  0  0  0  0  0  0  0  0  0
   -3.8296    3.8023    0.0000 C   0  0  0  0  0  0  0  0  0  0  0  0
   -4.9786    2.8381    0.0000 C   0  0  0  0  0  0  0  0  0  0  0  0
   -4.7181    1.3609    0.0000 C   0  0  0  0  0  0  0  0  0  0  0  0
   -3.3086    0.8479    0.0000 C   0  0  0  0  0  0  0  0  0  0  0  0
   -3.0481   -0.6293    0.0000 O   0  0  0  0  0  0  0  0  0  0  0  0
   -1.5000    0.0000    0.0000 N   0  0  0  0  0  0  0  0  0  0  0  0
   -0.7500   -1.2990    0.0000 N   0  0  0  0  0  4  0  0  0  0  0  0
   -1.5000   -2.5981    0.0000 C   0  0  0  0  0  0  0  0  0  0  0  0
   -0.7500   -3.8971    0.0000 C   0  0  0  0  0  0  0  0  0  0  0  0
   -1.5000   -5.1962    0.0000 C   0  0  0  0  0  0  0  0  0  0  0  0
   -0.7500   -6.4952    0.0000 C   0  0  0  0  0  0  0  0  0  0  0  0
   -1.5000   -7.7942    0.0000 C   0  0  0  0  0  0  0  0  0  0  0  0
   -3.0000   -7.7942    0.0000 C   0  0  0  0  0  0  0  0  0  0  0  0
   -3.7500   -9.0933    0.0000 C   0  0  0  0  0  0  0  0  0  0  0  0
   -3.0000  -10.3923    0.0000 C   0  0  0  0  0  0  0  0  0  0  0  0
   -1.5000  -10.3923    0.0000 C   0  0  0  0  0  0  0  0  0  0  0  0
   -0.7500   -9.0933    0.0000 C   0  0  0  0  0  0  0  0  0  0  0  0
    0.7500   -9.0933    0.0000 O   0  0  0  0  0  0  0  0  0  0  0  0
  1  2  1  0
  2  3  1  0
  3  4  1  0
  4  5  2  0
  5  6  1  0
  6  7  1  1
  8  7  1  6
  8  9  1  0
  9 10  1  0
 10 11  1  0
 11 12  2  0
 11 13  1  1
 13 14  2  0
 14 15  1  0
 15 16  2  0
 16 17  1  0
 17 18  2  0
 18 19  1  0
 11 20  1  0
 20 21  1  0
 21 22  1  0
 23 22  1  1
 23 24  1  0
 24 25  2  0
 25 26  1  0
 26 27  2  0
 27 28  1  0
 28 29  2  0
 29 30  1  0
 30 31  2  0
 31 32  1  0
 25  4  1  0
 31 26  1  0
 23  6  1  0
 21  8  1  0
 18 13  1  0
M  CHG  1  21   1
M  END
>  <Compound_ID>  (44) 
C39467477

>  <Active>  (44) 
0

>  <Smiles>  (44) 
CCOC1=C[C@@H]2C[C@H]3CO[P@](=O)(c4ccccc4O)N[NH+]3C[C@@H]2C=C1c1ccccc1O

>  <canonical_smi>  (44) 
CCOC1=C[C@@H]2C[C@H]3CO[P@](=O)(c4ccccc4O)N[NH+]3C[C@@H]2C=C1c1ccccc1O

>  <Set>  (44) 
G2 inactive

>  <Set_type>  (44) 
Train

>  <MW>  (44) 
455.47

>  <HBD>  (44) 
4

>  <HBA>  (44) 
6

>  <NRB>  (44) 
4

>  <NR>  (44) 
5

>  <NAR>  (44) 
2

>  <PSA>  (44) 
92.46

>  <Standard Type>  (44) 
nan

>  <Standard Relation>  (44) 
nan

>  <Standard Units>  (44) 
nan

>  <Standard Value>  (44) 
nan

>  <Assay ChEMBL ID>  (44) 
nan

>  <Assay Description>  (44) 
nan

>  <BAO Label>  (44) 
nan

$$$$

     RDKit          2D

 35 38  0  0  0  0  0  0  0  0999 V2000
    0.7500   -1.2990    0.0000 O   0  0  0  0  0  0  0  0  0  0  0  0
    1.5000   -2.5981    0.0000 C   0  0  0  0  0  0  0  0  0  0  0  0
    3.0000   -2.5981    0.0000 C   0  0  0  0  0  0  0  0  0  0  0  0
    3.7500   -3.8971    0.0000 C   0  0  0  0  0  0  0  0  0  0  0  0
    5.2500   -3.8971    0.0000 C   0  0  0  0  0  0  0  0  0  0  0  0
    6.0000   -2.5981    0.0000 C   0  0  0  0  0  0  0  0  0  0  0  0
    7.5000   -2.5981    0.0000 Cl  0  0  0  0  0  0  0  0  0  0  0  0
    5.2500   -1.2990    0.0000 C   0  0  0  0  0  0  0  0  0  0  0  0
    3.7500   -1.2990    0.0000 C   0  0  0  0  0  0  0  0  0  0  0  0
    0.7500   -3.8971    0.0000 C   0  0  0  0  0  0  0  0  0  0  0  0
   -0.7500   -3.8971    0.0000 C   0  0  0  0  0  0  0  0  0  0  0  0
   -1.5000   -2.5981    0.0000 C   0  0  0  0  0  0  0  0  0  0  0  0
   -0.8899   -1.2278    0.0000 C   0  0  0  0  0  0  0  0  0  0  0  0
   -2.0046   -0.2241    0.0000 C   0  0  0  0  0  0  0  0  0  0  0  0
   -3.3037   -0.9741    0.0000 C   0  0  0  0  0  0  0  0  0  0  0  0
   -4.6740   -0.3640    0.0000 C   0  0  0  0  0  0  0  0  0  0  0  0
   -5.8875   -1.2456    0.0000 C   0  0  0  0  0  0  0  0  0  0  0  0
   -7.2578   -0.6355    0.0000 C   0  0  0  0  0  0  0  0  0  0  0  0
   -7.4146    0.8563    0.0000 C   0  0  0  0  0  0  0  0  0  0  0  0
   -6.2011    1.7379    0.0000 C   0  0  0  0  0  0  0  0  0  0  0  0
   -4.8308    1.1278    0.0000 C   0  0  0  0  0  0  0  0  0  0  0  0
   -3.6172    2.0095    0.0000 N   0  0  0  0  0  4  0  0  0  0  0  0
   -2.2469    1.3994    0.0000 O   0  0  0  0  0  0  0  0  0  0  0  0
   -3.7740    3.5013    0.0000 O   0  0  0  0  0  1  0  0  0  0  0  0
   -2.9918   -2.4413    0.0000 O   0  0  0  0  0  0  0  0  0  0  0  0
   -1.5000   -5.1962    0.0000 N   0  0  0  0  0  0  0  0  0  0  0  0
   -0.7500   -6.4952    0.0000 C   0  0  0  0  0  0  0  0  0  0  0  0
   -1.5000   -7.7942    0.0000 O   0  0  0  0  0  0  0  0  0  0  0  0
    0.7500   -6.4952    0.0000 N   0  0  0  0  0  0  0  0  0  0  0  0
    1.5000   -5.1962    0.0000 C   0  0  0  0  0  0  0  0  0  0  0  0
    2.6491   -6.1603    0.0000 O   0  0  0  0  0  0  0  0  0  0  0  0
    2.6491   -4.2320    0.0000 C   0  0  0  0  0  0  0  0  0  0  0  0
    3.3656   -3.8826    0.0000 F   0  0  0  0  0  0  0  0  0  0  0  0
    1.9916   -2.8837    0.0000 F   0  0  0  0  0  0  0  0  0  0  0  0
    3.6132   -5.3810    0.0000 F   0  0  0  0  0  0  0  0  0  0  0  0
  1  2  2  0
  2  3  1  0
  3  4  2  0
  4  5  1  0
  5  6  2  0
  6  7  1  0
  6  8  1  0
  8  9  2  0
 10  2  1  1
 10 11  1  0
 11 12  1  6
 12 13  2  0
 13 14  1  0
 14 15  2  0
 15 16  1  0
 16 17  2  0
 17 18  1  0
 18 19  2  0
 19 20  1  0
 20 21  2  0
 21 22  1  0
 22 23  2  0
 22 24  1  0
 15 25  1  0
 11 26  1  0
 26 27  1  0
 27 28  1  0
 27 29  2  0
 29 30  1  0
 30 31  1  6
 30 32  1  0
 32 33  1  0
 32 34  1  0
 32 35  1  0
  9  3  1  0
 30 10  1  0
 25 12  1  0
 21 16  1  0
M  CHG  2  22   1  24  -1
M  END
>  <Compound_ID>  (45) 
C01312656

>  <Active>  (45) 
0

>  <Smiles>  (45) 
O=C(c1ccc(Cl)cc1)[C@@H]1[C@@H](c2ccc(-c3ccccc3[N+](=O)[O-])o2)NC(O)=N[C@]1(O)C(F)(F)F

>  <canonical_smi>  (45) 
O=C(c1ccc(Cl)cc1)[C@@H]1[C@@H](c2ccc(-c3ccccc3[N+](=O)[O-])o2)NC(O)=N[C@]1(O)C(F)(F)F

>  <Set>  (45) 
G2 inactive

>  <Set_type>  (45) 
Train

>  <MW>  (45) 
509.82

>  <HBD>  (45) 
3

>  <HBA>  (45) 
7

>  <NRB>  (45) 
5

>  <NR>  (45) 
4

>  <NAR>  (45) 
3

>  <PSA>  (45) 
138.2

>  <Standard Type>  (45) 
nan

>  <Standard Relation>  (45) 
nan

>  <Standard Units>  (45) 
nan

>  <Standard Value>  (45) 
nan

>  <Assay ChEMBL ID>  (45) 
nan

>  <Assay Description>  (45) 
nan

>  <BAO Label>  (45) 
nan

$$$$

     RDKit          2D

 34 35  0  0  0  0  0  0  0  0999 V2000
    8.2500   -3.8971    0.0000 C   0  0  0  0  0  0  0  0  0  0  0  0
    7.5000   -2.5981    0.0000 C   0  0  0  0  0  0  0  0  0  0  0  0
    6.0000   -2.5981    0.0000 N   0  0  0  0  0  0  0  0  0  0  0  0
    5.2500   -3.8971    0.0000 C   0  0  0  0  0  0  0  0  0  0  0  0
    6.0000   -5.1962    0.0000 C   0  0  0  0  0  0  0  0  0  0  0  0
    5.2500   -1.2990    0.0000 C   0  0  0  0  0  0  0  0  0  0  0  0
    6.0000    0.0000    0.0000 O   0  0  0  0  0  0  0  0  0  0  0  0
    3.7500   -1.2990    0.0000 C   0  0  0  0  0  0  0  0  0  0  0  0
    3.0000   -2.5981    0.0000 C   0  0  0  0  0  0  0  0  0  0  0  0
    2.2500   -3.8971    0.0000 N   0  0  0  0  0  0  0  0  0  0  0  0
    3.0000    0.0000    0.0000 C   0  0  0  0  0  0  0  0  0  0  0  0
    1.5000    0.0000    0.0000 C   0  0  0  0  0  0  0  0  0  0  0  0
    0.7500   -1.2990    0.0000 C   0  0  0  0  0  0  0  0  0  0  0  0
   -0.7500   -1.2990    0.0000 C   0  0  0  0  0  0  0  0  0  0  0  0
   -1.5000   -2.5981    0.0000 O   0  0  0  0  0  0  0  0  0  0  0  0
   -0.7500   -3.8971    0.0000 C   0  0  0  0  0  0  0  0  0  0  0  0
   -1.5000   -5.1962    0.0000 O   0  0  0  0  0  0  0  0  0  0  0  0
   -0.7500   -6.4952    0.0000 C   0  0  0  0  0  0  0  0  0  0  0  0
   -1.5000   -7.7942    0.0000 C   0  0  0  0  0  0  0  0  0  0  0  0
   -0.7500   -9.0933    0.0000 O   0  0  0  0  0  0  0  0  0  0  0  0
   -3.0000   -7.7942    0.0000 O   0  0  0  0  0  1  0  0  0  0  0  0
    0.7500   -6.4952    0.0000 C   0  0  0  0  0  0  0  0  0  0  0  0
    1.5000   -7.7942    0.0000 O   0  0  0  0  0  0  0  0  0  0  0  0
    1.5000   -5.1962    0.0000 C   0  0  0  0  0  0  0  0  0  0  0  0
    3.0000   -5.1962    0.0000 O   0  0  0  0  0  0  0  0  0  0  0  0
    0.7500   -3.8971    0.0000 C   0  0  0  0  0  0  0  0  0  0  0  0
    1.5000   -2.5981    0.0000 O   0  0  0  0  0  0  0  0  0  0  0  0
   -1.5000    0.0000    0.0000 C   0  0  0  0  0  0  0  0  0  0  0  0
   -3.0000    0.0000    0.0000 O   0  0  0  0  0  1  0  0  0  0  0  0
   -0.7500    1.2990    0.0000 C   0  0  0  0  0  0  0  0  0  0  0  0
   -1.5000    2.5981    0.0000 N   0  0  0  0  0  4  0  0  0  0  0  0
   -3.0000    2.5981    0.0000 O   0  0  0  0  0  0  0  0  0  0  0  0
   -0.7500    3.8971    0.0000 O   0  0  0  0  0  1  0  0  0  0  0  0
    0.7500    1.2990    0.0000 C   0  0  0  0  0  0  0  0  0  0  0  0
  1  2  1  0
  2  3  1  0
  3  4  1  0
  4  5  1  0
  3  6  1  0
  6  7  2  0
  6  8  1  0
  8  9  1  0
  9 10  3  0
  8 11  2  0
 11 12  1  0
 12 13  2  0
 13 14  1  0
 14 15  1  0
 16 15  1  1
 16 17  1  0
 17 18  1  0
 18 19  1  6
 19 20  2  0
 19 21  1  0
 18 22  1  0
 22 23  1  6
 22 24  1  0
 24 25  1  1
 24 26  1  0
 26 27  1  1
 14 28  2  0
 28 29  1  0
 28 30  1  0
 30 31  1  0
 31 32  2  0
 31 33  1  0
 30 34  2  0
 34 12  1  0
 26 16  1  0
M  CHG  4  21  -1  29  -1  31   1  33  -1
M  END
>  <Compound_ID>  (46) 
C22058311

>  <Active>  (46) 
0

>  <Smiles>  (46) 
CCN(CC)C(=O)/C(C#N)=C/c1cc(O[C@@H]2O[C@@H](C(=O)[O-])[C@@H](O)[C@H](O)[C@@H]2O)c([O-])c([N+](=O)[O-])c1

>  <canonical_smi>  (46) 
CCN(CC)C(=O)/C(C#N)=C/c1cc(O[C@@H]2O[C@@H](C(=O)[O-])[C@@H](O)[C@H](O)[C@@H]2O)c([O-])c([N+](=O)[O-])c1

>  <Set>  (46) 
G2 inactive

>  <Set_type>  (46) 
Train

>  <MW>  (46) 
479.4

>  <HBD>  (46) 
3

>  <HBA>  (46) 
12

>  <NRB>  (46) 
8

>  <NR>  (46) 
2

>  <NAR>  (46) 
1

>  <PSA>  (46) 
229.58

>  <Standard Type>  (46) 
nan

>  <Standard Relation>  (46) 
nan

>  <Standard Units>  (46) 
nan

>  <Standard Value>  (46) 
nan

>  <Assay ChEMBL ID>  (46) 
nan

>  <Assay Description>  (46) 
nan

>  <BAO Label>  (46) 
nan

$$$$

     RDKit          2D

 28 31  0  0  0  0  0  0  0  0999 V2000
   -6.4140    1.9635    0.0000 O   0  0  0  0  0  0  0  0  0  0  0  0
   -5.6640    0.6645    0.0000 C   0  0  0  0  0  0  0  0  0  0  0  0
   -6.4140   -0.6346    0.0000 O   0  0  0  0  0  1  0  0  0  0  0  0
   -4.1640    0.6645    0.0000 C   0  0  0  0  0  0  0  0  0  0  0  0
   -3.4140    1.9635    0.0000 C   0  0  0  0  0  0  0  0  0  0  0  0
   -1.9140    1.9635    0.0000 N   0  0  0  0  0  0  0  0  0  0  0  0
   -1.0323    3.1771    0.0000 C   0  0  0  0  0  0  0  0  0  0  0  0
   -1.4958    4.6036    0.0000 O   0  0  0  0  0  0  0  0  0  0  0  0
    0.3943    2.7135    0.0000 N   0  0  0  0  0  0  0  0  0  0  0  0
    0.3943    1.2135    0.0000 C   0  0  0  0  0  0  0  0  0  0  0  0
    1.2760    0.0000    0.0000 O   0  0  0  0  0  0  0  0  0  0  0  0
    0.3943   -1.2135    0.0000 C   0  0  0  0  0  0  0  0  0  0  0  0
    0.8578   -2.6401    0.0000 C   0  0  0  0  0  0  0  0  0  0  0  0
    2.2844   -3.1036    0.0000 O   0  0  0  0  0  0  0  0  0  0  0  0
    2.2844   -4.6036    0.0000 C   0  0  0  0  0  0  0  0  0  0  0  0
    3.1661   -5.8172    0.0000 N   0  0  0  0  0  0  0  0  0  0  0  0
    2.2844   -7.0307    0.0000 C   0  0  0  0  0  0  0  0  0  0  0  0
    2.7479   -8.4573    0.0000 O   0  0  0  0  0  0  0  0  0  0  0  0
    0.8578   -6.5672    0.0000 N   0  0  0  0  0  0  0  0  0  0  0  0
   -0.3557   -7.4488    0.0000 C   0  0  0  0  0  0  0  0  0  0  0  0
   -1.7260   -6.8387    0.0000 C   0  0  0  0  0  0  0  0  0  0  0  0
   -2.9395   -7.7204    0.0000 C   0  0  0  0  0  0  0  0  0  0  0  0
   -2.7828   -9.2122    0.0000 O   0  0  0  0  0  0  0  0  0  0  0  0
   -4.3099   -7.1103    0.0000 O   0  0  0  0  0  1  0  0  0  0  0  0
    0.8578   -5.0672    0.0000 C   0  0  0  0  0  0  0  0  0  0  0  0
   -0.0239   -3.8536    0.0000 O   0  0  0  0  0  0  0  0  0  0  0  0
   -1.0323   -0.7500    0.0000 O   0  0  0  0  0  0  0  0  0  0  0  0
   -1.0323    0.7500    0.0000 C   0  0  0  0  0  0  0  0  0  0  0  0
  1  2  2  0
  2  3  1  0
  2  4  1  0
  4  5  1  0
  5  6  1  0
  6  7  1  0
  7  8  2  0
  7  9  1  0
 10  9  1  6
 10 11  1  0
 12 11  1  1
 12 13  1  0
 13 14  1  1
 14 15  1  0
 15 16  1  1
 16 17  1  0
 17 18  2  0
 17 19  1  0
 19 20  1  0
 20 21  1  0
 21 22  1  0
 22 23  2  0
 22 24  1  0
 19 25  1  0
 25 26  1  1
 12 27  1  0
 28 27  1  1
 28  6  1  0
 28 10  1  0
 26 13  1  0
 25 15  1  0
M  CHG  2   3  -1  24  -1
M  END
>  <Compound_ID>  (47) 
C59109095

>  <Active>  (47) 
0

>  <Smiles>  (47) 
O=C([O-])CCN1C(=O)N[C@@H]2O[C@@H]([C@H]3O[C@H]4NC(=O)N(CCC(=O)[O-])[C@H]4O3)O[C@H]21

>  <canonical_smi>  (47) 
O=C([O-])CCN1C(=O)N[C@@H]2O[C@H]([C@@H]3O[C@H]4NC(=O)N(CCC(=O)[O-])[C@@H]4O3)O[C@@H]21

>  <Set>  (47) 
G2 inactive

>  <Set_type>  (47) 
Train

>  <MW>  (47) 
400.3

>  <HBD>  (47) 
2

>  <HBA>  (47) 
10

>  <NRB>  (47) 
7

>  <NR>  (47) 
4

>  <NAR>  (47) 
0

>  <PSA>  (47) 
181.86

>  <Standard Type>  (47) 
nan

>  <Standard Relation>  (47) 
nan

>  <Standard Units>  (47) 
nan

>  <Standard Value>  (47) 
nan

>  <Assay ChEMBL ID>  (47) 
nan

>  <Assay Description>  (47) 
nan

>  <BAO Label>  (47) 
nan

$$$$

     RDKit          2D

 28 30  0  0  0  0  0  0  0  0999 V2000
   -6.2113  -15.1079    0.0000 C   0  0  0  0  0  0  0  0  0  0  0  0
   -6.3681  -13.6161    0.0000 C   0  0  0  0  0  0  0  0  0  0  0  0
   -5.1546  -12.7344    0.0000 O   0  0  0  0  0  0  0  0  0  0  0  0
   -5.3113  -11.2427    0.0000 C   0  0  0  0  0  0  0  0  0  0  0  0
   -6.6817  -10.6326    0.0000 O   0  0  0  0  0  0  0  0  0  0  0  0
   -4.0978  -10.3610    0.0000 C   0  0  0  0  0  0  0  0  0  0  0  0
   -4.2546   -8.8692    0.0000 C   0  0  0  0  0  0  0  0  0  0  0  0
   -5.5537   -8.1192    0.0000 C   0  0  0  0  0  0  0  0  0  0  0  0
   -5.2418   -6.6520    0.0000 S   0  0  0  0  0  0  0  0  0  0  0  0
   -3.7500   -6.4952    0.0000 C   0  0  0  0  0  0  0  0  0  0  0  0
   -3.0000   -5.1962    0.0000 N   0  0  0  0  0  0  0  0  0  0  0  0
   -1.5000   -5.1962    0.0000 C   0  0  0  0  0  0  0  0  0  0  0  0
   -0.7500   -6.4952    0.0000 O   0  0  0  0  0  0  0  0  0  0  0  0
   -0.7500   -3.8971    0.0000 C   0  0  0  0  0  0  0  0  0  0  0  0
    0.7500   -3.8971    0.0000 C   0  0  0  0  0  0  0  0  0  0  0  0
    1.5000   -5.1962    0.0000 O   0  0  0  0  0  1  0  0  0  0  0  0
    1.5000   -2.5981    0.0000 N   0  0  0  0  0  0  0  0  0  0  0  0
    3.0000   -2.5981    0.0000 C   0  0  0  0  0  0  0  0  0  0  0  0
    3.7500   -3.8971    0.0000 C   0  0  0  0  0  0  0  0  0  0  0  0
    0.7500   -1.2990    0.0000 C   0  0  0  0  0  0  0  0  0  0  0  0
    1.5000    0.0000    0.0000 C   0  0  0  0  0  0  0  0  0  0  0  0
    0.7500    1.2990    0.0000 C   0  0  0  0  0  0  0  0  0  0  0  0
   -0.7500    1.2990    0.0000 C   0  0  0  0  0  0  0  0  0  0  0  0
   -1.5000    0.0000    0.0000 C   0  0  0  0  0  0  0  0  0  0  0  0
   -0.7500   -1.2990    0.0000 C   0  0  0  0  0  0  0  0  0  0  0  0
   -1.5000   -2.5981    0.0000 C   0  0  0  0  0  0  0  0  0  0  0  0
   -3.0000   -2.5981    0.0000 O   0  0  0  0  0  0  0  0  0  0  0  0
   -3.1399   -7.8655    0.0000 N   0  0  0  0  0  0  0  0  0  0  0  0
  1  2  1  0
  2  3  1  0
  3  4  1  0
  4  5  2  0
  4  6  1  0
  6  7  1  0
  7  8  2  0
  8  9  1  0
  9 10  1  0
 10 11  2  0
 11 12  1  0
 12 13  2  0
 12 14  1  0
 14 15  2  0
 15 16  1  0
 15 17  1  0
 17 18  1  0
 18 19  1  0
 17 20  1  0
 20 21  2  0
 21 22  1  0
 22 23  2  0
 23 24  1  0
 24 25  2  0
 25 26  1  0
 26 27  1  1
 10 28  1  0
 28  7  1  0
 26 14  1  0
 25 20  1  0
M  CHG  1  16  -1
M  END
>  <Compound_ID>  (48) 
C64197100

>  <Active>  (48) 
0

>  <Smiles>  (48) 
CCOC(=O)Cc1cs/c(=N/C(=O)C2=C([O-])N(CC)c3ccccc3[C@@H]2O)[nH]1

>  <canonical_smi>  (48) 
CCOC(=O)Cc1cs/c(=N/C(=O)C2=C([O-])N(CC)c3ccccc3[C@@H]2O)[nH]1

>  <Set>  (48) 
G2 inactive

>  <Set_type>  (48) 
Train

>  <MW>  (48) 
402.45

>  <HBD>  (48) 
2

>  <HBA>  (48) 
6

>  <NRB>  (48) 
5

>  <NR>  (48) 
3

>  <NAR>  (48) 
2

>  <PSA>  (48) 
118.05

>  <Standard Type>  (48) 
nan

>  <Standard Relation>  (48) 
nan

>  <Standard Units>  (48) 
nan

>  <Standard Value>  (48) 
nan

>  <Assay ChEMBL ID>  (48) 
nan

>  <Assay Description>  (48) 
nan

>  <BAO Label>  (48) 
nan

$$$$

     RDKit          2D

 33 36  0  0  0  0  0  0  0  0999 V2000
   -6.2940    7.2357    0.0000 C   0  0  0  0  0  0  0  0  0  0  0  0
   -5.1793    6.2320    0.0000 C   0  0  0  0  0  0  0  0  0  0  0  0
   -3.7527    6.6955    0.0000 C   0  0  0  0  0  0  0  0  0  0  0  0
   -2.6380    5.6918    0.0000 C   0  0  0  0  0  0  0  0  0  0  0  0
   -2.9499    4.2246    0.0000 C   0  0  0  0  0  0  0  0  0  0  0  0
   -1.8351    3.2209    0.0000 C   0  0  0  0  0  0  0  0  0  0  0  0
   -0.4086    3.6844    0.0000 C   0  0  0  0  0  0  0  0  0  0  0  0
    0.7062    2.6807    0.0000 C   0  0  0  0  0  0  0  0  0  0  0  0
    2.1328    3.1443    0.0000 C   0  0  0  0  0  0  0  0  0  0  0  0
    3.5593    3.6078    0.0000 F   0  0  0  0  0  0  0  0  0  0  0  0
    1.6692    4.5709    0.0000 F   0  0  0  0  0  0  0  0  0  0  0  0
    2.5963    1.7177    0.0000 F   0  0  0  0  0  0  0  0  0  0  0  0
    0.3943    1.2135    0.0000 N   0  0  0  0  0  0  0  0  0  0  0  0
    1.2760    0.0000    0.0000 N   0  0  0  0  0  0  0  0  0  0  0  0
    0.3943   -1.2135    0.0000 C   0  0  0  0  0  0  0  0  0  0  0  0
    0.8578   -2.6401    0.0000 C   0  0  0  0  0  0  0  0  0  0  0  0
    2.2844   -3.1036    0.0000 N   0  0  0  0  0  0  0  0  0  0  0  0
    2.2844   -4.6036    0.0000 N   0  0  0  0  0  0  0  0  0  0  0  0
    0.8578   -5.0672    0.0000 C   0  0  0  0  0  0  0  0  0  0  0  0
    0.3943   -6.4937    0.0000 S   0  0  0  0  0  1  0  0  0  0  0  0
   -0.0239   -3.8536    0.0000 N   0  0  0  0  0  0  0  0  0  0  0  0
   -1.5239   -3.8536    0.0000 C   0  0  0  0  0  0  0  0  0  0  0  0
   -2.2739   -5.1527    0.0000 C   0  0  0  0  0  0  0  0  0  0  0  0
   -3.7739   -5.1527    0.0000 C   0  0  0  0  0  0  0  0  0  0  0  0
   -4.5239   -6.4517    0.0000 N   0  0  0  0  0  4  0  0  0  0  0  0
   -6.0239   -6.4517    0.0000 C   0  0  0  0  0  0  0  0  0  0  0  0
   -3.7739   -7.7508    0.0000 C   0  0  0  0  0  0  0  0  0  0  0  0
   -1.0323   -0.7500    0.0000 C   0  0  0  0  0  0  0  0  0  0  0  0
   -1.0323    0.7500    0.0000 C   0  0  0  0  0  0  0  0  0  0  0  0
   -2.1470    1.7537    0.0000 N   0  0  0  0  0  0  0  0  0  0  0  0
   -4.3764    3.7611    0.0000 C   0  0  0  0  0  0  0  0  0  0  0  0
   -5.4912    4.7648    0.0000 C   0  0  0  0  0  0  0  0  0  0  0  0
   -6.9177    4.3013    0.0000 C   0  0  0  0  0  0  0  0  0  0  0  0
  1  2  1  0
  2  3  2  0
  3  4  1  0
  4  5  2  0
  6  5  1  6
  6  7  1  0
  7  8  1  0
  8  9  1  6
  9 10  1  0
  9 11  1  0
  9 12  1  0
  8 13  1  0
 13 14  1  0
 14 15  2  0
 15 16  1  0
 16 17  2  0
 17 18  1  0
 18 19  2  0
 19 20  1  0
 19 21  1  0
 21 22  1  0
 22 23  1  0
 23 24  1  0
 24 25  1  0
 25 26  1  0
 25 27  1  0
 15 28  1  0
 28 29  2  0
 29 30  1  0
  5 31  1  0
 31 32  2  0
 32 33  1  0
 32  2  1  0
 30  6  1  0
 29 13  1  0
 21 16  1  0
M  CHG  2  20  -1  25   1
M  END
>  <Compound_ID>  (49) 
C22716238

>  <Active>  (49) 
0

>  <Smiles>  (49) 
Cc1ccc([C@@H]2C[C@H](C(F)(F)F)n3nc(-c4nnc([S-])n4CCC[NH+](C)C)cc3N2)cc1C

>  <canonical_smi>  (49) 
Cc1ccc([C@@H]2C[C@H](C(F)(F)F)n3nc(-c4nnc([S-])n4CCC[NH+](C)C)cc3N2)cc1C

>  <Set>  (49) 
G2 inactive

>  <Set_type>  (49) 
Train

>  <MW>  (49) 
479.58

>  <HBD>  (49) 
2

>  <HBA>  (49) 
5

>  <NRB>  (49) 
6

>  <NR>  (49) 
4

>  <NAR>  (49) 
3

>  <PSA>  (49) 
65.0

>  <Standard Type>  (49) 
nan

>  <Standard Relation>  (49) 
nan

>  <Standard Units>  (49) 
nan

>  <Standard Value>  (49) 
nan

>  <Assay ChEMBL ID>  (49) 
nan

>  <Assay Description>  (49) 
nan

>  <BAO Label>  (49) 
nan

$$$$

     RDKit          2D

 28 30  0  0  0  0  0  0  0  0999 V2000
    3.0000    0.0000    0.0000 C   0  0  0  0  0  0  0  0  0  0  0  0
    1.5000    0.0000    0.0000 C   0  0  0  0  0  0  0  0  0  0  0  0
    0.7500   -1.2990    0.0000 C   0  0  0  0  0  0  0  0  0  0  0  0
   -0.7500   -1.2990    0.0000 C   0  0  0  0  0  0  0  0  0  0  0  0
   -1.5000    0.0000    0.0000 C   0  0  0  0  0  0  0  0  0  0  0  0
   -3.0000    0.0000    0.0000 C   0  0  0  0  0  0  0  0  0  0  0  0
   -2.7395   -1.4772    0.0000 O   0  0  0  0  0  0  0  0  0  0  0  0
   -2.7395    1.4772    0.0000 N   0  0  0  0  0  0  0  0  0  0  0  0
   -3.8886    2.4414    0.0000 C   0  0  0  0  0  0  0  0  0  0  0  0
   -3.6281    3.9186    0.0000 O   0  0  0  0  0  0  0  0  0  0  0  0
   -5.2981    1.9284    0.0000 N   0  0  0  0  0  0  0  0  0  0  0  0
   -5.5586    0.4512    0.0000 C   0  0  0  0  0  0  0  0  0  0  0  0
   -6.9681   -0.0619    0.0000 C   0  0  0  0  0  0  0  0  0  0  0  0
   -7.2286   -1.5391    0.0000 C   0  0  0  0  0  0  0  0  0  0  0  0
   -8.6382   -2.0521    0.0000 C   0  0  0  0  0  0  0  0  0  0  0  0
   -9.7872   -1.0879    0.0000 C   0  0  0  0  0  0  0  0  0  0  0  0
  -11.1968   -1.6010    0.0000 O   0  0  0  0  0  0  0  0  0  0  0  0
   -9.5268    0.3893    0.0000 C   0  0  0  0  0  0  0  0  0  0  0  0
   -8.1172    0.9023    0.0000 C   0  0  0  0  0  0  0  0  0  0  0  0
   -4.4095   -0.5130    0.0000 C   0  0  0  0  0  0  0  0  0  0  0  0
   -4.6700   -1.9902    0.0000 C   0  0  0  0  0  0  0  0  0  0  0  0
   -3.5209   -2.9544    0.0000 O   0  0  0  0  0  0  0  0  0  0  0  0
   -6.0796   -2.5033    0.0000 C   0  0  0  0  0  0  0  0  0  0  0  0
   -7.4891   -3.0163    0.0000 F   0  0  0  0  0  0  0  0  0  0  0  0
   -6.2363   -1.0115    0.0000 F   0  0  0  0  0  0  0  0  0  0  0  0
   -5.5665   -3.9128    0.0000 F   0  0  0  0  0  0  0  0  0  0  0  0
   -0.7500    1.2990    0.0000 C   0  0  0  0  0  0  0  0  0  0  0  0
    0.7500    1.2990    0.0000 C   0  0  0  0  0  0  0  0  0  0  0  0
  1  2  1  0
  2  3  2  0
  3  4  1  0
  4  5  2  0
  5  6  1  0
  6  7  1  1
  6  8  1  0
  8  9  1  0
  9 10  2  0
  9 11  1  0
 11 12  1  0
 12 13  1  6
 13 14  2  0
 14 15  1  0
 15 16  2  0
 16 17  1  0
 16 18  1  0
 18 19  2  0
 12 20  1  0
 20 21  1  1
 21 22  2  0
 21 23  1  0
 23 24  1  0
 23 25  1  0
 23 26  1  0
  5 27  1  0
 27 28  2  0
 28  2  1  0
 20  6  1  0
 19 13  1  0
M  END
>  <Compound_ID>  (50) 
C27753935

>  <Active>  (50) 
0

>  <Smiles>  (50) 
Cc1ccc([C@@]2(O)NC(=O)N[C@@H](c3ccc(O)cc3)[C@@H]2C(=O)C(F)(F)F)cc1

>  <canonical_smi>  (50) 
Cc1ccc([C@@]2(O)NC(=O)N[C@@H](c3ccc(O)cc3)[C@@H]2C(=O)C(F)(F)F)cc1

>  <Set>  (50) 
G2 inactive

>  <Set_type>  (50) 
Train

>  <MW>  (50) 
394.35

>  <HBD>  (50) 
4

>  <HBA>  (50) 
4

>  <NRB>  (50) 
3

>  <NR>  (50) 
3

>  <NAR>  (50) 
2

>  <PSA>  (50) 
98.66

>  <Standard Type>  (50) 
nan

>  <Standard Relation>  (50) 
nan

>  <Standard Units>  (50) 
nan

>  <Standard Value>  (50) 
nan

>  <Assay ChEMBL ID>  (50) 
nan

>  <Assay Description>  (50) 
nan

>  <BAO Label>  (50) 
nan

$$$$

     RDKit          2D

 34 37  0  0  0  0  0  0  0  0999 V2000
    3.7500   -1.2990    0.0000 C   0  0  0  0  0  0  0  0  0  0  0  0
    3.0000    0.0000    0.0000 C   0  0  0  0  0  0  0  0  0  0  0  0
    1.5000    0.0000    0.0000 C   0  0  0  0  0  0  0  0  0  0  0  0
    0.7500   -1.2990    0.0000 C   0  0  0  0  0  0  0  0  0  0  0  0
   -0.7500   -1.2990    0.0000 C   0  0  0  0  0  0  0  0  0  0  0  0
   -1.5000    0.0000    0.0000 C   0  0  0  0  0  0  0  0  0  0  0  0
   -3.0000    0.0000    0.0000 C   0  0  0  0  0  0  0  0  0  0  0  0
   -3.7500    1.2990    0.0000 C   0  0  0  0  0  0  0  0  0  0  0  0
   -5.2500    1.2990    0.0000 C   0  0  0  0  0  0  0  0  0  0  0  0
   -6.0000    0.0000    0.0000 C   0  0  0  0  0  0  0  0  0  0  0  0
   -7.5000    0.0000    0.0000 O   0  0  0  0  0  0  0  0  0  0  0  0
   -5.2500   -1.2990    0.0000 N   0  0  0  0  0  0  0  0  0  0  0  0
   -6.0000   -2.5981    0.0000 C   0  0  0  0  0  0  0  0  0  0  0  0
   -5.2500   -3.8971    0.0000 C   0  0  0  0  0  0  0  0  0  0  0  0
   -6.0000   -5.1962    0.0000 C   0  0  0  0  0  0  0  0  0  0  0  0
   -7.5000   -5.1962    0.0000 O   0  0  0  0  0  0  0  0  0  0  0  0
   -5.2500   -6.4952    0.0000 N   0  0  0  0  0  0  0  0  0  0  0  0
   -6.0000   -7.7942    0.0000 C   0  0  0  0  0  0  0  0  0  0  0  0
   -5.2500   -9.0933    0.0000 C   0  0  0  0  0  0  0  0  0  0  0  0
   -3.7500   -9.0933    0.0000 C   0  0  0  0  0  0  0  0  0  0  0  0
   -2.3405   -9.6063    0.0000 C   0  0  0  0  0  0  0  0  0  0  0  0
   -2.0800  -11.0835    0.0000 N   0  0  0  0  0  0  0  0  0  0  0  0
   -1.1914   -8.6421    0.0000 O   0  0  0  0  0  0  0  0  0  0  0  0
   -4.0105  -10.5705    0.0000 N   0  0  0  0  0  4  0  0  0  0  0  0
   -5.4200  -11.0835    0.0000 C   0  0  0  0  0  0  0  0  0  0  0  0
   -5.6805  -12.5607    0.0000 C   0  0  0  0  0  0  0  0  0  0  0  0
   -4.5314  -13.5249    0.0000 C   0  0  0  0  0  0  0  0  0  0  0  0
   -3.1219  -13.0119    0.0000 C   0  0  0  0  0  0  0  0  0  0  0  0
   -2.8614  -11.5347    0.0000 C   0  0  0  0  0  0  0  0  0  0  0  0
   -3.0000   -7.7942    0.0000 C   0  0  0  0  0  0  0  0  0  0  0  0
   -3.7500   -6.4952    0.0000 C   0  0  0  0  0  0  0  0  0  0  0  0
   -3.7500   -1.2990    0.0000 N   0  0  0  0  0  0  0  0  0  0  0  0
   -0.7500    1.2990    0.0000 C   0  0  0  0  0  0  0  0  0  0  0  0
    0.7500    1.2990    0.0000 C   0  0  0  0  0  0  0  0  0  0  0  0
  1  2  1  0
  2  3  1  0
  3  4  2  0
  4  5  1  0
  5  6  2  0
  6  7  1  0
  7  8  1  0
  8  9  2  0
  9 10  1  0
 10 11  2  0
 10 12  1  0
 12 13  1  0
 13 14  1  0
 14 15  1  0
 15 16  2  0
 15 17  1  0
 17 18  1  0
 18 19  1  0
 19 20  1  0
 20 21  1  0
 21 22  1  0
 21 23  2  0
 20 24  1  0
 24 25  1  0
 25 26  1  0
 26 27  1  0
 27 28  1  0
 28 29  1  0
 20 30  1  0
 30 31  1  0
 12 32  1  0
  6 33  1  0
 33 34  2  0
 34  3  1  0
 32  7  2  0
 31 17  1  0
 29 24  1  0
M  CHG  1  24   1
M  END
>  <Compound_ID>  (51) 
C41252447

>  <Active>  (51) 
0

>  <Smiles>  (51) 
CCc1ccc(-c2ccc(=O)n(CCC(=O)N3CCC(C(N)=O)([NH+]4CCCCC4)CC3)n2)cc1

>  <canonical_smi>  (51) 
CCc1ccc(-c2ccc(=O)n(CCC(=O)N3CCC(C(N)=O)([NH+]4CCCCC4)CC3)n2)cc1

>  <Set>  (51) 
G2 inactive

>  <Set_type>  (51) 
Train

>  <MW>  (51) 
466.61

>  <HBD>  (51) 
2

>  <HBA>  (51) 
4

>  <NRB>  (51) 
7

>  <NR>  (51) 
4

>  <NAR>  (51) 
2

>  <PSA>  (51) 
102.73

>  <Standard Type>  (51) 
nan

>  <Standard Relation>  (51) 
nan

>  <Standard Units>  (51) 
nan

>  <Standard Value>  (51) 
nan

>  <Assay ChEMBL ID>  (51) 
nan

>  <Assay Description>  (51) 
nan

>  <BAO Label>  (51) 
nan

$$$$

     RDKit          2D

 20 21  0  0  0  0  0  0  0  0999 V2000
   -0.5007   -8.2481    0.0000 C   0  0  0  0  0  0  0  0  0  0  0  0
   -0.0372   -6.8216    0.0000 C   0  0  0  0  0  0  0  0  0  0  0  0
   -1.0409   -5.7068    0.0000 C   0  0  0  0  0  0  0  0  0  0  0  0
   -2.5081   -6.0187    0.0000 C   0  0  0  0  0  0  0  0  0  0  0  0
   -0.5773   -4.2803    0.0000 C   0  0  0  0  0  0  0  0  0  0  0  0
   -1.5810   -3.1655    0.0000 C   0  0  0  0  0  0  0  0  0  0  0  0
    0.8899   -3.9684    0.0000 N   0  0  0  0  0  0  0  0  0  0  0  0
    2.0046   -4.9721    0.0000 N   0  0  0  0  0  0  0  0  0  0  0  0
    3.3037   -4.2221    0.0000 N   0  0  0  0  0  0  0  0  0  0  0  0
    2.9918   -2.7549    0.0000 N   0  0  0  0  0  0  0  0  0  0  0  0
    1.5000   -2.5981    0.0000 C   0  0  0  0  0  0  0  0  0  0  0  0
    0.7500   -1.2990    0.0000 C   0  0  0  0  0  0  0  0  0  0  0  0
   -0.7500   -1.2990    0.0000 C   0  0  0  0  0  0  0  0  0  0  0  0
   -1.5000    0.0000    0.0000 C   0  0  0  0  0  0  0  0  0  0  0  0
   -3.0000    0.0000    0.0000 N   0  0  0  0  0  0  0  0  0  0  0  0
   -0.7500    1.2990    0.0000 C   0  0  0  0  0  0  0  0  0  0  0  0
   -1.5000    2.5981    0.0000 Cl  0  0  0  0  0  0  0  0  0  0  0  0
    0.7500    1.2990    0.0000 C   0  0  0  0  0  0  0  0  0  0  0  0
    1.5000    2.5981    0.0000 Cl  0  0  0  0  0  0  0  0  0  0  0  0
    1.5000   -0.0000    0.0000 C   0  0  0  0  0  0  0  0  0  0  0  0
  1  2  1  0
  2  3  1  0
  3  4  1  1
  3  5  1  0
  5  6  1  1
  5  7  1  0
  7  8  1  0
  8  9  2  0
  9 10  1  0
 10 11  2  0
 11 12  1  0
 12 13  2  0
 13 14  1  0
 14 15  1  0
 14 16  2  0
 16 17  1  0
 16 18  1  0
 18 19  1  0
 18 20  2  0
 11  7  1  0
 20 12  1  0
M  END
>  <Compound_ID>  (52) 
C49094987

>  <Active>  (52) 
0

>  <Smiles>  (52) 
CC[C@@H](C)[C@@H](C)n1nnnc1-c1cc(N)c(Cl)c(Cl)c1

>  <canonical_smi>  (52) 
CC[C@@H](C)[C@@H](C)n1nnnc1-c1cc(N)c(Cl)c(Cl)c1

>  <Set>  (52) 
G2 inactive

>  <Set_type>  (52) 
Train

>  <MW>  (52) 
314.22

>  <HBD>  (52) 
1

>  <HBA>  (52) 
4

>  <NRB>  (52) 
4

>  <NR>  (52) 
2

>  <NAR>  (52) 
2

>  <PSA>  (52) 
69.62

>  <Standard Type>  (52) 
nan

>  <Standard Relation>  (52) 
nan

>  <Standard Units>  (52) 
nan

>  <Standard Value>  (52) 
nan

>  <Assay ChEMBL ID>  (52) 
nan

>  <Assay Description>  (52) 
nan

>  <BAO Label>  (52) 
nan

$$$$

     RDKit          2D

 26 27  0  0  0  0  0  0  0  0999 V2000
   -3.0000   -5.1962    0.0000 C   0  0  0  0  0  0  0  0  0  0  0  0
   -1.5000   -5.1962    0.0000 C   0  0  0  0  0  0  0  0  0  0  0  0
   -0.7500   -3.8971    0.0000 N   0  0  0  0  0  4  0  0  0  0  0  0
    0.7500   -3.8971    0.0000 C   0  0  0  0  0  0  0  0  0  0  0  0
    1.5000   -5.1962    0.0000 C   0  0  0  0  0  0  0  0  0  0  0  0
    1.5000   -2.5981    0.0000 C   0  0  0  0  0  0  0  0  0  0  0  0
    3.0000   -2.5981    0.0000 O   0  0  0  0  0  0  0  0  0  0  0  0
    0.7500   -1.2990    0.0000 C   0  0  0  0  0  0  0  0  0  0  0  0
    1.5000    0.0000    0.0000 C   0  0  0  0  0  0  0  0  0  0  0  0
    3.0000    0.0000    0.0000 N   0  0  0  0  0  0  0  0  0  0  0  0
    0.7500    1.2990    0.0000 N   0  0  0  0  0  0  0  0  0  0  0  0
    1.5000    2.5981    0.0000 C   0  0  0  0  0  0  0  0  0  0  0  0
   -0.7500    1.2990    0.0000 C   0  0  0  0  0  0  0  0  0  0  0  0
   -1.5000    2.5981    0.0000 O   0  0  0  0  0  0  0  0  0  0  0  0
   -1.5000    0.0000    0.0000 N   0  0  0  0  0  0  0  0  0  0  0  0
   -3.0000    0.0000    0.0000 C   0  0  0  0  0  0  0  0  0  0  0  0
   -0.7500   -1.2990    0.0000 C   0  0  0  0  0  0  0  0  0  0  0  0
   -1.5000   -2.5981    0.0000 O   0  0  0  0  0  0  0  0  0  0  0  0
   -0.7500   -6.4952    0.0000 C   0  0  0  0  0  0  0  0  0  0  0  0
    0.7500   -6.4952    0.0000 C   0  0  0  0  0  0  0  0  0  0  0  0
    1.5000   -7.7942    0.0000 C   0  0  0  0  0  0  0  0  0  0  0  0
    0.7500   -9.0933    0.0000 C   0  0  0  0  0  0  0  0  0  0  0  0
    1.5000  -10.3923    0.0000 F   0  0  0  0  0  0  0  0  0  0  0  0
   -0.7500   -9.0933    0.0000 C   0  0  0  0  0  0  0  0  0  0  0  0
   -1.5000   -7.7942    0.0000 C   0  0  0  0  0  0  0  0  0  0  0  0
   -3.0000   -7.7942    0.0000 F   0  0  0  0  0  0  0  0  0  0  0  0
  2  1  1  6
  2  3  1  0
  3  4  1  0
  4  5  1  1
  4  6  1  0
  6  7  2  0
  6  8  1  0
  8  9  2  0
  9 10  1  0
  9 11  1  0
 11 12  1  0
 11 13  1  0
 13 14  2  0
 13 15  1  0
 15 16  1  0
 15 17  1  0
 17 18  2  0
  2 19  1  0
 19 20  2  0
 20 21  1  0
 21 22  2  0
 22 23  1  0
 22 24  1  0
 24 25  2  0
 25 26  1  0
 17  8  1  0
 25 19  1  0
M  CHG  1   3   1
M  END
>  <Compound_ID>  (53) 
C32792031

>  <Active>  (53) 
0

>  <Smiles>  (53) 
C[C@H]([NH2+][C@H](C)C(=O)c1c(N)n(C)c(=O)n(C)c1=O)c1ccc(F)cc1F

>  <canonical_smi>  (53) 
C[C@H]([NH2+][C@H](C)C(=O)c1c(N)n(C)c(=O)n(C)c1=O)c1ccc(F)cc1F

>  <Set>  (53) 
G2 inactive

>  <Set_type>  (53) 
Train

>  <MW>  (53) 
367.38

>  <HBD>  (53) 
2

>  <HBA>  (53) 
4

>  <NRB>  (53) 
5

>  <NR>  (53) 
2

>  <NAR>  (53) 
2

>  <PSA>  (53) 
103.7

>  <Standard Type>  (53) 
nan

>  <Standard Relation>  (53) 
nan

>  <Standard Units>  (53) 
nan

>  <Standard Value>  (53) 
nan

>  <Assay ChEMBL ID>  (53) 
nan

>  <Assay Description>  (53) 
nan

>  <BAO Label>  (53) 
nan

$$$$

     RDKit          2D

 27 30  0  0  0  0  0  0  0  0999 V2000
    8.2500   -6.4952    0.0000 C   0  0  0  0  0  0  0  0  0  0  0  0
    7.5000   -5.1962    0.0000 C   0  0  0  0  0  0  0  0  0  0  0  0
    6.0000   -5.1962    0.0000 C   0  0  0  0  0  0  0  0  0  0  0  0
    5.2500   -3.8971    0.0000 C   0  0  0  0  0  0  0  0  0  0  0  0
    3.7500   -3.8971    0.0000 N   0  0  0  0  0  0  0  0  0  0  0  0
    3.0000   -5.1962    0.0000 C   0  0  0  0  0  0  0  0  0  0  0  0
    3.7500   -6.4952    0.0000 O   0  0  0  0  0  0  0  0  0  0  0  0
    1.5000   -5.1962    0.0000 N   0  0  0  0  0  0  0  0  0  0  0  0
    0.7500   -3.8971    0.0000 C   0  0  0  0  0  0  0  0  0  0  0  0
   -0.7500   -3.8971    0.0000 O   0  0  0  0  0  1  0  0  0  0  0  0
    1.5000   -2.5981    0.0000 C   0  0  0  0  0  0  0  0  0  0  0  0
    0.7500   -1.2990    0.0000 C   0  0  0  0  0  0  0  0  0  0  0  0
    1.5000    0.0000    0.0000 N   0  0  0  0  0  4  0  0  0  0  0  0
    0.7500    1.2990    0.0000 C   0  0  0  0  0  0  0  0  0  0  0  0
   -0.7500    1.2990    0.0000 C   0  0  0  0  0  0  0  0  0  0  0  0
   -1.5000    0.0000    0.0000 C   0  0  0  0  0  0  0  0  0  0  0  0
   -2.9672   -0.3119    0.0000 C   0  0  0  0  0  0  0  0  0  0  0  0
   -4.1807    0.5698    0.0000 C   0  0  0  0  0  0  0  0  0  0  0  0
   -5.5511   -0.0403    0.0000 C   0  0  0  0  0  0  0  0  0  0  0  0
   -6.7646    0.8414    0.0000 C   0  0  0  0  0  0  0  0  0  0  0  0
   -5.7079   -1.5321    0.0000 C   0  0  0  0  0  0  0  0  0  0  0  0
   -4.4943   -2.4138    0.0000 C   0  0  0  0  0  0  0  0  0  0  0  0
   -3.1240   -1.8037    0.0000 C   0  0  0  0  0  0  0  0  0  0  0  0
   -1.7537   -2.4138    0.0000 N   0  0  0  0  0  4  0  0  0  0  0  0
   -0.7500   -1.2990    0.0000 C   0  0  0  0  0  0  0  0  0  0  0  0
    3.0000   -2.5981    0.0000 C   0  0  0  0  0  0  0  0  0  0  0  0
    3.7500   -1.2990    0.0000 O   0  0  0  0  0  0  0  0  0  0  0  0
  1  2  1  0
  2  3  1  0
  3  4  1  0
  4  5  1  0
  5  6  1  0
  6  7  2  0
  6  8  1  0
  8  9  1  0
  9 10  1  0
  9 11  2  0
 12 11  1  1
 12 13  1  0
 13 14  1  0
 14 15  1  0
 15 16  1  0
 16 17  2  0
 17 18  1  0
 18 19  2  0
 19 20  1  0
 19 21  1  0
 21 22  2  0
 22 23  1  0
 23 24  2  0
 25 24  1  6
 11 26  1  0
 26 27  2  0
 26  5  1  0
 25 12  1  0
 25 16  1  0
 23 17  1  0
M  CHG  3  10  -1  13   1  24   1
M  END
>  <Compound_ID>  (54) 
C64062029

>  <Active>  (54) 
0

>  <Smiles>  (54) 
CCCCn1c(=O)[nH]c([O-])c([C@@H]2[NH2+]CCC3=c4cc(C)ccc4=[NH+][C@H]32)c1=O

>  <canonical_smi>  (54) 
CCCCn1c(=O)[nH]c([O-])c([C@@H]2[NH2+]CCC3=c4cc(C)ccc4=[NH+][C@H]32)c1=O

>  <Set>  (54) 
G2 inactive

>  <Set_type>  (54) 
Train

>  <MW>  (54) 
369.45

>  <HBD>  (54) 
3

>  <HBA>  (54) 
3

>  <NRB>  (54) 
4

>  <NR>  (54) 
4

>  <NAR>  (54) 
2

>  <PSA>  (54) 
108.5

>  <Standard Type>  (54) 
nan

>  <Standard Relation>  (54) 
nan

>  <Standard Units>  (54) 
nan

>  <Standard Value>  (54) 
nan

>  <Assay ChEMBL ID>  (54) 
nan

>  <Assay Description>  (54) 
nan

>  <BAO Label>  (54) 
nan

$$$$

     RDKit          2D

 26 26  0  0  0  0  0  0  0  0999 V2000
    7.5000   -2.5981    0.0000 C   0  0  0  0  0  0  0  0  0  0  0  0
    6.0000   -2.5981    0.0000 N   0  0  0  0  0  4  0  0  0  0  0  0
    5.2500   -3.8971    0.0000 C   0  0  0  0  0  0  0  0  0  0  0  0
    6.0000   -5.1962    0.0000 C   0  0  0  0  0  0  0  0  0  0  0  0
    7.5000   -5.1962    0.0000 O   0  0  0  0  0  0  0  0  0  0  0  0
    5.2500   -6.4952    0.0000 N   0  0  0  0  0  0  0  0  0  0  0  0
    6.0000   -7.7942    0.0000 C   0  0  0  0  0  0  0  0  0  0  0  0
    7.5000   -7.7942    0.0000 O   0  0  0  0  0  0  0  0  0  0  0  0
    5.2500   -9.0933    0.0000 N   0  0  0  0  0  0  0  0  0  0  0  0
    6.0000  -10.3923    0.0000 C   0  0  0  0  0  0  0  0  0  0  0  0
    5.2500  -11.6913    0.0000 C   0  0  0  0  0  0  0  0  0  0  0  0
    4.5000  -12.9904    0.0000 F   0  0  0  0  0  0  0  0  0  0  0  0
    6.5490  -12.4413    0.0000 F   0  0  0  0  0  0  0  0  0  0  0  0
    3.9510  -10.9413    0.0000 F   0  0  0  0  0  0  0  0  0  0  0  0
    5.2500   -1.2990    0.0000 C   0  0  0  0  0  0  0  0  0  0  0  0
    3.7500   -1.2990    0.0000 C   0  0  0  0  0  0  0  0  0  0  0  0
    3.0000   -2.5981    0.0000 O   0  0  0  0  0  0  0  0  0  0  0  0
    3.0000    0.0000    0.0000 N   0  0  0  0  0  0  0  0  0  0  0  0
    1.5000    0.0000    0.0000 C   0  0  0  0  0  0  0  0  0  0  0  0
    0.7500   -1.2990    0.0000 C   0  0  0  0  0  0  0  0  0  0  0  0
   -0.7500   -1.2990    0.0000 C   0  0  0  0  0  0  0  0  0  0  0  0
   -1.5000   -2.5981    0.0000 F   0  0  0  0  0  0  0  0  0  0  0  0
   -1.5000    0.0000    0.0000 C   0  0  0  0  0  0  0  0  0  0  0  0
   -0.7500    1.2990    0.0000 C   0  0  0  0  0  0  0  0  0  0  0  0
   -1.5000    2.5981    0.0000 F   0  0  0  0  0  0  0  0  0  0  0  0
    0.7500    1.2990    0.0000 C   0  0  0  0  0  0  0  0  0  0  0  0
  1  2  1  0
  2  3  1  0
  3  4  1  0
  4  5  2  0
  4  6  1  0
  6  7  1  0
  7  8  2  0
  7  9  1  0
  9 10  1  0
 10 11  1  0
 11 12  1  0
 11 13  1  0
 11 14  1  0
  2 15  1  0
 15 16  1  0
 16 17  2  0
 16 18  1  0
 18 19  1  0
 19 20  2  0
 20 21  1  0
 21 22  1  0
 21 23  2  0
 23 24  1  0
 24 25  1  0
 24 26  2  0
 26 19  1  0
M  CHG  1   2   1
M  END
>  <Compound_ID>  (55) 
C66844317

>  <Active>  (55) 
0

>  <Smiles>  (55) 
C[NH+](CC(=O)NC(=O)NCC(F)(F)F)CC(=O)Nc1cc(F)cc(F)c1

>  <canonical_smi>  (55) 
C[NH+](CC(=O)NC(=O)NCC(F)(F)F)CC(=O)Nc1cc(F)cc(F)c1

>  <Set>  (55) 
G2 inactive

>  <Set_type>  (55) 
Train

>  <MW>  (55) 
383.3

>  <HBD>  (55) 
4

>  <HBA>  (55) 
3

>  <NRB>  (55) 
6

>  <NR>  (55) 
1

>  <NAR>  (55) 
1

>  <PSA>  (55) 
91.74

>  <Standard Type>  (55) 
nan

>  <Standard Relation>  (55) 
nan

>  <Standard Units>  (55) 
nan

>  <Standard Value>  (55) 
nan

>  <Assay ChEMBL ID>  (55) 
nan

>  <Assay Description>  (55) 
nan

>  <BAO Label>  (55) 
nan

$$$$

     RDKit          2D

 28 31  0  0  0  0  0  0  0  0999 V2000
    3.7500   -1.2990    0.0000 C   0  0  0  0  0  0  0  0  0  0  0  0
    3.0000    0.0000    0.0000 O   0  0  0  0  0  0  0  0  0  0  0  0
    1.5000    0.0000    0.0000 C   0  0  0  0  0  0  0  0  0  0  0  0
    0.7500   -1.2990    0.0000 C   0  0  0  0  0  0  0  0  0  0  0  0
   -0.7500   -1.2990    0.0000 C   0  0  0  0  0  0  0  0  0  0  0  0
   -1.5000    0.0000    0.0000 C   0  0  0  0  0  0  0  0  0  0  0  0
   -3.0000    0.0000    0.0000 C   0  0  0  0  0  0  0  0  0  0  0  0
   -3.7500    1.2990    0.0000 N   0  0  0  0  0  0  0  0  0  0  0  0
   -5.2500    1.2990    0.0000 N   0  0  0  0  0  0  0  0  0  0  0  0
   -6.1317    0.0855    0.0000 C   0  0  0  0  0  0  0  0  0  0  0  0
   -5.6682   -1.3411    0.0000 S   0  0  0  0  0  0  0  0  0  0  0  0
   -7.5583    0.5490    0.0000 N   0  0  0  0  0  0  0  0  0  0  0  0
   -7.5583    2.0490    0.0000 N   0  0  0  0  0  0  0  0  0  0  0  0
   -6.1317    2.5126    0.0000 C   0  0  0  0  0  0  0  0  0  0  0  0
   -5.6682    3.9391    0.0000 C   0  0  0  0  0  0  0  0  0  0  0  0
   -6.5498    5.1527    0.0000 C   0  0  0  0  0  0  0  0  0  0  0  0
   -5.6682    6.3662    0.0000 C   0  0  0  0  0  0  0  0  0  0  0  0
   -6.1317    7.7928    0.0000 C   0  0  0  0  0  0  0  0  0  0  0  0
   -5.1280    8.9075    0.0000 C   0  0  0  0  0  0  0  0  0  0  0  0
   -5.5915   10.3341    0.0000 C   0  0  0  0  0  0  0  0  0  0  0  0
   -7.0587   10.6460    0.0000 C   0  0  0  0  0  0  0  0  0  0  0  0
   -8.0624    9.5312    0.0000 C   0  0  0  0  0  0  0  0  0  0  0  0
   -7.5989    8.1047    0.0000 C   0  0  0  0  0  0  0  0  0  0  0  0
   -4.2416    5.9027    0.0000 N   0  0  0  0  0  0  0  0  0  0  0  0
   -4.2416    4.4027    0.0000 N   0  0  0  0  0  0  0  0  0  0  0  0
   -0.7500    1.2990    0.0000 C   0  0  0  0  0  0  0  0  0  0  0  0
    0.7500    1.2990    0.0000 C   0  0  0  0  0  0  0  0  0  0  0  0
    1.5000    2.5981    0.0000 Br  0  0  0  0  0  0  0  0  0  0  0  0
  1  2  1  0
  2  3  1  0
  3  4  2  0
  4  5  1  0
  5  6  2  0
  6  7  1  0
  7  8  2  0
  8  9  1  0
  9 10  1  0
 10 11  1  1
 10 12  1  0
 12 13  1  0
 14 13  1  1
 14 15  1  0
 15 16  1  6
 16 17  2  0
 17 18  1  0
 18 19  2  0
 19 20  1  0
 20 21  2  0
 21 22  1  0
 22 23  2  0
 17 24  1  0
 24 25  2  0
  6 26  1  0
 26 27  2  0
 27 28  1  0
 27  3  1  0
 14  9  1  0
 25 15  1  0
 23 18  1  0
M  END
>  <Compound_ID>  (56) 
C38965832

>  <Active>  (56) 
0

>  <Smiles>  (56) 
COc1ccc(/C=N/N2[C@@H](S)NN[C@H]2[C@@H]2C=C(c3ccccc3)N=N2)cc1Br

>  <canonical_smi>  (56) 
COc1ccc(/C=N/N2[C@@H](S)NN[C@H]2[C@@H]2C=C(c3ccccc3)N=N2)cc1Br

>  <Set>  (56) 
G2 inactive

>  <Set_type>  (56) 
Train

>  <MW>  (56) 
459.37

>  <HBD>  (56) 
3

>  <HBA>  (56) 
4

>  <NRB>  (56) 
5

>  <NR>  (56) 
4

>  <NAR>  (56) 
2

>  <PSA>  (56) 
73.61

>  <Standard Type>  (56) 
nan

>  <Standard Relation>  (56) 
nan

>  <Standard Units>  (56) 
nan

>  <Standard Value>  (56) 
nan

>  <Assay ChEMBL ID>  (56) 
nan

>  <Assay Description>  (56) 
nan

>  <BAO Label>  (56) 
nan

$$$$

     RDKit          2D

 21 24  0  0  0  0  0  0  0  0999 V2000
   -6.1149    1.8303    0.0000 C   0  0  0  0  0  0  0  0  0  0  0  0
   -4.6883    2.2939    0.0000 C   0  0  0  0  0  0  0  0  0  0  0  0
   -3.5736    1.2902    0.0000 N   0  0  0  0  0  0  0  0  0  0  0  0
   -2.1470    1.7537    0.0000 C   0  0  0  0  0  0  0  0  0  0  0  0
   -1.8351    3.2209    0.0000 C   0  0  0  0  0  0  0  0  0  0  0  0
   -0.4086    3.6844    0.0000 C   0  0  0  0  0  0  0  0  0  0  0  0
    0.7062    2.6807    0.0000 C   0  0  0  0  0  0  0  0  0  0  0  0
    0.3943    1.2135    0.0000 C   0  0  0  0  0  0  0  0  0  0  0  0
    1.2760    0.0000    0.0000 N   0  0  0  0  0  0  0  0  0  0  0  0
    0.3943   -1.2135    0.0000 N   0  0  0  0  0  0  0  0  0  0  0  0
   -1.0323   -0.7500    0.0000 C   0  0  0  0  0  0  0  0  0  0  0  0
   -1.0323    0.7500    0.0000 C   0  0  0  0  0  0  0  0  0  0  0  0
   -4.3764    3.7611    0.0000 C   0  0  0  0  0  0  0  0  0  0  0  0
   -2.9499    4.2246    0.0000 C   0  0  0  0  0  0  0  0  0  0  0  0
   -2.6380    5.6918    0.0000 C   0  0  0  0  0  0  0  0  0  0  0  0
   -3.7527    6.6955    0.0000 C   0  0  0  0  0  0  0  0  0  0  0  0
   -5.1793    6.2320    0.0000 C   0  0  0  0  0  0  0  0  0  0  0  0
   -5.4912    4.7648    0.0000 C   0  0  0  0  0  0  0  0  0  0  0  0
   -6.0610    7.4455    0.0000 C   0  0  0  0  0  0  0  0  0  0  0  0
   -5.1793    8.6591    0.0000 C   0  0  0  0  0  0  0  0  0  0  0  0
   -3.7527    8.1955    0.0000 O   0  0  0  0  0  0  0  0  0  0  0  0
  2  1  1  1
  2  3  1  0
  3  4  1  0
  4  5  2  0
  5  6  1  0
  6  7  2  0
  7  8  1  0
  8  9  1  0
  9 10  1  0
 10 11  2  0
 11 12  1  0
  2 13  1  0
 13 14  2  0
 14 15  1  0
 15 16  2  0
 16 17  1  0
 17 18  2  0
 17 19  1  0
 19 20  1  0
 20 21  1  0
 12  4  1  0
 18 13  1  0
 12  8  2  0
 21 16  1  0
M  END
>  <Compound_ID>  (57) 
C37783998

>  <Active>  (57) 
0

>  <Smiles>  (57) 
C[C@H](Nc1cccc2[nH]ncc12)c1ccc2c(c1)CCO2

>  <canonical_smi>  (57) 
C[C@H](Nc1cccc2[nH]ncc12)c1ccc2c(c1)CCO2

>  <Set>  (57) 
G2 inactive

>  <Set_type>  (57) 
Train

>  <MW>  (57) 
279.34

>  <HBD>  (57) 
2

>  <HBA>  (57) 
3

>  <NRB>  (57) 
3

>  <NR>  (57) 
4

>  <NAR>  (57) 
3

>  <PSA>  (57) 
49.94

>  <Standard Type>  (57) 
nan

>  <Standard Relation>  (57) 
nan

>  <Standard Units>  (57) 
nan

>  <Standard Value>  (57) 
nan

>  <Assay ChEMBL ID>  (57) 
nan

>  <Assay Description>  (57) 
nan

>  <BAO Label>  (57) 
nan

$$$$

     RDKit          2D

 20 23  0  0  0  0  0  0  0  0999 V2000
   -3.0000   -5.1962    0.0000 N   0  0  0  0  0  0  0  0  0  0  0  0
   -3.7500   -3.8971    0.0000 C   0  0  0  0  0  0  0  0  0  0  0  0
   -3.0000   -2.5981    0.0000 C   0  0  0  0  0  0  0  0  0  0  0  0
   -1.5000   -2.5981    0.0000 N   0  0  0  0  0  0  0  0  0  0  0  0
   -0.7500   -3.8971    0.0000 C   0  0  0  0  0  0  0  0  0  0  0  0
    0.7500   -3.8971    0.0000 C   0  0  0  0  0  0  0  0  0  0  0  0
    1.5000   -2.5981    0.0000 O   0  0  0  0  0  0  0  0  0  0  0  0
    0.7500   -1.2990    0.0000 C   0  0  0  0  0  0  0  0  0  0  0  0
    1.5000    0.0000    0.0000 C   0  0  0  0  0  0  0  0  0  0  0  0
    0.7500    1.2990    0.0000 C   0  0  0  0  0  0  0  0  0  0  0  0
   -0.7500    1.2990    0.0000 C   0  0  0  0  0  0  0  0  0  0  0  0
   -1.5000    0.0000    0.0000 C   0  0  0  0  0  0  0  0  0  0  0  0
   -0.7500   -1.2990    0.0000 C   0  0  0  0  0  0  0  0  0  0  0  0
   -3.7500   -1.2990    0.0000 C   0  0  0  0  0  0  0  0  0  0  0  0
   -5.2500   -1.2990    0.0000 C   0  0  0  0  0  0  0  0  0  0  0  0
   -6.0000   -2.5981    0.0000 C   0  0  0  0  0  0  0  0  0  0  0  0
   -7.4672   -2.9099    0.0000 S   0  0  0  0  0  0  0  0  0  0  0  0
   -7.6240   -4.4017    0.0000 C   0  0  0  0  0  0  0  0  0  0  0  0
   -6.2537   -5.0118    0.0000 N   0  0  0  0  0  0  0  0  0  0  0  0
   -5.2500   -3.8971    0.0000 C   0  0  0  0  0  0  0  0  0  0  0  0
  1  2  1  0
  2  3  2  0
  3  4  1  0
  4  5  1  0
  5  6  1  0
  6  7  1  0
  7  8  1  0
  8  9  1  6
  9 10  1  0
 10 11  1  0
 11 12  1  0
 13 12  1  1
  3 14  1  0
 14 15  2  0
 15 16  1  0
 16 17  1  0
 17 18  1  0
 18 19  2  0
 19 20  1  0
 20  2  1  0
 13  4  1  0
 20 16  2  0
 13  8  1  0
M  END
>  <Compound_ID>  (58) 
C43424752

>  <Active>  (58) 
0

>  <Smiles>  (58) 
Nc1c(N2CCO[C@H]3CCCC[C@@H]32)ccc2scnc12

>  <canonical_smi>  (58) 
Nc1c(N2CCO[C@H]3CCCC[C@@H]32)ccc2scnc12

>  <Set>  (58) 
G2 inactive

>  <Set_type>  (58) 
Train

>  <MW>  (58) 
289.4

>  <HBD>  (58) 
1

>  <HBA>  (58) 
4

>  <NRB>  (58) 
1

>  <NR>  (58) 
4

>  <NAR>  (58) 
2

>  <PSA>  (58) 
51.38

>  <Standard Type>  (58) 
nan

>  <Standard Relation>  (58) 
nan

>  <Standard Units>  (58) 
nan

>  <Standard Value>  (58) 
nan

>  <Assay ChEMBL ID>  (58) 
nan

>  <Assay Description>  (58) 
nan

>  <BAO Label>  (58) 
nan

$$$$

     RDKit          2D

 21 23  0  0  0  0  0  0  0  0999 V2000
    3.0000    0.0000    0.0000 N   0  0  0  0  0  0  0  0  0  0  0  0
    1.5000    0.0000    0.0000 C   0  0  0  0  0  0  0  0  0  0  0  0
    0.7500   -1.2990    0.0000 C   0  0  0  0  0  0  0  0  0  0  0  0
   -0.7500   -1.2990    0.0000 C   0  0  0  0  0  0  0  0  0  0  0  0
   -1.5000    0.0000    0.0000 C   0  0  0  0  0  0  0  0  0  0  0  0
   -2.9672    0.3119    0.0000 N   0  0  0  0  0  0  0  0  0  0  0  0
   -3.1240    1.8037    0.0000 N   0  0  0  0  0  0  0  0  0  0  0  0
   -1.7537    2.4138    0.0000 C   0  0  0  0  0  0  0  0  0  0  0  0
   -1.4418    3.8810    0.0000 C   0  0  0  0  0  0  0  0  0  0  0  0
   -0.0152    4.3445    0.0000 C   0  0  0  0  0  0  0  0  0  0  0  0
    1.0995    3.3408    0.0000 F   0  0  0  0  0  0  0  0  0  0  0  0
    0.2966    5.8117    0.0000 C   0  0  0  0  0  0  0  0  0  0  0  0
    1.7232    6.2752    0.0000 F   0  0  0  0  0  0  0  0  0  0  0  0
   -0.8181    6.8154    0.0000 C   0  0  0  0  0  0  0  0  0  0  0  0
   -0.5062    8.2826    0.0000 F   0  0  0  0  0  0  0  0  0  0  0  0
   -2.2447    6.3519    0.0000 C   0  0  0  0  0  0  0  0  0  0  0  0
   -3.3594    7.3556    0.0000 F   0  0  0  0  0  0  0  0  0  0  0  0
   -2.5565    4.8847    0.0000 C   0  0  0  0  0  0  0  0  0  0  0  0
   -3.9831    4.4211    0.0000 F   0  0  0  0  0  0  0  0  0  0  0  0
   -0.7500    1.2990    0.0000 N   0  0  0  0  0  0  0  0  0  0  0  0
    0.7500    1.2990    0.0000 C   0  0  0  0  0  0  0  0  0  0  0  0
  1  2  1  0
  2  3  1  0
  3  4  2  0
  4  5  1  0
  5  6  2  0
  6  7  1  0
  7  8  2  0
  8  9  1  0
  9 10  2  0
 10 11  1  0
 10 12  1  0
 12 13  1  0
 12 14  2  0
 14 15  1  0
 14 16  1  0
 16 17  1  0
 16 18  2  0
 18 19  1  0
  8 20  1  0
 20 21  1  0
 21  2  2  0
 20  5  1  0
 18  9  1  0
M  END
>  <Compound_ID>  (59) 
C53146463

>  <Active>  (59) 
0

>  <Smiles>  (59) 
Nc1ccc2nnc(-c3c(F)c(F)c(F)c(F)c3F)n2c1

>  <canonical_smi>  (59) 
Nc1ccc2nnc(-c3c(F)c(F)c(F)c(F)c3F)n2c1

>  <Set>  (59) 
G2 inactive

>  <Set_type>  (59) 
Train

>  <MW>  (59) 
300.19

>  <HBD>  (59) 
1

>  <HBA>  (59) 
3

>  <NRB>  (59) 
1

>  <NR>  (59) 
3

>  <NAR>  (59) 
3

>  <PSA>  (59) 
56.21

>  <Standard Type>  (59) 
nan

>  <Standard Relation>  (59) 
nan

>  <Standard Units>  (59) 
nan

>  <Standard Value>  (59) 
nan

>  <Assay ChEMBL ID>  (59) 
nan

>  <Assay Description>  (59) 
nan

>  <BAO Label>  (59) 
nan

$$$$

     RDKit          2D

 18 19  0  0  0  0  0  0  0  0999 V2000
    3.7500   -0.8971    0.0000 N   0  0  0  0  0  0  0  0  0  0  0  0
    3.7500   -2.3971    0.0000 C   0  0  0  0  0  0  0  0  0  0  0  0
    3.7500   -3.8971    0.0000 C   0  0  0  0  0  0  0  0  0  0  0  0
    2.2500   -3.8971    0.0000 N   0  0  0  0  0  0  0  0  0  0  0  0
    1.5000   -2.5981    0.0000 S   0  0  0  0  0  0  0  0  0  0  0  0
    0.2010   -3.3481    0.0000 O   0  0  0  0  0  0  0  0  0  0  0  0
    2.7990   -1.8481    0.0000 O   0  0  0  0  0  0  0  0  0  0  0  0
    0.7500   -1.2990    0.0000 C   0  0  0  0  0  0  0  0  0  0  0  0
    1.5000    0.0000    0.0000 C   0  0  0  0  0  0  0  0  0  0  0  0
    0.7500    1.2990    0.0000 C   0  0  0  0  0  0  0  0  0  0  0  0
    1.5000    2.5981    0.0000 Br  0  0  0  0  0  0  0  0  0  0  0  0
   -0.7500    1.2990    0.0000 C   0  0  0  0  0  0  0  0  0  0  0  0
   -1.5000    0.0000    0.0000 C   0  0  0  0  0  0  0  0  0  0  0  0
   -0.7500   -1.2990    0.0000 C   0  0  0  0  0  0  0  0  0  0  0  0
   -1.5000   -2.5981    0.0000 Br  0  0  0  0  0  0  0  0  0  0  0  0
    3.7500   -5.3971    0.0000 C   0  0  0  0  0  0  0  0  0  0  0  0
    5.2500   -5.3971    0.0000 C   0  0  0  0  0  0  0  0  0  0  0  0
    5.2500   -3.8971    0.0000 C   0  0  0  0  0  0  0  0  0  0  0  0
  1  2  3  0
  2  3  1  0
  3  4  1  0
  4  5  1  0
  5  6  2  0
  5  7  2  0
  5  8  1  0
  8  9  2  0
  9 10  1  0
 10 11  1  0
 10 12  2  0
 12 13  1  0
 13 14  2  0
 14 15  1  0
  3 16  1  0
 16 17  1  0
 17 18  1  0
 18  3  1  0
 14  8  1  0
M  END
>  <Compound_ID>  (60) 
C40692583

>  <Active>  (60) 
0

>  <Smiles>  (60) 
N#CC1(NS(=O)(=O)c2cc(Br)ccc2Br)CCC1

>  <canonical_smi>  (60) 
N#CC1(NS(=O)(=O)c2cc(Br)ccc2Br)CCC1

>  <Set>  (60) 
G2 inactive

>  <Set_type>  (60) 
Train

>  <MW>  (60) 
394.09

>  <HBD>  (60) 
1

>  <HBA>  (60) 
3

>  <NRB>  (60) 
3

>  <NR>  (60) 
2

>  <NAR>  (60) 
1

>  <PSA>  (60) 
69.96

>  <Standard Type>  (60) 
nan

>  <Standard Relation>  (60) 
nan

>  <Standard Units>  (60) 
nan

>  <Standard Value>  (60) 
nan

>  <Assay ChEMBL ID>  (60) 
nan

>  <Assay Description>  (60) 
nan

>  <BAO Label>  (60) 
nan

$$$$

     RDKit          2D

 20 22  0  0  0  0  0  0  0  0999 V2000
   -7.5275   -1.5000    0.0000 C   0  0  0  0  0  0  0  0  0  0  0  0
   -6.2284   -0.7500    0.0000 C   0  0  0  0  0  0  0  0  0  0  0  0
   -4.9294   -1.5000    0.0000 C   0  0  0  0  0  0  0  0  0  0  0  0
   -3.6304   -0.7500    0.0000 C   0  0  0  0  0  0  0  0  0  0  0  0
   -3.6304    0.7500    0.0000 C   0  0  0  0  0  0  0  0  0  0  0  0
   -4.9294    1.5000    0.0000 C   0  0  0  0  0  0  0  0  0  0  0  0
   -2.3313    1.5000    0.0000 N   0  0  0  0  0  0  0  0  0  0  0  0
   -1.0323    0.7500    0.0000 C   0  0  0  0  0  0  0  0  0  0  0  0
    0.3943    1.2135    0.0000 C   0  0  0  0  0  0  0  0  0  0  0  0
    0.8578    2.6401    0.0000 C   0  0  0  0  0  0  0  0  0  0  0  0
   -0.0239    3.8536    0.0000 C   0  0  0  0  0  0  0  0  0  0  0  0
    0.8578    5.0672    0.0000 C   0  0  0  0  0  0  0  0  0  0  0  0
    2.2844    4.6036    0.0000 C   0  0  0  0  0  0  0  0  0  0  0  0
    2.2844    3.1036    0.0000 S   0  0  0  0  0  0  0  0  0  0  0  0
    1.2760    0.0000    0.0000 C   0  0  0  0  0  0  0  0  0  0  0  0
    2.7760    0.0000    0.0000 C   0  0  0  0  0  0  0  0  0  0  0  0
    0.3943   -1.2135    0.0000 N   0  0  0  0  0  0  0  0  0  0  0  0
   -1.0323   -0.7500    0.0000 N   0  0  0  0  0  0  0  0  0  0  0  0
   -2.3313   -1.5000    0.0000 C   0  0  0  0  0  0  0  0  0  0  0  0
   -2.3313   -3.0000    0.0000 O   0  0  0  0  0  0  0  0  0  0  0  0
  1  2  1  0
  2  3  1  0
  3  4  1  0
  4  5  2  0
  5  6  1  0
  5  7  1  0
  7  8  1  0
  8  9  2  0
  9 10  1  0
 10 11  2  0
 11 12  1  0
 12 13  2  0
 13 14  1  0
  9 15  1  0
 15 16  1  0
 15 17  2  0
 17 18  1  0
 18 19  1  0
 19 20  2  0
 19  4  1  0
 18  8  1  0
 14 10  1  0
M  END
>  <Compound_ID>  (61) 
C10338946

>  <Active>  (61) 
0

>  <Smiles>  (61) 
CCCc1c(C)[nH]c2c(-c3cccs3)c(C)nn2c1=O

>  <canonical_smi>  (61) 
CCCc1c(C)[nH]c2c(-c3cccs3)c(C)nn2c1=O

>  <Set>  (61) 
G2 inactive

>  <Set_type>  (61) 
Train

>  <MW>  (61) 
287.39

>  <HBD>  (61) 
1

>  <HBA>  (61) 
2

>  <NRB>  (61) 
3

>  <NR>  (61) 
3

>  <NAR>  (61) 
3

>  <PSA>  (61) 
50.16

>  <Standard Type>  (61) 
nan

>  <Standard Relation>  (61) 
nan

>  <Standard Units>  (61) 
nan

>  <Standard Value>  (61) 
nan

>  <Assay ChEMBL ID>  (61) 
nan

>  <Assay Description>  (61) 
nan

>  <BAO Label>  (61) 
nan

$$$$

     RDKit          2D

 18 19  0  0  0  0  0  0  0  0999 V2000
    3.7500   -1.2990    0.0000 C   0  0  0  0  0  0  0  0  0  0  0  0
    3.0000    0.0000    0.0000 O   0  0  0  0  0  0  0  0  0  0  0  0
    1.5000    0.0000    0.0000 C   0  0  0  0  0  0  0  0  0  0  0  0
    0.7500   -1.2990    0.0000 C   0  0  0  0  0  0  0  0  0  0  0  0
   -0.7500   -1.2990    0.0000 C   0  0  0  0  0  0  0  0  0  0  0  0
   -1.5000   -2.5981    0.0000 N   0  0  0  0  0  0  0  0  0  0  0  0
   -3.0000   -2.5981    0.0000 C   0  0  0  0  0  0  0  0  0  0  0  0
   -3.8817   -3.8116    0.0000 N   0  0  0  0  0  0  0  0  0  0  0  0
   -5.3083   -3.3481    0.0000 C   0  0  0  0  0  0  0  0  0  0  0  0
   -6.5218   -4.2298    0.0000 C   0  0  0  0  0  0  0  0  0  0  0  0
   -5.3083   -1.8481    0.0000 C   0  0  0  0  0  0  0  0  0  0  0  0
   -3.8817   -1.3846    0.0000 S   0  0  0  0  0  0  0  0  0  0  0  0
   -1.5000    0.0000    0.0000 C   0  0  0  0  0  0  0  0  0  0  0  0
   -3.0000    0.0000    0.0000 O   0  0  0  0  0  0  0  0  0  0  0  0
   -3.7500    1.2990    0.0000 C   0  0  0  0  0  0  0  0  0  0  0  0
   -0.7500    1.2990    0.0000 C   0  0  0  0  0  0  0  0  0  0  0  0
    0.7500    1.2990    0.0000 C   0  0  0  0  0  0  0  0  0  0  0  0
    1.5000    2.5981    0.0000 Cl  0  0  0  0  0  0  0  0  0  0  0  0
  1  2  1  0
  2  3  1  0
  3  4  2  0
  4  5  1  0
  5  6  1  0
  6  7  2  0
  7  8  1  0
  8  9  1  0
  9 10  1  6
  9 11  1  0
 11 12  1  0
  5 13  2  0
 13 14  1  0
 14 15  1  0
 13 16  1  0
 16 17  2  0
 17 18  1  0
 17  3  1  0
 12  7  1  0
M  END
>  <Compound_ID>  (62) 
C35057257

>  <Active>  (62) 
0

>  <Smiles>  (62) 
COc1cc(/N=C2/N[C@H](C)CS2)c(OC)cc1Cl

>  <canonical_smi>  (62) 
COc1cc(/N=C2/N[C@H](C)CS2)c(OC)cc1Cl

>  <Set>  (62) 
G2 inactive

>  <Set_type>  (62) 
Train

>  <MW>  (62) 
286.78

>  <HBD>  (62) 
1

>  <HBA>  (62) 
4

>  <NRB>  (62) 
3

>  <NR>  (62) 
2

>  <NAR>  (62) 
1

>  <PSA>  (62) 
42.85

>  <Standard Type>  (62) 
nan

>  <Standard Relation>  (62) 
nan

>  <Standard Units>  (62) 
nan

>  <Standard Value>  (62) 
nan

>  <Assay ChEMBL ID>  (62) 
nan

>  <Assay Description>  (62) 
nan

>  <BAO Label>  (62) 
nan

$$$$

     RDKit          2D

 22 25  0  0  0  0  0  0  0  0999 V2000
   -0.4921    5.7184    0.0000 H   0  0  0  0  0  0  0  0  0  0  0  0
   -1.4958    4.6036    0.0000 N   0  0  0  0  0  0  0  0  0  0  0  0
   -1.0323    3.1771    0.0000 C   0  0  0  0  0  0  0  0  0  0  0  0
    0.3943    2.7135    0.0000 S   0  0  0  0  0  0  0  0  0  0  0  0
    0.3943    1.2135    0.0000 C   0  0  0  0  0  0  0  0  0  0  0  0
    1.2760    0.0000    0.0000 C   0  0  0  0  0  0  0  0  0  0  0  0
    0.3943   -1.2135    0.0000 C   0  0  0  0  0  0  0  0  0  0  0  0
   -1.0323   -0.7500    0.0000 C   0  0  0  0  0  0  0  0  0  0  0  0
   -1.0323    0.7500    0.0000 C   0  0  0  0  0  0  0  0  0  0  0  0
   -1.9140    1.9635    0.0000 C   0  0  0  0  0  0  0  0  0  0  0  0
   -3.4140    1.9635    0.0000 C   0  0  0  0  0  0  0  0  0  0  0  0
   -4.2956    0.7500    0.0000 N   0  0  0  0  0  0  0  0  0  0  0  0
   -5.7222    1.2135    0.0000 C   0  0  0  0  0  0  0  0  0  0  0  0
   -6.9358    0.3318    0.0000 C   0  0  0  0  0  0  0  0  0  0  0  0
   -8.3061    0.9420    0.0000 C   0  0  0  0  0  0  0  0  0  0  0  0
   -8.4629    2.4337    0.0000 C   0  0  0  0  0  0  0  0  0  0  0  0
   -9.8332    3.0438    0.0000 C   0  0  0  0  0  0  0  0  0  0  0  0
  -11.0467    2.1622    0.0000 C   0  0  0  0  0  0  0  0  0  0  0  0
  -10.8899    0.6704    0.0000 C   0  0  0  0  0  0  0  0  0  0  0  0
   -9.5196    0.0603    0.0000 C   0  0  0  0  0  0  0  0  0  0  0  0
   -5.7222    2.7135    0.0000 N   0  0  0  0  0  0  0  0  0  0  0  0
   -4.2956    3.1771    0.0000 O   0  0  0  0  0  0  0  0  0  0  0  0
  1  2  1  0
  2  3  2  0
  3  4  1  0
  4  5  1  0
  5  6  1  1
  6  7  1  0
  7  8  1  0
  8  9  1  0
  9 10  2  0
 10 11  1  0
 11 12  2  0
 12 13  1  0
 13 14  1  0
 14 15  1  0
 15 16  2  0
 16 17  1  0
 17 18  2  0
 18 19  1  0
 19 20  2  0
 13 21  2  0
 21 22  1  0
 10  3  1  0
 22 11  1  0
  9  5  1  0
 20 15  1  0
M  END
>  <Compound_ID>  (63) 
C37326532

>  <Active>  (63) 
0

>  <Smiles>  (63) 
[H]/N=C1\S[C@H]2CCCC2=C1c1nc(Cc2ccccc2)no1

>  <canonical_smi>  (63) 
[H]/N=C1\S[C@H]2CCCC2=C1c1nc(Cc2ccccc2)no1

>  <Set>  (63) 
G2 inactive

>  <Set_type>  (63) 
Train

>  <MW>  (63) 
297.38

>  <HBD>  (63) 
1

>  <HBA>  (63) 
4

>  <NRB>  (63) 
3

>  <NR>  (63) 
4

>  <NAR>  (63) 
2

>  <PSA>  (63) 
62.77

>  <Standard Type>  (63) 
nan

>  <Standard Relation>  (63) 
nan

>  <Standard Units>  (63) 
nan

>  <Standard Value>  (63) 
nan

>  <Assay ChEMBL ID>  (63) 
nan

>  <Assay Description>  (63) 
nan

>  <BAO Label>  (63) 
nan

$$$$

     RDKit          2D

 21 24  0  0  0  0  0  0  0  0999 V2000
   -0.8268    3.1186    0.0000 C   0  0  0  0  0  0  0  0  0  0  0  0
   -0.3846    1.6852    0.0000 C   0  0  0  0  0  0  0  0  0  0  0  0
    1.0777    1.3515    0.0000 C   0  0  0  0  0  0  0  0  0  0  0  0
    2.0980    2.4510    0.0000 C   0  0  0  0  0  0  0  0  0  0  0  0
    1.6559    3.8844    0.0000 C   0  0  0  0  0  0  0  0  0  0  0  0
    2.4252    5.1721    0.0000 N   0  0  0  0  0  0  0  0  0  0  0  0
    1.4383    6.3017    0.0000 C   0  0  0  0  0  0  0  0  0  0  0  0
    1.7721    7.7641    0.0000 C   0  0  0  0  0  0  0  0  0  0  0  0
    3.2055    8.2062    0.0000 C   0  0  0  0  0  0  0  0  0  0  0  0
    3.5392    9.6686    0.0000 C   0  0  0  0  0  0  0  0  0  0  0  0
    2.5523   10.7982    0.0000 C   0  0  0  0  0  0  0  0  0  0  0  0
    3.3217   12.0859    0.0000 C   0  0  0  0  0  0  0  0  0  0  0  0
    4.7841   11.7521    0.0000 C   0  0  0  0  0  0  0  0  0  0  0  0
    4.9185   10.2581    0.0000 C   0  0  0  0  0  0  0  0  0  0  0  0
    0.0590    5.7121    0.0000 N   0  0  0  0  0  0  0  0  0  0  0  0
    0.1935    4.2182    0.0000 C   0  0  0  0  0  0  0  0  0  0  0  0
    1.7286    0.0000    0.0000 O   0  0  0  0  0  0  0  0  0  0  0  0
    1.0777   -1.3515    0.0000 C   0  0  0  0  0  0  0  0  0  0  0  0
   -0.3846   -1.6852    0.0000 C   0  0  0  0  0  0  0  0  0  0  0  0
   -1.5574   -0.7500    0.0000 C   0  0  0  0  0  0  0  0  0  0  0  0
   -1.5574    0.7500    0.0000 O   0  0  0  0  0  0  0  0  0  0  0  0
  1  2  2  0
  2  3  1  0
  3  4  2  0
  4  5  1  0
  5  6  1  0
  6  7  1  0
  7  8  1  0
  8  9  1  0
  9 10  1  0
 10 11  1  0
 11 12  1  0
 12 13  1  0
 13 14  1  0
  7 15  2  0
 15 16  1  0
  3 17  1  0
 17 18  1  0
 18 19  1  0
 19 20  1  0
 20 21  1  0
 16  1  1  0
 21  2  1  0
 16  5  2  0
 14 10  1  0
M  END
>  <Compound_ID>  (64) 
C37400439

>  <Active>  (64) 
0

>  <Smiles>  (64) 
c1c2c(cc3[nH]c(CCC4CCCC4)nc13)OCCCO2

>  <canonical_smi>  (64) 
c1c2c(cc3[nH]c(CCC4CCCC4)nc13)OCCCO2

>  <Set>  (64) 
G2 inactive

>  <Set_type>  (64) 
Train

>  <MW>  (64) 
286.38

>  <HBD>  (64) 
1

>  <HBA>  (64) 
3

>  <NRB>  (64) 
3

>  <NR>  (64) 
4

>  <NAR>  (64) 
2

>  <PSA>  (64) 
47.14

>  <Standard Type>  (64) 
nan

>  <Standard Relation>  (64) 
nan

>  <Standard Units>  (64) 
nan

>  <Standard Value>  (64) 
nan

>  <Assay ChEMBL ID>  (64) 
nan

>  <Assay Description>  (64) 
nan

>  <BAO Label>  (64) 
nan

$$$$

     RDKit          2D

 16 17  0  0  0  0  0  0  0  0999 V2000
    6.2011   -6.9341    0.0000 C   0  0  0  0  0  0  0  0  0  0  0  0
    4.8308   -6.3240    0.0000 C   0  0  0  0  0  0  0  0  0  0  0  0
    3.6172   -7.2057    0.0000 C   0  0  0  0  0  0  0  0  0  0  0  0
    4.6740   -4.8322    0.0000 N   0  0  0  0  0  0  0  0  0  0  0  0
    3.3037   -4.2221    0.0000 C   0  0  0  0  0  0  0  0  0  0  0  0
    2.9918   -2.7549    0.0000 N   0  0  0  0  0  0  0  0  0  0  0  0
    1.5000   -2.5981    0.0000 C   0  0  0  0  0  0  0  0  0  0  0  0
    0.7500   -1.2990    0.0000 C   0  0  0  0  0  0  0  0  0  0  0  0
    1.5000    0.0000    0.0000 C   0  0  0  0  0  0  0  0  0  0  0  0
    0.7500    1.2990    0.0000 C   0  0  0  0  0  0  0  0  0  0  0  0
   -0.7500    1.2990    0.0000 C   0  0  0  0  0  0  0  0  0  0  0  0
   -1.5000    0.0000    0.0000 C   0  0  0  0  0  0  0  0  0  0  0  0
   -0.7500   -1.2990    0.0000 C   0  0  0  0  0  0  0  0  0  0  0  0
   -1.5000   -2.5981    0.0000 Br  0  0  0  0  0  0  0  0  0  0  0  0
    0.8899   -3.9684    0.0000 N   0  0  0  0  0  0  0  0  0  0  0  0
    2.0046   -4.9721    0.0000 O   0  0  0  0  0  0  0  0  0  0  0  0
  1  2  1  0
  2  3  1  0
  2  4  1  0
  4  5  1  0
  5  6  2  0
  6  7  1  0
  7  8  1  0
  8  9  2  0
  9 10  1  0
 10 11  2  0
 11 12  1  0
 12 13  2  0
 13 14  1  0
  7 15  2  0
 15 16  1  0
 16  5  1  0
 13  8  1  0
M  END
>  <Compound_ID>  (65) 
C53750630

>  <Active>  (65) 
0

>  <Smiles>  (65) 
CC(C)Nc1nc(-c2ccccc2Br)no1

>  <canonical_smi>  (65) 
CC(C)Nc1nc(-c2ccccc2Br)no1

>  <Set>  (65) 
G2 inactive

>  <Set_type>  (65) 
Train

>  <MW>  (65) 
282.14

>  <HBD>  (65) 
1

>  <HBA>  (65) 
4

>  <NRB>  (65) 
3

>  <NR>  (65) 
2

>  <NAR>  (65) 
2

>  <PSA>  (65) 
50.95

>  <Standard Type>  (65) 
nan

>  <Standard Relation>  (65) 
nan

>  <Standard Units>  (65) 
nan

>  <Standard Value>  (65) 
nan

>  <Assay ChEMBL ID>  (65) 
nan

>  <Assay Description>  (65) 
nan

>  <BAO Label>  (65) 
nan

$$$$

     RDKit          2D

 20 21  0  0  0  0  0  0  0  0999 V2000
    3.0000    0.0000    0.0000 C   0  0  0  0  0  0  0  0  0  0  0  0
    1.5000    0.0000    0.0000 C   0  0  0  0  0  0  0  0  0  0  0  0
    0.7500   -1.2990    0.0000 C   0  0  0  0  0  0  0  0  0  0  0  0
   -0.7500   -1.2990    0.0000 O   0  0  0  0  0  0  0  0  0  0  0  0
   -1.5000    0.0000    0.0000 C   0  0  0  0  0  0  0  0  0  0  0  0
   -0.7500    1.2990    0.0000 C   0  0  0  0  0  0  0  0  0  0  0  0
    0.7500    1.2990    0.0000 N   0  0  0  0  0  4  0  0  0  0  0  0
    1.5000    2.5981    0.0000 C   0  0  0  0  0  0  0  0  0  0  0  0
    3.0000    2.5981    0.0000 C   0  0  0  0  0  0  0  0  0  0  0  0
    3.7500    3.8971    0.0000 C   0  0  0  0  0  0  0  0  0  0  0  0
    5.2500    3.8971    0.0000 C   0  0  0  0  0  0  0  0  0  0  0  0
    5.2500    2.3971    0.0000 C   0  0  0  0  0  0  0  0  0  0  0  0
    5.2500    5.3971    0.0000 C   0  0  0  0  0  0  0  0  0  0  0  0
    6.7500    3.8971    0.0000 C   0  0  0  0  0  0  0  0  0  0  0  0
    3.0000    5.1962    0.0000 C   0  0  0  0  0  0  0  0  0  0  0  0
    1.5000    5.1962    0.0000 C   0  0  0  0  0  0  0  0  0  0  0  0
    0.7500    3.8971    0.0000 C   0  0  0  0  0  0  0  0  0  0  0  0
   -0.7500    3.8971    0.0000 C   0  0  0  0  0  0  0  0  0  0  0  0
   -1.5000    2.5981    0.0000 O   0  0  0  0  0  0  0  0  0  0  0  0
   -1.5000    5.1962    0.0000 O   0  0  0  0  0  1  0  0  0  0  0  0
  2  1  1  1
  2  3  1  0
  3  4  1  0
  4  5  1  0
  5  6  1  0
  6  7  1  0
  8  7  1  1
  8  9  1  0
  9 10  1  0
 10 11  1  1
 11 12  1  0
 11 13  1  0
 11 14  1  0
 10 15  1  0
 15 16  1  0
 16 17  1  0
 17 18  1  1
 18 19  2  0
 18 20  1  0
  7  2  1  0
 17  8  1  0
M  CHG  2   7   1  20  -1
M  END
>  <Compound_ID>  (66) 
C62752011

>  <Active>  (66) 
0

>  <Smiles>  (66) 
C[C@H]1COCC[NH+]1[C@@H]1C[C@H](C(C)(C)C)CC[C@@H]1C(=O)[O-]

>  <canonical_smi>  (66) 
C[C@H]1COCC[NH+]1[C@@H]1C[C@H](C(C)(C)C)CC[C@@H]1C(=O)[O-]

>  <Set>  (66) 
G2 inactive

>  <Set_type>  (66) 
Train

>  <MW>  (66) 
283.41

>  <HBD>  (66) 
1

>  <HBA>  (66) 
3

>  <NRB>  (66) 
2

>  <NR>  (66) 
2

>  <NAR>  (66) 
0

>  <PSA>  (66) 
53.8

>  <Standard Type>  (66) 
nan

>  <Standard Relation>  (66) 
nan

>  <Standard Units>  (66) 
nan

>  <Standard Value>  (66) 
nan

>  <Assay ChEMBL ID>  (66) 
nan

>  <Assay Description>  (66) 
nan

>  <BAO Label>  (66) 
nan

$$$$

     RDKit          2D

 19 21  0  0  0  0  0  0  0  0999 V2000
   -2.5981   -8.1073    0.0000 N   0  0  0  0  0  4  0  0  0  0  0  0
   -1.2990   -7.3573    0.0000 C   0  0  0  0  0  0  0  0  0  0  0  0
   -1.2990   -5.8573    0.0000 C   0  0  0  0  0  0  0  0  0  0  0  0
   -0.0000   -5.1073    0.0000 S   0  0  0  0  0  0  0  0  0  0  0  0
   -0.0000   -3.6073    0.0000 C   0  0  0  0  0  0  0  0  0  0  0  0
    1.2135   -2.7256    0.0000 N   0  0  0  0  0  0  0  0  0  0  0  0
    0.7500   -1.2990    0.0000 C   0  0  0  0  0  0  0  0  0  0  0  0
    1.5000    0.0000    0.0000 C   0  0  0  0  0  0  0  0  0  0  0  0
    0.7500    1.2990    0.0000 C   0  0  0  0  0  0  0  0  0  0  0  0
   -0.7500    1.2990    0.0000 C   0  0  0  0  0  0  0  0  0  0  0  0
   -1.5000    0.0000    0.0000 C   0  0  0  0  0  0  0  0  0  0  0  0
   -0.7500   -1.2990    0.0000 C   0  0  0  0  0  0  0  0  0  0  0  0
   -1.2135   -2.7256    0.0000 O   0  0  0  0  0  0  0  0  0  0  0  0
   -2.5981   -5.1073    0.0000 C   0  0  0  0  0  0  0  0  0  0  0  0
   -3.9684   -5.7174    0.0000 C   0  0  0  0  0  0  0  0  0  0  0  0
   -4.9721   -4.6027    0.0000 C   0  0  0  0  0  0  0  0  0  0  0  0
   -4.2221   -3.3037    0.0000 C   0  0  0  0  0  0  0  0  0  0  0  0
   -4.8322   -1.9333    0.0000 Br  0  0  0  0  0  0  0  0  0  0  0  0
   -2.7549   -3.6155    0.0000 S   0  0  0  0  0  0  0  0  0  0  0  0
  1  2  1  0
  3  2  1  6
  3  4  1  0
  4  5  1  0
  5  6  2  0
  6  7  1  0
  7  8  2  0
  8  9  1  0
  9 10  2  0
 10 11  1  0
 11 12  2  0
 12 13  1  0
  3 14  1  0
 14 15  2  0
 15 16  1  0
 16 17  2  0
 17 18  1  0
 17 19  1  0
 13  5  1  0
 19 14  1  0
 12  7  1  0
M  CHG  1   1   1
M  END
>  <Compound_ID>  (67) 
C43283625

>  <Active>  (67) 
0

>  <Smiles>  (67) 
[NH3+]C[C@@H](Sc1nc2ccccc2o1)c1ccc(Br)s1

>  <canonical_smi>  (67) 
[NH3+]C[C@@H](Sc1nc2ccccc2o1)c1ccc(Br)s1

>  <Set>  (67) 
G2 inactive

>  <Set_type>  (67) 
Train

>  <MW>  (67) 
356.29

>  <HBD>  (67) 
1

>  <HBA>  (67) 
3

>  <NRB>  (67) 
4

>  <NR>  (67) 
3

>  <NAR>  (67) 
3

>  <PSA>  (67) 
53.67

>  <Standard Type>  (67) 
nan

>  <Standard Relation>  (67) 
nan

>  <Standard Units>  (67) 
nan

>  <Standard Value>  (67) 
nan

>  <Assay ChEMBL ID>  (67) 
nan

>  <Assay Description>  (67) 
nan

>  <BAO Label>  (67) 
nan

$$$$

     RDKit          2D

 20 21  0  0  0  0  0  0  0  0999 V2000
    0.4775   -9.6721    0.0000 C   0  0  0  0  0  0  0  0  0  0  0  0
    1.8478   -9.0619    0.0000 C   0  0  0  0  0  0  0  0  0  0  0  0
    2.0046   -7.5702    0.0000 C   0  0  0  0  0  0  0  0  0  0  0  0
    3.3037   -6.8202    0.0000 C   0  0  0  0  0  0  0  0  0  0  0  0
    2.9918   -5.3529    0.0000 C   0  0  0  0  0  0  0  0  0  0  0  0
    1.5000   -5.1962    0.0000 C   0  0  0  0  0  0  0  0  0  0  0  0
    0.7500   -3.8971    0.0000 C   0  0  0  0  0  0  0  0  0  0  0  0
    1.5000   -2.5981    0.0000 O   0  0  0  0  0  0  0  0  0  0  0  0
    0.7500   -1.2990    0.0000 C   0  0  0  0  0  0  0  0  0  0  0  0
    1.5000    0.0000    0.0000 C   0  0  0  0  0  0  0  0  0  0  0  0
    0.7500    1.2990    0.0000 C   0  0  0  0  0  0  0  0  0  0  0  0
   -0.7500    1.2990    0.0000 C   0  0  0  0  0  0  0  0  0  0  0  0
   -1.5000    2.5981    0.0000 C   0  0  0  0  0  0  0  0  0  0  0  0
   -0.7500    3.8971    0.0000 C   0  0  0  0  0  0  0  0  0  0  0  0
   -1.5000    5.1962    0.0000 C   0  0  0  0  0  0  0  0  0  0  0  0
    0.7500    3.8971    0.0000 N   0  0  0  0  0  4  0  0  0  0  0  0
   -1.5000    0.0000    0.0000 C   0  0  0  0  0  0  0  0  0  0  0  0
   -0.7500   -1.2990    0.0000 C   0  0  0  0  0  0  0  0  0  0  0  0
   -1.5000   -2.5981    0.0000 Br  0  0  0  0  0  0  0  0  0  0  0  0
    0.8899   -6.5665    0.0000 S   0  0  0  0  0  0  0  0  0  0  0  0
  1  2  1  0
  2  3  1  0
  3  4  2  0
  4  5  1  0
  5  6  2  0
  6  7  1  0
  7  8  1  0
  8  9  1  0
  9 10  2  0
 10 11  1  0
 11 12  2  0
 12 13  1  0
 13 14  1  0
 14 15  1  6
 14 16  1  0
 12 17  1  0
 17 18  2  0
 18 19  1  0
  6 20  1  0
 20  3  1  0
 18  9  1  0
M  CHG  1  16   1
M  END
>  <Compound_ID>  (68) 
C62703968

>  <Active>  (68) 
0

>  <Smiles>  (68) 
CCc1ccc(COc2ccc(C[C@H](C)[NH3+])cc2Br)s1

>  <canonical_smi>  (68) 
CCc1ccc(COc2ccc(C[C@H](C)[NH3+])cc2Br)s1

>  <Set>  (68) 
G2 inactive

>  <Set_type>  (68) 
Train

>  <MW>  (68) 
355.32

>  <HBD>  (68) 
1

>  <HBA>  (68) 
1

>  <NRB>  (68) 
6

>  <NR>  (68) 
2

>  <NAR>  (68) 
2

>  <PSA>  (68) 
36.87

>  <Standard Type>  (68) 
nan

>  <Standard Relation>  (68) 
nan

>  <Standard Units>  (68) 
nan

>  <Standard Value>  (68) 
nan

>  <Assay ChEMBL ID>  (68) 
nan

>  <Assay Description>  (68) 
nan

>  <BAO Label>  (68) 
nan

$$$$

     RDKit          2D

 25 28  0  0  0  0  0  0  0  0999 V2000
   -4.8695   -1.1818    0.0000 C   0  0  0  0  0  0  0  0  0  0  0  0
   -3.7548   -2.1855    0.0000 C   0  0  0  0  0  0  0  0  0  0  0  0
   -2.6401   -3.1891    0.0000 C   0  0  0  0  0  0  0  0  0  0  0  0
   -1.2135   -2.7256    0.0000 N   0  0  0  0  0  0  0  0  0  0  0  0
   -0.0000   -3.6073    0.0000 C   0  0  0  0  0  0  0  0  0  0  0  0
   -0.0000   -5.1073    0.0000 N   0  0  0  0  0  0  0  0  0  0  0  0
    1.2990   -5.8573    0.0000 C   0  0  0  0  0  0  0  0  0  0  0  0
    2.5981   -5.1073    0.0000 O   0  0  0  0  0  0  0  0  0  0  0  0
    1.2990   -7.3573    0.0000 C   0  0  0  0  0  0  0  0  0  0  0  0
   -0.0000   -8.1073    0.0000 C   0  0  0  0  0  0  0  0  0  0  0  0
   -0.0000   -9.6073    0.0000 C   0  0  0  0  0  0  0  0  0  0  0  0
    1.2990  -10.3573    0.0000 C   0  0  0  0  0  0  0  0  0  0  0  0
    1.6109  -11.8245    0.0000 N   0  0  0  0  0  0  0  0  0  0  0  0
    3.1027  -11.9813    0.0000 C   0  0  0  0  0  0  0  0  0  0  0  0
    3.7128  -10.6110    0.0000 S   0  0  0  0  0  0  0  0  0  0  0  0
    2.5981   -9.6073    0.0000 C   0  0  0  0  0  0  0  0  0  0  0  0
    2.5981   -8.1073    0.0000 C   0  0  0  0  0  0  0  0  0  0  0  0
    1.2135   -2.7256    0.0000 S   0  0  0  0  0  0  0  0  0  0  0  0
    0.7500   -1.2990    0.0000 C   0  0  0  0  0  0  0  0  0  0  0  0
    1.5000    0.0000    0.0000 C   0  0  0  0  0  0  0  0  0  0  0  0
    0.7500    1.2990    0.0000 C   0  0  0  0  0  0  0  0  0  0  0  0
    1.5000    2.5981    0.0000 Br  0  0  0  0  0  0  0  0  0  0  0  0
   -0.7500    1.2990    0.0000 C   0  0  0  0  0  0  0  0  0  0  0  0
   -1.5000    0.0000    0.0000 C   0  0  0  0  0  0  0  0  0  0  0  0
   -0.7500   -1.2990    0.0000 C   0  0  0  0  0  0  0  0  0  0  0  0
  1  2  3  0
  2  3  1  0
  3  4  1  0
  4  5  1  0
  5  6  2  0
  6  7  1  0
  7  8  2  0
  7  9  1  0
  9 10  2  0
 10 11  1  0
 11 12  2  0
 12 13  1  0
 13 14  2  0
 14 15  1  0
 15 16  1  0
 16 17  2  0
  5 18  1  0
 18 19  1  0
 19 20  2  0
 20 21  1  0
 21 22  1  0
 21 23  2  0
 23 24  1  0
 24 25  2  0
 25  4  1  0
 17  9  1  0
 25 19  1  0
 16 12  1  0
M  END
>  <Compound_ID>  (69) 
C09001087

>  <Active>  (69) 
0

>  <Smiles>  (69) 
C#CCn1/c(=N/C(=O)c2ccc3ncsc3c2)sc2cc(Br)ccc21

>  <canonical_smi>  (69) 
C#CCn1/c(=N/C(=O)c2ccc3ncsc3c2)sc2cc(Br)ccc21

>  <Set>  (69) 
G2 inactive

>  <Set_type>  (69) 
Train

>  <MW>  (69) 
428.34

>  <HBD>  (69) 
0

>  <HBA>  (69) 
2

>  <NRB>  (69) 
2

>  <NR>  (69) 
4

>  <NAR>  (69) 
4

>  <PSA>  (69) 
47.25

>  <Standard Type>  (69) 
nan

>  <Standard Relation>  (69) 
nan

>  <Standard Units>  (69) 
nan

>  <Standard Value>  (69) 
nan

>  <Assay ChEMBL ID>  (69) 
nan

>  <Assay Description>  (69) 
nan

>  <BAO Label>  (69) 
nan

$$$$

     RDKit          2D

 29 31  0  0  0  0  0  0  0  0999 V2000
    2.2500   -9.0933    0.0000 N   0  0  0  0  0  0  0  0  0  0  0  0
    1.5000   -7.7942    0.0000 C   0  0  0  0  0  0  0  0  0  0  0  0
    0.7500   -6.4952    0.0000 C   0  0  0  0  0  0  0  0  0  0  0  0
   -0.7500   -6.4952    0.0000 C   0  0  0  0  0  0  0  0  0  0  0  0
   -2.2500   -6.4952    0.0000 N   0  0  0  0  0  0  0  0  0  0  0  0
    1.5000   -5.1962    0.0000 C   0  0  0  0  0  0  0  0  0  0  0  0
    0.7500   -3.8971    0.0000 C   0  0  0  0  0  0  0  0  0  0  0  0
    1.5000   -2.5981    0.0000 C   0  0  0  0  0  0  0  0  0  0  0  0
    0.7500   -1.2990    0.0000 C   0  0  0  0  0  0  0  0  0  0  0  0
    1.5000    0.0000    0.0000 C   0  0  0  0  0  0  0  0  0  0  0  0
    0.7500    1.2990    0.0000 C   0  0  0  0  0  0  0  0  0  0  0  0
   -0.7500    1.2990    0.0000 C   0  0  0  0  0  0  0  0  0  0  0  0
   -1.5000    2.5981    0.0000 Cl  0  0  0  0  0  0  0  0  0  0  0  0
   -1.5000    0.0000    0.0000 C   0  0  0  0  0  0  0  0  0  0  0  0
   -0.7500   -1.2990    0.0000 C   0  0  0  0  0  0  0  0  0  0  0  0
    3.0000   -2.5981    0.0000 N   0  0  0  0  0  0  0  0  0  0  0  0
    3.7500   -3.8971    0.0000 C   0  0  0  0  0  0  0  0  0  0  0  0
    5.2500   -3.8971    0.0000 C   0  0  0  0  0  0  0  0  0  0  0  0
    6.0000   -2.5981    0.0000 N   0  0  0  0  0  0  0  0  0  0  0  0
    7.5000   -2.5981    0.0000 C   0  0  0  0  0  0  0  0  0  0  0  0
    8.2500   -3.8971    0.0000 C   0  0  0  0  0  0  0  0  0  0  0  0
    9.7500   -3.8971    0.0000 C   0  0  0  0  0  0  0  0  0  0  0  0
   10.5000   -2.5981    0.0000 C   0  0  0  0  0  0  0  0  0  0  0  0
   12.0000   -2.5981    0.0000 Cl  0  0  0  0  0  0  0  0  0  0  0  0
    9.7500   -1.2990    0.0000 C   0  0  0  0  0  0  0  0  0  0  0  0
   10.5000   -0.0000    0.0000 Cl  0  0  0  0  0  0  0  0  0  0  0  0
    8.2500   -1.2990    0.0000 C   0  0  0  0  0  0  0  0  0  0  0  0
    5.2500   -1.2990    0.0000 C   0  0  0  0  0  0  0  0  0  0  0  0
    3.7500   -1.2990    0.0000 C   0  0  0  0  0  0  0  0  0  0  0  0
  1  2  3  0
  2  3  1  0
  3  4  1  0
  4  5  3  0
  3  6  2  0
  6  7  1  0
  7  8  2  0
  8  9  1  0
  9 10  2  0
 10 11  1  0
 11 12  2  0
 12 13  1  0
 12 14  1  0
 14 15  2  0
  8 16  1  0
 16 17  1  0
 17 18  1  0
 18 19  1  0
 19 20  1  0
 20 21  2  0
 21 22  1  0
 22 23  2  0
 23 24  1  0
 23 25  1  0
 25 26  1  0
 25 27  2  0
 19 28  1  0
 28 29  1  0
 15  9  1  0
 29 16  1  0
 27 20  1  0
M  END
>  <Compound_ID>  (70) 
C16400060

>  <Active>  (70) 
0

>  <Smiles>  (70) 
N#CC(C#N)=C/C=C(/c1ccc(Cl)cc1)N1CCN(c2ccc(Cl)c(Cl)c2)CC1

>  <canonical_smi>  (70) 
N#CC(C#N)=C/C=C(/c1ccc(Cl)cc1)N1CCN(c2ccc(Cl)c(Cl)c2)CC1

>  <Set>  (70) 
G2 inactive

>  <Set_type>  (70) 
Train

>  <MW>  (70) 
443.76

>  <HBD>  (70) 
0

>  <HBA>  (70) 
4

>  <NRB>  (70) 
4

>  <NR>  (70) 
3

>  <NAR>  (70) 
2

>  <PSA>  (70) 
54.06

>  <Standard Type>  (70) 
nan

>  <Standard Relation>  (70) 
nan

>  <Standard Units>  (70) 
nan

>  <Standard Value>  (70) 
nan

>  <Assay ChEMBL ID>  (70) 
nan

>  <Assay Description>  (70) 
nan

>  <BAO Label>  (70) 
nan

$$$$

     RDKit          2D

 31 35  0  0  0  0  0  0  0  0999 V2000
   -6.4494  -14.4224    0.0000 C   0  0  0  0  0  0  0  0  0  0  0  0
   -6.1376  -12.9551    0.0000 C   0  0  0  0  0  0  0  0  0  0  0  0
   -7.2523  -11.9515    0.0000 C   0  0  0  0  0  0  0  0  0  0  0  0
   -6.9404  -10.4842    0.0000 C   0  0  0  0  0  0  0  0  0  0  0  0
   -5.5138  -10.0207    0.0000 C   0  0  0  0  0  0  0  0  0  0  0  0
   -5.2020   -8.5535    0.0000 S   0  0  0  0  0  0  0  0  0  0  0  0
   -3.7348   -8.8654    0.0000 O   0  0  0  0  0  0  0  0  0  0  0  0
   -6.6692   -8.2416    0.0000 O   0  0  0  0  0  0  0  0  0  0  0  0
   -4.8901   -7.0863    0.0000 O   0  0  0  0  0  0  0  0  0  0  0  0
   -3.4635   -6.6227    0.0000 C   0  0  0  0  0  0  0  0  0  0  0  0
   -2.2500   -7.5044    0.0000 C   0  0  0  0  0  0  0  0  0  0  0  0
   -1.0365   -6.6227    0.0000 C   0  0  0  0  0  0  0  0  0  0  0  0
    0.3901   -7.0863    0.0000 O   0  0  0  0  0  0  0  0  0  0  0  0
   -1.5000   -5.1962    0.0000 C   0  0  0  0  0  0  0  0  0  0  0  0
   -0.7500   -3.8971    0.0000 C   0  0  0  0  0  0  0  0  0  0  0  0
    0.7500   -3.8971    0.0000 C   0  0  0  0  0  0  0  0  0  0  0  0
    1.5000   -2.5981    0.0000 C   0  0  0  0  0  0  0  0  0  0  0  0
    0.7500   -1.2990    0.0000 C   0  0  0  0  0  0  0  0  0  0  0  0
    1.5000    0.0000    0.0000 C   0  0  0  0  0  0  0  0  0  0  0  0
    0.7500    1.2990    0.0000 C   0  0  0  0  0  0  0  0  0  0  0  0
   -0.7500    1.2990    0.0000 C   0  0  0  0  0  0  0  0  0  0  0  0
   -1.5000    0.0000    0.0000 C   0  0  0  0  0  0  0  0  0  0  0  0
   -0.7500   -1.2990    0.0000 C   0  0  0  0  0  0  0  0  0  0  0  0
   -2.2500   -1.2990    0.0000 C   0  0  0  0  0  0  0  0  0  0  0  0
   -1.5000   -2.5981    0.0000 C   0  0  0  0  0  0  0  0  0  0  0  0
   -3.0000   -2.5981    0.0000 C   0  0  0  0  0  0  0  0  0  0  0  0
   -3.7500   -3.8971    0.0000 C   0  0  0  0  0  0  0  0  0  0  0  0
   -3.0000   -5.1962    0.0000 C   0  0  0  0  0  0  0  0  0  0  0  0
   -4.4918   -5.3529    0.0000 C   0  0  0  0  0  0  0  0  0  0  0  0
   -4.3991  -11.0244    0.0000 C   0  0  0  0  0  0  0  0  0  0  0  0
   -4.7110  -12.4916    0.0000 C   0  0  0  0  0  0  0  0  0  0  0  0
  1  2  1  0
  2  3  2  0
  3  4  1  0
  4  5  2  0
  5  6  1  0
  6  7  2  0
  6  8  2  0
  6  9  1  0
 10  9  1  1
 10 11  1  0
 11 12  1  0
 12 13  2  0
 14 12  1  1
 14 15  1  0
 15 16  1  6
 16 17  1  0
 18 17  1  6
 18 19  1  0
 19 20  1  0
 20 21  1  0
 21 22  1  0
 22 23  1  0
 23 24  1  6
 23 25  1  0
 25 26  1  1
 26 27  1  0
 27 28  1  0
 28 29  1  6
  5 30  1  0
 30 31  2  0
 31  2  1  0
 28 10  1  0
 28 14  1  0
 25 15  1  0
 23 18  1  0
M  END
>  <Compound_ID>  (71) 
C35317179

>  <Active>  (71) 
0

>  <Smiles>  (71) 
Cc1ccc(S(=O)(=O)O[C@@H]2CC(=O)[C@@H]3[C@H]4CC[C@H]5CCCC[C@]5(C)[C@@H]4CC[C@@]32C)cc1

>  <canonical_smi>  (71) 
Cc1ccc(S(=O)(=O)O[C@@H]2CC(=O)[C@@H]3[C@H]4CC[C@H]5CCCC[C@]5(C)[C@@H]4CC[C@]23C)cc1

>  <Set>  (71) 
G2 inactive

>  <Set_type>  (71) 
Train

>  <MW>  (71) 
444.64

>  <HBD>  (71) 
0

>  <HBA>  (71) 
4

>  <NRB>  (71) 
3

>  <NR>  (71) 
5

>  <NAR>  (71) 
1

>  <PSA>  (71) 
60.44

>  <Standard Type>  (71) 
nan

>  <Standard Relation>  (71) 
nan

>  <Standard Units>  (71) 
nan

>  <Standard Value>  (71) 
nan

>  <Assay ChEMBL ID>  (71) 
nan

>  <Assay Description>  (71) 
nan

>  <BAO Label>  (71) 
nan

$$$$

     RDKit          2D

 28 32  0  0  0  0  0  0  0  0999 V2000
    2.5838   -2.1155    0.0000 O   0  0  0  0  0  0  0  0  0  0  0  0
    1.2135   -2.7256    0.0000 S   0  0  0  0  0  0  0  0  0  0  0  0
    1.9635   -4.0247    0.0000 O   0  0  0  0  0  0  0  0  0  0  0  0
    0.7500   -1.2990    0.0000 C   0  0  0  0  0  0  0  0  0  0  0  0
    1.5000    0.0000    0.0000 C   0  0  0  0  0  0  0  0  0  0  0  0
    0.7500    1.2990    0.0000 C   0  0  0  0  0  0  0  0  0  0  0  0
   -0.7500    1.2990    0.0000 C   0  0  0  0  0  0  0  0  0  0  0  0
   -1.5000    0.0000    0.0000 C   0  0  0  0  0  0  0  0  0  0  0  0
   -0.7500   -1.2990    0.0000 C   0  0  0  0  0  0  0  0  0  0  0  0
   -1.2135   -2.7256    0.0000 C   0  0  0  0  0  0  0  0  0  0  0  0
   -0.0000   -3.6073    0.0000 C   0  0  0  0  0  0  0  0  0  0  0  0
   -0.4635   -5.0339    0.0000 C   0  0  0  0  0  0  0  0  0  0  0  0
    0.4182   -6.2474    0.0000 C   0  0  0  0  0  0  0  0  0  0  0  0
    1.9099   -6.0906    0.0000 C   0  0  0  0  0  0  0  0  0  0  0  0
    2.7916   -7.3041    0.0000 C   0  0  0  0  0  0  0  0  0  0  0  0
    2.1815   -8.6745    0.0000 C   0  0  0  0  0  0  0  0  0  0  0  0
    3.0632   -9.8880    0.0000 Cl  0  0  0  0  0  0  0  0  0  0  0  0
    0.6897   -8.8313    0.0000 C   0  0  0  0  0  0  0  0  0  0  0  0
   -0.1920   -7.6177    0.0000 C   0  0  0  0  0  0  0  0  0  0  0  0
   -1.6837   -7.7745    0.0000 Cl  0  0  0  0  0  0  0  0  0  0  0  0
   -1.9635   -5.0339    0.0000 N   0  0  0  0  0  0  0  0  0  0  0  0
   -2.4271   -3.6073    0.0000 N   0  0  0  0  0  0  0  0  0  0  0  0
   -3.8536   -3.1438    0.0000 C   0  0  0  0  0  0  0  0  0  0  0  0
   -4.1655   -1.6766    0.0000 C   0  0  0  0  0  0  0  0  0  0  0  0
   -5.5921   -1.2130    0.0000 C   0  0  0  0  0  0  0  0  0  0  0  0
   -6.7068   -2.2167    0.0000 C   0  0  0  0  0  0  0  0  0  0  0  0
   -6.3949   -3.6839    0.0000 C   0  0  0  0  0  0  0  0  0  0  0  0
   -4.9684   -4.1475    0.0000 C   0  0  0  0  0  0  0  0  0  0  0  0
  1  2  2  0
  2  3  2  0
  2  4  1  0
  4  5  2  0
  5  6  1  0
  6  7  2  0
  7  8  1  0
  8  9  2  0
  9 10  1  0
 10 11  1  0
 11 12  1  1
 12 13  1  0
 13 14  2  0
 14 15  1  0
 15 16  2  0
 16 17  1  0
 16 18  1  0
 18 19  2  0
 19 20  1  0
 12 21  2  0
 21 22  1  0
 22 23  1  0
 23 24  2  0
 24 25  1  0
 25 26  2  0
 26 27  1  0
 27 28  2  0
 11  2  1  0
 19 13  1  0
 28 23  1  0
  9  4  1  0
 10 22  1  6
M  END
>  <Compound_ID>  (72) 
C39291878

>  <Active>  (72) 
0

>  <Smiles>  (72) 
O=S1(=O)c2ccccc2[C@@H]2[C@@H]1C(c1ccc(Cl)cc1Cl)=NN2c1ccccc1

>  <canonical_smi>  (72) 
O=S1(=O)c2ccccc2[C@@H]2[C@@H]1C(c1ccc(Cl)cc1Cl)=NN2c1ccccc1

>  <Set>  (72) 
G2 inactive

>  <Set_type>  (72) 
Train

>  <MW>  (72) 
429.33

>  <HBD>  (72) 
0

>  <HBA>  (72) 
3

>  <NRB>  (72) 
2

>  <NR>  (72) 
5

>  <NAR>  (72) 
3

>  <PSA>  (72) 
49.74

>  <Standard Type>  (72) 
nan

>  <Standard Relation>  (72) 
nan

>  <Standard Units>  (72) 
nan

>  <Standard Value>  (72) 
nan

>  <Assay ChEMBL ID>  (72) 
nan

>  <Assay Description>  (72) 
nan

>  <BAO Label>  (72) 
nan

$$$$

     RDKit          2D

 19 20  0  0  0  0  0  0  0  0999 V2000
    3.0000    0.0000    0.0000 C   0  0  0  0  0  0  0  0  0  0  0  0
    1.5000    0.0000    0.0000 C   0  0  0  0  0  0  0  0  0  0  0  0
    0.7500   -1.2990    0.0000 N   0  0  0  0  0  0  0  0  0  0  0  0
   -0.7500   -1.2990    0.0000 N   0  0  0  0  0  0  0  0  0  0  0  0
   -1.5000    0.0000    0.0000 C   0  0  0  0  0  0  0  0  0  0  0  0
   -3.0000    0.0000    0.0000 O   0  0  0  0  0  0  0  0  0  0  0  0
   -3.7500   -1.2990    0.0000 C   0  0  0  0  0  0  0  0  0  0  0  0
   -5.2500   -1.2990    0.0000 C   0  0  0  0  0  0  0  0  0  0  0  0
   -6.0000    0.0000    0.0000 C   0  0  0  0  0  0  0  0  0  0  0  0
   -7.5000    0.0000    0.0000 C   0  0  0  0  0  0  0  0  0  0  0  0
   -8.2500   -1.2990    0.0000 C   0  0  0  0  0  0  0  0  0  0  0  0
   -7.5000   -2.5981    0.0000 C   0  0  0  0  0  0  0  0  0  0  0  0
   -6.0000   -2.5981    0.0000 C   0  0  0  0  0  0  0  0  0  0  0  0
   -0.7500    1.2990    0.0000 C   0  0  0  0  0  0  0  0  0  0  0  0
   -1.5000    2.5981    0.0000 C   0  0  0  0  0  0  0  0  0  0  0  0
   -3.0000    2.5981    0.0000 N   0  0  0  0  0  0  0  0  0  0  0  0
   -0.7500    3.8971    0.0000 N   0  0  0  0  0  4  0  0  0  0  0  0
    0.7500    1.2990    0.0000 C   0  0  0  0  0  0  0  0  0  0  0  0
    1.5000    2.5981    0.0000 C   0  0  0  0  0  0  0  0  0  0  0  0
  1  2  1  0
  2  3  2  0
  3  4  1  0
  4  5  2  0
  5  6  1  0
  6  7  1  0
  7  8  1  0
  8  9  1  0
  9 10  1  0
 10 11  1  0
 11 12  1  0
 12 13  1  0
  5 14  1  0
 14 15  1  0
 15 16  1  0
 15 17  2  0
 14 18  2  0
 18 19  1  0
 18  2  1  0
 13  8  1  0
M  CHG  1  17   1
M  END
>  <Compound_ID>  (73) 
C52154710

>  <Active>  (73) 
0

>  <Smiles>  (73) 
Cc1nnc(OCC2CCCCC2)c(C(N)=[NH2+])c1C

>  <canonical_smi>  (73) 
Cc1nnc(OCC2CCCCC2)c(C(N)=[NH2+])c1C

>  <Set>  (73) 
G2 inactive

>  <Set_type>  (73) 
Train

>  <MW>  (73) 
263.36

>  <HBD>  (73) 
2

>  <HBA>  (73) 
4

>  <NRB>  (73) 
4

>  <NR>  (73) 
2

>  <NAR>  (73) 
1

>  <PSA>  (73) 
86.62

>  <Standard Type>  (73) 
nan

>  <Standard Relation>  (73) 
nan

>  <Standard Units>  (73) 
nan

>  <Standard Value>  (73) 
nan

>  <Assay ChEMBL ID>  (73) 
nan

>  <Assay Description>  (73) 
nan

>  <BAO Label>  (73) 
nan

$$$$

     RDKit          2D

 21 23  0  0  0  0  0  0  0  0999 V2000
    0.0024   -8.8891    0.0000 C   0  0  0  0  0  0  0  0  0  0  0  0
   -1.0972   -7.8689    0.0000 C   0  0  0  0  0  0  0  0  0  0  0  0
   -0.6550   -6.4355    0.0000 C   0  0  0  0  0  0  0  0  0  0  0  0
   -1.5000   -5.1962    0.0000 N   0  0  0  0  0  0  0  0  0  0  0  0
   -0.7500   -3.8971    0.0000 C   0  0  0  0  0  0  0  0  0  0  0  0
   -1.5000   -2.5981    0.0000 N   0  0  0  0  0  0  0  0  0  0  0  0
   -0.7500   -1.2990    0.0000 C   0  0  0  0  0  0  0  0  0  0  0  0
    0.7500   -1.2990    0.0000 C   0  0  0  0  0  0  0  0  0  0  0  0
    1.5000   -2.5981    0.0000 C   0  0  0  0  0  0  0  0  0  0  0  0
    0.7500   -3.8971    0.0000 C   0  0  0  0  0  0  0  0  0  0  0  0
    1.5000   -5.1962    0.0000 C   0  0  0  0  0  0  0  0  0  0  0  0
    0.7500   -6.4952    0.0000 N   0  0  0  0  0  0  0  0  0  0  0  0
    3.0000   -5.1962    0.0000 N   0  0  0  0  0  4  0  0  0  0  0  0
    1.5000    0.0000    0.0000 C   0  0  0  0  0  0  0  0  0  0  0  0
    0.7500    1.2990    0.0000 C   0  0  0  0  0  0  0  0  0  0  0  0
   -0.7500    1.2990    0.0000 C   0  0  0  0  0  0  0  0  0  0  0  0
   -1.5000    0.0000    0.0000 C   0  0  0  0  0  0  0  0  0  0  0  0
   -2.9958   -5.0841    0.0000 C   0  0  0  0  0  0  0  0  0  0  0  0
   -4.0161   -6.1836    0.0000 C   0  0  0  0  0  0  0  0  0  0  0  0
   -3.7925   -7.6669    0.0000 C   0  0  0  0  0  0  0  0  0  0  0  0
   -2.4935   -8.4169    0.0000 O   0  0  0  0  0  0  0  0  0  0  0  0
  2  1  1  6
  2  3  1  0
  3  4  1  0
  4  5  1  0
  5  6  2  0
  6  7  1  0
  7  8  2  0
  8  9  1  0
  9 10  2  0
 10 11  1  0
 11 12  1  0
 11 13  2  0
  8 14  1  0
 14 15  1  0
 15 16  1  0
 16 17  1  0
  4 18  1  0
 18 19  1  0
 19 20  1  0
 20 21  1  0
 21  2  1  0
 10  5  1  0
 17  7  1  0
M  CHG  1  13   1
M  END
>  <Compound_ID>  (74) 
C61918946

>  <Active>  (74) 
0

>  <Smiles>  (74) 
C[C@H]1CN(c2nc3c(cc2C(N)=[NH2+])CCCC3)CCCO1

>  <canonical_smi>  (74) 
C[C@H]1CN(c2nc3c(cc2C(N)=[NH2+])CCCC3)CCCO1

>  <Set>  (74) 
G2 inactive

>  <Set_type>  (74) 
Train

>  <MW>  (74) 
289.4

>  <HBD>  (74) 
2

>  <HBA>  (74) 
4

>  <NRB>  (74) 
2

>  <NR>  (74) 
3

>  <NAR>  (74) 
1

>  <PSA>  (74) 
76.97

>  <Standard Type>  (74) 
nan

>  <Standard Relation>  (74) 
nan

>  <Standard Units>  (74) 
nan

>  <Standard Value>  (74) 
nan

>  <Assay ChEMBL ID>  (74) 
nan

>  <Assay Description>  (74) 
nan

>  <BAO Label>  (74) 
nan

$$$$

     RDKit          2D

 21 23  0  0  0  0  0  0  0  0999 V2000
   -3.2836   -6.1043    0.0000 N   0  0  0  0  0  0  0  0  0  0  0  0
   -3.7258   -4.6709    0.0000 S   0  0  0  0  0  0  0  0  0  0  0  0
   -5.1591   -5.1131    0.0000 O   0  0  0  0  0  0  0  0  0  0  0  0
   -2.2924   -4.2288    0.0000 O   0  0  0  0  0  0  0  0  0  0  0  0
   -4.1679   -3.2376    0.0000 C   0  0  0  0  0  0  0  0  0  0  0  0
   -5.6303   -2.9038    0.0000 C   0  0  0  0  0  0  0  0  0  0  0  0
   -6.0724   -1.4704    0.0000 C   0  0  0  0  0  0  0  0  0  0  0  0
   -5.0522   -0.3709    0.0000 C   0  0  0  0  0  0  0  0  0  0  0  0
   -3.5898   -0.7046    0.0000 C   0  0  0  0  0  0  0  0  0  0  0  0
   -3.1476   -2.1380    0.0000 C   0  0  0  0  0  0  0  0  0  0  0  0
   -1.6852   -2.4718    0.0000 N   0  0  0  0  0  0  0  0  0  0  0  0
   -1.3515   -3.9342    0.0000 C   0  0  0  0  0  0  0  0  0  0  0  0
   -0.0000   -4.5850    0.0000 C   0  0  0  0  0  0  0  0  0  0  0  0
    1.3515   -3.9342    0.0000 N   0  0  0  0  0  4  0  0  0  0  0  0
    1.6852   -2.4718    0.0000 C   0  0  0  0  0  0  0  0  0  0  0  0
    0.7500   -1.2990    0.0000 C   0  0  0  0  0  0  0  0  0  0  0  0
    1.5000    0.0000    0.0000 C   0  0  0  0  0  0  0  0  0  0  0  0
    0.7500    1.2990    0.0000 C   0  0  0  0  0  0  0  0  0  0  0  0
   -0.7500    1.2990    0.0000 C   0  0  0  0  0  0  0  0  0  0  0  0
   -1.5000    0.0000    0.0000 C   0  0  0  0  0  0  0  0  0  0  0  0
   -0.7500   -1.2990    0.0000 C   0  0  0  0  0  0  0  0  0  0  0  0
  1  2  1  0
  2  3  2  0
  2  4  2  0
  2  5  1  0
  5  6  2  0
  6  7  1  0
  7  8  2  0
  8  9  1  0
  9 10  2  0
 10 11  1  0
 11 12  1  0
 12 13  1  0
 13 14  1  0
 14 15  1  0
 15 16  1  0
 16 17  2  0
 17 18  1  0
 18 19  2  0
 19 20  1  0
 20 21  2  0
 10  5  1  0
 21 11  1  0
 21 16  1  0
M  CHG  1  14   1
M  END
>  <Compound_ID>  (75) 
C62819158

>  <Active>  (75) 
0

>  <Smiles>  (75) 
NS(=O)(=O)c1ccccc1N1CC[NH2+]Cc2ccccc21

>  <canonical_smi>  (75) 
NS(=O)(=O)c1ccccc1N1CC[NH2+]Cc2ccccc21

>  <Set>  (75) 
G2 inactive

>  <Set_type>  (75) 
Train

>  <MW>  (75) 
304.4

>  <HBD>  (75) 
2

>  <HBA>  (75) 
3

>  <NRB>  (75) 
2

>  <NR>  (75) 
3

>  <NAR>  (75) 
2

>  <PSA>  (75) 
80.01

>  <Standard Type>  (75) 
nan

>  <Standard Relation>  (75) 
nan

>  <Standard Units>  (75) 
nan

>  <Standard Value>  (75) 
nan

>  <Assay ChEMBL ID>  (75) 
nan

>  <Assay Description>  (75) 
nan

>  <BAO Label>  (75) 
nan

$$$$

     RDKit          2D

 18 20  0  0  0  0  0  0  0  0999 V2000
    5.4235    2.4280    0.0000 N   0  0  0  0  0  0  0  0  0  0  0  0
    4.2100    3.3097    0.0000 N   0  0  0  0  0  0  0  0  0  0  0  0
    4.3668    4.8015    0.0000 C   0  0  0  0  0  0  0  0  0  0  0  0
    5.6659    5.5515    0.0000 S   0  0  0  0  0  0  0  0  0  0  0  0
    5.3540    7.0187    0.0000 N   0  0  0  0  0  0  0  0  0  0  0  0
    3.8622    7.1755    0.0000 N   0  0  0  0  0  0  0  0  0  0  0  0
    3.2521    5.8051    0.0000 C   0  0  0  0  0  0  0  0  0  0  0  0
    1.7849    5.4933    0.0000 C   0  0  0  0  0  0  0  0  0  0  0  0
    1.3213    4.0667    0.0000 N   0  0  0  0  0  4  0  0  0  0  0  0
   -0.1459    3.7548    0.0000 C   0  0  0  0  0  0  0  0  0  0  0  0
   -0.6094    2.3282    0.0000 C   0  0  0  0  0  0  0  0  0  0  0  0
    0.3943    1.2135    0.0000 C   0  0  0  0  0  0  0  0  0  0  0  0
    1.2760    0.0000    0.0000 C   0  0  0  0  0  0  0  0  0  0  0  0
    0.3943   -1.2135    0.0000 C   0  0  0  0  0  0  0  0  0  0  0  0
   -1.0323   -0.7500    0.0000 C   0  0  0  0  0  0  0  0  0  0  0  0
   -1.0323    0.7500    0.0000 C   0  0  0  0  0  0  0  0  0  0  0  0
    1.8615    1.5254    0.0000 C   0  0  0  0  0  0  0  0  0  0  0  0
    2.3250    2.9520    0.0000 C   0  0  0  0  0  0  0  0  0  0  0  0
  1  2  1  0
  2  3  1  0
  3  4  1  0
  4  5  1  0
  5  6  2  0
  6  7  1  0
  7  8  1  0
  8  9  1  0
  9 10  1  0
 10 11  1  0
 11 12  1  0
 12 13  1  0
 13 14  1  0
 14 15  1  0
 15 16  1  0
 12 17  1  0
 17 18  1  0
  7  3  2  0
 18  9  1  0
 16 12  1  0
M  CHG  1   9   1
M  END
>  <Compound_ID>  (76) 
C62956819

>  <Active>  (76) 
0

>  <Smiles>  (76) 
NNc1snnc1C[NH+]1CCC2(CCCC2)CC1

>  <canonical_smi>  (76) 
NNc1snnc1C[NH+]1CCC2(CCCC2)CC1

>  <Set>  (76) 
G2 inactive

>  <Set_type>  (76) 
Train

>  <MW>  (76) 
268.41

>  <HBD>  (76) 
3

>  <HBA>  (76) 
4

>  <NRB>  (76) 
3

>  <NR>  (76) 
3

>  <NAR>  (76) 
1

>  <PSA>  (76) 
68.27

>  <Standard Type>  (76) 
nan

>  <Standard Relation>  (76) 
nan

>  <Standard Units>  (76) 
nan

>  <Standard Value>  (76) 
nan

>  <Assay ChEMBL ID>  (76) 
nan

>  <Assay Description>  (76) 
nan

>  <BAO Label>  (76) 
nan

$$$$

     RDKit          2D

 25 27  0  0  0  0  0  0  0  0999 V2000
    3.0000    0.0000    0.0000 C   0  0  0  0  0  0  0  0  0  0  0  0
    1.5000    0.0000    0.0000 C   0  0  0  0  0  0  0  0  0  0  0  0
    0.7500   -1.2990    0.0000 C   0  0  0  0  0  0  0  0  0  0  0  0
   -0.7500   -1.2990    0.0000 C   0  0  0  0  0  0  0  0  0  0  0  0
   -1.5000    0.0000    0.0000 C   0  0  0  0  0  0  0  0  0  0  0  0
   -3.0000    0.0000    0.0000 N   0  0  0  0  0  0  0  0  0  0  0  0
   -3.7500   -1.2990    0.0000 C   0  0  0  0  0  0  0  0  0  0  0  0
   -5.2500   -1.2990    0.0000 N   0  0  0  0  0  0  0  0  0  0  0  0
   -6.1317   -2.5126    0.0000 C   0  0  0  0  0  0  0  0  0  0  0  0
   -5.6682   -3.9391    0.0000 O   0  0  0  0  0  0  0  0  0  0  0  0
   -7.5583   -2.0490    0.0000 S   0  0  0  0  0  0  0  0  0  0  0  0
   -7.5583   -0.5490    0.0000 C   0  0  0  0  0  0  0  0  0  0  0  0
   -8.7718    0.3326    0.0000 C   0  0  0  0  0  0  0  0  0  0  0  0
   -8.6150    1.8244    0.0000 C   0  0  0  0  0  0  0  0  0  0  0  0
   -7.2447    2.4345    0.0000 C   0  0  0  0  0  0  0  0  0  0  0  0
   -7.0879    3.9263    0.0000 C   0  0  0  0  0  0  0  0  0  0  0  0
   -8.3014    4.8080    0.0000 C   0  0  0  0  0  0  0  0  0  0  0  0
   -8.1446    6.2998    0.0000 F   0  0  0  0  0  0  0  0  0  0  0  0
   -9.6717    4.1979    0.0000 C   0  0  0  0  0  0  0  0  0  0  0  0
   -9.8285    2.7061    0.0000 C   0  0  0  0  0  0  0  0  0  0  0  0
   -6.1317   -0.0855    0.0000 C   0  0  0  0  0  0  0  0  0  0  0  0
   -5.6682    1.3411    0.0000 O   0  0  0  0  0  0  0  0  0  0  0  0
   -0.7500    1.2990    0.0000 C   0  0  0  0  0  0  0  0  0  0  0  0
   -1.5000    2.5981    0.0000 C   0  0  0  0  0  0  0  0  0  0  0  0
    0.7500    1.2990    0.0000 C   0  0  0  0  0  0  0  0  0  0  0  0
  1  2  1  0
  2  3  2  0
  3  4  1  0
  4  5  2  0
  5  6  1  0
  6  7  1  0
  7  8  1  0
  8  9  1  0
  9 10  2  0
  9 11  1  0
 11 12  1  0
 12 13  2  0
 13 14  1  0
 14 15  2  0
 15 16  1  0
 16 17  2  0
 17 18  1  0
 17 19  1  0
 19 20  2  0
 12 21  1  0
 21 22  2  0
  5 23  1  0
 23 24  1  0
 23 25  2  0
 25  2  1  0
 21  8  1  0
 20 14  1  0
M  END
>  <Compound_ID>  (77) 
C04455949

>  <Active>  (77) 
0

>  <Smiles>  (77) 
Cc1ccc(NCN2C(=O)S/C(=C/c3ccc(F)cc3)C2=O)c(C)c1

>  <canonical_smi>  (77) 
Cc1ccc(NCN2C(=O)S/C(=C/c3ccc(F)cc3)C2=O)c(C)c1

>  <Set>  (77) 
G2 inactive

>  <Set_type>  (77) 
Train

>  <MW>  (77) 
356.42

>  <HBD>  (77) 
1

>  <HBA>  (77) 
4

>  <NRB>  (77) 
4

>  <NR>  (77) 
3

>  <NAR>  (77) 
2

>  <PSA>  (77) 
49.41

>  <Standard Type>  (77) 
nan

>  <Standard Relation>  (77) 
nan

>  <Standard Units>  (77) 
nan

>  <Standard Value>  (77) 
nan

>  <Assay ChEMBL ID>  (77) 
nan

>  <Assay Description>  (77) 
nan

>  <BAO Label>  (77) 
nan

$$$$

     RDKit          2D

 25 27  0  0  0  0  0  0  0  0999 V2000
    3.0000    0.0000    0.0000 C   0  0  0  0  0  0  0  0  0  0  0  0
    1.5000    0.0000    0.0000 C   0  0  0  0  0  0  0  0  0  0  0  0
    0.7500   -1.2990    0.0000 C   0  0  0  0  0  0  0  0  0  0  0  0
   -0.7500   -1.2990    0.0000 C   0  0  0  0  0  0  0  0  0  0  0  0
   -1.5000    0.0000    0.0000 C   0  0  0  0  0  0  0  0  0  0  0  0
   -3.0000    0.0000    0.0000 N   0  0  0  0  0  0  0  0  0  0  0  0
   -3.8817   -1.2135    0.0000 C   0  0  0  0  0  0  0  0  0  0  0  0
   -5.3083   -0.7500    0.0000 C   0  0  0  0  0  0  0  0  0  0  0  0
   -5.3083    0.7500    0.0000 C   0  0  0  0  0  0  0  0  0  0  0  0
   -6.5218    1.6317    0.0000 C   0  0  0  0  0  0  0  0  0  0  0  0
   -7.8921    1.0216    0.0000 O   0  0  0  0  0  0  0  0  0  0  0  0
   -6.3650    3.1235    0.0000 N   0  0  0  0  0  0  0  0  0  0  0  0
   -7.5785    4.0051    0.0000 C   0  0  0  0  0  0  0  0  0  0  0  0
   -7.4217    5.4969    0.0000 C   0  0  0  0  0  0  0  0  0  0  0  0
   -8.9488    3.3950    0.0000 C   0  0  0  0  0  0  0  0  0  0  0  0
  -10.1624    4.2767    0.0000 C   0  0  0  0  0  0  0  0  0  0  0  0
  -11.5327    3.6666    0.0000 C   0  0  0  0  0  0  0  0  0  0  0  0
  -11.6895    2.1748    0.0000 C   0  0  0  0  0  0  0  0  0  0  0  0
  -10.4760    1.2931    0.0000 C   0  0  0  0  0  0  0  0  0  0  0  0
   -9.1056    1.9033    0.0000 C   0  0  0  0  0  0  0  0  0  0  0  0
   -3.8817    1.2135    0.0000 C   0  0  0  0  0  0  0  0  0  0  0  0
   -3.4182    2.6401    0.0000 O   0  0  0  0  0  0  0  0  0  0  0  0
   -0.7500    1.2990    0.0000 C   0  0  0  0  0  0  0  0  0  0  0  0
   -1.5000    2.5981    0.0000 Cl  0  0  0  0  0  0  0  0  0  0  0  0
    0.7500    1.2990    0.0000 C   0  0  0  0  0  0  0  0  0  0  0  0
  1  2  1  0
  2  3  2  0
  3  4  1  0
  4  5  2  0
  5  6  1  0
  6  7  1  0
  7  8  1  0
  8  9  1  0
  9 10  1  1
 10 11  2  0
 10 12  1  0
 12 13  1  0
 13 14  1  1
 13 15  1  0
 15 16  2  0
 16 17  1  0
 17 18  2  0
 18 19  1  0
 19 20  2  0
  9 21  1  0
 21 22  2  0
  5 23  1  0
 23 24  1  0
 23 25  2  0
 25  2  1  0
 21  6  1  0
 20 15  1  0
M  END
>  <Compound_ID>  (78) 
C35831256

>  <Active>  (78) 
0

>  <Smiles>  (78) 
Cc1ccc(N2CC[C@@H](C(=O)N[C@H](C)c3ccccc3)C2=O)c(Cl)c1

>  <canonical_smi>  (78) 
Cc1ccc(N2CC[C@@H](C(=O)N[C@H](C)c3ccccc3)C2=O)c(Cl)c1

>  <Set>  (78) 
G2 inactive

>  <Set_type>  (78) 
Train

>  <MW>  (78) 
356.85

>  <HBD>  (78) 
1

>  <HBA>  (78) 
2

>  <NRB>  (78) 
4

>  <NR>  (78) 
3

>  <NAR>  (78) 
2

>  <PSA>  (78) 
49.41

>  <Standard Type>  (78) 
nan

>  <Standard Relation>  (78) 
nan

>  <Standard Units>  (78) 
nan

>  <Standard Value>  (78) 
nan

>  <Assay ChEMBL ID>  (78) 
nan

>  <Assay Description>  (78) 
nan

>  <BAO Label>  (78) 
nan

$$$$

     RDKit          2D

 17 18  0  0  0  0  0  0  0  0999 V2000
    3.9955   -4.2382    0.0000 N   0  0  0  0  0  0  0  0  0  0  0  0
    2.9918   -5.3529    0.0000 C   0  0  0  0  0  0  0  0  0  0  0  0
    3.3037   -6.8202    0.0000 N   0  0  0  0  0  0  0  0  0  0  0  0
    2.0046   -7.5702    0.0000 O   0  0  0  0  0  0  0  0  0  0  0  0
    0.8899   -6.5665    0.0000 N   0  0  0  0  0  0  0  0  0  0  0  0
    1.5000   -5.1962    0.0000 C   0  0  0  0  0  0  0  0  0  0  0  0
    0.7500   -3.8971    0.0000 C   0  0  0  0  0  0  0  0  0  0  0  0
   -0.7500   -3.8971    0.0000 N   0  0  0  0  0  0  0  0  0  0  0  0
   -1.5000   -5.1962    0.0000 O   0  0  0  0  0  0  0  0  0  0  0  0
    1.5000   -2.5981    0.0000 N   0  0  0  0  0  0  0  0  0  0  0  0
    0.7500   -1.2990    0.0000 C   0  0  0  0  0  0  0  0  0  0  0  0
    1.5000    0.0000    0.0000 C   0  0  0  0  0  0  0  0  0  0  0  0
    0.7500    1.2990    0.0000 C   0  0  0  0  0  0  0  0  0  0  0  0
   -0.7500    1.2990    0.0000 C   0  0  0  0  0  0  0  0  0  0  0  0
   -1.5000    2.5981    0.0000 I   0  0  0  0  0  0  0  0  0  0  0  0
   -1.5000    0.0000    0.0000 C   0  0  0  0  0  0  0  0  0  0  0  0
   -0.7500   -1.2990    0.0000 C   0  0  0  0  0  0  0  0  0  0  0  0
  1  2  1  0
  2  3  2  0
  3  4  1  0
  4  5  1  0
  5  6  1  0
  6  7  2  0
  7  8  1  0
  8  9  2  0
  7 10  1  0
 10 11  1  0
 11 12  2  0
 12 13  1  0
 13 14  2  0
 14 15  1  0
 14 16  1  0
 16 17  2  0
  6  2  1  0
 17 11  1  0
M  END
>  <Compound_ID>  (79) 
C06505940

>  <Active>  (79) 
0

>  <Smiles>  (79) 
NC1=NON/C1=C(\N=O)Nc1ccc(I)cc1

>  <canonical_smi>  (79) 
NC1=NON/C1=C(\N=O)Nc1ccc(I)cc1

>  <Set>  (79) 
G2 inactive

>  <Set_type>  (79) 
Train

>  <MW>  (79) 
345.1

>  <HBD>  (79) 
3

>  <HBA>  (79) 
5

>  <NRB>  (79) 
3

>  <NR>  (79) 
2

>  <NAR>  (79) 
1

>  <PSA>  (79) 
101.1

>  <Standard Type>  (79) 
nan

>  <Standard Relation>  (79) 
nan

>  <Standard Units>  (79) 
nan

>  <Standard Value>  (79) 
nan

>  <Assay ChEMBL ID>  (79) 
nan

>  <Assay Description>  (79) 
nan

>  <BAO Label>  (79) 
nan

$$$$

     RDKit          2D

 17 18  0  0  0  0  0  0  0  0999 V2000
    6.0000   -2.5981    0.0000 C   0  0  0  0  0  0  0  0  0  0  0  0
    5.2500   -1.2990    0.0000 O   0  0  0  0  0  0  0  0  0  0  0  0
    3.7500   -1.2990    0.0000 C   0  0  0  0  0  0  0  0  0  0  0  0
    3.0000    0.0000    0.0000 C   0  0  0  0  0  0  0  0  0  0  0  0
    1.5000    0.0000    0.0000 C   0  0  0  0  0  0  0  0  0  0  0  0
    0.7500   -1.2990    0.0000 N   0  0  0  0  0  0  0  0  0  0  0  0
   -0.7500   -1.2990    0.0000 C   0  0  0  0  0  0  0  0  0  0  0  0
   -1.5000   -2.5981    0.0000 N   0  0  0  0  0  0  0  0  0  0  0  0
   -0.7500   -3.8971    0.0000 N   0  0  0  0  0  0  0  0  0  0  0  0
   -1.5000    0.0000    0.0000 C   0  0  0  0  0  0  0  0  0  0  0  0
   -2.9672    0.3119    0.0000 C   0  0  0  0  0  0  0  0  0  0  0  0
   -4.0819   -0.6918    0.0000 C   0  0  0  0  0  0  0  0  0  0  0  0
   -3.1240    1.8037    0.0000 C   0  0  0  0  0  0  0  0  0  0  0  0
   -4.4231    2.5537    0.0000 C   0  0  0  0  0  0  0  0  0  0  0  0
   -1.7537    2.4138    0.0000 S   0  0  0  0  0  0  0  0  0  0  0  0
   -0.7500    1.2990    0.0000 C   0  0  0  0  0  0  0  0  0  0  0  0
    0.7500    1.2990    0.0000 N   0  0  0  0  0  0  0  0  0  0  0  0
  1  2  1  0
  2  3  1  0
  3  4  1  0
  4  5  1  0
  5  6  2  0
  6  7  1  0
  7  8  1  0
  8  9  1  0
  7 10  2  0
 10 11  1  0
 11 12  1  0
 11 13  2  0
 13 14  1  0
 13 15  1  0
 15 16  1  0
 16 17  2  0
 17  5  1  0
 16 10  1  0
M  END
>  <Compound_ID>  (80) 
C51151494

>  <Active>  (80) 
0

>  <Smiles>  (80) 
COCCc1nc(NN)c2c(C)c(C)sc2n1

>  <canonical_smi>  (80) 
COCCc1nc(NN)c2c(C)c(C)sc2n1

>  <Set>  (80) 
G2 inactive

>  <Set_type>  (80) 
Train

>  <MW>  (80) 
252.34

>  <HBD>  (80) 
2

>  <HBA>  (80) 
5

>  <NRB>  (80) 
4

>  <NR>  (80) 
2

>  <NAR>  (80) 
2

>  <PSA>  (80) 
73.06

>  <Standard Type>  (80) 
nan

>  <Standard Relation>  (80) 
nan

>  <Standard Units>  (80) 
nan

>  <Standard Value>  (80) 
nan

>  <Assay ChEMBL ID>  (80) 
nan

>  <Assay Description>  (80) 
nan

>  <BAO Label>  (80) 
nan

$$$$

     RDKit          2D

 19 20  0  0  0  0  0  0  0  0999 V2000
    0.7500   -3.8971    0.0000 C   0  0  0  0  0  0  0  0  0  0  0  0
    1.5000   -2.5981    0.0000 N   0  0  0  0  0  0  0  0  0  0  0  0
    0.7500   -1.2990    0.0000 C   0  0  0  0  0  0  0  0  0  0  0  0
    1.5000    0.0000    0.0000 C   0  0  0  0  0  0  0  0  0  0  0  0
    0.7500    1.2990    0.0000 C   0  0  0  0  0  0  0  0  0  0  0  0
   -0.7500    1.2990    0.0000 C   0  0  0  0  0  0  0  0  0  0  0  0
   -1.5000    2.5981    0.0000 N   0  0  0  0  0  0  0  0  0  0  0  0
   -1.5000    0.0000    0.0000 C   0  0  0  0  0  0  0  0  0  0  0  0
   -0.7500   -1.2990    0.0000 C   0  0  0  0  0  0  0  0  0  0  0  0
   -1.5000   -2.5981    0.0000 C   0  0  0  0  0  0  0  0  0  0  0  0
   -0.7500   -3.8971    0.0000 O   0  0  0  0  0  0  0  0  0  0  0  0
   -3.0000   -2.5981    0.0000 O   0  0  0  0  0  1  0  0  0  0  0  0
    3.0000   -2.5981    0.0000 C   0  0  0  0  0  0  0  0  0  0  0  0
    3.7500   -1.2990    0.0000 C   0  0  0  0  0  0  0  0  0  0  0  0
    5.2500   -1.2990    0.0000 C   0  0  0  0  0  0  0  0  0  0  0  0
    6.0000   -2.5981    0.0000 C   0  0  0  0  0  0  0  0  0  0  0  0
    5.2500   -3.8971    0.0000 N   0  0  0  0  0  4  0  0  0  0  0  0
    6.0000   -5.1962    0.0000 C   0  0  0  0  0  0  0  0  0  0  0  0
    3.7500   -3.8971    0.0000 C   0  0  0  0  0  0  0  0  0  0  0  0
  1  2  1  0
  2  3  1  0
  3  4  2  0
  4  5  1  0
  5  6  2  0
  6  7  1  0
  6  8  1  0
  8  9  2  0
  9 10  1  0
 10 11  2  0
 10 12  1  0
 13  2  1  6
 13 14  1  0
 14 15  1  0
 15 16  1  0
 16 17  1  0
 17 18  1  0
 17 19  1  0
  9  3  1  0
 19 13  1  0
M  CHG  2  12  -1  17   1
M  END
>  <Compound_ID>  (81) 
C53250518

>  <Active>  (81) 
0

>  <Smiles>  (81) 
CN(c1ccc(N)cc1C(=O)[O-])[C@@H]1CCC[NH+](C)C1

>  <canonical_smi>  (81) 
CN(c1ccc(N)cc1C(=O)[O-])[C@@H]1CCC[NH+](C)C1

>  <Set>  (81) 
G2 inactive

>  <Set_type>  (81) 
Train

>  <MW>  (81) 
263.34

>  <HBD>  (81) 
2

>  <HBA>  (81) 
4

>  <NRB>  (81) 
3

>  <NR>  (81) 
2

>  <NAR>  (81) 
1

>  <PSA>  (81) 
73.83

>  <Standard Type>  (81) 
nan

>  <Standard Relation>  (81) 
nan

>  <Standard Units>  (81) 
nan

>  <Standard Value>  (81) 
nan

>  <Assay ChEMBL ID>  (81) 
nan

>  <Assay Description>  (81) 
nan

>  <BAO Label>  (81) 
nan

$$$$

     RDKit          2D

 26 27  0  0  0  0  0  0  0  0999 V2000
    6.6888   -9.0562    0.0000 C   0  0  0  0  0  0  0  0  0  0  0  0
    5.2216   -8.7443    0.0000 C   0  0  0  0  0  0  0  0  0  0  0  0
    4.7581   -7.3178    0.0000 O   0  0  0  0  0  0  0  0  0  0  0  0
    3.2909   -7.0059    0.0000 C   0  0  0  0  0  0  0  0  0  0  0  0
    2.2872   -8.1206    0.0000 O   0  0  0  0  0  0  0  0  0  0  0  0
    2.8273   -5.5793    0.0000 C   0  0  0  0  0  0  0  0  0  0  0  0
    3.8310   -4.4646    0.0000 C   0  0  0  0  0  0  0  0  0  0  0  0
    5.2982   -4.7765    0.0000 N   0  0  0  0  0  0  0  0  0  0  0  0
    3.3675   -3.0380    0.0000 O   0  0  0  0  0  0  0  0  0  0  0  0
    1.3601   -5.2674    0.0000 C   0  0  0  0  0  0  0  0  0  0  0  0
    0.2454   -6.2711    0.0000 O   0  0  0  0  0  0  0  0  0  0  0  0
   -1.0537   -5.5211    0.0000 C   0  0  0  0  0  0  0  0  0  0  0  0
   -2.4240   -6.1312    0.0000 C   0  0  0  0  0  0  0  0  0  0  0  0
   -3.0341   -4.7609    0.0000 C   0  0  0  0  0  0  0  0  0  0  0  0
   -1.8139   -7.5016    0.0000 C   0  0  0  0  0  0  0  0  0  0  0  0
   -3.7943   -6.7413    0.0000 C   0  0  0  0  0  0  0  0  0  0  0  0
   -0.7418   -4.0539    0.0000 C   0  0  0  0  0  0  0  0  0  0  0  0
    0.7500   -3.8971    0.0000 C   0  0  0  0  0  0  0  0  0  0  0  0
    1.5000   -2.5981    0.0000 N   0  0  0  0  0  0  0  0  0  0  0  0
    0.7500   -1.2990    0.0000 C   0  0  0  0  0  0  0  0  0  0  0  0
    1.5000    0.0000    0.0000 C   0  0  0  0  0  0  0  0  0  0  0  0
    0.7500    1.2990    0.0000 C   0  0  0  0  0  0  0  0  0  0  0  0
   -0.7500    1.2990    0.0000 C   0  0  0  0  0  0  0  0  0  0  0  0
   -1.5000    2.5981    0.0000 C   0  0  0  0  0  0  0  0  0  0  0  0
   -1.5000    0.0000    0.0000 C   0  0  0  0  0  0  0  0  0  0  0  0
   -0.7500   -1.2990    0.0000 C   0  0  0  0  0  0  0  0  0  0  0  0
  1  2  1  0
  2  3  1  0
  3  4  1  0
  4  5  2  0
  4  6  1  0
  6  7  1  0
  7  8  1  0
  7  9  2  0
  6 10  2  0
 10 11  1  0
 11 12  1  0
 12 13  1  0
 13 14  1  0
 13 15  1  0
 13 16  1  0
 12 17  2  0
 17 18  1  0
 18 19  2  0
 19 20  1  0
 20 21  2  0
 21 22  1  0
 22 23  2  0
 23 24  1  0
 23 25  1  0
 25 26  2  0
 18 10  1  0
 26 20  1  0
M  END
>  <Compound_ID>  (82) 
C04776282

>  <Active>  (82) 
0

>  <Smiles>  (82) 
CCOC(=O)/C(C(N)=O)=C1\OC(C(C)(C)C)=C\C1=N/c1ccc(C)cc1

>  <canonical_smi>  (82) 
CCOC(=O)/C(C(N)=O)=C1\OC(C(C)(C)C)=C\C1=N/c1ccc(C)cc1

>  <Set>  (82) 
G2 inactive

>  <Set_type>  (82) 
Train

>  <MW>  (82) 
356.42

>  <HBD>  (82) 
1

>  <HBA>  (82) 
4

>  <NRB>  (82) 
4

>  <NR>  (82) 
2

>  <NAR>  (82) 
1

>  <PSA>  (82) 
90.98

>  <Standard Type>  (82) 
nan

>  <Standard Relation>  (82) 
nan

>  <Standard Units>  (82) 
nan

>  <Standard Value>  (82) 
nan

>  <Assay ChEMBL ID>  (82) 
nan

>  <Assay Description>  (82) 
nan

>  <BAO Label>  (82) 
nan

$$$$

     RDKit          2D

 25 27  0  0  0  0  0  0  0  0999 V2000
   -7.9373   -4.0478    0.0000 C   0  0  0  0  0  0  0  0  0  0  0  0
   -7.3272   -5.4181    0.0000 N   0  0  0  0  0  0  0  0  0  0  0  0
   -5.8355   -5.5749    0.0000 C   0  0  0  0  0  0  0  0  0  0  0  0
   -4.9538   -4.3613    0.0000 O   0  0  0  0  0  0  0  0  0  0  0  0
   -5.2253   -6.9452    0.0000 N   0  0  0  0  0  0  0  0  0  0  0  0
   -3.7336   -7.1020    0.0000 C   0  0  0  0  0  0  0  0  0  0  0  0
   -2.8519   -5.8885    0.0000 O   0  0  0  0  0  0  0  0  0  0  0  0
   -3.1235   -8.4723    0.0000 C   0  0  0  0  0  0  0  0  0  0  0  0
   -4.0051   -9.6858    0.0000 C   0  0  0  0  0  0  0  0  0  0  0  0
   -1.6317   -8.6291    0.0000 S   0  0  0  0  0  0  0  0  0  0  0  0
   -0.7500   -7.4156    0.0000 C   0  0  0  0  0  0  0  0  0  0  0  0
    0.7500   -7.4156    0.0000 N   0  0  0  0  0  0  0  0  0  0  0  0
    1.2135   -5.9890    0.0000 N   0  0  0  0  0  0  0  0  0  0  0  0
   -0.0000   -5.1073    0.0000 C   0  0  0  0  0  0  0  0  0  0  0  0
   -0.0000   -3.6073    0.0000 C   0  0  0  0  0  0  0  0  0  0  0  0
   -1.2135   -2.7256    0.0000 C   0  0  0  0  0  0  0  0  0  0  0  0
   -0.7500   -1.2990    0.0000 C   0  0  0  0  0  0  0  0  0  0  0  0
    0.7500   -1.2990    0.0000 C   0  0  0  0  0  0  0  0  0  0  0  0
    1.2135   -2.7256    0.0000 S   0  0  0  0  0  0  0  0  0  0  0  0
    1.5000    0.0000    0.0000 C   0  0  0  0  0  0  0  0  0  0  0  0
    0.7500    1.2990    0.0000 C   0  0  0  0  0  0  0  0  0  0  0  0
   -0.7500    1.2990    0.0000 C   0  0  0  0  0  0  0  0  0  0  0  0
   -1.5000    2.5981    0.0000 C   0  0  0  0  0  0  0  0  0  0  0  0
   -1.5000    0.0000    0.0000 C   0  0  0  0  0  0  0  0  0  0  0  0
   -1.2135   -5.9890    0.0000 O   0  0  0  0  0  0  0  0  0  0  0  0
  1  2  1  0
  2  3  1  0
  3  4  2  0
  3  5  1  0
  5  6  1  0
  6  7  2  0
  6  8  1  0
  8  9  1  1
  8 10  1  0
 10 11  1  0
 11 12  2  0
 12 13  1  0
 13 14  2  0
 14 15  1  0
 15 16  2  0
 16 17  1  0
 17 18  2  0
 18 19  1  0
 18 20  1  0
 20 21  1  0
 21 22  1  0
 22 23  1  1
 22 24  1  0
 14 25  1  0
 25 11  1  0
 19 15  1  0
 24 17  1  0
M  END
>  <Compound_ID>  (83) 
C07130433

>  <Active>  (83) 
0

>  <Smiles>  (83) 
CNC(=O)NC(=O)[C@H](C)Sc1nnc(-c2cc3c(s2)CC[C@H](C)C3)o1

>  <canonical_smi>  (83) 
CNC(=O)NC(=O)[C@H](C)Sc1nnc(-c2cc3c(s2)CC[C@H](C)C3)o1

>  <Set>  (83) 
G2 inactive

>  <Set_type>  (83) 
Train

>  <MW>  (83) 
380.5

>  <HBD>  (83) 
2

>  <HBA>  (83) 
6

>  <NRB>  (83) 
4

>  <NR>  (83) 
3

>  <NAR>  (83) 
2

>  <PSA>  (83) 
97.12

>  <Standard Type>  (83) 
nan

>  <Standard Relation>  (83) 
nan

>  <Standard Units>  (83) 
nan

>  <Standard Value>  (83) 
nan

>  <Assay ChEMBL ID>  (83) 
nan

>  <Assay Description>  (83) 
nan

>  <BAO Label>  (83) 
nan

$$$$

     RDKit          2D

 26 29  0  0  0  0  0  0  0  0999 V2000
    3.0000    0.0000    0.0000 C   0  0  0  0  0  0  0  0  0  0  0  0
    1.5000    0.0000    0.0000 C   0  0  0  0  0  0  0  0  0  0  0  0
    0.7500   -1.2990    0.0000 C   0  0  0  0  0  0  0  0  0  0  0  0
   -0.7500   -1.2990    0.0000 C   0  0  0  0  0  0  0  0  0  0  0  0
   -1.5000    0.0000    0.0000 C   0  0  0  0  0  0  0  0  0  0  0  0
   -3.0000    0.0000    0.0000 C   0  0  0  0  0  0  0  0  0  0  0  0
   -3.8817   -1.2135    0.0000 C   0  0  0  0  0  0  0  0  0  0  0  0
   -5.3083   -0.7500    0.0000 N   0  0  0  0  0  0  0  0  0  0  0  0
   -6.5218   -1.6317    0.0000 C   0  0  0  0  0  0  0  0  0  0  0  0
   -7.8921   -1.0216    0.0000 C   0  0  0  0  0  0  0  0  0  0  0  0
   -8.0489    0.4702    0.0000 C   0  0  0  0  0  0  0  0  0  0  0  0
   -9.4192    1.0803    0.0000 C   0  0  0  0  0  0  0  0  0  0  0  0
  -10.6327    0.1986    0.0000 N   0  0  0  0  0  0  0  0  0  0  0  0
  -12.0031    0.8087    0.0000 C   0  0  0  0  0  0  0  0  0  0  0  0
  -12.1599    2.3005    0.0000 C   0  0  0  0  0  0  0  0  0  0  0  0
  -13.5302    2.9106    0.0000 C   0  0  0  0  0  0  0  0  0  0  0  0
  -14.7437    2.0290    0.0000 N   0  0  0  0  0  0  0  0  0  0  0  0
  -14.5869    0.5372    0.0000 C   0  0  0  0  0  0  0  0  0  0  0  0
  -15.8004   -0.3445    0.0000 N   0  0  0  0  0  0  0  0  0  0  0  0
  -13.2166   -0.0729    0.0000 N   0  0  0  0  0  0  0  0  0  0  0  0
  -10.4760   -1.2931    0.0000 C   0  0  0  0  0  0  0  0  0  0  0  0
   -9.1056   -1.9033    0.0000 C   0  0  0  0  0  0  0  0  0  0  0  0
   -5.3083    0.7500    0.0000 N   0  0  0  0  0  0  0  0  0  0  0  0
   -3.8817    1.2135    0.0000 N   0  0  0  0  0  0  0  0  0  0  0  0
   -0.7500    1.2990    0.0000 C   0  0  0  0  0  0  0  0  0  0  0  0
    0.7500    1.2990    0.0000 C   0  0  0  0  0  0  0  0  0  0  0  0
  1  2  1  0
  2  3  2  0
  3  4  1  0
  4  5  2  0
  5  6  1  0
  6  7  2  0
  7  8  1  0
  8  9  1  0
  9 10  1  0
 10 11  1  0
 11 12  1  0
 12 13  1  0
 13 14  1  0
 14 15  2  0
 15 16  1  0
 16 17  2  0
 17 18  1  0
 18 19  1  0
 18 20  2  0
 13 21  1  0
 21 22  1  0
  8 23  1  0
 23 24  2  0
  5 25  1  0
 25 26  2  0
 26  2  1  0
 24  6  1  0
 22 10  1  0
 20 14  1  0
M  END
>  <Compound_ID>  (84) 
C63882970

>  <Active>  (84) 
0

>  <Smiles>  (84) 
Cc1ccc(-c2cn(CC3CCN(c4ccnc(N)n4)CC3)nn2)cc1

>  <canonical_smi>  (84) 
Cc1ccc(-c2cn(CC3CCN(c4ccnc(N)n4)CC3)nn2)cc1

>  <Set>  (84) 
G2 inactive

>  <Set_type>  (84) 
Train

>  <MW>  (84) 
349.44

>  <HBD>  (84) 
1

>  <HBA>  (84) 
6

>  <NRB>  (84) 
4

>  <NR>  (84) 
4

>  <NAR>  (84) 
3

>  <PSA>  (84) 
85.75

>  <Standard Type>  (84) 
nan

>  <Standard Relation>  (84) 
nan

>  <Standard Units>  (84) 
nan

>  <Standard Value>  (84) 
nan

>  <Assay ChEMBL ID>  (84) 
nan

>  <Assay Description>  (84) 
nan

>  <BAO Label>  (84) 
nan

$$$$

     RDKit          2D

 19 21  0  0  0  0  0  0  0  0999 V2000
   -6.4268    0.3631    0.0000 N   0  0  0  0  0  0  0  0  0  0  0  0
   -6.1149    1.8303    0.0000 C   0  0  0  0  0  0  0  0  0  0  0  0
   -7.2296    2.8340    0.0000 C   0  0  0  0  0  0  0  0  0  0  0  0
   -6.9177    4.3013    0.0000 C   0  0  0  0  0  0  0  0  0  0  0  0
   -5.4912    4.7648    0.0000 C   0  0  0  0  0  0  0  0  0  0  0  0
   -5.1793    6.2320    0.0000 F   0  0  0  0  0  0  0  0  0  0  0  0
   -4.3764    3.7611    0.0000 C   0  0  0  0  0  0  0  0  0  0  0  0
   -2.9499    4.2246    0.0000 F   0  0  0  0  0  0  0  0  0  0  0  0
   -4.6883    2.2939    0.0000 C   0  0  0  0  0  0  0  0  0  0  0  0
   -3.5736    1.2902    0.0000 S   0  0  0  0  0  0  0  0  0  0  0  0
   -2.1470    1.7537    0.0000 C   0  0  0  0  0  0  0  0  0  0  0  0
   -1.8351    3.2209    0.0000 N   0  0  0  0  0  0  0  0  0  0  0  0
   -0.4086    3.6844    0.0000 C   0  0  0  0  0  0  0  0  0  0  0  0
    0.7062    2.6807    0.0000 N   0  0  0  0  0  0  0  0  0  0  0  0
    0.3943    1.2135    0.0000 C   0  0  0  0  0  0  0  0  0  0  0  0
    1.2760    0.0000    0.0000 N   0  0  0  0  0  0  0  0  0  0  0  0
    0.3943   -1.2135    0.0000 C   0  0  0  0  0  0  0  0  0  0  0  0
   -1.0323   -0.7500    0.0000 N   0  0  0  0  0  0  0  0  0  0  0  0
   -1.0323    0.7500    0.0000 C   0  0  0  0  0  0  0  0  0  0  0  0
  1  2  1  0
  2  3  2  0
  3  4  1  0
  4  5  2  0
  5  6  1  0
  5  7  1  0
  7  8  1  0
  7  9  2  0
  9 10  1  0
 10 11  1  0
 11 12  2  0
 12 13  1  0
 13 14  2  0
 14 15  1  0
 15 16  1  0
 16 17  2  0
 17 18  1  0
 18 19  1  0
  9  2  1  0
 19 11  1  0
 19 15  2  0
M  END
>  <Compound_ID>  (85) 
C53168565

>  <Active>  (85) 
0

>  <Smiles>  (85) 
Nc1ccc(F)c(F)c1Sc1ncnc2nc[nH]c12

>  <canonical_smi>  (85) 
Nc1ccc(F)c(F)c1Sc1ncnc2nc[nH]c12

>  <Set>  (85) 
G2 inactive

>  <Set_type>  (85) 
Train

>  <MW>  (85) 
279.28

>  <HBD>  (85) 
2

>  <HBA>  (85) 
5

>  <NRB>  (85) 
2

>  <NR>  (85) 
3

>  <NAR>  (85) 
3

>  <PSA>  (85) 
80.48

>  <Standard Type>  (85) 
nan

>  <Standard Relation>  (85) 
nan

>  <Standard Units>  (85) 
nan

>  <Standard Value>  (85) 
nan

>  <Assay ChEMBL ID>  (85) 
nan

>  <Assay Description>  (85) 
nan

>  <BAO Label>  (85) 
nan

$$$$

     RDKit          2D

 21 23  0  0  0  0  0  0  0  0999 V2000
   -3.7500   -9.0933    0.0000 C   0  0  0  0  0  0  0  0  0  0  0  0
   -3.0000   -7.7942    0.0000 C   0  0  0  0  0  0  0  0  0  0  0  0
   -3.7500   -6.4952    0.0000 C   0  0  0  0  0  0  0  0  0  0  0  0
   -5.2500   -6.4952    0.0000 C   0  0  0  0  0  0  0  0  0  0  0  0
   -6.0000   -5.1962    0.0000 C   0  0  0  0  0  0  0  0  0  0  0  0
   -5.2500   -3.8971    0.0000 C   0  0  0  0  0  0  0  0  0  0  0  0
   -3.7500   -3.8971    0.0000 C   0  0  0  0  0  0  0  0  0  0  0  0
   -3.0000   -5.1962    0.0000 C   0  0  0  0  0  0  0  0  0  0  0  0
   -1.5000   -5.1962    0.0000 O   0  0  0  0  0  0  0  0  0  0  0  0
   -0.7500   -3.8971    0.0000 C   0  0  0  0  0  0  0  0  0  0  0  0
   -1.5000   -2.5981    0.0000 C   0  0  0  0  0  0  0  0  0  0  0  0
   -0.7500   -1.2990    0.0000 C   0  0  0  0  0  0  0  0  0  0  0  0
    0.7500   -1.2990    0.0000 C   0  0  0  0  0  0  0  0  0  0  0  0
    1.5000   -2.5981    0.0000 C   0  0  0  0  0  0  0  0  0  0  0  0
    0.7500   -3.8971    0.0000 C   0  0  0  0  0  0  0  0  0  0  0  0
    1.5000   -5.1962    0.0000 N   0  0  0  0  0  0  0  0  0  0  0  0
    1.5000    0.0000    0.0000 O   0  0  0  0  0  0  0  0  0  0  0  0
    0.7500    1.2990    0.0000 C   0  0  0  0  0  0  0  0  0  0  0  0
   -0.7500    1.2990    0.0000 C   0  0  0  0  0  0  0  0  0  0  0  0
   -1.5000    2.5981    0.0000 O   0  0  0  0  0  0  0  0  0  0  0  0
   -1.5000    0.0000    0.0000 N   0  0  0  0  0  0  0  0  0  0  0  0
  1  2  1  0
  3  2  1  1
  3  4  1  0
  4  5  1  0
  5  6  1  0
  6  7  1  0
  7  8  1  0
  8  9  1  6
  9 10  1  0
 10 11  2  0
 11 12  1  0
 12 13  2  0
 13 14  1  0
 14 15  2  0
 15 16  1  0
 13 17  1  0
 17 18  1  0
 18 19  1  0
 19 20  2  0
 19 21  1  0
  8  3  1  0
 15 10  1  0
 21 12  1  0
M  END
>  <Compound_ID>  (86) 
C35453427

>  <Active>  (86) 
0

>  <Smiles>  (86) 
CC[C@H]1CCCC[C@@H]1Oc1cc2c(cc1N)OCC(=O)N2

>  <canonical_smi>  (86) 
CC[C@H]1CCCC[C@@H]1Oc1cc2c(cc1N)OCC(=O)N2

>  <Set>  (86) 
G2 inactive

>  <Set_type>  (86) 
Train

>  <MW>  (86) 
290.36

>  <HBD>  (86) 
2

>  <HBA>  (86) 
4

>  <NRB>  (86) 
3

>  <NR>  (86) 
3

>  <NAR>  (86) 
1

>  <PSA>  (86) 
73.58

>  <Standard Type>  (86) 
nan

>  <Standard Relation>  (86) 
nan

>  <Standard Units>  (86) 
nan

>  <Standard Value>  (86) 
nan

>  <Assay ChEMBL ID>  (86) 
nan

>  <Assay Description>  (86) 
nan

>  <BAO Label>  (86) 
nan

$$$$

     RDKit          2D

 21 23  0  0  0  0  0  0  0  0999 V2000
    3.9955   -4.2382    0.0000 C   0  0  0  0  0  0  0  0  0  0  0  0
    2.9918   -5.3529    0.0000 C   0  0  0  0  0  0  0  0  0  0  0  0
    3.3037   -6.8202    0.0000 N   0  0  0  0  0  0  0  0  0  0  0  0
    2.0046   -7.5702    0.0000 C   0  0  0  0  0  0  0  0  0  0  0  0
    0.8899   -6.5665    0.0000 S   0  0  0  0  0  0  0  0  0  0  0  0
    1.5000   -5.1962    0.0000 C   0  0  0  0  0  0  0  0  0  0  0  0
    0.7500   -3.8971    0.0000 C   0  0  0  0  0  0  0  0  0  0  0  0
   -0.7500   -3.8971    0.0000 C   0  0  0  0  0  0  0  0  0  0  0  0
    1.5000   -2.5981    0.0000 N   0  0  0  0  0  0  0  0  0  0  0  0
    0.7500   -1.2990    0.0000 C   0  0  0  0  0  0  0  0  0  0  0  0
    1.5000    0.0000    0.0000 C   0  0  0  0  0  0  0  0  0  0  0  0
    0.7500    1.2990    0.0000 C   0  0  0  0  0  0  0  0  0  0  0  0
   -0.7500    1.2990    0.0000 C   0  0  0  0  0  0  0  0  0  0  0  0
   -1.5000    2.5981    0.0000 C   0  0  0  0  0  0  0  0  0  0  0  0
   -2.9918    2.7549    0.0000 N   0  0  0  0  0  0  0  0  0  0  0  0
   -3.3037    4.2221    0.0000 N   0  0  0  0  0  0  0  0  0  0  0  0
   -2.0046    4.9721    0.0000 C   0  0  0  0  0  0  0  0  0  0  0  0
   -0.8899    3.9684    0.0000 N   0  0  0  0  0  0  0  0  0  0  0  0
    0.5773    4.2803    0.0000 C   0  0  0  0  0  0  0  0  0  0  0  0
   -1.5000    0.0000    0.0000 C   0  0  0  0  0  0  0  0  0  0  0  0
   -0.7500   -1.2990    0.0000 C   0  0  0  0  0  0  0  0  0  0  0  0
  1  2  1  0
  2  3  1  0
  3  4  2  0
  4  5  1  0
  5  6  1  0
  6  7  1  0
  7  8  1  1
  7  9  1  0
  9 10  1  0
 10 11  2  0
 11 12  1  0
 12 13  2  0
 13 14  1  0
 14 15  2  0
 15 16  1  0
 16 17  2  0
 17 18  1  0
 18 19  1  0
 13 20  1  0
 20 21  2  0
  6  2  2  0
 21 10  1  0
 18 14  1  0
M  END
>  <Compound_ID>  (87) 
C37281956

>  <Active>  (87) 
0

>  <Smiles>  (87) 
Cc1ncsc1[C@@H](C)Nc1ccc(-c2nncn2C)cc1

>  <canonical_smi>  (87) 
Cc1ncsc1[C@@H](C)Nc1ccc(-c2nncn2C)cc1

>  <Set>  (87) 
G2 inactive

>  <Set_type>  (87) 
Train

>  <MW>  (87) 
299.4

>  <HBD>  (87) 
1

>  <HBA>  (87) 
4

>  <NRB>  (87) 
4

>  <NR>  (87) 
3

>  <NAR>  (87) 
3

>  <PSA>  (87) 
55.63

>  <Standard Type>  (87) 
nan

>  <Standard Relation>  (87) 
nan

>  <Standard Units>  (87) 
nan

>  <Standard Value>  (87) 
nan

>  <Assay ChEMBL ID>  (87) 
nan

>  <Assay Description>  (87) 
nan

>  <BAO Label>  (87) 
nan

$$$$

     RDKit          2D

 31 34  0  0  0  0  0  0  0  0999 V2000
    3.0000   -2.5981    0.0000 O   0  0  0  0  0  0  0  0  0  0  0  0
    1.5000   -2.5981    0.0000 C   0  0  0  0  0  0  0  0  0  0  0  0
    0.7500   -1.2990    0.0000 C   0  0  0  0  0  0  0  0  0  0  0  0
    1.5000    0.0000    0.0000 C   0  0  0  0  0  0  0  0  0  0  0  0
    0.7500    1.2990    0.0000 C   0  0  0  0  0  0  0  0  0  0  0  0
   -0.7500    1.2990    0.0000 C   0  0  0  0  0  0  0  0  0  0  0  0
   -1.5000    2.5981    0.0000 N   0  0  0  0  0  0  0  0  0  0  0  0
   -0.7500    3.8971    0.0000 C   0  0  0  0  0  0  0  0  0  0  0  0
   -1.5000    5.1962    0.0000 C   0  0  0  0  0  0  0  0  0  0  0  0
   -3.0000    5.1962    0.0000 C   0  0  0  0  0  0  0  0  0  0  0  0
   -3.7500    6.4952    0.0000 N   0  0  0  0  0  4  0  0  0  0  0  0
   -3.0000    7.7942    0.0000 C   0  0  0  0  0  0  0  0  0  0  0  0
   -3.7500    9.0933    0.0000 C   0  0  0  0  0  0  0  0  0  0  0  0
   -3.0000   10.3923    0.0000 C   0  0  0  0  0  0  0  0  0  0  0  0
   -1.5000   10.3923    0.0000 C   0  0  0  0  0  0  0  0  0  0  0  0
   -0.7500   11.6913    0.0000 C   0  0  0  0  0  0  0  0  0  0  0  0
   -1.5000   12.9904    0.0000 C   0  0  0  0  0  0  0  0  0  0  0  0
   -3.0000   12.9904    0.0000 C   0  0  0  0  0  0  0  0  0  0  0  0
   -3.7500   11.6913    0.0000 C   0  0  0  0  0  0  0  0  0  0  0  0
   -3.7500    3.8971    0.0000 C   0  0  0  0  0  0  0  0  0  0  0  0
   -3.0000    2.5981    0.0000 C   0  0  0  0  0  0  0  0  0  0  0  0
   -1.5000    0.0000    0.0000 C   0  0  0  0  0  0  0  0  0  0  0  0
   -0.7500   -1.2990    0.0000 C   0  0  0  0  0  0  0  0  0  0  0  0
    0.7500   -3.8971    0.0000 N   0  0  0  0  0  0  0  0  0  0  0  0
   -0.7500   -3.8971    0.0000 C   0  0  0  0  0  0  0  0  0  0  0  0
   -1.5000   -5.1962    0.0000 C   0  0  0  0  0  0  0  0  0  0  0  0
   -0.7500   -6.4952    0.0000 C   0  0  0  0  0  0  0  0  0  0  0  0
    0.7500   -6.4952    0.0000 C   0  0  0  0  0  0  0  0  0  0  0  0
    1.5000   -7.7942    0.0000 C   0  0  0  0  0  0  0  0  0  0  0  0
    0.7500   -9.0933    0.0000 O   0  0  0  0  0  0  0  0  0  0  0  0
    1.5000   -5.1962    0.0000 C   0  0  0  0  0  0  0  0  0  0  0  0
  1  2  2  0
  2  3  1  0
  3  4  2  0
  4  5  1  0
  5  6  2  0
  6  7  1  0
  7  8  1  0
  8  9  1  0
  9 10  1  0
 10 11  1  0
 11 12  1  0
 12 13  1  0
 13 14  1  0
 14 15  2  0
 15 16  1  0
 16 17  1  0
 17 18  1  0
 18 19  1  0
 10 20  1  0
 20 21  1  0
  6 22  1  0
 22 23  2  0
  2 24  1  0
 24 25  1  0
 25 26  1  0
 26 27  1  0
 27 28  1  0
 28 29  1  1
 29 30  1  0
 28 31  1  0
 23  3  1  0
 31 24  1  0
 21  7  1  0
 19 14  1  0
M  CHG  1  11   1
M  END
>  <Compound_ID>  (88) 
C12453759

>  <Active>  (88) 
0

>  <Smiles>  (88) 
O=C(c1ccc(N2CCC([NH2+]CCC3=CCCCC3)CC2)cc1)N1CCC[C@H](CO)C1

>  <canonical_smi>  (88) 
O=C(c1ccc(N2CCC([NH2+]CCC3=CCCCC3)CC2)cc1)N1CCC[C@H](CO)C1

>  <Set>  (88) 
G2 inactive

>  <Set_type>  (88) 
Train

>  <MW>  (88) 
426.63

>  <HBD>  (88) 
2

>  <HBA>  (88) 
3

>  <NRB>  (88) 
7

>  <NR>  (88) 
4

>  <NAR>  (88) 
1

>  <PSA>  (88) 
60.39

>  <Standard Type>  (88) 
nan

>  <Standard Relation>  (88) 
nan

>  <Standard Units>  (88) 
nan

>  <Standard Value>  (88) 
nan

>  <Assay ChEMBL ID>  (88) 
nan

>  <Assay Description>  (88) 
nan

>  <BAO Label>  (88) 
nan

$$$$

     RDKit          2D

 21 24  0  0  0  0  0  0  0  0999 V2000
    6.7500    1.2990    0.0000 N   0  0  0  0  0  0  0  0  0  0  0  0
    5.2500    1.2990    0.0000 C   0  0  0  0  0  0  0  0  0  0  0  0
    4.5000    2.5981    0.0000 C   0  0  0  0  0  0  0  0  0  0  0  0
    3.0000    2.5981    0.0000 C   0  0  0  0  0  0  0  0  0  0  0  0
    2.2500    1.2990    0.0000 C   0  0  0  0  0  0  0  0  0  0  0  0
    3.0000   -0.0000    0.0000 N   0  0  0  0  0  0  0  0  0  0  0  0
    4.5000   -0.0000    0.0000 C   0  0  0  0  0  0  0  0  0  0  0  0
    5.2500   -1.2990    0.0000 O   0  0  0  0  0  0  0  0  0  0  0  0
    2.2500   -1.2990    0.0000 C   0  0  0  0  0  0  0  0  0  0  0  0
    0.7500   -1.2990    0.0000 C   0  0  0  0  0  0  0  0  0  0  0  0
    1.5000    0.0000    0.0000 C   0  0  0  0  0  0  0  0  0  0  0  0
    0.7500    1.2990    0.0000 C   0  0  0  0  0  0  0  0  0  0  0  0
   -0.7500    1.2990    0.0000 C   0  0  0  0  0  0  0  0  0  0  0  0
   -1.5000    0.0000    0.0000 N   0  0  0  0  0  0  0  0  0  0  0  0
   -3.0000    0.0000    0.0000 C   0  0  0  0  0  0  0  0  0  0  0  0
   -3.7500    1.2990    0.0000 N   0  0  0  0  0  0  0  0  0  0  0  0
   -5.2500    1.2990    0.0000 C   0  0  0  0  0  0  0  0  0  0  0  0
   -6.0000    0.0000    0.0000 C   0  0  0  0  0  0  0  0  0  0  0  0
   -5.2500   -1.2990    0.0000 C   0  0  0  0  0  0  0  0  0  0  0  0
   -3.7500   -1.2990    0.0000 N   0  0  0  0  0  0  0  0  0  0  0  0
   -0.7500   -1.2990    0.0000 C   0  0  0  0  0  0  0  0  0  0  0  0
  1  2  1  0
  2  3  2  0
  3  4  1  0
  4  5  2  0
  5  6  1  0
  6  7  1  0
  7  8  2  0
  6  9  1  0
 10  9  1  6
 10 11  1  0
 11 12  1  0
 12 13  1  6
 13 14  1  0
 14 15  1  0
 15 16  2  0
 16 17  1  0
 17 18  2  0
 18 19  1  0
 19 20  2  0
 14 21  1  0
  7  2  1  0
 21 10  1  0
 12  5  1  0
 20 15  1  0
M  END
>  <Compound_ID>  (89) 
C04236250

>  <Active>  (89) 
0

>  <Smiles>  (89) 
Nc1ccc2n(c1=O)C[C@H]1C[C@@H]2CN(c2ncccn2)C1

>  <canonical_smi>  (89) 
Nc1ccc2n(c1=O)C[C@H]1C[C@@H]2CN(c2ncccn2)C1

>  <Set>  (89) 
G2 inactive

>  <Set_type>  (89) 
Train

>  <MW>  (89) 
283.34

>  <HBD>  (89) 
1

>  <HBA>  (89) 
5

>  <NRB>  (89) 
1

>  <NR>  (89) 
4

>  <NAR>  (89) 
2

>  <PSA>  (89) 
77.04

>  <Standard Type>  (89) 
nan

>  <Standard Relation>  (89) 
nan

>  <Standard Units>  (89) 
nan

>  <Standard Value>  (89) 
nan

>  <Assay ChEMBL ID>  (89) 
nan

>  <Assay Description>  (89) 
nan

>  <BAO Label>  (89) 
nan

$$$$

     RDKit          2D

 19 20  0  0  0  0  0  0  0  0999 V2000
    6.3943   -1.2135    0.0000 C   0  0  0  0  0  0  0  0  0  0  0  0
    4.8943   -1.2135    0.0000 C   0  0  0  0  0  0  0  0  0  0  0  0
    4.1443    0.0855    0.0000 C   0  0  0  0  0  0  0  0  0  0  0  0
    2.6443    0.0855    0.0000 C   0  0  0  0  0  0  0  0  0  0  0  0
    1.8943    1.3846    0.0000 C   0  0  0  0  0  0  0  0  0  0  0  0
    0.3943    1.2135    0.0000 C   0  0  0  0  0  0  0  0  0  0  0  0
    0.8578    2.6401    0.0000 O   0  0  0  0  0  0  0  0  0  0  0  0
    1.2760    0.0000    0.0000 C   0  0  0  0  0  0  0  0  0  0  0  0
    0.3943   -1.2135    0.0000 C   0  0  0  0  0  0  0  0  0  0  0  0
    0.8578   -2.6401    0.0000 C   0  0  0  0  0  0  0  0  0  0  0  0
    1.0099   -3.4226    0.0000 N   0  0  0  0  0  0  0  0  0  0  0  0
   -1.0323   -0.7500    0.0000 C   0  0  0  0  0  0  0  0  0  0  0  0
   -2.2458   -1.6317    0.0000 O   0  0  0  0  0  0  0  0  0  0  0  0
   -1.0323    0.7500    0.0000 N   0  0  0  0  0  0  0  0  0  0  0  0
    1.8943   -1.2135    0.0000 C   0  0  0  0  0  0  0  0  0  0  0  0
    1.6338   -2.6907    0.0000 C   0  0  0  0  0  0  0  0  0  0  0  0
    1.5921   -3.4868    0.0000 N   0  0  0  0  0  0  0  0  0  0  0  0
    3.3038   -1.7266    0.0000 C   0  0  0  0  0  0  0  0  0  0  0  0
    4.7134   -2.2396    0.0000 N   0  0  0  0  0  0  0  0  0  0  0  0
  1  2  1  0
  2  3  1  0
  4  3  1  6
  4  5  1  0
  5  6  1  0
  6  7  1  1
  6  8  1  0
  8  9  1  0
  9 10  1  1
 10 11  3  0
  9 12  1  0
 12 13  2  0
 12 14  1  0
  9 15  1  0
 15 16  1  0
 16 17  3  0
 15 18  1  0
 18 19  3  0
 15  4  1  0
 14  6  1  0
M  END
>  <Compound_ID>  (90) 
C00128052

>  <Active>  (90) 
0

>  <Smiles>  (90) 
CCC[C@H]1C[C@]2(O)C[C@@](C#N)(C(=O)N2)C1(C#N)C#N

>  <canonical_smi>  (90) 
CCC[C@H]1C[C@]2(O)C[C@@](C#N)(C(=O)N2)C1(C#N)C#N

>  <Set>  (90) 
G2 inactive

>  <Set_type>  (90) 
Train

>  <MW>  (90) 
258.28

>  <HBD>  (90) 
2

>  <HBA>  (90) 
5

>  <NRB>  (90) 
2

>  <NR>  (90) 
2

>  <NAR>  (90) 
0

>  <PSA>  (90) 
120.7

>  <Standard Type>  (90) 
nan

>  <Standard Relation>  (90) 
nan

>  <Standard Units>  (90) 
nan

>  <Standard Value>  (90) 
nan

>  <Assay ChEMBL ID>  (90) 
nan

>  <Assay Description>  (90) 
nan

>  <BAO Label>  (90) 
nan

$$$$

     RDKit          2D

 17 18  0  0  0  0  0  0  0  0999 V2000
  -10.0828    1.9070    0.0000 N   0  0  0  0  0  0  0  0  0  0  0  0
   -8.6562    2.3705    0.0000 C   0  0  0  0  0  0  0  0  0  0  0  0
   -7.2296    2.8340    0.0000 C   0  0  0  0  0  0  0  0  0  0  0  0
   -6.9177    4.3013    0.0000 C   0  0  0  0  0  0  0  0  0  0  0  0
   -6.6059    5.7685    0.0000 N   0  0  0  0  0  0  0  0  0  0  0  0
   -6.1149    1.8303    0.0000 C   0  0  0  0  0  0  0  0  0  0  0  0
   -4.6883    2.2939    0.0000 N   0  0  0  0  0  0  0  0  0  0  0  0
   -3.5736    1.2902    0.0000 N   0  0  0  0  0  0  0  0  0  0  0  0
   -2.1470    1.7537    0.0000 C   0  0  0  0  0  0  0  0  0  0  0  0
   -1.8351    3.2209    0.0000 N   0  0  0  0  0  0  0  0  0  0  0  0
   -0.4086    3.6844    0.0000 C   0  0  0  0  0  0  0  0  0  0  0  0
    0.7062    2.6807    0.0000 N   0  0  0  0  0  0  0  0  0  0  0  0
    0.3943    1.2135    0.0000 C   0  0  0  0  0  0  0  0  0  0  0  0
    1.2760    0.0000    0.0000 C   0  0  0  0  0  0  0  0  0  0  0  0
    0.3943   -1.2135    0.0000 C   0  0  0  0  0  0  0  0  0  0  0  0
   -1.0323   -0.7500    0.0000 S   0  0  0  0  0  0  0  0  0  0  0  0
   -1.0323    0.7500    0.0000 C   0  0  0  0  0  0  0  0  0  0  0  0
  1  2  3  0
  2  3  1  0
  3  4  1  0
  4  5  3  0
  3  6  2  0
  6  7  1  0
  7  8  1  0
  8  9  1  0
  9 10  2  0
 10 11  1  0
 11 12  2  0
 12 13  1  0
 13 14  1  0
 14 15  2  0
 15 16  1  0
 16 17  1  0
 17  9  1  0
 17 13  2  0
M  END
>  <Compound_ID>  (91) 
C00117224

>  <Active>  (91) 
0

>  <Smiles>  (91) 
N#CC(C#N)=CNNc1ncnc2ccsc12

>  <canonical_smi>  (91) 
N#CC(C#N)=CNNc1ncnc2ccsc12

>  <Set>  (91) 
G2 inactive

>  <Set_type>  (91) 
Train

>  <MW>  (91) 
242.27

>  <HBD>  (91) 
2

>  <HBA>  (91) 
6

>  <NRB>  (91) 
3

>  <NR>  (91) 
2

>  <NAR>  (91) 
2

>  <PSA>  (91) 
97.42

>  <Standard Type>  (91) 
nan

>  <Standard Relation>  (91) 
nan

>  <Standard Units>  (91) 
nan

>  <Standard Value>  (91) 
nan

>  <Assay ChEMBL ID>  (91) 
nan

>  <Assay Description>  (91) 
nan

>  <BAO Label>  (91) 
nan

$$$$

     RDKit          2D

 14 15  0  0  0  0  0  0  0  0999 V2000
    2.7760    0.0000    0.0000 N   0  0  0  0  0  0  0  0  0  0  0  0
    1.2760    0.0000    0.0000 C   0  0  0  0  0  0  0  0  0  0  0  0
    0.3943    1.2135    0.0000 N   0  0  0  0  0  0  0  0  0  0  0  0
   -1.0323    0.7500    0.0000 N   0  0  0  0  0  0  0  0  0  0  0  0
   -1.0323   -0.7500    0.0000 C   0  0  0  0  0  0  0  0  0  0  0  0
   -2.2458   -1.6317    0.0000 S   0  0  0  0  0  0  0  0  0  0  0  0
   -3.1275   -0.4182    0.0000 O   0  0  0  0  0  0  0  0  0  0  0  0
   -1.3641   -2.8452    0.0000 O   0  0  0  0  0  0  0  0  0  0  0  0
   -3.4593   -2.5134    0.0000 N   0  0  0  0  0  0  0  0  0  0  0  0
   -3.4593   -4.0134    0.0000 C   0  0  0  0  0  0  0  0  0  0  0  0
   -4.8859   -4.4769    0.0000 C   0  0  0  0  0  0  0  0  0  0  0  0
   -5.7676   -3.2634    0.0000 C   0  0  0  0  0  0  0  0  0  0  0  0
   -4.8859   -2.0498    0.0000 C   0  0  0  0  0  0  0  0  0  0  0  0
    0.3943   -1.2135    0.0000 S   0  0  0  0  0  0  0  0  0  0  0  0
  1  2  1  0
  2  3  2  0
  3  4  1  0
  4  5  2  0
  5  6  1  0
  6  7  2  0
  6  8  2  0
  6  9  1  0
  9 10  1  0
 10 11  1  0
 11 12  1  0
 12 13  1  0
  5 14  1  0
 14  2  1  0
 13  9  1  0
M  END
>  <Compound_ID>  (92) 
C41262864

>  <Active>  (92) 
0

>  <Smiles>  (92) 
Nc1nnc(S(=O)(=O)N2CCCC2)s1

>  <canonical_smi>  (92) 
Nc1nnc(S(=O)(=O)N2CCCC2)s1

>  <Set>  (92) 
G2 inactive

>  <Set_type>  (92) 
Train

>  <MW>  (92) 
234.31

>  <HBD>  (92) 
1

>  <HBA>  (92) 
5

>  <NRB>  (92) 
2

>  <NR>  (92) 
2

>  <NAR>  (92) 
1

>  <PSA>  (92) 
89.18

>  <Standard Type>  (92) 
nan

>  <Standard Relation>  (92) 
nan

>  <Standard Units>  (92) 
nan

>  <Standard Value>  (92) 
nan

>  <Assay ChEMBL ID>  (92) 
nan

>  <Assay Description>  (92) 
nan

>  <BAO Label>  (92) 
nan

$$$$

     RDKit          2D

 15 16  0  0  0  0  0  0  0  0999 V2000
    2.7760    0.0000    0.0000 C   0  0  0  0  0  0  0  0  0  0  0  0
    1.2760    0.0000    0.0000 N   0  0  0  0  0  0  0  0  0  0  0  0
    0.3943    1.2135    0.0000 C   0  0  0  0  0  0  0  0  0  0  0  0
   -1.0323    0.7500    0.0000 C   0  0  0  0  0  0  0  0  0  0  0  0
   -2.2458    1.6317    0.0000 C   0  0  0  0  0  0  0  0  0  0  0  0
   -2.0890    3.1235    0.0000 S   0  0  0  0  0  0  0  0  0  0  0  0
   -3.3025    4.0051    0.0000 C   0  0  0  0  0  0  0  0  0  0  0  0
   -4.7291    3.5416    0.0000 N   0  0  0  0  0  0  0  0  0  0  0  0
   -5.6108    4.7551    0.0000 N   0  0  0  0  0  0  0  0  0  0  0  0
   -4.7291    5.9687    0.0000 C   0  0  0  0  0  0  0  0  0  0  0  0
   -5.1927    7.3952    0.0000 N   0  0  0  0  0  0  0  0  0  0  0  0
   -3.3025    5.5051    0.0000 N   0  0  0  0  0  0  0  0  0  0  0  0
   -2.0890    6.3868    0.0000 C   0  0  0  0  0  0  0  0  0  0  0  0
   -1.0323   -0.7500    0.0000 C   0  0  0  0  0  0  0  0  0  0  0  0
    0.3943   -1.2135    0.0000 N   0  0  0  0  0  0  0  0  0  0  0  0
  1  2  1  0
  2  3  1  0
  3  4  2  0
  4  5  1  0
  5  6  1  0
  6  7  1  0
  7  8  2  0
  8  9  1  0
  9 10  2  0
 10 11  1  0
 10 12  1  0
 12 13  1  0
  4 14  1  0
 14 15  2  0
 15  2  1  0
 12  7  1  0
M  END
>  <Compound_ID>  (93) 
C42583709

>  <Active>  (93) 
0

>  <Smiles>  (93) 
Cn1cc(CSc2nnc(N)n2C)cn1

>  <canonical_smi>  (93) 
Cn1cc(CSc2nnc(N)n2C)cn1

>  <Set>  (93) 
G2 inactive

>  <Set_type>  (93) 
Train

>  <MW>  (93) 
224.29

>  <HBD>  (93) 
1

>  <HBA>  (93) 
5

>  <NRB>  (93) 
3

>  <NR>  (93) 
2

>  <NAR>  (93) 
2

>  <PSA>  (93) 
74.55

>  <Standard Type>  (93) 
nan

>  <Standard Relation>  (93) 
nan

>  <Standard Units>  (93) 
nan

>  <Standard Value>  (93) 
nan

>  <Assay ChEMBL ID>  (93) 
nan

>  <Assay Description>  (93) 
nan

>  <BAO Label>  (93) 
nan

$$$$

     RDKit          2D

 22 24  0  0  0  0  0  0  0  0999 V2000
   -2.1848   10.9280    0.0000 C   0  0  0  0  0  0  0  0  0  0  0  0
   -3.1885    9.8132    0.0000 S   0  0  0  0  0  0  0  0  0  0  0  0
   -2.7250    8.3867    0.0000 C   0  0  0  0  0  0  0  0  0  0  0  0
   -1.2578    8.0748    0.0000 C   0  0  0  0  0  0  0  0  0  0  0  0
   -0.7942    6.6482    0.0000 C   0  0  0  0  0  0  0  0  0  0  0  0
   -1.7979    5.5335    0.0000 C   0  0  0  0  0  0  0  0  0  0  0  0
   -1.3344    4.1069    0.0000 C   0  0  0  0  0  0  0  0  0  0  0  0
    0.1520    3.9056    0.0000 C   0  0  0  0  0  0  0  0  0  0  0  0
    0.9214    2.6179    0.0000 C   0  0  0  0  0  0  0  0  0  0  0  0
    2.4153    2.7523    0.0000 O   0  0  0  0  0  0  0  0  0  0  0  0
    0.3943    1.2135    0.0000 C   0  0  0  0  0  0  0  0  0  0  0  0
    1.2760    0.0000    0.0000 C   0  0  0  0  0  0  0  0  0  0  0  0
    2.7760    0.0000    0.0000 C   0  0  0  0  0  0  0  0  0  0  0  0
    0.3943   -1.2135    0.0000 O   0  0  0  0  0  0  0  0  0  0  0  0
   -1.0323   -0.7500    0.0000 C   0  0  0  0  0  0  0  0  0  0  0  0
   -2.2458   -1.6317    0.0000 C   0  0  0  0  0  0  0  0  0  0  0  0
   -1.0323    0.7500    0.0000 C   0  0  0  0  0  0  0  0  0  0  0  0
   -2.2841    1.5763    0.0000 C   0  0  0  0  0  0  0  0  0  0  0  0
   -3.5718    0.8070    0.0000 O   0  0  0  0  0  0  0  0  0  0  0  0
   -2.4186    3.0703    0.0000 C   0  0  0  0  0  0  0  0  0  0  0  0
   -3.2652    5.8454    0.0000 C   0  0  0  0  0  0  0  0  0  0  0  0
   -3.7287    7.2719    0.0000 C   0  0  0  0  0  0  0  0  0  0  0  0
  1  2  1  0
  2  3  1  0
  3  4  2  0
  4  5  1  0
  5  6  2  0
  6  7  1  0
  7  8  1  0
  8  9  2  0
  9 10  1  0
  9 11  1  0
 11 12  2  0
 12 13  1  0
 12 14  1  0
 14 15  1  0
 15 16  1  0
 15 17  2  0
 17 18  1  0
 18 19  2  0
 18 20  1  0
  6 21  1  0
 21 22  2  0
 22  3  1  0
 20  7  2  0
 17 11  1  0
M  END
>  <Compound_ID>  (94) 
C00285893

>  <Active>  (94) 
0

>  <Smiles>  (94) 
CSc1ccc(-c2cc(O)c3c(C)oc(C)c3c(=O)c2)cc1

>  <canonical_smi>  (94) 
CSc1ccc(-c2cc(O)c3c(C)oc(C)c3c(=O)c2)cc1

>  <Set>  (94) 
G2 inactive

>  <Set_type>  (94) 
Train

>  <MW>  (94) 
312.39

>  <HBD>  (94) 
1

>  <HBA>  (94) 
4

>  <NRB>  (94) 
2

>  <NR>  (94) 
3

>  <NAR>  (94) 
3

>  <PSA>  (94) 
50.44

>  <Standard Type>  (94) 
nan

>  <Standard Relation>  (94) 
nan

>  <Standard Units>  (94) 
nan

>  <Standard Value>  (94) 
nan

>  <Assay ChEMBL ID>  (94) 
nan

>  <Assay Description>  (94) 
nan

>  <BAO Label>  (94) 
nan

$$$$

     RDKit          2D

 14 14  0  0  0  0  0  0  0  0999 V2000
    6.0000   -2.5981    0.0000 C   0  0  0  0  0  0  0  0  0  0  0  0
    5.2500   -1.2990    0.0000 O   0  0  0  0  0  0  0  0  0  0  0  0
    3.7500   -1.2990    0.0000 C   0  0  0  0  0  0  0  0  0  0  0  0
    3.0000   -2.5981    0.0000 O   0  0  0  0  0  0  0  0  0  0  0  0
    3.0000    0.0000    0.0000 N   0  0  0  0  0  0  0  0  0  0  0  0
    1.5000    0.0000    0.0000 C   0  0  0  0  0  0  0  0  0  0  0  0
    0.7500   -1.2990    0.0000 C   0  0  0  0  0  0  0  0  0  0  0  0
   -0.7500   -1.2990    0.0000 C   0  0  0  0  0  0  0  0  0  0  0  0
   -1.5000   -2.5981    0.0000 C   0  0  0  0  0  0  0  0  0  0  0  0
   -1.5000    0.0000    0.0000 C   0  0  0  0  0  0  0  0  0  0  0  0
   -3.0000    0.0000    0.0000 C   0  0  0  0  0  0  0  0  0  0  0  0
   -0.7500    1.2990    0.0000 C   0  0  0  0  0  0  0  0  0  0  0  0
    0.7500    1.2990    0.0000 C   0  0  0  0  0  0  0  0  0  0  0  0
    1.5000    2.5981    0.0000 I   0  0  0  0  0  0  0  0  0  0  0  0
  1  2  1  0
  2  3  1  0
  3  4  2  0
  3  5  1  0
  6  5  1  6
  6  7  1  0
  7  8  1  0
  8  9  1  0
  8 10  2  0
 10 11  1  0
 10 12  1  0
 12 13  1  0
 13 14  1  6
 13  6  1  0
M  END
>  <Compound_ID>  (95) 
C04973080

>  <Active>  (95) 
0

>  <Smiles>  (95) 
COC(=O)N[C@@H]1CC(C)=C(C)C[C@@H]1I

>  <canonical_smi>  (95) 
COC(=O)N[C@@H]1CC(C)=C(C)C[C@@H]1I

>  <Set>  (95) 
G2 inactive

>  <Set_type>  (95) 
Train

>  <MW>  (95) 
309.15

>  <HBD>  (95) 
1

>  <HBA>  (95) 
2

>  <NRB>  (95) 
1

>  <NR>  (95) 
1

>  <NAR>  (95) 
0

>  <PSA>  (95) 
38.33

>  <Standard Type>  (95) 
nan

>  <Standard Relation>  (95) 
nan

>  <Standard Units>  (95) 
nan

>  <Standard Value>  (95) 
nan

>  <Assay ChEMBL ID>  (95) 
nan

>  <Assay Description>  (95) 
nan

>  <BAO Label>  (95) 
nan

$$$$

     RDKit          2D

 24 27  0  0  0  0  0  0  0  0999 V2000
   -7.3826    7.6088    0.0000 C   0  0  0  0  0  0  0  0  0  0  0  0
   -6.6784    6.2844    0.0000 O   0  0  0  0  0  0  0  0  0  0  0  0
   -5.1793    6.2320    0.0000 C   0  0  0  0  0  0  0  0  0  0  0  0
   -5.3880    7.7174    0.0000 O   0  0  0  0  0  0  0  0  0  0  0  0
   -4.2060    8.6409    0.0000 C   0  0  0  0  0  0  0  0  0  0  0  0
   -3.7527    6.6955    0.0000 C   0  0  0  0  0  0  0  0  0  0  0  0
   -2.6380    5.6918    0.0000 C   0  0  0  0  0  0  0  0  0  0  0  0
   -2.9499    4.2246    0.0000 C   0  0  0  0  0  0  0  0  0  0  0  0
   -1.5233    4.6881    0.0000 C   0  0  0  0  0  0  0  0  0  0  0  0
   -4.3764    3.7611    0.0000 C   0  0  0  0  0  0  0  0  0  0  0  0
   -4.6883    2.2939    0.0000 C   0  0  0  0  0  0  0  0  0  0  0  0
   -3.5736    1.2902    0.0000 C   0  0  0  0  0  0  0  0  0  0  0  0
   -2.1470    1.7537    0.0000 C   0  0  0  0  0  0  0  0  0  0  0  0
   -1.8351    3.2209    0.0000 C   0  0  0  0  0  0  0  0  0  0  0  0
   -0.4086    3.6844    0.0000 C   0  0  0  0  0  0  0  0  0  0  0  0
    0.7062    2.6807    0.0000 C   0  0  0  0  0  0  0  0  0  0  0  0
    0.3943    1.2135    0.0000 C   0  0  0  0  0  0  0  0  0  0  0  0
    1.8615    1.5254    0.0000 C   0  0  0  0  0  0  0  0  0  0  0  0
    1.2760    0.0000    0.0000 C   0  0  0  0  0  0  0  0  0  0  0  0
    0.3943   -1.2135    0.0000 C   0  0  0  0  0  0  0  0  0  0  0  0
   -1.0323   -0.7500    0.0000 C   0  0  0  0  0  0  0  0  0  0  0  0
   -1.0323    0.7500    0.0000 C   0  0  0  0  0  0  0  0  0  0  0  0
   -2.4026    0.1399    0.0000 O   0  0  0  0  0  0  0  0  0  0  0  0
   -5.4912    4.7648    0.0000 C   0  0  0  0  0  0  0  0  0  0  0  0
  1  2  1  0
  2  3  1  0
  3  4  1  0
  4  5  1  0
  3  6  1  0
  6  7  1  0
  7  8  1  0
  8  9  1  6
  8 10  1  0
 10 11  1  1
 11 12  1  0
 13 12  1  6
 13 14  1  0
 14 15  1  1
 15 16  1  0
 16 17  1  0
 17 18  1  6
 17 19  1  0
 19 20  1  0
 20 21  1  0
 21 22  1  0
 22 23  1  6
 10 24  1  0
 24  3  1  0
 14  8  1  0
 22 17  1  0
 22 13  1  0
M  END
>  <Compound_ID>  (96) 
C13401063

>  <Active>  (96) 
0

>  <Smiles>  (96) 
COC1(OC)CC[C@]2(C)[C@@H](CC[C@@H]3[C@@H]2CC[C@@]2(C)CCC[C@@]32O)C1

>  <canonical_smi>  (96) 
COC1(OC)CC[C@]2(C)[C@@H](CC[C@@H]3[C@@H]2CC[C@@]2(C)CCC[C@@]32O)C1

>  <Set>  (96) 
G2 inactive

>  <Set_type>  (96) 
Train

>  <MW>  (96) 
336.52

>  <HBD>  (96) 
1

>  <HBA>  (96) 
3

>  <NRB>  (96) 
2

>  <NR>  (96) 
4

>  <NAR>  (96) 
0

>  <PSA>  (96) 
38.69

>  <Standard Type>  (96) 
nan

>  <Standard Relation>  (96) 
nan

>  <Standard Units>  (96) 
nan

>  <Standard Value>  (96) 
nan

>  <Assay ChEMBL ID>  (96) 
nan

>  <Assay Description>  (96) 
nan

>  <BAO Label>  (96) 
nan

$$$$

     RDKit          2D

 17 18  0  0  0  0  0  0  0  0999 V2000
    3.0000   -1.5000    0.0000 C   0  0  0  0  0  0  0  0  0  0  0  0
    3.0000    0.0000    0.0000 C   0  0  0  0  0  0  0  0  0  0  0  0
    3.0000    1.5000    0.0000 C   0  0  0  0  0  0  0  0  0  0  0  0
    4.5000    0.0000    0.0000 C   0  0  0  0  0  0  0  0  0  0  0  0
    1.5000    0.0000    0.0000 C   0  0  0  0  0  0  0  0  0  0  0  0
    0.7500   -1.2990    0.0000 C   0  0  0  0  0  0  0  0  0  0  0  0
   -0.7500   -1.2990    0.0000 C   0  0  0  0  0  0  0  0  0  0  0  0
   -1.5000   -2.5981    0.0000 O   0  0  0  0  0  0  0  0  0  0  0  0
   -1.5000    0.0000    0.0000 N   0  0  0  0  0  0  0  0  0  0  0  0
   -0.7500    1.2990    0.0000 C   0  0  0  0  0  0  0  0  0  0  0  0
   -1.5000    2.5981    0.0000 C   0  0  0  0  0  0  0  0  0  0  0  0
   -2.9918    2.7549    0.0000 C   0  0  0  0  0  0  0  0  0  0  0  0
   -3.3037    4.2221    0.0000 C   0  0  0  0  0  0  0  0  0  0  0  0
   -4.6740    4.8322    0.0000 Br  0  0  0  0  0  0  0  0  0  0  0  0
   -2.0046    4.9721    0.0000 C   0  0  0  0  0  0  0  0  0  0  0  0
   -0.8899    3.9684    0.0000 S   0  0  0  0  0  0  0  0  0  0  0  0
    0.7500    1.2990    0.0000 N   0  0  0  0  0  0  0  0  0  0  0  0
  1  2  1  0
  2  3  1  0
  2  4  1  0
  2  5  1  0
  5  6  2  0
  6  7  1  0
  7  8  2  0
  7  9  1  0
  9 10  1  0
 10 11  1  0
 11 12  2  0
 12 13  1  0
 13 14  1  0
 13 15  2  0
 15 16  1  0
 10 17  2  0
 17  5  1  0
 16 11  1  0
M  END
>  <Compound_ID>  (97) 
C36755591

>  <Active>  (97) 
0

>  <Smiles>  (97) 
CC(C)(C)c1cc(=O)[nH]c(-c2cc(Br)cs2)n1

>  <canonical_smi>  (97) 
CC(C)(C)c1cc(=O)[nH]c(-c2cc(Br)cs2)n1

>  <Set>  (97) 
G2 inactive

>  <Set_type>  (97) 
Train

>  <MW>  (97) 
313.22

>  <HBD>  (97) 
1

>  <HBA>  (97) 
2

>  <NRB>  (97) 
1

>  <NR>  (97) 
2

>  <NAR>  (97) 
2

>  <PSA>  (97) 
45.75

>  <Standard Type>  (97) 
nan

>  <Standard Relation>  (97) 
nan

>  <Standard Units>  (97) 
nan

>  <Standard Value>  (97) 
nan

>  <Assay ChEMBL ID>  (97) 
nan

>  <Assay Description>  (97) 
nan

>  <BAO Label>  (97) 
nan

$$$$

     RDKit          2D

 20 22  0  0  0  0  0  0  0  0999 V2000
    2.6004    0.7041    0.0000 C   0  0  0  0  0  0  0  0  0  0  0  0
    1.2760    0.0000    0.0000 C   0  0  0  0  0  0  0  0  0  0  0  0
    2.6004   -0.7041    0.0000 C   0  0  0  0  0  0  0  0  0  0  0  0
    0.3943    1.2135    0.0000 C   0  0  0  0  0  0  0  0  0  0  0  0
   -1.0323    0.7500    0.0000 C   0  0  0  0  0  0  0  0  0  0  0  0
   -1.0323   -0.7500    0.0000 C   0  0  0  0  0  0  0  0  0  0  0  0
    0.3943   -1.2135    0.0000 C   0  0  0  0  0  0  0  0  0  0  0  0
    0.8578   -2.6401    0.0000 C   0  0  0  0  0  0  0  0  0  0  0  0
    1.8209   -0.7500    0.0000 C   0  0  0  0  0  0  0  0  0  0  0  0
    3.0344   -1.6317    0.0000 N   0  0  0  0  0  0  0  0  0  0  0  0
    4.4047   -1.0216    0.0000 N   0  0  0  0  0  0  0  0  0  0  0  0
    5.6183   -1.9033    0.0000 C   0  0  0  0  0  0  0  0  0  0  0  0
    5.4615   -3.3950    0.0000 O   0  0  0  0  0  0  0  0  0  0  0  0
    6.9886   -1.2931    0.0000 C   0  0  0  0  0  0  0  0  0  0  0  0
    7.3004    0.1741    0.0000 C   0  0  0  0  0  0  0  0  0  0  0  0
    8.7922    0.3309    0.0000 C   0  0  0  0  0  0  0  0  0  0  0  0
    9.4023   -1.0394    0.0000 C   0  0  0  0  0  0  0  0  0  0  0  0
   10.8695   -1.3513    0.0000 Cl  0  0  0  0  0  0  0  0  0  0  0  0
    8.2876   -2.0431    0.0000 S   0  0  0  0  0  0  0  0  0  0  0  0
    1.8209    0.7500    0.0000 C   0  0  0  0  0  0  0  0  0  0  0  0
  1  2  1  0
  2  3  1  0
  2  4  1  0
  4  5  1  6
  5  6  1  0
  6  7  1  0
  7  8  1  1
  7  9  1  0
  9 10  2  0
 10 11  1  0
 11 12  1  0
 12 13  2  0
 12 14  1  0
 14 15  2  0
 15 16  1  0
 16 17  2  0
 17 18  1  0
 17 19  1  0
  9 20  1  0
  7  2  1  0
 19 14  1  0
 20  4  1  0
M  END
>  <Compound_ID>  (98) 
C38646330

>  <Active>  (98) 
0

>  <Smiles>  (98) 
CC1(C)[C@@H]2CC[C@@]1(C)/C(=N/NC(=O)c1ccc(Cl)s1)C2

>  <canonical_smi>  (98) 
CC1(C)[C@@H]2CC[C@@]1(C)/C(=N/NC(=O)c1ccc(Cl)s1)C2

>  <Set>  (98) 
G2 inactive

>  <Set_type>  (98) 
Train

>  <MW>  (98) 
310.85

>  <HBD>  (98) 
1

>  <HBA>  (98) 
1

>  <NRB>  (98) 
2

>  <NR>  (98) 
3

>  <NAR>  (98) 
1

>  <PSA>  (98) 
41.46

>  <Standard Type>  (98) 
nan

>  <Standard Relation>  (98) 
nan

>  <Standard Units>  (98) 
nan

>  <Standard Value>  (98) 
nan

>  <Assay ChEMBL ID>  (98) 
nan

>  <Assay Description>  (98) 
nan

>  <BAO Label>  (98) 
nan

$$$$

     RDKit          2D

 24 28  0  0  0  0  0  0  0  0999 V2000
    2.6401   -3.1891    0.0000 C   0  0  0  0  0  0  0  0  0  0  0  0
    1.2135   -2.7256    0.0000 N   0  0  0  0  0  0  0  0  0  0  0  0
    0.7500   -1.2990    0.0000 C   0  0  0  0  0  0  0  0  0  0  0  0
    1.5000    0.0000    0.0000 C   0  0  0  0  0  0  0  0  0  0  0  0
    0.7500    1.2990    0.0000 C   0  0  0  0  0  0  0  0  0  0  0  0
   -0.7500    1.2990    0.0000 C   0  0  0  0  0  0  0  0  0  0  0  0
   -1.5000    0.0000    0.0000 C   0  0  0  0  0  0  0  0  0  0  0  0
   -0.7500   -1.2990    0.0000 C   0  0  0  0  0  0  0  0  0  0  0  0
   -1.2135   -2.7256    0.0000 N   0  0  0  0  0  0  0  0  0  0  0  0
   -2.4271   -3.6073    0.0000 C   0  0  0  0  0  0  0  0  0  0  0  0
   -3.8536   -3.1438    0.0000 S   0  0  0  0  0  0  0  0  0  0  0  0
   -4.1655   -1.6766    0.0000 C   0  0  0  0  0  0  0  0  0  0  0  0
   -5.5921   -1.2130    0.0000 C   0  0  0  0  0  0  0  0  0  0  0  0
   -6.0556    0.2136    0.0000 N   0  0  0  0  0  0  0  0  0  0  0  0
   -7.5556    0.2136    0.0000 C   0  0  0  0  0  0  0  0  0  0  0  0
   -8.5593    1.3283    0.0000 C   0  0  0  0  0  0  0  0  0  0  0  0
  -10.0265    1.0164    0.0000 C   0  0  0  0  0  0  0  0  0  0  0  0
  -10.4901   -0.4102    0.0000 C   0  0  0  0  0  0  0  0  0  0  0  0
   -9.4864   -1.5249    0.0000 C   0  0  0  0  0  0  0  0  0  0  0  0
   -8.0191   -1.2130    0.0000 C   0  0  0  0  0  0  0  0  0  0  0  0
   -6.8056   -2.0947    0.0000 N   0  0  0  0  0  0  0  0  0  0  0  0
   -1.9635   -5.0339    0.0000 N   0  0  0  0  0  0  0  0  0  0  0  0
   -0.4635   -5.0339    0.0000 N   0  0  0  0  0  0  0  0  0  0  0  0
   -0.0000   -3.6073    0.0000 C   0  0  0  0  0  0  0  0  0  0  0  0
  1  2  1  0
  2  3  1  0
  3  4  2  0
  4  5  1  0
  5  6  2  0
  6  7  1  0
  7  8  2  0
  8  9  1  0
  9 10  1  0
 10 11  1  6
 11 12  1  0
 12 13  1  0
 13 14  2  0
 14 15  1  0
 15 16  2  0
 16 17  1  0
 17 18  2  0
 18 19  1  0
 19 20  2  0
 20 21  1  0
 10 22  1  0
 22 23  1  0
 24 23  1  1
 24  2  1  0
  8  3  1  0
 24  9  1  0
 21 13  1  0
 20 15  1  0
M  END
>  <Compound_ID>  (99) 
C39311437

>  <Active>  (99) 
0

>  <Smiles>  (99) 
CN1c2ccccc2N2[C@@H](SCc3nc4ccccc4[nH]3)NN[C@H]12

>  <canonical_smi>  (99) 
CN1c2ccccc2N2[C@@H](SCc3nc4ccccc4[nH]3)NN[C@H]12

>  <Set>  (99) 
G2 inactive

>  <Set_type>  (99) 
Train

>  <MW>  (99) 
338.44

>  <HBD>  (99) 
3

>  <HBA>  (99) 
6

>  <NRB>  (99) 
3

>  <NR>  (99) 
5

>  <NAR>  (99) 
3

>  <PSA>  (99) 
59.22

>  <Standard Type>  (99) 
nan

>  <Standard Relation>  (99) 
nan

>  <Standard Units>  (99) 
nan

>  <Standard Value>  (99) 
nan

>  <Assay ChEMBL ID>  (99) 
nan

>  <Assay Description>  (99) 
nan

>  <BAO Label>  (99) 
nan

$$$$

     RDKit          2D

 21 22  0  0  0  0  0  0  0  0999 V2000
    3.7500   -1.2990    0.0000 C   0  0  0  0  0  0  0  0  0  0  0  0
    3.0000    0.0000    0.0000 C   0  0  0  0  0  0  0  0  0  0  0  0
    3.7500    1.2990    0.0000 C   0  0  0  0  0  0  0  0  0  0  0  0
    1.5000    0.0000    0.0000 C   0  0  0  0  0  0  0  0  0  0  0  0
    0.7500   -1.2990    0.0000 C   0  0  0  0  0  0  0  0  0  0  0  0
   -0.7500   -1.2990    0.0000 C   0  0  0  0  0  0  0  0  0  0  0  0
   -1.5000   -2.5981    0.0000 N   0  0  0  0  0  0  0  0  0  0  0  0
   -3.0000   -2.5981    0.0000 C   0  0  0  0  0  0  0  0  0  0  0  0
   -0.7500   -3.8971    0.0000 C   0  0  0  0  0  0  0  0  0  0  0  0
   -1.5000   -5.1962    0.0000 C   0  0  0  0  0  0  0  0  0  0  0  0
   -0.7500   -6.4952    0.0000 C   0  0  0  0  0  0  0  0  0  0  0  0
    0.7500   -6.4952    0.0000 C   0  0  0  0  0  0  0  0  0  0  0  0
    1.5000   -7.7942    0.0000 C   0  0  0  0  0  0  0  0  0  0  0  0
    3.0000   -7.7942    0.0000 N   0  0  0  0  0  0  0  0  0  0  0  0
    0.7500   -9.0933    0.0000 N   0  0  0  0  0  0  0  0  0  0  0  0
    1.5000  -10.3923    0.0000 O   0  0  0  0  0  0  0  0  0  0  0  0
    1.5000   -5.1962    0.0000 C   0  0  0  0  0  0  0  0  0  0  0  0
    0.7500   -3.8971    0.0000 C   0  0  0  0  0  0  0  0  0  0  0  0
   -1.5000    0.0000    0.0000 N   0  0  0  0  0  0  0  0  0  0  0  0
   -0.7500    1.2990    0.0000 C   0  0  0  0  0  0  0  0  0  0  0  0
    0.7500    1.2990    0.0000 N   0  0  0  0  0  0  0  0  0  0  0  0
  1  2  1  0
  2  3  1  0
  2  4  1  0
  4  5  2  0
  5  6  1  0
  6  7  1  0
  7  8  1  0
  7  9  1  0
  9 10  2  0
 10 11  1  0
 11 12  2  0
 12 13  1  0
 13 14  1  0
 13 15  2  0
 15 16  1  0
 12 17  1  0
 17 18  2  0
  6 19  2  0
 19 20  1  0
 20 21  2  0
 21  4  1  0
 18  9  1  0
M  END
>  <Compound_ID>  (100) 
C61950992

>  <Active>  (100) 
0

>  <Smiles>  (100) 
CC(C)c1cc(N(C)c2ccc(/C(N)=N/O)cc2)ncn1

>  <canonical_smi>  (100) 
CC(C)c1cc(N(C)c2ccc(/C(N)=N/O)cc2)ncn1

>  <Set>  (100) 
G2 inactive

>  <Set_type>  (100) 
Train

>  <MW>  (100) 
285.35

>  <HBD>  (100) 
2

>  <HBA>  (100) 
5

>  <NRB>  (100) 
4

>  <NR>  (100) 
2

>  <NAR>  (100) 
2

>  <PSA>  (100) 
87.63

>  <Standard Type>  (100) 
nan

>  <Standard Relation>  (100) 
nan

>  <Standard Units>  (100) 
nan

>  <Standard Value>  (100) 
nan

>  <Assay ChEMBL ID>  (100) 
nan

>  <Assay Description>  (100) 
nan

>  <BAO Label>  (100) 
nan

$$$$

     RDKit          2D

 30 35  0  0  0  0  0  0  0  0999 V2000
    2.7760    3.9271    0.0000 O   0  0  0  0  0  0  0  0  0  0  0  0
    1.2760    3.9271    0.0000 C   0  0  0  0  0  0  0  0  0  0  0  0
    0.3943    2.7135    0.0000 C   0  0  0  0  0  0  0  0  0  0  0  0
    0.3943    1.2135    0.0000 C   0  0  0  0  0  0  0  0  0  0  0  0
    1.2760    0.0000    0.0000 C   0  0  0  0  0  0  0  0  0  0  0  0
    0.3943   -1.2135    0.0000 C   0  0  0  0  0  0  0  0  0  0  0  0
   -1.0323   -0.7500    0.0000 C   0  0  0  0  0  0  0  0  0  0  0  0
   -1.0323    0.7500    0.0000 N   0  0  0  0  0  4  0  0  0  0  0  0
   -1.9140    1.9635    0.0000 C   0  0  0  0  0  0  0  0  0  0  0  0
   -2.7956    0.7500    0.0000 C   0  0  0  0  0  0  0  0  0  0  0  0
   -2.3321   -0.6766    0.0000 O   0  0  0  0  0  0  0  0  0  0  0  0
   -4.2222    1.2135    0.0000 N   0  0  0  0  0  0  0  0  0  0  0  0
   -4.2222    2.7135    0.0000 C   0  0  0  0  0  0  0  0  0  0  0  0
   -5.3369    3.7172    0.0000 C   0  0  0  0  0  0  0  0  0  0  0  0
   -5.0251    5.1844    0.0000 C   0  0  0  0  0  0  0  0  0  0  0  0
   -3.5985    5.6480    0.0000 C   0  0  0  0  0  0  0  0  0  0  0  0
   -3.2866    7.1152    0.0000 F   0  0  0  0  0  0  0  0  0  0  0  0
   -2.4838    4.6443    0.0000 C   0  0  0  0  0  0  0  0  0  0  0  0
   -2.7956    3.1771    0.0000 C   0  0  0  0  0  0  0  0  0  0  0  0
   -1.0323    3.1771    0.0000 C   0  0  0  0  0  0  0  0  0  0  0  0
   -1.0323    4.6771    0.0000 C   0  0  0  0  0  0  0  0  0  0  0  0
   -2.2458    5.5587    0.0000 O   0  0  0  0  0  0  0  0  0  0  0  0
    0.3943    5.1406    0.0000 N   0  0  0  0  0  0  0  0  0  0  0  0
    0.8578    6.5672    0.0000 C   0  0  0  0  0  0  0  0  0  0  0  0
    2.3250    6.8790    0.0000 C   0  0  0  0  0  0  0  0  0  0  0  0
    2.7886    8.3056    0.0000 C   0  0  0  0  0  0  0  0  0  0  0  0
    1.7849    9.4203    0.0000 C   0  0  0  0  0  0  0  0  0  0  0  0
    2.2484   10.8469    0.0000 Cl  0  0  0  0  0  0  0  0  0  0  0  0
    0.3177    9.1085    0.0000 C   0  0  0  0  0  0  0  0  0  0  0  0
   -0.1459    7.6819    0.0000 C   0  0  0  0  0  0  0  0  0  0  0  0
  1  2  2  0
  3  2  1  6
  3  4  1  0
  4  5  1  6
  5  6  1  0
  6  7  1  0
  7  8  1  0
  9  8  1  1
  9 10  1  0
 10 11  2  0
 10 12  1  0
 12 13  1  0
 13 14  2  0
 14 15  1  0
 15 16  2  0
 16 17  1  0
 16 18  1  0
 18 19  2  0
  9 20  1  0
 20 21  1  1
 21 22  2  0
 21 23  1  0
 23 24  1  0
 24 25  2  0
 25 26  1  0
 26 27  2  0
 27 28  1  0
 27 29  1  0
 29 30  2  0
 23  2  1  0
 30 24  1  0
 20  3  1  0
  8  4  1  0
 19  9  1  0
 19 13  1  0
M  CHG  1   8   1
M  END
>  <Compound_ID>  (101) 
C14944988

>  <Active>  (101) 
0

>  <Smiles>  (101) 
O=C1[C@@H]2[C@@H]3CCC[NH+]3[C@]3(C(=O)Nc4ccc(F)cc43)[C@H]2C(=O)N1c1ccc(Cl)cc1

>  <canonical_smi>  (101) 
O=C1[C@@H]2[C@@H]3CCC[NH+]3[C@]3(C(=O)Nc4ccc(F)cc43)[C@H]2C(=O)N1c1ccc(Cl)cc1

>  <Set>  (101) 
G2 inactive

>  <Set_type>  (101) 
Train

>  <MW>  (101) 
426.86

>  <HBD>  (101) 
2

>  <HBA>  (101) 
3

>  <NRB>  (101) 
1

>  <NR>  (101) 
6

>  <NAR>  (101) 
2

>  <PSA>  (101) 
70.92

>  <Standard Type>  (101) 
nan

>  <Standard Relation>  (101) 
nan

>  <Standard Units>  (101) 
nan

>  <Standard Value>  (101) 
nan

>  <Assay ChEMBL ID>  (101) 
nan

>  <Assay Description>  (101) 
nan

>  <BAO Label>  (101) 
nan

$$$$

     RDKit          2D

 35 41  0  0  0  0  0  0  0  0999 V2000
    0.3443   11.5830    0.0000 C   0  0  0  0  0  0  0  0  0  0  0  0
    1.7638   11.0982    0.0000 C   0  0  0  0  0  0  0  0  0  0  0  0
    2.9904   11.9616    0.0000 C   0  0  0  0  0  0  0  0  0  0  0  0
    4.1906   11.0619    0.0000 C   0  0  0  0  0  0  0  0  0  0  0  0
    3.7058    9.6424    0.0000 N   0  0  0  0  0  4  0  0  0  0  0  0
    4.4362    8.3323    0.0000 C   0  0  0  0  0  0  0  0  0  0  0  0
    3.6669    7.0446    0.0000 C   0  0  0  0  0  0  0  0  0  0  0  0
    4.1090    5.6112    0.0000 C   0  0  0  0  0  0  0  0  0  0  0  0
    2.8825    4.7478    0.0000 C   0  0  0  0  0  0  0  0  0  0  0  0
    4.0827    3.8481    0.0000 C   0  0  0  0  0  0  0  0  0  0  0  0
    5.5160    4.2902    0.0000 O   0  0  0  0  0  0  0  0  0  0  0  0
    3.5978    2.4286    0.0000 N   0  0  0  0  0  0  0  0  0  0  0  0
    2.0980    2.4510    0.0000 C   0  0  0  0  0  0  0  0  0  0  0  0
    1.6559    3.8844    0.0000 C   0  0  0  0  0  0  0  0  0  0  0  0
    0.1935    4.2182    0.0000 C   0  0  0  0  0  0  0  0  0  0  0  0
   -0.8268    3.1186    0.0000 C   0  0  0  0  0  0  0  0  0  0  0  0
   -0.3846    1.6852    0.0000 C   0  0  0  0  0  0  0  0  0  0  0  0
    1.0777    1.3515    0.0000 C   0  0  0  0  0  0  0  0  0  0  0  0
    1.7286    0.0000    0.0000 O   0  0  0  0  0  0  0  0  0  0  0  0
    1.0777   -1.3515    0.0000 C   0  0  0  0  0  0  0  0  0  0  0  0
   -0.3846   -1.6852    0.0000 C   0  0  0  0  0  0  0  0  0  0  0  0
   -1.5574   -0.7500    0.0000 C   0  0  0  0  0  0  0  0  0  0  0  0
   -2.2082   -2.1015    0.0000 C   0  0  0  0  0  0  0  0  0  0  0  0
   -3.0198   -0.4162    0.0000 C   0  0  0  0  0  0  0  0  0  0  0  0
   -1.5574    0.7500    0.0000 O   0  0  0  0  0  0  0  0  0  0  0  0
    1.6823    5.6475    0.0000 C   0  0  0  0  0  0  0  0  0  0  0  0
    0.9129    4.3599    0.0000 C   0  0  0  0  0  0  0  0  0  0  0  0
    0.3212    6.2781    0.0000 C   0  0  0  0  0  0  0  0  0  0  0  0
    2.1671    7.0670    0.0000 C   0  0  0  0  0  0  0  0  0  0  0  0
    1.4366    8.3772    0.0000 C   0  0  0  0  0  0  0  0  0  0  0  0
    2.2059    9.6648    0.0000 C   0  0  0  0  0  0  0  0  0  0  0  0
    2.6502    8.9716    0.0000 C   0  0  0  0  0  0  0  0  0  0  0  0
    3.2472    9.4613    0.0000 O   0  0  0  0  0  0  0  0  0  0  0  0
    3.3107    7.7870    0.0000 N   0  0  0  0  0  0  0  0  0  0  0  0
    5.9361    8.3098    0.0000 C   0  0  0  0  0  0  0  0  0  0  0  0
  2  1  1  1
  2  3  1  0
  3  4  1  0
  4  5  1  0
  5  6  1  0
  6  7  1  0
  7  8  1  1
  9  8  1  6
  9 10  1  0
 10 11  2  0
 10 12  1  0
 12 13  1  0
 13 14  2  0
 14 15  1  0
 15 16  2  0
 16 17  1  0
 17 18  2  0
 18 19  1  0
 19 20  1  0
 20 21  2  0
 21 22  1  0
 22 23  1  0
 22 24  1  0
 22 25  1  0
  9 26  1  0
 26 27  1  0
 26 28  1  0
 29 26  1  6
 29 30  1  0
 31 30  1  6
 31 32  1  0
 32 33  2  0
 32 34  1  0
 34 35  1  0
 31  2  1  0
 31  5  1  0
 29  7  1  0
 34  7  1  0
 14  9  1  0
 25 17  1  0
 18 13  1  0
M  CHG  1   5   1
M  END
>  <Compound_ID>  (102) 
C00603253

>  <Active>  (102) 
0

>  <Smiles>  (102) 
C[C@H]1CC[NH+]2C[C@]34C[C@@]5(C(=O)Nc6c5ccc5c6OC=CC(C)(C)O5)C(C)(C)[C@@H]3C[C@]12C(=O)N4C

>  <canonical_smi>  (102) 
C[C@H]1CC[NH+]2C[C@]34C[C@@]5(C(=O)Nc6c5ccc5c6OC=CC(C)(C)O5)C(C)(C)[C@@H]3C[C@]12C(=O)N4C

>  <Set>  (102) 
G2 inactive

>  <Set_type>  (102) 
Train

>  <MW>  (102) 
478.61

>  <HBD>  (102) 
2

>  <HBA>  (102) 
4

>  <NRB>  (102) 
0

>  <NR>  (102) 
8

>  <NAR>  (102) 
1

>  <PSA>  (102) 
72.31

>  <Standard Type>  (102) 
nan

>  <Standard Relation>  (102) 
nan

>  <Standard Units>  (102) 
nan

>  <Standard Value>  (102) 
nan

>  <Assay ChEMBL ID>  (102) 
nan

>  <Assay Description>  (102) 
nan

>  <BAO Label>  (102) 
nan

$$$$

     RDKit          2D

 32 37  0  0  0  0  0  0  0  0999 V2000
    3.7548   -2.1855    0.0000 O   0  0  0  0  0  0  0  0  0  0  0  0
    2.6401   -3.1891    0.0000 C   0  0  0  0  0  0  0  0  0  0  0  0
    1.2135   -2.7256    0.0000 C   0  0  0  0  0  0  0  0  0  0  0  0
   -0.0000   -3.6073    0.0000 N   0  0  0  0  0  0  0  0  0  0  0  0
   -1.2135   -2.7256    0.0000 N   0  0  0  0  0  0  0  0  0  0  0  0
   -0.7500   -1.2990    0.0000 C   0  0  0  0  0  0  0  0  0  0  0  0
    0.7500   -1.2990    0.0000 C   0  0  0  0  0  0  0  0  0  0  0  0
    1.5000    0.0000    0.0000 C   0  0  0  0  0  0  0  0  0  0  0  0
    0.7500    1.2990    0.0000 C   0  0  0  0  0  0  0  0  0  0  0  0
   -0.7500    1.2990    0.0000 C   0  0  0  0  0  0  0  0  0  0  0  0
   -1.5000    0.0000    0.0000 C   0  0  0  0  0  0  0  0  0  0  0  0
    2.9520   -4.6564    0.0000 N   0  0  0  0  0  0  0  0  0  0  0  0
    1.8373   -5.6601    0.0000 C   0  0  0  0  0  0  0  0  0  0  0  0
    2.1491   -7.1273    0.0000 C   0  0  0  0  0  0  0  0  0  0  0  0
    3.5757   -7.5908    0.0000 C   0  0  0  0  0  0  0  0  0  0  0  0
    3.8876   -9.0580    0.0000 N   0  0  0  0  0  0  0  0  0  0  0  0
    5.2579   -9.6681    0.0000 C   0  0  0  0  0  0  0  0  0  0  0  0
    6.6282   -9.0580    0.0000 N   0  0  0  0  0  4  0  0  0  0  0  0
    7.8417   -9.9397    0.0000 C   0  0  0  0  0  0  0  0  0  0  0  0
    7.6849  -11.4315    0.0000 C   0  0  0  0  0  0  0  0  0  0  0  0
    6.3146  -12.0416    0.0000 C   0  0  0  0  0  0  0  0  0  0  0  0
    5.1011  -11.1599    0.0000 C   0  0  0  0  0  0  0  0  0  0  0  0
    3.6339  -11.4718    0.0000 N   0  0  0  0  0  0  0  0  0  0  0  0
    2.8839  -10.1728    0.0000 C   0  0  0  0  0  0  0  0  0  0  0  0
    1.3921  -10.0160    0.0000 C   0  0  0  0  0  0  0  0  0  0  0  0
    0.5104  -11.2295    0.0000 C   0  0  0  0  0  0  0  0  0  0  0  0
    0.9739  -12.6561    0.0000 C   0  0  0  0  0  0  0  0  0  0  0  0
   -0.2396  -13.5377    0.0000 C   0  0  0  0  0  0  0  0  0  0  0  0
   -1.4531  -12.6561    0.0000 C   0  0  0  0  0  0  0  0  0  0  0  0
   -0.9896  -11.2295    0.0000 C   0  0  0  0  0  0  0  0  0  0  0  0
    4.6904   -6.5871    0.0000 C   0  0  0  0  0  0  0  0  0  0  0  0
    4.3786   -5.1199    0.0000 C   0  0  0  0  0  0  0  0  0  0  0  0
  1  2  2  0
  3  2  1  1
  3  4  1  0
  4  5  2  0
  5  6  1  0
  6  7  2  0
  7  8  1  0
  8  9  1  0
  9 10  1  0
 10 11  1  0
  2 12  1  0
 12 13  1  0
 13 14  1  0
 14 15  1  0
 15 16  1  0
 16 17  1  0
 17 18  2  0
 18 19  1  0
 19 20  2  0
 20 21  1  0
 21 22  2  0
 22 23  1  0
 23 24  1  0
 24 25  1  6
 25 26  1  0
 26 27  1  0
 27 28  1  0
 28 29  1  0
 29 30  1  0
 15 31  1  0
 31 32  1  0
  7  3  1  0
 32 12  1  0
 11  6  1  0
 24 16  1  0
 30 26  1  0
 22 17  1  0
M  CHG  1  18   1
M  END
>  <Compound_ID>  (103) 
C39353734

>  <Active>  (103) 
0

>  <Smiles>  (103) 
O=C([C@H]1N=NC2=C1CCCC2)N1CCC(N2c3[nH+]cccc3N[C@@H]2CC2CCCC2)CC1

>  <canonical_smi>  (103) 
O=C([C@H]1N=NC2=C1CCCC2)N1CCC(N2c3[nH+]cccc3N[C@@H]2CC2CCCC2)CC1

>  <Set>  (103) 
G2 inactive

>  <Set_type>  (103) 
Train

>  <MW>  (103) 
435.6

>  <HBD>  (103) 
1

>  <HBA>  (103) 
3

>  <NRB>  (103) 
4

>  <NR>  (103) 
6

>  <NAR>  (103) 
1

>  <PSA>  (103) 
74.44

>  <Standard Type>  (103) 
nan

>  <Standard Relation>  (103) 
nan

>  <Standard Units>  (103) 
nan

>  <Standard Value>  (103) 
nan

>  <Assay ChEMBL ID>  (103) 
nan

>  <Assay Description>  (103) 
nan

>  <BAO Label>  (103) 
nan

$$$$

     RDKit          2D

 33 37  0  0  0  0  0  0  0  0999 V2000
  -10.2372  -12.0015    0.0000 C   0  0  0  0  0  0  0  0  0  0  0  0
   -9.3555  -10.7879    0.0000 C   0  0  0  0  0  0  0  0  0  0  0  0
   -7.8637  -10.9447    0.0000 C   0  0  0  0  0  0  0  0  0  0  0  0
   -6.9820   -9.7312    0.0000 C   0  0  0  0  0  0  0  0  0  0  0  0
   -5.4902   -9.8880    0.0000 O   0  0  0  0  0  0  0  0  0  0  0  0
   -4.6086   -8.6745    0.0000 C   0  0  0  0  0  0  0  0  0  0  0  0
   -5.2187   -7.3041    0.0000 C   0  0  0  0  0  0  0  0  0  0  0  0
   -4.3370   -6.0906    0.0000 C   0  0  0  0  0  0  0  0  0  0  0  0
   -2.8452   -6.2474    0.0000 C   0  0  0  0  0  0  0  0  0  0  0  0
   -1.9635   -5.0339    0.0000 C   0  0  0  0  0  0  0  0  0  0  0  0
   -0.4635   -5.0339    0.0000 N   0  0  0  0  0  0  0  0  0  0  0  0
   -0.0000   -3.6073    0.0000 C   0  0  0  0  0  0  0  0  0  0  0  0
    1.2135   -2.7256    0.0000 S   0  0  0  0  0  0  0  0  0  0  0  0
    0.7500   -1.2990    0.0000 C   0  0  0  0  0  0  0  0  0  0  0  0
    1.5000    0.0000    0.0000 C   0  0  0  0  0  0  0  0  0  0  0  0
    0.7500    1.2990    0.0000 C   0  0  0  0  0  0  0  0  0  0  0  0
    1.5000    2.5981    0.0000 Cl  0  0  0  0  0  0  0  0  0  0  0  0
   -0.7500    1.2990    0.0000 C   0  0  0  0  0  0  0  0  0  0  0  0
   -1.5000    0.0000    0.0000 C   0  0  0  0  0  0  0  0  0  0  0  0
   -0.7500   -1.2990    0.0000 C   0  0  0  0  0  0  0  0  0  0  0  0
   -1.2135   -2.7256    0.0000 N   0  0  0  0  0  0  0  0  0  0  0  0
   -2.4271   -3.6073    0.0000 C   0  0  0  0  0  0  0  0  0  0  0  0
   -3.8536   -3.1438    0.0000 N   0  0  0  0  0  4  0  0  0  0  0  0
   -4.1655   -1.6766    0.0000 C   0  0  0  0  0  0  0  0  0  0  0  0
   -3.0508   -0.6729    0.0000 C   0  0  0  0  0  0  0  0  0  0  0  0
   -3.3627    0.7944    0.0000 C   0  0  0  0  0  0  0  0  0  0  0  0
   -4.7892    1.2579    0.0000 C   0  0  0  0  0  0  0  0  0  0  0  0
   -5.9040    0.2542    0.0000 C   0  0  0  0  0  0  0  0  0  0  0  0
   -7.3305    0.7177    0.0000 C   0  0  0  0  0  0  0  0  0  0  0  0
   -5.5921   -1.2130    0.0000 C   0  0  0  0  0  0  0  0  0  0  0  0
   -6.7068   -2.2167    0.0000 C   0  0  0  0  0  0  0  0  0  0  0  0
   -2.2351   -7.6177    0.0000 C   0  0  0  0  0  0  0  0  0  0  0  0
   -3.1168   -8.8313    0.0000 C   0  0  0  0  0  0  0  0  0  0  0  0
  1  2  1  0
  2  3  1  0
  3  4  1  0
  4  5  1  0
  5  6  1  0
  6  7  2  0
  7  8  1  0
  8  9  2  0
  9 10  1  0
 10 11  2  0
 11 12  1  0
 12 13  1  6
 13 14  1  0
 14 15  2  0
 15 16  1  0
 16 17  1  0
 16 18  2  0
 18 19  1  0
 19 20  2  0
 20 21  1  0
 21 22  1  0
 22 23  1  0
 24 23  1  6
 24 25  1  0
 25 26  1  0
 26 27  1  0
 27 28  1  0
 28 29  1  1
 28 30  1  0
 30 31  1  1
  9 32  1  0
 32 33  2  0
 33  6  1  0
 22 10  1  0
 30 24  1  0
 21 12  1  0
 20 14  1  0
M  CHG  1  23   1
M  END
>  <Compound_ID>  (104) 
C09490772

>  <Active>  (104) 
0

>  <Smiles>  (104) 
CCCCOc1ccc(C2=N[C@H]3Sc4cc(Cl)ccc4N3C2[NH2+][C@H]2CCC[C@H](C)[C@@H]2C)cc1

>  <canonical_smi>  (104) 
CCCCOc1ccc(C2=N[C@H]3Sc4cc(Cl)ccc4N3C2[NH2+][C@H]2CCC[C@H](C)[C@@H]2C)cc1

>  <Set>  (104) 
G2 inactive

>  <Set_type>  (104) 
Train

>  <MW>  (104) 
485.12

>  <HBD>  (104) 
1

>  <HBA>  (104) 
3

>  <NRB>  (104) 
7

>  <NR>  (104) 
5

>  <NAR>  (104) 
2

>  <PSA>  (104) 
41.44

>  <Standard Type>  (104) 
nan

>  <Standard Relation>  (104) 
nan

>  <Standard Units>  (104) 
nan

>  <Standard Value>  (104) 
nan

>  <Assay ChEMBL ID>  (104) 
nan

>  <Assay Description>  (104) 
nan

>  <BAO Label>  (104) 
nan

$$$$

     RDKit          2D

 37 42  0  0  0  0  0  0  0  0999 V2000
    1.8067    2.2199    0.0000 C   0  0  0  0  0  0  0  0  0  0  0  0
    2.2702    0.7933    0.0000 C   0  0  0  0  0  0  0  0  0  0  0  0
    1.2665   -0.3214    0.0000 C   0  0  0  0  0  0  0  0  0  0  0  0
    3.7374    0.4814    0.0000 C   0  0  0  0  0  0  0  0  0  0  0  0
    4.7411    1.5962    0.0000 C   0  0  0  0  0  0  0  0  0  0  0  0
    6.2083    1.2843    0.0000 C   0  0  0  0  0  0  0  0  0  0  0  0
    7.2120    2.3990    0.0000 O   0  0  0  0  0  0  0  0  0  0  0  0
    6.6718   -0.1423    0.0000 N   0  0  0  0  0  0  0  0  0  0  0  0
    5.6682   -1.2570    0.0000 C   0  0  0  0  0  0  0  0  0  0  0  0
    6.1317   -2.6836    0.0000 N   0  0  0  0  0  0  0  0  0  0  0  0
    7.5583   -3.1471    0.0000 N   0  0  0  0  0  0  0  0  0  0  0  0
    7.5583   -4.6471    0.0000 C   0  0  0  0  0  0  0  0  0  0  0  0
    8.7718   -5.5288    0.0000 C   0  0  0  0  0  0  0  0  0  0  0  0
   10.1984   -5.0653    0.0000 C   0  0  0  0  0  0  0  0  0  0  0  0
   11.0801   -6.2788    0.0000 C   0  0  0  0  0  0  0  0  0  0  0  0
   10.1984   -7.4923    0.0000 C   0  0  0  0  0  0  0  0  0  0  0  0
    8.7718   -7.0288    0.0000 O   0  0  0  0  0  0  0  0  0  0  0  0
    6.1317   -5.1106    0.0000 C   0  0  0  0  0  0  0  0  0  0  0  0
    5.2500   -3.8971    0.0000 C   0  0  0  0  0  0  0  0  0  0  0  0
    3.7500   -3.8971    0.0000 N   0  0  0  0  0  0  0  0  0  0  0  0
    3.0000   -5.1962    0.0000 C   0  0  0  0  0  0  0  0  0  0  0  0
    3.7500   -6.4952    0.0000 O   0  0  0  0  0  0  0  0  0  0  0  0
    1.5000   -5.1962    0.0000 C   0  0  0  0  0  0  0  0  0  0  0  0
    0.7500   -6.4952    0.0000 C   0  0  0  0  0  0  0  0  0  0  0  0
    1.5000   -7.7942    0.0000 C   0  0  0  0  0  0  0  0  0  0  0  0
    0.7500   -9.0933    0.0000 C   0  0  0  0  0  0  0  0  0  0  0  0
   -0.7500   -9.0933    0.0000 C   0  0  0  0  0  0  0  0  0  0  0  0
   -1.5000   -7.7942    0.0000 C   0  0  0  0  0  0  0  0  0  0  0  0
   -0.7500   -6.4952    0.0000 C   0  0  0  0  0  0  0  0  0  0  0  0
   -1.5000   -5.1962    0.0000 O   0  0  0  0  0  0  0  0  0  0  0  0
   -0.7500   -3.8971    0.0000 C   0  0  0  0  0  0  0  0  0  0  0  0
   -1.5000   -2.5981    0.0000 C   0  0  0  0  0  0  0  0  0  0  0  0
   -0.7500   -1.2990    0.0000 C   0  0  0  0  0  0  0  0  0  0  0  0
    0.7500   -1.2990    0.0000 C   0  0  0  0  0  0  0  0  0  0  0  0
    1.5000   -2.5981    0.0000 C   0  0  0  0  0  0  0  0  0  0  0  0
    0.7500   -3.8971    0.0000 C   0  0  0  0  0  0  0  0  0  0  0  0
    4.2009   -0.9451    0.0000 N   0  0  0  0  0  0  0  0  0  0  0  0
  1  2  1  0
  2  3  1  0
  2  4  1  0
  4  5  2  0
  5  6  1  0
  6  7  2  0
  6  8  1  0
  8  9  1  0
  9 10  1  0
 10 11  1  0
 11 12  2  0
 12 13  1  0
 13 14  2  0
 14 15  1  0
 15 16  2  0
 16 17  1  0
 12 18  1  0
 18 19  2  0
 19 20  1  0
 20 21  1  0
 21 22  2  0
 21 23  1  0
 23 24  1  0
 24 25  2  0
 25 26  1  0
 26 27  2  0
 27 28  1  0
 28 29  2  0
 29 30  1  0
 30 31  1  0
 31 32  2  0
 32 33  1  0
 33 34  2  0
 34 35  1  0
 35 36  2  0
  9 37  2  0
 37  4  1  0
 19 10  1  0
 36 23  1  0
 17 13  1  0
 29 24  1  0
 36 31  1  0
M  END
>  <Compound_ID>  (105) 
C12007921

>  <Active>  (105) 
0

>  <Smiles>  (105) 
CC(C)c1cc(=O)[nH]c(-n2nc(-c3ccco3)cc2NC(=O)C2c3ccccc3Oc3ccccc32)n1

>  <canonical_smi>  (105) 
CC(C)c1cc(=O)[nH]c(-n2nc(-c3ccco3)cc2NC(=O)C2c3ccccc3Oc3ccccc32)n1

>  <Set>  (105) 
G2 inactive

>  <Set_type>  (105) 
Train

>  <MW>  (105) 
493.52

>  <HBD>  (105) 
2

>  <HBA>  (105) 
6

>  <NRB>  (105) 
5

>  <NR>  (105) 
6

>  <NAR>  (105) 
5

>  <PSA>  (105) 
115.04

>  <Standard Type>  (105) 
nan

>  <Standard Relation>  (105) 
nan

>  <Standard Units>  (105) 
nan

>  <Standard Value>  (105) 
nan

>  <Assay ChEMBL ID>  (105) 
nan

>  <Assay Description>  (105) 
nan

>  <BAO Label>  (105) 
nan

$$$$

     RDKit          2D

 29 33  0  0  0  0  0  0  0  0999 V2000
   -1.4418   -3.8810    0.0000 N   0  0  0  0  0  0  0  0  0  0  0  0
   -1.7537   -2.4138    0.0000 C   0  0  0  0  0  0  0  0  0  0  0  0
   -0.7500   -1.2990    0.0000 C   0  0  0  0  0  0  0  0  0  0  0  0
    0.7500   -1.2990    0.0000 C   0  0  0  0  0  0  0  0  0  0  0  0
    1.5000   -2.5981    0.0000 C   0  0  0  0  0  0  0  0  0  0  0  0
    0.7500   -3.8971    0.0000 C   0  0  0  0  0  0  0  0  0  0  0  0
    1.5000   -5.1962    0.0000 C   0  0  0  0  0  0  0  0  0  0  0  0
    3.0000   -5.1962    0.0000 C   0  0  0  0  0  0  0  0  0  0  0  0
    3.7500   -6.4952    0.0000 F   0  0  0  0  0  0  0  0  0  0  0  0
    3.7500   -3.8971    0.0000 C   0  0  0  0  0  0  0  0  0  0  0  0
    5.2500   -3.8971    0.0000 Cl  0  0  0  0  0  0  0  0  0  0  0  0
    3.0000   -2.5981    0.0000 C   0  0  0  0  0  0  0  0  0  0  0  0
    1.5000    0.0000    0.0000 N   0  0  0  0  0  0  0  0  0  0  0  0
    0.7500    1.2990    0.0000 C   0  0  0  0  0  0  0  0  0  0  0  0
    1.5000    2.5981    0.0000 N   0  0  0  0  0  0  0  0  0  0  0  0
    3.0000    2.5981    0.0000 C   0  0  0  0  0  0  0  0  0  0  0  0
    4.2990    3.3481    0.0000 C   0  0  0  0  0  0  0  0  0  0  0  0
    4.2990    1.8481    0.0000 C   0  0  0  0  0  0  0  0  0  0  0  0
   -0.7500    1.2990    0.0000 N   0  0  0  0  0  0  0  0  0  0  0  0
   -1.5000    0.0000    0.0000 C   0  0  0  0  0  0  0  0  0  0  0  0
   -2.9672   -0.3119    0.0000 N   0  0  0  0  0  0  0  0  0  0  0  0
   -3.1240   -1.8037    0.0000 N   0  0  0  0  0  0  0  0  0  0  0  0
   -4.4231   -2.5537    0.0000 C   0  0  0  0  0  0  0  0  0  0  0  0
   -5.7221   -1.8037    0.0000 C   0  0  0  0  0  0  0  0  0  0  0  0
   -7.0211   -2.5537    0.0000 C   0  0  0  0  0  0  0  0  0  0  0  0
   -7.0211   -4.0537    0.0000 C   0  0  0  0  0  0  0  0  0  0  0  0
   -5.7221   -4.8037    0.0000 C   0  0  0  0  0  0  0  0  0  0  0  0
   -5.7221   -6.3037    0.0000 F   0  0  0  0  0  0  0  0  0  0  0  0
   -4.4231   -4.0537    0.0000 C   0  0  0  0  0  0  0  0  0  0  0  0
  1  2  1  0
  2  3  2  0
  3  4  1  0
  4  5  1  0
  5  6  2  0
  6  7  1  0
  7  8  2  0
  8  9  1  0
  8 10  1  0
 10 11  1  0
 10 12  2  0
  4 13  2  0
 13 14  1  0
 14 15  1  0
 15 16  1  0
 16 17  1  0
 17 18  1  0
 14 19  2  0
 19 20  1  0
 20 21  2  0
 21 22  1  0
 22 23  1  0
 23 24  2  0
 24 25  1  0
 25 26  2  0
 26 27  1  0
 27 28  1  0
 27 29  2  0
 22  2  1  0
 29 23  1  0
 20  3  1  0
 12  5  1  0
 18 16  1  0
M  END
>  <Compound_ID>  (106) 
C37376760

>  <Active>  (106) 
0

>  <Smiles>  (106) 
Nc1c2c(-c3ccc(F)c(Cl)c3)nc(NC3CC3)nc2nn1-c1cccc(F)c1

>  <canonical_smi>  (106) 
Nc1c2c(-c3ccc(F)c(Cl)c3)nc(NC3CC3)nc2nn1-c1cccc(F)c1

>  <Set>  (106) 
G2 inactive

>  <Set_type>  (106) 
Train

>  <MW>  (106) 
412.83

>  <HBD>  (106) 
2

>  <HBA>  (106) 
5

>  <NRB>  (106) 
4

>  <NR>  (106) 
5

>  <NAR>  (106) 
4

>  <PSA>  (106) 
81.65

>  <Standard Type>  (106) 
nan

>  <Standard Relation>  (106) 
nan

>  <Standard Units>  (106) 
nan

>  <Standard Value>  (106) 
nan

>  <Assay ChEMBL ID>  (106) 
nan

>  <Assay Description>  (106) 
nan

>  <BAO Label>  (106) 
nan

$$$$

     RDKit          2D

 21 22  0  0  0  0  0  0  0  0999 V2000
    3.7500   -1.2990    0.0000 C   0  0  0  0  0  0  0  0  0  0  0  0
    3.0000    0.0000    0.0000 N   0  0  0  0  0  0  0  0  0  0  0  0
    1.5000    0.0000    0.0000 C   0  0  0  0  0  0  0  0  0  0  0  0
    0.7500   -1.2990    0.0000 N   0  0  0  0  0  0  0  0  0  0  0  0
   -0.7500   -1.2990    0.0000 C   0  0  0  0  0  0  0  0  0  0  0  0
   -1.5000   -2.5981    0.0000 N   0  0  0  0  0  0  0  0  0  0  0  0
   -3.0000   -2.5981    0.0000 N   0  0  0  0  0  0  0  0  0  0  0  0
   -3.7500   -3.8971    0.0000 C   0  0  0  0  0  0  0  0  0  0  0  0
   -3.0000   -5.1962    0.0000 C   0  0  0  0  0  0  0  0  0  0  0  0
   -3.7500   -6.4952    0.0000 C   0  0  0  0  0  0  0  0  0  0  0  0
   -3.0000   -7.7942    0.0000 C   0  0  0  0  0  0  0  0  0  0  0  0
   -3.7500   -9.0933    0.0000 Br  0  0  0  0  0  0  0  0  0  0  0  0
   -1.5000   -7.7942    0.0000 C   0  0  0  0  0  0  0  0  0  0  0  0
   -0.7500   -6.4952    0.0000 C   0  0  0  0  0  0  0  0  0  0  0  0
    0.7500   -6.4952    0.0000 I   0  0  0  0  0  0  0  0  0  0  0  0
   -1.5000   -5.1962    0.0000 C   0  0  0  0  0  0  0  0  0  0  0  0
   -0.7500   -3.8971    0.0000 O   0  0  0  0  0  0  0  0  0  0  0  0
   -1.5000    0.0000    0.0000 N   0  0  0  0  0  0  0  0  0  0  0  0
   -0.7500    1.2990    0.0000 C   0  0  0  0  0  0  0  0  0  0  0  0
    0.7500    1.2990    0.0000 C   0  0  0  0  0  0  0  0  0  0  0  0
    1.5000    2.5981    0.0000 F   0  0  0  0  0  0  0  0  0  0  0  0
  1  2  1  0
  2  3  1  0
  3  4  2  0
  4  5  1  0
  5  6  1  0
  6  7  1  0
  7  8  2  0
  8  9  1  0
  9 10  2  0
 10 11  1  0
 11 12  1  0
 11 13  2  0
 13 14  1  0
 14 15  1  0
 14 16  2  0
 16 17  1  0
  5 18  2  0
 18 19  1  0
 19 20  2  0
 20 21  1  0
 20  3  1  0
 16  9  1  0
M  END
>  <Compound_ID>  (107) 
C59640243

>  <Active>  (107) 
0

>  <Smiles>  (107) 
CNc1nc(N/N=C\c2cc(Br)cc(I)c2O)ncc1F

>  <canonical_smi>  (107) 
CNc1nc(N/N=C\c2cc(Br)cc(I)c2O)ncc1F

>  <Set>  (107) 
G2 inactive

>  <Set_type>  (107) 
Train

>  <MW>  (107) 
466.05

>  <HBD>  (107) 
3

>  <HBA>  (107) 
5

>  <NRB>  (107) 
4

>  <NR>  (107) 
2

>  <NAR>  (107) 
2

>  <PSA>  (107) 
82.43

>  <Standard Type>  (107) 
nan

>  <Standard Relation>  (107) 
nan

>  <Standard Units>  (107) 
nan

>  <Standard Value>  (107) 
nan

>  <Assay ChEMBL ID>  (107) 
nan

>  <Assay Description>  (107) 
nan

>  <BAO Label>  (107) 
nan

$$$$

     RDKit          2D

 39 44  0  0  0  0  0  0  0  0999 V2000
   -2.1491   -7.1273    0.0000 O   0  0  0  0  0  0  0  0  0  0  0  0
   -3.5757   -7.5908    0.0000 C   0  0  0  0  0  0  0  0  0  0  0  0
   -3.8876   -9.0580    0.0000 N   0  0  0  0  0  0  0  0  0  0  0  0
   -2.7729  -10.0617    0.0000 C   0  0  0  0  0  0  0  0  0  0  0  0
   -3.0847  -11.5290    0.0000 C   0  0  0  0  0  0  0  0  0  0  0  0
   -1.9700  -12.5326    0.0000 C   0  0  0  0  0  0  0  0  0  0  0  0
   -0.5434  -12.0691    0.0000 C   0  0  0  0  0  0  0  0  0  0  0  0
   -0.2316  -10.6019    0.0000 C   0  0  0  0  0  0  0  0  0  0  0  0
   -1.3463   -9.5982    0.0000 C   0  0  0  0  0  0  0  0  0  0  0  0
   -4.6904   -6.5871    0.0000 C   0  0  0  0  0  0  0  0  0  0  0  0
   -6.1170   -7.0506    0.0000 C   0  0  0  0  0  0  0  0  0  0  0  0
   -7.2317   -6.0469    0.0000 C   0  0  0  0  0  0  0  0  0  0  0  0
   -8.6583   -6.5105    0.0000 C   0  0  0  0  0  0  0  0  0  0  0  0
   -8.9702   -7.9777    0.0000 C   0  0  0  0  0  0  0  0  0  0  0  0
  -10.3968   -8.4412    0.0000 F   0  0  0  0  0  0  0  0  0  0  0  0
   -7.8555   -8.9814    0.0000 C   0  0  0  0  0  0  0  0  0  0  0  0
   -6.4289   -8.5179    0.0000 C   0  0  0  0  0  0  0  0  0  0  0  0
   -4.3786   -5.1199    0.0000 N   0  0  0  0  0  0  0  0  0  0  0  0
   -2.9520   -4.6564    0.0000 C   0  0  0  0  0  0  0  0  0  0  0  0
   -1.8373   -5.6601    0.0000 O   0  0  0  0  0  0  0  0  0  0  0  0
   -2.6401   -3.1891    0.0000 C   0  0  0  0  0  0  0  0  0  0  0  0
   -1.2135   -2.7256    0.0000 N   0  0  0  0  0  0  0  0  0  0  0  0
   -0.0000   -3.6073    0.0000 N   0  0  0  0  0  0  0  0  0  0  0  0
    1.2135   -2.7256    0.0000 N   0  0  0  0  0  0  0  0  0  0  0  0
    0.7500   -1.2990    0.0000 C   0  0  0  0  0  0  0  0  0  0  0  0
    1.5000    0.0000    0.0000 C   0  0  0  0  0  0  0  0  0  0  0  0
    0.7500    1.2990    0.0000 C   0  0  0  0  0  0  0  0  0  0  0  0
   -0.7500    1.2990    0.0000 C   0  0  0  0  0  0  0  0  0  0  0  0
   -1.5000    0.0000    0.0000 C   0  0  0  0  0  0  0  0  0  0  0  0
   -0.7500   -1.2990    0.0000 C   0  0  0  0  0  0  0  0  0  0  0  0
   -5.4933   -4.1162    0.0000 C   0  0  0  0  0  0  0  0  0  0  0  0
   -5.1814   -2.6490    0.0000 C   0  0  0  0  0  0  0  0  0  0  0  0
   -6.2961   -1.6453    0.0000 C   0  0  0  0  0  0  0  0  0  0  0  0
   -7.7227   -2.1088    0.0000 C   0  0  0  0  0  0  0  0  0  0  0  0
   -8.0346   -3.5760    0.0000 C   0  0  0  0  0  0  0  0  0  0  0  0
   -6.9199   -4.5797    0.0000 C   0  0  0  0  0  0  0  0  0  0  0  0
   -9.5264   -3.7328    0.0000 O   0  0  0  0  0  0  0  0  0  0  0  0
  -10.1365   -2.3625    0.0000 C   0  0  0  0  0  0  0  0  0  0  0  0
   -9.0218   -1.3588    0.0000 O   0  0  0  0  0  0  0  0  0  0  0  0
  1  2  2  0
  2  3  1  0
  3  4  1  0
  4  5  1  0
  5  6  1  0
  6  7  1  0
  7  8  1  0
  8  9  1  0
  2 10  1  0
 10 11  1  0
 11 12  2  0
 12 13  1  0
 13 14  2  0
 14 15  1  0
 14 16  1  0
 16 17  2  0
 10 18  1  1
 18 19  1  0
 19 20  2  0
 19 21  1  0
 21 22  1  0
 22 23  1  0
 23 24  2  0
 24 25  1  0
 25 26  2  0
 26 27  1  0
 27 28  2  0
 28 29  1  0
 29 30  2  0
 18 31  1  0
 31 32  2  0
 32 33  1  0
 33 34  2  0
 34 35  1  0
 35 36  2  0
 35 37  1  0
 37 38  1  0
 38 39  1  0
  9  4  1  0
 17 11  1  0
 30 22  1  0
 36 31  1  0
 30 25  1  0
 39 34  1  0
M  END
>  <Compound_ID>  (108) 
C00902405

>  <Active>  (108) 
0

>  <Smiles>  (108) 
O=C(NC1CCCCC1)[C@@H](c1ccc(F)cc1)N(C(=O)Cn1nnc2ccccc21)c1ccc2c(c1)OCO2

>  <canonical_smi>  (108) 
O=C(NC1CCCCC1)[C@@H](c1ccc(F)cc1)N(C(=O)Cn1nnc2ccccc21)c1ccc2c(c1)OCO2

>  <Set>  (108) 
G2 inactive

>  <Set_type>  (108) 
Train

>  <MW>  (108) 
529.57

>  <HBD>  (108) 
1

>  <HBA>  (108) 
6

>  <NRB>  (108) 
7

>  <NR>  (108) 
6

>  <NAR>  (108) 
4

>  <PSA>  (108) 
98.58

>  <Standard Type>  (108) 
nan

>  <Standard Relation>  (108) 
nan

>  <Standard Units>  (108) 
nan

>  <Standard Value>  (108) 
nan

>  <Assay ChEMBL ID>  (108) 
nan

>  <Assay Description>  (108) 
nan

>  <BAO Label>  (108) 
nan

$$$$

     RDKit          2D

 31 35  0  0  0  0  0  0  0  0999 V2000
    7.5272    3.5312    0.0000 C   0  0  0  0  0  0  0  0  0  0  0  0
    6.4125    4.5348    0.0000 N   0  0  0  0  0  0  0  0  0  0  0  0
    6.7244    6.0021    0.0000 C   0  0  0  0  0  0  0  0  0  0  0  0
    4.9859    4.0713    0.0000 C   0  0  0  0  0  0  0  0  0  0  0  0
    4.6741    2.6041    0.0000 C   0  0  0  0  0  0  0  0  0  0  0  0
    3.2475    2.1406    0.0000 C   0  0  0  0  0  0  0  0  0  0  0  0
    2.1328    3.1443    0.0000 C   0  0  0  0  0  0  0  0  0  0  0  0
    0.7062    2.6807    0.0000 C   0  0  0  0  0  0  0  0  0  0  0  0
    0.3943    1.2135    0.0000 C   0  0  0  0  0  0  0  0  0  0  0  0
    1.2760    0.0000    0.0000 S   0  0  0  0  0  0  0  0  0  0  0  0
    0.3943   -1.2135    0.0000 C   0  0  0  0  0  0  0  0  0  0  0  0
    0.8578   -2.6401    0.0000 O   0  0  0  0  0  0  0  0  0  0  0  0
   -1.0323   -0.7500    0.0000 N   0  0  0  0  0  0  0  0  0  0  0  0
   -1.0323    0.7500    0.0000 C   0  0  0  0  0  0  0  0  0  0  0  0
   -2.1470    1.7537    0.0000 S   0  0  0  0  0  0  0  0  0  0  0  0
   -1.8351    3.2209    0.0000 C   0  0  0  0  0  0  0  0  0  0  0  0
   -2.7168    4.4344    0.0000 C   0  0  0  0  0  0  0  0  0  0  0  0
   -4.2168    4.4344    0.0000 O   0  0  0  0  0  0  0  0  0  0  0  0
   -1.8351    5.6480    0.0000 N   0  0  0  0  0  0  0  0  0  0  0  0
   -2.2987    7.0746    0.0000 C   0  0  0  0  0  0  0  0  0  0  0  0
   -1.2950    8.1893    0.0000 C   0  0  0  0  0  0  0  0  0  0  0  0
   -1.7585    9.6159    0.0000 C   0  0  0  0  0  0  0  0  0  0  0  0
   -3.2257    9.9277    0.0000 C   0  0  0  0  0  0  0  0  0  0  0  0
   -3.6892   11.3543    0.0000 Br  0  0  0  0  0  0  0  0  0  0  0  0
   -4.2294    8.8130    0.0000 C   0  0  0  0  0  0  0  0  0  0  0  0
   -3.7659    7.3864    0.0000 C   0  0  0  0  0  0  0  0  0  0  0  0
   -0.4086    5.1844    0.0000 C   0  0  0  0  0  0  0  0  0  0  0  0
    0.8050    6.0661    0.0000 O   0  0  0  0  0  0  0  0  0  0  0  0
   -0.4086    3.6844    0.0000 C   0  0  0  0  0  0  0  0  0  0  0  0
    2.4446    4.6115    0.0000 C   0  0  0  0  0  0  0  0  0  0  0  0
    3.8712    5.0750    0.0000 C   0  0  0  0  0  0  0  0  0  0  0  0
  1  2  1  0
  2  3  1  0
  2  4  1  0
  4  5  2  0
  5  6  1  0
  6  7  2  0
  8  7  1  1
  8  9  1  0
  9 10  1  0
 10 11  1  0
 11 12  2  0
 11 13  1  0
 13 14  1  0
 14 15  1  0
 16 15  1  1
 16 17  1  0
 17 18  2  0
 17 19  1  0
 19 20  1  0
 20 21  2  0
 21 22  1  0
 22 23  2  0
 23 24  1  0
 23 25  1  0
 25 26  2  0
 19 27  1  0
 27 28  2  0
 29 27  1  1
  7 30  1  0
 30 31  2  0
 31  4  1  0
 29  8  1  0
 14  9  2  0
 29 16  1  0
 26 20  1  0
M  END
>  <Compound_ID>  (109) 
C47145538

>  <Active>  (109) 
0

>  <Smiles>  (109) 
CN(C)c1ccc([C@H]2c3sc(=O)[nH]c3S[C@H]3C(=O)N(c4ccc(Br)cc4)C(=O)[C@@H]23)cc1

>  <canonical_smi>  (109) 
CN(C)c1ccc([C@H]2c3sc(=O)[nH]c3S[C@H]3C(=O)N(c4ccc(Br)cc4)C(=O)[C@@H]23)cc1

>  <Set>  (109) 
G2 inactive

>  <Set_type>  (109) 
Train

>  <MW>  (109) 
516.44

>  <HBD>  (109) 
1

>  <HBA>  (109) 
5

>  <NRB>  (109) 
3

>  <NR>  (109) 
5

>  <NAR>  (109) 
3

>  <PSA>  (109) 
73.48

>  <Standard Type>  (109) 
nan

>  <Standard Relation>  (109) 
nan

>  <Standard Units>  (109) 
nan

>  <Standard Value>  (109) 
nan

>  <Assay ChEMBL ID>  (109) 
nan

>  <Assay Description>  (109) 
nan

>  <BAO Label>  (109) 
nan

$$$$

     RDKit          2D

 36 41  0  0  0  0  0  0  0  0999 V2000
    2.6491    0.9642    0.0000 C   0  0  0  0  0  0  0  0  0  0  0  0
    1.5000    0.0000    0.0000 C   0  0  0  0  0  0  0  0  0  0  0  0
    2.6491   -0.9642    0.0000 C   0  0  0  0  0  0  0  0  0  0  0  0
    0.7500   -1.2990    0.0000 C   0  0  0  0  0  0  0  0  0  0  0  0
   -0.7500   -1.2990    0.0000 C   0  0  0  0  0  0  0  0  0  0  0  0
   -1.5000    0.0000    0.0000 C   0  0  0  0  0  0  0  0  0  0  0  0
   -3.0000    0.0000    0.0000 C   0  0  0  0  0  0  0  0  0  0  0  0
   -3.7500    1.2990    0.0000 N   0  0  0  0  0  0  0  0  0  0  0  0
   -3.0000    2.5981    0.0000 C   0  0  0  0  0  0  0  0  0  0  0  0
   -3.7500    3.8971    0.0000 C   0  0  0  0  0  0  0  0  0  0  0  0
   -5.2500    3.8971    0.0000 O   0  0  0  0  0  0  0  0  0  0  0  0
   -6.0000    2.5981    0.0000 C   0  0  0  0  0  0  0  0  0  0  0  0
   -5.2500    1.2990    0.0000 C   0  0  0  0  0  0  0  0  0  0  0  0
   -3.7500   -1.2990    0.0000 N   0  0  0  0  0  4  0  0  0  0  0  0
   -3.0000   -2.5981    0.0000 C   0  0  0  0  0  0  0  0  0  0  0  0
   -3.4635   -4.0247    0.0000 S   0  0  0  0  0  0  0  0  0  0  0  0
   -2.2500   -4.9063    0.0000 C   0  0  0  0  0  0  0  0  0  0  0  0
   -2.0932   -6.3981    0.0000 C   0  0  0  0  0  0  0  0  0  0  0  0
   -3.3067   -7.2798    0.0000 S   0  0  0  0  0  0  0  0  0  0  0  0
   -3.1499   -8.7716    0.0000 C   0  0  0  0  0  0  0  0  0  0  0  0
   -4.3635   -9.6533    0.0000 C   0  0  0  0  0  0  0  0  0  0  0  0
   -5.7338   -9.0432    0.0000 C   0  0  0  0  0  0  0  0  0  0  0  0
   -6.9473   -9.9248    0.0000 C   0  0  0  0  0  0  0  0  0  0  0  0
   -6.7905  -11.4166    0.0000 C   0  0  0  0  0  0  0  0  0  0  0  0
   -8.0040  -12.2983    0.0000 N   0  0  0  0  0  4  0  0  0  0  0  0
   -7.8472  -13.7901    0.0000 O   0  0  0  0  0  0  0  0  0  0  0  0
   -9.3744  -11.6882    0.0000 O   0  0  0  0  0  1  0  0  0  0  0  0
   -5.4202  -12.0267    0.0000 C   0  0  0  0  0  0  0  0  0  0  0  0
   -4.2067  -11.1450    0.0000 C   0  0  0  0  0  0  0  0  0  0  0  0
   -0.7229   -7.0082    0.0000 N   0  0  0  0  0  0  0  0  0  0  0  0
    0.4906   -6.1265    0.0000 C   0  0  0  0  0  0  0  0  0  0  0  0
    0.3338   -4.6348    0.0000 N   0  0  0  0  0  0  0  0  0  0  0  0
   -1.0365   -4.0247    0.0000 C   0  0  0  0  0  0  0  0  0  0  0  0
   -1.5000   -2.5981    0.0000 C   0  0  0  0  0  0  0  0  0  0  0  0
   -0.7500    1.2990    0.0000 C   0  0  0  0  0  0  0  0  0  0  0  0
    0.7500    1.2990    0.0000 O   0  0  0  0  0  0  0  0  0  0  0  0
  1  2  1  0
  2  3  1  0
  2  4  1  0
  4  5  1  0
  5  6  2  0
  6  7  1  0
  7  8  1  0
  8  9  1  0
  9 10  1  0
 10 11  1  0
 11 12  1  0
 12 13  1  0
  7 14  2  0
 14 15  1  0
 15 16  1  0
 16 17  1  0
 17 18  2  0
 18 19  1  0
 19 20  1  0
 20 21  1  0
 21 22  2  0
 22 23  1  0
 23 24  2  0
 24 25  1  0
 25 26  2  0
 25 27  1  0
 24 28  1  0
 28 29  2  0
 18 30  1  0
 30 31  2  0
 31 32  1  0
 32 33  2  0
 33 34  1  0
  6 35  1  0
 35 36  1  0
 36  2  1  0
 34  5  1  0
 13  8  1  0
 34 15  2  0
 33 17  1  0
 29 21  1  0
M  CHG  3  14   1  25   1  27  -1
M  END
>  <Compound_ID>  (110) 
C01861148

>  <Active>  (110) 
0

>  <Smiles>  (110) 
CC1(C)Cc2c(c(N3CCOCC3)[nH+]c3sc4c(SCc5ccc([N+](=O)[O-])cc5)ncnc4c23)CO1

>  <canonical_smi>  (110) 
CC1(C)Cc2c(c(N3CCOCC3)[nH+]c3sc4c(SCc5ccc([N+](=O)[O-])cc5)ncnc4c23)CO1

>  <Set>  (110) 
G2 inactive

>  <Set_type>  (110) 
Train

>  <MW>  (110) 
524.65

>  <HBD>  (110) 
0

>  <HBA>  (110) 
8

>  <NRB>  (110) 
5

>  <NR>  (110) 
6

>  <NAR>  (110) 
4

>  <PSA>  (110) 
104.76

>  <Standard Type>  (110) 
nan

>  <Standard Relation>  (110) 
nan

>  <Standard Units>  (110) 
nan

>  <Standard Value>  (110) 
nan

>  <Assay ChEMBL ID>  (110) 
nan

>  <Assay Description>  (110) 
nan

>  <BAO Label>  (110) 
nan

$$$$

     RDKit          2D

 36 41  0  0  0  0  0  0  0  0999 V2000
    3.9542   -3.2688    0.0000 C   0  0  0  0  0  0  0  0  0  0  0  0
    2.5838   -3.8789    0.0000 O   0  0  0  0  0  0  0  0  0  0  0  0
    2.4271   -5.3707    0.0000 C   0  0  0  0  0  0  0  0  0  0  0  0
    3.6406   -6.2523    0.0000 C   0  0  0  0  0  0  0  0  0  0  0  0
    3.4838   -7.7441    0.0000 C   0  0  0  0  0  0  0  0  0  0  0  0
    2.1135   -8.3542    0.0000 C   0  0  0  0  0  0  0  0  0  0  0  0
    0.8999   -7.4725    0.0000 C   0  0  0  0  0  0  0  0  0  0  0  0
    1.0567   -5.9808    0.0000 C   0  0  0  0  0  0  0  0  0  0  0  0
   -0.1568   -5.0991    0.0000 C   0  0  0  0  0  0  0  0  0  0  0  0
   -0.0000   -3.6073    0.0000 C   0  0  0  0  0  0  0  0  0  0  0  0
    1.2135   -2.7256    0.0000 N   0  0  0  0  0  4  0  0  0  0  0  0
    0.7500   -1.2990    0.0000 C   0  0  0  0  0  0  0  0  0  0  0  0
    1.5000    0.0000    0.0000 C   0  0  0  0  0  0  0  0  0  0  0  0
    0.7500    1.2990    0.0000 C   0  0  0  0  0  0  0  0  0  0  0  0
   -0.7500    1.2990    0.0000 C   0  0  0  0  0  0  0  0  0  0  0  0
   -1.5000    0.0000    0.0000 C   0  0  0  0  0  0  0  0  0  0  0  0
   -0.7500   -1.2990    0.0000 C   0  0  0  0  0  0  0  0  0  0  0  0
   -1.2135   -2.7256    0.0000 C   0  0  0  0  0  0  0  0  0  0  0  0
   -2.5838   -3.3357    0.0000 C   0  0  0  0  0  0  0  0  0  0  0  0
   -2.7406   -4.8275    0.0000 C   0  0  0  0  0  0  0  0  0  0  0  0
   -4.1110   -5.4376    0.0000 C   0  0  0  0  0  0  0  0  0  0  0  0
   -5.3245   -4.5559    0.0000 O   0  0  0  0  0  0  0  0  0  0  0  0
   -4.2677   -6.9294    0.0000 N   0  0  0  0  0  0  0  0  0  0  0  0
   -5.6381   -7.5395    0.0000 C   0  0  0  0  0  0  0  0  0  0  0  0
   -5.7949   -9.0313    0.0000 C   0  0  0  0  0  0  0  0  0  0  0  0
   -7.1652   -9.6414    0.0000 C   0  0  0  0  0  0  0  0  0  0  0  0
   -7.3220  -11.1332    0.0000 C   0  0  0  0  0  0  0  0  0  0  0  0
   -6.1084  -12.0149    0.0000 C   0  0  0  0  0  0  0  0  0  0  0  0
   -6.2652  -13.5066    0.0000 Cl  0  0  0  0  0  0  0  0  0  0  0  0
   -4.7381  -11.4047    0.0000 C   0  0  0  0  0  0  0  0  0  0  0  0
   -3.5246  -12.2864    0.0000 Cl  0  0  0  0  0  0  0  0  0  0  0  0
   -4.5813   -9.9130    0.0000 C   0  0  0  0  0  0  0  0  0  0  0  0
   -3.0542   -7.8111    0.0000 C   0  0  0  0  0  0  0  0  0  0  0  0
   -1.6839   -7.2010    0.0000 C   0  0  0  0  0  0  0  0  0  0  0  0
   -0.4704   -8.0826    0.0000 O   0  0  0  0  0  0  0  0  0  0  0  0
   -1.5271   -5.7092    0.0000 N   0  0  0  0  0  0  0  0  0  0  0  0
  1  2  1  0
  2  3  1  0
  3  4  2  0
  4  5  1  0
  5  6  2  0
  6  7  1  0
  7  8  2  0
  9  8  1  1
  9 10  1  0
 10 11  1  6
 11 12  2  0
 12 13  1  0
 13 14  2  0
 14 15  1  0
 15 16  2  0
 16 17  1  0
 17 18  2  0
 18 19  1  0
 20 19  1  6
 20 21  1  0
 21 22  2  0
 21 23  1  0
 23 24  1  0
 24 25  1  0
 25 26  2  0
 26 27  1  0
 27 28  2  0
 28 29  1  0
 28 30  1  0
 30 31  1  0
 30 32  2  0
 23 33  1  0
 33 34  1  0
 34 35  2  0
 34 36  1  0
  8  3  1  0
 36  9  1  0
 18 10  1  0
 36 20  1  0
 17 12  1  0
 32 25  1  0
M  CHG  1  11   1
M  END
>  <Compound_ID>  (111) 
C63140698

>  <Active>  (111) 
0

>  <Smiles>  (111) 
COc1ccccc1[C@@H]1[C@H]2[NH+]=c3ccccc3=C2C[C@H]2C(=O)N(Cc3ccc(Cl)c(Cl)c3)CC(=O)N12

>  <canonical_smi>  (111) 
COc1ccccc1[C@@H]1[C@H]2[NH+]=c3ccccc3=C2C[C@H]2C(=O)N(Cc3ccc(Cl)c(Cl)c3)CC(=O)N21

>  <Set>  (111) 
G2 inactive

>  <Set_type>  (111) 
Train

>  <MW>  (111) 
521.42

>  <HBD>  (111) 
1

>  <HBA>  (111) 
3

>  <NRB>  (111) 
4

>  <NR>  (111) 
6

>  <NAR>  (111) 
3

>  <PSA>  (111) 
63.82

>  <Standard Type>  (111) 
nan

>  <Standard Relation>  (111) 
nan

>  <Standard Units>  (111) 
nan

>  <Standard Value>  (111) 
nan

>  <Assay ChEMBL ID>  (111) 
nan

>  <Assay Description>  (111) 
nan

>  <BAO Label>  (111) 
nan

$$$$

     RDKit          2D

 37 40  0  0  0  0  0  0  0  0999 V2000
    3.5260   -1.2990    0.0000 C   0  0  0  0  0  0  0  0  0  0  0  0
    2.7760    0.0000    0.0000 C   0  0  0  0  0  0  0  0  0  0  0  0
    1.2760    0.0000    0.0000 C   0  0  0  0  0  0  0  0  0  0  0  0
    0.3943    1.2135    0.0000 C   0  0  0  0  0  0  0  0  0  0  0  0
    0.8578    2.6401    0.0000 C   0  0  0  0  0  0  0  0  0  0  0  0
   -1.0323    0.7500    0.0000 C   0  0  0  0  0  0  0  0  0  0  0  0
   -1.0323   -0.7500    0.0000 N   0  0  0  0  0  4  0  0  0  0  0  0
    0.3943   -1.2135    0.0000 C   0  0  0  0  0  0  0  0  0  0  0  0
    0.7561   -3.1293    0.0000 C   0  0  0  0  0  0  0  0  0  0  0  0
    0.2369   -4.5365    0.0000 C   0  0  0  0  0  0  0  0  0  0  0  0
   -0.7813   -5.6380    0.0000 N   0  0  0  0  0  0  0  0  0  0  0  0
   -2.1435   -6.2660    0.0000 C   0  0  0  0  0  0  0  0  0  0  0  0
   -3.6424   -6.3249    0.0000 C   0  0  0  0  0  0  0  0  0  0  0  0
   -5.0496   -5.8057    0.0000 C   0  0  0  0  0  0  0  0  0  0  0  0
   -6.1511   -4.7875    0.0000 N   0  0  0  0  0  0  0  0  0  0  0  0
   -6.7791   -3.4253    0.0000 C   0  0  0  0  0  0  0  0  0  0  0  0
   -8.2377   -3.7755    0.0000 C   0  0  0  0  0  0  0  0  0  0  0  0
   -8.6637   -5.2137    0.0000 C   0  0  0  0  0  0  0  0  0  0  0  0
   -9.2702   -2.6874    0.0000 C   0  0  0  0  0  0  0  0  0  0  0  0
   -6.8380   -1.9265    0.0000 C   0  0  0  0  0  0  0  0  0  0  0  0
   -6.3188   -0.5192    0.0000 C   0  0  0  0  0  0  0  0  0  0  0  0
   -5.3006    0.5823    0.0000 N   0  0  0  0  0  0  0  0  0  0  0  0
   -3.9384    1.2103    0.0000 C   0  0  0  0  0  0  0  0  0  0  0  0
   -2.4396    1.2692    0.0000 O   0  0  0  0  0  3  0  0  0  0  0  0
   -5.1519    2.0920    0.0000 C   0  0  0  0  0  0  0  0  0  0  0  0
   -5.1519    3.5920    0.0000 C   0  0  0  0  0  0  0  0  0  0  0  0
   -3.8529    4.3420    0.0000 C   0  0  0  0  0  0  0  0  0  0  0  0
   -6.3655    1.2103    0.0000 C   0  0  0  0  0  0  0  0  0  0  0  0
   -7.7921    1.6738    0.0000 C   0  0  0  0  0  0  0  0  0  0  0  0
   -0.9300   -7.1477    0.0000 C   0  0  0  0  0  0  0  0  0  0  0  0
   -0.9300   -8.6477    0.0000 C   0  0  0  0  0  0  0  0  0  0  0  0
   -2.2290   -9.3977    0.0000 C   0  0  0  0  0  0  0  0  0  0  0  0
   -2.2290  -10.8977    0.0000 C   0  0  0  0  0  0  0  0  0  0  0  0
   -0.9300  -11.6477    0.0000 O   0  0  0  0  0  0  0  0  0  0  0  0
   -3.5281  -11.6477    0.0000 O   0  0  0  0  0  1  0  0  0  0  0  0
    0.2835   -6.2660    0.0000 C   0  0  0  0  0  0  0  0  0  0  0  0
    1.7101   -6.7295    0.0000 C   0  0  0  0  0  0  0  0  0  0  0  0
  1  2  2  0
  2  3  1  0
  3  4  2  0
  4  5  1  0
  4  6  1  0
  6  7  2  0
  7  8  1  0
  8  9  2  0
  9 10  1  0
 10 11  1  0
 11 12  1  0
 12 13  1  0
 13 14  2  0
 14 15  1  0
 15 16  2  0
 16 17  1  0
 17 18  2  0
 17 19  1  0
 16 20  1  0
 20 21  2  0
 21 22  1  0
 22 23  1  0
 23 24  2  0
 23 25  1  0
 25 26  1  0
 26 27  2  0
 25 28  2  0
 28 29  1  0
 12 30  2  0
 30 31  1  0
 31 32  1  0
 32 33  1  0
 33 34  2  0
 33 35  1  0
 30 36  1  0
 36 37  1  0
  8  3  1  0
 36 10  2  0
 24  6  1  0
 28 21  1  0
M  CHG  3   7   1  24   1  35  -1
M  END
>  <Compound_ID>  (112) 
C12504520

>  <Active>  (112) 
0

>  <Smiles>  (112) 
C=CC1=C(C)c2[nH+]c1cc1[nH]c(ccnc(C(=C)C)cc3[nH]c([o+]2)c(C=C)c3C)c(CCC(=O)[O-])c1C

>  <canonical_smi>  (112) 
C=CC1=C(C)c2[nH+]c1cc1[nH]c(ccnc(C(=C)C)cc3[nH]c([o+]2)c(C=C)c3C)c(CCC(=O)[O-])c1C

>  <Set>  (112) 
G2 inactive

>  <Set_type>  (112) 
Train

>  <MW>  (112) 
495.6

>  <HBD>  (112) 
2

>  <HBA>  (112) 
4

>  <NRB>  (112) 
6

>  <NR>  (112) 
4

>  <NAR>  (112) 
3

>  <PSA>  (112) 
110.04

>  <Standard Type>  (112) 
nan

>  <Standard Relation>  (112) 
nan

>  <Standard Units>  (112) 
nan

>  <Standard Value>  (112) 
nan

>  <Assay ChEMBL ID>  (112) 
nan

>  <Assay Description>  (112) 
nan

>  <BAO Label>  (112) 
nan

$$$$

     RDKit          2D

 37 42  0  0  0  0  0  0  0  0999 V2000
    3.0000  -10.3923    0.0000 C   0  0  0  0  0  0  0  0  0  0  0  0
    3.7500   -9.0933    0.0000 O   0  0  0  0  0  0  0  0  0  0  0  0
    3.0000   -7.7942    0.0000 C   0  0  0  0  0  0  0  0  0  0  0  0
    1.5000   -7.7942    0.0000 C   0  0  0  0  0  0  0  0  0  0  0  0
    0.7500   -6.4952    0.0000 C   0  0  0  0  0  0  0  0  0  0  0  0
    1.5000   -5.1962    0.0000 C   0  0  0  0  0  0  0  0  0  0  0  0
    0.7500   -3.8971    0.0000 C   0  0  0  0  0  0  0  0  0  0  0  0
    1.5000   -2.5981    0.0000 N   0  0  0  0  0  0  0  0  0  0  0  0
    0.7500   -1.2990    0.0000 C   0  0  0  0  0  0  0  0  0  0  0  0
    1.5000    0.0000    0.0000 C   0  0  0  0  0  0  0  0  0  0  0  0
    0.7500    1.2990    0.0000 C   0  0  0  0  0  0  0  0  0  0  0  0
   -0.7500    1.2990    0.0000 C   0  0  0  0  0  0  0  0  0  0  0  0
   -1.5000    0.0000    0.0000 C   0  0  0  0  0  0  0  0  0  0  0  0
   -0.7500   -1.2990    0.0000 C   0  0  0  0  0  0  0  0  0  0  0  0
   -1.5000   -2.5981    0.0000 C   0  0  0  0  0  0  0  0  0  0  0  0
   -3.0000   -2.5981    0.0000 O   0  0  0  0  0  0  0  0  0  0  0  0
   -0.7500   -3.8971    0.0000 N   0  0  0  0  0  0  0  0  0  0  0  0
   -1.5000   -5.1962    0.0000 C   0  0  0  0  0  0  0  0  0  0  0  0
   -0.7500   -6.4952    0.0000 C   0  0  0  0  0  0  0  0  0  0  0  0
   -1.5000   -7.7942    0.0000 C   0  0  0  0  0  0  0  0  0  0  0  0
   -3.0000   -7.7942    0.0000 C   0  0  0  0  0  0  0  0  0  0  0  0
   -3.7500   -6.4952    0.0000 C   0  0  0  0  0  0  0  0  0  0  0  0
   -5.2500   -6.4952    0.0000 C   0  0  0  0  0  0  0  0  0  0  0  0
   -6.0000   -5.1962    0.0000 C   0  0  0  0  0  0  0  0  0  0  0  0
   -5.2500   -3.8971    0.0000 C   0  0  0  0  0  0  0  0  0  0  0  0
   -3.7500   -3.8971    0.0000 C   0  0  0  0  0  0  0  0  0  0  0  0
   -3.0000   -5.1962    0.0000 C   0  0  0  0  0  0  0  0  0  0  0  0
    3.0000   -5.1962    0.0000 C   0  0  0  0  0  0  0  0  0  0  0  0
    3.7500   -6.4952    0.0000 C   0  0  0  0  0  0  0  0  0  0  0  0
    5.2500   -6.4952    0.0000 C   0  0  0  0  0  0  0  0  0  0  0  0
    6.0000   -5.1962    0.0000 O   0  0  0  0  0  0  0  0  0  0  0  0
    7.5000   -5.1962    0.0000 C   0  0  0  0  0  0  0  0  0  0  0  0
    8.2500   -6.4952    0.0000 C   0  0  0  0  0  0  0  0  0  0  0  0
    9.7500   -6.4952    0.0000 C   0  0  0  0  0  0  0  0  0  0  0  0
   10.5000   -5.1962    0.0000 C   0  0  0  0  0  0  0  0  0  0  0  0
    9.7500   -3.8971    0.0000 C   0  0  0  0  0  0  0  0  0  0  0  0
    8.2500   -3.8971    0.0000 N   0  0  0  0  0  0  0  0  0  0  0  0
  1  2  1  0
  2  3  1  0
  3  4  2  0
  4  5  1  0
  5  6  2  0
  7  6  1  6
  7  8  1  0
  8  9  1  0
  9 10  2  0
 10 11  1  0
 11 12  2  0
 12 13  1  0
 13 14  2  0
 14 15  1  0
 15 16  2  0
 15 17  1  0
 17 18  1  0
 18 19  2  0
 19 20  1  0
 20 21  2  0
 21 22  1  0
 22 23  2  0
 23 24  1  0
 24 25  2  0
 25 26  1  0
 26 27  2  0
  6 28  1  0
 28 29  2  0
 29 30  1  0
 30 31  1  0
 31 32  1  0
 32 33  2  0
 33 34  1  0
 34 35  2  0
 35 36  1  0
 36 37  2  0
 29  3  1  0
 37 32  1  0
 17  7  1  0
 27 18  1  0
 14  9  1  0
 27 22  1  0
M  END
>  <Compound_ID>  (113) 
C27833295

>  <Active>  (113) 
0

>  <Smiles>  (113) 
COc1ccc([C@H]2Nc3ccccc3C(=O)N2c2cccc3ccccc23)cc1COc1ccccn1

>  <canonical_smi>  (113) 
COc1ccc([C@H]2Nc3ccccc3C(=O)N2c2cccc3ccccc23)cc1COc1ccccn1

>  <Set>  (113) 
G2 inactive

>  <Set_type>  (113) 
Train

>  <MW>  (113) 
487.56

>  <HBD>  (113) 
1

>  <HBA>  (113) 
5

>  <NRB>  (113) 
6

>  <NR>  (113) 
6

>  <NAR>  (113) 
5

>  <PSA>  (113) 
63.69

>  <Standard Type>  (113) 
nan

>  <Standard Relation>  (113) 
nan

>  <Standard Units>  (113) 
nan

>  <Standard Value>  (113) 
nan

>  <Assay ChEMBL ID>  (113) 
nan

>  <Assay Description>  (113) 
nan

>  <BAO Label>  (113) 
nan

$$$$

     RDKit          2D

 36 40  0  0  0  0  0  0  0  0999 V2000
   -7.0467   -7.8769    0.0000 C   0  0  0  0  0  0  0  0  0  0  0  0
   -5.6201   -7.4134    0.0000 C   0  0  0  0  0  0  0  0  0  0  0  0
   -5.3083   -5.9462    0.0000 C   0  0  0  0  0  0  0  0  0  0  0  0
   -6.8000   -5.7894    0.0000 C   0  0  0  0  0  0  0  0  0  0  0  0
   -7.4102   -4.4190    0.0000 C   0  0  0  0  0  0  0  0  0  0  0  0
   -8.9019   -4.2622    0.0000 C   0  0  0  0  0  0  0  0  0  0  0  0
   -9.7836   -5.4758    0.0000 N   0  0  0  0  0  4  0  0  0  0  0  0
  -11.2754   -5.3190    0.0000 C   0  0  0  0  0  0  0  0  0  0  0  0
  -11.8855   -3.9487    0.0000 C   0  0  0  0  0  0  0  0  0  0  0  0
  -11.0038   -2.7351    0.0000 C   0  0  0  0  0  0  0  0  0  0  0  0
  -13.3773   -3.7919    0.0000 C   0  0  0  0  0  0  0  0  0  0  0  0
  -13.9874   -2.4216    0.0000 C   0  0  0  0  0  0  0  0  0  0  0  0
  -13.1057   -1.2080    0.0000 C   0  0  0  0  0  0  0  0  0  0  0  0
  -13.7158    0.1623    0.0000 C   0  0  0  0  0  0  0  0  0  0  0  0
  -15.2076    0.3191    0.0000 C   0  0  0  0  0  0  0  0  0  0  0  0
  -16.0893   -0.8944    0.0000 C   0  0  0  0  0  0  0  0  0  0  0  0
  -15.4792   -2.2648    0.0000 C   0  0  0  0  0  0  0  0  0  0  0  0
   -9.1735   -6.8461    0.0000 C   0  0  0  0  0  0  0  0  0  0  0  0
   -7.6817   -7.0029    0.0000 C   0  0  0  0  0  0  0  0  0  0  0  0
   -5.3083   -4.4462    0.0000 N   0  0  0  0  0  0  0  0  0  0  0  0
   -3.8817   -3.9826    0.0000 C   0  0  0  0  0  0  0  0  0  0  0  0
   -3.4182   -2.5560    0.0000 O   0  0  0  0  0  0  0  0  0  0  0  0
   -3.0000   -5.1962    0.0000 N   0  0  0  0  0  0  0  0  0  0  0  0
   -1.5000   -5.1962    0.0000 C   0  0  0  0  0  0  0  0  0  0  0  0
   -0.7500   -3.8971    0.0000 C   0  0  0  0  0  0  0  0  0  0  0  0
    0.7500   -3.8971    0.0000 C   0  0  0  0  0  0  0  0  0  0  0  0
    1.5000   -2.5981    0.0000 O   0  0  0  0  0  0  0  0  0  0  0  0
    0.7500   -1.2990    0.0000 C   0  0  0  0  0  0  0  0  0  0  0  0
    1.5000    0.0000    0.0000 C   0  0  0  0  0  0  0  0  0  0  0  0
    0.7500    1.2990    0.0000 C   0  0  0  0  0  0  0  0  0  0  0  0
   -0.7500    1.2990    0.0000 C   0  0  0  0  0  0  0  0  0  0  0  0
   -1.5000    0.0000    0.0000 C   0  0  0  0  0  0  0  0  0  0  0  0
   -0.7500   -1.2990    0.0000 C   0  0  0  0  0  0  0  0  0  0  0  0
   -1.5000   -2.5981    0.0000 O   0  0  0  0  0  0  0  0  0  0  0  0
   -3.8817   -6.4097    0.0000 C   0  0  0  0  0  0  0  0  0  0  0  0
   -3.4182   -7.8363    0.0000 O   0  0  0  0  0  0  0  0  0  0  0  0
  1  2  1  0
  3  2  1  1
  3  4  1  0
  4  5  1  0
  5  6  1  0
  6  7  1  0
  7  8  1  0
  8  9  1  0
  9 10  1  0
  9 11  2  0
 11 12  1  0
 12 13  2  0
 13 14  1  0
 14 15  2  0
 15 16  1  0
 16 17  2  0
  7 18  1  0
 18 19  1  0
  3 20  1  0
 20 21  1  0
 21 22  2  0
 21 23  1  0
 23 24  1  0
 25 24  1  1
 25 26  1  0
 26 27  1  0
 27 28  1  0
 28 29  2  0
 29 30  1  0
 30 31  2  0
 31 32  1  0
 32 33  2  0
 33 34  1  0
 23 35  1  0
 35 36  2  0
 35  3  1  0
 19  4  1  0
 34 25  1  0
 17 12  1  0
 33 28  1  0
M  CHG  1   7   1
M  END
>  <Compound_ID>  (114) 
C12038092

>  <Active>  (114) 
0

>  <Smiles>  (114) 
CC[C@@]1(C2CC[NH+](C/C(C)=C/c3ccccc3)CC2)NC(=O)N(C[C@@H]2COc3ccccc3O2)C1=O

>  <canonical_smi>  (114) 
CC[C@@]1(C2CC[NH+](C/C(C)=C/c3ccccc3)CC2)NC(=O)N(C[C@@H]2COc3ccccc3O2)C1=O

>  <Set>  (114) 
G2 inactive

>  <Set_type>  (114) 
Train

>  <MW>  (114) 
490.62

>  <HBD>  (114) 
2

>  <HBA>  (114) 
4

>  <NRB>  (114) 
7

>  <NR>  (114) 
5

>  <NAR>  (114) 
2

>  <PSA>  (114) 
72.31

>  <Standard Type>  (114) 
nan

>  <Standard Relation>  (114) 
nan

>  <Standard Units>  (114) 
nan

>  <Standard Value>  (114) 
nan

>  <Assay ChEMBL ID>  (114) 
nan

>  <Assay Description>  (114) 
nan

>  <BAO Label>  (114) 
nan

$$$$

     RDKit          2D

 35 40  0  0  0  0  0  0  0  0999 V2000
    5.2500   -9.0933    0.0000 C   0  0  0  0  0  0  0  0  0  0  0  0
    3.7500   -9.0933    0.0000 O   0  0  0  0  0  0  0  0  0  0  0  0
    3.0000   -7.7942    0.0000 C   0  0  0  0  0  0  0  0  0  0  0  0
    1.5000   -7.7942    0.0000 C   0  0  0  0  0  0  0  0  0  0  0  0
    0.7500   -6.4952    0.0000 C   0  0  0  0  0  0  0  0  0  0  0  0
    1.5000   -5.1962    0.0000 C   0  0  0  0  0  0  0  0  0  0  0  0
    0.7500   -3.8971    0.0000 C   0  0  0  0  0  0  0  0  0  0  0  0
    1.5000   -2.5981    0.0000 O   0  0  0  0  0  0  0  0  0  0  0  0
    0.7500   -1.2990    0.0000 C   0  0  0  0  0  0  0  0  0  0  0  0
    1.5000    0.0000    0.0000 C   0  0  0  0  0  0  0  0  0  0  0  0
    0.7500    1.2990    0.0000 C   0  0  0  0  0  0  0  0  0  0  0  0
   -0.7500    1.2990    0.0000 C   0  0  0  0  0  0  0  0  0  0  0  0
   -1.5000    0.0000    0.0000 C   0  0  0  0  0  0  0  0  0  0  0  0
   -0.7500   -1.2990    0.0000 C   0  0  0  0  0  0  0  0  0  0  0  0
   -1.5000   -2.5981    0.0000 C   0  0  0  0  0  0  0  0  0  0  0  0
   -0.7500   -3.8971    0.0000 C   0  0  0  0  0  0  0  0  0  0  0  0
   -1.5000   -5.1962    0.0000 C   0  0  0  0  0  0  0  0  0  0  0  0
   -0.7500   -6.4952    0.0000 C   0  0  0  0  0  0  0  0  0  0  0  0
   -1.5000   -7.7942    0.0000 C   0  0  0  0  0  0  0  0  0  0  0  0
   -0.7500   -9.0933    0.0000 C   0  0  0  0  0  0  0  0  0  0  0  0
    0.7500   -9.0933    0.0000 C   0  0  0  0  0  0  0  0  0  0  0  0
    1.5000  -10.3923    0.0000 O   0  0  0  0  0  0  0  0  0  0  0  0
    0.7500  -11.6913    0.0000 C   0  0  0  0  0  0  0  0  0  0  0  0
    1.5000   -7.7942    0.0000 C   0  0  0  0  0  0  0  0  0  0  0  0
    0.7500   -6.4952    0.0000 C   0  0  0  0  0  0  0  0  0  0  0  0
   -3.0000   -5.1962    0.0000 N   0  0  0  0  0  0  0  0  0  0  0  0
   -4.0037   -6.3109    0.0000 N   0  0  0  0  0  0  0  0  0  0  0  0
   -5.3740   -5.7008    0.0000 C   0  0  0  0  0  0  0  0  0  0  0  0
   -6.6731   -6.4508    0.0000 S   0  0  0  0  0  0  0  0  0  0  0  0
   -7.9721   -5.7008    0.0000 C   0  0  0  0  0  0  0  0  0  0  0  0
   -5.2172   -4.2090    0.0000 N   0  0  0  0  0  0  0  0  0  0  0  0
   -3.7500   -3.8971    0.0000 C   0  0  0  0  0  0  0  0  0  0  0  0
   -3.0000   -2.5981    0.0000 N   0  0  0  0  0  4  0  0  0  0  0  0
    3.0000   -5.1962    0.0000 C   0  0  0  0  0  0  0  0  0  0  0  0
    3.7500   -6.4952    0.0000 C   0  0  0  0  0  0  0  0  0  0  0  0
  1  2  1  0
  2  3  1  0
  3  4  2  0
  4  5  1  0
  5  6  2  0
  7  6  1  1
  7  8  1  0
  8  9  1  0
  9 10  2  0
 10 11  1  0
 11 12  2  0
 12 13  1  0
 13 14  2  0
 14 15  1  0
 15 16  2  0
 16 17  1  0
 17 18  1  1
 18 19  2  0
 19 20  1  0
 20 21  2  0
 21 22  1  0
 22 23  1  0
 21 24  1  0
 24 25  2  0
 17 26  1  0
 26 27  1  0
 27 28  1  0
 28 29  1  0
 29 30  1  0
 28 31  2  0
 31 32  1  0
 32 33  2  0
  6 34  1  0
 34 35  2  0
 35  3  1  0
 16  7  1  0
 25 18  1  0
 32 26  1  0
 14  9  1  0
 33 15  1  0
M  CHG  1  33   1
M  END
>  <Compound_ID>  (115) 
C02251847

>  <Active>  (115) 
0

>  <Smiles>  (115) 
COc1ccc([C@@H]2Oc3ccccc3C3=C2[C@@H](c2ccc(OC)cc2)N2NC(SC)=NC2=[NH+]3)cc1

>  <canonical_smi>  (115) 
COc1ccc([C@@H]2Oc3ccccc3C3=C2[C@@H](c2ccc(OC)cc2)N2NC(SC)=NC2=[NH+]3)cc1

>  <Set>  (115) 
G2 inactive

>  <Set_type>  (115) 
Train

>  <MW>  (115) 
485.59

>  <HBD>  (115) 
2

>  <HBA>  (115) 
6

>  <NRB>  (115) 
4

>  <NR>  (115) 
6

>  <NAR>  (115) 
3

>  <PSA>  (115) 
69.29

>  <Standard Type>  (115) 
nan

>  <Standard Relation>  (115) 
nan

>  <Standard Units>  (115) 
nan

>  <Standard Value>  (115) 
nan

>  <Assay ChEMBL ID>  (115) 
nan

>  <Assay Description>  (115) 
nan

>  <BAO Label>  (115) 
nan

$$$$

     RDKit          2D

 31 34  0  0  0  0  0  0  0  0999 V2000
    0.2010   -3.3481    0.0000 O   0  0  0  0  0  0  0  0  0  0  0  0
    1.5000   -2.5981    0.0000 S   0  0  0  0  0  0  0  0  0  0  0  0
    2.7990   -1.8481    0.0000 O   0  0  0  0  0  0  0  0  0  0  0  0
    0.7500   -1.2990    0.0000 C   0  0  0  0  0  0  0  0  0  0  0  0
    1.5000    0.0000    0.0000 C   0  0  0  0  0  0  0  0  0  0  0  0
    0.7500    1.2990    0.0000 C   0  0  0  0  0  0  0  0  0  0  0  0
   -0.7500    1.2990    0.0000 C   0  0  0  0  0  0  0  0  0  0  0  0
   -1.5000    0.0000    0.0000 C   0  0  0  0  0  0  0  0  0  0  0  0
   -3.0000    0.0000    0.0000 C   0  0  0  0  0  0  0  0  0  0  0  0
   -3.8817   -1.2135    0.0000 C   0  0  0  0  0  0  0  0  0  0  0  0
   -5.3083   -0.7500    0.0000 S   0  0  0  0  0  0  0  0  0  0  0  0
   -5.3083    0.7500    0.0000 C   0  0  0  0  0  0  0  0  0  0  0  0
   -6.5218    1.6317    0.0000 N   0  0  0  0  0  0  0  0  0  0  0  0
   -6.3650    3.1235    0.0000 N   0  0  0  0  0  0  0  0  0  0  0  0
   -7.5785    4.0051    0.0000 C   0  0  0  0  0  0  0  0  0  0  0  0
   -7.4217    5.4969    0.0000 C   0  0  0  0  0  0  0  0  0  0  0  0
   -6.0514    6.1070    0.0000 C   0  0  0  0  0  0  0  0  0  0  0  0
   -5.8946    7.5988    0.0000 C   0  0  0  0  0  0  0  0  0  0  0  0
   -7.1081    8.4805    0.0000 C   0  0  0  0  0  0  0  0  0  0  0  0
   -6.9514    9.9723    0.0000 Cl  0  0  0  0  0  0  0  0  0  0  0  0
   -8.4785    7.8704    0.0000 C   0  0  0  0  0  0  0  0  0  0  0  0
   -8.6353    6.3786    0.0000 C   0  0  0  0  0  0  0  0  0  0  0  0
  -10.0056    5.7685    0.0000 Cl  0  0  0  0  0  0  0  0  0  0  0  0
   -3.8817    1.2135    0.0000 N   0  0  0  0  0  0  0  0  0  0  0  0
   -0.7500   -1.2990    0.0000 C   0  0  0  0  0  0  0  0  0  0  0  0
    2.2500   -3.8971    0.0000 N   0  0  0  0  0  0  0  0  0  0  0  0
    1.5000   -5.1962    0.0000 C   0  0  0  0  0  0  0  0  0  0  0  0
    2.2500   -6.4952    0.0000 C   0  0  0  0  0  0  0  0  0  0  0  0
    3.7500   -6.4952    0.0000 O   0  0  0  0  0  0  0  0  0  0  0  0
    4.5000   -5.1962    0.0000 C   0  0  0  0  0  0  0  0  0  0  0  0
    3.7500   -3.8971    0.0000 C   0  0  0  0  0  0  0  0  0  0  0  0
  1  2  2  0
  2  3  2  0
  2  4  1  0
  4  5  2  0
  5  6  1  0
  6  7  2  0
  7  8  1  0
  8  9  1  0
  9 10  2  0
 10 11  1  0
 11 12  1  0
 12 13  2  0
 13 14  1  0
 14 15  2  0
 15 16  1  0
 16 17  2  0
 17 18  1  0
 18 19  2  0
 19 20  1  0
 19 21  1  0
 21 22  2  0
 22 23  1  0
 12 24  1  0
  8 25  2  0
  2 26  1  0
 26 27  1  0
 27 28  1  0
 28 29  1  0
 29 30  1  0
 30 31  1  0
 25  4  1  0
 31 26  1  0
 24  9  1  0
 22 16  1  0
M  END
>  <Compound_ID>  (116) 
C09303549

>  <Active>  (116) 
0

>  <Smiles>  (116) 
O=S(=O)(c1cccc(-c2cs/c(=N/N=C/c3ccc(Cl)cc3Cl)[nH]2)c1)N1CCOCC1

>  <canonical_smi>  (116) 
O=S(=O)(c1cccc(-c2cs/c(=N/N=C/c3ccc(Cl)cc3Cl)[nH]2)c1)N1CCOCC1

>  <Set>  (116) 
G2 inactive

>  <Set_type>  (116) 
Train

>  <MW>  (116) 
497.43

>  <HBD>  (116) 
1

>  <HBA>  (116) 
3

>  <NRB>  (116) 
5

>  <NR>  (116) 
4

>  <NAR>  (116) 
3

>  <PSA>  (116) 
87.12

>  <Standard Type>  (116) 
nan

>  <Standard Relation>  (116) 
nan

>  <Standard Units>  (116) 
nan

>  <Standard Value>  (116) 
nan

>  <Assay ChEMBL ID>  (116) 
nan

>  <Assay Description>  (116) 
nan

>  <BAO Label>  (116) 
nan

$$$$

     RDKit          2D

 27 30  0  0  0  0  0  0  0  0999 V2000
   -1.5000  -10.3923    0.0000 C   0  0  0  0  0  0  0  0  0  0  0  0
   -0.7500   -9.0933    0.0000 C   0  0  0  0  0  0  0  0  0  0  0  0
    0.7500   -9.0933    0.0000 C   0  0  0  0  0  0  0  0  0  0  0  0
    1.5000  -10.3923    0.0000 C   0  0  0  0  0  0  0  0  0  0  0  0
    1.5000   -7.7942    0.0000 S   0  0  0  0  0  0  0  0  0  0  0  0
    0.7500   -6.4952    0.0000 C   0  0  0  0  0  0  0  0  0  0  0  0
    1.5000   -5.1962    0.0000 N   0  0  0  0  0  0  0  0  0  0  0  0
    0.7500   -3.8971    0.0000 C   0  0  0  0  0  0  0  0  0  0  0  0
   -0.7500   -3.8971    0.0000 C   0  0  0  0  0  0  0  0  0  0  0  0
   -1.5000   -5.1962    0.0000 C   0  0  0  0  0  0  0  0  0  0  0  0
   -3.0000   -5.1962    0.0000 O   0  0  0  0  0  0  0  0  0  0  0  0
   -0.7500   -6.4952    0.0000 N   0  0  0  0  0  0  0  0  0  0  0  0
   -1.5000   -2.5981    0.0000 C   0  0  0  0  0  0  0  0  0  0  0  0
   -3.0000   -2.5981    0.0000 C   0  0  0  0  0  0  0  0  0  0  0  0
   -3.7500   -1.2990    0.0000 C   0  0  0  0  0  0  0  0  0  0  0  0
   -5.2500   -1.2990    0.0000 C   0  0  0  0  0  0  0  0  0  0  0  0
   -6.0000   -2.5981    0.0000 C   0  0  0  0  0  0  0  0  0  0  0  0
   -5.2500   -3.8971    0.0000 N   0  0  0  0  0  0  0  0  0  0  0  0
   -3.7500   -3.8971    0.0000 C   0  0  0  0  0  0  0  0  0  0  0  0
   -0.7500   -1.2990    0.0000 C   0  0  0  0  0  0  0  0  0  0  0  0
    0.7500   -1.2990    0.0000 C   0  0  0  0  0  0  0  0  0  0  0  0
    1.5000    0.0000    0.0000 C   0  0  0  0  0  0  0  0  0  0  0  0
    0.7500    1.2990    0.0000 C   0  0  0  0  0  0  0  0  0  0  0  0
   -0.7500    1.2990    0.0000 C   0  0  0  0  0  0  0  0  0  0  0  0
   -1.5000    0.0000    0.0000 C   0  0  0  0  0  0  0  0  0  0  0  0
   -3.0000    0.0000    0.0000 O   0  0  0  0  0  0  0  0  0  0  0  0
    1.5000   -2.5981    0.0000 N   0  0  0  0  0  0  0  0  0  0  0  0
  1  2  1  0
  2  3  1  0
  3  4  1  1
  3  5  1  0
  5  6  1  0
  6  7  2  0
  7  8  1  0
  8  9  2  0
  9 10  1  0
 10 11  2  0
 10 12  1  0
  9 13  1  0
 13 14  1  6
 14 15  2  0
 15 16  1  0
 16 17  2  0
 17 18  1  0
 18 19  2  0
 13 20  1  0
 20 21  2  0
 21 22  1  0
 22 23  1  0
 23 24  1  0
 24 25  1  0
 25 26  2  0
 21 27  1  0
 12  6  1  0
 19 14  1  0
 25 20  1  0
 27  8  1  0
M  END
>  <Compound_ID>  (117) 
C05931417

>  <Active>  (117) 
0

>  <Smiles>  (117) 
CC[C@H](C)Sc1nc2c(c(=O)[nH]1)[C@H](c1cccnc1)C1=C(CCCC1=O)N2

>  <canonical_smi>  (117) 
CC[C@H](C)Sc1nc2c(c(=O)[nH]1)[C@H](c1cccnc1)C1=C(CCCC1=O)N2

>  <Set>  (117) 
G2 inactive

>  <Set_type>  (117) 
Train

>  <MW>  (117) 
382.49

>  <HBD>  (117) 
2

>  <HBA>  (117) 
6

>  <NRB>  (117) 
4

>  <NR>  (117) 
4

>  <NAR>  (117) 
2

>  <PSA>  (117) 
87.74

>  <Standard Type>  (117) 
nan

>  <Standard Relation>  (117) 
nan

>  <Standard Units>  (117) 
nan

>  <Standard Value>  (117) 
nan

>  <Assay ChEMBL ID>  (117) 
nan

>  <Assay Description>  (117) 
nan

>  <BAO Label>  (117) 
nan

$$$$

     RDKit          2D

 33 35  0  0  0  0  0  0  0  0999 V2000
    9.7500   -3.8971    0.0000 C   0  0  0  0  0  0  0  0  0  0  0  0
    8.2500   -3.8971    0.0000 C   0  0  0  0  0  0  0  0  0  0  0  0
    7.5000   -2.5981    0.0000 O   0  0  0  0  0  0  0  0  0  0  0  0
    6.0000   -2.5981    0.0000 C   0  0  0  0  0  0  0  0  0  0  0  0
    5.2500   -3.8971    0.0000 C   0  0  0  0  0  0  0  0  0  0  0  0
    3.7500   -3.8971    0.0000 C   0  0  0  0  0  0  0  0  0  0  0  0
    3.0000   -2.5981    0.0000 C   0  0  0  0  0  0  0  0  0  0  0  0
    1.5000   -2.5981    0.0000 C   0  0  0  0  0  0  0  0  0  0  0  0
    0.7500   -1.2990    0.0000 C   0  0  0  0  0  0  0  0  0  0  0  0
    1.5000    0.0000    0.0000 C   0  0  0  0  0  0  0  0  0  0  0  0
    0.7500    1.2990    0.0000 C   0  0  0  0  0  0  0  0  0  0  0  0
    1.5000    2.5981    0.0000 C   0  0  0  0  0  0  0  0  0  0  0  0
    2.7990    1.8481    0.0000 C   0  0  0  0  0  0  0  0  0  0  0  0
    0.2010    3.3481    0.0000 C   0  0  0  0  0  0  0  0  0  0  0  0
    2.2500    3.8971    0.0000 C   0  0  0  0  0  0  0  0  0  0  0  0
   -0.7500    1.2990    0.0000 C   0  0  0  0  0  0  0  0  0  0  0  0
   -1.5000    0.0000    0.0000 C   0  0  0  0  0  0  0  0  0  0  0  0
   -0.7500   -1.2990    0.0000 C   0  0  0  0  0  0  0  0  0  0  0  0
   -1.5000   -2.5981    0.0000 C   0  0  0  0  0  0  0  0  0  0  0  0
   -3.0000   -2.5981    0.0000 C   0  0  0  0  0  0  0  0  0  0  0  0
   -4.5000   -2.5981    0.0000 N   0  0  0  0  0  0  0  0  0  0  0  0
   -0.7500   -3.8971    0.0000 C   0  0  0  0  0  0  0  0  0  0  0  0
   -1.5000   -5.1962    0.0000 N   0  0  0  0  0  0  0  0  0  0  0  0
    0.7500   -3.8971    0.0000 C   0  0  0  0  0  0  0  0  0  0  0  0
    2.1595   -4.4101    0.0000 C   0  0  0  0  0  0  0  0  0  0  0  0
    3.5691   -4.9232    0.0000 N   0  0  0  0  0  0  0  0  0  0  0  0
    0.4895   -5.3743    0.0000 C   0  0  0  0  0  0  0  0  0  0  0  0
    0.2291   -6.8515    0.0000 N   0  0  0  0  0  0  0  0  0  0  0  0
    3.7500   -1.2990    0.0000 C   0  0  0  0  0  0  0  0  0  0  0  0
    5.2500   -1.2990    0.0000 C   0  0  0  0  0  0  0  0  0  0  0  0
    6.0000   -0.0000    0.0000 O   0  0  0  0  0  0  0  0  0  0  0  0
    7.5000   -0.0000    0.0000 C   0  0  0  0  0  0  0  0  0  0  0  0
    8.2500    1.2990    0.0000 C   0  0  0  0  0  0  0  0  0  0  0  0
  1  2  1  0
  2  3  1  0
  3  4  1  0
  4  5  2  0
  5  6  1  0
  6  7  2  0
  8  7  1  1
  8  9  1  0
  9 10  1  6
 10 11  1  0
 11 12  1  6
 12 13  1  0
 12 14  1  0
 12 15  1  0
 11 16  1  0
 16 17  1  0
 17 18  2  0
 18 19  1  0
 19 20  1  0
 20 21  3  0
 19 22  2  0
 22 23  1  0
 22 24  1  0
 24 25  1  0
 25 26  3  0
 24 27  1  0
 27 28  3  0
  7 29  1  0
 29 30  2  0
 30 31  1  0
 31 32  1  0
 32 33  1  0
 30  4  1  0
 24  8  1  0
 18  9  1  0
M  END
>  <Compound_ID>  (118) 
C01301430

>  <Active>  (118) 
0

>  <Smiles>  (118) 
CCOc1ccc([C@@H]2[C@H]3C[C@@H](C(C)(C)C)CC=C3C(C#N)=C(N)C2(C#N)C#N)cc1OCC

>  <canonical_smi>  (118) 
CCOc1ccc([C@@H]2[C@H]3C[C@@H](C(C)(C)C)CC=C3C(C#N)=C(N)C2(C#N)C#N)cc1OCC

>  <Set>  (118) 
G2 inactive

>  <Set_type>  (118) 
Train

>  <MW>  (118) 
444.58

>  <HBD>  (118) 
1

>  <HBA>  (118) 
6

>  <NRB>  (118) 
5

>  <NR>  (118) 
3

>  <NAR>  (118) 
1

>  <PSA>  (118) 
115.85

>  <Standard Type>  (118) 
nan

>  <Standard Relation>  (118) 
nan

>  <Standard Units>  (118) 
nan

>  <Standard Value>  (118) 
nan

>  <Assay ChEMBL ID>  (118) 
nan

>  <Assay Description>  (118) 
nan

>  <BAO Label>  (118) 
nan

$$$$

     RDKit          2D

 32 34  0  0  0  0  0  0  0  0999 V2000
    2.2500   -7.9952    0.0000 C   0  0  0  0  0  0  0  0  0  0  0  0
    0.7500   -7.9952    0.0000 C   0  0  0  0  0  0  0  0  0  0  0  0
   -0.0000   -6.6962    0.0000 N   0  0  0  0  0  0  0  0  0  0  0  0
   -1.2990   -5.9462    0.0000 C   0  0  0  0  0  0  0  0  0  0  0  0
   -2.3600   -6.2108    0.0000 C   0  0  0  0  0  0  0  0  0  0  0  0
   -0.0000   -5.1962    0.0000 N   0  0  0  0  0  0  0  0  0  0  0  0
    0.7500   -3.8971    0.0000 P   0  0  0  0  0  0  0  0  0  0  0  0
    2.0490   -4.6471    0.0000 S   0  0  0  0  0  0  0  0  0  0  0  0
    1.5000   -2.5981    0.0000 O   0  0  0  0  0  0  0  0  0  0  0  0
    0.7500   -1.2990    0.0000 C   0  0  0  0  0  0  0  0  0  0  0  0
    1.5000    0.0000    0.0000 C   0  0  0  0  0  0  0  0  0  0  0  0
    0.7500    1.2990    0.0000 C   0  0  0  0  0  0  0  0  0  0  0  0
    0.4895    2.7762    0.0000 C   0  0  0  0  0  0  0  0  0  0  0  0
    2.1595    1.8121    0.0000 C   0  0  0  0  0  0  0  0  0  0  0  0
   -0.7500    1.2990    0.0000 N   0  0  0  0  0  0  0  0  0  0  0  0
   -1.5000    2.5981    0.0000 O   0  0  0  0  0  0  0  0  0  0  0  0
   -1.5000    0.0000    0.0000 C   0  0  0  0  0  0  0  0  0  0  0  0
   -2.6491   -0.9642    0.0000 C   0  0  0  0  0  0  0  0  0  0  0  0
   -2.6491    0.9642    0.0000 C   0  0  0  0  0  0  0  0  0  0  0  0
   -0.7500   -1.2990    0.0000 C   0  0  0  0  0  0  0  0  0  0  0  0
   -0.5490   -3.1471    0.0000 O   0  0  0  0  0  0  0  0  0  0  0  0
   -1.8481   -3.8971    0.0000 C   0  0  0  0  0  0  0  0  0  0  0  0
   -3.1471   -3.1471    0.0000 C   0  0  0  0  0  0  0  0  0  0  0  0
   -4.4462   -3.8971    0.0000 C   0  0  0  0  0  0  0  0  0  0  0  0
   -5.9234   -4.1576    0.0000 C   0  0  0  0  0  0  0  0  0  0  0  0
   -4.9592   -2.4876    0.0000 C   0  0  0  0  0  0  0  0  0  0  0  0
   -4.4462   -5.3971    0.0000 N   0  0  0  0  0  0  0  0  0  0  0  0
   -5.7452   -6.1471    0.0000 O   0  0  0  0  0  0  0  0  0  0  0  0
   -3.1471   -6.1471    0.0000 C   0  0  0  0  0  0  0  0  0  0  0  0
   -2.1829   -7.2962    0.0000 C   0  0  0  0  0  0  0  0  0  0  0  0
   -4.1113   -7.2962    0.0000 C   0  0  0  0  0  0  0  0  0  0  0  0
   -1.8481   -5.3971    0.0000 C   0  0  0  0  0  0  0  0  0  0  0  0
  1  2  1  0
  2  3  1  0
  3  4  1  0
  4  5  1  6
  4  6  1  0
  6  7  1  0
  7  8  2  0
  7  9  1  0
  9 10  1  0
 10 11  1  0
 11 12  1  0
 12 13  1  0
 12 14  1  0
 12 15  1  0
 15 16  1  0
 15 17  1  0
 17 18  1  0
 17 19  1  0
 17 20  1  0
  7 21  1  0
 21 22  1  0
 22 23  1  0
 23 24  1  0
 24 25  1  0
 24 26  1  0
 24 27  1  0
 27 28  1  0
 27 29  1  0
 29 30  1  0
 29 31  1  0
 29 32  1  0
  6  3  1  0
 20 10  1  0
 32 22  1  0
M  END
>  <Compound_ID>  (119) 
C17139852

>  <Active>  (119) 
0

>  <Smiles>  (119) 
CCN1[C@H](C)N1P(=S)(OC1CC(C)(C)N(O)C(C)(C)C1)OC1CC(C)(C)N(O)C(C)(C)C1

>  <canonical_smi>  (119) 
CCN1[C@H](C)N1P(=S)(OC1CC(C)(C)N(O)C(C)(C)C1)OC1CC(C)(C)N(O)C(C)(C)C1

>  <Set>  (119) 
G2 inactive

>  <Set_type>  (119) 
Train

>  <MW>  (119) 
492.67

>  <HBD>  (119) 
2

>  <HBA>  (119) 
9

>  <NRB>  (119) 
6

>  <NR>  (119) 
3

>  <NAR>  (119) 
0

>  <PSA>  (119) 
71.42

>  <Standard Type>  (119) 
nan

>  <Standard Relation>  (119) 
nan

>  <Standard Units>  (119) 
nan

>  <Standard Value>  (119) 
nan

>  <Assay ChEMBL ID>  (119) 
nan

>  <Assay Description>  (119) 
nan

>  <BAO Label>  (119) 
nan

$$$$

     RDKit          2D

 35 38  0  0  0  0  0  0  0  0999 V2000
    3.7500   -1.2990    0.0000 C   0  0  0  0  0  0  0  0  0  0  0  0
    3.0000    0.0000    0.0000 O   0  0  0  0  0  0  0  0  0  0  0  0
    1.5000    0.0000    0.0000 C   0  0  0  0  0  0  0  0  0  0  0  0
    0.7500   -1.2990    0.0000 C   0  0  0  0  0  0  0  0  0  0  0  0
   -0.7500   -1.2990    0.0000 C   0  0  0  0  0  0  0  0  0  0  0  0
   -1.5000    0.0000    0.0000 C   0  0  0  0  0  0  0  0  0  0  0  0
   -3.0000    0.0000    0.0000 C   0  0  0  0  0  0  0  0  0  0  0  0
   -3.8817   -1.2135    0.0000 N   0  0  0  0  0  0  0  0  0  0  0  0
   -5.3083   -0.7500    0.0000 N   0  0  0  0  0  0  0  0  0  0  0  0
   -5.3083    0.7500    0.0000 C   0  0  0  0  0  0  0  0  0  0  0  0
   -6.5218    1.6317    0.0000 S   0  0  0  0  0  0  0  0  0  0  0  0
   -6.3650    3.1235    0.0000 C   0  0  0  0  0  0  0  0  0  0  0  0
   -7.5785    4.0051    0.0000 C   0  0  0  0  0  0  0  0  0  0  0  0
   -8.9488    3.3950    0.0000 O   0  0  0  0  0  0  0  0  0  0  0  0
   -7.4217    5.4969    0.0000 N   0  0  0  0  0  0  0  0  0  0  0  0
   -8.6353    6.3786    0.0000 N   0  0  0  0  0  0  0  0  0  0  0  0
   -8.4785    7.8704    0.0000 C   0  0  0  0  0  0  0  0  0  0  0  0
   -9.6920    8.7521    0.0000 C   0  0  0  0  0  0  0  0  0  0  0  0
   -9.5352   10.2438    0.0000 C   0  0  0  0  0  0  0  0  0  0  0  0
  -10.7487   11.1255    0.0000 C   0  0  0  0  0  0  0  0  0  0  0  0
  -10.5919   12.6173    0.0000 Br  0  0  0  0  0  0  0  0  0  0  0  0
  -12.1190   10.5154    0.0000 C   0  0  0  0  0  0  0  0  0  0  0  0
  -12.2758    9.0236    0.0000 C   0  0  0  0  0  0  0  0  0  0  0  0
  -11.0623    8.1420    0.0000 C   0  0  0  0  0  0  0  0  0  0  0  0
  -11.2191    6.6502    0.0000 O   0  0  0  0  0  0  0  0  0  0  0  0
   -3.8817    1.2135    0.0000 N   0  0  0  0  0  0  0  0  0  0  0  0
   -3.4182    2.6401    0.0000 C   0  0  0  0  0  0  0  0  0  0  0  0
   -1.9509    2.9520    0.0000 C   0  0  0  0  0  0  0  0  0  0  0  0
   -1.4874    4.3786    0.0000 C   0  0  0  0  0  0  0  0  0  0  0  0
   -2.4911    5.4933    0.0000 C   0  0  0  0  0  0  0  0  0  0  0  0
   -2.0276    6.9199    0.0000 C   0  0  0  0  0  0  0  0  0  0  0  0
   -3.9583    5.1814    0.0000 C   0  0  0  0  0  0  0  0  0  0  0  0
   -4.4218    3.7548    0.0000 C   0  0  0  0  0  0  0  0  0  0  0  0
   -0.7500    1.2990    0.0000 C   0  0  0  0  0  0  0  0  0  0  0  0
    0.7500    1.2990    0.0000 C   0  0  0  0  0  0  0  0  0  0  0  0
  1  2  1  0
  2  3  1  0
  3  4  2  0
  4  5  1  0
  5  6  2  0
  6  7  1  0
  7  8  2  0
  8  9  1  0
  9 10  2  0
 10 11  1  0
 11 12  1  0
 12 13  1  0
 13 14  2  0
 13 15  1  0
 15 16  1  0
 16 17  2  0
 17 18  1  0
 18 19  2  0
 19 20  1  0
 20 21  1  0
 20 22  2  0
 22 23  1  0
 23 24  2  0
 24 25  1  0
 10 26  1  0
 26 27  1  0
 27 28  2  0
 28 29  1  0
 29 30  2  0
 30 31  1  0
 30 32  1  0
 32 33  2  0
  6 34  1  0
 34 35  2  0
 35  3  1  0
 26  7  1  0
 33 27  1  0
 24 18  1  0
M  END
>  <Compound_ID>  (120) 
C01873975

>  <Active>  (120) 
0

>  <Smiles>  (120) 
COc1ccc(-c2nnc(SCC(=O)N/N=C/c3cc(Br)ccc3O)n2-c2ccc(C)cc2)cc1

>  <canonical_smi>  (120) 
COc1ccc(-c2nnc(SCC(=O)N/N=C/c3cc(Br)ccc3O)n2-c2ccc(C)cc2)cc1

>  <Set>  (120) 
G2 inactive

>  <Set_type>  (120) 
Train

>  <MW>  (120) 
552.45

>  <HBD>  (120) 
2

>  <HBA>  (120) 
6

>  <NRB>  (120) 
8

>  <NR>  (120) 
4

>  <NAR>  (120) 
4

>  <PSA>  (120) 
101.63

>  <Standard Type>  (120) 
nan

>  <Standard Relation>  (120) 
nan

>  <Standard Units>  (120) 
nan

>  <Standard Value>  (120) 
nan

>  <Assay ChEMBL ID>  (120) 
nan

>  <Assay Description>  (120) 
nan

>  <BAO Label>  (120) 
nan

$$$$

     RDKit          2D

 34 38  0  0  0  0  0  0  0  0999 V2000
   -7.0505   -2.5713    0.0000 C   0  0  0  0  0  0  0  0  0  0  0  0
   -5.6239   -2.1078    0.0000 O   0  0  0  0  0  0  0  0  0  0  0  0
   -5.3120   -0.6406    0.0000 C   0  0  0  0  0  0  0  0  0  0  0  0
   -6.4268    0.3631    0.0000 C   0  0  0  0  0  0  0  0  0  0  0  0
   -6.1149    1.8303    0.0000 C   0  0  0  0  0  0  0  0  0  0  0  0
   -4.6883    2.2939    0.0000 C   0  0  0  0  0  0  0  0  0  0  0  0
   -3.5736    1.2902    0.0000 C   0  0  0  0  0  0  0  0  0  0  0  0
   -2.1470    1.7537    0.0000 C   0  0  0  0  0  0  0  0  0  0  0  0
   -1.8351    3.2209    0.0000 N   0  0  0  0  0  0  0  0  0  0  0  0
   -0.4086    3.6844    0.0000 C   0  0  0  0  0  0  0  0  0  0  0  0
   -0.0967    5.1517    0.0000 C   0  0  0  0  0  0  0  0  0  0  0  0
    1.3299    5.6152    0.0000 C   0  0  0  0  0  0  0  0  0  0  0  0
    2.4446    4.6115    0.0000 C   0  0  0  0  0  0  0  0  0  0  0  0
    3.8712    5.0750    0.0000 S   0  0  0  0  0  0  0  0  0  0  0  0
    4.3347    3.6484    0.0000 O   0  0  0  0  0  0  0  0  0  0  0  0
    3.4077    6.5016    0.0000 O   0  0  0  0  0  0  0  0  0  0  0  0
    5.2978    5.5385    0.0000 N   0  0  0  0  0  0  0  0  0  0  0  0
    5.6097    7.0058    0.0000 C   0  0  0  0  0  0  0  0  0  0  0  0
    7.0362    7.4693    0.0000 C   0  0  0  0  0  0  0  0  0  0  0  0
    8.1510    6.4656    0.0000 C   0  0  0  0  0  0  0  0  0  0  0  0
    7.3481    8.9365    0.0000 C   0  0  0  0  0  0  0  0  0  0  0  0
    6.2334    9.9402    0.0000 C   0  0  0  0  0  0  0  0  0  0  0  0
    4.8068    9.4767    0.0000 C   0  0  0  0  0  0  0  0  0  0  0  0
    4.4949    8.0095    0.0000 C   0  0  0  0  0  0  0  0  0  0  0  0
    3.0684    7.5459    0.0000 C   0  0  0  0  0  0  0  0  0  0  0  0
    2.1328    3.1443    0.0000 C   0  0  0  0  0  0  0  0  0  0  0  0
    0.7062    2.6807    0.0000 C   0  0  0  0  0  0  0  0  0  0  0  0
    0.3943    1.2135    0.0000 C   0  0  0  0  0  0  0  0  0  0  0  0
    1.2760    0.0000    0.0000 C   0  0  0  0  0  0  0  0  0  0  0  0
    0.3943   -1.2135    0.0000 C   0  0  0  0  0  0  0  0  0  0  0  0
   -1.0323   -0.7500    0.0000 C   0  0  0  0  0  0  0  0  0  0  0  0
   -1.0323    0.7500    0.0000 C   0  0  0  0  0  0  0  0  0  0  0  0
   -3.8855   -0.1771    0.0000 C   0  0  0  0  0  0  0  0  0  0  0  0
   -2.7707   -1.1807    0.0000 O   0  0  0  0  0  0  0  0  0  0  0  0
  1  2  1  0
  2  3  1  0
  3  4  2  0
  4  5  1  0
  5  6  2  0
  6  7  1  0
  8  7  1  6
  8  9  1  0
  9 10  1  0
 10 11  2  0
 11 12  1  0
 12 13  2  0
 13 14  1  0
 14 15  2  0
 14 16  2  0
 14 17  1  0
 17 18  1  0
 18 19  2  0
 19 20  1  0
 19 21  1  0
 21 22  2  0
 22 23  1  0
 23 24  2  0
 24 25  1  0
 13 26  1  0
 26 27  2  0
 27 28  1  0
 28 29  1  1
 29 30  2  0
 30 31  1  0
 32 31  1  1
  7 33  2  0
 33 34  1  0
 33  3  1  0
 32  8  1  0
 27 10  1  0
 32 28  1  0
 24 18  1  0
M  END
>  <Compound_ID>  (121) 
C14459825

>  <Active>  (121) 
0

>  <Smiles>  (121) 
COc1cccc([C@@H]2Nc3ccc(S(=O)(=O)Nc4c(C)cccc4C)cc3[C@H]3C=CC[C@H]32)c1O

>  <canonical_smi>  (121) 
COc1cccc([C@@H]2Nc3ccc(S(=O)(=O)Nc4c(C)cccc4C)cc3[C@H]3C=CC[C@H]32)c1O

>  <Set>  (121) 
G2 inactive

>  <Set_type>  (121) 
Train

>  <MW>  (121) 
476.6

>  <HBD>  (121) 
3

>  <HBA>  (121) 
5

>  <NRB>  (121) 
5

>  <NR>  (121) 
5

>  <NAR>  (121) 
3

>  <PSA>  (121) 
87.66

>  <Standard Type>  (121) 
nan

>  <Standard Relation>  (121) 
nan

>  <Standard Units>  (121) 
nan

>  <Standard Value>  (121) 
nan

>  <Assay ChEMBL ID>  (121) 
nan

>  <Assay Description>  (121) 
nan

>  <BAO Label>  (121) 
nan

$$$$

     RDKit          2D

 37 42  0  0  0  0  0  0  0  0999 V2000
    0.4113   -6.8691    0.0000 O   0  0  0  0  0  0  0  0  0  0  0  0
   -0.4704   -8.0826    0.0000 S   0  0  0  0  0  0  0  0  0  0  0  0
   -1.3521   -9.2962    0.0000 O   0  0  0  0  0  0  0  0  0  0  0  0
   -1.6839   -7.2010    0.0000 N   0  0  0  0  0  0  0  0  0  0  0  0
   -1.5271   -5.7092    0.0000 C   0  0  0  0  0  0  0  0  0  0  0  0
   -0.1568   -5.0991    0.0000 N   0  0  0  0  0  0  0  0  0  0  0  0
   -0.0000   -3.6073    0.0000 C   0  0  0  0  0  0  0  0  0  0  0  0
    1.2135   -2.7256    0.0000 N   0  0  0  0  0  0  0  0  0  0  0  0
    0.7500   -1.2990    0.0000 C   0  0  0  0  0  0  0  0  0  0  0  0
    1.5000    0.0000    0.0000 C   0  0  0  0  0  0  0  0  0  0  0  0
    0.7500    1.2990    0.0000 C   0  0  0  0  0  0  0  0  0  0  0  0
   -0.7500    1.2990    0.0000 C   0  0  0  0  0  0  0  0  0  0  0  0
   -1.5000    0.0000    0.0000 C   0  0  0  0  0  0  0  0  0  0  0  0
   -0.7500   -1.2990    0.0000 C   0  0  0  0  0  0  0  0  0  0  0  0
   -1.2135   -2.7256    0.0000 C   0  0  0  0  0  0  0  0  0  0  0  0
   -2.5838   -3.3357    0.0000 C   0  0  0  0  0  0  0  0  0  0  0  0
   -3.7974   -2.4540    0.0000 C   0  0  0  0  0  0  0  0  0  0  0  0
   -3.6406   -0.9623    0.0000 C   0  0  0  0  0  0  0  0  0  0  0  0
   -4.8541   -0.0806    0.0000 C   0  0  0  0  0  0  0  0  0  0  0  0
   -6.2244   -0.6907    0.0000 C   0  0  0  0  0  0  0  0  0  0  0  0
   -6.3812   -2.1825    0.0000 C   0  0  0  0  0  0  0  0  0  0  0  0
   -5.1677   -3.0642    0.0000 C   0  0  0  0  0  0  0  0  0  0  0  0
   -2.7406   -4.8275    0.0000 N   0  0  0  0  0  0  0  0  0  0  0  0
    0.7431   -8.9643    0.0000 C   0  0  0  0  0  0  0  0  0  0  0  0
    0.5864  -10.4561    0.0000 C   0  0  0  0  0  0  0  0  0  0  0  0
    1.7999  -11.3378    0.0000 C   0  0  0  0  0  0  0  0  0  0  0  0
    3.1702  -10.7277    0.0000 C   0  0  0  0  0  0  0  0  0  0  0  0
    4.3837  -11.6094    0.0000 N   0  0  0  0  0  0  0  0  0  0  0  0
    4.2269  -13.1011    0.0000 C   0  0  0  0  0  0  0  0  0  0  0  0
    5.4405  -13.9828    0.0000 C   0  0  0  0  0  0  0  0  0  0  0  0
    5.2837  -15.4746    0.0000 C   0  0  0  0  0  0  0  0  0  0  0  0
    6.4972  -16.3563    0.0000 C   0  0  0  0  0  0  0  0  0  0  0  0
    7.8675  -15.7462    0.0000 C   0  0  0  0  0  0  0  0  0  0  0  0
    8.0243  -14.2544    0.0000 C   0  0  0  0  0  0  0  0  0  0  0  0
    6.8108  -13.3727    0.0000 C   0  0  0  0  0  0  0  0  0  0  0  0
    3.3270   -9.2359    0.0000 C   0  0  0  0  0  0  0  0  0  0  0  0
    2.1135   -8.3542    0.0000 C   0  0  0  0  0  0  0  0  0  0  0  0
  1  2  2  0
  2  3  2  0
  2  4  1  0
  4  5  2  0
  5  6  1  0
  6  7  1  0
  7  8  1  0
  8  9  1  0
  9 10  2  0
 10 11  1  0
 11 12  2  0
 12 13  1  0
 13 14  2  0
 14 15  1  0
 15 16  1  0
 16 17  1  6
 17 18  2  0
 18 19  1  0
 19 20  2  0
 20 21  1  0
 21 22  2  0
 16 23  1  0
  2 24  1  0
 24 25  2  0
 25 26  1  0
 26 27  2  0
 27 28  1  0
 28 29  2  0
 29 30  1  0
 30 31  2  0
 31 32  1  0
 32 33  2  0
 33 34  1  0
 34 35  2  0
 27 36  1  0
 36 37  2  0
 23  5  1  0
 37 24  1  0
 15  7  2  0
 22 17  1  0
 35 30  1  0
 14  9  1  0
M  END
>  <Compound_ID>  (122) 
C06198877

>  <Active>  (122) 
0

>  <Smiles>  (122) 
O=S(=O)(/N=C1\Nc2[nH]c3ccccc3c2[C@@H](c2ccccc2)N1)c1ccc(/N=C/c2ccccc2)cc1

>  <canonical_smi>  (122) 
O=S(=O)(/N=C1\Nc2[nH]c3ccccc3c2[C@@H](c2ccccc2)N1)c1ccc(/N=C/c2ccccc2)cc1

>  <Set>  (122) 
G2 inactive

>  <Set_type>  (122) 
Train

>  <MW>  (122) 
505.6

>  <HBD>  (122) 
3

>  <HBA>  (122) 
4

>  <NRB>  (122) 
5

>  <NR>  (122) 
6

>  <NAR>  (122) 
5

>  <PSA>  (122) 
98.71

>  <Standard Type>  (122) 
nan

>  <Standard Relation>  (122) 
nan

>  <Standard Units>  (122) 
nan

>  <Standard Value>  (122) 
nan

>  <Assay ChEMBL ID>  (122) 
nan

>  <Assay Description>  (122) 
nan

>  <BAO Label>  (122) 
nan

$$$$

     RDKit          2D

 34 37  0  0  0  0  0  0  0  0999 V2000
    5.7760   -2.5981    0.0000 C   0  0  0  0  0  0  0  0  0  0  0  0
    5.0260   -1.2990    0.0000 C   0  0  0  0  0  0  0  0  0  0  0  0
    3.5260   -1.2990    0.0000 C   0  0  0  0  0  0  0  0  0  0  0  0
    2.7760    0.0000    0.0000 N   0  0  0  0  0  0  0  0  0  0  0  0
    1.2760    0.0000    0.0000 C   0  0  0  0  0  0  0  0  0  0  0  0
    0.3943    1.2135    0.0000 N   0  0  0  0  0  0  0  0  0  0  0  0
   -1.0323    0.7500    0.0000 C   0  0  0  0  0  0  0  0  0  0  0  0
   -1.0323   -0.7500    0.0000 C   0  0  0  0  0  0  0  0  0  0  0  0
    0.3943   -1.2135    0.0000 S   0  0  0  0  0  0  0  0  0  0  0  0
   -2.3313   -1.5000    0.0000 C   0  0  0  0  0  0  0  0  0  0  0  0
   -3.6304   -0.7500    0.0000 C   0  0  0  0  0  0  0  0  0  0  0  0
   -4.9294   -1.5000    0.0000 C   0  0  0  0  0  0  0  0  0  0  0  0
   -5.8936   -2.6491    0.0000 C   0  0  0  0  0  0  0  0  0  0  0  0
   -3.9652   -2.6491    0.0000 C   0  0  0  0  0  0  0  0  0  0  0  0
   -4.4782   -4.0586    0.0000 O   0  0  0  0  0  0  0  0  0  0  0  0
   -6.2284   -0.7500    0.0000 C   0  0  0  0  0  0  0  0  0  0  0  0
   -7.5275   -1.5000    0.0000 O   0  0  0  0  0  0  0  0  0  0  0  0
   -6.2284    0.7500    0.0000 C   0  0  0  0  0  0  0  0  0  0  0  0
   -4.9294    1.5000    0.0000 C   0  0  0  0  0  0  0  0  0  0  0  0
   -3.6304    0.7500    0.0000 C   0  0  0  0  0  0  0  0  0  0  0  0
   -3.6304    2.2500    0.0000 C   0  0  0  0  0  0  0  0  0  0  0  0
   -2.3313    1.5000    0.0000 C   0  0  0  0  0  0  0  0  0  0  0  0
   -2.3313    3.0000    0.0000 C   0  0  0  0  0  0  0  0  0  0  0  0
   -1.0323    3.7500    0.0000 C   0  0  0  0  0  0  0  0  0  0  0  0
    0.2668    3.0000    0.0000 O   0  0  0  0  0  0  0  0  0  0  0  0
   -1.0323    5.2500    0.0000 N   0  0  0  0  0  0  0  0  0  0  0  0
    0.2668    6.0000    0.0000 C   0  0  0  0  0  0  0  0  0  0  0  0
    0.2668    7.5000    0.0000 C   0  0  0  0  0  0  0  0  0  0  0  0
   -1.0323    8.2500    0.0000 N   0  0  0  0  0  0  0  0  0  0  0  0
   -1.0323    9.7500    0.0000 C   0  0  0  0  0  0  0  0  0  0  0  0
    0.2668   10.5000    0.0000 C   0  0  0  0  0  0  0  0  0  0  0  0
   -2.3313   10.5000    0.0000 O   0  0  0  0  0  0  0  0  0  0  0  0
   -2.3313    7.5000    0.0000 C   0  0  0  0  0  0  0  0  0  0  0  0
   -2.3313    6.0000    0.0000 C   0  0  0  0  0  0  0  0  0  0  0  0
  1  2  2  0
  2  3  1  0
  3  4  1  0
  4  5  1  0
  5  6  2  0
  6  7  1  0
  7  8  2  0
  8  9  1  0
  8 10  1  0
 11 10  1  6
 11 12  1  0
 12 13  1  1
 12 14  1  0
 14 15  1  0
 12 16  1  0
 16 17  1  6
 16 18  1  0
 18 19  1  0
 19 20  1  0
 20 21  1  6
 20 22  1  0
 22 23  1  6
 23 24  1  0
 24 25  2  0
 24 26  1  0
 26 27  1  0
 27 28  1  0
 28 29  1  0
 29 30  1  0
 30 31  1  0
 30 32  2  0
 29 33  1  0
 33 34  1  0
  9  5  1  0
 20 11  1  0
 34 26  1  0
 22  7  1  0
M  END
>  <Compound_ID>  (123) 
C04222549

>  <Active>  (123) 
0

>  <Smiles>  (123) 
C=CCNc1nc2c(s1)C[C@@H]1[C@](C)(CO)[C@H](O)CC[C@@]1(C)[C@@H]2CC(=O)N1CCN(C(C)=O)CC1

>  <canonical_smi>  (123) 
C=CCNc1nc2c(s1)C[C@H]1[C@@](C)(CC[C@@H](O)[C@@]1(C)CO)[C@@H]2CC(=O)N1CCN(C(C)=O)CC1

>  <Set>  (123) 
G2 inactive

>  <Set_type>  (123) 
Train

>  <MW>  (123) 
490.67

>  <HBD>  (123) 
3

>  <HBA>  (123) 
6

>  <NRB>  (123) 
6

>  <NR>  (123) 
4

>  <NAR>  (123) 
1

>  <PSA>  (123) 
106.0

>  <Standard Type>  (123) 
nan

>  <Standard Relation>  (123) 
nan

>  <Standard Units>  (123) 
nan

>  <Standard Value>  (123) 
nan

>  <Assay ChEMBL ID>  (123) 
nan

>  <Assay Description>  (123) 
nan

>  <BAO Label>  (123) 
nan

$$$$

     RDKit          2D

 24 26  0  0  0  0  0  0  0  0999 V2000
    4.0667   -3.6527    0.0000 N   0  0  0  0  0  0  0  0  0  0  0  0
    2.6401   -3.1891    0.0000 C   0  0  0  0  0  0  0  0  0  0  0  0
    1.2135   -2.7256    0.0000 C   0  0  0  0  0  0  0  0  0  0  0  0
   -0.0000   -3.6073    0.0000 C   0  0  0  0  0  0  0  0  0  0  0  0
   -0.0000   -5.1073    0.0000 N   0  0  0  0  0  0  0  0  0  0  0  0
   -1.2990   -5.8573    0.0000 C   0  0  0  0  0  0  0  0  0  0  0  0
   -2.5981   -5.1073    0.0000 N   0  0  0  0  0  0  0  0  0  0  0  0
   -3.8971   -5.8573    0.0000 O   0  0  0  0  0  0  0  0  0  0  0  0
   -1.2990   -7.3573    0.0000 C   0  0  0  0  0  0  0  0  0  0  0  0
   -2.5981   -8.1073    0.0000 N   0  0  0  0  0  0  0  0  0  0  0  0
   -2.5981   -9.6073    0.0000 O   0  0  0  0  0  0  0  0  0  0  0  0
   -0.0000   -8.1073    0.0000 C   0  0  0  0  0  0  0  0  0  0  0  0
    1.2990   -7.3573    0.0000 C   0  0  0  0  0  0  0  0  0  0  0  0
    2.5981   -8.1073    0.0000 C   0  0  0  0  0  0  0  0  0  0  0  0
    2.5981   -9.6073    0.0000 C   0  0  0  0  0  0  0  0  0  0  0  0
    1.2990  -10.3573    0.0000 C   0  0  0  0  0  0  0  0  0  0  0  0
    0.0000   -9.6073    0.0000 C   0  0  0  0  0  0  0  0  0  0  0  0
   -1.2135   -2.7256    0.0000 S   0  0  0  0  0  0  0  0  0  0  0  0
   -0.7500   -1.2990    0.0000 C   0  0  0  0  0  0  0  0  0  0  0  0
    0.7500   -1.2990    0.0000 C   0  0  0  0  0  0  0  0  0  0  0  0
    1.5000    0.0000    0.0000 C   0  0  0  0  0  0  0  0  0  0  0  0
    0.7500    1.2990    0.0000 C   0  0  0  0  0  0  0  0  0  0  0  0
   -0.7500    1.2990    0.0000 O   0  0  0  0  0  0  0  0  0  0  0  0
   -1.5000    0.0000    0.0000 C   0  0  0  0  0  0  0  0  0  0  0  0
  1  2  3  0
  2  3  1  0
  3  4  2  0
  4  5  1  0
  5  6  1  0
  6  7  2  0
  7  8  1  0
  6  9  1  0
  9 10  2  0
 10 11  1  0
  9 12  1  0
 12 13  2  0
 13 14  1  0
 14 15  2  0
 15 16  1  0
 16 17  2  0
  4 18  1  0
 18 19  1  0
 19 20  2  0
 20 21  1  0
 21 22  1  0
 22 23  1  0
 23 24  1  0
 20  3  1  0
 17 12  1  0
 24 19  1  0
M  END
>  <Compound_ID>  (124) 
C39448720

>  <Active>  (124) 
0

>  <Smiles>  (124) 
N#Cc1c(NC(=N/O)/C(=N/O)c2ccccc2)sc2c1CCOC2

>  <canonical_smi>  (124) 
N#Cc1c(NC(=N/O)/C(=N/O)c2ccccc2)sc2c1CCOC2

>  <Set>  (124) 
G2 inactive

>  <Set_type>  (124) 
Train

>  <MW>  (124) 
342.38

>  <HBD>  (124) 
3

>  <HBA>  (124) 
5

>  <NRB>  (124) 
3

>  <NR>  (124) 
3

>  <NAR>  (124) 
2

>  <PSA>  (124) 
110.23

>  <Standard Type>  (124) 
nan

>  <Standard Relation>  (124) 
nan

>  <Standard Units>  (124) 
nan

>  <Standard Value>  (124) 
nan

>  <Assay ChEMBL ID>  (124) 
nan

>  <Assay Description>  (124) 
nan

>  <BAO Label>  (124) 
nan

$$$$

     RDKit          2D

 27 28  0  0  0  0  0  0  0  0999 V2000
    5.7760    2.5981    0.0000 C   0  0  0  0  0  0  0  0  0  0  0  0
    5.0260    1.2990    0.0000 C   0  0  0  0  0  0  0  0  0  0  0  0
    3.5260    1.2990    0.0000 O   0  0  0  0  0  0  0  0  0  0  0  0
    2.7760    0.0000    0.0000 C   0  0  0  0  0  0  0  0  0  0  0  0
    3.5260   -1.2990    0.0000 O   0  0  0  0  0  0  0  0  0  0  0  0
    1.2760    0.0000    0.0000 C   0  0  0  0  0  0  0  0  0  0  0  0
    0.3943    1.2135    0.0000 C   0  0  0  0  0  0  0  0  0  0  0  0
    0.8578    2.6401    0.0000 C   0  0  0  0  0  0  0  0  0  0  0  0
   -1.0323    0.7500    0.0000 N   0  0  0  0  0  0  0  0  0  0  0  0
   -1.0323   -0.7500    0.0000 C   0  0  0  0  0  0  0  0  0  0  0  0
   -2.2458   -1.6317    0.0000 C   0  0  0  0  0  0  0  0  0  0  0  0
   -3.6161   -1.0216    0.0000 C   0  0  0  0  0  0  0  0  0  0  0  0
   -4.9152   -1.7716    0.0000 N   0  0  0  0  0  0  0  0  0  0  0  0
   -6.0299   -0.7679    0.0000 C   0  0  0  0  0  0  0  0  0  0  0  0
   -7.4971   -1.0797    0.0000 C   0  0  0  0  0  0  0  0  0  0  0  0
   -8.5008    0.0350    0.0000 C   0  0  0  0  0  0  0  0  0  0  0  0
   -9.9680   -0.2769    0.0000 C   0  0  0  0  0  0  0  0  0  0  0  0
  -11.4352   -0.5888    0.0000 N   0  0  0  0  0  0  0  0  0  0  0  0
   -8.0373    1.4616    0.0000 C   0  0  0  0  0  0  0  0  0  0  0  0
   -7.5738    2.8881    0.0000 N   0  0  0  0  0  0  0  0  0  0  0  0
   -5.4198    0.6024    0.0000 C   0  0  0  0  0  0  0  0  0  0  0  0
   -6.1698    1.9015    0.0000 C   0  0  0  0  0  0  0  0  0  0  0  0
   -3.9280    0.4456    0.0000 C   0  0  0  0  0  0  0  0  0  0  0  0
   -2.9243    1.5604    0.0000 C   0  0  0  0  0  0  0  0  0  0  0  0
   -3.3878    2.9870    0.0000 C   0  0  0  0  0  0  0  0  0  0  0  0
    0.3943   -1.2135    0.0000 C   0  0  0  0  0  0  0  0  0  0  0  0
    0.8578   -2.6401    0.0000 C   0  0  0  0  0  0  0  0  0  0  0  0
  1  2  1  0
  2  3  1  0
  3  4  1  0
  4  5  2  0
  4  6  1  0
  6  7  2  0
  7  8  1  0
  7  9  1  0
  9 10  1  0
 10 11  1  0
 11 12  1  0
 12 13  1  0
 13 14  1  0
 14 15  1  0
 15 16  2  0
 16 17  1  0
 17 18  3  0
 16 19  1  0
 19 20  3  0
 14 21  2  0
 21 22  1  0
 21 23  1  0
 23 24  1  0
 24 25  1  0
 10 26  2  0
 26 27  1  0
 26  6  1  0
 23 12  2  0
M  END
>  <Compound_ID>  (125) 
C00641948

>  <Active>  (125) 
0

>  <Smiles>  (125) 
CCOC(=O)c1c(C)[nH]c(Cc2[nH]c(C=C(C#N)C#N)c(C)c2CC)c1C

>  <canonical_smi>  (125) 
CCOC(=O)c1c(C)[nH]c(Cc2[nH]c(C=C(C#N)C#N)c(C)c2CC)c1C

>  <Set>  (125) 
G2 inactive

>  <Set_type>  (125) 
Train

>  <MW>  (125) 
364.45

>  <HBD>  (125) 
2

>  <HBA>  (125) 
4

>  <NRB>  (125) 
6

>  <NR>  (125) 
2

>  <NAR>  (125) 
2

>  <PSA>  (125) 
105.46

>  <Standard Type>  (125) 
nan

>  <Standard Relation>  (125) 
nan

>  <Standard Units>  (125) 
nan

>  <Standard Value>  (125) 
nan

>  <Assay ChEMBL ID>  (125) 
nan

>  <Assay Description>  (125) 
nan

>  <BAO Label>  (125) 
nan

$$$$

     RDKit          2D

 21 22  0  0  0  0  0  0  0  0999 V2000
    3.0000   -1.5000    0.0000 C   0  0  0  0  0  0  0  0  0  0  0  0
    3.0000    0.0000    0.0000 C   0  0  0  0  0  0  0  0  0  0  0  0
    3.0000    1.5000    0.0000 C   0  0  0  0  0  0  0  0  0  0  0  0
    4.5000    0.0000    0.0000 C   0  0  0  0  0  0  0  0  0  0  0  0
    1.5000    0.0000    0.0000 N   0  0  0  0  0  0  0  0  0  0  0  0
    0.7500   -1.2990    0.0000 C   0  0  0  0  0  0  0  0  0  0  0  0
    1.5000   -2.5981    0.0000 O   0  0  0  0  0  0  0  0  0  0  0  0
   -0.7500   -1.2990    0.0000 C   0  0  0  0  0  0  0  0  0  0  0  0
   -1.5000    0.0000    0.0000 C   0  0  0  0  0  0  0  0  0  0  0  0
   -3.0000    0.0000    0.0000 N   0  0  0  0  0  0  0  0  0  0  0  0
   -3.7500    1.2990    0.0000 C   0  0  0  0  0  0  0  0  0  0  0  0
   -3.0000    2.5981    0.0000 C   0  0  0  0  0  0  0  0  0  0  0  0
   -3.7500    3.8971    0.0000 C   0  0  0  0  0  0  0  0  0  0  0  0
   -5.2500    3.8971    0.0000 C   0  0  0  0  0  0  0  0  0  0  0  0
   -6.0000    5.1962    0.0000 F   0  0  0  0  0  0  0  0  0  0  0  0
   -6.0000    2.5981    0.0000 C   0  0  0  0  0  0  0  0  0  0  0  0
   -7.5000    2.5981    0.0000 F   0  0  0  0  0  0  0  0  0  0  0  0
   -5.2500    1.2990    0.0000 C   0  0  0  0  0  0  0  0  0  0  0  0
   -0.7500    1.2990    0.0000 N   0  0  0  0  0  0  0  0  0  0  0  0
    0.7500    1.2990    0.0000 C   0  0  0  0  0  0  0  0  0  0  0  0
    1.5000    2.5981    0.0000 O   0  0  0  0  0  0  0  0  0  0  0  0
  1  2  1  0
  2  3  1  0
  2  4  1  0
  2  5  1  0
  5  6  1  0
  6  7  2  0
  6  8  1  0
  8  9  2  0
  9 10  1  0
 10 11  1  0
 11 12  2  0
 12 13  1  0
 13 14  2  0
 14 15  1  0
 14 16  1  0
 16 17  1  0
 16 18  2  0
  9 19  1  0
 19 20  1  0
 20 21  2  0
 20  5  1  0
 18 11  1  0
M  END
>  <Compound_ID>  (126) 
C44020300

>  <Active>  (126) 
0

>  <Smiles>  (126) 
CC(C)(C)n1c(=O)cc(Nc2ccc(F)c(F)c2)[nH]c1=O

>  <canonical_smi>  (126) 
CC(C)(C)n1c(=O)cc(Nc2ccc(F)c(F)c2)[nH]c1=O

>  <Set>  (126) 
G2 inactive

>  <Set_type>  (126) 
Train

>  <MW>  (126) 
295.29

>  <HBD>  (126) 
2

>  <HBA>  (126) 
3

>  <NRB>  (126) 
2

>  <NR>  (126) 
2

>  <NAR>  (126) 
2

>  <PSA>  (126) 
66.89

>  <Standard Type>  (126) 
nan

>  <Standard Relation>  (126) 
nan

>  <Standard Units>  (126) 
nan

>  <Standard Value>  (126) 
nan

>  <Assay ChEMBL ID>  (126) 
nan

>  <Assay Description>  (126) 
nan

>  <BAO Label>  (126) 
nan

$$$$

     RDKit          2D

 20 22  0  0  0  0  0  0  0  0999 V2000
    3.7500   -1.2990    0.0000 C   0  0  0  0  0  0  0  0  0  0  0  0
    3.0000    0.0000    0.0000 C   0  0  0  0  0  0  0  0  0  0  0  0
    3.7500    1.2990    0.0000 C   0  0  0  0  0  0  0  0  0  0  0  0
    1.5000    0.0000    0.0000 C   0  0  0  0  0  0  0  0  0  0  0  0
    0.7500   -1.2990    0.0000 C   0  0  0  0  0  0  0  0  0  0  0  0
   -0.7500   -1.2990    0.0000 C   0  0  0  0  0  0  0  0  0  0  0  0
   -1.5000    0.0000    0.0000 C   0  0  0  0  0  0  0  0  0  0  0  0
   -2.9672    0.3119    0.0000 N   0  0  0  0  0  0  0  0  0  0  0  0
   -3.1240    1.8037    0.0000 C   0  0  0  0  0  0  0  0  0  0  0  0
   -4.4231    2.5537    0.0000 N   0  0  0  0  0  0  0  0  0  0  0  0
   -5.7934    1.9435    0.0000 N   0  0  0  0  0  0  0  0  0  0  0  0
   -6.7971    3.0583    0.0000 C   0  0  0  0  0  0  0  0  0  0  0  0
   -6.0471    4.3573    0.0000 C   0  0  0  0  0  0  0  0  0  0  0  0
   -6.6572    5.7276    0.0000 C   0  0  0  0  0  0  0  0  0  0  0  0
   -7.2673    7.0979    0.0000 N   0  0  0  0  0  0  0  0  0  0  0  0
   -4.5798    4.0454    0.0000 C   0  0  0  0  0  0  0  0  0  0  0  0
   -3.4651    5.0491    0.0000 N   0  0  0  0  0  0  0  0  0  0  0  0
   -1.7537    2.4138    0.0000 S   0  0  0  0  0  0  0  0  0  0  0  0
   -0.7500    1.2990    0.0000 C   0  0  0  0  0  0  0  0  0  0  0  0
    0.7500    1.2990    0.0000 C   0  0  0  0  0  0  0  0  0  0  0  0
  1  2  1  0
  2  3  1  0
  2  4  1  0
  4  5  2  0
  5  6  1  0
  6  7  2  0
  7  8  1  0
  8  9  2  0
  9 10  1  0
 10 11  1  0
 11 12  2  0
 12 13  1  0
 13 14  1  0
 14 15  3  0
 13 16  2  0
 16 17  1  0
  9 18  1  0
 18 19  1  0
 19 20  2  0
 20  4  1  0
 19  7  1  0
 16 10  1  0
M  END
>  <Compound_ID>  (127) 
C62203380

>  <Active>  (127) 
0

>  <Smiles>  (127) 
CC(C)c1ccc2nc(-n3ncc(C#N)c3N)sc2c1

>  <canonical_smi>  (127) 
CC(C)c1ccc2nc(-n3ncc(C#N)c3N)sc2c1

>  <Set>  (127) 
G2 inactive

>  <Set_type>  (127) 
Train

>  <MW>  (127) 
283.36

>  <HBD>  (127) 
1

>  <HBA>  (127) 
4

>  <NRB>  (127) 
2

>  <NR>  (127) 
3

>  <NAR>  (127) 
3

>  <PSA>  (127) 
80.52

>  <Standard Type>  (127) 
nan

>  <Standard Relation>  (127) 
nan

>  <Standard Units>  (127) 
nan

>  <Standard Value>  (127) 
nan

>  <Assay ChEMBL ID>  (127) 
nan

>  <Assay Description>  (127) 
nan

>  <BAO Label>  (127) 
nan

$$$$

     RDKit          2D

 22 25  0  0  0  0  0  0  0  0999 V2000
    2.9478    4.5478    0.0000 O   0  0  0  0  0  0  0  0  0  0  0  0
    2.5056    5.9811    0.0000 C   0  0  0  0  0  0  0  0  0  0  0  0
    3.6052    7.0014    0.0000 N   0  0  0  0  0  0  0  0  0  0  0  0
    3.4931    8.4972    0.0000 C   0  0  0  0  0  0  0  0  0  0  0  0
    2.2538    9.3422    0.0000 C   0  0  0  0  0  0  0  0  0  0  0  0
    0.8204    8.9000    0.0000 C   0  0  0  0  0  0  0  0  0  0  0  0
    0.2724    7.5037    0.0000 C   0  0  0  0  0  0  0  0  0  0  0  0
    1.0224    6.2047    0.0000 C   0  0  0  0  0  0  0  0  0  0  0  0
    0.1774    4.9653    0.0000 N   0  0  0  0  0  0  0  0  0  0  0  0
    0.8282    3.6139    0.0000 C   0  0  0  0  0  0  0  0  0  0  0  0
    2.3240    3.5018    0.0000 O   0  0  0  0  0  0  0  0  0  0  0  0
   -0.4113    1.7963    0.0000 N   0  0  0  0  0  0  0  0  0  0  0  0
    0.3391    0.4970    0.0000 C   0  0  0  0  0  0  0  0  0  0  0  0
    0.7500   -1.2990    0.0000 C   0  0  0  0  0  0  0  0  0  0  0  0
    1.5000    0.0000    0.0000 C   0  0  0  0  0  0  0  0  0  0  0  0
    0.7500    1.2990    0.0000 C   0  0  0  0  0  0  0  0  0  0  0  0
   -0.0000    2.5981    0.0000 C   0  0  0  0  0  0  0  0  0  0  0  0
   -1.5000    2.5981    0.0000 C   0  0  0  0  0  0  0  0  0  0  0  0
   -2.2500    1.2990    0.0000 C   0  0  0  0  0  0  0  0  0  0  0  0
   -1.5000    0.0000    0.0000 C   0  0  0  0  0  0  0  0  0  0  0  0
   -0.7500   -1.2990    0.0000 C   0  0  0  0  0  0  0  0  0  0  0  0
   -0.7500    1.2990    0.0000 C   0  0  0  0  0  0  0  0  0  0  0  0
  1  2  2  0
  2  3  1  0
  3  4  1  0
  4  5  1  0
  5  6  1  0
  6  7  1  0
  7  8  1  0
  8  9  1  1
  9 10  1  0
 10 11  2  0
 10 12  1  0
 12 13  1  0
 13 14  1  0
 14 15  1  0
 16 15  1  1
 16 17  1  0
 17 18  1  0
 18 19  1  0
 20 19  1  1
 20 21  1  0
 20 22  1  0
  8  2  1  0
 18 12  1  0
 21 14  1  0
 22 16  1  0
M  END
>  <Compound_ID>  (128) 
C62407020

>  <Active>  (128) 
0

>  <Smiles>  (128) 
O=C1NCCCC[C@@H]1NC(=O)N1CC2C[C@@H]3CC1C[C@H](C2)C3

>  <canonical_smi>  (128) 
O=C1NCCCC[C@@H]1NC(=O)N1CC2C[C@H]3CC1C[C@@H](C2)C3

>  <Set>  (128) 
G2 inactive

>  <Set_type>  (128) 
Train

>  <MW>  (128) 
305.42

>  <HBD>  (128) 
2

>  <HBA>  (128) 
2

>  <NRB>  (128) 
1

>  <NR>  (128) 
5

>  <NAR>  (128) 
0

>  <PSA>  (128) 
61.44

>  <Standard Type>  (128) 
nan

>  <Standard Relation>  (128) 
nan

>  <Standard Units>  (128) 
nan

>  <Standard Value>  (128) 
nan

>  <Assay ChEMBL ID>  (128) 
nan

>  <Assay Description>  (128) 
nan

>  <BAO Label>  (128) 
nan

$$$$

     RDKit          2D

 21 23  0  0  0  0  0  0  0  0999 V2000
    3.7500   -1.2990    0.0000 C   0  0  0  0  0  0  0  0  0  0  0  0
    3.0000    0.0000    0.0000 O   0  0  0  0  0  0  0  0  0  0  0  0
    1.5000    0.0000    0.0000 C   0  0  0  0  0  0  0  0  0  0  0  0
    0.7500   -1.2990    0.0000 C   0  0  0  0  0  0  0  0  0  0  0  0
   -0.7500   -1.2990    0.0000 C   0  0  0  0  0  0  0  0  0  0  0  0
   -1.5000   -2.5981    0.0000 C   0  0  0  0  0  0  0  0  0  0  0  0
   -0.8899   -3.9684    0.0000 C   0  0  0  0  0  0  0  0  0  0  0  0
    0.5773   -4.2803    0.0000 C   0  0  0  0  0  0  0  0  0  0  0  0
    1.6920   -3.2766    0.0000 O   0  0  0  0  0  0  0  0  0  0  0  0
    2.9911   -4.0266    0.0000 C   0  0  0  0  0  0  0  0  0  0  0  0
    2.6792   -5.4938    0.0000 C   0  0  0  0  0  0  0  0  0  0  0  0
    1.1874   -5.6506    0.0000 C   0  0  0  0  0  0  0  0  0  0  0  0
    0.4374   -6.9496    0.0000 C   0  0  0  0  0  0  0  0  0  0  0  0
   -2.0046   -4.9721    0.0000 N   0  0  0  0  0  0  0  0  0  0  0  0
   -3.3037   -4.2221    0.0000 O   0  0  0  0  0  0  0  0  0  0  0  0
   -2.9918   -2.7549    0.0000 C   0  0  0  0  0  0  0  0  0  0  0  0
   -3.9955   -1.6402    0.0000 N   0  0  0  0  0  0  0  0  0  0  0  0
   -1.5000    0.0000    0.0000 C   0  0  0  0  0  0  0  0  0  0  0  0
   -0.7500    1.2990    0.0000 C   0  0  0  0  0  0  0  0  0  0  0  0
    0.7500    1.2990    0.0000 C   0  0  0  0  0  0  0  0  0  0  0  0
    1.5000    2.5981    0.0000 C   0  0  0  0  0  0  0  0  0  0  0  0
  1  2  1  0
  2  3  1  0
  3  4  2  0
  4  5  1  0
  5  6  1  0
  6  7  1  0
  7  8  1  0
  8  9  1  0
  9 10  1  0
 10 11  2  0
 11 12  1  0
 12 13  1  0
  7 14  2  0
 14 15  1  0
 15 16  1  0
 16 17  1  0
  5 18  2  0
 18 19  1  0
 19 20  2  0
 20 21  1  0
 20  3  1  0
 16  6  2  0
 12  8  2  0
M  END
>  <Compound_ID>  (129) 
C37350935

>  <Active>  (129) 
0

>  <Smiles>  (129) 
COc1cc(-c2c(-c3occc3C)noc2N)ccc1C

>  <canonical_smi>  (129) 
COc1cc(-c2c(-c3occc3C)noc2N)ccc1C

>  <Set>  (129) 
G2 inactive

>  <Set_type>  (129) 
Train

>  <MW>  (129) 
284.31

>  <HBD>  (129) 
1

>  <HBA>  (129) 
5

>  <NRB>  (129) 
3

>  <NR>  (129) 
3

>  <NAR>  (129) 
3

>  <PSA>  (129) 
74.42

>  <Standard Type>  (129) 
nan

>  <Standard Relation>  (129) 
nan

>  <Standard Units>  (129) 
nan

>  <Standard Value>  (129) 
nan

>  <Assay ChEMBL ID>  (129) 
nan

>  <Assay Description>  (129) 
nan

>  <BAO Label>  (129) 
nan

$$$$

     RDKit          2D

 21 23  0  0  0  0  0  0  0  0999 V2000
   -2.7707   -1.1807    0.0000 C   0  0  0  0  0  0  0  0  0  0  0  0
   -3.8855   -0.1771    0.0000 C   0  0  0  0  0  0  0  0  0  0  0  0
   -5.3120   -0.6406    0.0000 C   0  0  0  0  0  0  0  0  0  0  0  0
   -5.6239   -2.1078    0.0000 C   0  0  0  0  0  0  0  0  0  0  0  0
   -7.0505   -2.5713    0.0000 C   0  0  0  0  0  0  0  0  0  0  0  0
   -8.1652   -1.5676    0.0000 C   0  0  0  0  0  0  0  0  0  0  0  0
   -7.8533   -0.1004    0.0000 C   0  0  0  0  0  0  0  0  0  0  0  0
   -6.4268    0.3631    0.0000 C   0  0  0  0  0  0  0  0  0  0  0  0
   -6.1149    1.8303    0.0000 F   0  0  0  0  0  0  0  0  0  0  0  0
   -3.5736    1.2902    0.0000 N   0  0  0  0  0  0  0  0  0  0  0  0
   -4.6883    2.2939    0.0000 C   0  0  0  0  0  0  0  0  0  0  0  0
   -2.1470    1.7537    0.0000 C   0  0  0  0  0  0  0  0  0  0  0  0
   -1.0323    0.7500    0.0000 C   0  0  0  0  0  0  0  0  0  0  0  0
    0.3943    1.2135    0.0000 C   0  0  0  0  0  0  0  0  0  0  0  0
    0.7062    2.6807    0.0000 C   0  0  0  0  0  0  0  0  0  0  0  0
    2.1328    3.1443    0.0000 N   0  0  0  0  0  0  0  0  0  0  0  0
   -0.4086    3.6844    0.0000 C   0  0  0  0  0  0  0  0  0  0  0  0
   -0.4086    5.1844    0.0000 N   0  0  0  0  0  0  0  0  0  0  0  0
   -1.8351    5.6480    0.0000 O   0  0  0  0  0  0  0  0  0  0  0  0
   -2.7168    4.4344    0.0000 N   0  0  0  0  0  0  0  0  0  0  0  0
   -1.8351    3.2209    0.0000 C   0  0  0  0  0  0  0  0  0  0  0  0
  2  1  1  6
  2  3  1  0
  3  4  2  0
  4  5  1  0
  5  6  2  0
  6  7  1  0
  7  8  2  0
  8  9  1  0
  2 10  1  0
 10 11  1  0
 10 12  1  0
 12 13  2  0
 13 14  1  0
 14 15  2  0
 15 16  1  0
 15 17  1  0
 17 18  2  0
 18 19  1  0
 19 20  1  0
 20 21  2  0
  8  3  1  0
 21 12  1  0
 21 17  1  0
M  END
>  <Compound_ID>  (130) 
C62014164

>  <Active>  (130) 
0

>  <Smiles>  (130) 
C[C@H](c1ccccc1F)N(C)c1ccc(N)c2nonc12

>  <canonical_smi>  (130) 
C[C@H](c1ccccc1F)N(C)c1ccc(N)c2nonc12

>  <Set>  (130) 
G2 inactive

>  <Set_type>  (130) 
Train

>  <MW>  (130) 
286.31

>  <HBD>  (130) 
1

>  <HBA>  (130) 
5

>  <NRB>  (130) 
3

>  <NR>  (130) 
3

>  <NAR>  (130) 
3

>  <PSA>  (130) 
68.18

>  <Standard Type>  (130) 
nan

>  <Standard Relation>  (130) 
nan

>  <Standard Units>  (130) 
nan

>  <Standard Value>  (130) 
nan

>  <Assay ChEMBL ID>  (130) 
nan

>  <Assay Description>  (130) 
nan

>  <BAO Label>  (130) 
nan

$$$$

     RDKit          2D

 33 36  0  0  0  0  0  0  0  0999 V2000
    6.2011   -9.5322    0.0000 C   0  0  0  0  0  0  0  0  0  0  0  0
    4.8308   -8.9221    0.0000 C   0  0  0  0  0  0  0  0  0  0  0  0
    4.6740   -7.4303    0.0000 S   0  0  0  0  0  0  0  0  0  0  0  0
    3.3037   -6.8202    0.0000 C   0  0  0  0  0  0  0  0  0  0  0  0
    2.0046   -7.5702    0.0000 N   0  0  0  0  0  0  0  0  0  0  0  0
    0.8899   -6.5665    0.0000 N   0  0  0  0  0  0  0  0  0  0  0  0
    1.5000   -5.1962    0.0000 C   0  0  0  0  0  0  0  0  0  0  0  0
    0.7500   -3.8971    0.0000 C   0  0  0  0  0  0  0  0  0  0  0  0
    1.5000   -2.5981    0.0000 O   0  0  0  0  0  0  0  0  0  0  0  0
    0.7500   -1.2990    0.0000 C   0  0  0  0  0  0  0  0  0  0  0  0
    1.5000    0.0000    0.0000 C   0  0  0  0  0  0  0  0  0  0  0  0
    0.7500    1.2990    0.0000 C   0  0  0  0  0  0  0  0  0  0  0  0
   -0.7500    1.2990    0.0000 C   0  0  0  0  0  0  0  0  0  0  0  0
   -1.5000    2.5981    0.0000 F   0  0  0  0  0  0  0  0  0  0  0  0
   -1.5000    0.0000    0.0000 C   0  0  0  0  0  0  0  0  0  0  0  0
   -0.7500   -1.2990    0.0000 C   0  0  0  0  0  0  0  0  0  0  0  0
    2.9918   -5.3529    0.0000 N   0  0  0  0  0  0  0  0  0  0  0  0
    3.9955   -4.2382    0.0000 N   0  0  0  0  0  0  0  0  0  0  0  0
    3.6172   -9.8037    0.0000 C   0  0  0  0  0  0  0  0  0  0  0  0
    3.6172  -11.3037    0.0000 N   0  0  0  0  0  0  0  0  0  0  0  0
    2.1907  -11.7673    0.0000 C   0  0  0  0  0  0  0  0  0  0  0  0
    1.7271  -13.1938    0.0000 C   0  0  0  0  0  0  0  0  0  0  0  0
    0.2599  -13.5057    0.0000 C   0  0  0  0  0  0  0  0  0  0  0  0
   -0.2036  -14.9323    0.0000 C   0  0  0  0  0  0  0  0  0  0  0  0
    0.8001  -16.0470    0.0000 C   0  0  0  0  0  0  0  0  0  0  0  0
    2.2673  -15.7351    0.0000 C   0  0  0  0  0  0  0  0  0  0  0  0
    3.2710  -16.8499    0.0000 C   0  0  0  0  0  0  0  0  0  0  0  0
    4.2747  -17.9646    0.0000 F   0  0  0  0  0  0  0  0  0  0  0  0
    2.1563  -17.8536    0.0000 F   0  0  0  0  0  0  0  0  0  0  0  0
    4.3857  -15.8462    0.0000 F   0  0  0  0  0  0  0  0  0  0  0  0
    2.7308  -14.3086    0.0000 C   0  0  0  0  0  0  0  0  0  0  0  0
    1.3090  -10.5537    0.0000 N   0  0  0  0  0  0  0  0  0  0  0  0
    2.1907   -9.3402    0.0000 O   0  0  0  0  0  0  0  0  0  0  0  0
  2  1  1  6
  2  3  1  0
  3  4  1  0
  4  5  2  0
  5  6  1  0
  6  7  2  0
  7  8  1  0
  8  9  1  0
  9 10  1  0
 10 11  2  0
 11 12  1  0
 12 13  2  0
 13 14  1  0
 13 15  1  0
 15 16  2  0
  7 17  1  0
 17 18  1  0
  2 19  1  0
 19 20  2  0
 20 21  1  0
 21 22  1  0
 22 23  2  0
 23 24  1  0
 24 25  2  0
 25 26  1  0
 26 27  1  0
 27 28  1  0
 27 29  1  0
 27 30  1  0
 26 31  2  0
 21 32  2  0
 32 33  1  0
 17  4  1  0
 33 19  1  0
 16 10  1  0
 31 22  1  0
M  END
>  <Compound_ID>  (131) 
C22988779

>  <Active>  (131) 
0

>  <Smiles>  (131) 
C[C@@H](Sc1nnc(COc2ccc(F)cc2)n1N)c1nc(-c2cccc(C(F)(F)F)c2)no1

>  <canonical_smi>  (131) 
C[C@@H](Sc1nnc(COc2ccc(F)cc2)n1N)c1nc(-c2cccc(C(F)(F)F)c2)no1

>  <Set>  (131) 
G2 inactive

>  <Set_type>  (131) 
Train

>  <MW>  (131) 
480.45

>  <HBD>  (131) 
1

>  <HBA>  (131) 
8

>  <NRB>  (131) 
7

>  <NR>  (131) 
4

>  <NAR>  (131) 
4

>  <PSA>  (131) 
104.88

>  <Standard Type>  (131) 
nan

>  <Standard Relation>  (131) 
nan

>  <Standard Units>  (131) 
nan

>  <Standard Value>  (131) 
nan

>  <Assay ChEMBL ID>  (131) 
nan

>  <Assay Description>  (131) 
nan

>  <BAO Label>  (131) 
nan

$$$$

     RDKit          2D

 36 38  0  0  0  0  0  0  0  0999 V2000
    8.1510    6.4656    0.0000 C   0  0  0  0  0  0  0  0  0  0  0  0
    6.7244    6.0021    0.0000 O   0  0  0  0  0  0  0  0  0  0  0  0
    5.6097    7.0058    0.0000 C   0  0  0  0  0  0  0  0  0  0  0  0
    5.9215    8.4730    0.0000 O   0  0  0  0  0  0  0  0  0  0  0  0
    4.1831    6.5422    0.0000 C   0  0  0  0  0  0  0  0  0  0  0  0
    3.0684    7.5459    0.0000 C   0  0  0  0  0  0  0  0  0  0  0  0
    1.6418    7.0824    0.0000 C   0  0  0  0  0  0  0  0  0  0  0  0
    0.5271    8.0861    0.0000 C   0  0  0  0  0  0  0  0  0  0  0  0
    1.3299    5.6152    0.0000 C   0  0  0  0  0  0  0  0  0  0  0  0
   -0.0967    5.1517    0.0000 C   0  0  0  0  0  0  0  0  0  0  0  0
   -0.4086    3.6844    0.0000 C   0  0  0  0  0  0  0  0  0  0  0  0
   -1.8351    3.2209    0.0000 C   0  0  0  0  0  0  0  0  0  0  0  0
   -2.9499    4.2246    0.0000 O   0  0  0  0  0  0  0  0  0  0  0  0
   -2.6380    5.6918    0.0000 C   0  0  0  0  0  0  0  0  0  0  0  0
   -2.1470    1.7537    0.0000 C   0  0  0  0  0  0  0  0  0  0  0  0
   -3.5736    1.2902    0.0000 C   0  0  0  0  0  0  0  0  0  0  0  0
   -1.0323    0.7500    0.0000 C   0  0  0  0  0  0  0  0  0  0  0  0
    0.3943    1.2135    0.0000 C   0  0  0  0  0  0  0  0  0  0  0  0
    0.7062    2.6807    0.0000 C   0  0  0  0  0  0  0  0  0  0  0  0
    2.1328    3.1443    0.0000 O   0  0  0  0  0  0  0  0  0  0  0  0
    3.2475    2.1406    0.0000 C   0  0  0  0  0  0  0  0  0  0  0  0
    2.9356    0.6734    0.0000 O   0  0  0  0  0  0  0  0  0  0  0  0
    4.0503   -0.3303    0.0000 C   0  0  0  0  0  0  0  0  0  0  0  0
    3.7385   -1.7976    0.0000 C   0  0  0  0  0  0  0  0  0  0  0  0
    2.3119   -2.2611    0.0000 O   0  0  0  0  0  0  0  0  0  0  0  0
    4.8532   -2.8013    0.0000 O   0  0  0  0  0  1  0  0  0  0  0  0
    5.4769    0.1332    0.0000 C   0  0  0  0  0  0  0  0  0  0  0  0
    6.5916   -0.8705    0.0000 O   0  0  0  0  0  0  0  0  0  0  0  0
    5.7888    1.6004    0.0000 C   0  0  0  0  0  0  0  0  0  0  0  0
    7.2154    2.0639    0.0000 O   0  0  0  0  0  0  0  0  0  0  0  0
    4.6741    2.6041    0.0000 C   0  0  0  0  0  0  0  0  0  0  0  0
    4.9859    4.0713    0.0000 O   0  0  0  0  0  0  0  0  0  0  0  0
    1.2760    0.0000    0.0000 C   0  0  0  0  0  0  0  0  0  0  0  0
    2.7314   -0.3630    0.0000 O   0  0  0  0  0  0  0  0  0  0  0  0
    0.3943   -1.2135    0.0000 O   0  0  0  0  0  0  0  0  0  0  0  0
   -1.0323   -0.7500    0.0000 C   0  0  0  0  0  0  0  0  0  0  0  0
  1  2  1  0
  2  3  1  0
  3  4  2  0
  3  5  1  0
  5  6  1  0
  6  7  1  0
  7  8  1  0
  7  9  2  0
  9 10  1  0
 10 11  1  0
 11 12  2  0
 12 13  1  0
 13 14  1  0
 12 15  1  0
 15 16  1  0
 15 17  2  0
 17 18  1  0
 18 19  2  0
 19 20  1  0
 21 20  1  6
 21 22  1  0
 22 23  1  0
 23 24  1  1
 24 25  2  0
 24 26  1  0
 23 27  1  0
 27 28  1  6
 27 29  1  0
 29 30  1  6
 29 31  1  0
 31 32  1  1
 18 33  1  0
 33 34  2  0
 33 35  1  0
 35 36  1  0
 19 11  1  0
 31 21  1  0
 36 17  1  0
M  CHG  1  26  -1
M  END
>  <Compound_ID>  (132) 
C22063372

>  <Active>  (132) 
0

>  <Smiles>  (132) 
COC(=O)CC/C(C)=C/Cc1c(OC)c(C)c2c(c1O[C@H]1O[C@H](C(=O)[O-])[C@@H](O)[C@@H](O)[C@@H]1O)C(=O)OC2

>  <canonical_smi>  (132) 
COC(=O)CC/C(C)=C/Cc1c(OC)c(C)c2c(c1O[C@H]1O[C@H](C(=O)[O-])[C@@H](O)[C@@H](O)[C@@H]1O)C(=O)OC2

>  <Set>  (132) 
G2 inactive

>  <Set_type>  (132) 
Train

>  <MW>  (132) 
509.48

>  <HBD>  (132) 
3

>  <HBA>  (132) 
12

>  <NRB>  (132) 
9

>  <NR>  (132) 
3

>  <NAR>  (132) 
1

>  <PSA>  (132) 
181.11

>  <Standard Type>  (132) 
nan

>  <Standard Relation>  (132) 
nan

>  <Standard Units>  (132) 
nan

>  <Standard Value>  (132) 
nan

>  <Assay ChEMBL ID>  (132) 
nan

>  <Assay Description>  (132) 
nan

>  <BAO Label>  (132) 
nan

$$$$

     RDKit          2D

 26 28  0  0  0  0  0  0  0  0999 V2000
    8.5808    9.5939    0.0000 C   0  0  0  0  0  0  0  0  0  0  0  0
    8.1173    8.1673    0.0000 C   0  0  0  0  0  0  0  0  0  0  0  0
    6.6501    7.8555    0.0000 C   0  0  0  0  0  0  0  0  0  0  0  0
    6.1865    6.4289    0.0000 N   0  0  0  0  0  0  0  0  0  0  0  0
    4.7193    6.1170    0.0000 C   0  0  0  0  0  0  0  0  0  0  0  0
    3.7156    7.2317    0.0000 O   0  0  0  0  0  0  0  0  0  0  0  0
    4.2558    4.6904    0.0000 C   0  0  0  0  0  0  0  0  0  0  0  0
    2.7886    4.3786    0.0000 C   0  0  0  0  0  0  0  0  0  0  0  0
    2.3250    2.9520    0.0000 C   0  0  0  0  0  0  0  0  0  0  0  0
    0.8578    2.6401    0.0000 C   0  0  0  0  0  0  0  0  0  0  0  0
    0.3943    1.2135    0.0000 C   0  0  0  0  0  0  0  0  0  0  0  0
    1.2760    0.0000    0.0000 S   0  0  0  0  0  0  0  0  0  0  0  0
    0.3943   -1.2135    0.0000 C   0  0  0  0  0  0  0  0  0  0  0  0
   -1.0323   -0.7500    0.0000 C   0  0  0  0  0  0  0  0  0  0  0  0
   -2.4589   -1.2135    0.0000 N   0  0  0  0  0  0  0  0  0  0  0  0
   -3.3405    0.0000    0.0000 C   0  0  0  0  0  0  0  0  0  0  0  0
   -4.8405    0.0000    0.0000 O   0  0  0  0  0  0  0  0  0  0  0  0
   -2.4589    1.2135    0.0000 N   0  0  0  0  0  0  0  0  0  0  0  0
   -1.0323    0.7500    0.0000 C   0  0  0  0  0  0  0  0  0  0  0  0
    9.1210    7.0526    0.0000 C   0  0  0  0  0  0  0  0  0  0  0  0
   10.5882    7.3645    0.0000 N   0  0  0  0  0  4  0  0  0  0  0  0
   11.5919    6.2498    0.0000 C   0  0  0  0  0  0  0  0  0  0  0  0
   13.0591    6.5616    0.0000 C   0  0  0  0  0  0  0  0  0  0  0  0
   13.5226    7.9882    0.0000 C   0  0  0  0  0  0  0  0  0  0  0  0
   12.5190    9.1029    0.0000 C   0  0  0  0  0  0  0  0  0  0  0  0
   11.0517    8.7911    0.0000 C   0  0  0  0  0  0  0  0  0  0  0  0
  2  1  1  1
  2  3  1  0
  3  4  1  0
  4  5  1  0
  5  6  2  0
  5  7  1  0
  7  8  1  0
  8  9  1  0
  9 10  1  0
 11 10  1  1
 11 12  1  0
 12 13  1  0
 14 13  1  1
 14 15  1  0
 15 16  1  0
 16 17  2  0
 16 18  1  0
 19 18  1  6
  2 20  1  0
 20 21  1  0
 21 22  1  0
 22 23  1  0
 23 24  1  0
 24 25  1  0
 25 26  1  0
 19 11  1  0
 26 21  1  0
 19 14  1  0
M  CHG  1  21   1
M  END
>  <Compound_ID>  (133) 
C67210207

>  <Active>  (133) 
0

>  <Smiles>  (133) 
C[C@H](CNC(=O)CCCC[C@H]1SC[C@H]2NC(=O)N[C@@H]21)C[NH+]1CCCCC1

>  <canonical_smi>  (133) 
C[C@H](CNC(=O)CCCC[C@H]1SC[C@H]2NC(=O)N[C@@H]21)C[NH+]1CCCCC1

>  <Set>  (133) 
G2 inactive

>  <Set_type>  (133) 
Train

>  <MW>  (133) 
383.58

>  <HBD>  (133) 
4

>  <HBA>  (133) 
3

>  <NRB>  (133) 
9

>  <NR>  (133) 
3

>  <NAR>  (133) 
0

>  <PSA>  (133) 
74.67

>  <Standard Type>  (133) 
nan

>  <Standard Relation>  (133) 
nan

>  <Standard Units>  (133) 
nan

>  <Standard Value>  (133) 
nan

>  <Assay ChEMBL ID>  (133) 
nan

>  <Assay Description>  (133) 
nan

>  <BAO Label>  (133) 
nan

$$$$

     RDKit          2D

 37 42  0  0  0  0  0  0  0  0999 V2000
   -0.7500  -16.8875    0.0000 C   0  0  0  0  0  0  0  0  0  0  0  0
    0.0000  -15.5885    0.0000 C   0  0  0  0  0  0  0  0  0  0  0  0
   -0.7500  -14.2894    0.0000 C   0  0  0  0  0  0  0  0  0  0  0  0
    0.0000  -12.9904    0.0000 C   0  0  0  0  0  0  0  0  0  0  0  0
   -0.7500  -11.6913    0.0000 C   0  0  0  0  0  0  0  0  0  0  0  0
    0.0000  -10.3923    0.0000 C   0  0  0  0  0  0  0  0  0  0  0  0
   -0.7500   -9.0933    0.0000 N   0  0  0  0  0  0  0  0  0  0  0  0
   -2.2500   -9.0933    0.0000 C   0  0  0  0  0  0  0  0  0  0  0  0
   -3.0000  -10.3923    0.0000 O   0  0  0  0  0  0  0  0  0  0  0  0
   -3.0000   -7.7942    0.0000 N   0  0  0  0  0  0  0  0  0  0  0  0
   -2.2500   -6.4952    0.0000 C   0  0  0  0  0  0  0  0  0  0  0  0
   -3.0000   -5.1962    0.0000 O   0  0  0  0  0  0  0  0  0  0  0  0
   -0.7500   -6.4952    0.0000 C   0  0  0  0  0  0  0  0  0  0  0  0
   -1.5000   -5.1962    0.0000 C   0  0  0  0  0  0  0  0  0  0  0  0
   -0.7500   -3.8971    0.0000 C   0  0  0  0  0  0  0  0  0  0  0  0
    0.7500   -3.8971    0.0000 C   0  0  0  0  0  0  0  0  0  0  0  0
    1.5000   -2.5981    0.0000 N   0  0  0  0  0  4  0  0  0  0  0  0
    0.7500   -1.2990    0.0000 C   0  0  0  0  0  0  0  0  0  0  0  0
    1.5000    0.0000    0.0000 C   0  0  0  0  0  0  0  0  0  0  0  0
    0.7500    1.2990    0.0000 C   0  0  0  0  0  0  0  0  0  0  0  0
   -0.7500    1.2990    0.0000 C   0  0  0  0  0  0  0  0  0  0  0  0
   -1.5000    0.0000    0.0000 C   0  0  0  0  0  0  0  0  0  0  0  0
   -0.7500   -1.2990    0.0000 N   0  0  0  0  0  0  0  0  0  0  0  0
   -1.5000   -2.5981    0.0000 C   0  0  0  0  0  0  0  0  0  0  0  0
   -3.0000   -2.5981    0.0000 O   0  0  0  0  0  0  0  0  0  0  0  0
    1.5000   -5.1962    0.0000 N   0  0  0  0  0  0  0  0  0  0  0  0
    3.0000   -5.1962    0.0000 C   0  0  0  0  0  0  0  0  0  0  0  0
    3.7500   -6.4952    0.0000 C   0  0  0  0  0  0  0  0  0  0  0  0
    3.0000   -7.7942    0.0000 C   0  0  0  0  0  0  0  0  0  0  0  0
    3.7500   -9.0933    0.0000 C   0  0  0  0  0  0  0  0  0  0  0  0
    3.0000  -10.3923    0.0000 C   0  0  0  0  0  0  0  0  0  0  0  0
    1.5000  -10.3923    0.0000 C   0  0  0  0  0  0  0  0  0  0  0  0
    0.7500   -9.0933    0.0000 C   0  0  0  0  0  0  0  0  0  0  0  0
    1.5000   -7.7942    0.0000 C   0  0  0  0  0  0  0  0  0  0  0  0
    0.7500   -6.4952    0.0000 C   0  0  0  0  0  0  0  0  0  0  0  0
   -0.0000   -7.7942    0.0000 C   0  0  0  0  0  0  0  0  0  0  0  0
    0.7735   -7.9871    0.0000 O   0  0  0  0  0  0  0  0  0  0  0  0
  1  2  1  0
  2  3  1  0
  3  4  1  0
  4  5  1  0
  5  6  1  0
  6  7  1  0
  7  8  1  0
  8  9  2  0
  8 10  1  0
 10 11  1  0
 11 12  2  0
 11 13  1  0
 13 14  1  1
 14 15  1  0
 15 16  2  0
 16 17  1  0
 17 18  2  0
 18 19  1  0
 19 20  2  0
 20 21  1  0
 21 22  2  0
 22 23  1  0
 23 24  1  0
 24 25  2  0
 16 26  1  0
 26 27  1  0
 27 28  1  0
 28 29  1  0
 29 30  2  0
 30 31  1  0
 31 32  2  0
 32 33  1  0
 33 34  2  0
 35 34  1  6
 13 36  1  0
 36 37  2  0
 36  7  1  0
 35 13  1  0
 24 15  1  0
 35 26  1  0
 23 18  1  0
 34 29  1  0
M  CHG  1  17   1
M  END
>  <Compound_ID>  (134) 
C09172732

>  <Active>  (134) 
0

>  <Smiles>  (134) 
CCCCCCN1C(=O)NC(=O)[C@@]2(Cc3c([nH+]c4ccccn4c3=O)N3CCc4ccccc4[C@@H]32)C1=O

>  <canonical_smi>  (134) 
CCCCCCN1C(=O)NC(=O)[C@@]2(Cc3c([nH+]c4ccccn4c3=O)N3CCc4ccccc4[C@@H]32)C1=O

>  <Set>  (134) 
G2 inactive

>  <Set_type>  (134) 
Train

>  <MW>  (134) 
500.58

>  <HBD>  (134) 
1

>  <HBA>  (134) 
5

>  <NRB>  (134) 
5

>  <NR>  (134) 
6

>  <NAR>  (134) 
3

>  <PSA>  (134) 
105.34

>  <Standard Type>  (134) 
nan

>  <Standard Relation>  (134) 
nan

>  <Standard Units>  (134) 
nan

>  <Standard Value>  (134) 
nan

>  <Assay ChEMBL ID>  (134) 
nan

>  <Assay Description>  (134) 
nan

>  <BAO Label>  (134) 
nan

$$$$

     RDKit          2D

 30 33  0  0  0  0  0  0  0  0999 V2000
    4.1110   -5.4376    0.0000 C   0  0  0  0  0  0  0  0  0  0  0  0
    2.7406   -4.8275    0.0000 N   0  0  0  0  0  0  0  0  0  0  0  0
    1.5271   -5.7092    0.0000 C   0  0  0  0  0  0  0  0  0  0  0  0
    1.6839   -7.2010    0.0000 S   0  0  0  0  0  0  0  0  0  0  0  0
    0.4704   -8.0826    0.0000 C   0  0  0  0  0  0  0  0  0  0  0  0
    0.6272   -9.5744    0.0000 C   0  0  0  0  0  0  0  0  0  0  0  0
    1.9975  -10.1845    0.0000 O   0  0  0  0  0  0  0  0  0  0  0  0
   -0.5864  -10.4561    0.0000 N   0  0  0  0  0  0  0  0  0  0  0  0
   -0.4296  -11.9479    0.0000 C   0  0  0  0  0  0  0  0  0  0  0  0
    0.9408  -12.5580    0.0000 C   0  0  0  0  0  0  0  0  0  0  0  0
    1.0975  -14.0498    0.0000 C   0  0  0  0  0  0  0  0  0  0  0  0
   -0.1160  -14.9315    0.0000 C   0  0  0  0  0  0  0  0  0  0  0  0
   -1.4863  -14.3214    0.0000 C   0  0  0  0  0  0  0  0  0  0  0  0
   -1.6431  -12.8296    0.0000 C   0  0  0  0  0  0  0  0  0  0  0  0
   -3.0134  -12.2195    0.0000 C   0  0  0  0  0  0  0  0  0  0  0  0
   -2.4033  -10.8491    0.0000 C   0  0  0  0  0  0  0  0  0  0  0  0
   -3.6235  -13.5898    0.0000 C   0  0  0  0  0  0  0  0  0  0  0  0
   -4.3837  -11.6094    0.0000 C   0  0  0  0  0  0  0  0  0  0  0  0
    0.1568   -5.0991    0.0000 N   0  0  0  0  0  0  0  0  0  0  0  0
   -0.0000   -3.6073    0.0000 C   0  0  0  0  0  0  0  0  0  0  0  0
   -1.2135   -2.7256    0.0000 S   0  0  0  0  0  0  0  0  0  0  0  0
   -0.7500   -1.2990    0.0000 C   0  0  0  0  0  0  0  0  0  0  0  0
    0.7500   -1.2990    0.0000 C   0  0  0  0  0  0  0  0  0  0  0  0
    1.2135   -2.7256    0.0000 C   0  0  0  0  0  0  0  0  0  0  0  0
    2.5838   -3.3357    0.0000 C   0  0  0  0  0  0  0  0  0  0  0  0
    3.7974   -2.4540    0.0000 O   0  0  0  0  0  0  0  0  0  0  0  0
    1.5000    0.0000    0.0000 C   0  0  0  0  0  0  0  0  0  0  0  0
    0.7500    1.2990    0.0000 C   0  0  0  0  0  0  0  0  0  0  0  0
   -0.7500    1.2990    0.0000 C   0  0  0  0  0  0  0  0  0  0  0  0
   -1.5000    0.0000    0.0000 C   0  0  0  0  0  0  0  0  0  0  0  0
  1  2  1  0
  2  3  1  0
  3  4  1  0
  4  5  1  0
  5  6  1  0
  6  7  2  0
  6  8  1  0
  8  9  1  0
  9 10  2  0
 10 11  1  0
 11 12  2  0
 12 13  1  0
 13 14  2  0
 14 15  1  0
 15 16  1  0
 15 17  1  0
 15 18  1  0
  3 19  2  0
 19 20  1  0
 20 21  1  0
 21 22  1  0
 22 23  2  0
 23 24  1  0
 24 25  1  0
 25 26  2  0
 23 27  1  0
 27 28  1  0
 28 29  1  0
 29 30  1  0
 25  2  1  0
 14  9  1  0
 24 20  2  0
 30 22  1  0
M  END
>  <Compound_ID>  (135) 
C02335664

>  <Active>  (135) 
0

>  <Smiles>  (135) 
Cn1c(SCC(=O)Nc2ccccc2C(C)(C)C)nc2sc3c(c2c1=O)CCCC3

>  <canonical_smi>  (135) 
Cn1c(SCC(=O)Nc2ccccc2C(C)(C)C)nc2sc3c(c2c1=O)CCCC3

>  <Set>  (135) 
G2 inactive

>  <Set_type>  (135) 
Train

>  <MW>  (135) 
441.62

>  <HBD>  (135) 
1

>  <HBA>  (135) 
4

>  <NRB>  (135) 
4

>  <NR>  (135) 
4

>  <NAR>  (135) 
3

>  <PSA>  (135) 
63.99

>  <Standard Type>  (135) 
nan

>  <Standard Relation>  (135) 
nan

>  <Standard Units>  (135) 
nan

>  <Standard Value>  (135) 
nan

>  <Assay ChEMBL ID>  (135) 
nan

>  <Assay Description>  (135) 
nan

>  <BAO Label>  (135) 
nan

$$$$

     RDKit          2D

 27 29  0  0  0  0  0  0  0  0999 V2000
    3.0000    0.0000    0.0000 C   0  0  0  0  0  0  0  0  0  0  0  0
    1.5000    0.0000    0.0000 C   0  0  0  0  0  0  0  0  0  0  0  0
    0.7500   -1.2990    0.0000 C   0  0  0  0  0  0  0  0  0  0  0  0
   -0.7500   -1.2990    0.0000 C   0  0  0  0  0  0  0  0  0  0  0  0
   -1.5000    0.0000    0.0000 C   0  0  0  0  0  0  0  0  0  0  0  0
   -0.7500    1.2990    0.0000 C   0  0  0  0  0  0  0  0  0  0  0  0
    0.7500    1.2990    0.0000 N   0  0  0  0  0  4  0  0  0  0  0  0
    1.5000    2.5981    0.0000 C   0  0  0  0  0  0  0  0  0  0  0  0
    0.7500    3.8971    0.0000 C   0  0  0  0  0  0  0  0  0  0  0  0
    1.5000    5.1962    0.0000 N   0  0  0  0  0  0  0  0  0  0  0  0
    0.7500    6.4952    0.0000 C   0  0  0  0  0  0  0  0  0  0  0  0
   -0.7500    6.4952    0.0000 O   0  0  0  0  0  0  0  0  0  0  0  0
    1.5000    7.7942    0.0000 C   0  0  0  0  0  0  0  0  0  0  0  0
    0.7500    9.0933    0.0000 C   0  0  0  0  0  0  0  0  0  0  0  0
    1.5000   10.3923    0.0000 C   0  0  0  0  0  0  0  0  0  0  0  0
    3.0000   10.3923    0.0000 C   0  0  0  0  0  0  0  0  0  0  0  0
    3.7500   11.6913    0.0000 C   0  0  0  0  0  0  0  0  0  0  0  0
    3.0000   12.9904    0.0000 C   0  0  0  0  0  0  0  0  0  0  0  0
    3.7500   14.2894    0.0000 N   0  0  0  0  0  0  0  0  0  0  0  0
    3.1399   15.6597    0.0000 C   0  0  0  0  0  0  0  0  0  0  0  0
    4.2546   16.6634    0.0000 C   0  0  0  0  0  0  0  0  0  0  0  0
    5.5537   15.9134    0.0000 C   0  0  0  0  0  0  0  0  0  0  0  0
    5.2418   14.4462    0.0000 S   0  0  0  0  0  0  0  0  0  0  0  0
    6.7336   14.2894    0.0000 O   0  0  0  0  0  0  0  0  0  0  0  0
    5.2418   12.9462    0.0000 O   0  0  0  0  0  0  0  0  0  0  0  0
    1.5000   12.9904    0.0000 C   0  0  0  0  0  0  0  0  0  0  0  0
    0.7500   11.6913    0.0000 C   0  0  0  0  0  0  0  0  0  0  0  0
  2  1  1  6
  2  3  1  0
  3  4  1  0
  4  5  1  0
  5  6  1  0
  6  7  1  0
  7  8  1  0
  8  9  1  0
  9 10  1  0
 10 11  1  0
 11 12  2  0
 11 13  1  0
 13 14  2  0
 14 15  1  0
 15 16  2  0
 16 17  1  0
 17 18  2  0
 18 19  1  0
 19 20  1  0
 20 21  1  0
 21 22  1  0
 22 23  1  0
 23 24  2  0
 23 25  2  0
 18 26  1  0
 26 27  2  0
  7  2  1  0
 27 15  1  0
 23 19  1  0
M  CHG  1   7   1
M  END
>  <Compound_ID>  (136) 
C46860825

>  <Active>  (136) 
0

>  <Smiles>  (136) 
C[C@@H]1CCCC[NH+]1CCNC(=O)/C=C/c1ccc(N2CCCS2(=O)=O)cc1

>  <canonical_smi>  (136) 
C[C@@H]1CCCC[NH+]1CCNC(=O)/C=C/c1ccc(N2CCCS2(=O)=O)cc1

>  <Set>  (136) 
G2 inactive

>  <Set_type>  (136) 
Train

>  <MW>  (136) 
392.55

>  <HBD>  (136) 
2

>  <HBA>  (136) 
3

>  <NRB>  (136) 
6

>  <NR>  (136) 
3

>  <NAR>  (136) 
1

>  <PSA>  (136) 
70.92

>  <Standard Type>  (136) 
nan

>  <Standard Relation>  (136) 
nan

>  <Standard Units>  (136) 
nan

>  <Standard Value>  (136) 
nan

>  <Assay ChEMBL ID>  (136) 
nan

>  <Assay Description>  (136) 
nan

>  <BAO Label>  (136) 
nan

$$$$

     RDKit          2D

 29 32  0  0  0  0  0  0  0  0999 V2000
    1.6317   -8.6291    0.0000 C   0  0  0  0  0  0  0  0  0  0  0  0
    0.7500   -7.4156    0.0000 C   0  0  0  0  0  0  0  0  0  0  0  0
    1.2135   -5.9890    0.0000 N   0  0  0  0  0  0  0  0  0  0  0  0
   -0.0000   -5.1073    0.0000 N   0  0  0  0  0  0  0  0  0  0  0  0
   -0.0000   -3.6073    0.0000 C   0  0  0  0  0  0  0  0  0  0  0  0
    1.2135   -2.7256    0.0000 N   0  0  0  0  0  0  0  0  0  0  0  0
    0.7500   -1.2990    0.0000 C   0  0  0  0  0  0  0  0  0  0  0  0
    1.5000    0.0000    0.0000 C   0  0  0  0  0  0  0  0  0  0  0  0
    0.7500    1.2990    0.0000 C   0  0  0  0  0  0  0  0  0  0  0  0
   -0.7500    1.2990    0.0000 C   0  0  0  0  0  0  0  0  0  0  0  0
   -1.5000    0.0000    0.0000 C   0  0  0  0  0  0  0  0  0  0  0  0
   -0.7500   -1.2990    0.0000 C   0  0  0  0  0  0  0  0  0  0  0  0
   -1.2135   -2.7256    0.0000 S   0  0  0  0  0  0  0  0  0  0  0  0
   -1.2135   -5.9890    0.0000 C   0  0  0  0  0  0  0  0  0  0  0  0
   -2.6401   -5.5255    0.0000 O   0  0  0  0  0  0  0  0  0  0  0  0
   -0.7500   -7.4156    0.0000 C   0  0  0  0  0  0  0  0  0  0  0  0
   -1.6317   -8.6291    0.0000 C   0  0  0  0  0  0  0  0  0  0  0  0
   -1.0216   -9.9994    0.0000 C   0  0  0  0  0  0  0  0  0  0  0  0
   -3.1235   -8.4723    0.0000 N   0  0  0  0  0  0  0  0  0  0  0  0
   -4.0051   -9.6858    0.0000 C   0  0  0  0  0  0  0  0  0  0  0  0
   -5.4969   -9.5290    0.0000 C   0  0  0  0  0  0  0  0  0  0  0  0
   -6.3786  -10.7426    0.0000 S   0  0  0  0  0  0  0  0  0  0  0  0
   -7.8704  -10.5858    0.0000 C   0  0  0  0  0  0  0  0  0  0  0  0
   -8.7521  -11.7993    0.0000 C   0  0  0  0  0  0  0  0  0  0  0  0
   -8.2885  -13.2259    0.0000 N   0  0  0  0  0  0  0  0  0  0  0  0
   -9.5021  -14.1075    0.0000 C   0  0  0  0  0  0  0  0  0  0  0  0
  -10.7156  -13.2259    0.0000 N   0  0  0  0  0  0  0  0  0  0  0  0
  -10.2521  -11.7993    0.0000 C   0  0  0  0  0  0  0  0  0  0  0  0
  -11.1337  -10.5858    0.0000 C   0  0  0  0  0  0  0  0  0  0  0  0
  1  2  1  0
  2  3  2  0
  3  4  1  0
  5  4  1  6
  5  6  1  0
  6  7  1  0
  7  8  2  0
  8  9  1  0
  9 10  2  0
 10 11  1  0
 11 12  2  0
 12 13  1  0
  4 14  1  0
 14 15  2  0
 14 16  1  0
 16 17  2  0
 17 18  1  0
 17 19  1  0
 19 20  1  0
 20 21  1  0
 21 22  1  0
 22 23  1  0
 23 24  2  0
 24 25  1  0
 25 26  1  0
 26 27  2  0
 27 28  1  0
 28 29  1  1
 16  2  1  0
 28 24  1  0
 13  5  1  0
 12  7  1  0
M  END
>  <Compound_ID>  (137) 
C39272873

>  <Active>  (137) 
0

>  <Smiles>  (137) 
CC1=NN([C@H]2Nc3ccccc3S2)C(=O)/C1=C(/C)NCCS/C=C1\NC=N[C@H]1C

>  <canonical_smi>  (137) 
CC1=NN([C@H]2Nc3ccccc3S2)C(=O)/C1=C(/C)NCCS/C=C1\NC=N[C@H]1C

>  <Set>  (137) 
G2 inactive

>  <Set_type>  (137) 
Train

>  <MW>  (137) 
428.59

>  <HBD>  (137) 
3

>  <HBA>  (137) 
6

>  <NRB>  (137) 
6

>  <NR>  (137) 
4

>  <NAR>  (137) 
1

>  <PSA>  (137) 
81.12

>  <Standard Type>  (137) 
nan

>  <Standard Relation>  (137) 
nan

>  <Standard Units>  (137) 
nan

>  <Standard Value>  (137) 
nan

>  <Assay ChEMBL ID>  (137) 
nan

>  <Assay Description>  (137) 
nan

>  <BAO Label>  (137) 
nan

$$$$

     RDKit          2D

 35 39  0  0  0  0  0  0  0  0999 V2000
   -0.4086    3.6844    0.0000 C   0  0  0  0  0  0  0  0  0  0  0  0
   -1.8351    3.2209    0.0000 O   0  0  0  0  0  0  0  0  0  0  0  0
   -2.1470    1.7537    0.0000 C   0  0  0  0  0  0  0  0  0  0  0  0
   -1.0323    0.7500    0.0000 C   0  0  0  0  0  0  0  0  0  0  0  0
   -1.3442   -0.7172    0.0000 C   0  0  0  0  0  0  0  0  0  0  0  0
   -2.7707   -1.1807    0.0000 C   0  0  0  0  0  0  0  0  0  0  0  0
   -3.8855   -0.1771    0.0000 C   0  0  0  0  0  0  0  0  0  0  0  0
   -3.5736    1.2902    0.0000 C   0  0  0  0  0  0  0  0  0  0  0  0
   -4.6883    2.2939    0.0000 C   0  0  0  0  0  0  0  0  0  0  0  0
   -4.3764    3.7611    0.0000 C   0  0  0  0  0  0  0  0  0  0  0  0
   -5.4912    4.7648    0.0000 C   0  0  0  0  0  0  0  0  0  0  0  0
   -6.9177    4.3013    0.0000 N   0  0  0  0  0  0  0  0  0  0  0  0
   -8.0325    5.3050    0.0000 O   0  0  0  0  0  0  0  0  0  0  0  0
   -5.1793    6.2320    0.0000 C   0  0  0  0  0  0  0  0  0  0  0  0
   -3.7527    6.6955    0.0000 C   0  0  0  0  0  0  0  0  0  0  0  0
   -3.4408    8.1628    0.0000 C   0  0  0  0  0  0  0  0  0  0  0  0
   -2.0143    8.6263    0.0000 C   0  0  0  0  0  0  0  0  0  0  0  0
   -2.4778   10.0529    0.0000 C   0  0  0  0  0  0  0  0  0  0  0  0
   -1.5507    7.1997    0.0000 C   0  0  0  0  0  0  0  0  0  0  0  0
   -0.5877    9.0898    0.0000 C   0  0  0  0  0  0  0  0  0  0  0  0
   -4.5556    9.1664    0.0000 C   0  0  0  0  0  0  0  0  0  0  0  0
   -5.9821    8.7029    0.0000 C   0  0  0  0  0  0  0  0  0  0  0  0
   -6.2940    7.2357    0.0000 C   0  0  0  0  0  0  0  0  0  0  0  0
   -7.7858    7.0789    0.0000 C   0  0  0  0  0  0  0  0  0  0  0  0
   -8.3959    8.4492    0.0000 C   0  0  0  0  0  0  0  0  0  0  0  0
   -7.2812    9.4529    0.0000 C   0  0  0  0  0  0  0  0  0  0  0  0
   -8.3959   10.4566    0.0000 C   0  0  0  0  0  0  0  0  0  0  0  0
   -6.3995   10.6664    0.0000 C   0  0  0  0  0  0  0  0  0  0  0  0
   -6.1149    1.8303    0.0000 N   0  0  0  0  0  4  0  0  0  0  0  0
   -7.2296    2.8340    0.0000 C   0  0  0  0  0  0  0  0  0  0  0  0
   -6.4268    0.3631    0.0000 C   0  0  0  0  0  0  0  0  0  0  0  0
   -5.3120   -0.6406    0.0000 C   0  0  0  0  0  0  0  0  0  0  0  0
   -0.0451   -1.4672    0.0000 O   0  0  0  0  0  0  0  0  0  0  0  0
    1.0696   -0.4635    0.0000 C   0  0  0  0  0  0  0  0  0  0  0  0
    0.4595    0.9068    0.0000 O   0  0  0  0  0  0  0  0  0  0  0  0
  1  2  1  0
  2  3  1  0
  3  4  2  0
  4  5  1  0
  5  6  2  0
  6  7  1  0
  7  8  2  0
  8  9  1  0
  9 10  1  6
 10 11  1  0
 11 12  2  0
 12 13  1  0
 11 14  1  0
 14 15  2  0
 15 16  1  0
 16 17  1  0
 17 18  1  0
 17 19  1  0
 17 20  1  0
 16 21  2  0
 21 22  1  0
 22 23  2  0
 23 24  1  0
 24 25  1  0
 25 26  1  0
 26 27  1  0
 26 28  1  0
  9 29  1  0
 29 30  1  0
 29 31  1  0
 31 32  1  0
  5 33  1  0
 33 34  1  0
 34 35  1  0
  8  3  1  0
 23 14  1  0
 35  4  1  0
 32  7  1  0
 26 22  1  0
M  CHG  1  29   1
M  END
>  <Compound_ID>  (138) 
C12662475

>  <Active>  (138) 
0

>  <Smiles>  (138) 
COc1c2c(cc3c1[C@@H](C/C(=N/O)c1cc(C(C)(C)C)cc4c1CCC4(C)C)[NH+](C)CC3)OCO2

>  <canonical_smi>  (138) 
COc1c2c(cc3c1[C@@H](C/C(=N/O)c1cc(C(C)(C)C)cc4c1CCC4(C)C)[NH+](C)CC3)OCO2

>  <Set>  (138) 
G2 inactive

>  <Set_type>  (138) 
Train

>  <MW>  (138) 
479.64

>  <HBD>  (138) 
2

>  <HBA>  (138) 
4

>  <NRB>  (138) 
4

>  <NR>  (138) 
5

>  <NAR>  (138) 
2

>  <PSA>  (138) 
64.72

>  <Standard Type>  (138) 
nan

>  <Standard Relation>  (138) 
nan

>  <Standard Units>  (138) 
nan

>  <Standard Value>  (138) 
nan

>  <Assay ChEMBL ID>  (138) 
nan

>  <Assay Description>  (138) 
nan

>  <BAO Label>  (138) 
nan

$$$$

     RDKit          2D

 34 38  0  0  0  0  0  0  0  0999 V2000
   -3.4408    8.1628    0.0000 F   0  0  0  0  0  0  0  0  0  0  0  0
   -2.0143    8.6263    0.0000 C   0  0  0  0  0  0  0  0  0  0  0  0
   -1.7024   10.0935    0.0000 F   0  0  0  0  0  0  0  0  0  0  0  0
   -0.8995    7.6226    0.0000 O   0  0  0  0  0  0  0  0  0  0  0  0
    0.5271    8.0861    0.0000 C   0  0  0  0  0  0  0  0  0  0  0  0
    0.8389    9.5533    0.0000 C   0  0  0  0  0  0  0  0  0  0  0  0
    2.2655   10.0169    0.0000 C   0  0  0  0  0  0  0  0  0  0  0  0
    3.3802    9.0132    0.0000 C   0  0  0  0  0  0  0  0  0  0  0  0
    3.0684    7.5459    0.0000 C   0  0  0  0  0  0  0  0  0  0  0  0
    1.6418    7.0824    0.0000 C   0  0  0  0  0  0  0  0  0  0  0  0
    1.3299    5.6152    0.0000 C   0  0  0  0  0  0  0  0  0  0  0  0
   -0.0967    5.1517    0.0000 C   0  0  0  0  0  0  0  0  0  0  0  0
   -1.2114    6.1554    0.0000 C   0  0  0  0  0  0  0  0  0  0  0  0
   -2.6380    5.6918    0.0000 C   0  0  0  0  0  0  0  0  0  0  0  0
   -2.9499    4.2246    0.0000 C   0  0  0  0  0  0  0  0  0  0  0  0
   -1.8351    3.2209    0.0000 C   0  0  0  0  0  0  0  0  0  0  0  0
   -0.4086    3.6844    0.0000 C   0  0  0  0  0  0  0  0  0  0  0  0
    0.7062    2.6807    0.0000 N   0  0  0  0  0  4  0  0  0  0  0  0
    0.3943    1.2135    0.0000 C   0  0  0  0  0  0  0  0  0  0  0  0
    1.2760    0.0000    0.0000 N   0  0  0  0  0  0  0  0  0  0  0  0
    0.3943   -1.2135    0.0000 C   0  0  0  0  0  0  0  0  0  0  0  0
   -1.0323   -0.7500    0.0000 N   0  0  0  0  0  0  0  0  0  0  0  0
   -1.0323    0.7500    0.0000 N   0  0  0  0  0  0  0  0  0  0  0  0
   -2.1470    1.7537    0.0000 C   0  0  0  0  0  0  0  0  0  0  0  0
   -3.5736    1.2902    0.0000 C   0  0  0  0  0  0  0  0  0  0  0  0
   -4.6883    2.2939    0.0000 C   0  0  0  0  0  0  0  0  0  0  0  0
   -6.1149    1.8303    0.0000 C   0  0  0  0  0  0  0  0  0  0  0  0
   -6.4268    0.3631    0.0000 C   0  0  0  0  0  0  0  0  0  0  0  0
   -5.3120   -0.6406    0.0000 C   0  0  0  0  0  0  0  0  0  0  0  0
   -3.8855   -0.1771    0.0000 C   0  0  0  0  0  0  0  0  0  0  0  0
   -2.7707   -1.1807    0.0000 O   0  0  0  0  0  0  0  0  0  0  0  0
   -3.0826   -2.6480    0.0000 C   0  0  0  0  0  0  0  0  0  0  0  0
   -1.9679   -3.6517    0.0000 F   0  0  0  0  0  0  0  0  0  0  0  0
   -4.5092   -3.1115    0.0000 F   0  0  0  0  0  0  0  0  0  0  0  0
  1  2  1  0
  2  3  1  0
  2  4  1  0
  4  5  1  0
  5  6  2  0
  6  7  1  0
  7  8  2  0
  8  9  1  0
  9 10  2  0
 10 11  1  0
 11 12  2  0
 12 13  1  0
 13 14  1  0
 14 15  1  0
 15 16  1  0
 16 17  2  0
 17 18  1  0
 18 19  2  0
 19 20  1  0
 20 21  2  0
 21 22  1  0
 22 23  1  0
 23 24  1  0
 24 25  1  6
 25 26  2  0
 26 27  1  0
 27 28  2  0
 28 29  1  0
 29 30  2  0
 30 31  1  0
 31 32  1  0
 32 33  1  0
 32 34  1  0
 10  5  1  0
 17 12  1  0
 23 19  1  0
 30 25  1  0
 24 16  1  0
M  CHG  1  18   1
M  END
>  <Compound_ID>  (139) 
C12561593

>  <Active>  (139) 
0

>  <Smiles>  (139) 
FC(F)Oc1ccccc1/C=C1\CCCC2=C1[NH+]=C1N=CNN1[C@@H]2c1ccccc1OC(F)F

>  <canonical_smi>  (139) 
FC(F)Oc1ccccc1/C=C1\CCCC2=C1[NH+]=C1N=CNN1[C@@H]2c1ccccc1OC(F)F

>  <Set>  (139) 
G2 inactive

>  <Set_type>  (139) 
Train

>  <MW>  (139) 
473.45

>  <HBD>  (139) 
2

>  <HBA>  (139) 
4

>  <NRB>  (139) 
6

>  <NR>  (139) 
5

>  <NAR>  (139) 
2

>  <PSA>  (139) 
60.06

>  <Standard Type>  (139) 
nan

>  <Standard Relation>  (139) 
nan

>  <Standard Units>  (139) 
nan

>  <Standard Value>  (139) 
nan

>  <Assay ChEMBL ID>  (139) 
nan

>  <Assay Description>  (139) 
nan

>  <BAO Label>  (139) 
nan

$$$$

     RDKit          2D

 30 34  0  0  0  0  0  0  0  0999 V2000
   -9.6192   -4.0537    0.0000 O   0  0  0  0  0  0  0  0  0  0  0  0
   -8.3202   -4.8037    0.0000 C   0  0  0  0  0  0  0  0  0  0  0  0
   -7.0211   -4.0537    0.0000 C   0  0  0  0  0  0  0  0  0  0  0  0
   -5.7221   -4.8037    0.0000 N   0  0  0  0  0  4  0  0  0  0  0  0
   -4.4231   -4.0537    0.0000 C   0  0  0  0  0  0  0  0  0  0  0  0
   -4.4231   -2.5537    0.0000 C   0  0  0  0  0  0  0  0  0  0  0  0
   -5.7221   -1.8037    0.0000 O   0  0  0  0  0  0  0  0  0  0  0  0
   -3.1240   -1.8037    0.0000 N   0  0  0  0  0  0  0  0  0  0  0  0
   -1.7537   -2.4138    0.0000 N   0  0  0  0  0  0  0  0  0  0  0  0
   -0.7500   -1.2990    0.0000 C   0  0  0  0  0  0  0  0  0  0  0  0
    0.7500   -1.2990    0.0000 C   0  0  0  0  0  0  0  0  0  0  0  0
    1.5000   -2.5981    0.0000 C   0  0  0  0  0  0  0  0  0  0  0  0
    3.0000   -2.5981    0.0000 C   0  0  0  0  0  0  0  0  0  0  0  0
    3.8817   -1.3846    0.0000 C   0  0  0  0  0  0  0  0  0  0  0  0
    5.3083   -1.8481    0.0000 C   0  0  0  0  0  0  0  0  0  0  0  0
    5.3083   -3.3481    0.0000 C   0  0  0  0  0  0  0  0  0  0  0  0
    3.8817   -3.8116    0.0000 S   0  0  0  0  0  0  0  0  0  0  0  0
    1.5000    0.0000    0.0000 C   0  0  0  0  0  0  0  0  0  0  0  0
    0.7500    1.2990    0.0000 C   0  0  0  0  0  0  0  0  0  0  0  0
   -0.7500    1.2990    0.0000 C   0  0  0  0  0  0  0  0  0  0  0  0
   -1.5000    0.0000    0.0000 C   0  0  0  0  0  0  0  0  0  0  0  0
   -2.9672   -0.3119    0.0000 C   0  0  0  0  0  0  0  0  0  0  0  0
   -4.0819    0.6918    0.0000 C   0  0  0  0  0  0  0  0  0  0  0  0
   -5.5492    0.3800    0.0000 C   0  0  0  0  0  0  0  0  0  0  0  0
   -6.2992    1.6790    0.0000 C   0  0  0  0  0  0  0  0  0  0  0  0
   -5.2955    2.7937    0.0000 C   0  0  0  0  0  0  0  0  0  0  0  0
   -3.9251    2.1836    0.0000 S   0  0  0  0  0  0  0  0  0  0  0  0
   -5.7221   -6.3037    0.0000 C   0  0  0  0  0  0  0  0  0  0  0  0
   -7.0211   -7.0537    0.0000 C   0  0  0  0  0  0  0  0  0  0  0  0
   -8.3202   -6.3037    0.0000 N   0  0  0  0  0  0  0  0  0  0  0  0
  1  2  2  0
  2  3  1  0
  3  4  1  0
  4  5  1  0
  5  6  1  0
  6  7  2  0
  6  8  1  0
  8  9  1  0
  9 10  2  0
 10 11  1  0
 11 12  2  0
 12 13  1  0
 13 14  2  0
 14 15  1  0
 15 16  2  0
 16 17  1  0
 11 18  1  0
 18 19  1  0
 19 20  1  0
 21 20  1  1
 21 22  1  0
 22 23  1  6
 23 24  2  0
 24 25  1  0
 25 26  2  0
 26 27  1  0
  4 28  1  0
 28 29  1  0
 29 30  1  0
 30  2  1  0
 22  8  1  0
 27 23  1  0
 21 10  1  0
 17 13  1  0
M  CHG  1   4   1
M  END
>  <Compound_ID>  (140) 
C35414101

>  <Active>  (140) 
0

>  <Smiles>  (140) 
O=C1C[NH+](CC(=O)N2N=C3/C(=C/c4cccs4)CCC[C@@H]3[C@H]2c2cccs2)CCN1

>  <canonical_smi>  (140) 
O=C1C[NH+](CC(=O)N2N=C3/C(=C/c4cccs4)CCC[C@@H]3[C@H]2c2cccs2)CCN1

>  <Set>  (140) 
G2 inactive

>  <Set_type>  (140) 
Train

>  <MW>  (140) 
441.6

>  <HBD>  (140) 
2

>  <HBA>  (140) 
2

>  <NRB>  (140) 
4

>  <NR>  (140) 
5

>  <NAR>  (140) 
2

>  <PSA>  (140) 
66.21

>  <Standard Type>  (140) 
nan

>  <Standard Relation>  (140) 
nan

>  <Standard Units>  (140) 
nan

>  <Standard Value>  (140) 
nan

>  <Assay ChEMBL ID>  (140) 
nan

>  <Assay Description>  (140) 
nan

>  <BAO Label>  (140) 
nan

$$$$

     RDKit          2D

 26 29  0  0  0  0  0  0  0  0999 V2000
    6.1084  -12.0149    0.0000 C   0  0  0  0  0  0  0  0  0  0  0  0
    4.7381  -11.4047    0.0000 C   0  0  0  0  0  0  0  0  0  0  0  0
    4.5813   -9.9130    0.0000 O   0  0  0  0  0  0  0  0  0  0  0  0
    3.2110   -9.3029    0.0000 C   0  0  0  0  0  0  0  0  0  0  0  0
    1.9975  -10.1845    0.0000 C   0  0  0  0  0  0  0  0  0  0  0  0
    0.6272   -9.5744    0.0000 C   0  0  0  0  0  0  0  0  0  0  0  0
   -0.5864  -10.4561    0.0000 Br  0  0  0  0  0  0  0  0  0  0  0  0
    0.4704   -8.0826    0.0000 C   0  0  0  0  0  0  0  0  0  0  0  0
    1.6839   -7.2010    0.0000 C   0  0  0  0  0  0  0  0  0  0  0  0
    1.5271   -5.7092    0.0000 C   0  0  0  0  0  0  0  0  0  0  0  0
    2.7406   -4.8275    0.0000 N   0  0  0  0  0  0  0  0  0  0  0  0
    2.5838   -3.3357    0.0000 C   0  0  0  0  0  0  0  0  0  0  0  0
    3.7974   -2.4540    0.0000 O   0  0  0  0  0  0  0  0  0  0  0  0
    1.2135   -2.7256    0.0000 C   0  0  0  0  0  0  0  0  0  0  0  0
   -0.0000   -3.6073    0.0000 C   0  0  0  0  0  0  0  0  0  0  0  0
   -1.2135   -2.7256    0.0000 S   0  0  0  0  0  0  0  0  0  0  0  0
   -0.7500   -1.2990    0.0000 C   0  0  0  0  0  0  0  0  0  0  0  0
    0.7500   -1.2990    0.0000 C   0  0  0  0  0  0  0  0  0  0  0  0
    1.5000    0.0000    0.0000 C   0  0  0  0  0  0  0  0  0  0  0  0
    0.7500    1.2990    0.0000 C   0  0  0  0  0  0  0  0  0  0  0  0
   -0.7500    1.2990    0.0000 N   0  0  0  0  0  4  0  0  0  0  0  0
   -1.5000    2.5981    0.0000 C   0  0  0  0  0  0  0  0  0  0  0  0
   -1.5000    0.0000    0.0000 C   0  0  0  0  0  0  0  0  0  0  0  0
    0.1568   -5.0991    0.0000 N   0  0  0  0  0  0  0  0  0  0  0  0
    3.0542   -7.8111    0.0000 C   0  0  0  0  0  0  0  0  0  0  0  0
    4.2677   -6.9294    0.0000 O   0  0  0  0  0  0  0  0  0  0  0  0
  1  2  1  0
  2  3  1  0
  3  4  1  0
  4  5  2  0
  5  6  1  0
  6  7  1  0
  6  8  2  0
  8  9  1  0
 10  9  1  1
 10 11  1  0
 11 12  1  0
 12 13  2  0
 12 14  1  0
 14 15  2  0
 15 16  1  0
 16 17  1  0
 17 18  2  0
 18 19  1  0
 19 20  1  0
 20 21  1  0
 21 22  1  0
 21 23  1  0
 15 24  1  0
  9 25  2  0
 25 26  1  0
 25  4  1  0
 24 10  1  0
 18 14  1  0
 23 17  1  0
M  CHG  1  21   1
M  END
>  <Compound_ID>  (141) 
C20079587

>  <Active>  (141) 
0

>  <Smiles>  (141) 
CCOc1cc(Br)cc([C@@H]2NC(=O)c3c(sc4c3CC[NH+](C)C4)N2)c1O

>  <canonical_smi>  (141) 
CCOc1cc(Br)cc([C@@H]2NC(=O)c3c(sc4c3CC[NH+](C)C4)N2)c1O

>  <Set>  (141) 
G2 inactive

>  <Set_type>  (141) 
Train

>  <MW>  (141) 
439.36

>  <HBD>  (141) 
4

>  <HBA>  (141) 
4

>  <NRB>  (141) 
3

>  <NR>  (141) 
4

>  <NAR>  (141) 
2

>  <PSA>  (141) 
75.03

>  <Standard Type>  (141) 
nan

>  <Standard Relation>  (141) 
nan

>  <Standard Units>  (141) 
nan

>  <Standard Value>  (141) 
nan

>  <Assay ChEMBL ID>  (141) 
nan

>  <Assay Description>  (141) 
nan

>  <BAO Label>  (141) 
nan

$$$$

     RDKit          2D

 26 30  0  0  0  0  0  0  0  0999 V2000
    1.5000   -2.5981    0.0000 C   0  0  0  0  0  0  0  0  0  0  0  0
    0.7500   -1.2990    0.0000 C   0  0  0  0  0  0  0  0  0  0  0  0
    1.5000    0.0000    0.0000 C   0  0  0  0  0  0  0  0  0  0  0  0
    0.7500    1.2990    0.0000 N   0  0  0  0  0  0  0  0  0  0  0  0
   -0.7500    1.2990    0.0000 C   0  0  0  0  0  0  0  0  0  0  0  0
   -1.5000    0.0000    0.0000 C   0  0  0  0  0  0  0  0  0  0  0  0
   -3.0000    0.0000    0.0000 C   0  0  0  0  0  0  0  0  0  0  0  0
   -3.7500    1.2990    0.0000 C   0  0  0  0  0  0  0  0  0  0  0  0
   -5.2500    1.2990    0.0000 C   0  0  0  0  0  0  0  0  0  0  0  0
   -6.0000    0.0000    0.0000 C   0  0  0  0  0  0  0  0  0  0  0  0
   -5.2500   -1.2990    0.0000 C   0  0  0  0  0  0  0  0  0  0  0  0
   -3.7500   -1.2990    0.0000 C   0  0  0  0  0  0  0  0  0  0  0  0
    1.7010   -0.7500    0.0000 C   0  0  0  0  0  0  0  0  0  0  0  0
    3.0000   -0.0000    0.0000 N   0  0  0  0  0  4  0  0  0  0  0  0
    2.2500   -1.2990    0.0000 C   0  0  0  0  0  0  0  0  0  0  0  0
    2.2500    1.2990    0.0000 C   0  0  0  0  0  0  0  0  0  0  0  0
    3.0000    2.5981    0.0000 C   0  0  0  0  0  0  0  0  0  0  0  0
    4.5000    2.5981    0.0000 C   0  0  0  0  0  0  0  0  0  0  0  0
    5.2500    3.8971    0.0000 C   0  0  0  0  0  0  0  0  0  0  0  0
    4.5000    5.1962    0.0000 C   0  0  0  0  0  0  0  0  0  0  0  0
    5.2500    6.4952    0.0000 O   0  0  0  0  0  0  0  0  0  0  0  0
    3.0000    5.1962    0.0000 C   0  0  0  0  0  0  0  0  0  0  0  0
    2.2500    6.4952    0.0000 O   0  0  0  0  0  0  0  0  0  0  0  0
    2.2500    3.8971    0.0000 C   0  0  0  0  0  0  0  0  0  0  0  0
   -0.7500   -1.2990    0.0000 C   0  0  0  0  0  0  0  0  0  0  0  0
   -1.5000   -2.5981    0.0000 O   0  0  0  0  0  0  0  0  0  0  0  0
  2  1  1  6
  2  3  1  0
  3  4  1  0
  4  5  1  0
  5  6  1  0
  6  7  1  1
  7  8  2  0
  8  9  1  0
  9 10  2  0
 10 11  1  0
 11 12  2  0
  6 13  1  0
 13 14  1  0
 14 15  1  0
 14 16  1  0
 16 17  1  6
 17 18  2  0
 18 19  1  0
 19 20  2  0
 20 21  1  0
 20 22  1  0
 22 23  1  0
 22 24  2  0
  6 25  1  0
 25 26  1  6
 15  2  1  0
 24 17  1  0
 25  2  1  0
 16  4  1  0
 12  7  1  0
M  CHG  1  14   1
M  END
>  <Compound_ID>  (142) 
C35585738

>  <Active>  (142) 
0

>  <Smiles>  (142) 
C[C@]12CN3C[C@](c4ccccc4)(C[NH+](C1)[C@H]3c1ccc(O)c(O)c1)[C@H]2O

>  <canonical_smi>  (142) 
C[C@]12CN3C[C@](c4ccccc4)(C[NH+](C1)[C@H]3c1ccc(O)c(O)c1)[C@H]2O

>  <Set>  (142) 
G2 inactive

>  <Set_type>  (142) 
Train

>  <MW>  (142) 
353.44

>  <HBD>  (142) 
4

>  <HBA>  (142) 
4

>  <NRB>  (142) 
2

>  <NR>  (142) 
6

>  <NAR>  (142) 
2

>  <PSA>  (142) 
68.37

>  <Standard Type>  (142) 
nan

>  <Standard Relation>  (142) 
nan

>  <Standard Units>  (142) 
nan

>  <Standard Value>  (142) 
nan

>  <Assay ChEMBL ID>  (142) 
nan

>  <Assay Description>  (142) 
nan

>  <BAO Label>  (142) 
nan

$$$$

     RDKit          2D

 28 31  0  0  0  0  0  0  0  0999 V2000
    3.0000    0.0000    0.0000 C   0  0  0  0  0  0  0  0  0  0  0  0
    1.5000    0.0000    0.0000 C   0  0  0  0  0  0  0  0  0  0  0  0
    0.7500   -1.2990    0.0000 C   0  0  0  0  0  0  0  0  0  0  0  0
   -0.7500   -1.2990    0.0000 C   0  0  0  0  0  0  0  0  0  0  0  0
   -1.5000   -2.5981    0.0000 C   0  0  0  0  0  0  0  0  0  0  0  0
   -1.5000    0.0000    0.0000 C   0  0  0  0  0  0  0  0  0  0  0  0
   -3.0000    0.0000    0.0000 C   0  0  0  0  0  0  0  0  0  0  0  0
   -3.7500    1.2990    0.0000 C   0  0  0  0  0  0  0  0  0  0  0  0
   -5.2172    1.6109    0.0000 C   0  0  0  0  0  0  0  0  0  0  0  0
   -6.3319    0.6072    0.0000 N   0  0  0  0  0  0  0  0  0  0  0  0
   -5.3740    3.1027    0.0000 C   0  0  0  0  0  0  0  0  0  0  0  0
   -6.6731    3.8527    0.0000 C   0  0  0  0  0  0  0  0  0  0  0  0
   -7.9721    3.1027    0.0000 O   0  0  0  0  0  0  0  0  0  0  0  0
   -6.6731    5.3527    0.0000 N   0  0  0  0  0  0  0  0  0  0  0  0
   -7.9721    6.1027    0.0000 C   0  0  0  0  0  0  0  0  0  0  0  0
   -7.9721    7.6027    0.0000 C   0  0  0  0  0  0  0  0  0  0  0  0
   -6.6731    8.3527    0.0000 C   0  0  0  0  0  0  0  0  0  0  0  0
   -9.2711    8.3527    0.0000 N   0  0  0  0  0  0  0  0  0  0  0  0
  -10.5702    7.6027    0.0000 C   0  0  0  0  0  0  0  0  0  0  0  0
  -11.8692    8.3527    0.0000 O   0  0  0  0  0  0  0  0  0  0  0  0
  -10.5702    6.1027    0.0000 N   0  0  0  0  0  0  0  0  0  0  0  0
   -9.2711    5.3527    0.0000 C   0  0  0  0  0  0  0  0  0  0  0  0
   -9.2711    3.8527    0.0000 O   0  0  0  0  0  0  0  0  0  0  0  0
   -4.0037    3.7128    0.0000 S   0  0  0  0  0  0  0  0  0  0  0  0
   -3.0000    2.5981    0.0000 C   0  0  0  0  0  0  0  0  0  0  0  0
   -1.5000    2.5981    0.0000 N   0  0  0  0  0  4  0  0  0  0  0  0
   -0.7500    1.2990    0.0000 C   0  0  0  0  0  0  0  0  0  0  0  0
    0.7500    1.2990    0.0000 C   0  0  0  0  0  0  0  0  0  0  0  0
  1  2  1  0
  2  3  2  0
  3  4  1  0
  4  5  1  0
  4  6  2  0
  6  7  1  0
  7  8  2  0
  8  9  1  0
  9 10  1  0
  9 11  2  0
 11 12  1  0
 12 13  2  0
 12 14  1  0
 14 15  1  0
 15 16  2  0
 16 17  1  0
 16 18  1  0
 18 19  1  0
 19 20  2  0
 19 21  1  0
 21 22  1  0
 22 23  2  0
 11 24  1  0
 24 25  1  0
 25 26  2  0
 26 27  1  0
 27 28  2  0
 28  2  1  0
 27  6  1  0
 25  8  1  0
 22 15  1  0
M  CHG  1  26   1
M  END
>  <Compound_ID>  (143) 
C04848769

>  <Active>  (143) 
0

>  <Smiles>  (143) 
Cc1cc(C)c2cc3c(N)c(C(=O)Nc4c(C)[nH]c(=O)[nH]c4=O)sc3[nH+]c2c1

>  <canonical_smi>  (143) 
Cc1cc(C)c2cc3c(N)c(C(=O)Nc4c(C)[nH]c(=O)[nH]c4=O)sc3[nH+]c2c1

>  <Set>  (143) 
G2 inactive

>  <Set_type>  (143) 
Train

>  <MW>  (143) 
396.45

>  <HBD>  (143) 
4

>  <HBA>  (143) 
4

>  <NRB>  (143) 
2

>  <NR>  (143) 
4

>  <NAR>  (143) 
4

>  <PSA>  (143) 
134.98

>  <Standard Type>  (143) 
nan

>  <Standard Relation>  (143) 
nan

>  <Standard Units>  (143) 
nan

>  <Standard Value>  (143) 
nan

>  <Assay ChEMBL ID>  (143) 
nan

>  <Assay Description>  (143) 
nan

>  <BAO Label>  (143) 
nan

$$$$

     RDKit          2D

 24 25  0  0  0  0  0  0  0  0999 V2000
    2.6491    0.9642    0.0000 C   0  0  0  0  0  0  0  0  0  0  0  0
    1.5000    0.0000    0.0000 C   0  0  0  0  0  0  0  0  0  0  0  0
    2.6491   -0.9642    0.0000 C   0  0  0  0  0  0  0  0  0  0  0  0
    0.7500   -1.2990    0.0000 C   0  0  0  0  0  0  0  0  0  0  0  0
   -0.7500   -1.2990    0.0000 C   0  0  0  0  0  0  0  0  0  0  0  0
   -1.5000   -2.5981    0.0000 N   0  0  0  0  0  0  0  0  0  0  0  0
   -3.0000   -2.5981    0.0000 C   0  0  0  0  0  0  0  0  0  0  0  0
   -3.7500   -1.2990    0.0000 C   0  0  0  0  0  0  0  0  0  0  0  0
   -5.2500   -1.2990    0.0000 C   0  0  0  0  0  0  0  0  0  0  0  0
   -6.0000   -2.5981    0.0000 C   0  0  0  0  0  0  0  0  0  0  0  0
   -7.5000   -2.5981    0.0000 S   0  0  0  0  0  0  0  0  0  0  0  0
   -9.0000   -2.5981    0.0000 N   0  0  0  0  0  0  0  0  0  0  0  0
   -7.5000   -1.0981    0.0000 O   0  0  0  0  0  0  0  0  0  0  0  0
   -7.5000   -4.0981    0.0000 O   0  0  0  0  0  0  0  0  0  0  0  0
   -5.2500   -3.8971    0.0000 C   0  0  0  0  0  0  0  0  0  0  0  0
   -3.7500   -3.8971    0.0000 C   0  0  0  0  0  0  0  0  0  0  0  0
   -3.0000   -5.1962    0.0000 N   0  0  0  0  0  4  0  0  0  0  0  0
   -1.5000   -5.1962    0.0000 O   0  0  0  0  0  0  0  0  0  0  0  0
   -3.7500   -6.4952    0.0000 O   0  0  0  0  0  1  0  0  0  0  0  0
   -1.5000    0.0000    0.0000 C   0  0  0  0  0  0  0  0  0  0  0  0
   -0.7500    1.2990    0.0000 C   0  0  0  0  0  0  0  0  0  0  0  0
   -2.1595    1.8121    0.0000 C   0  0  0  0  0  0  0  0  0  0  0  0
   -0.4895    2.7762    0.0000 C   0  0  0  0  0  0  0  0  0  0  0  0
    0.7500    1.2990    0.0000 N   0  0  0  0  0  4  0  0  0  0  0  0
  1  2  1  0
  2  3  1  0
  2  4  1  0
  4  5  1  0
  5  6  1  0
  6  7  1  0
  7  8  2  0
  8  9  1  0
  9 10  2  0
 10 11  1  0
 11 12  1  0
 11 13  2  0
 11 14  2  0
 10 15  1  0
 15 16  2  0
 16 17  1  0
 17 18  2  0
 17 19  1  0
  5 20  1  0
 20 21  1  0
 21 22  1  0
 21 23  1  0
 21 24  1  0
 24  2  1  0
 16  7  1  0
M  CHG  3  17   1  19  -1  24   1
M  END
>  <Compound_ID>  (144) 
C05231356

>  <Active>  (144) 
0

>  <Smiles>  (144) 
CC1(C)CC(Nc2ccc(S(N)(=O)=O)cc2[N+](=O)[O-])CC(C)(C)[NH2+]1

>  <canonical_smi>  (144) 
CC1(C)CC(Nc2ccc(S(N)(=O)=O)cc2[N+](=O)[O-])CC(C)(C)[NH2+]1

>  <Set>  (144) 
G2 inactive

>  <Set_type>  (144) 
Train

>  <MW>  (144) 
357.46

>  <HBD>  (144) 
3

>  <HBA>  (144) 
5

>  <NRB>  (144) 
4

>  <NR>  (144) 
2

>  <NAR>  (144) 
1

>  <PSA>  (144) 
131.94

>  <Standard Type>  (144) 
nan

>  <Standard Relation>  (144) 
nan

>  <Standard Units>  (144) 
nan

>  <Standard Value>  (144) 
nan

>  <Assay ChEMBL ID>  (144) 
nan

>  <Assay Description>  (144) 
nan

>  <BAO Label>  (144) 
nan

$$$$

     RDKit          2D

 28 31  0  0  0  0  0  0  0  0999 V2000
    3.0000    0.0000    0.0000 C   0  0  0  0  0  0  0  0  0  0  0  0
    1.5000    0.0000    0.0000 C   0  0  0  0  0  0  0  0  0  0  0  0
    0.7500   -1.2990    0.0000 C   0  0  0  0  0  0  0  0  0  0  0  0
   -0.7500   -1.2990    0.0000 C   0  0  0  0  0  0  0  0  0  0  0  0
   -1.5000    0.0000    0.0000 C   0  0  0  0  0  0  0  0  0  0  0  0
   -0.7500    1.2990    0.0000 C   0  0  0  0  0  0  0  0  0  0  0  0
   -1.5000    2.5981    0.0000 N   0  0  0  0  0  0  0  0  0  0  0  0
   -0.7500    3.8971    0.0000 C   0  0  0  0  0  0  0  0  0  0  0  0
   -1.5000    5.1962    0.0000 C   0  0  0  0  0  0  0  0  0  0  0  0
   -3.0000    5.1962    0.0000 N   0  0  0  0  0  0  0  0  0  0  0  0
   -3.7500    6.4952    0.0000 S   0  0  0  0  0  0  0  0  0  0  0  0
   -5.0490    5.7452    0.0000 O   0  0  0  0  0  0  0  0  0  0  0  0
   -2.4510    7.2452    0.0000 O   0  0  0  0  0  0  0  0  0  0  0  0
   -4.5000    7.7942    0.0000 C   0  0  0  0  0  0  0  0  0  0  0  0
   -5.9918    7.9510    0.0000 C   0  0  0  0  0  0  0  0  0  0  0  0
   -6.3037    9.4182    0.0000 C   0  0  0  0  0  0  0  0  0  0  0  0
   -7.6740   10.0283    0.0000 C   0  0  0  0  0  0  0  0  0  0  0  0
   -8.9730    9.2783    0.0000 C   0  0  0  0  0  0  0  0  0  0  0  0
  -10.0877   10.2820    0.0000 C   0  0  0  0  0  0  0  0  0  0  0  0
   -9.4776   11.6524    0.0000 N   0  0  0  0  0  0  0  0  0  0  0  0
   -7.9858   11.4956    0.0000 O   0  0  0  0  0  0  0  0  0  0  0  0
   -5.0046   10.1682    0.0000 O   0  0  0  0  0  0  0  0  0  0  0  0
   -3.8899    9.1645    0.0000 C   0  0  0  0  0  0  0  0  0  0  0  0
   -2.4227    9.4764    0.0000 C   0  0  0  0  0  0  0  0  0  0  0  0
   -3.7500    3.8971    0.0000 C   0  0  0  0  0  0  0  0  0  0  0  0
   -3.0000    2.5981    0.0000 C   0  0  0  0  0  0  0  0  0  0  0  0
   -3.7500    1.2990    0.0000 C   0  0  0  0  0  0  0  0  0  0  0  0
    0.7500    1.2990    0.0000 C   0  0  0  0  0  0  0  0  0  0  0  0
  1  2  1  0
  2  3  2  0
  3  4  1  0
  4  5  2  0
  5  6  1  0
  6  7  1  0
  7  8  1  0
  8  9  1  0
  9 10  1  0
 10 11  1  0
 11 12  2  0
 11 13  2  0
 11 14  1  0
 14 15  1  0
 15 16  2  0
 16 17  1  0
 17 18  2  0
 18 19  1  0
 19 20  2  0
 20 21  1  0
 16 22  1  0
 22 23  1  0
 23 24  1  0
 10 25  1  0
 25 26  1  0
 26 27  1  1
  6 28  2  0
 28  2  1  0
 26  7  1  0
 23 14  2  0
 21 17  1  0
M  END
>  <Compound_ID>  (145) 
C32971309

>  <Active>  (145) 
0

>  <Smiles>  (145) 
Cc1cccc(N2CCN(S(=O)(=O)c3cc(-c4ccno4)oc3C)C[C@@H]2C)c1

>  <canonical_smi>  (145) 
Cc1cccc(N2CCN(S(=O)(=O)c3cc(-c4ccno4)oc3C)C[C@@H]2C)c1

>  <Set>  (145) 
G2 inactive

>  <Set_type>  (145) 
Train

>  <MW>  (145) 
401.49

>  <HBD>  (145) 
0

>  <HBA>  (145) 
6

>  <NRB>  (145) 
4

>  <NR>  (145) 
4

>  <NAR>  (145) 
3

>  <PSA>  (145) 
79.79

>  <Standard Type>  (145) 
nan

>  <Standard Relation>  (145) 
nan

>  <Standard Units>  (145) 
nan

>  <Standard Value>  (145) 
nan

>  <Assay ChEMBL ID>  (145) 
nan

>  <Assay Description>  (145) 
nan

>  <BAO Label>  (145) 
nan

$$$$

     RDKit          2D

 25 26  0  0  0  0  0  0  0  0999 V2000
    1.5000   -5.1962    0.0000 C   0  0  0  0  0  0  0  0  0  0  0  0
    0.7500   -3.8971    0.0000 C   0  0  0  0  0  0  0  0  0  0  0  0
    1.5000   -2.5981    0.0000 O   0  0  0  0  0  0  0  0  0  0  0  0
    0.7500   -1.2990    0.0000 C   0  0  0  0  0  0  0  0  0  0  0  0
    1.5000    0.0000    0.0000 C   0  0  0  0  0  0  0  0  0  0  0  0
    0.7500    1.2990    0.0000 C   0  0  0  0  0  0  0  0  0  0  0  0
   -0.7500    1.2990    0.0000 C   0  0  0  0  0  0  0  0  0  0  0  0
   -1.5000    2.5981    0.0000 C   0  0  0  0  0  0  0  0  0  0  0  0
   -0.2010    3.3481    0.0000 C   0  0  0  0  0  0  0  0  0  0  0  0
   -2.7990    1.8481    0.0000 C   0  0  0  0  0  0  0  0  0  0  0  0
   -2.2500    3.8971    0.0000 C   0  0  0  0  0  0  0  0  0  0  0  0
   -1.5000    0.0000    0.0000 C   0  0  0  0  0  0  0  0  0  0  0  0
   -0.7500   -1.2990    0.0000 C   0  0  0  0  0  0  0  0  0  0  0  0
   -0.7500   -3.8971    0.0000 C   0  0  0  0  0  0  0  0  0  0  0  0
   -1.5000   -2.5981    0.0000 O   0  0  0  0  0  0  0  0  0  0  0  0
   -1.5000   -5.1962    0.0000 N   0  0  0  0  0  0  0  0  0  0  0  0
   -3.0000   -5.1962    0.0000 C   0  0  0  0  0  0  0  0  0  0  0  0
   -3.8817   -3.9826    0.0000 N   0  0  0  0  0  0  0  0  0  0  0  0
   -5.3083   -4.4462    0.0000 N   0  0  0  0  0  0  0  0  0  0  0  0
   -5.3083   -5.9462    0.0000 C   0  0  0  0  0  0  0  0  0  0  0  0
   -6.5218   -6.8278    0.0000 S   0  0  0  0  0  0  0  0  0  0  0  0
   -7.7353   -7.7095    0.0000 C   0  0  0  0  0  0  0  0  0  0  0  0
   -5.6401   -8.0414    0.0000 O   0  0  0  0  0  0  0  0  0  0  0  0
   -7.4035   -5.6143    0.0000 O   0  0  0  0  0  0  0  0  0  0  0  0
   -3.8817   -6.4097    0.0000 S   0  0  0  0  0  0  0  0  0  0  0  0
  2  1  1  1
  2  3  1  0
  3  4  1  0
  4  5  2  0
  5  6  1  0
  6  7  2  0
  7  8  1  0
  8  9  1  0
  8 10  1  0
  8 11  1  0
  7 12  1  0
 12 13  2  0
  2 14  1  0
 14 15  2  0
 14 16  1  0
 16 17  2  0
 17 18  1  0
 18 19  2  0
 19 20  1  0
 20 21  1  6
 21 22  1  0
 21 23  2  0
 21 24  2  0
 20 25  1  0
 13  4  1  0
 25 17  1  0
M  END
>  <Compound_ID>  (146) 
C38599137

>  <Active>  (146) 
0

>  <Smiles>  (146) 
C[C@H](Oc1ccc(C(C)(C)C)cc1)C(=O)/N=C1\N=N[C@@H](S(C)(=O)=O)S1

>  <canonical_smi>  (146) 
C[C@H](Oc1ccc(C(C)(C)C)cc1)C(=O)/N=C1\N=N[C@@H](S(C)(=O)=O)S1

>  <Set>  (146) 
G2 inactive

>  <Set_type>  (146) 
Train

>  <MW>  (146) 
383.5

>  <HBD>  (146) 
0

>  <HBA>  (146) 
5

>  <NRB>  (146) 
4

>  <NR>  (146) 
2

>  <NAR>  (146) 
1

>  <PSA>  (146) 
97.52

>  <Standard Type>  (146) 
nan

>  <Standard Relation>  (146) 
nan

>  <Standard Units>  (146) 
nan

>  <Standard Value>  (146) 
nan

>  <Assay ChEMBL ID>  (146) 
nan

>  <Assay Description>  (146) 
nan

>  <BAO Label>  (146) 
nan

$$$$

     RDKit          2D

 30 31  0  0  0  0  0  0  0  0999 V2000
    0.7500   -9.0933    0.0000 C   0  0  0  0  0  0  0  0  0  0  0  0
    1.5000   -7.7942    0.0000 C   0  0  0  0  0  0  0  0  0  0  0  0
    0.7500   -6.4952    0.0000 N   0  0  0  0  0  0  0  0  0  0  0  0
    1.5000   -5.1962    0.0000 C   0  0  0  0  0  0  0  0  0  0  0  0
    0.7500   -3.8971    0.0000 C   0  0  0  0  0  0  0  0  0  0  0  0
   -0.7500   -3.8971    0.0000 O   0  0  0  0  0  0  0  0  0  0  0  0
    1.5000   -2.5981    0.0000 N   0  0  0  0  0  0  0  0  0  0  0  0
    0.7500   -1.2990    0.0000 C   0  0  0  0  0  0  0  0  0  0  0  0
    1.5000    0.0000    0.0000 C   0  0  0  0  0  0  0  0  0  0  0  0
    3.0000    0.0000    0.0000 F   0  0  0  0  0  0  0  0  0  0  0  0
    0.7500    1.2990    0.0000 C   0  0  0  0  0  0  0  0  0  0  0  0
   -0.7500    1.2990    0.0000 C   0  0  0  0  0  0  0  0  0  0  0  0
   -1.5000    0.0000    0.0000 C   0  0  0  0  0  0  0  0  0  0  0  0
   -0.7500   -1.2990    0.0000 C   0  0  0  0  0  0  0  0  0  0  0  0
   -1.5000   -2.5981    0.0000 F   0  0  0  0  0  0  0  0  0  0  0  0
   -0.7500   -6.4952    0.0000 C   0  0  0  0  0  0  0  0  0  0  0  0
   -1.5000   -5.1962    0.0000 O   0  0  0  0  0  0  0  0  0  0  0  0
   -1.5000   -7.7942    0.0000 C   0  0  0  0  0  0  0  0  0  0  0  0
   -3.0000   -7.7942    0.0000 C   0  0  0  0  0  0  0  0  0  0  0  0
   -3.7500   -9.0933    0.0000 C   0  0  0  0  0  0  0  0  0  0  0  0
   -3.1399  -10.4636    0.0000 C   0  0  0  0  0  0  0  0  0  0  0  0
   -1.6727  -10.7755    0.0000 C   0  0  0  0  0  0  0  0  0  0  0  0
   -4.2546  -11.4673    0.0000 N   0  0  0  0  0  0  0  0  0  0  0  0
   -5.5537  -10.7173    0.0000 N   0  0  0  0  0  0  0  0  0  0  0  0
   -6.9240  -11.3274    0.0000 C   0  0  0  0  0  0  0  0  0  0  0  0
   -8.1375  -10.4457    0.0000 C   0  0  0  0  0  0  0  0  0  0  0  0
   -9.5078  -11.0558    0.0000 C   0  0  0  0  0  0  0  0  0  0  0  0
   -7.9807   -8.9539    0.0000 C   0  0  0  0  0  0  0  0  0  0  0  0
   -5.2418   -9.2501    0.0000 C   0  0  0  0  0  0  0  0  0  0  0  0
   -6.2455   -8.1353    0.0000 Cl  0  0  0  0  0  0  0  0  0  0  0  0
  1  2  1  0
  2  3  1  0
  3  4  1  0
  4  5  1  0
  5  6  2  0
  5  7  1  0
  7  8  1  0
  8  9  2  0
  9 10  1  0
  9 11  1  0
 11 12  2  0
 12 13  1  0
 13 14  2  0
 14 15  1  0
  3 16  1  0
 16 17  2  0
 16 18  1  0
 18 19  2  0
 19 20  1  0
 20 21  1  0
 21 22  1  0
 21 23  2  0
 23 24  1  0
 24 25  1  0
 25 26  1  0
 26 27  1  0
 26 28  1  0
 24 29  1  0
 29 30  1  0
 14  8  1  0
 29 20  2  0
M  END
>  <Compound_ID>  (147) 
C31348423

>  <Active>  (147) 
0

>  <Smiles>  (147) 
CCN(CC(=O)Nc1c(F)cccc1F)C(=O)/C=C/c1c(C)nn(CC(C)C)c1Cl

>  <canonical_smi>  (147) 
CCN(CC(=O)Nc1c(F)cccc1F)C(=O)/C=C/c1c(C)nn(CC(C)C)c1Cl

>  <Set>  (147) 
G2 inactive

>  <Set_type>  (147) 
Train

>  <MW>  (147) 
438.91

>  <HBD>  (147) 
1

>  <HBA>  (147) 
3

>  <NRB>  (147) 
8

>  <NR>  (147) 
2

>  <NAR>  (147) 
2

>  <PSA>  (147) 
67.23

>  <Standard Type>  (147) 
nan

>  <Standard Relation>  (147) 
nan

>  <Standard Units>  (147) 
nan

>  <Standard Value>  (147) 
nan

>  <Assay ChEMBL ID>  (147) 
nan

>  <Assay Description>  (147) 
nan

>  <BAO Label>  (147) 
nan

$$$$

     RDKit          2D

 31 33  0  0  0  0  0  0  0  0999 V2000
    3.0000    0.0000    0.0000 C   0  0  0  0  0  0  0  0  0  0  0  0
    1.5000    0.0000    0.0000 C   0  0  0  0  0  0  0  0  0  0  0  0
    0.7500   -1.2990    0.0000 C   0  0  0  0  0  0  0  0  0  0  0  0
   -0.7500   -1.2990    0.0000 C   0  0  0  0  0  0  0  0  0  0  0  0
   -1.5000   -2.5981    0.0000 C   0  0  0  0  0  0  0  0  0  0  0  0
   -1.5000    0.0000    0.0000 C   0  0  0  0  0  0  0  0  0  0  0  0
   -0.7500    1.2990    0.0000 N   0  0  0  0  0  0  0  0  0  0  0  0
   -1.5000    2.5981    0.0000 S   0  0  0  0  0  0  0  0  0  0  0  0
   -2.7990    1.8481    0.0000 O   0  0  0  0  0  0  0  0  0  0  0  0
   -0.2010    3.3481    0.0000 O   0  0  0  0  0  0  0  0  0  0  0  0
   -2.2500    3.8971    0.0000 C   0  0  0  0  0  0  0  0  0  0  0  0
   -1.5000    5.1962    0.0000 C   0  0  0  0  0  0  0  0  0  0  0  0
   -2.2500    6.4952    0.0000 C   0  0  0  0  0  0  0  0  0  0  0  0
   -3.7500    6.4952    0.0000 C   0  0  0  0  0  0  0  0  0  0  0  0
   -4.5000    7.7942    0.0000 C   0  0  0  0  0  0  0  0  0  0  0  0
   -6.0000    7.7942    0.0000 O   0  0  0  0  0  0  0  0  0  0  0  0
   -3.7500    9.0933    0.0000 O   0  0  0  0  0  0  0  0  0  0  0  0
   -4.5000   10.3923    0.0000 C   0  0  0  0  0  0  0  0  0  0  0  0
   -3.7500   11.6913    0.0000 C   0  0  0  0  0  0  0  0  0  0  0  0
   -2.2500   11.6913    0.0000 O   0  0  0  0  0  0  0  0  0  0  0  0
   -4.5000   12.9904    0.0000 N   0  0  0  0  0  0  0  0  0  0  0  0
   -3.7500   14.2894    0.0000 C   0  0  0  0  0  0  0  0  0  0  0  0
   -4.5000   15.5885    0.0000 C   0  0  0  0  0  0  0  0  0  0  0  0
   -3.7500   16.8875    0.0000 C   0  0  0  0  0  0  0  0  0  0  0  0
   -4.5000   18.1865    0.0000 C   0  0  0  0  0  0  0  0  0  0  0  0
   -6.0000   18.1865    0.0000 C   0  0  0  0  0  0  0  0  0  0  0  0
   -6.7500   16.8875    0.0000 C   0  0  0  0  0  0  0  0  0  0  0  0
   -6.0000   15.5885    0.0000 C   0  0  0  0  0  0  0  0  0  0  0  0
   -4.5000    5.1962    0.0000 C   0  0  0  0  0  0  0  0  0  0  0  0
   -3.7500    3.8971    0.0000 C   0  0  0  0  0  0  0  0  0  0  0  0
    0.7500    1.2990    0.0000 C   0  0  0  0  0  0  0  0  0  0  0  0
  2  1  1  1
  2  3  1  0
  3  4  1  0
  4  5  1  6
  4  6  1  0
  6  7  1  0
  7  8  1  0
  8  9  2  0
  8 10  2  0
  8 11  1  0
 11 12  2  0
 12 13  1  0
 13 14  2  0
 14 15  1  0
 15 16  2  0
 15 17  1  0
 17 18  1  0
 18 19  1  0
 19 20  2  0
 19 21  1  0
 21 22  1  0
 22 23  1  0
 23 24  2  0
 24 25  1  0
 25 26  2  0
 26 27  1  0
 27 28  2  0
 14 29  1  0
 29 30  2  0
  7 31  1  0
 31  2  1  0
 30 11  1  0
 28 23  1  0
M  END
>  <Compound_ID>  (148) 
C14361117

>  <Active>  (148) 
0

>  <Smiles>  (148) 
C[C@H]1C[C@H](C)CN(S(=O)(=O)c2ccc(C(=O)OCC(=O)NCc3ccccc3)cc2)C1

>  <canonical_smi>  (148) 
C[C@H]1C[C@H](C)CN(S(=O)(=O)c2ccc(C(=O)OCC(=O)NCc3ccccc3)cc2)C1

>  <Set>  (148) 
G2 inactive

>  <Set_type>  (148) 
Train

>  <MW>  (148) 
444.55

>  <HBD>  (148) 
1

>  <HBA>  (148) 
5

>  <NRB>  (148) 
7

>  <NR>  (148) 
3

>  <NAR>  (148) 
2

>  <PSA>  (148) 
92.78

>  <Standard Type>  (148) 
nan

>  <Standard Relation>  (148) 
nan

>  <Standard Units>  (148) 
nan

>  <Standard Value>  (148) 
nan

>  <Assay ChEMBL ID>  (148) 
nan

>  <Assay Description>  (148) 
nan

>  <BAO Label>  (148) 
nan

$$$$

     RDKit          2D

 25 29  0  0  0  0  0  0  0  0999 V2000
   -0.7500   -3.8971    0.0000 O   0  0  0  0  0  0  0  0  0  0  0  0
    0.7500   -3.8971    0.0000 C   0  0  0  0  0  0  0  0  0  0  0  0
    1.5000   -2.5981    0.0000 N   0  0  0  0  0  0  0  0  0  0  0  0
    0.7500   -1.2990    0.0000 C   0  0  0  0  0  0  0  0  0  0  0  0
    1.5000    0.0000    0.0000 C   0  0  0  0  0  0  0  0  0  0  0  0
    0.7500    1.2990    0.0000 C   0  0  0  0  0  0  0  0  0  0  0  0
   -0.7500    1.2990    0.0000 C   0  0  0  0  0  0  0  0  0  0  0  0
   -1.5000    0.0000    0.0000 C   0  0  0  0  0  0  0  0  0  0  0  0
    1.7010   -0.7500    0.0000 C   0  0  0  0  0  0  0  0  0  0  0  0
    3.0000   -0.0000    0.0000 C   0  0  0  0  0  0  0  0  0  0  0  0
    2.2500    1.2990    0.0000 C   0  0  0  0  0  0  0  0  0  0  0  0
    2.2500   -1.2990    0.0000 C   0  0  0  0  0  0  0  0  0  0  0  0
   -0.7500   -1.2990    0.0000 C   0  0  0  0  0  0  0  0  0  0  0  0
    1.5000   -5.1962    0.0000 N   0  0  0  0  0  0  0  0  0  0  0  0
    0.7500   -6.4952    0.0000 C   0  0  0  0  0  0  0  0  0  0  0  0
    1.5000   -7.7942    0.0000 C   0  0  0  0  0  0  0  0  0  0  0  0
    3.0000   -7.7942    0.0000 N   0  0  0  0  0  0  0  0  0  0  0  0
    3.7500   -9.0933    0.0000 C   0  0  0  0  0  0  0  0  0  0  0  0
    3.0000  -10.3923    0.0000 C   0  0  0  0  0  0  0  0  0  0  0  0
    3.6101  -11.7626    0.0000 C   0  0  0  0  0  0  0  0  0  0  0  0
    2.4954  -12.7663    0.0000 C   0  0  0  0  0  0  0  0  0  0  0  0
    1.1963  -12.0163    0.0000 C   0  0  0  0  0  0  0  0  0  0  0  0
    1.5082  -10.5491    0.0000 O   0  0  0  0  0  0  0  0  0  0  0  0
    3.7500   -6.4952    0.0000 C   0  0  0  0  0  0  0  0  0  0  0  0
    3.0000   -5.1962    0.0000 C   0  0  0  0  0  0  0  0  0  0  0  0
  1  2  2  0
  2  3  1  0
  3  4  1  0
  4  5  1  0
  5  6  1  0
  6  7  1  0
  7  8  1  0
  8  9  1  0
  9 10  1  0
 10 11  1  0
 10 12  1  0
  8 13  1  0
  2 14  1  0
 14 15  1  0
 15 16  1  0
 16 17  1  0
 17 18  1  0
 19 18  1  1
 19 20  1  0
 20 21  1  0
 21 22  1  0
 22 23  1  0
 17 24  1  0
 24 25  1  0
 12  4  1  0
 25 14  1  0
 13  4  1  0
 23 19  1  0
 11  6  1  0
M  END
>  <Compound_ID>  (149) 
C57580809

>  <Active>  (149) 
0

>  <Smiles>  (149) 
O=C(NC12CC3CC(CC(C3)C1)C2)N1CCN(C[C@H]2CCCO2)CC1

>  <canonical_smi>  (149) 
O=C(NC12CC3CC(CC(C3)C1)C2)N1CCN(C[C@H]2CCCO2)CC1

>  <Set>  (149) 
G2 inactive

>  <Set_type>  (149) 
Train

>  <MW>  (149) 
347.5

>  <HBD>  (149) 
1

>  <HBA>  (149) 
3

>  <NRB>  (149) 
3

>  <NR>  (149) 
6

>  <NAR>  (149) 
0

>  <PSA>  (149) 
44.81

>  <Standard Type>  (149) 
nan

>  <Standard Relation>  (149) 
nan

>  <Standard Units>  (149) 
nan

>  <Standard Value>  (149) 
nan

>  <Assay ChEMBL ID>  (149) 
nan

>  <Assay Description>  (149) 
nan

>  <BAO Label>  (149) 
nan

$$$$

     RDKit          2D

 30 33  0  0  0  0  0  0  0  0999 V2000
   -3.7500   -3.8971    0.0000 C   0  0  0  0  0  0  0  0  0  0  0  0
   -3.0000   -2.5981    0.0000 C   0  0  0  0  0  0  0  0  0  0  0  0
   -1.5000   -2.5981    0.0000 C   0  0  0  0  0  0  0  0  0  0  0  0
   -0.7500   -3.8971    0.0000 C   0  0  0  0  0  0  0  0  0  0  0  0
    0.7500   -3.8971    0.0000 C   0  0  0  0  0  0  0  0  0  0  0  0
    1.5000   -5.1962    0.0000 O   0  0  0  0  0  0  0  0  0  0  0  0
    1.5000   -2.5981    0.0000 O   0  0  0  0  0  0  0  0  0  0  0  0
    0.7500   -1.2990    0.0000 C   0  0  0  0  0  0  0  0  0  0  0  0
    1.5000    0.0000    0.0000 C   0  0  0  0  0  0  0  0  0  0  0  0
    0.7500    1.2990    0.0000 C   0  0  0  0  0  0  0  0  0  0  0  0
    1.5000    2.5981    0.0000 O   0  0  0  0  0  0  0  0  0  0  0  0
    3.0000    2.5981    0.0000 C   0  0  0  0  0  0  0  0  0  0  0  0
    3.7500    3.8971    0.0000 C   0  0  0  0  0  0  0  0  0  0  0  0
    3.7500    1.2990    0.0000 C   0  0  0  0  0  0  0  0  0  0  0  0
    3.0000   -0.0000    0.0000 O   0  0  0  0  0  0  0  0  0  0  0  0
    5.2500    1.2990    0.0000 N   0  0  0  0  0  0  0  0  0  0  0  0
    6.0000   -0.0000    0.0000 C   0  0  0  0  0  0  0  0  0  0  0  0
    7.5000   -0.0000    0.0000 C   0  0  0  0  0  0  0  0  0  0  0  0
    8.2500   -1.2990    0.0000 C   0  0  0  0  0  0  0  0  0  0  0  0
    9.7418   -1.4558    0.0000 C   0  0  0  0  0  0  0  0  0  0  0  0
   10.8565   -0.4521    0.0000 C   0  0  0  0  0  0  0  0  0  0  0  0
   12.2831   -0.9157    0.0000 C   0  0  0  0  0  0  0  0  0  0  0  0
   12.5950   -2.3829    0.0000 C   0  0  0  0  0  0  0  0  0  0  0  0
   11.4802   -3.3866    0.0000 C   0  0  0  0  0  0  0  0  0  0  0  0
   10.0537   -2.9231    0.0000 C   0  0  0  0  0  0  0  0  0  0  0  0
    8.7546   -3.6731    0.0000 N   0  0  0  0  0  4  0  0  0  0  0  0
    7.6399   -2.6694    0.0000 C   0  0  0  0  0  0  0  0  0  0  0  0
   -0.7500    1.2990    0.0000 C   0  0  0  0  0  0  0  0  0  0  0  0
   -1.5000    0.0000    0.0000 C   0  0  0  0  0  0  0  0  0  0  0  0
   -0.7500   -1.2990    0.0000 C   0  0  0  0  0  0  0  0  0  0  0  0
  1  2  1  0
  2  3  1  0
  3  4  2  0
  4  5  1  0
  5  6  2  0
  5  7  1  0
  7  8  1  0
  8  9  2  0
  9 10  1  0
 10 11  1  0
 11 12  1  0
 12 13  1  1
 12 14  1  0
 14 15  2  0
 14 16  1  0
 16 17  1  0
 17 18  1  0
 18 19  1  0
 19 20  2  0
 20 21  1  0
 21 22  2  0
 22 23  1  0
 23 24  2  0
 24 25  1  0
 25 26  2  0
 26 27  1  0
 10 28  2  0
 28 29  1  0
 29 30  2  0
 30  3  1  0
 30  8  1  0
 27 19  1  0
 25 20  1  0
M  CHG  1  26   1
M  END
>  <Compound_ID>  (150) 
C63375691

>  <Active>  (150) 
0

>  <Smiles>  (150) 
CCc1cc(=O)oc2cc(O[C@@H](C)C(=O)NCCC3=c4ccccc4=[NH+]C3)ccc12

>  <canonical_smi>  (150) 
CCc1cc(=O)oc2cc(O[C@@H](C)C(=O)NCCC3=c4ccccc4=[NH+]C3)ccc12

>  <Set>  (150) 
G2 inactive

>  <Set_type>  (150) 
Train

>  <MW>  (150) 
405.47

>  <HBD>  (150) 
2

>  <HBA>  (150) 
4

>  <NRB>  (150) 
7

>  <NR>  (150) 
4

>  <NAR>  (150) 
3

>  <PSA>  (150) 
82.51

>  <Standard Type>  (150) 
nan

>  <Standard Relation>  (150) 
nan

>  <Standard Units>  (150) 
nan

>  <Standard Value>  (150) 
nan

>  <Assay ChEMBL ID>  (150) 
nan

>  <Assay Description>  (150) 
nan

>  <BAO Label>  (150) 
nan

$$$$

     RDKit          2D

 23 26  0  0  0  0  0  0  0  0999 V2000
   -0.0967    5.1517    0.0000 O   0  0  0  0  0  0  0  0  0  0  0  0
   -0.4086    3.6844    0.0000 C   0  0  0  0  0  0  0  0  0  0  0  0
    0.7062    2.6807    0.0000 N   0  0  0  0  0  0  0  0  0  0  0  0
    0.3943    1.2135    0.0000 C   0  0  0  0  0  0  0  0  0  0  0  0
    1.2760    0.0000    0.0000 N   0  0  0  0  0  0  0  0  0  0  0  0
    0.3943   -1.2135    0.0000 C   0  0  0  0  0  0  0  0  0  0  0  0
    0.8578   -2.6401    0.0000 N   0  0  0  0  0  0  0  0  0  0  0  0
   -0.1459   -3.7548    0.0000 C   0  0  0  0  0  0  0  0  0  0  0  0
    0.3177   -5.1814    0.0000 C   0  0  0  0  0  0  0  0  0  0  0  0
    1.7849   -5.4933    0.0000 C   0  0  0  0  0  0  0  0  0  0  0  0
    2.7886   -4.3786    0.0000 C   0  0  0  0  0  0  0  0  0  0  0  0
    2.3250   -2.9520    0.0000 C   0  0  0  0  0  0  0  0  0  0  0  0
   -1.0323   -0.7500    0.0000 S   0  0  0  0  0  0  0  0  0  0  0  0
   -1.0323    0.7500    0.0000 C   0  0  0  0  0  0  0  0  0  0  0  0
   -2.1470    1.7537    0.0000 C   0  0  0  0  0  0  0  0  0  0  0  0
   -3.5736    1.2902    0.0000 C   0  0  0  0  0  0  0  0  0  0  0  0
   -4.6883    2.2939    0.0000 C   0  0  0  0  0  0  0  0  0  0  0  0
   -6.1149    1.8303    0.0000 C   0  0  0  0  0  0  0  0  0  0  0  0
   -6.4268    0.3631    0.0000 C   0  0  0  0  0  0  0  0  0  0  0  0
   -7.8533   -0.1004    0.0000 F   0  0  0  0  0  0  0  0  0  0  0  0
   -5.3120   -0.6406    0.0000 C   0  0  0  0  0  0  0  0  0  0  0  0
   -3.8855   -0.1771    0.0000 C   0  0  0  0  0  0  0  0  0  0  0  0
   -1.8351    3.2209    0.0000 C   0  0  0  0  0  0  0  0  0  0  0  0
  1  2  1  0
  2  3  2  0
  3  4  1  0
  4  5  1  0
  5  6  2  0
  6  7  1  0
  7  8  1  0
  8  9  1  0
  9 10  1  0
 10 11  1  0
 11 12  1  0
  6 13  1  0
 13 14  1  0
 14 15  1  0
 15 16  1  6
 16 17  2  0
 17 18  1  0
 18 19  2  0
 19 20  1  0
 19 21  1  0
 21 22  2  0
 15 23  1  0
 23  2  1  0
 14  4  2  0
 22 16  1  0
 12  7  1  0
M  END
>  <Compound_ID>  (151) 
C36359327

>  <Active>  (151) 
0

>  <Smiles>  (151) 
OC1=Nc2nc(N3CCCCC3)sc2[C@H](c2ccc(F)cc2)C1

>  <canonical_smi>  (151) 
OC1=Nc2nc(N3CCCCC3)sc2[C@H](c2ccc(F)cc2)C1

>  <Set>  (151) 
G2 inactive

>  <Set_type>  (151) 
Train

>  <MW>  (151) 
331.42

>  <HBD>  (151) 
1

>  <HBA>  (151) 
3

>  <NRB>  (151) 
2

>  <NR>  (151) 
4

>  <NAR>  (151) 
2

>  <PSA>  (151) 
48.72

>  <Standard Type>  (151) 
nan

>  <Standard Relation>  (151) 
nan

>  <Standard Units>  (151) 
nan

>  <Standard Value>  (151) 
nan

>  <Assay ChEMBL ID>  (151) 
nan

>  <Assay Description>  (151) 
nan

>  <BAO Label>  (151) 
nan

$$$$

     RDKit          2D

 22 24  0  0  0  0  0  0  0  0999 V2000
    3.0000    0.0000    0.0000 C   0  0  0  0  0  0  0  0  0  0  0  0
    1.5000    0.0000    0.0000 C   0  0  0  0  0  0  0  0  0  0  0  0
    0.7500   -1.2990    0.0000 C   0  0  0  0  0  0  0  0  0  0  0  0
   -0.7500   -1.2990    0.0000 C   0  0  0  0  0  0  0  0  0  0  0  0
   -1.5000    0.0000    0.0000 C   0  0  0  0  0  0  0  0  0  0  0  0
   -0.7500    1.2990    0.0000 C   0  0  0  0  0  0  0  0  0  0  0  0
    0.7500    1.2990    0.0000 C   0  0  0  0  0  0  0  0  0  0  0  0
   -1.5000    2.5981    0.0000 N   0  0  0  0  0  0  0  0  0  0  0  0
   -0.7500    3.8971    0.0000 C   0  0  0  0  0  0  0  0  0  0  0  0
    0.7500    3.8971    0.0000 C   0  0  0  0  0  0  0  0  0  0  0  0
    1.5000    5.1962    0.0000 S   0  0  0  0  0  0  0  0  0  0  0  0
    3.0000    5.1962    0.0000 C   0  0  0  0  0  0  0  0  0  0  0  0
    3.8817    6.4097    0.0000 N   0  0  0  0  0  0  0  0  0  0  0  0
    5.3083    5.9462    0.0000 C   0  0  0  0  0  0  0  0  0  0  0  0
    5.3083    4.4462    0.0000 N   0  0  0  0  0  0  0  0  0  0  0  0
    3.8817    3.9826    0.0000 N   0  0  0  0  0  0  0  0  0  0  0  0
   -3.0000    2.5981    0.0000 C   0  0  0  0  0  0  0  0  0  0  0  0
   -4.4095    3.1111    0.0000 C   0  0  0  0  0  0  0  0  0  0  0  0
   -2.7395    4.0753    0.0000 C   0  0  0  0  0  0  0  0  0  0  0  0
   -3.7500    1.2990    0.0000 C   0  0  0  0  0  0  0  0  0  0  0  0
   -3.0000    0.0000    0.0000 C   0  0  0  0  0  0  0  0  0  0  0  0
   -3.7500   -1.2990    0.0000 C   0  0  0  0  0  0  0  0  0  0  0  0
  1  2  1  0
  2  3  2  0
  3  4  1  0
  4  5  2  0
  5  6  1  0
  6  7  2  0
  6  8  1  0
  8  9  1  0
  9 10  1  0
 10 11  1  0
 11 12  1  0
 12 13  2  0
 13 14  1  0
 14 15  2  0
 15 16  1  0
  8 17  1  0
 17 18  1  0
 17 19  1  0
 17 20  1  0
 20 21  1  0
 21 22  1  1
  7  2  1  0
 16 12  1  0
 21  5  1  0
M  END
>  <Compound_ID>  (152) 
C05553604

>  <Active>  (152) 
0

>  <Smiles>  (152) 
Cc1ccc2c(c1)N(CCSc1ncn[nH]1)C(C)(C)C[C@@H]2C

>  <canonical_smi>  (152) 
Cc1ccc2c(c1)N(CCSc1ncn[nH]1)C(C)(C)C[C@@H]2C

>  <Set>  (152) 
G2 inactive

>  <Set_type>  (152) 
Train

>  <MW>  (152) 
316.47

>  <HBD>  (152) 
1

>  <HBA>  (152) 
4

>  <NRB>  (152) 
4

>  <NR>  (152) 
3

>  <NAR>  (152) 
2

>  <PSA>  (152) 
44.81

>  <Standard Type>  (152) 
nan

>  <Standard Relation>  (152) 
nan

>  <Standard Units>  (152) 
nan

>  <Standard Value>  (152) 
nan

>  <Assay ChEMBL ID>  (152) 
nan

>  <Assay Description>  (152) 
nan

>  <BAO Label>  (152) 
nan

$$$$

     RDKit          2D

 27 30  0  0  0  0  0  0  0  0999 V2000
    3.4504  -11.7739    0.0000 N   0  0  0  0  0  0  0  0  0  0  0  0
    4.8207  -11.1638    0.0000 C   0  0  0  0  0  0  0  0  0  0  0  0
    6.0342  -12.0455    0.0000 O   0  0  0  0  0  0  0  0  0  0  0  0
    4.9775   -9.6721    0.0000 C   0  0  0  0  0  0  0  0  0  0  0  0
    6.3478   -9.0619    0.0000 S   0  0  0  0  0  0  0  0  0  0  0  0
    6.5046   -7.5702    0.0000 C   0  0  0  0  0  0  0  0  0  0  0  0
    7.8037   -6.8202    0.0000 N   0  0  0  0  0  0  0  0  0  0  0  0
    7.4918   -5.3529    0.0000 N   0  0  0  0  0  0  0  0  0  0  0  0
    6.0000   -5.1962    0.0000 C   0  0  0  0  0  0  0  0  0  0  0  0
    5.2500   -3.8971    0.0000 N   0  0  0  0  0  0  0  0  0  0  0  0
    3.7500   -3.8971    0.0000 N   0  0  0  0  0  0  0  0  0  0  0  0
    3.0000   -2.5981    0.0000 C   0  0  0  0  0  0  0  0  0  0  0  0
    1.5000   -2.5981    0.0000 C   0  0  0  0  0  0  0  0  0  0  0  0
    0.7500   -1.2990    0.0000 C   0  0  0  0  0  0  0  0  0  0  0  0
    1.5000    0.0000    0.0000 C   0  0  0  0  0  0  0  0  0  0  0  0
    0.7500    1.2990    0.0000 C   0  0  0  0  0  0  0  0  0  0  0  0
   -0.7500    1.2990    0.0000 C   0  0  0  0  0  0  0  0  0  0  0  0
   -1.5000    0.0000    0.0000 C   0  0  0  0  0  0  0  0  0  0  0  0
   -0.7500   -1.2990    0.0000 C   0  0  0  0  0  0  0  0  0  0  0  0
   -1.5000   -2.5981    0.0000 C   0  0  0  0  0  0  0  0  0  0  0  0
   -0.7500   -3.8971    0.0000 C   0  0  0  0  0  0  0  0  0  0  0  0
   -1.5000   -5.1962    0.0000 C   0  0  0  0  0  0  0  0  0  0  0  0
   -0.7500   -6.4952    0.0000 C   0  0  0  0  0  0  0  0  0  0  0  0
    0.7500   -6.4952    0.0000 C   0  0  0  0  0  0  0  0  0  0  0  0
    1.5000   -5.1962    0.0000 C   0  0  0  0  0  0  0  0  0  0  0  0
    0.7500   -3.8971    0.0000 C   0  0  0  0  0  0  0  0  0  0  0  0
    5.3899   -6.5665    0.0000 N   0  0  0  0  0  0  0  0  0  0  0  0
  1  2  1  0
  2  3  2  0
  2  4  1  0
  4  5  1  0
  5  6  1  0
  6  7  2  0
  7  8  1  0
  8  9  1  0
  9 10  1  0
 10 11  1  0
 11 12  2  0
 12 13  1  0
 13 14  1  0
 14 15  2  0
 15 16  1  0
 16 17  2  0
 17 18  1  0
 18 19  2  0
 19 20  1  0
 20 21  2  0
 21 22  1  0
 22 23  2  0
 23 24  1  0
 24 25  2  0
 25 26  1  0
  9 27  2  0
 27  6  1  0
 26 13  2  0
 19 14  1  0
 26 21  1  0
M  END
>  <Compound_ID>  (153) 
C59310035

>  <Active>  (153) 
0

>  <Smiles>  (153) 
NC(=O)CSc1n[nH]c(N/N=C/c2c3ccccc3cc3ccccc23)n1

>  <canonical_smi>  (153) 
NC(=O)CSc1n[nH]c(N/N=C/c2c3ccccc3cc3ccccc23)n1

>  <Set>  (153) 
G2 inactive

>  <Set_type>  (153) 
Train

>  <MW>  (153) 
376.45

>  <HBD>  (153) 
3

>  <HBA>  (153) 
5

>  <NRB>  (153) 
6

>  <NR>  (153) 
4

>  <NAR>  (153) 
4

>  <PSA>  (153) 
109.05

>  <Standard Type>  (153) 
nan

>  <Standard Relation>  (153) 
nan

>  <Standard Units>  (153) 
nan

>  <Standard Value>  (153) 
nan

>  <Assay ChEMBL ID>  (153) 
nan

>  <Assay Description>  (153) 
nan

>  <BAO Label>  (153) 
nan

$$$$

     RDKit          2D

 28 32  0  0  0  0  0  0  0  0999 V2000
   -3.7527    6.6955    0.0000 C   0  0  0  0  0  0  0  0  0  0  0  0
   -2.6380    5.6918    0.0000 C   0  0  0  0  0  0  0  0  0  0  0  0
   -2.9499    4.2246    0.0000 C   0  0  0  0  0  0  0  0  0  0  0  0
   -1.8351    3.2209    0.0000 C   0  0  0  0  0  0  0  0  0  0  0  0
   -2.1470    1.7537    0.0000 N   0  0  0  0  0  0  0  0  0  0  0  0
   -1.0323    0.7500    0.0000 C   0  0  0  0  0  0  0  0  0  0  0  0
    0.3943    1.2135    0.0000 C   0  0  0  0  0  0  0  0  0  0  0  0
    0.7062    2.6807    0.0000 C   0  0  0  0  0  0  0  0  0  0  0  0
    2.1328    3.1443    0.0000 N   0  0  0  0  0  0  0  0  0  0  0  0
    2.4446    4.6115    0.0000 C   0  0  0  0  0  0  0  0  0  0  0  0
    3.8712    5.0750    0.0000 C   0  0  0  0  0  0  0  0  0  0  0  0
    4.9859    4.0713    0.0000 C   0  0  0  0  0  0  0  0  0  0  0  0
    6.4125    4.5348    0.0000 C   0  0  0  0  0  0  0  0  0  0  0  0
    6.7244    6.0021    0.0000 N   0  0  0  0  0  0  0  0  0  0  0  0
    5.6097    7.0058    0.0000 C   0  0  0  0  0  0  0  0  0  0  0  0
    5.9215    8.4730    0.0000 O   0  0  0  0  0  0  0  0  0  0  0  0
    7.3481    8.9365    0.0000 C   0  0  0  0  0  0  0  0  0  0  0  0
    7.6600   10.4037    0.0000 C   0  0  0  0  0  0  0  0  0  0  0  0
    7.1964   11.8303    0.0000 C   0  0  0  0  0  0  0  0  0  0  0  0
    8.6637   11.5185    0.0000 C   0  0  0  0  0  0  0  0  0  0  0  0
    4.1831    6.5422    0.0000 C   0  0  0  0  0  0  0  0  0  0  0  0
   -0.4086    3.6844    0.0000 N   0  0  0  0  0  0  0  0  0  0  0  0
    1.2760    0.0000    0.0000 C   0  0  0  0  0  0  0  0  0  0  0  0
    0.3943   -1.2135    0.0000 C   0  0  0  0  0  0  0  0  0  0  0  0
   -1.0323   -0.7500    0.0000 C   0  0  0  0  0  0  0  0  0  0  0  0
   -4.3764    3.7611    0.0000 C   0  0  0  0  0  0  0  0  0  0  0  0
   -5.4912    4.7648    0.0000 C   0  0  0  0  0  0  0  0  0  0  0  0
   -5.1793    6.2320    0.0000 N   0  0  0  0  0  0  0  0  0  0  0  0
  1  2  2  0
  2  3  1  0
  3  4  1  0
  4  5  2  0
  5  6  1  0
  6  7  2  0
  7  8  1  0
  8  9  1  0
  9 10  1  0
 10 11  1  0
 11 12  2  0
 12 13  1  0
 13 14  2  0
 14 15  1  0
 15 16  1  0
 16 17  1  0
 17 18  1  0
 18 19  1  0
 19 20  1  0
 15 21  2  0
  8 22  2  0
  7 23  1  0
 23 24  1  0
 24 25  1  0
  3 26  2  0
 26 27  1  0
 27 28  2  0
 28  1  1  0
 22  4  1  0
 25  6  1  0
 21 11  1  0
 20 18  1  0
M  END
>  <Compound_ID>  (154) 
C67373600

>  <Active>  (154) 
0

>  <Smiles>  (154) 
c1cc(-c2nc3c(c(NCc4ccnc(OCC5CC5)c4)n2)CCC3)ccn1

>  <canonical_smi>  (154) 
c1cc(-c2nc3c(c(NCc4ccnc(OCC5CC5)c4)n2)CCC3)ccn1

>  <Set>  (154) 
G2 inactive

>  <Set_type>  (154) 
Train

>  <MW>  (154) 
373.46

>  <HBD>  (154) 
1

>  <HBA>  (154) 
6

>  <NRB>  (154) 
7

>  <NR>  (154) 
5

>  <NAR>  (154) 
3

>  <PSA>  (154) 
72.82

>  <Standard Type>  (154) 
nan

>  <Standard Relation>  (154) 
nan

>  <Standard Units>  (154) 
nan

>  <Standard Value>  (154) 
nan

>  <Assay ChEMBL ID>  (154) 
nan

>  <Assay Description>  (154) 
nan

>  <BAO Label>  (154) 
nan

$$$$

     RDKit          2D

 27 29  0  0  0  0  0  0  0  0999 V2000
   -3.7500  -11.6913    0.0000 C   0  0  0  0  0  0  0  0  0  0  0  0
   -3.0000  -10.3923    0.0000 O   0  0  0  0  0  0  0  0  0  0  0  0
   -3.7500   -9.0933    0.0000 C   0  0  0  0  0  0  0  0  0  0  0  0
   -5.2500   -9.0933    0.0000 C   0  0  0  0  0  0  0  0  0  0  0  0
   -6.0000   -7.7942    0.0000 C   0  0  0  0  0  0  0  0  0  0  0  0
   -5.2500   -6.4952    0.0000 C   0  0  0  0  0  0  0  0  0  0  0  0
   -6.0000   -5.1962    0.0000 C   0  0  0  0  0  0  0  0  0  0  0  0
   -5.2500   -3.8971    0.0000 N   0  0  0  0  0  0  0  0  0  0  0  0
   -7.5000   -5.1962    0.0000 O   0  0  0  0  0  0  0  0  0  0  0  0
   -3.7500   -6.4952    0.0000 C   0  0  0  0  0  0  0  0  0  0  0  0
   -3.0000   -7.7942    0.0000 C   0  0  0  0  0  0  0  0  0  0  0  0
   -1.5000   -7.7942    0.0000 N   0  0  0  0  0  0  0  0  0  0  0  0
   -0.7500   -6.4952    0.0000 C   0  0  0  0  0  0  0  0  0  0  0  0
   -1.5000   -5.1962    0.0000 O   0  0  0  0  0  0  0  0  0  0  0  0
    0.7500   -6.4952    0.0000 N   0  0  0  0  0  0  0  0  0  0  0  0
    1.5000   -7.7942    0.0000 C   0  0  0  0  0  0  0  0  0  0  0  0
    1.5000   -5.1962    0.0000 C   0  0  0  0  0  0  0  0  0  0  0  0
    0.7500   -3.8971    0.0000 C   0  0  0  0  0  0  0  0  0  0  0  0
   -0.7500   -3.8971    0.0000 C   0  0  0  0  0  0  0  0  0  0  0  0
   -1.5000   -2.5981    0.0000 C   0  0  0  0  0  0  0  0  0  0  0  0
   -0.7500   -1.2990    0.0000 C   0  0  0  0  0  0  0  0  0  0  0  0
    0.7500   -1.2990    0.0000 C   0  0  0  0  0  0  0  0  0  0  0  0
    1.5000   -2.5981    0.0000 C   0  0  0  0  0  0  0  0  0  0  0  0
    1.5000    0.0000    0.0000 O   0  0  0  0  0  0  0  0  0  0  0  0
    0.7500    1.2990    0.0000 C   0  0  0  0  0  0  0  0  0  0  0  0
   -0.7500    1.2990    0.0000 C   0  0  0  0  0  0  0  0  0  0  0  0
   -1.5000    0.0000    0.0000 O   0  0  0  0  0  0  0  0  0  0  0  0
  1  2  1  0
  2  3  1  0
  3  4  2  0
  4  5  1  0
  5  6  2  0
  6  7  1  0
  7  8  1  0
  7  9  2  0
  6 10  1  0
 10 11  2  0
 11 12  1  0
 12 13  1  0
 13 14  2  0
 13 15  1  0
 15 16  1  0
 15 17  1  0
 17 18  1  0
 18 19  2  0
 19 20  1  0
 20 21  2  0
 21 22  1  0
 22 23  2  0
 22 24  1  0
 24 25  1  0
 25 26  1  0
 26 27  1  0
 11  3  1  0
 23 18  1  0
 27 21  1  0
M  END
>  <Compound_ID>  (155) 
C45644767

>  <Active>  (155) 
0

>  <Smiles>  (155) 
COc1ccc(C(N)=O)cc1NC(=O)N(C)Cc1ccc2c(c1)OCCO2

>  <canonical_smi>  (155) 
COc1ccc(C(N)=O)cc1NC(=O)N(C)Cc1ccc2c(c1)OCCO2

>  <Set>  (155) 
G2 inactive

>  <Set_type>  (155) 
Train

>  <MW>  (155) 
371.39

>  <HBD>  (155) 
2

>  <HBA>  (155) 
5

>  <NRB>  (155) 
5

>  <NR>  (155) 
3

>  <NAR>  (155) 
2

>  <PSA>  (155) 
103.12

>  <Standard Type>  (155) 
nan

>  <Standard Relation>  (155) 
nan

>  <Standard Units>  (155) 
nan

>  <Standard Value>  (155) 
nan

>  <Assay ChEMBL ID>  (155) 
nan

>  <Assay Description>  (155) 
nan

>  <BAO Label>  (155) 
nan

$$$$

     RDKit          2D

 24 27  0  0  0  0  0  0  0  0999 V2000
   -5.2781   10.2646    0.0000 N   0  0  0  0  0  0  0  0  0  0  0  0
   -4.9662    8.7974    0.0000 C   0  0  0  0  0  0  0  0  0  0  0  0
   -5.9699    7.6827    0.0000 N   0  0  0  0  0  0  0  0  0  0  0  0
   -5.2199    6.3837    0.0000 N   0  0  0  0  0  0  0  0  0  0  0  0
   -3.7527    6.6955    0.0000 C   0  0  0  0  0  0  0  0  0  0  0  0
   -2.6380    5.6918    0.0000 S   0  0  0  0  0  0  0  0  0  0  0  0
   -2.9499    4.2246    0.0000 C   0  0  0  0  0  0  0  0  0  0  0  0
   -1.8351    3.2209    0.0000 C   0  0  0  0  0  0  0  0  0  0  0  0
   -0.4086    3.6844    0.0000 C   0  0  0  0  0  0  0  0  0  0  0  0
    0.7062    2.6807    0.0000 C   0  0  0  0  0  0  0  0  0  0  0  0
    2.1328    3.1443    0.0000 O   0  0  0  0  0  0  0  0  0  0  0  0
    0.3943    1.2135    0.0000 N   0  0  0  0  0  0  0  0  0  0  0  0
    1.2760    0.0000    0.0000 N   0  0  0  0  0  0  0  0  0  0  0  0
    0.3943   -1.2135    0.0000 C   0  0  0  0  0  0  0  0  0  0  0  0
    0.8578   -2.6401    0.0000 C   0  0  0  0  0  0  0  0  0  0  0  0
   -0.1459   -3.7548    0.0000 C   0  0  0  0  0  0  0  0  0  0  0  0
    0.3177   -5.1814    0.0000 C   0  0  0  0  0  0  0  0  0  0  0  0
    1.7849   -5.4933    0.0000 C   0  0  0  0  0  0  0  0  0  0  0  0
    2.7886   -4.3786    0.0000 C   0  0  0  0  0  0  0  0  0  0  0  0
    2.3250   -2.9520    0.0000 C   0  0  0  0  0  0  0  0  0  0  0  0
   -1.0323   -0.7500    0.0000 S   0  0  0  0  0  0  0  0  0  0  0  0
   -1.0323    0.7500    0.0000 C   0  0  0  0  0  0  0  0  0  0  0  0
   -2.1470    1.7537    0.0000 N   0  0  0  0  0  0  0  0  0  0  0  0
   -3.5959    8.1873    0.0000 N   0  0  0  0  0  0  0  0  0  0  0  0
  1  2  1  0
  2  3  2  0
  3  4  1  0
  4  5  2  0
  5  6  1  0
  6  7  1  0
  7  8  1  0
  8  9  2  0
  9 10  1  0
 10 11  2  0
 10 12  1  0
 12 13  1  0
 13 14  2  0
 14 15  1  0
 15 16  1  0
 16 17  1  0
 17 18  1  0
 18 19  1  0
 19 20  1  0
 14 21  1  0
 21 22  1  0
 22 23  2  0
  5 24  1  0
 24  2  1  0
 23  8  1  0
 22 12  1  0
 20 15  1  0
M  END
>  <Compound_ID>  (156) 
C07007187

>  <Active>  (156) 
0

>  <Smiles>  (156) 
Nc1nnc(SCc2cc(=O)n3nc(C4CCCCC4)sc3n2)[nH]1

>  <canonical_smi>  (156) 
Nc1nnc(SCc2cc(=O)n3nc(C4CCCCC4)sc3n2)[nH]1

>  <Set>  (156) 
G2 inactive

>  <Set_type>  (156) 
Train

>  <MW>  (156) 
363.47

>  <HBD>  (156) 
2

>  <HBA>  (156) 
7

>  <NRB>  (156) 
4

>  <NR>  (156) 
4

>  <NAR>  (156) 
3

>  <PSA>  (156) 
114.85

>  <Standard Type>  (156) 
nan

>  <Standard Relation>  (156) 
nan

>  <Standard Units>  (156) 
nan

>  <Standard Value>  (156) 
nan

>  <Assay ChEMBL ID>  (156) 
nan

>  <Assay Description>  (156) 
nan

>  <BAO Label>  (156) 
nan

$$$$

     RDKit          2D

 29 31  0  0  0  0  0  0  0  0999 V2000
    5.2500   -1.2990    0.0000 C   0  0  0  0  0  0  0  0  0  0  0  0
    3.7500   -1.2990    0.0000 O   0  0  0  0  0  0  0  0  0  0  0  0
    3.0000    0.0000    0.0000 C   0  0  0  0  0  0  0  0  0  0  0  0
    3.7500    1.2990    0.0000 O   0  0  0  0  0  0  0  0  0  0  0  0
    1.5000    0.0000    0.0000 C   0  0  0  0  0  0  0  0  0  0  0  0
    0.7500   -1.2990    0.0000 C   0  0  0  0  0  0  0  0  0  0  0  0
    1.5000   -2.5981    0.0000 C   0  0  0  0  0  0  0  0  0  0  0  0
   -0.7500   -1.2990    0.0000 O   0  0  0  0  0  0  0  0  0  0  0  0
   -1.5000    0.0000    0.0000 C   0  0  0  0  0  0  0  0  0  0  0  0
   -3.0000    0.0000    0.0000 N   0  0  0  0  0  0  0  0  0  0  0  0
   -0.7500    1.2990    0.0000 C   0  0  0  0  0  0  0  0  0  0  0  0
   -1.5000    2.5981    0.0000 C   0  0  0  0  0  0  0  0  0  0  0  0
   -2.2500    3.8971    0.0000 N   0  0  0  0  0  0  0  0  0  0  0  0
    0.7500    1.2990    0.0000 C   0  0  0  0  0  0  0  0  0  0  0  0
    1.5000    2.5981    0.0000 C   0  0  0  0  0  0  0  0  0  0  0  0
    0.8899    3.9684    0.0000 C   0  0  0  0  0  0  0  0  0  0  0  0
    2.0046    4.9721    0.0000 C   0  0  0  0  0  0  0  0  0  0  0  0
    3.3037    4.2221    0.0000 C   0  0  0  0  0  0  0  0  0  0  0  0
    4.6740    4.8322    0.0000 C   0  0  0  0  0  0  0  0  0  0  0  0
    5.8875    3.9505    0.0000 O   0  0  0  0  0  0  0  0  0  0  0  0
    7.2578    4.5606    0.0000 C   0  0  0  0  0  0  0  0  0  0  0  0
    8.4713    3.6789    0.0000 C   0  0  0  0  0  0  0  0  0  0  0  0
    9.8417    4.2890    0.0000 C   0  0  0  0  0  0  0  0  0  0  0  0
    9.9984    5.7808    0.0000 C   0  0  0  0  0  0  0  0  0  0  0  0
   11.3688    6.3909    0.0000 Cl  0  0  0  0  0  0  0  0  0  0  0  0
    8.7849    6.6625    0.0000 C   0  0  0  0  0  0  0  0  0  0  0  0
    8.9417    8.1543    0.0000 C   0  0  0  0  0  0  0  0  0  0  0  0
    7.4146    6.0524    0.0000 C   0  0  0  0  0  0  0  0  0  0  0  0
    2.9918    2.7549    0.0000 O   0  0  0  0  0  0  0  0  0  0  0  0
  1  2  1  0
  2  3  1  0
  3  4  2  0
  3  5  1  0
  5  6  2  0
  6  7  1  0
  6  8  1  0
  8  9  1  0
  9 10  1  0
  9 11  2  0
 11 12  1  0
 12 13  3  0
 11 14  1  0
 14 15  1  1
 15 16  2  0
 16 17  1  0
 17 18  2  0
 18 19  1  0
 19 20  1  0
 20 21  1  0
 21 22  2  0
 22 23  1  0
 23 24  2  0
 24 25  1  0
 24 26  1  0
 26 27  1  0
 26 28  2  0
 18 29  1  0
 14  5  1  0
 29 15  1  0
 28 21  1  0
M  END
>  <Compound_ID>  (157) 
C02769501

>  <Active>  (157) 
0

>  <Smiles>  (157) 
COC(=O)C1=C(C)OC(N)=C(C#N)[C@H]1c1ccc(COc2ccc(Cl)c(C)c2)o1

>  <canonical_smi>  (157) 
COC(=O)C1=C(C)OC(N)=C(C#N)[C@H]1c1ccc(COc2ccc(Cl)c(C)c2)o1

>  <Set>  (157) 
G2 inactive

>  <Set_type>  (157) 
Train

>  <MW>  (157) 
414.85

>  <HBD>  (157) 
1

>  <HBA>  (157) 
7

>  <NRB>  (157) 
5

>  <NR>  (157) 
3

>  <NAR>  (157) 
2

>  <PSA>  (157) 
107.71

>  <Standard Type>  (157) 
nan

>  <Standard Relation>  (157) 
nan

>  <Standard Units>  (157) 
nan

>  <Standard Value>  (157) 
nan

>  <Assay ChEMBL ID>  (157) 
nan

>  <Assay Description>  (157) 
nan

>  <BAO Label>  (157) 
nan

$$$$

     RDKit          2D

 36 41  0  0  0  0  0  0  0  0999 V2000
    3.0000    0.0000    0.0000 C   0  0  0  0  0  0  0  0  0  0  0  0
    1.5000    0.0000    0.0000 C   0  0  0  0  0  0  0  0  0  0  0  0
    0.7500   -1.2990    0.0000 C   0  0  0  0  0  0  0  0  0  0  0  0
   -0.7500   -1.2990    0.0000 C   0  0  0  0  0  0  0  0  0  0  0  0
   -1.5000    0.0000    0.0000 C   0  0  0  0  0  0  0  0  0  0  0  0
   -0.7500    1.2990    0.0000 C   0  0  0  0  0  0  0  0  0  0  0  0
    0.7500    1.2990    0.0000 C   0  0  0  0  0  0  0  0  0  0  0  0
    1.5000    2.5981    0.0000 C   0  0  0  0  0  0  0  0  0  0  0  0
   -1.7537    2.4138    0.0000 N   0  0  0  0  0  0  0  0  0  0  0  0
   -3.1240    1.8037    0.0000 C   0  0  0  0  0  0  0  0  0  0  0  0
   -4.4231    2.5537    0.0000 O   0  0  0  0  0  0  0  0  0  0  0  0
   -2.9672    0.3119    0.0000 C   0  0  0  0  0  0  0  0  0  0  0  0
   -2.8104   -1.1799    0.0000 N   0  0  0  0  0  4  0  0  0  0  0  0
   -4.1807   -1.7900    0.0000 C   0  0  0  0  0  0  0  0  0  0  0  0
   -4.4926   -3.2572    0.0000 C   0  0  0  0  0  0  0  0  0  0  0  0
   -5.9192   -3.7208    0.0000 C   0  0  0  0  0  0  0  0  0  0  0  0
   -7.0339   -2.7171    0.0000 C   0  0  0  0  0  0  0  0  0  0  0  0
   -8.4605   -3.1806    0.0000 C   0  0  0  0  0  0  0  0  0  0  0  0
   -8.7724   -4.6478    0.0000 C   0  0  0  0  0  0  0  0  0  0  0  0
   -7.6577   -5.6515    0.0000 C   0  0  0  0  0  0  0  0  0  0  0  0
   -6.2311   -5.1880    0.0000 C   0  0  0  0  0  0  0  0  0  0  0  0
   -5.1844   -0.6753    0.0000 C   0  0  0  0  0  0  0  0  0  0  0  0
   -6.6517   -0.3634    0.0000 C   0  0  0  0  0  0  0  0  0  0  0  0
   -7.7664   -1.3671    0.0000 O   0  0  0  0  0  0  0  0  0  0  0  0
   -6.8085    1.1283    0.0000 N   0  0  0  0  0  0  0  0  0  0  0  0
   -8.1075    1.8783    0.0000 C   0  0  0  0  0  0  0  0  0  0  0  0
   -8.1075    3.3783    0.0000 C   0  0  0  0  0  0  0  0  0  0  0  0
   -9.4065    4.1283    0.0000 C   0  0  0  0  0  0  0  0  0  0  0  0
   -9.4065    5.6283    0.0000 C   0  0  0  0  0  0  0  0  0  0  0  0
  -10.7056    6.3783    0.0000 C   0  0  0  0  0  0  0  0  0  0  0  0
  -12.0046    5.6283    0.0000 C   0  0  0  0  0  0  0  0  0  0  0  0
  -12.0046    4.1283    0.0000 C   0  0  0  0  0  0  0  0  0  0  0  0
  -10.7056    3.3783    0.0000 C   0  0  0  0  0  0  0  0  0  0  0  0
   -5.4381    1.7385    0.0000 C   0  0  0  0  0  0  0  0  0  0  0  0
   -5.1263    3.2057    0.0000 O   0  0  0  0  0  0  0  0  0  0  0  0
   -4.4344    0.6237    0.0000 C   0  0  0  0  0  0  0  0  0  0  0  0
  1  2  1  0
  2  3  2  0
  3  4  1  0
  4  5  2  0
  5  6  1  0
  6  7  2  0
  7  8  1  0
  6  9  1  0
  9 10  1  0
 10 11  2  0
 10 12  1  0
 12 13  1  1
 13 14  1  0
 14 15  1  1
 15 16  1  0
 16 17  2  0
 17 18  1  0
 18 19  2  0
 19 20  1  0
 20 21  2  0
 14 22  1  0
 22 23  1  1
 23 24  2  0
 23 25  1  0
 25 26  1  0
 26 27  1  0
 27 28  1  0
 28 29  2  0
 29 30  1  0
 30 31  2  0
 31 32  1  0
 32 33  2  0
 25 34  1  0
 34 35  2  0
 36 34  1  1
  7  2  1  0
 36 12  1  0
 12  5  1  0
 21 16  1  0
 36 22  1  0
 33 28  1  0
M  CHG  1  13   1
M  END
>  <Compound_ID>  (158) 
C08789964

>  <Active>  (158) 
0

>  <Smiles>  (158) 
Cc1ccc2c(c1C)NC(=O)[C@]21[NH2+][C@@H](Cc2ccccc2)[C@H]2C(=O)N(CCc3ccccc3)C(=O)[C@H]21

>  <canonical_smi>  (158) 
Cc1ccc2c(c1C)NC(=O)[C@]21[NH2+][C@@H](Cc2ccccc2)[C@H]2C(=O)N(CCc3ccccc3)C(=O)[C@H]21

>  <Set>  (158) 
G2 inactive

>  <Set_type>  (158) 
Test

>  <MW>  (158) 
480.59

>  <HBD>  (158) 
2

>  <HBA>  (158) 
3

>  <NRB>  (158) 
5

>  <NR>  (158) 
6

>  <NAR>  (158) 
3

>  <PSA>  (158) 
83.09

>  <Standard Type>  (158) 
nan

>  <Standard Relation>  (158) 
nan

>  <Standard Units>  (158) 
nan

>  <Standard Value>  (158) 
nan

>  <Assay ChEMBL ID>  (158) 
nan

>  <Assay Description>  (158) 
nan

>  <BAO Label>  (158) 
nan

$$$$

     RDKit          2D

 20 21  0  0  0  0  0  0  0  0999 V2000
    3.0000    0.0000    0.0000 N   0  0  0  0  0  0  0  0  0  0  0  0
    1.5000    0.0000    0.0000 C   0  0  0  0  0  0  0  0  0  0  0  0
    0.7500   -1.2990    0.0000 C   0  0  0  0  0  0  0  0  0  0  0  0
   -0.7500   -1.2990    0.0000 C   0  0  0  0  0  0  0  0  0  0  0  0
   -1.5000   -2.5981    0.0000 N   0  0  0  0  0  0  0  0  0  0  0  0
   -1.5000    0.0000    0.0000 N   0  0  0  0  0  0  0  0  0  0  0  0
   -0.7500    1.2990    0.0000 C   0  0  0  0  0  0  0  0  0  0  0  0
   -1.5000    2.5981    0.0000 S   0  0  0  0  0  0  0  0  0  0  0  0
   -0.7500    3.8971    0.0000 C   0  0  0  0  0  0  0  0  0  0  0  0
   -1.5000    5.1962    0.0000 C   0  0  0  0  0  0  0  0  0  0  0  0
   -2.9918    5.3529    0.0000 C   0  0  0  0  0  0  0  0  0  0  0  0
   -3.3037    6.8202    0.0000 C   0  0  0  0  0  0  0  0  0  0  0  0
   -4.6740    7.4303    0.0000 C   0  0  0  0  0  0  0  0  0  0  0  0
   -6.0443    8.0404    0.0000 C   0  0  0  0  0  0  0  0  0  0  0  0
   -7.4146    8.6505    0.0000 C   0  0  0  0  0  0  0  0  0  0  0  0
   -7.5714   10.1423    0.0000 C   0  0  0  0  0  0  0  0  0  0  0  0
   -8.9417   10.7524    0.0000 O   0  0  0  0  0  0  0  0  0  0  0  0
   -2.0046    7.5702    0.0000 C   0  0  0  0  0  0  0  0  0  0  0  0
   -0.8899    6.5665    0.0000 S   0  0  0  0  0  0  0  0  0  0  0  0
    0.7500    1.2990    0.0000 N   0  0  0  0  0  0  0  0  0  0  0  0
  1  2  1  0
  2  3  2  0
  3  4  1  0
  4  5  1  0
  4  6  2  0
  6  7  1  0
  7  8  1  0
  8  9  1  0
  9 10  1  0
 10 11  2  0
 11 12  1  0
 12 13  1  0
 13 14  3  0
 14 15  1  0
 15 16  1  0
 16 17  1  0
 12 18  2  0
 18 19  1  0
  7 20  2  0
 20  2  1  0
 19 10  1  0
M  END
>  <Compound_ID>  (159) 
C43699743

>  <Active>  (159) 
0

>  <Smiles>  (159) 
Nc1cc(N)nc(SCc2cc(C#CCCO)cs2)n1

>  <canonical_smi>  (159) 
Nc1cc(N)nc(SCc2cc(C#CCCO)cs2)n1

>  <Set>  (159) 
G2 inactive

>  <Set_type>  (159) 
Test

>  <MW>  (159) 
306.42

>  <HBD>  (159) 
3

>  <HBA>  (159) 
6

>  <NRB>  (159) 
4

>  <NR>  (159) 
2

>  <NAR>  (159) 
2

>  <PSA>  (159) 
98.05

>  <Standard Type>  (159) 
nan

>  <Standard Relation>  (159) 
nan

>  <Standard Units>  (159) 
nan

>  <Standard Value>  (159) 
nan

>  <Assay ChEMBL ID>  (159) 
nan

>  <Assay Description>  (159) 
nan

>  <BAO Label>  (159) 
nan

$$$$

     RDKit          2D

 15 16  0  0  0  0  0  0  0  0999 V2000
    3.0000    0.0000    0.0000 N   0  0  0  0  0  0  0  0  0  0  0  0
    1.5000    0.0000    0.0000 C   0  0  0  0  0  0  0  0  0  0  0  0
    0.7500   -1.2990    0.0000 N   0  0  0  0  0  0  0  0  0  0  0  0
   -0.7500   -1.2990    0.0000 C   0  0  0  0  0  0  0  0  0  0  0  0
   -1.5000   -2.5981    0.0000 N   0  0  0  0  0  0  0  0  0  0  0  0
   -1.5000    0.0000    0.0000 N   0  0  0  0  0  0  0  0  0  0  0  0
   -0.7500    1.2990    0.0000 C   0  0  0  0  0  0  0  0  0  0  0  0
   -1.5000    2.5981    0.0000 C   0  0  0  0  0  0  0  0  0  0  0  0
   -0.7500    3.8971    0.0000 C   0  0  0  0  0  0  0  0  0  0  0  0
   -1.5000    5.1962    0.0000 C   0  0  0  0  0  0  0  0  0  0  0  0
   -3.0000    5.1962    0.0000 C   0  0  0  0  0  0  0  0  0  0  0  0
   -3.7500    6.4952    0.0000 Br  0  0  0  0  0  0  0  0  0  0  0  0
   -3.7500    3.8971    0.0000 C   0  0  0  0  0  0  0  0  0  0  0  0
   -3.0000    2.5981    0.0000 C   0  0  0  0  0  0  0  0  0  0  0  0
    0.7500    1.2990    0.0000 N   0  0  0  0  0  0  0  0  0  0  0  0
  1  2  1  0
  2  3  2  0
  3  4  1  0
  4  5  1  0
  4  6  2  0
  6  7  1  0
  7  8  1  0
  8  9  2  0
  9 10  1  0
 10 11  2  0
 11 12  1  0
 11 13  1  0
 13 14  2  0
  7 15  2  0
 15  2  1  0
 14  8  1  0
M  END
>  <Compound_ID>  (160) 
C00190509

>  <Active>  (160) 
0

>  <Smiles>  (160) 
Nc1nc(N)nc(-c2ccc(Br)cc2)n1

>  <canonical_smi>  (160) 
Nc1nc(N)nc(-c2ccc(Br)cc2)n1

>  <Set>  (160) 
G2 inactive

>  <Set_type>  (160) 
Test

>  <MW>  (160) 
266.1

>  <HBD>  (160) 
2

>  <HBA>  (160) 
5

>  <NRB>  (160) 
1

>  <NR>  (160) 
2

>  <NAR>  (160) 
2

>  <PSA>  (160) 
90.71

>  <Standard Type>  (160) 
nan

>  <Standard Relation>  (160) 
nan

>  <Standard Units>  (160) 
nan

>  <Standard Value>  (160) 
nan

>  <Assay ChEMBL ID>  (160) 
nan

>  <Assay Description>  (160) 
nan

>  <BAO Label>  (160) 
nan

$$$$

     RDKit          2D

 29 32  0  0  0  0  0  0  0  0999 V2000
    9.7500   -9.0933    0.0000 C   0  0  0  0  0  0  0  0  0  0  0  0
    8.2500   -9.0933    0.0000 C   0  0  0  0  0  0  0  0  0  0  0  0
    7.5000   -7.7942    0.0000 O   0  0  0  0  0  0  0  0  0  0  0  0
    6.0000   -7.7942    0.0000 C   0  0  0  0  0  0  0  0  0  0  0  0
    5.2500   -9.0933    0.0000 C   0  0  0  0  0  0  0  0  0  0  0  0
    3.7500   -9.0933    0.0000 C   0  0  0  0  0  0  0  0  0  0  0  0
    3.0000   -7.7942    0.0000 C   0  0  0  0  0  0  0  0  0  0  0  0
    3.7500   -6.4952    0.0000 C   0  0  0  0  0  0  0  0  0  0  0  0
    5.2500   -6.4952    0.0000 C   0  0  0  0  0  0  0  0  0  0  0  0
    6.0000   -5.1962    0.0000 N   0  0  0  0  0  0  0  0  0  0  0  0
    5.2500   -3.8971    0.0000 C   0  0  0  0  0  0  0  0  0  0  0  0
    6.0000   -2.5981    0.0000 N   0  0  0  0  0  0  0  0  0  0  0  0
    5.2500   -1.2990    0.0000 C   0  0  0  0  0  0  0  0  0  0  0  0
    3.7500   -1.2990    0.0000 N   0  0  0  0  0  0  0  0  0  0  0  0
    3.0000   -2.5981    0.0000 C   0  0  0  0  0  0  0  0  0  0  0  0
    1.5000   -2.5981    0.0000 N   0  0  0  0  0  0  0  0  0  0  0  0
    0.7500   -1.2990    0.0000 C   0  0  0  0  0  0  0  0  0  0  0  0
    1.5000    0.0000    0.0000 C   0  0  0  0  0  0  0  0  0  0  0  0
    0.7500    1.2990    0.0000 C   0  0  0  0  0  0  0  0  0  0  0  0
   -0.7500    1.2990    0.0000 C   0  0  0  0  0  0  0  0  0  0  0  0
   -1.5000    0.0000    0.0000 C   0  0  0  0  0  0  0  0  0  0  0  0
   -3.0000    0.0000    0.0000 C   0  0  0  0  0  0  0  0  0  0  0  0
   -3.7500   -1.2990    0.0000 C   0  0  0  0  0  0  0  0  0  0  0  0
   -3.0000   -2.5981    0.0000 C   0  0  0  0  0  0  0  0  0  0  0  0
   -3.7500   -3.8971    0.0000 C   0  0  0  0  0  0  0  0  0  0  0  0
   -1.5000   -2.5981    0.0000 N   0  0  0  0  0  0  0  0  0  0  0  0
   -0.7500   -1.2990    0.0000 C   0  0  0  0  0  0  0  0  0  0  0  0
    3.7500   -3.8971    0.0000 C   0  0  0  0  0  0  0  0  0  0  0  0
    3.0000   -5.1962    0.0000 N   0  0  0  0  0  0  0  0  0  0  0  0
  1  2  1  0
  2  3  1  0
  3  4  1  0
  4  5  2  0
  5  6  1  0
  6  7  2  0
  7  8  1  0
  8  9  2  0
  9 10  1  0
 10 11  1  0
 11 12  2  0
 12 13  1  0
 13 14  2  0
 14 15  1  0
 15 16  1  0
 16 17  1  0
 17 18  2  0
 18 19  1  0
 19 20  2  0
 20 21  1  0
 21 22  2  0
 22 23  1  0
 23 24  2  0
 24 25  1  0
 24 26  1  0
 26 27  2  0
 15 28  2  0
 28 29  1  0
  9  4  1  0
 28 11  1  0
 27 17  1  0
 27 21  1  0
M  END
>  <Compound_ID>  (161) 
C40758784

>  <Active>  (161) 
0

>  <Smiles>  (161) 
CCOc1ccccc1Nc1ncnc(Nc2cccc3ccc(C)nc23)c1N

>  <canonical_smi>  (161) 
CCOc1ccccc1Nc1ncnc(Nc2cccc3ccc(C)nc23)c1N

>  <Set>  (161) 
G2 inactive

>  <Set_type>  (161) 
Test

>  <MW>  (161) 
386.46

>  <HBD>  (161) 
3

>  <HBA>  (161) 
7

>  <NRB>  (161) 
6

>  <NR>  (161) 
4

>  <NAR>  (161) 
4

>  <PSA>  (161) 
97.98

>  <Standard Type>  (161) 
nan

>  <Standard Relation>  (161) 
nan

>  <Standard Units>  (161) 
nan

>  <Standard Value>  (161) 
nan

>  <Assay ChEMBL ID>  (161) 
nan

>  <Assay Description>  (161) 
nan

>  <BAO Label>  (161) 
nan

$$$$

     RDKit          2D

 25 27  0  0  0  0  0  0  0  0999 V2000
   -2.6401   -3.1891    0.0000 C   0  0  0  0  0  0  0  0  0  0  0  0
   -1.2135   -2.7256    0.0000 N   0  0  0  0  0  0  0  0  0  0  0  0
   -0.0000   -3.6073    0.0000 C   0  0  0  0  0  0  0  0  0  0  0  0
   -0.0000   -5.1073    0.0000 C   0  0  0  0  0  0  0  0  0  0  0  0
   -1.2990   -5.8573    0.0000 C   0  0  0  0  0  0  0  0  0  0  0  0
   -1.2990   -7.3573    0.0000 N   0  0  0  0  0  0  0  0  0  0  0  0
   -2.5981   -8.1073    0.0000 N   0  0  0  0  0  0  0  0  0  0  0  0
   -2.5981   -9.6073    0.0000 C   0  0  0  0  0  0  0  0  0  0  0  0
   -1.2990  -10.3573    0.0000 O   0  0  0  0  0  0  0  0  0  0  0  0
   -3.8971  -10.3573    0.0000 C   0  0  0  0  0  0  0  0  0  0  0  0
   -5.1962   -9.6073    0.0000 C   0  0  0  0  0  0  0  0  0  0  0  0
   -6.4952  -10.3573    0.0000 C   0  0  0  0  0  0  0  0  0  0  0  0
   -6.4952  -11.8573    0.0000 C   0  0  0  0  0  0  0  0  0  0  0  0
   -7.7942  -12.6073    0.0000 N   0  0  0  0  0  0  0  0  0  0  0  0
   -5.1962  -12.6073    0.0000 C   0  0  0  0  0  0  0  0  0  0  0  0
   -3.8971  -11.8573    0.0000 C   0  0  0  0  0  0  0  0  0  0  0  0
    1.2135   -2.7256    0.0000 C   0  0  0  0  0  0  0  0  0  0  0  0
    2.5838   -2.1155    0.0000 C   0  0  0  0  0  0  0  0  0  0  0  0
    1.9635   -4.0247    0.0000 C   0  0  0  0  0  0  0  0  0  0  0  0
    0.7500   -1.2990    0.0000 C   0  0  0  0  0  0  0  0  0  0  0  0
    1.5000    0.0000    0.0000 C   0  0  0  0  0  0  0  0  0  0  0  0
    0.7500    1.2990    0.0000 C   0  0  0  0  0  0  0  0  0  0  0  0
   -0.7500    1.2990    0.0000 C   0  0  0  0  0  0  0  0  0  0  0  0
   -1.5000    0.0000    0.0000 C   0  0  0  0  0  0  0  0  0  0  0  0
   -0.7500   -1.2990    0.0000 C   0  0  0  0  0  0  0  0  0  0  0  0
  1  2  1  0
  2  3  1  0
  3  4  2  0
  4  5  1  0
  5  6  2  0
  6  7  1  0
  7  8  1  0
  8  9  2  0
  8 10  1  0
 10 11  2  0
 11 12  1  0
 12 13  2  0
 13 14  1  0
 13 15  1  0
 15 16  2  0
  3 17  1  0
 17 18  1  0
 17 19  1  0
 17 20  1  0
 20 21  2  0
 21 22  1  0
 22 23  2  0
 23 24  1  0
 24 25  2  0
 25  2  1  0
 16 10  1  0
 25 20  1  0
M  END
>  <Compound_ID>  (162) 
C13116944

>  <Active>  (162) 
0

>  <Smiles>  (162) 
CN1/C(=C\C=N\NC(=O)c2ccc(N)cc2)C(C)(C)c2ccccc21

>  <canonical_smi>  (162) 
CN1/C(=C\C=N\NC(=O)c2ccc(N)cc2)C(C)(C)c2ccccc21

>  <Set>  (162) 
G2 inactive

>  <Set_type>  (162) 
Test

>  <MW>  (162) 
334.42

>  <HBD>  (162) 
2

>  <HBA>  (162) 
3

>  <NRB>  (162) 
3

>  <NR>  (162) 
3

>  <NAR>  (162) 
2

>  <PSA>  (162) 
70.72

>  <Standard Type>  (162) 
nan

>  <Standard Relation>  (162) 
nan

>  <Standard Units>  (162) 
nan

>  <Standard Value>  (162) 
nan

>  <Assay ChEMBL ID>  (162) 
nan

>  <Assay Description>  (162) 
nan

>  <BAO Label>  (162) 
nan

$$$$

     RDKit          2D

 37 43  0  0  0  0  0  0  0  0999 V2000
   -1.6839   -7.2010    0.0000 N   0  0  0  0  0  0  0  0  0  0  0  0
   -1.5271   -5.7092    0.0000 C   0  0  0  0  0  0  0  0  0  0  0  0
   -2.7406   -4.8275    0.0000 N   0  0  0  0  0  4  0  0  0  0  0  0
   -2.5838   -3.3357    0.0000 C   0  0  0  0  0  0  0  0  0  0  0  0
   -3.7974   -2.4540    0.0000 C   0  0  0  0  0  0  0  0  0  0  0  0
   -3.6406   -0.9623    0.0000 C   0  0  0  0  0  0  0  0  0  0  0  0
   -4.8541   -0.0806    0.0000 C   0  0  0  0  0  0  0  0  0  0  0  0
   -6.2244   -0.6907    0.0000 C   0  0  0  0  0  0  0  0  0  0  0  0
   -7.4379    0.1910    0.0000 N   0  0  0  0  0  0  0  0  0  0  0  0
   -8.8645   -0.2725    0.0000 N   0  0  0  0  0  0  0  0  0  0  0  0
   -9.7462    0.9410    0.0000 C   0  0  0  0  0  0  0  0  0  0  0  0
  -11.2462    0.9410    0.0000 C   0  0  0  0  0  0  0  0  0  0  0  0
  -11.9962    2.2400    0.0000 C   0  0  0  0  0  0  0  0  0  0  0  0
  -13.4962    2.2400    0.0000 C   0  0  0  0  0  0  0  0  0  0  0  0
  -14.2462    0.9410    0.0000 C   0  0  0  0  0  0  0  0  0  0  0  0
  -13.4962   -0.3581    0.0000 C   0  0  0  0  0  0  0  0  0  0  0  0
  -11.9962   -0.3581    0.0000 C   0  0  0  0  0  0  0  0  0  0  0  0
   -8.8645    2.1545    0.0000 C   0  0  0  0  0  0  0  0  0  0  0  0
   -7.4379    1.6910    0.0000 C   0  0  0  0  0  0  0  0  0  0  0  0
   -6.2244    2.5727    0.0000 C   0  0  0  0  0  0  0  0  0  0  0  0
   -4.8541    1.9626    0.0000 C   0  0  0  0  0  0  0  0  0  0  0  0
   -3.6406    2.8442    0.0000 C   0  0  0  0  0  0  0  0  0  0  0  0
   -3.7974    4.3360    0.0000 C   0  0  0  0  0  0  0  0  0  0  0  0
   -5.1677    4.9461    0.0000 C   0  0  0  0  0  0  0  0  0  0  0  0
   -6.3812    4.0644    0.0000 C   0  0  0  0  0  0  0  0  0  0  0  0
   -6.3812   -2.1825    0.0000 C   0  0  0  0  0  0  0  0  0  0  0  0
   -5.1677   -3.0642    0.0000 C   0  0  0  0  0  0  0  0  0  0  0  0
   -1.2135   -2.7256    0.0000 N   0  0  0  0  0  0  0  0  0  0  0  0
   -0.0000   -3.6073    0.0000 C   0  0  0  0  0  0  0  0  0  0  0  0
    1.2135   -2.7256    0.0000 N   0  0  0  0  0  0  0  0  0  0  0  0
    0.7500   -1.2990    0.0000 C   0  0  0  0  0  0  0  0  0  0  0  0
    1.5000    0.0000    0.0000 C   0  0  0  0  0  0  0  0  0  0  0  0
    0.7500    1.2990    0.0000 C   0  0  0  0  0  0  0  0  0  0  0  0
   -0.7500    1.2990    0.0000 C   0  0  0  0  0  0  0  0  0  0  0  0
   -1.5000    0.0000    0.0000 C   0  0  0  0  0  0  0  0  0  0  0  0
   -0.7500   -1.2990    0.0000 C   0  0  0  0  0  0  0  0  0  0  0  0
   -0.1568   -5.0991    0.0000 N   0  0  0  0  0  0  0  0  0  0  0  0
  1  2  1  0
  2  3  2  0
  3  4  1  0
  4  5  1  1
  5  6  2  0
  6  7  1  0
  7  8  2  0
  8  9  1  0
  9 10  1  0
 10 11  2  0
 11 12  1  0
 12 13  2  0
 13 14  1  0
 14 15  2  0
 15 16  1  0
 16 17  2  0
 11 18  1  0
 18 19  1  0
 19 20  1  1
 20 21  2  0
 21 22  1  0
 22 23  2  0
 23 24  1  0
 24 25  2  0
  8 26  1  0
 26 27  2  0
  4 28  1  0
 28 29  1  0
 29 30  2  0
 30 31  1  0
 31 32  2  0
 32 33  1  0
 33 34  2  0
 34 35  1  0
 35 36  2  0
 29 37  1  0
 37  2  1  0
 27  5  1  0
 36 28  1  0
 19  9  1  0
 25 20  1  0
 36 31  1  0
 17 12  1  0
M  CHG  1   3   1
M  END
>  <Compound_ID>  (163) 
C10059075

>  <Active>  (163) 
0

>  <Smiles>  (163) 
NC1=[NH+][C@@H](c2ccc(N3N=C(c4ccccc4)C[C@H]3c3ccccc3)cc2)n2c(nc3ccccc32)N1

>  <canonical_smi>  (163) 
NC1=[NH+][C@@H](c2ccc(N3N=C(c4ccccc4)C[C@H]3c3ccccc3)cc2)n2c(nc3ccccc32)N1

>  <Set>  (163) 
G2 inactive

>  <Set_type>  (163) 
Test

>  <MW>  (163) 
484.59

>  <HBD>  (163) 
3

>  <HBA>  (163) 
4

>  <NRB>  (163) 
4

>  <NR>  (163) 
7

>  <NAR>  (163) 
5

>  <PSA>  (163) 
85.44

>  <Standard Type>  (163) 
nan

>  <Standard Relation>  (163) 
nan

>  <Standard Units>  (163) 
nan

>  <Standard Value>  (163) 
nan

>  <Assay ChEMBL ID>  (163) 
nan

>  <Assay Description>  (163) 
nan

>  <BAO Label>  (163) 
nan

$$$$

     RDKit          2D

 37 40  0  0  0  0  0  0  0  0999 V2000
   -6.0000  -10.3923    0.0000 C   0  0  0  0  0  0  0  0  0  0  0  0
   -5.2500  -11.6913    0.0000 O   0  0  0  0  0  0  0  0  0  0  0  0
   -3.7500  -11.6913    0.0000 C   0  0  0  0  0  0  0  0  0  0  0  0
   -3.0000  -10.3923    0.0000 C   0  0  0  0  0  0  0  0  0  0  0  0
   -1.5000  -10.3923    0.0000 C   0  0  0  0  0  0  0  0  0  0  0  0
   -0.7500   -9.0933    0.0000 C   0  0  0  0  0  0  0  0  0  0  0  0
    0.7500   -9.0933    0.0000 O   0  0  0  0  0  0  0  0  0  0  0  0
   -1.5000   -7.7942    0.0000 N   0  0  0  0  0  0  0  0  0  0  0  0
   -0.7500   -6.4952    0.0000 C   0  0  0  0  0  0  0  0  0  0  0  0
   -1.5000   -5.1962    0.0000 C   0  0  0  0  0  0  0  0  0  0  0  0
   -3.0000   -5.1962    0.0000 C   0  0  0  0  0  0  0  0  0  0  0  0
   -3.7500   -3.8971    0.0000 C   0  0  0  0  0  0  0  0  0  0  0  0
   -5.2500   -3.8971    0.0000 C   0  0  0  0  0  0  0  0  0  0  0  0
   -6.0000   -5.1962    0.0000 C   0  0  0  0  0  0  0  0  0  0  0  0
   -7.5000   -5.1962    0.0000 N   0  0  0  0  0  0  0  0  0  0  0  0
   -8.2500   -3.8971    0.0000 C   0  0  0  0  0  0  0  0  0  0  0  0
   -8.2500   -6.4952    0.0000 C   0  0  0  0  0  0  0  0  0  0  0  0
   -5.2500   -6.4952    0.0000 C   0  0  0  0  0  0  0  0  0  0  0  0
   -3.7500   -6.4952    0.0000 C   0  0  0  0  0  0  0  0  0  0  0  0
   -0.7500   -3.8971    0.0000 N   0  0  0  0  0  4  0  0  0  0  0  0
    0.7500   -3.8971    0.0000 C   0  0  0  0  0  0  0  0  0  0  0  0
    1.5000   -2.5981    0.0000 C   0  0  0  0  0  0  0  0  0  0  0  0
    0.7500   -1.2990    0.0000 C   0  0  0  0  0  0  0  0  0  0  0  0
    1.5000    0.0000    0.0000 C   0  0  0  0  0  0  0  0  0  0  0  0
    0.7500    1.2990    0.0000 C   0  0  0  0  0  0  0  0  0  0  0  0
   -0.7500    1.2990    0.0000 C   0  0  0  0  0  0  0  0  0  0  0  0
   -1.5000    0.0000    0.0000 C   0  0  0  0  0  0  0  0  0  0  0  0
   -0.7500   -1.2990    0.0000 C   0  0  0  0  0  0  0  0  0  0  0  0
   -1.5000   -2.5981    0.0000 C   0  0  0  0  0  0  0  0  0  0  0  0
   -0.7500  -11.6913    0.0000 C   0  0  0  0  0  0  0  0  0  0  0  0
    0.7500  -11.6913    0.0000 N   0  0  0  0  0  4  0  0  0  0  0  0
    1.5000  -10.3923    0.0000 O   0  0  0  0  0  0  0  0  0  0  0  0
    1.5000  -12.9904    0.0000 O   0  0  0  0  0  1  0  0  0  0  0  0
   -1.5000  -12.9904    0.0000 C   0  0  0  0  0  0  0  0  0  0  0  0
   -3.0000  -12.9904    0.0000 C   0  0  0  0  0  0  0  0  0  0  0  0
   -3.7500  -14.2894    0.0000 O   0  0  0  0  0  0  0  0  0  0  0  0
   -3.0000  -15.5885    0.0000 C   0  0  0  0  0  0  0  0  0  0  0  0
  1  2  1  0
  2  3  1  0
  3  4  2  0
  4  5  1  0
  5  6  1  0
  6  7  2  0
  6  8  1  0
  8  9  1  0
 10  9  1  6
 10 11  1  0
 11 12  2  0
 12 13  1  0
 13 14  2  0
 14 15  1  0
 15 16  1  0
 15 17  1  0
 14 18  1  0
 18 19  2  0
 10 20  1  0
 20 21  1  0
 21 22  1  0
 22 23  1  0
 23 24  2  0
 24 25  1  0
 25 26  2  0
 26 27  1  0
 27 28  2  0
 28 29  1  0
  5 30  2  0
 30 31  1  0
 31 32  2  0
 31 33  1  0
 30 34  1  0
 34 35  2  0
 35 36  1  0
 36 37  1  0
 35  3  1  0
 19 11  1  0
 29 20  1  0
 28 23  1  0
M  CHG  3  20   1  31   1  33  -1
M  END
>  <Compound_ID>  (164) 
C22418169

>  <Active>  (164) 
0

>  <Smiles>  (164) 
COc1cc(C(=O)NC[C@H](c2ccc(N(C)C)cc2)[NH+]2CCc3ccccc3C2)c([N+](=O)[O-])cc1OC

>  <canonical_smi>  (164) 
COc1cc(C(=O)NC[C@H](c2ccc(N(C)C)cc2)[NH+]2CCc3ccccc3C2)c([N+](=O)[O-])cc1OC

>  <Set>  (164) 
G2 inactive

>  <Set_type>  (164) 
Test

>  <MW>  (164) 
505.6

>  <HBD>  (164) 
2

>  <HBA>  (164) 
6

>  <NRB>  (164) 
9

>  <NR>  (164) 
4

>  <NAR>  (164) 
3

>  <PSA>  (164) 
98.38

>  <Standard Type>  (164) 
nan

>  <Standard Relation>  (164) 
nan

>  <Standard Units>  (164) 
nan

>  <Standard Value>  (164) 
nan

>  <Assay ChEMBL ID>  (164) 
nan

>  <Assay Description>  (164) 
nan

>  <BAO Label>  (164) 
nan

$$$$

     RDKit          2D

 35 38  0  0  0  0  0  0  0  0999 V2000
    7.4466    3.7867    0.0000 C   0  0  0  0  0  0  0  0  0  0  0  0
    6.1476    4.5367    0.0000 O   0  0  0  0  0  0  0  0  0  0  0  0
    4.8486    3.7867    0.0000 C   0  0  0  0  0  0  0  0  0  0  0  0
    3.5495    4.5367    0.0000 C   0  0  0  0  0  0  0  0  0  0  0  0
    2.2505    3.7867    0.0000 C   0  0  0  0  0  0  0  0  0  0  0  0
    2.2505    2.2867    0.0000 C   0  0  0  0  0  0  0  0  0  0  0  0
    3.5495    1.5367    0.0000 C   0  0  0  0  0  0  0  0  0  0  0  0
    3.5495    0.0367    0.0000 O   0  0  0  0  0  0  0  0  0  0  0  0
    4.8486   -0.7133    0.0000 C   0  0  0  0  0  0  0  0  0  0  0  0
    4.8486    2.2867    0.0000 C   0  0  0  0  0  0  0  0  0  0  0  0
    6.1476    1.5367    0.0000 O   0  0  0  0  0  0  0  0  0  0  0  0
    6.1476    0.0367    0.0000 C   0  0  0  0  0  0  0  0  0  0  0  0
    1.0777    1.3515    0.0000 C   0  0  0  0  0  0  0  0  0  0  0  0
    1.7286    0.0000    0.0000 C   0  0  0  0  0  0  0  0  0  0  0  0
    1.0777   -1.3515    0.0000 C   0  0  0  0  0  0  0  0  0  0  0  0
   -0.3846   -1.6852    0.0000 C   0  0  0  0  0  0  0  0  0  0  0  0
   -0.7184   -3.1476    0.0000 S   0  0  0  0  0  0  0  0  0  0  0  0
    0.3812   -4.1679    0.0000 C   0  0  0  0  0  0  0  0  0  0  0  0
   -1.5574   -0.7500    0.0000 C   0  0  0  0  0  0  0  0  0  0  0  0
   -2.9088   -1.4008    0.0000 O   0  0  0  0  0  0  0  0  0  0  0  0
   -1.5574    0.7500    0.0000 C   0  0  0  0  0  0  0  0  0  0  0  0
   -0.3846    1.6852    0.0000 C   0  0  0  0  0  0  0  0  0  0  0  0
   -1.0355    3.0367    0.0000 C   0  0  0  0  0  0  0  0  0  0  0  0
   -2.5355    3.0367    0.0000 N   0  0  0  0  0  4  0  0  0  0  0  0
   -3.2855    4.3357    0.0000 C   0  0  0  0  0  0  0  0  0  0  0  0
   -4.7855    4.3357    0.0000 C   0  0  0  0  0  0  0  0  0  0  0  0
   -5.5355    5.6348    0.0000 C   0  0  0  0  0  0  0  0  0  0  0  0
   -7.0355    5.6348    0.0000 C   0  0  0  0  0  0  0  0  0  0  0  0
   -7.7855    4.3357    0.0000 C   0  0  0  0  0  0  0  0  0  0  0  0
   -9.2855    4.3357    0.0000 C   0  0  0  0  0  0  0  0  0  0  0  0
  -10.7855    4.3357    0.0000 N   0  0  0  0  0  0  0  0  0  0  0  0
   -7.0355    3.0367    0.0000 C   0  0  0  0  0  0  0  0  0  0  0  0
   -5.5355    3.0367    0.0000 C   0  0  0  0  0  0  0  0  0  0  0  0
   -0.3846    4.3881    0.0000 C   0  0  0  0  0  0  0  0  0  0  0  0
    1.0777    4.7219    0.0000 C   0  0  0  0  0  0  0  0  0  0  0  0
  1  2  1  0
  2  3  1  0
  3  4  2  0
  4  5  1  0
  5  6  2  0
  6  7  1  0
  7  8  1  0
  8  9  1  0
  7 10  2  0
 10 11  1  0
 11 12  1  0
  6 13  1  0
 13 14  2  0
 14 15  1  0
 15 16  2  0
 16 17  1  0
 17 18  1  0
 16 19  1  0
 19 20  2  0
 19 21  1  0
 21 22  2  0
 22 23  1  0
 23 24  1  1
 24 25  1  0
 25 26  1  0
 26 27  2  0
 27 28  1  0
 28 29  2  0
 29 30  1  0
 30 31  3  0
 29 32  1  0
 32 33  2  0
 23 34  1  0
 34 35  1  0
 10  3  1  0
 22 13  1  0
 33 26  1  0
 35  5  1  0
M  CHG  1  24   1
M  END
>  <Compound_ID>  (165) 
C01631526

>  <Active>  (165) 
0

>  <Smiles>  (165) 
COc1cc2c(c(OC)c1OC)-c1ccc(SC)c(=O)cc1[C@@H]([NH2+]Cc1ccc(C#N)cc1)CC2

>  <canonical_smi>  (165) 
COc1cc2c(c(OC)c1OC)-c1ccc(SC)c(=O)cc1[C@@H]([NH2+]Cc1ccc(C#N)cc1)CC2

>  <Set>  (165) 
G2 inactive

>  <Set_type>  (165) 
Test

>  <MW>  (165) 
489.62

>  <HBD>  (165) 
1

>  <HBA>  (165) 
6

>  <NRB>  (165) 
7

>  <NR>  (165) 
4

>  <NAR>  (165) 
3

>  <PSA>  (165) 
85.16

>  <Standard Type>  (165) 
nan

>  <Standard Relation>  (165) 
nan

>  <Standard Units>  (165) 
nan

>  <Standard Value>  (165) 
nan

>  <Assay ChEMBL ID>  (165) 
nan

>  <Assay Description>  (165) 
nan

>  <BAO Label>  (165) 
nan

$$$$

     RDKit          2D

 36 40  0  0  0  0  0  0  0  0999 V2000
  -12.7544    7.6681    0.0000 C   0  0  0  0  0  0  0  0  0  0  0  0
  -11.6702    8.7047    0.0000 C   0  0  0  0  0  0  0  0  0  0  0  0
  -12.0258   10.1619    0.0000 C   0  0  0  0  0  0  0  0  0  0  0  0
  -10.9416   11.1985    0.0000 C   0  0  0  0  0  0  0  0  0  0  0  0
   -9.5018   10.7779    0.0000 C   0  0  0  0  0  0  0  0  0  0  0  0
   -9.1462    9.3206    0.0000 C   0  0  0  0  0  0  0  0  0  0  0  0
  -10.2304    8.2840    0.0000 C   0  0  0  0  0  0  0  0  0  0  0  0
   -9.8748    6.8268    0.0000 C   0  0  0  0  0  0  0  0  0  0  0  0
  -10.9590    5.7902    0.0000 O   0  0  0  0  0  0  0  0  0  0  0  0
   -8.4350    6.4062    0.0000 N   0  0  0  0  0  0  0  0  0  0  0  0
   -7.4313    7.5209    0.0000 C   0  0  0  0  0  0  0  0  0  0  0  0
   -5.9339    7.4312    0.0000 C   0  0  0  0  0  0  0  0  0  0  0  0
   -5.0705    6.2046    0.0000 C   0  0  0  0  0  0  0  0  0  0  0  0
   -5.4912    4.7648    0.0000 N   0  0  0  0  0  0  0  0  0  0  0  0
   -4.3764    3.7611    0.0000 C   0  0  0  0  0  0  0  0  0  0  0  0
   -4.6883    2.2939    0.0000 O   0  0  0  0  0  0  0  0  0  0  0  0
   -2.9499    4.2246    0.0000 C   0  0  0  0  0  0  0  0  0  0  0  0
   -2.6380    5.6918    0.0000 C   0  0  0  0  0  0  0  0  0  0  0  0
   -1.8351    3.2209    0.0000 N   0  0  0  0  0  4  0  0  0  0  0  0
   -2.1470    1.7537    0.0000 C   0  0  0  0  0  0  0  0  0  0  0  0
   -1.0323    0.7500    0.0000 C   0  0  0  0  0  0  0  0  0  0  0  0
    0.3943    1.2135    0.0000 C   0  0  0  0  0  0  0  0  0  0  0  0
    1.6933    0.4635    0.0000 S   0  0  0  0  0  0  0  0  0  0  0  0
    2.8081    1.4672    0.0000 C   0  0  0  0  0  0  0  0  0  0  0  0
    2.1979    2.8375    0.0000 C   0  0  0  0  0  0  0  0  0  0  0  0
    0.7062    2.6807    0.0000 C   0  0  0  0  0  0  0  0  0  0  0  0
   -0.4086    3.6844    0.0000 C   0  0  0  0  0  0  0  0  0  0  0  0
   -0.0967    5.1517    0.0000 C   0  0  0  0  0  0  0  0  0  0  0  0
   -1.2114    6.1554    0.0000 C   0  0  0  0  0  0  0  0  0  0  0  0
   -0.8995    7.6226    0.0000 C   0  0  0  0  0  0  0  0  0  0  0  0
    0.5271    8.0861    0.0000 C   0  0  0  0  0  0  0  0  0  0  0  0
    1.6418    7.0824    0.0000 C   0  0  0  0  0  0  0  0  0  0  0  0
    1.3299    5.6152    0.0000 C   0  0  0  0  0  0  0  0  0  0  0  0
    2.4446    4.6115    0.0000 C   0  0  0  0  0  0  0  0  0  0  0  0
   -6.8791    4.1959    0.0000 C   0  0  0  0  0  0  0  0  0  0  0  0
   -8.1892    4.9264    0.0000 C   0  0  0  0  0  0  0  0  0  0  0  0
  1  2  1  0
  2  3  2  0
  3  4  1  0
  4  5  2  0
  5  6  1  0
  6  7  2  0
  7  8  1  0
  8  9  2  0
  8 10  1  0
 10 11  1  0
 11 12  1  0
 12 13  1  0
 13 14  1  0
 14 15  1  0
 15 16  2  0
 15 17  1  0
 17 18  1  6
 17 19  1  0
 19 20  1  0
 20 21  1  0
 21 22  1  0
 22 23  1  0
 23 24  1  0
 24 25  2  0
 25 26  1  0
 26 27  1  0
 27 28  1  6
 28 29  2  0
 29 30  1  0
 30 31  2  0
 31 32  1  0
 32 33  2  0
 33 34  1  0
 14 35  1  0
 35 36  1  0
  7  2  1  0
 36 10  1  0
 27 19  1  0
 33 28  1  0
 26 22  2  0
M  CHG  1  19   1
M  END
>  <Compound_ID>  (166) 
C34830400

>  <Active>  (166) 
0

>  <Smiles>  (166) 
Cc1ccccc1C(=O)N1CCCN(C(=O)[C@H](C)[NH+]2CCc3sccc3[C@H]2c2ccccc2C)CC1

>  <canonical_smi>  (166) 
Cc1ccccc1C(=O)N1CCCN(C(=O)[C@H](C)[NH+]2CCc3sccc3[C@H]2c2ccccc2C)CC1

>  <Set>  (166) 
G2 inactive

>  <Set_type>  (166) 
Test

>  <MW>  (166) 
502.7

>  <HBD>  (166) 
1

>  <HBA>  (166) 
2

>  <NRB>  (166) 
4

>  <NR>  (166) 
5

>  <NAR>  (166) 
3

>  <PSA>  (166) 
45.06

>  <Standard Type>  (166) 
nan

>  <Standard Relation>  (166) 
nan

>  <Standard Units>  (166) 
nan

>  <Standard Value>  (166) 
nan

>  <Assay ChEMBL ID>  (166) 
nan

>  <Assay Description>  (166) 
nan

>  <BAO Label>  (166) 
nan

$$$$

     RDKit          2D

 29 31  0  0  0  0  0  0  0  0999 V2000
    4.3786   -5.1199    0.0000 C   0  0  0  0  0  0  0  0  0  0  0  0
    2.9520   -4.6564    0.0000 O   0  0  0  0  0  0  0  0  0  0  0  0
    2.6401   -3.1891    0.0000 C   0  0  0  0  0  0  0  0  0  0  0  0
    3.7548   -2.1855    0.0000 O   0  0  0  0  0  0  0  0  0  0  0  0
    1.2135   -2.7256    0.0000 C   0  0  0  0  0  0  0  0  0  0  0  0
   -0.0000   -3.6073    0.0000 C   0  0  0  0  0  0  0  0  0  0  0  0
   -0.0000   -5.1073    0.0000 N   0  0  0  0  0  0  0  0  0  0  0  0
   -1.2990   -5.8573    0.0000 S   0  0  0  0  0  0  0  0  0  0  0  0
   -2.5981   -6.6073    0.0000 C   0  0  0  0  0  0  0  0  0  0  0  0
   -2.0490   -4.5583    0.0000 O   0  0  0  0  0  0  0  0  0  0  0  0
   -0.5490   -7.1563    0.0000 O   0  0  0  0  0  0  0  0  0  0  0  0
   -1.2135   -2.7256    0.0000 S   0  0  0  0  0  0  0  0  0  0  0  0
   -0.7500   -1.2990    0.0000 C   0  0  0  0  0  0  0  0  0  0  0  0
    0.7500   -1.2990    0.0000 C   0  0  0  0  0  0  0  0  0  0  0  0
    1.5000    0.0000    0.0000 C   0  0  0  0  0  0  0  0  0  0  0  0
    0.7500    1.2990    0.0000 C   0  0  0  0  0  0  0  0  0  0  0  0
   -0.7500    1.2990    0.0000 N   0  0  0  0  0  0  0  0  0  0  0  0
   -1.5000    2.5981    0.0000 C   0  0  0  0  0  0  0  0  0  0  0  0
   -0.7500    3.8971    0.0000 N   0  0  0  0  0  4  0  0  0  0  0  0
   -1.5000    5.1962    0.0000 C   0  0  0  0  0  0  0  0  0  0  0  0
   -3.0000    5.1962    0.0000 C   0  0  0  0  0  0  0  0  0  0  0  0
   -3.7500    6.4952    0.0000 C   0  0  0  0  0  0  0  0  0  0  0  0
   -4.5000    7.7942    0.0000 F   0  0  0  0  0  0  0  0  0  0  0  0
   -2.4510    7.2452    0.0000 F   0  0  0  0  0  0  0  0  0  0  0  0
   -5.0490    5.7452    0.0000 F   0  0  0  0  0  0  0  0  0  0  0  0
   -3.7500    3.8971    0.0000 C   0  0  0  0  0  0  0  0  0  0  0  0
   -3.0000    2.5981    0.0000 C   0  0  0  0  0  0  0  0  0  0  0  0
   -3.7500    1.2990    0.0000 Cl  0  0  0  0  0  0  0  0  0  0  0  0
   -1.5000    0.0000    0.0000 C   0  0  0  0  0  0  0  0  0  0  0  0
  1  2  1  0
  2  3  1  0
  3  4  2  0
  3  5  1  0
  5  6  2  0
  6  7  1  0
  7  8  1  0
  8  9  1  0
  8 10  2  0
  8 11  2  0
  6 12  1  0
 12 13  1  0
 13 14  2  0
 14 15  1  0
 15 16  1  0
 16 17  1  0
 17 18  1  0
 18 19  2  0
 19 20  1  0
 20 21  2  0
 21 22  1  0
 22 23  1  0
 22 24  1  0
 22 25  1  0
 21 26  1  0
 26 27  2  0
 27 28  1  0
 17 29  1  0
 14  5  1  0
 27 18  1  0
 29 13  1  0
M  CHG  1  19   1
M  END
>  <Compound_ID>  (167) 
C06182977

>  <Active>  (167) 
0

>  <Smiles>  (167) 
COC(=O)c1c(NS(C)(=O)=O)sc2c1CCN(c1[nH+]cc(C(F)(F)F)cc1Cl)C2

>  <canonical_smi>  (167) 
COC(=O)c1c(NS(C)(=O)=O)sc2c1CCN(c1[nH+]cc(C(F)(F)F)cc1Cl)C2

>  <Set>  (167) 
G2 inactive

>  <Set_type>  (167) 
Test

>  <MW>  (167) 
470.9

>  <HBD>  (167) 
1

>  <HBA>  (167) 
5

>  <NRB>  (167) 
4

>  <NR>  (167) 
3

>  <NAR>  (167) 
2

>  <PSA>  (167) 
89.85

>  <Standard Type>  (167) 
nan

>  <Standard Relation>  (167) 
nan

>  <Standard Units>  (167) 
nan

>  <Standard Value>  (167) 
nan

>  <Assay ChEMBL ID>  (167) 
nan

>  <Assay Description>  (167) 
nan

>  <BAO Label>  (167) 
nan

$$$$

     RDKit          2D

 38 44  0  0  0  0  0  0  0  0999 V2000
    5.2500   -6.4952    0.0000 O   0  0  0  0  0  0  0  0  0  0  0  0
    3.7500   -6.4952    0.0000 C   0  0  0  0  0  0  0  0  0  0  0  0
    3.0000   -7.7942    0.0000 C   0  0  0  0  0  0  0  0  0  0  0  0
    1.5000   -7.7942    0.0000 C   0  0  0  0  0  0  0  0  0  0  0  0
    0.7500   -9.0933    0.0000 C   0  0  0  0  0  0  0  0  0  0  0  0
    1.5000  -10.3923    0.0000 C   0  0  0  0  0  0  0  0  0  0  0  0
    0.7500  -11.6913    0.0000 C   0  0  0  0  0  0  0  0  0  0  0  0
    1.5000  -12.9904    0.0000 C   0  0  0  0  0  0  0  0  0  0  0  0
    0.7500  -14.2894    0.0000 C   0  0  0  0  0  0  0  0  0  0  0  0
   -0.7500  -14.2894    0.0000 C   0  0  0  0  0  0  0  0  0  0  0  0
   -1.5000  -12.9904    0.0000 C   0  0  0  0  0  0  0  0  0  0  0  0
   -0.7500  -11.6913    0.0000 C   0  0  0  0  0  0  0  0  0  0  0  0
   -1.5000  -10.3923    0.0000 O   0  0  0  0  0  0  0  0  0  0  0  0
   -0.7500   -9.0933    0.0000 C   0  0  0  0  0  0  0  0  0  0  0  0
   -1.5000   -7.7942    0.0000 O   0  0  0  0  0  0  0  0  0  0  0  0
    0.7500   -6.4952    0.0000 C   0  0  0  0  0  0  0  0  0  0  0  0
   -0.7500   -6.4952    0.0000 C   0  0  0  0  0  0  0  0  0  0  0  0
   -1.5000   -5.1962    0.0000 C   0  0  0  0  0  0  0  0  0  0  0  0
   -0.7500   -3.8971    0.0000 C   0  0  0  0  0  0  0  0  0  0  0  0
   -1.5000   -2.5981    0.0000 O   0  0  0  0  0  0  0  0  0  0  0  0
    0.7500   -3.8971    0.0000 C   0  0  0  0  0  0  0  0  0  0  0  0
    1.5000   -2.5981    0.0000 C   0  0  0  0  0  0  0  0  0  0  0  0
    0.7500   -1.2990    0.0000 N   0  0  0  0  0  4  0  0  0  0  0  0
    1.5000    0.0000    0.0000 C   0  0  0  0  0  0  0  0  0  0  0  0
    0.7500    1.2990    0.0000 C   0  0  0  0  0  0  0  0  0  0  0  0
   -0.7500    1.2990    0.0000 C   0  0  0  0  0  0  0  0  0  0  0  0
   -1.5000    0.0000    0.0000 C   0  0  0  0  0  0  0  0  0  0  0  0
   -0.7500   -1.2990    0.0000 C   0  0  0  0  0  0  0  0  0  0  0  0
   -2.2500    1.2990    0.0000 C   0  0  0  0  0  0  0  0  0  0  0  0
   -3.7500    1.2990    0.0000 C   0  0  0  0  0  0  0  0  0  0  0  0
   -4.5000    2.5981    0.0000 C   0  0  0  0  0  0  0  0  0  0  0  0
   -3.7500    3.8971    0.0000 C   0  0  0  0  0  0  0  0  0  0  0  0
   -2.2500    3.8971    0.0000 C   0  0  0  0  0  0  0  0  0  0  0  0
   -1.5000    5.1962    0.0000 O   0  0  0  0  0  0  0  0  0  0  0  0
   -1.5000    2.5981    0.0000 N   0  0  0  0  0  0  0  0  0  0  0  0
   -0.0000    2.5981    0.0000 C   0  0  0  0  0  0  0  0  0  0  0  0
    1.5000   -5.1962    0.0000 C   0  0  0  0  0  0  0  0  0  0  0  0
    3.0000   -5.1962    0.0000 O   0  0  0  0  0  0  0  0  0  0  0  0
  1  2  2  0
  2  3  1  0
  3  4  2  0
  4  5  1  0
  5  6  2  0
  6  7  1  0
  7  8  2  0
  8  9  1  0
  9 10  2  0
 10 11  1  0
 11 12  2  0
 12 13  1  0
 13 14  1  0
 14 15  2  0
  4 16  1  0
 16 17  2  0
 17 18  1  0
 18 19  2  0
 19 20  1  0
 19 21  1  0
 21 22  1  0
 22 23  1  0
 23 24  1  0
 25 24  1  1
 25 26  1  0
 26 27  1  0
 27 28  1  1
 27 29  1  0
 29 30  2  0
 30 31  1  0
 31 32  2  0
 32 33  1  0
 33 34  2  0
 33 35  1  0
 35 36  1  0
 21 37  2  0
 37 38  1  0
 38  2  1  0
 14  5  1  0
 37 16  1  0
 12  7  1  0
 28 23  1  0
 35 29  1  0
 36 25  1  0
M  CHG  1  23   1
M  END
>  <Compound_ID>  (168) 
C41584796

>  <Active>  (168) 
0

>  <Smiles>  (168) 
O=c1cc(-c2cc3ccccc3oc2=O)c2ccc(O)c(C[NH+]3C[C@H]4C[C@@H](C3)c3cccc(=O)n3C4)c2o1

>  <canonical_smi>  (168) 
O=c1cc(-c2cc3ccccc3oc2=O)c2ccc(O)c(C[NH+]3C[C@@H]4C[C@@H](Cn5c4cccc5=O)C3)c2o1

>  <Set>  (168) 
G2 inactive

>  <Set_type>  (168) 
Test

>  <MW>  (168) 
509.54

>  <HBD>  (168) 
2

>  <HBA>  (168) 
6

>  <NRB>  (168) 
3

>  <NR>  (168) 
7

>  <NAR>  (168) 
5

>  <PSA>  (168) 
107.09

>  <Standard Type>  (168) 
nan

>  <Standard Relation>  (168) 
nan

>  <Standard Units>  (168) 
nan

>  <Standard Value>  (168) 
nan

>  <Assay ChEMBL ID>  (168) 
nan

>  <Assay Description>  (168) 
nan

>  <BAO Label>  (168) 
nan

$$$$

     RDKit          2D

 35 38  0  0  0  0  0  0  0  0999 V2000
    1.5000   -7.7942    0.0000 C   0  0  0  0  0  0  0  0  0  0  0  0
    0.7500   -6.4952    0.0000 C   0  0  0  0  0  0  0  0  0  0  0  0
    1.5000   -5.1962    0.0000 C   0  0  0  0  0  0  0  0  0  0  0  0
    0.7500   -3.8971    0.0000 N   0  0  0  0  0  0  0  0  0  0  0  0
    1.5000   -2.5981    0.0000 C   0  0  0  0  0  0  0  0  0  0  0  0
    3.0000   -2.5981    0.0000 O   0  0  0  0  0  0  0  0  0  0  0  0
    0.7500   -1.2990    0.0000 C   0  0  0  0  0  0  0  0  0  0  0  0
    1.5000    0.0000    0.0000 C   0  0  0  0  0  0  0  0  0  0  0  0
    0.7500    1.2990    0.0000 C   0  0  0  0  0  0  0  0  0  0  0  0
   -0.7500    1.2990    0.0000 N   0  0  0  0  0  4  0  0  0  0  0  0
   -1.5000    2.5981    0.0000 C   0  0  0  0  0  0  0  0  0  0  0  0
   -0.7500    3.8971    0.0000 C   0  0  0  0  0  0  0  0  0  0  0  0
   -1.3601    5.2674    0.0000 N   0  0  0  0  0  0  0  0  0  0  0  0
   -0.2454    6.2711    0.0000 C   0  0  0  0  0  0  0  0  0  0  0  0
   -0.4022    7.7629    0.0000 C   0  0  0  0  0  0  0  0  0  0  0  0
    0.8113    8.6446    0.0000 C   0  0  0  0  0  0  0  0  0  0  0  0
    0.6546   10.1364    0.0000 C   0  0  0  0  0  0  0  0  0  0  0  0
   -0.7158   10.7465    0.0000 C   0  0  0  0  0  0  0  0  0  0  0  0
   -0.8726   12.2383    0.0000 Cl  0  0  0  0  0  0  0  0  0  0  0  0
   -1.9293    9.8648    0.0000 C   0  0  0  0  0  0  0  0  0  0  0  0
   -1.7725    8.3730    0.0000 C   0  0  0  0  0  0  0  0  0  0  0  0
    1.0537    5.5211    0.0000 N   0  0  0  0  0  0  0  0  0  0  0  0
    0.7418    4.0539    0.0000 O   0  0  0  0  0  0  0  0  0  0  0  0
   -1.5000    0.0000    0.0000 C   0  0  0  0  0  0  0  0  0  0  0  0
   -0.7500   -1.2990    0.0000 C   0  0  0  0  0  0  0  0  0  0  0  0
    3.0000   -5.1962    0.0000 C   0  0  0  0  0  0  0  0  0  0  0  0
    3.7500   -6.4952    0.0000 C   0  0  0  0  0  0  0  0  0  0  0  0
    5.2500   -6.4952    0.0000 C   0  0  0  0  0  0  0  0  0  0  0  0
    6.0000   -5.1962    0.0000 C   0  0  0  0  0  0  0  0  0  0  0  0
    7.5000   -5.1962    0.0000 S   0  0  0  0  0  0  0  0  0  0  0  0
    9.0000   -5.1962    0.0000 C   0  0  0  0  0  0  0  0  0  0  0  0
    7.5000   -3.6962    0.0000 O   0  0  0  0  0  0  0  0  0  0  0  0
    7.5000   -6.6962    0.0000 O   0  0  0  0  0  0  0  0  0  0  0  0
    5.2500   -3.8971    0.0000 C   0  0  0  0  0  0  0  0  0  0  0  0
    3.7500   -3.8971    0.0000 C   0  0  0  0  0  0  0  0  0  0  0  0
  1  2  1  0
  3  2  1  1
  3  4  1  0
  4  5  1  0
  5  6  2  0
  5  7  1  0
  7  8  1  0
  8  9  1  0
  9 10  1  0
 10 11  1  0
 11 12  1  0
 12 13  2  0
 13 14  1  0
 14 15  1  0
 15 16  2  0
 16 17  1  0
 17 18  2  0
 18 19  1  0
 18 20  1  0
 20 21  2  0
 14 22  2  0
 22 23  1  0
 10 24  1  0
 24 25  1  0
  3 26  1  0
 26 27  2  0
 27 28  1  0
 28 29  2  0
 29 30  1  0
 30 31  1  0
 30 32  2  0
 30 33  2  0
 29 34  1  0
 34 35  2  0
 25  7  1  0
 35 26  1  0
 23 12  1  0
 21 15  1  0
M  CHG  1  10   1
M  END
>  <Compound_ID>  (169) 
C30987472

>  <Active>  (169) 
0

>  <Smiles>  (169) 
CC[C@@H](NC(=O)C1CC[NH+](Cc2nc(-c3ccc(Cl)cc3)no2)CC1)c1ccc(S(C)(=O)=O)cc1

>  <canonical_smi>  (169) 
CC[C@@H](NC(=O)C1CC[NH+](Cc2nc(-c3ccc(Cl)cc3)no2)CC1)c1ccc(S(C)(=O)=O)cc1

>  <Set>  (169) 
G2 inactive

>  <Set_type>  (169) 
Test

>  <MW>  (169) 
518.06

>  <HBD>  (169) 
2

>  <HBA>  (169) 
6

>  <NRB>  (169) 
8

>  <NR>  (169) 
4

>  <NAR>  (169) 
3

>  <PSA>  (169) 
106.6

>  <Standard Type>  (169) 
nan

>  <Standard Relation>  (169) 
nan

>  <Standard Units>  (169) 
nan

>  <Standard Value>  (169) 
nan

>  <Assay ChEMBL ID>  (169) 
nan

>  <Assay Description>  (169) 
nan

>  <BAO Label>  (169) 
nan

$$$$

     RDKit          2D

 36 40  0  0  0  0  0  0  0  0999 V2000
    9.2484   -4.4818    0.0000 C   0  0  0  0  0  0  0  0  0  0  0  0
    8.0349   -5.3635    0.0000 C   0  0  0  0  0  0  0  0  0  0  0  0
    6.6646   -4.7534    0.0000 O   0  0  0  0  0  0  0  0  0  0  0  0
    5.4511   -5.6350    0.0000 C   0  0  0  0  0  0  0  0  0  0  0  0
    5.6079   -7.1268    0.0000 C   0  0  0  0  0  0  0  0  0  0  0  0
    4.3943   -8.0085    0.0000 C   0  0  0  0  0  0  0  0  0  0  0  0
    3.0240   -7.3984    0.0000 C   0  0  0  0  0  0  0  0  0  0  0  0
    2.8672   -5.9066    0.0000 C   0  0  0  0  0  0  0  0  0  0  0  0
    4.0808   -5.0249    0.0000 C   0  0  0  0  0  0  0  0  0  0  0  0
    3.9240   -3.5332    0.0000 C   0  0  0  0  0  0  0  0  0  0  0  0
    5.1375   -2.6515    0.0000 O   0  0  0  0  0  0  0  0  0  0  0  0
    2.5537   -2.9231    0.0000 N   0  0  0  0  0  0  0  0  0  0  0  0
    1.2546   -3.6731    0.0000 C   0  0  0  0  0  0  0  0  0  0  0  0
    0.1399   -2.6694    0.0000 C   0  0  0  0  0  0  0  0  0  0  0  0
   -1.3273   -2.9812    0.0000 C   0  0  0  0  0  0  0  0  0  0  0  0
   -2.3310   -1.8665    0.0000 O   0  0  0  0  0  0  0  0  0  0  0  0
   -1.7909   -4.4078    0.0000 N   0  0  0  0  0  0  0  0  0  0  0  0
   -3.2581   -4.7197    0.0000 C   0  0  0  0  0  0  0  0  0  0  0  0
   -3.7216   -6.1463    0.0000 C   0  0  0  0  0  0  0  0  0  0  0  0
   -5.1888   -6.4581    0.0000 C   0  0  0  0  0  0  0  0  0  0  0  0
   -6.3035   -5.4544    0.0000 C   0  0  0  0  0  0  0  0  0  0  0  0
   -7.6026   -6.2044    0.0000 N   0  0  0  0  0  0  0  0  0  0  0  0
   -7.2907   -7.6717    0.0000 C   0  0  0  0  0  0  0  0  0  0  0  0
   -8.1724   -8.8852    0.0000 C   0  0  0  0  0  0  0  0  0  0  0  0
   -7.5623  -10.2555    0.0000 C   0  0  0  0  0  0  0  0  0  0  0  0
   -6.0705  -10.4123    0.0000 C   0  0  0  0  0  0  0  0  0  0  0  0
   -5.4604  -11.7826    0.0000 Cl  0  0  0  0  0  0  0  0  0  0  0  0
   -5.1888   -9.1988    0.0000 C   0  0  0  0  0  0  0  0  0  0  0  0
   -5.7989   -7.8284    0.0000 C   0  0  0  0  0  0  0  0  0  0  0  0
    0.7500   -1.2990    0.0000 C   0  0  0  0  0  0  0  0  0  0  0  0
    1.5000    0.0000    0.0000 C   0  0  0  0  0  0  0  0  0  0  0  0
    0.7500    1.2990    0.0000 C   0  0  0  0  0  0  0  0  0  0  0  0
   -0.7500    1.2990    0.0000 N   0  0  0  0  0  4  0  0  0  0  0  0
   -1.5000    0.0000    0.0000 C   0  0  0  0  0  0  0  0  0  0  0  0
   -0.7500   -1.2990    0.0000 C   0  0  0  0  0  0  0  0  0  0  0  0
    2.2418   -1.4558    0.0000 C   0  0  0  0  0  0  0  0  0  0  0  0
  1  2  1  0
  2  3  1  0
  3  4  1  0
  4  5  2  0
  5  6  1  0
  6  7  2  0
  7  8  1  0
  8  9  2  0
  9 10  1  0
 10 11  2  0
 10 12  1  0
 12 13  1  0
 13 14  1  0
 14 15  1  6
 15 16  2  0
 15 17  1  0
 17 18  1  0
 18 19  1  0
 19 20  1  0
 20 21  2  0
 21 22  1  0
 22 23  1  0
 23 24  2  0
 24 25  1  0
 25 26  2  0
 26 27  1  0
 26 28  1  0
 28 29  2  0
 14 30  1  0
 30 31  1  0
 31 32  1  0
 32 33  1  0
 33 34  1  0
 34 35  1  0
 30 36  1  0
  9  4  1  0
 36 12  1  0
 29 20  1  0
 35 30  1  0
 29 23  1  0
M  CHG  1  33   1
M  END
>  <Compound_ID>  (170) 
C39676440

>  <Active>  (170) 
0

>  <Smiles>  (170) 
CCOc1ccccc1C(=O)N1C[C@H](C(=O)NCCc2c[nH]c3ccc(Cl)cc23)C2(CC[NH2+]CC2)C1

>  <canonical_smi>  (170) 
CCOc1ccccc1C(=O)N1C[C@H](C(=O)NCCc2c[nH]c3ccc(Cl)cc23)C2(CC[NH2+]CC2)C1

>  <Set>  (170) 
G2 inactive

>  <Set_type>  (170) 
Test

>  <MW>  (170) 
510.06

>  <HBD>  (170) 
3

>  <HBA>  (170) 
3

>  <NRB>  (170) 
7

>  <NR>  (170) 
5

>  <NAR>  (170) 
3

>  <PSA>  (170) 
91.04

>  <Standard Type>  (170) 
nan

>  <Standard Relation>  (170) 
nan

>  <Standard Units>  (170) 
nan

>  <Standard Value>  (170) 
nan

>  <Assay ChEMBL ID>  (170) 
nan

>  <Assay Description>  (170) 
nan

>  <BAO Label>  (170) 
nan

$$$$

     RDKit          2D

 36 38  0  0  0  0  0  0  0  0999 V2000
   10.9463    0.5841    0.0000 C   0  0  0  0  0  0  0  0  0  0  0  0
    9.5760   -0.0260    0.0000 C   0  0  0  0  0  0  0  0  0  0  0  0
    9.4192   -1.5178    0.0000 C   0  0  0  0  0  0  0  0  0  0  0  0
    8.0489   -2.1279    0.0000 C   0  0  0  0  0  0  0  0  0  0  0  0
    7.8921   -3.6196    0.0000 C   0  0  0  0  0  0  0  0  0  0  0  0
    9.1056   -4.5013    0.0000 C   0  0  0  0  0  0  0  0  0  0  0  0
   10.4760   -3.8912    0.0000 C   0  0  0  0  0  0  0  0  0  0  0  0
    6.5218   -4.2298    0.0000 C   0  0  0  0  0  0  0  0  0  0  0  0
    5.3083   -3.3481    0.0000 N   0  0  0  0  0  0  0  0  0  0  0  0
    3.8817   -3.8116    0.0000 C   0  0  0  0  0  0  0  0  0  0  0  0
    3.4182   -5.2382    0.0000 O   0  0  0  0  0  0  0  0  0  0  0  0
    3.0000   -2.5981    0.0000 C   0  0  0  0  0  0  0  0  0  0  0  0
    1.5000   -2.5981    0.0000 C   0  0  0  0  0  0  0  0  0  0  0  0
    0.7500   -1.2990    0.0000 C   0  0  0  0  0  0  0  0  0  0  0  0
    1.5000    0.0000    0.0000 C   0  0  0  0  0  0  0  0  0  0  0  0
    3.0000    0.0000    0.0000 C   0  0  0  0  0  0  0  0  0  0  0  0
    0.7500    1.2990    0.0000 C   0  0  0  0  0  0  0  0  0  0  0  0
    1.5000    2.5981    0.0000 C   0  0  0  0  0  0  0  0  0  0  0  0
    2.2500    3.8971    0.0000 N   0  0  0  0  0  0  0  0  0  0  0  0
   -0.7500    1.2990    0.0000 C   0  0  0  0  0  0  0  0  0  0  0  0
   -1.5000    2.5981    0.0000 O   0  0  0  0  0  0  0  0  0  0  0  0
   -1.5000    0.0000    0.0000 N   0  0  0  0  0  0  0  0  0  0  0  0
   -3.0000    0.0000    0.0000 C   0  0  0  0  0  0  0  0  0  0  0  0
   -3.7500    1.2990    0.0000 C   0  0  0  0  0  0  0  0  0  0  0  0
   -0.7500   -1.2990    0.0000 C   0  0  0  0  0  0  0  0  0  0  0  0
   -1.5000   -2.5981    0.0000 N   0  0  0  0  0  0  0  0  0  0  0  0
   -3.0000   -2.5981    0.0000 C   0  0  0  0  0  0  0  0  0  0  0  0
   -3.7500   -3.8971    0.0000 C   0  0  0  0  0  0  0  0  0  0  0  0
   -3.0000   -5.1962    0.0000 N   0  0  0  0  0  4  0  0  0  0  0  0
   -3.7500   -6.4952    0.0000 C   0  0  0  0  0  0  0  0  0  0  0  0
   -5.2500   -6.4952    0.0000 C   0  0  0  0  0  0  0  0  0  0  0  0
   -1.5000   -5.1962    0.0000 C   0  0  0  0  0  0  0  0  0  0  0  0
   -0.7500   -3.8971    0.0000 C   0  0  0  0  0  0  0  0  0  0  0  0
    3.8817   -1.3846    0.0000 S   0  0  0  0  0  0  0  0  0  0  0  0
    5.3083   -1.8481    0.0000 C   0  0  0  0  0  0  0  0  0  0  0  0
    6.5218   -0.9664    0.0000 S   0  0  0  0  0  0  0  0  0  0  0  0
  1  2  1  0
  2  3  1  0
  3  4  1  0
  5  4  1  1
  5  6  1  0
  6  7  1  0
  5  8  1  0
  8  9  1  0
  9 10  1  0
 10 11  2  0
 10 12  1  0
 12 13  2  0
 13 14  1  0
 14 15  1  0
 15 16  1  0
 15 17  2  0
 17 18  1  0
 18 19  3  0
 17 20  1  0
 20 21  2  0
 20 22  1  0
 22 23  1  0
 23 24  1  0
 22 25  1  0
 25 26  1  0
 26 27  1  0
 27 28  1  0
 28 29  1  0
 29 30  1  0
 30 31  1  0
 29 32  1  0
 32 33  1  0
 12 34  1  0
 34 35  1  0
 35 36  2  0
 35  9  1  0
 25 14  2  0
 33 26  1  0
M  CHG  1  29   1
M  END
>  <Compound_ID>  (171) 
C33812500

>  <Active>  (171) 
0

>  <Smiles>  (171) 
CCCC[C@@H](CC)CN1C(=O)/C(=C/c2c(C)c(C#N)c(=O)n(CC)c2N2CC[NH+](CC)CC2)SC1=S

>  <canonical_smi>  (171) 
CCCC[C@@H](CC)CN1C(=O)/C(=C/c2c(C)c(C#N)c(=O)n(CC)c2N2CC[NH+](CC)CC2)SC1=S

>  <Set>  (171) 
G2 inactive

>  <Set_type>  (171) 
Test

>  <MW>  (171) 
530.78

>  <HBD>  (171) 
1

>  <HBA>  (171) 
6

>  <NRB>  (171) 
10

>  <NR>  (171) 
3

>  <NAR>  (171) 
1

>  <PSA>  (171) 
73.78

>  <Standard Type>  (171) 
nan

>  <Standard Relation>  (171) 
nan

>  <Standard Units>  (171) 
nan

>  <Standard Value>  (171) 
nan

>  <Assay ChEMBL ID>  (171) 
nan

>  <Assay Description>  (171) 
nan

>  <BAO Label>  (171) 
nan

$$$$

     RDKit          2D

 30 33  0  0  0  0  0  0  0  0999 V2000
    5.7949   -9.0313    0.0000 C   0  0  0  0  0  0  0  0  0  0  0  0
    5.6381   -7.5395    0.0000 C   0  0  0  0  0  0  0  0  0  0  0  0
    4.2677   -6.9294    0.0000 O   0  0  0  0  0  0  0  0  0  0  0  0
    4.1110   -5.4376    0.0000 C   0  0  0  0  0  0  0  0  0  0  0  0
    5.3245   -4.5559    0.0000 O   0  0  0  0  0  0  0  0  0  0  0  0
    2.7406   -4.8275    0.0000 C   0  0  0  0  0  0  0  0  0  0  0  0
    1.5271   -5.7092    0.0000 C   0  0  0  0  0  0  0  0  0  0  0  0
    0.1568   -5.0991    0.0000 C   0  0  0  0  0  0  0  0  0  0  0  0
   -0.0000   -3.6073    0.0000 C   0  0  0  0  0  0  0  0  0  0  0  0
   -1.2135   -2.7256    0.0000 N   0  0  0  0  0  0  0  0  0  0  0  0
   -0.7500   -1.2990    0.0000 C   0  0  0  0  0  0  0  0  0  0  0  0
    0.7500   -1.2990    0.0000 C   0  0  0  0  0  0  0  0  0  0  0  0
    1.2135   -2.7256    0.0000 C   0  0  0  0  0  0  0  0  0  0  0  0
    2.5838   -3.3357    0.0000 C   0  0  0  0  0  0  0  0  0  0  0  0
    1.5000    0.0000    0.0000 C   0  0  0  0  0  0  0  0  0  0  0  0
    0.7500    1.2990    0.0000 C   0  0  0  0  0  0  0  0  0  0  0  0
   -0.7500    1.2990    0.0000 C   0  0  0  0  0  0  0  0  0  0  0  0
   -1.5000    0.0000    0.0000 C   0  0  0  0  0  0  0  0  0  0  0  0
    6.8516   -6.6578    0.0000 C   0  0  0  0  0  0  0  0  0  0  0  0
    6.6948   -5.1660    0.0000 O   0  0  0  0  0  0  0  0  0  0  0  0
    8.2219   -7.2679    0.0000 N   0  0  0  0  0  0  0  0  0  0  0  0
    9.4354   -6.3863    0.0000 C   0  0  0  0  0  0  0  0  0  0  0  0
   10.8058   -6.9964    0.0000 C   0  0  0  0  0  0  0  0  0  0  0  0
   12.0193   -6.1147    0.0000 C   0  0  0  0  0  0  0  0  0  0  0  0
   11.8625   -4.6229    0.0000 C   0  0  0  0  0  0  0  0  0  0  0  0
   13.0760   -3.7412    0.0000 F   0  0  0  0  0  0  0  0  0  0  0  0
   10.4922   -4.0128    0.0000 C   0  0  0  0  0  0  0  0  0  0  0  0
   10.3354   -2.5210    0.0000 F   0  0  0  0  0  0  0  0  0  0  0  0
    9.2786   -4.8945    0.0000 C   0  0  0  0  0  0  0  0  0  0  0  0
    7.9083   -4.2844    0.0000 F   0  0  0  0  0  0  0  0  0  0  0  0
  2  1  1  6
  2  3  1  0
  3  4  1  0
  4  5  2  0
  4  6  1  0
  6  7  2  0
  7  8  1  0
  8  9  2  0
  9 10  1  0
 10 11  1  0
 11 12  2  0
 12 13  1  0
 13 14  2  0
 12 15  1  0
 15 16  1  0
 16 17  1  0
 17 18  1  0
  2 19  1  0
 19 20  2  0
 19 21  1  0
 21 22  1  0
 22 23  2  0
 23 24  1  0
 24 25  2  0
 25 26  1  0
 25 27  1  0
 27 28  1  0
 27 29  2  0
 29 30  1  0
 14  6  1  0
 29 22  1  0
 13  9  1  0
 18 11  1  0
M  END
>  <Compound_ID>  (172) 
C36203540

>  <Active>  (172) 
0

>  <Smiles>  (172) 
C[C@H](OC(=O)c1ccc2[nH]c3c(c2c1)CCCC3)C(=O)Nc1ccc(F)c(F)c1F

>  <canonical_smi>  (172) 
C[C@H](OC(=O)c1ccc2[nH]c3c(c2c1)CCCC3)C(=O)Nc1ccc(F)c(F)c1F

>  <Set>  (172) 
G2 inactive

>  <Set_type>  (172) 
Test

>  <MW>  (172) 
416.4

>  <HBD>  (172) 
2

>  <HBA>  (172) 
3

>  <NRB>  (172) 
4

>  <NR>  (172) 
4

>  <NAR>  (172) 
3

>  <PSA>  (172) 
71.19

>  <Standard Type>  (172) 
nan

>  <Standard Relation>  (172) 
nan

>  <Standard Units>  (172) 
nan

>  <Standard Value>  (172) 
nan

>  <Assay ChEMBL ID>  (172) 
nan

>  <Assay Description>  (172) 
nan

>  <BAO Label>  (172) 
nan

$$$$

     RDKit          2D

 29 32  0  0  0  0  0  0  0  0999 V2000
   -0.9556    7.1449    0.0000 C   0  0  0  0  0  0  0  0  0  0  0  0
   -0.4921    5.7184    0.0000 C   0  0  0  0  0  0  0  0  0  0  0  0
   -1.4958    4.6036    0.0000 C   0  0  0  0  0  0  0  0  0  0  0  0
   -1.0323    3.1771    0.0000 N   0  0  0  0  0  0  0  0  0  0  0  0
    0.3943    2.7135    0.0000 C   0  0  0  0  0  0  0  0  0  0  0  0
    1.6078    3.5952    0.0000 O   0  0  0  0  0  0  0  0  0  0  0  0
    0.3943    1.2135    0.0000 C   0  0  0  0  0  0  0  0  0  0  0  0
    1.2760    0.0000    0.0000 N   0  0  0  0  0  0  0  0  0  0  0  0
    0.3943   -1.2135    0.0000 N   0  0  0  0  0  0  0  0  0  0  0  0
   -1.0323   -0.7500    0.0000 C   0  0  0  0  0  0  0  0  0  0  0  0
   -2.2458   -1.6317    0.0000 C   0  0  0  0  0  0  0  0  0  0  0  0
   -3.6161   -1.0216    0.0000 C   0  0  0  0  0  0  0  0  0  0  0  0
   -4.8297   -1.9033    0.0000 C   0  0  0  0  0  0  0  0  0  0  0  0
   -6.2000   -1.2931    0.0000 Cl  0  0  0  0  0  0  0  0  0  0  0  0
   -4.6729   -3.3950    0.0000 C   0  0  0  0  0  0  0  0  0  0  0  0
   -3.3025   -4.0051    0.0000 C   0  0  0  0  0  0  0  0  0  0  0  0
   -2.0890   -3.1235    0.0000 C   0  0  0  0  0  0  0  0  0  0  0  0
   -0.7187   -3.7336    0.0000 O   0  0  0  0  0  0  0  0  0  0  0  0
   -1.0323    0.7500    0.0000 C   0  0  0  0  0  0  0  0  0  0  0  0
   -1.9140    1.9635    0.0000 C   0  0  0  0  0  0  0  0  0  0  0  0
   -3.4140    1.9635    0.0000 C   0  0  0  0  0  0  0  0  0  0  0  0
   -4.1640    3.2626    0.0000 C   0  0  0  0  0  0  0  0  0  0  0  0
   -5.6640    3.2626    0.0000 C   0  0  0  0  0  0  0  0  0  0  0  0
   -6.4140    1.9635    0.0000 C   0  0  0  0  0  0  0  0  0  0  0  0
   -7.9140    1.9635    0.0000 C   0  0  0  0  0  0  0  0  0  0  0  0
   -8.6640    3.2626    0.0000 C   0  0  0  0  0  0  0  0  0  0  0  0
   -8.6640    0.6645    0.0000 C   0  0  0  0  0  0  0  0  0  0  0  0
   -5.6640    0.6645    0.0000 C   0  0  0  0  0  0  0  0  0  0  0  0
   -4.1640    0.6645    0.0000 C   0  0  0  0  0  0  0  0  0  0  0  0
  1  2  2  0
  2  3  1  0
  3  4  1  0
  4  5  1  0
  5  6  2  0
  5  7  1  0
  7  8  1  0
  8  9  1  0
  9 10  2  0
 10 11  1  0
 11 12  2  0
 12 13  1  0
 13 14  1  0
 13 15  2  0
 15 16  1  0
 16 17  2  0
 17 18  1  0
 10 19  1  0
 19 20  1  0
 20 21  1  1
 21 22  2  0
 22 23  1  0
 23 24  2  0
 24 25  1  0
 25 26  1  0
 25 27  1  0
 24 28  1  0
 28 29  2  0
 20  4  1  0
 29 21  1  0
 19  7  2  0
 17 11  1  0
M  END
>  <Compound_ID>  (173) 
C39898709

>  <Active>  (173) 
0

>  <Smiles>  (173) 
C=CCN1C(=O)c2[nH]nc(-c3cc(Cl)ccc3O)c2[C@H]1c1ccc(C(C)C)cc1

>  <canonical_smi>  (173) 
C=CCN1C(=O)c2[nH]nc(-c3cc(Cl)ccc3O)c2[C@H]1c1ccc(C(C)C)cc1

>  <Set>  (173) 
G2 inactive

>  <Set_type>  (173) 
Test

>  <MW>  (173) 
407.9

>  <HBD>  (173) 
2

>  <HBA>  (173) 
3

>  <NRB>  (173) 
5

>  <NR>  (173) 
4

>  <NAR>  (173) 
3

>  <PSA>  (173) 
69.22

>  <Standard Type>  (173) 
nan

>  <Standard Relation>  (173) 
nan

>  <Standard Units>  (173) 
nan

>  <Standard Value>  (173) 
nan

>  <Assay ChEMBL ID>  (173) 
nan

>  <Assay Description>  (173) 
nan

>  <BAO Label>  (173) 
nan

$$$$

     RDKit          2D

 27 29  0  0  0  0  0  0  0  0999 V2000
    1.5000   -5.1962    0.0000 O   0  0  0  0  0  0  0  0  0  0  0  0
    0.7500   -3.8971    0.0000 C   0  0  0  0  0  0  0  0  0  0  0  0
    1.5000   -2.5981    0.0000 N   0  0  0  0  0  4  0  0  0  0  0  0
    0.7500   -1.2990    0.0000 C   0  0  0  0  0  0  0  0  0  0  0  0
    1.5000    0.0000    0.0000 C   0  0  0  0  0  0  0  0  0  0  0  0
    0.7500    1.2990    0.0000 C   0  0  0  0  0  0  0  0  0  0  0  0
   -0.7500    1.2990    0.0000 C   0  0  0  0  0  0  0  0  0  0  0  0
   -1.5000    2.5981    0.0000 S   0  0  0  0  0  0  0  0  0  0  0  0
   -0.2010    3.3481    0.0000 O   0  0  0  0  0  0  0  0  0  0  0  0
   -2.7990    1.8481    0.0000 O   0  0  0  0  0  0  0  0  0  0  0  0
   -2.2500    3.8971    0.0000 N   0  0  0  0  0  2  0  0  0  0  0  0
   -3.7500    3.8971    0.0000 C   0  0  0  0  0  0  0  0  0  0  0  0
   -4.5000    5.1962    0.0000 C   0  0  0  0  0  0  0  0  0  0  0  0
   -6.0000    5.1962    0.0000 C   0  0  0  0  0  0  0  0  0  0  0  0
   -6.7500    3.8971    0.0000 C   0  0  0  0  0  0  0  0  0  0  0  0
   -8.2500    3.8971    0.0000 Br  0  0  0  0  0  0  0  0  0  0  0  0
   -6.0000    2.5981    0.0000 C   0  0  0  0  0  0  0  0  0  0  0  0
   -6.7500    1.2990    0.0000 C   0  0  0  0  0  0  0  0  0  0  0  0
   -7.5000   -0.0000    0.0000 F   0  0  0  0  0  0  0  0  0  0  0  0
   -5.4510    0.5490    0.0000 F   0  0  0  0  0  0  0  0  0  0  0  0
   -8.0490    2.0490    0.0000 F   0  0  0  0  0  0  0  0  0  0  0  0
   -4.5000    2.5981    0.0000 C   0  0  0  0  0  0  0  0  0  0  0  0
   -1.5000    0.0000    0.0000 C   0  0  0  0  0  0  0  0  0  0  0  0
   -0.7500   -1.2990    0.0000 C   0  0  0  0  0  0  0  0  0  0  0  0
   -1.5000   -2.5981    0.0000 N   0  0  0  0  0  4  0  0  0  0  0  0
   -0.7500   -3.8971    0.0000 C   0  0  0  0  0  0  0  0  0  0  0  0
   -1.5000   -5.1962    0.0000 O   0  0  0  0  0  0  0  0  0  0  0  0
  1  2  2  0
  2  3  1  0
  3  4  2  0
  4  5  1  0
  5  6  2  0
  6  7  1  0
  7  8  1  0
  8  9  2  0
  8 10  2  0
  8 11  1  0
 11 12  1  0
 12 13  2  0
 13 14  1  0
 14 15  2  0
 15 16  1  0
 15 17  1  0
 17 18  1  0
 18 19  1  0
 18 20  1  0
 18 21  1  0
 17 22  2  0
  7 23  2  0
 23 24  1  0
 24 25  2  0
 25 26  1  0
 26 27  2  0
 26  2  1  0
 24  4  1  0
 22 12  1  0
M  CHG  3   3   1  11  -1  25   1
M  END
>  <Compound_ID>  (174) 
C39789787

>  <Active>  (174) 
0

>  <Smiles>  (174) 
O=C1[NH+]=c2ccc(S(=O)(=O)[N-]c3ccc(Br)c(C(F)(F)F)c3)cc2=[NH+]C1=O

>  <canonical_smi>  (174) 
O=C1[NH+]=c2ccc(S(=O)(=O)[N-]c3ccc(Br)c(C(F)(F)F)c3)cc2=[NH+]C1=O

>  <Set>  (174) 
G2 inactive

>  <Set_type>  (174) 
Test

>  <MW>  (174) 
463.21

>  <HBD>  (174) 
2

>  <HBA>  (174) 
4

>  <NRB>  (174) 
3

>  <NR>  (174) 
3

>  <NAR>  (174) 
2

>  <PSA>  (174) 
110.32

>  <Standard Type>  (174) 
nan

>  <Standard Relation>  (174) 
nan

>  <Standard Units>  (174) 
nan

>  <Standard Value>  (174) 
nan

>  <Assay ChEMBL ID>  (174) 
nan

>  <Assay Description>  (174) 
nan

>  <BAO Label>  (174) 
nan

$$$$

     RDKit          2D

 25 27  0  0  0  0  0  0  0  0999 V2000
    3.4182   -5.2382    0.0000 O   0  0  0  0  0  0  0  0  0  0  0  0
    3.8817   -3.8116    0.0000 C   0  0  0  0  0  0  0  0  0  0  0  0
    5.3083   -3.3481    0.0000 N   0  0  0  0  0  0  0  0  0  0  0  0
    5.3083   -1.8481    0.0000 C   0  0  0  0  0  0  0  0  0  0  0  0
    6.5218   -0.9664    0.0000 S   0  0  0  0  0  0  0  0  0  0  0  0
    3.8817   -1.3846    0.0000 S   0  0  0  0  0  0  0  0  0  0  0  0
    3.0000   -2.5981    0.0000 C   0  0  0  0  0  0  0  0  0  0  0  0
    1.5000   -2.5981    0.0000 C   0  0  0  0  0  0  0  0  0  0  0  0
    0.7500   -1.2990    0.0000 C   0  0  0  0  0  0  0  0  0  0  0  0
    1.5000    0.0000    0.0000 C   0  0  0  0  0  0  0  0  0  0  0  0
    0.7500    1.2990    0.0000 C   0  0  0  0  0  0  0  0  0  0  0  0
   -0.7500    1.2990    0.0000 C   0  0  0  0  0  0  0  0  0  0  0  0
   -1.5000    0.0000    0.0000 C   0  0  0  0  0  0  0  0  0  0  0  0
   -3.0000    0.0000    0.0000 O   0  0  0  0  0  0  0  0  0  0  0  0
   -3.7500    1.2990    0.0000 C   0  0  0  0  0  0  0  0  0  0  0  0
   -5.2500    1.2990    0.0000 C   0  0  0  0  0  0  0  0  0  0  0  0
   -6.0000    2.5981    0.0000 O   0  0  0  0  0  0  0  0  0  0  0  0
   -7.5000    2.5981    0.0000 C   0  0  0  0  0  0  0  0  0  0  0  0
   -8.2500    3.8971    0.0000 C   0  0  0  0  0  0  0  0  0  0  0  0
   -9.7500    3.8971    0.0000 C   0  0  0  0  0  0  0  0  0  0  0  0
  -10.5000    2.5981    0.0000 C   0  0  0  0  0  0  0  0  0  0  0  0
  -12.0000    2.5981    0.0000 Br  0  0  0  0  0  0  0  0  0  0  0  0
   -9.7500    1.2990    0.0000 C   0  0  0  0  0  0  0  0  0  0  0  0
   -8.2500    1.2990    0.0000 C   0  0  0  0  0  0  0  0  0  0  0  0
   -0.7500   -1.2990    0.0000 C   0  0  0  0  0  0  0  0  0  0  0  0
  1  2  2  0
  2  3  1  0
  3  4  1  0
  4  5  2  0
  4  6  1  0
  6  7  1  0
  7  8  2  0
  8  9  1  0
  9 10  2  0
 10 11  1  0
 11 12  2  0
 12 13  1  0
 13 14  1  0
 14 15  1  0
 15 16  1  0
 16 17  1  0
 17 18  1  0
 18 19  2  0
 19 20  1  0
 20 21  2  0
 21 22  1  0
 21 23  1  0
 23 24  2  0
 13 25  2  0
  7  2  1  0
 25  9  1  0
 24 18  1  0
M  END
>  <Compound_ID>  (175) 
C02993595

>  <Active>  (175) 
0

>  <Smiles>  (175) 
O=C1NC(=S)S/C1=C\c1cccc(OCCOc2ccc(Br)cc2)c1

>  <canonical_smi>  (175) 
O=C1NC(=S)S/C1=C\c1cccc(OCCOc2ccc(Br)cc2)c1

>  <Set>  (175) 
G2 inactive

>  <Set_type>  (175) 
Test

>  <MW>  (175) 
436.35

>  <HBD>  (175) 
1

>  <HBA>  (175) 
5

>  <NRB>  (175) 
6

>  <NR>  (175) 
3

>  <NAR>  (175) 
2

>  <PSA>  (175) 
47.56

>  <Standard Type>  (175) 
nan

>  <Standard Relation>  (175) 
nan

>  <Standard Units>  (175) 
nan

>  <Standard Value>  (175) 
nan

>  <Assay ChEMBL ID>  (175) 
nan

>  <Assay Description>  (175) 
nan

>  <BAO Label>  (175) 
nan

$$$$

     RDKit          2D

 27 30  0  0  0  0  0  0  0  0999 V2000
   -2.4510   -0.5490    0.0000 O   0  0  0  0  0  0  0  0  0  0  0  0
   -3.7500   -1.2990    0.0000 S   0  0  0  0  0  0  0  0  0  0  0  0
   -5.0490   -2.0490    0.0000 O   0  0  0  0  0  0  0  0  0  0  0  0
   -4.5000    0.0000    0.0000 C   0  0  0  0  0  0  0  0  0  0  0  0
   -3.7500    1.2990    0.0000 C   0  0  0  0  0  0  0  0  0  0  0  0
   -4.5000    2.5981    0.0000 C   0  0  0  0  0  0  0  0  0  0  0  0
   -6.0000    2.5981    0.0000 C   0  0  0  0  0  0  0  0  0  0  0  0
   -6.7500    1.2990    0.0000 C   0  0  0  0  0  0  0  0  0  0  0  0
   -6.0000    0.0000    0.0000 C   0  0  0  0  0  0  0  0  0  0  0  0
   -6.7500   -1.2990    0.0000 Cl  0  0  0  0  0  0  0  0  0  0  0  0
   -3.0000   -2.5981    0.0000 N   0  0  0  0  0  0  0  0  0  0  0  0
   -3.7500   -3.8971    0.0000 C   0  0  0  0  0  0  0  0  0  0  0  0
   -5.2500   -3.8971    0.0000 N   0  0  0  0  0  0  0  0  0  0  0  0
   -6.0000   -5.1962    0.0000 C   0  0  0  0  0  0  0  0  0  0  0  0
   -5.2500   -6.4952    0.0000 C   0  0  0  0  0  0  0  0  0  0  0  0
   -3.7500   -6.4952    0.0000 C   0  0  0  0  0  0  0  0  0  0  0  0
   -3.0000   -5.1962    0.0000 S   0  0  0  0  0  0  0  0  0  0  0  0
   -1.5000   -2.5981    0.0000 C   0  0  0  0  0  0  0  0  0  0  0  0
   -0.7500   -3.8971    0.0000 C   0  0  0  0  0  0  0  0  0  0  0  0
    0.7500   -3.8971    0.0000 C   0  0  0  0  0  0  0  0  0  0  0  0
    1.5000   -2.5981    0.0000 C   0  0  0  0  0  0  0  0  0  0  0  0
    0.7500   -1.2990    0.0000 C   0  0  0  0  0  0  0  0  0  0  0  0
    1.5000    0.0000    0.0000 C   0  0  0  0  0  0  0  0  0  0  0  0
    0.7500    1.2990    0.0000 C   0  0  0  0  0  0  0  0  0  0  0  0
   -0.7500    1.2990    0.0000 C   0  0  0  0  0  0  0  0  0  0  0  0
   -1.5000    0.0000    0.0000 C   0  0  0  0  0  0  0  0  0  0  0  0
   -0.7500   -1.2990    0.0000 C   0  0  0  0  0  0  0  0  0  0  0  0
  1  2  2  0
  2  3  2  0
  2  4  1  0
  4  5  2  0
  5  6  1  0
  6  7  2  0
  7  8  1  0
  8  9  2  0
  9 10  1  0
  2 11  1  0
 11 12  1  0
 12 13  2  0
 13 14  1  0
 14 15  1  0
 15 16  1  0
 16 17  1  0
 11 18  1  0
 18 19  2  0
 19 20  1  0
 20 21  2  0
 21 22  1  0
 22 23  2  0
 23 24  1  0
 24 25  2  0
 25 26  1  0
 26 27  2  0
  9  4  1  0
 17 12  1  0
 27 18  1  0
 27 22  1  0
M  END
>  <Compound_ID>  (176) 
C01327943

>  <Active>  (176) 
0

>  <Smiles>  (176) 
O=S(=O)(c1ccccc1Cl)N(C1=NCCCS1)c1cccc2ccccc12

>  <canonical_smi>  (176) 
O=S(=O)(c1ccccc1Cl)N(C1=NCCCS1)c1cccc2ccccc12

>  <Set>  (176) 
G2 inactive

>  <Set_type>  (176) 
Test

>  <MW>  (176) 
416.96

>  <HBD>  (176) 
0

>  <HBA>  (176) 
3

>  <NRB>  (176) 
3

>  <NR>  (176) 
4

>  <NAR>  (176) 
3

>  <PSA>  (176) 
49.74

>  <Standard Type>  (176) 
nan

>  <Standard Relation>  (176) 
nan

>  <Standard Units>  (176) 
nan

>  <Standard Value>  (176) 
nan

>  <Assay ChEMBL ID>  (176) 
nan

>  <Assay Description>  (176) 
nan

>  <BAO Label>  (176) 
nan

$$$$

     RDKit          2D

 25 28  0  0  0  0  0  0  0  0999 V2000
   -2.4510   -7.2452    0.0000 O   0  0  0  0  0  0  0  0  0  0  0  0
   -3.7500   -6.4952    0.0000 S   0  0  0  0  0  0  0  0  0  0  0  0
   -5.0490   -5.7452    0.0000 O   0  0  0  0  0  0  0  0  0  0  0  0
   -3.0000   -5.1962    0.0000 N   0  0  0  0  0  0  0  0  0  0  0  0
   -1.5000   -5.1962    0.0000 C   0  0  0  0  0  0  0  0  0  0  0  0
   -0.7500   -3.8971    0.0000 C   0  0  0  0  0  0  0  0  0  0  0  0
    0.7500   -3.8971    0.0000 C   0  0  0  0  0  0  0  0  0  0  0  0
    1.5000   -2.5981    0.0000 O   0  0  0  0  0  0  0  0  0  0  0  0
    0.7500   -1.2990    0.0000 C   0  0  0  0  0  0  0  0  0  0  0  0
    1.5000    0.0000    0.0000 C   0  0  0  0  0  0  0  0  0  0  0  0
    0.7500    1.2990    0.0000 C   0  0  0  0  0  0  0  0  0  0  0  0
   -0.7500    1.2990    0.0000 C   0  0  0  0  0  0  0  0  0  0  0  0
   -1.5000    0.0000    0.0000 C   0  0  0  0  0  0  0  0  0  0  0  0
   -0.7500   -1.2990    0.0000 C   0  0  0  0  0  0  0  0  0  0  0  0
   -1.5000   -2.5981    0.0000 C   0  0  0  0  0  0  0  0  0  0  0  0
   -4.5000   -7.7942    0.0000 C   0  0  0  0  0  0  0  0  0  0  0  0
   -3.7500   -9.0933    0.0000 C   0  0  0  0  0  0  0  0  0  0  0  0
   -4.5000  -10.3923    0.0000 C   0  0  0  0  0  0  0  0  0  0  0  0
   -6.0000  -10.3923    0.0000 C   0  0  0  0  0  0  0  0  0  0  0  0
   -6.7500  -11.6913    0.0000 C   0  0  0  0  0  0  0  0  0  0  0  0
   -8.2500  -11.6913    0.0000 C   0  0  0  0  0  0  0  0  0  0  0  0
   -9.0000  -10.3923    0.0000 C   0  0  0  0  0  0  0  0  0  0  0  0
   -8.2500   -9.0933    0.0000 C   0  0  0  0  0  0  0  0  0  0  0  0
   -6.7500   -9.0933    0.0000 C   0  0  0  0  0  0  0  0  0  0  0  0
   -6.0000   -7.7942    0.0000 C   0  0  0  0  0  0  0  0  0  0  0  0
  1  2  2  0
  2  3  2  0
  2  4  1  0
  4  5  1  0
  6  5  1  1
  6  7  1  0
  7  8  1  0
  8  9  1  0
  9 10  2  0
 10 11  1  0
 11 12  2  0
 12 13  1  0
 13 14  2  0
 14 15  1  0
  2 16  1  0
 16 17  2  0
 17 18  1  0
 18 19  2  0
 19 20  1  0
 20 21  2  0
 21 22  1  0
 22 23  2  0
 23 24  1  0
 24 25  2  0
 15  6  1  0
 25 16  1  0
 14  9  1  0
 24 19  1  0
M  END
>  <Compound_ID>  (177) 
C52537003

>  <Active>  (177) 
0

>  <Smiles>  (177) 
O=S(=O)(NC[C@@H]1COc2ccccc2C1)c1ccc2ccccc2c1

>  <canonical_smi>  (177) 
O=S(=O)(NC[C@@H]1COc2ccccc2C1)c1ccc2ccccc2c1

>  <Set>  (177) 
G2 inactive

>  <Set_type>  (177) 
Test

>  <MW>  (177) 
353.44

>  <HBD>  (177) 
1

>  <HBA>  (177) 
3

>  <NRB>  (177) 
4

>  <NR>  (177) 
4

>  <NAR>  (177) 
3

>  <PSA>  (177) 
55.4

>  <Standard Type>  (177) 
nan

>  <Standard Relation>  (177) 
nan

>  <Standard Units>  (177) 
nan

>  <Standard Value>  (177) 
nan

>  <Assay ChEMBL ID>  (177) 
nan

>  <Assay Description>  (177) 
nan

>  <BAO Label>  (177) 
nan

$$$$

     RDKit          2D

 35 39  0  0  0  0  0  0  0  0999 V2000
    4.5000   -7.7942    0.0000 C   0  0  0  0  0  0  0  0  0  0  0  0
    3.0000   -7.7942    0.0000 C   0  0  0  0  0  0  0  0  0  0  0  0
    2.2500   -9.0933    0.0000 C   0  0  0  0  0  0  0  0  0  0  0  0
    3.0000  -10.3923    0.0000 C   0  0  0  0  0  0  0  0  0  0  0  0
    2.2500  -11.6913    0.0000 C   0  0  0  0  0  0  0  0  0  0  0  0
    0.7500  -11.6913    0.0000 O   0  0  0  0  0  0  0  0  0  0  0  0
    3.0000  -12.9904    0.0000 N   0  0  0  0  0  0  0  0  0  0  0  0
    2.2500  -14.2894    0.0000 C   0  0  0  0  0  0  0  0  0  0  0  0
    3.0000  -15.5885    0.0000 C   0  0  0  0  0  0  0  0  0  0  0  0
    2.2500  -16.8875    0.0000 C   0  0  0  0  0  0  0  0  0  0  0  0
    3.0000  -18.1865    0.0000 C   0  0  0  0  0  0  0  0  0  0  0  0
    4.5000  -18.1865    0.0000 C   0  0  0  0  0  0  0  0  0  0  0  0
    5.2500  -19.4856    0.0000 C   0  0  0  0  0  0  0  0  0  0  0  0
    6.7500  -19.4856    0.0000 O   0  0  0  0  0  0  0  0  0  0  0  0
    4.5000  -20.7846    0.0000 O   0  0  0  0  0  1  0  0  0  0  0  0
    5.2500  -16.8875    0.0000 C   0  0  0  0  0  0  0  0  0  0  0  0
    4.5000  -15.5885    0.0000 C   0  0  0  0  0  0  0  0  0  0  0  0
    0.7500   -9.0933    0.0000 C   0  0  0  0  0  0  0  0  0  0  0  0
    0.0000  -10.3923    0.0000 O   0  0  0  0  0  0  0  0  0  0  0  0
   -0.0000   -7.7942    0.0000 O   0  0  0  0  0  0  0  0  0  0  0  0
    0.7500   -6.4952    0.0000 C   0  0  0  0  0  0  0  0  0  0  0  0
   -0.0000   -5.1962    0.0000 C   0  0  0  0  0  0  0  0  0  0  0  0
    0.7500   -3.8971    0.0000 C   0  0  0  0  0  0  0  0  0  0  0  0
    2.2500   -3.8971    0.0000 C   0  0  0  0  0  0  0  0  0  0  0  0
    3.0000   -5.1962    0.0000 C   0  0  0  0  0  0  0  0  0  0  0  0
    2.2500   -6.4952    0.0000 C   0  0  0  0  0  0  0  0  0  0  0  0
    3.0000   -2.5981    0.0000 C   0  0  0  0  0  0  0  0  0  0  0  0
    2.2500   -1.2990    0.0000 C   0  0  0  0  0  0  0  0  0  0  0  0
    0.7500   -1.2990    0.0000 C   0  0  0  0  0  0  0  0  0  0  0  0
    1.5000    0.0000    0.0000 C   0  0  0  0  0  0  0  0  0  0  0  0
    0.7500    1.2990    0.0000 C   0  0  0  0  0  0  0  0  0  0  0  0
   -0.7500    1.2990    0.0000 C   0  0  0  0  0  0  0  0  0  0  0  0
   -1.5000    0.0000    0.0000 C   0  0  0  0  0  0  0  0  0  0  0  0
   -0.7500   -1.2990    0.0000 C   0  0  0  0  0  0  0  0  0  0  0  0
   -0.0000   -2.5981    0.0000 O   0  0  0  0  0  0  0  0  0  0  0  0
  1  2  1  0
  2  3  2  0
  3  4  1  0
  4  5  1  0
  5  6  2  0
  5  7  1  0
  7  8  1  0
  8  9  1  0
  9 10  1  0
 10 11  1  0
 11 12  1  0
 12 13  1  0
 13 14  2  0
 13 15  1  0
 12 16  1  0
 16 17  1  0
  3 18  1  0
 18 19  2  0
 18 20  1  0
 20 21  1  0
 21 22  2  0
 22 23  1  0
 23 24  2  0
 24 25  1  0
 25 26  2  0
 24 27  1  0
 27 28  1  0
 28 29  1  0
 29 30  1  0
 30 31  1  0
 31 32  1  0
 32 33  1  0
 33 34  1  0
 29 35  1  0
 26  2  1  0
 34 29  1  0
 17  9  1  0
 26 21  1  0
 35 23  1  0
M  CHG  1  15  -1
M  END
>  <Compound_ID>  (178) 
C08876985

>  <Active>  (178) 
0

>  <Smiles>  (178) 
Cc1c(CC(=O)NCC2CCC(C(=O)[O-])CC2)c(=O)oc2cc3c(cc12)CCC1(CCCCC1)O3

>  <canonical_smi>  (178) 
Cc1c(CC(=O)NCC2CCC(C(=O)[O-])CC2)c(=O)oc2cc3c(cc12)CCC1(CCCCC1)O3

>  <Set>  (178) 
G2 inactive

>  <Set_type>  (178) 
Test

>  <MW>  (178) 
480.58

>  <HBD>  (178) 
1

>  <HBA>  (178) 
6

>  <NRB>  (178) 
5

>  <NR>  (178) 
5

>  <NAR>  (178) 
2

>  <PSA>  (178) 
108.67

>  <Standard Type>  (178) 
nan

>  <Standard Relation>  (178) 
nan

>  <Standard Units>  (178) 
nan

>  <Standard Value>  (178) 
nan

>  <Assay ChEMBL ID>  (178) 
nan

>  <Assay Description>  (178) 
nan

>  <BAO Label>  (178) 
nan

$$$$

     RDKit          2D

 29 32  0  0  0  0  0  0  0  0999 V2000
    3.8712    5.0750    0.0000 C   0  0  0  0  0  0  0  0  0  0  0  0
    2.4446    4.6115    0.0000 C   0  0  0  0  0  0  0  0  0  0  0  0
    1.3299    5.6152    0.0000 C   0  0  0  0  0  0  0  0  0  0  0  0
   -0.0967    5.1517    0.0000 N   0  0  0  0  0  0  0  0  0  0  0  0
   -0.4086    3.6844    0.0000 C   0  0  0  0  0  0  0  0  0  0  0  0
   -1.8351    3.2209    0.0000 C   0  0  0  0  0  0  0  0  0  0  0  0
   -2.1470    1.7537    0.0000 C   0  0  0  0  0  0  0  0  0  0  0  0
   -1.0323    0.7500    0.0000 C   0  0  0  0  0  0  0  0  0  0  0  0
    0.3943    1.2135    0.0000 C   0  0  0  0  0  0  0  0  0  0  0  0
    0.7062    2.6807    0.0000 C   0  0  0  0  0  0  0  0  0  0  0  0
    1.2760    0.0000    0.0000 C   0  0  0  0  0  0  0  0  0  0  0  0
    0.3943   -1.2135    0.0000 C   0  0  0  0  0  0  0  0  0  0  0  0
   -1.0323   -0.7500    0.0000 C   0  0  0  0  0  0  0  0  0  0  0  0
    1.6418    7.0824    0.0000 C   0  0  0  0  0  0  0  0  0  0  0  0
    0.5271    8.0861    0.0000 C   0  0  0  0  0  0  0  0  0  0  0  0
   -0.8995    7.6226    0.0000 O   0  0  0  0  0  0  0  0  0  0  0  0
    0.8389    9.5533    0.0000 N   0  0  0  0  0  0  0  0  0  0  0  0
    2.2655   10.0169    0.0000 C   0  0  0  0  0  0  0  0  0  0  0  0
    2.5774   11.4841    0.0000 O   0  0  0  0  0  0  0  0  0  0  0  0
    3.3802    9.0132    0.0000 N   0  0  0  0  0  0  0  0  0  0  0  0
    4.8068    9.4767    0.0000 C   0  0  0  0  0  0  0  0  0  0  0  0
    5.9215    8.4730    0.0000 C   0  0  0  0  0  0  0  0  0  0  0  0
    7.3481    8.9365    0.0000 C   0  0  0  0  0  0  0  0  0  0  0  0
    7.6600   10.4037    0.0000 C   0  0  0  0  0  0  0  0  0  0  0  0
    9.0866   10.8673    0.0000 C   0  0  0  0  0  0  0  0  0  0  0  0
    6.5453   11.4074    0.0000 C   0  0  0  0  0  0  0  0  0  0  0  0
    5.1187   10.9439    0.0000 C   0  0  0  0  0  0  0  0  0  0  0  0
    3.0684    7.5459    0.0000 C   0  0  0  0  0  0  0  0  0  0  0  0
    4.1831    6.5422    0.0000 O   0  0  0  0  0  0  0  0  0  0  0  0
  1  2  1  0
  2  3  1  0
  3  4  1  0
  4  5  1  0
  5  6  2  0
  6  7  1  0
  7  8  2  0
  8  9  1  0
  9 10  2  0
  9 11  1  0
 11 12  1  0
 12 13  1  0
  3 14  2  0
 14 15  1  0
 15 16  2  0
 15 17  1  0
 17 18  1  0
 18 19  2  0
 18 20  1  0
 20 21  1  0
 21 22  2  0
 22 23  1  0
 23 24  2  0
 24 25  1  0
 24 26  1  0
 26 27  2  0
 20 28  1  0
 28 29  2  0
 10  5  1  0
 28 14  1  0
 13  8  1  0
 27 21  1  0
M  END
>  <Compound_ID>  (179) 
C09089630

>  <Active>  (179) 
0

>  <Smiles>  (179) 
CC/C(Nc1ccc2c(c1)CCC2)=C1/C(=O)NC(=O)N(c2ccc(C)cc2)C1=O

>  <canonical_smi>  (179) 
CC/C(Nc1ccc2c(c1)CCC2)=C1/C(=O)NC(=O)N(c2ccc(C)cc2)C1=O

>  <Set>  (179) 
G2 inactive

>  <Set_type>  (179) 
Test

>  <MW>  (179) 
389.46

>  <HBD>  (179) 
2

>  <HBA>  (179) 
4

>  <NRB>  (179) 
4

>  <NR>  (179) 
4

>  <NAR>  (179) 
2

>  <PSA>  (179) 
78.51

>  <Standard Type>  (179) 
nan

>  <Standard Relation>  (179) 
nan

>  <Standard Units>  (179) 
nan

>  <Standard Value>  (179) 
nan

>  <Assay ChEMBL ID>  (179) 
nan

>  <Assay Description>  (179) 
nan

>  <BAO Label>  (179) 
nan

$$$$

     RDKit          2D

 22 24  0  0  0  0  0  0  0  0999 V2000
    3.7500   -1.2990    0.0000 C   0  0  0  0  0  0  0  0  0  0  0  0
    3.0000    0.0000    0.0000 C   0  0  0  0  0  0  0  0  0  0  0  0
    1.5000    0.0000    0.0000 C   0  0  0  0  0  0  0  0  0  0  0  0
    0.7500   -1.2990    0.0000 C   0  0  0  0  0  0  0  0  0  0  0  0
   -0.7500   -1.2990    0.0000 C   0  0  0  0  0  0  0  0  0  0  0  0
   -1.5000   -2.5981    0.0000 C   0  0  0  0  0  0  0  0  0  0  0  0
   -2.9918   -2.7549    0.0000 N   0  0  0  0  0  0  0  0  0  0  0  0
   -3.3037   -4.2221    0.0000 N   0  0  0  0  0  0  0  0  0  0  0  0
   -2.0046   -4.9721    0.0000 C   0  0  0  0  0  0  0  0  0  0  0  0
   -0.8899   -3.9684    0.0000 C   0  0  0  0  0  0  0  0  0  0  0  0
    0.5773   -4.2803    0.0000 C   0  0  0  0  0  0  0  0  0  0  0  0
    1.1874   -5.6506    0.0000 N   0  0  0  0  0  0  0  0  0  0  0  0
    2.6792   -5.4938    0.0000 C   0  0  0  0  0  0  0  0  0  0  0  0
    3.6829   -6.6085    0.0000 C   0  0  0  0  0  0  0  0  0  0  0  0
    2.9911   -4.0266    0.0000 C   0  0  0  0  0  0  0  0  0  0  0  0
    1.6920   -3.2766    0.0000 S   0  0  0  0  0  0  0  0  0  0  0  0
   -1.5000    0.0000    0.0000 C   0  0  0  0  0  0  0  0  0  0  0  0
   -3.0000    0.0000    0.0000 O   0  0  0  0  0  0  0  0  0  0  0  0
   -0.7500    1.2990    0.0000 C   0  0  0  0  0  0  0  0  0  0  0  0
    0.7500    1.2990    0.0000 C   0  0  0  0  0  0  0  0  0  0  0  0
    1.5000    2.5981    0.0000 O   0  0  0  0  0  0  0  0  0  0  0  0
    0.7500    3.8971    0.0000 C   0  0  0  0  0  0  0  0  0  0  0  0
  1  2  1  0
  2  3  1  0
  3  4  2  0
  4  5  1  0
  5  6  1  0
  6  7  2  0
  7  8  1  0
  8  9  2  0
  9 10  1  0
 10 11  1  6
 11 12  2  0
 12 13  1  0
 13 14  1  0
 13 15  2  0
 15 16  1  0
  5 17  2  0
 17 18  1  0
 17 19  1  0
 19 20  2  0
 20 21  1  0
 21 22  1  0
 20  3  1  0
 10  6  1  0
 16 11  1  0
M  END
>  <Compound_ID>  (180) 
C09350001

>  <Active>  (180) 
0

>  <Smiles>  (180) 
CCc1cc(C2=NN=C[C@H]2c2nc(C)cs2)c(O)cc1OC

>  <canonical_smi>  (180) 
CCc1cc(C2=NN=C[C@H]2c2nc(C)cs2)c(O)cc1OC

>  <Set>  (180) 
G2 inactive

>  <Set_type>  (180) 
Test

>  <MW>  (180) 
315.4

>  <HBD>  (180) 
1

>  <HBA>  (180) 
3

>  <NRB>  (180) 
4

>  <NR>  (180) 
3

>  <NAR>  (180) 
2

>  <PSA>  (180) 
67.07

>  <Standard Type>  (180) 
nan

>  <Standard Relation>  (180) 
nan

>  <Standard Units>  (180) 
nan

>  <Standard Value>  (180) 
nan

>  <Assay ChEMBL ID>  (180) 
nan

>  <Assay Description>  (180) 
nan

>  <BAO Label>  (180) 
nan

$$$$

     RDKit          2D

 22 24  0  0  0  0  0  0  0  0999 V2000
    2.5981   -8.1073    0.0000 C   0  0  0  0  0  0  0  0  0  0  0  0
    1.2990   -7.3573    0.0000 O   0  0  0  0  0  0  0  0  0  0  0  0
   -0.0000   -8.1073    0.0000 C   0  0  0  0  0  0  0  0  0  0  0  0
   -0.0000   -9.6073    0.0000 C   0  0  0  0  0  0  0  0  0  0  0  0
   -1.2990  -10.3573    0.0000 C   0  0  0  0  0  0  0  0  0  0  0  0
   -2.5981   -9.6073    0.0000 C   0  0  0  0  0  0  0  0  0  0  0  0
   -2.5981   -8.1073    0.0000 C   0  0  0  0  0  0  0  0  0  0  0  0
   -1.2990   -7.3573    0.0000 C   0  0  0  0  0  0  0  0  0  0  0  0
   -1.2990   -5.8573    0.0000 O   0  0  0  0  0  0  0  0  0  0  0  0
   -0.0000   -5.1073    0.0000 C   0  0  0  0  0  0  0  0  0  0  0  0
    1.2990   -5.8573    0.0000 O   0  0  0  0  0  0  0  0  0  0  0  0
   -0.0000   -3.6073    0.0000 C   0  0  0  0  0  0  0  0  0  0  0  0
   -1.2135   -2.7256    0.0000 N   0  0  0  0  0  0  0  0  0  0  0  0
   -0.7500   -1.2990    0.0000 C   0  0  0  0  0  0  0  0  0  0  0  0
    0.7500   -1.2990    0.0000 C   0  0  0  0  0  0  0  0  0  0  0  0
    1.2135   -2.7256    0.0000 C   0  0  0  0  0  0  0  0  0  0  0  0
    2.6401   -3.1891    0.0000 C   0  0  0  0  0  0  0  0  0  0  0  0
    1.5000    0.0000    0.0000 C   0  0  0  0  0  0  0  0  0  0  0  0
    3.0000    0.0000    0.0000 O   0  0  0  0  0  0  0  0  0  0  0  0
    0.7500    1.2990    0.0000 C   0  0  0  0  0  0  0  0  0  0  0  0
   -0.7500    1.2990    0.0000 C   0  0  0  0  0  0  0  0  0  0  0  0
   -1.5000    0.0000    0.0000 C   0  0  0  0  0  0  0  0  0  0  0  0
  1  2  1  0
  3  2  1  6
  3  4  1  0
  4  5  1  0
  5  6  1  0
  6  7  1  0
  7  8  1  0
  8  9  1  1
  9 10  1  0
 10 11  2  0
 10 12  1  0
 12 13  1  0
 13 14  1  0
 14 15  2  0
 15 16  1  0
 16 17  1  0
 15 18  1  0
 18 19  2  0
 18 20  1  0
 20 21  1  0
 21 22  1  0
  8  3  1  0
 16 12  2  0
 22 14  1  0
M  END
>  <Compound_ID>  (181) 
C66534028

>  <Active>  (181) 
0

>  <Smiles>  (181) 
CO[C@@H]1CCCC[C@H]1OC(=O)c1[nH]c2c(c1C)C(=O)CCC2

>  <canonical_smi>  (181) 
CO[C@@H]1CCCC[C@H]1OC(=O)c1[nH]c2c(c1C)C(=O)CCC2

>  <Set>  (181) 
G2 inactive

>  <Set_type>  (181) 
Test

>  <MW>  (181) 
305.37

>  <HBD>  (181) 
1

>  <HBA>  (181) 
4

>  <NRB>  (181) 
3

>  <NR>  (181) 
3

>  <NAR>  (181) 
1

>  <PSA>  (181) 
68.39

>  <Standard Type>  (181) 
nan

>  <Standard Relation>  (181) 
nan

>  <Standard Units>  (181) 
nan

>  <Standard Value>  (181) 
nan

>  <Assay ChEMBL ID>  (181) 
nan

>  <Assay Description>  (181) 
nan

>  <BAO Label>  (181) 
nan

$$$$

     RDKit          2D

 32 35  0  0  0  0  0  0  0  0999 V2000
    4.5356    0.9012    0.0000 C   0  0  0  0  0  0  0  0  0  0  0  0
    3.5320   -0.2136    0.0000 C   0  0  0  0  0  0  0  0  0  0  0  0
    3.9955   -1.6402    0.0000 C   0  0  0  0  0  0  0  0  0  0  0  0
    2.9918   -2.7549    0.0000 N   0  0  0  0  0  0  0  0  0  0  0  0
    1.5000   -2.5981    0.0000 C   0  0  0  0  0  0  0  0  0  0  0  0
    0.7500   -1.2990    0.0000 C   0  0  0  0  0  0  0  0  0  0  0  0
    1.5000    0.0000    0.0000 C   0  0  0  0  0  0  0  0  0  0  0  0
    0.7500    1.2990    0.0000 C   0  0  0  0  0  0  0  0  0  0  0  0
   -0.7500    1.2990    0.0000 C   0  0  0  0  0  0  0  0  0  0  0  0
   -1.5000    0.0000    0.0000 C   0  0  0  0  0  0  0  0  0  0  0  0
   -0.7500   -1.2990    0.0000 C   0  0  0  0  0  0  0  0  0  0  0  0
    0.8899   -3.9684    0.0000 C   0  0  0  0  0  0  0  0  0  0  0  0
   -0.5773   -4.2803    0.0000 N   0  0  0  0  0  0  0  0  0  0  0  0
   -1.0409   -5.7068    0.0000 C   0  0  0  0  0  0  0  0  0  0  0  0
   -0.0372   -6.8216    0.0000 O   0  0  0  0  0  0  0  0  0  0  0  0
   -2.5081   -6.0187    0.0000 C   0  0  0  0  0  0  0  0  0  0  0  0
   -3.1182   -7.3890    0.0000 C   0  0  0  0  0  0  0  0  0  0  0  0
   -4.6100   -7.2322    0.0000 C   0  0  0  0  0  0  0  0  0  0  0  0
   -4.9218   -5.7650    0.0000 C   0  0  0  0  0  0  0  0  0  0  0  0
   -3.6228   -5.0150    0.0000 O   0  0  0  0  0  0  0  0  0  0  0  0
    2.0046   -4.9721    0.0000 S   0  0  0  0  0  0  0  0  0  0  0  0
    3.3037   -4.2221    0.0000 C   0  0  0  0  0  0  0  0  0  0  0  0
    4.6740   -4.8322    0.0000 N   0  0  0  0  0  4  0  0  0  0  0  0
    5.8875   -3.9505    0.0000 C   0  0  0  0  0  0  0  0  0  0  0  0
    7.2578   -4.5606    0.0000 C   0  0  0  0  0  0  0  0  0  0  0  0
    8.4713   -3.6789    0.0000 C   0  0  0  0  0  0  0  0  0  0  0  0
    8.3145   -2.1872    0.0000 C   0  0  0  0  0  0  0  0  0  0  0  0
    9.5281   -1.3055    0.0000 O   0  0  0  0  0  0  0  0  0  0  0  0
   10.8984   -1.9156    0.0000 C   0  0  0  0  0  0  0  0  0  0  0  0
   12.1119   -1.0339    0.0000 C   0  0  0  0  0  0  0  0  0  0  0  0
    6.9442   -1.5771    0.0000 C   0  0  0  0  0  0  0  0  0  0  0  0
    5.7307   -2.4587    0.0000 C   0  0  0  0  0  0  0  0  0  0  0  0
  1  2  2  0
  2  3  1  0
  3  4  1  0
  4  5  1  0
  5  6  1  0
  6  7  2  0
  7  8  1  0
  8  9  2  0
  9 10  1  0
 10 11  2  0
  5 12  2  0
 12 13  1  0
 13 14  1  0
 14 15  2  0
 14 16  1  0
 16 17  2  0
 17 18  1  0
 18 19  2  0
 19 20  1  0
 12 21  1  0
 21 22  1  0
 22 23  2  0
 23 24  1  0
 24 25  2  0
 25 26  1  0
 26 27  2  0
 27 28  1  0
 28 29  1  0
 29 30  1  0
 27 31  1  0
 31 32  2  0
 22  4  1  0
 32 24  1  0
 11  6  1  0
 20 16  1  0
M  CHG  1  23   1
M  END
>  <Compound_ID>  (182) 
C15685073

>  <Active>  (182) 
0

>  <Smiles>  (182) 
C=CCn1c(-c2ccccc2)c(NC(=O)c2ccco2)s/c1=[NH+]/c1ccc(OCC)cc1

>  <canonical_smi>  (182) 
C=CCn1c(-c2ccccc2)c(NC(=O)c2ccco2)s/c1=[NH+]/c1ccc(OCC)cc1

>  <Set>  (182) 
G2 inactive

>  <Set_type>  (182) 
Test

>  <MW>  (182) 
446.55

>  <HBD>  (182) 
2

>  <HBA>  (182) 
3

>  <NRB>  (182) 
8

>  <NR>  (182) 
4

>  <NAR>  (182) 
4

>  <PSA>  (182) 
70.37

>  <Standard Type>  (182) 
nan

>  <Standard Relation>  (182) 
nan

>  <Standard Units>  (182) 
nan

>  <Standard Value>  (182) 
nan

>  <Assay ChEMBL ID>  (182) 
nan

>  <Assay Description>  (182) 
nan

>  <BAO Label>  (182) 
nan

$$$$

     RDKit          2D

 31 34  0  0  0  0  0  0  0  0999 V2000
    8.5256    0.3621    0.0000 C   0  0  0  0  0  0  0  0  0  0  0  0
    8.8374   -1.1051    0.0000 C   0  0  0  0  0  0  0  0  0  0  0  0
   10.2640   -1.5686    0.0000 C   0  0  0  0  0  0  0  0  0  0  0  0
   10.5759   -3.0359    0.0000 C   0  0  0  0  0  0  0  0  0  0  0  0
    9.4612   -4.0396    0.0000 C   0  0  0  0  0  0  0  0  0  0  0  0
    9.7730   -5.5068    0.0000 C   0  0  0  0  0  0  0  0  0  0  0  0
    8.0346   -3.5760    0.0000 C   0  0  0  0  0  0  0  0  0  0  0  0
    6.9199   -4.5797    0.0000 N   0  0  0  0  0  0  0  0  0  0  0  0
    5.4933   -4.1162    0.0000 C   0  0  0  0  0  0  0  0  0  0  0  0
    5.1814   -2.6490    0.0000 S   0  0  0  0  0  0  0  0  0  0  0  0
    4.3786   -5.1199    0.0000 N   0  0  0  0  0  0  0  0  0  0  0  0
    2.9520   -4.6564    0.0000 C   0  0  0  0  0  0  0  0  0  0  0  0
    2.6401   -3.1891    0.0000 C   0  0  0  0  0  0  0  0  0  0  0  0
    1.2135   -2.7256    0.0000 C   0  0  0  0  0  0  0  0  0  0  0  0
    0.7500   -1.2990    0.0000 C   0  0  0  0  0  0  0  0  0  0  0  0
    1.5000    0.0000    0.0000 C   0  0  0  0  0  0  0  0  0  0  0  0
    0.7500    1.2990    0.0000 C   0  0  0  0  0  0  0  0  0  0  0  0
    1.5000    2.5981    0.0000 Cl  0  0  0  0  0  0  0  0  0  0  0  0
   -0.7500    1.2990    0.0000 C   0  0  0  0  0  0  0  0  0  0  0  0
   -1.5000    0.0000    0.0000 C   0  0  0  0  0  0  0  0  0  0  0  0
   -0.7500   -1.2990    0.0000 C   0  0  0  0  0  0  0  0  0  0  0  0
   -1.2135   -2.7256    0.0000 N   0  0  0  0  0  4  0  0  0  0  0  0
    0.0000   -3.6073    0.0000 C   0  0  0  0  0  0  0  0  0  0  0  0
    0.0000   -5.1073    0.0000 C   0  0  0  0  0  0  0  0  0  0  0  0
    4.6904   -6.5871    0.0000 C   0  0  0  0  0  0  0  0  0  0  0  0
    6.1170   -7.0506    0.0000 C   0  0  0  0  0  0  0  0  0  0  0  0
    7.3305   -6.1690    0.0000 C   0  0  0  0  0  0  0  0  0  0  0  0
    8.5441   -7.0506    0.0000 C   0  0  0  0  0  0  0  0  0  0  0  0
    8.0805   -8.4772    0.0000 C   0  0  0  0  0  0  0  0  0  0  0  0
    6.5805   -8.4772    0.0000 O   0  0  0  0  0  0  0  0  0  0  0  0
    7.7227   -2.1088    0.0000 C   0  0  0  0  0  0  0  0  0  0  0  0
  1  2  1  0
  2  3  2  0
  3  4  1  0
  4  5  2  0
  5  6  1  0
  5  7  1  0
  7  8  1  0
  8  9  1  0
  9 10  2  0
  9 11  1  0
 11 12  1  0
 12 13  1  0
 13 14  1  0
 14 15  2  0
 15 16  1  0
 16 17  2  0
 17 18  1  0
 17 19  1  0
 19 20  2  0
 20 21  1  0
 21 22  2  0
 22 23  1  0
 23 24  1  1
 11 25  1  0
 25 26  1  0
 26 27  2  0
 27 28  1  0
 28 29  2  0
 29 30  1  0
  7 31  2  0
 31  2  1  0
 23 14  1  0
 30 26  1  0
 21 15  1  0
M  CHG  1  22   1
M  END
>  <Compound_ID>  (183) 
C63658913

>  <Active>  (183) 
0

>  <Smiles>  (183) 
Cc1ccc(C)c(NC(=S)N(CCC2=c3cc(Cl)ccc3=[NH+][C@@H]2C)Cc2ccco2)c1

>  <canonical_smi>  (183) 
Cc1ccc(C)c(NC(=S)N(CCC2=c3cc(Cl)ccc3=[NH+][C@@H]2C)Cc2ccco2)c1

>  <Set>  (183) 
G2 inactive

>  <Set_type>  (183) 
Test

>  <MW>  (183) 
453.03

>  <HBD>  (183) 
2

>  <HBA>  (183) 
4

>  <NRB>  (183) 
6

>  <NR>  (183) 
4

>  <NAR>  (183) 
3

>  <PSA>  (183) 
42.38

>  <Standard Type>  (183) 
nan

>  <Standard Relation>  (183) 
nan

>  <Standard Units>  (183) 
nan

>  <Standard Value>  (183) 
nan

>  <Assay ChEMBL ID>  (183) 
nan

>  <Assay Description>  (183) 
nan

>  <BAO Label>  (183) 
nan

$$$$

     RDKit          2D

 32 35  0  0  0  0  0  0  0  0999 V2000
   -2.6401   -3.1891    0.0000 C   0  0  0  0  0  0  0  0  0  0  0  0
   -1.2135   -2.7256    0.0000 C   0  0  0  0  0  0  0  0  0  0  0  0
   -0.0000   -3.6073    0.0000 C   0  0  0  0  0  0  0  0  0  0  0  0
   -0.0000   -5.1073    0.0000 C   0  0  0  0  0  0  0  0  0  0  0  0
   -1.2990   -5.8573    0.0000 O   0  0  0  0  0  0  0  0  0  0  0  0
    1.2990   -5.8573    0.0000 N   0  0  0  0  0  0  0  0  0  0  0  0
    1.2990   -7.3573    0.0000 N   0  0  0  0  0  0  0  0  0  0  0  0
    2.5981   -8.1073    0.0000 S   0  0  0  0  0  0  0  0  0  0  0  0
    3.3481   -6.8083    0.0000 O   0  0  0  0  0  0  0  0  0  0  0  0
    1.8481   -9.4063    0.0000 O   0  0  0  0  0  0  0  0  0  0  0  0
    3.8971   -8.8573    0.0000 C   0  0  0  0  0  0  0  0  0  0  0  0
    3.8971  -10.3573    0.0000 C   0  0  0  0  0  0  0  0  0  0  0  0
    5.1962  -11.1073    0.0000 C   0  0  0  0  0  0  0  0  0  0  0  0
    6.4952  -10.3573    0.0000 C   0  0  0  0  0  0  0  0  0  0  0  0
    7.7942  -11.1073    0.0000 N   0  0  0  0  0  0  0  0  0  0  0  0
    7.7942  -12.6073    0.0000 N   0  0  0  0  0  0  0  0  0  0  0  0
    9.0933  -13.3573    0.0000 C   0  0  0  0  0  0  0  0  0  0  0  0
   10.3923  -12.6073    0.0000 C   0  0  0  0  0  0  0  0  0  0  0  0
   11.6913  -13.3573    0.0000 Cl  0  0  0  0  0  0  0  0  0  0  0  0
   10.3923  -11.1073    0.0000 C   0  0  0  0  0  0  0  0  0  0  0  0
   11.6913  -10.3573    0.0000 Cl  0  0  0  0  0  0  0  0  0  0  0  0
    9.0933  -10.3573    0.0000 C   0  0  0  0  0  0  0  0  0  0  0  0
    9.0933   -8.8573    0.0000 O   0  0  0  0  0  0  0  0  0  0  0  0
    6.4952   -8.8573    0.0000 C   0  0  0  0  0  0  0  0  0  0  0  0
    5.1962   -8.1073    0.0000 C   0  0  0  0  0  0  0  0  0  0  0  0
    1.2135   -2.7256    0.0000 O   0  0  0  0  0  0  0  0  0  0  0  0
    0.7500   -1.2990    0.0000 C   0  0  0  0  0  0  0  0  0  0  0  0
    1.5000    0.0000    0.0000 C   0  0  0  0  0  0  0  0  0  0  0  0
    0.7500    1.2990    0.0000 C   0  0  0  0  0  0  0  0  0  0  0  0
   -0.7500    1.2990    0.0000 C   0  0  0  0  0  0  0  0  0  0  0  0
   -1.5000    0.0000    0.0000 C   0  0  0  0  0  0  0  0  0  0  0  0
   -0.7500   -1.2990    0.0000 C   0  0  0  0  0  0  0  0  0  0  0  0
  1  2  1  0
  2  3  2  0
  3  4  1  0
  4  5  2  0
  4  6  1  0
  6  7  1  0
  7  8  1  0
  8  9  2  0
  8 10  2  0
  8 11  1  0
 11 12  2  0
 12 13  1  0
 13 14  2  0
 14 15  1  0
 15 16  1  0
 16 17  2  0
 17 18  1  0
 18 19  1  0
 18 20  2  0
 20 21  1  0
 20 22  1  0
 22 23  2  0
 14 24  1  0
 24 25  2  0
  3 26  1  0
 26 27  1  0
 27 28  2  0
 28 29  1  0
 29 30  2  0
 30 31  1  0
 31 32  2  0
 32  2  1  0
 25 11  1  0
 32 27  1  0
 22 15  1  0
M  END
>  <Compound_ID>  (184) 
C25524437

>  <Active>  (184) 
0

>  <Smiles>  (184) 
Cc1c(C(=O)NNS(=O)(=O)c2ccc(-n3ncc(Cl)c(Cl)c3=O)cc2)oc2ccccc12

>  <canonical_smi>  (184) 
Cc1c(C(=O)NNS(=O)(=O)c2ccc(-n3ncc(Cl)c(Cl)c3=O)cc2)oc2ccccc12

>  <Set>  (184) 
G2 inactive

>  <Set_type>  (184) 
Test

>  <MW>  (184) 
493.33

>  <HBD>  (184) 
2

>  <HBA>  (184) 
6

>  <NRB>  (184) 
5

>  <NR>  (184) 
4

>  <NAR>  (184) 
4

>  <PSA>  (184) 
123.3

>  <Standard Type>  (184) 
nan

>  <Standard Relation>  (184) 
nan

>  <Standard Units>  (184) 
nan

>  <Standard Value>  (184) 
nan

>  <Assay ChEMBL ID>  (184) 
nan

>  <Assay Description>  (184) 
nan

>  <BAO Label>  (184) 
nan

$$$$

     RDKit          2D

 34 38  0  0  0  0  0  0  0  0999 V2000
  -11.0184   -2.4947    0.0000 N   0  0  0  0  0  0  0  0  0  0  0  0
  -10.7065   -1.0275    0.0000 C   0  0  0  0  0  0  0  0  0  0  0  0
  -10.3946    0.4398    0.0000 C   0  0  0  0  0  0  0  0  0  0  0  0
  -11.5094    1.4435    0.0000 C   0  0  0  0  0  0  0  0  0  0  0  0
  -11.1975    2.9107    0.0000 C   0  0  0  0  0  0  0  0  0  0  0  0
   -9.7709    3.3742    0.0000 C   0  0  0  0  0  0  0  0  0  0  0  0
   -8.6562    2.3705    0.0000 C   0  0  0  0  0  0  0  0  0  0  0  0
   -7.2296    2.8340    0.0000 N   0  0  0  0  0  0  0  0  0  0  0  0
   -6.1149    1.8303    0.0000 C   0  0  0  0  0  0  0  0  0  0  0  0
   -6.4268    0.3631    0.0000 O   0  0  0  0  0  0  0  0  0  0  0  0
   -4.6883    2.2939    0.0000 C   0  0  0  0  0  0  0  0  0  0  0  0
   -3.5736    1.2902    0.0000 O   0  0  0  0  0  0  0  0  0  0  0  0
   -2.1470    1.7537    0.0000 C   0  0  0  0  0  0  0  0  0  0  0  0
   -1.8351    3.2209    0.0000 N   0  0  0  0  0  0  0  0  0  0  0  0
   -0.4086    3.6844    0.0000 C   0  0  0  0  0  0  0  0  0  0  0  0
   -0.0967    5.1517    0.0000 C   0  0  0  0  0  0  0  0  0  0  0  0
    1.3299    5.6152    0.0000 N   0  0  0  0  0  4  0  0  0  0  0  0
    2.4446    4.6115    0.0000 C   0  0  0  0  0  0  0  0  0  0  0  0
    3.8712    5.0750    0.0000 C   0  0  0  0  0  0  0  0  0  0  0  0
    4.1831    6.5422    0.0000 C   0  0  0  0  0  0  0  0  0  0  0  0
    3.0684    7.5459    0.0000 C   0  0  0  0  0  0  0  0  0  0  0  0
    1.6418    7.0824    0.0000 C   0  0  0  0  0  0  0  0  0  0  0  0
    0.7062    2.6807    0.0000 N   0  0  0  0  0  0  0  0  0  0  0  0
    0.3943    1.2135    0.0000 C   0  0  0  0  0  0  0  0  0  0  0  0
    1.2760    0.0000    0.0000 S   0  0  0  0  0  0  0  0  0  0  0  0
    0.3943   -1.2135    0.0000 C   0  0  0  0  0  0  0  0  0  0  0  0
   -1.0323   -0.7500    0.0000 C   0  0  0  0  0  0  0  0  0  0  0  0
   -2.2458   -1.6317    0.0000 C   0  0  0  0  0  0  0  0  0  0  0  0
   -2.2458   -3.1317    0.0000 C   0  0  0  0  0  0  0  0  0  0  0  0
   -3.6724   -3.5952    0.0000 C   0  0  0  0  0  0  0  0  0  0  0  0
   -4.5541   -2.3817    0.0000 C   0  0  0  0  0  0  0  0  0  0  0  0
   -3.6724   -1.1682    0.0000 S   0  0  0  0  0  0  0  0  0  0  0  0
   -1.0323    0.7500    0.0000 C   0  0  0  0  0  0  0  0  0  0  0  0
   -8.9681    0.9033    0.0000 C   0  0  0  0  0  0  0  0  0  0  0  0
  1  2  3  0
  2  3  1  0
  3  4  2  0
  4  5  1  0
  5  6  2  0
  6  7  1  0
  7  8  1  0
  8  9  1  0
  9 10  2  0
  9 11  1  0
 11 12  1  0
 12 13  1  0
 13 14  2  0
 14 15  1  0
 15 16  1  0
 16 17  1  0
 17 18  1  0
 18 19  1  0
 19 20  1  0
 20 21  1  0
 21 22  1  0
 15 23  2  0
 23 24  1  0
 24 25  1  0
 25 26  1  0
 26 27  2  0
 27 28  1  0
 28 29  2  0
 29 30  1  0
 30 31  2  0
 31 32  1  0
 27 33  1  0
  7 34  2  0
 34  3  1  0
 33 13  1  0
 22 17  1  0
 33 24  2  0
 32 28  1  0
M  CHG  1  17   1
M  END
>  <Compound_ID>  (185) 
C28616788

>  <Active>  (185) 
0

>  <Smiles>  (185) 
N#Cc1cccc(NC(=O)COc2nc(C[NH+]3CCCCC3)nc3scc(-c4cccs4)c23)c1

>  <canonical_smi>  (185) 
N#Cc1cccc(NC(=O)COc2nc(C[NH+]3CCCCC3)nc3scc(-c4cccs4)c23)c1

>  <Set>  (185) 
G2 inactive

>  <Set_type>  (185) 
Test

>  <MW>  (185) 
490.63

>  <HBD>  (185) 
2

>  <HBA>  (185) 
5

>  <NRB>  (185) 
7

>  <NR>  (185) 
5

>  <NAR>  (185) 
4

>  <PSA>  (185) 
92.34

>  <Standard Type>  (185) 
nan

>  <Standard Relation>  (185) 
nan

>  <Standard Units>  (185) 
nan

>  <Standard Value>  (185) 
nan

>  <Assay ChEMBL ID>  (185) 
nan

>  <Assay Description>  (185) 
nan

>  <BAO Label>  (185) 
nan

$$$$

     RDKit          2D

 36 39  0  0  0  0  0  0  0  0999 V2000
    2.0922   -8.9660    0.0000 C   0  0  0  0  0  0  0  0  0  0  0  0
    1.4821   -7.5957    0.0000 C   0  0  0  0  0  0  0  0  0  0  0  0
    2.3638   -6.3821    0.0000 O   0  0  0  0  0  0  0  0  0  0  0  0
    1.7537   -5.0118    0.0000 N   0  0  0  0  0  0  0  0  0  0  0  0
    2.5037   -3.7128    0.0000 C   0  0  0  0  0  0  0  0  0  0  0  0
    1.5000   -2.5981    0.0000 C   0  0  0  0  0  0  0  0  0  0  0  0
    2.7135   -1.7164    0.0000 C   0  0  0  0  0  0  0  0  0  0  0  0
    0.7500   -1.2990    0.0000 C   0  0  0  0  0  0  0  0  0  0  0  0
   -0.7500   -1.2990    0.0000 C   0  0  0  0  0  0  0  0  0  0  0  0
   -1.5000   -0.0000    0.0000 C   0  0  0  0  0  0  0  0  0  0  0  0
   -0.7500    1.2990    0.0000 C   0  0  0  0  0  0  0  0  0  0  0  0
    0.7500    1.2990    0.0000 C   0  0  0  0  0  0  0  0  0  0  0  0
    1.5000   -0.0000    0.0000 C   0  0  0  0  0  0  0  0  0  0  0  0
    3.0000   -0.0000    0.0000 O   0  0  0  0  0  0  0  0  0  0  0  0
    0.1297   -3.2082    0.0000 N   0  0  0  0  0  0  0  0  0  0  0  0
   -1.1694   -2.4582    0.0000 C   0  0  0  0  0  0  0  0  0  0  0  0
   -2.4684   -3.2082    0.0000 C   0  0  0  0  0  0  0  0  0  0  0  0
   -2.9814   -1.7986    0.0000 C   0  0  0  0  0  0  0  0  0  0  0  0
   -4.4586   -1.5382    0.0000 C   0  0  0  0  0  0  0  0  0  0  0  0
   -4.9717   -0.1286    0.0000 C   0  0  0  0  0  0  0  0  0  0  0  0
   -4.0075    1.0204    0.0000 C   0  0  0  0  0  0  0  0  0  0  0  0
   -2.5303    0.7600    0.0000 C   0  0  0  0  0  0  0  0  0  0  0  0
   -2.0172   -0.6496    0.0000 C   0  0  0  0  0  0  0  0  0  0  0  0
   -1.5042   -4.3572    0.0000 C   0  0  0  0  0  0  0  0  0  0  0  0
   -2.0172   -5.7668    0.0000 C   0  0  0  0  0  0  0  0  0  0  0  0
   -3.4945   -6.0273    0.0000 N   0  0  0  0  0  0  0  0  0  0  0  0
   -4.0075   -7.4368    0.0000 S   0  0  0  0  0  0  0  0  0  0  0  0
   -5.4170   -6.9238    0.0000 O   0  0  0  0  0  0  0  0  0  0  0  0
   -2.5979   -7.9498    0.0000 O   0  0  0  0  0  0  0  0  0  0  0  0
   -4.5205   -8.8463    0.0000 C   0  0  0  0  0  0  0  0  0  0  0  0
   -5.9977   -9.1068    0.0000 C   0  0  0  0  0  0  0  0  0  0  0  0
   -3.5563   -9.9954    0.0000 C   0  0  0  0  0  0  0  0  0  0  0  0
   -4.4586   -4.8782    0.0000 C   0  0  0  0  0  0  0  0  0  0  0  0
   -3.9456   -3.4687    0.0000 C   0  0  0  0  0  0  0  0  0  0  0  0
    0.2865   -4.7000    0.0000 C   0  0  0  0  0  0  0  0  0  0  0  0
   -0.8282   -5.7037    0.0000 O   0  0  0  0  0  0  0  0  0  0  0  0
  1  2  1  0
  2  3  1  0
  3  4  1  0
  4  5  1  0
  5  6  1  0
  6  7  1  6
  6  8  1  0
  8  9  2  0
  9 10  1  0
 10 11  2  0
 11 12  1  0
 12 13  2  0
 13 14  1  0
  6 15  1  0
 15 16  1  0
 16 17  1  0
 17 18  1  0
 18 19  1  0
 19 20  1  0
 20 21  1  0
 21 22  1  0
 22 23  1  0
 17 24  1  0
 24 25  1  0
 25 26  1  0
 26 27  1  0
 27 28  2  0
 27 29  2  0
 27 30  1  0
 30 31  1  0
 30 32  1  0
 26 33  1  0
 33 34  1  0
 15 35  1  0
 35 36  2  0
 35  4  1  0
 13  8  1  0
 34 17  1  0
 23 18  1  0
M  END
>  <Compound_ID>  (186) 
C39488292

>  <Active>  (186) 
0

>  <Smiles>  (186) 
CCON1C[C@](C)(c2ccccc2O)N(CC2(C3CCCCC3)CCN(S(=O)(=O)C(C)C)CC2)C1=O

>  <canonical_smi>  (186) 
CCON1C[C@](C)(c2ccccc2O)N(CC2(C3CCCCC3)CCN(S(=O)(=O)C(C)C)CC2)C1=O

>  <Set>  (186) 
G2 inactive

>  <Set_type>  (186) 
Test

>  <MW>  (186) 
521.72

>  <HBD>  (186) 
1

>  <HBA>  (186) 
5

>  <NRB>  (186) 
8

>  <NR>  (186) 
4

>  <NAR>  (186) 
1

>  <PSA>  (186) 
90.39

>  <Standard Type>  (186) 
nan

>  <Standard Relation>  (186) 
nan

>  <Standard Units>  (186) 
nan

>  <Standard Value>  (186) 
nan

>  <Assay ChEMBL ID>  (186) 
nan

>  <Assay Description>  (186) 
nan

>  <BAO Label>  (186) 
nan

$$$$

     RDKit          2D

 36 40  0  0  0  0  0  0  0  0999 V2000
    5.2500   -1.2990    0.0000 C   0  0  0  0  0  0  0  0  0  0  0  0
    3.7500   -1.2990    0.0000 C   0  0  0  0  0  0  0  0  0  0  0  0
    3.0000   -2.5981    0.0000 O   0  0  0  0  0  0  0  0  0  0  0  0
    3.0000    0.0000    0.0000 N   0  0  0  0  0  4  0  0  0  0  0  0
    1.5000    0.0000    0.0000 C   0  0  0  0  0  0  0  0  0  0  0  0
    0.7500   -1.2990    0.0000 C   0  0  0  0  0  0  0  0  0  0  0  0
   -0.7500   -1.2990    0.0000 C   0  0  0  0  0  0  0  0  0  0  0  0
   -1.5000    0.0000    0.0000 C   0  0  0  0  0  0  0  0  0  0  0  0
   -3.0000    0.0000    0.0000 C   0  0  0  0  0  0  0  0  0  0  0  0
   -3.7500   -1.2990    0.0000 C   0  0  0  0  0  0  0  0  0  0  0  0
   -5.2500   -1.2990    0.0000 O   0  0  0  0  0  0  0  0  0  0  0  0
   -6.0000   -2.5981    0.0000 C   0  0  0  0  0  0  0  0  0  0  0  0
   -5.2500   -3.8971    0.0000 O   0  0  0  0  0  0  0  0  0  0  0  0
   -7.5000   -2.5981    0.0000 C   0  0  0  0  0  0  0  0  0  0  0  0
   -8.2500   -1.2990    0.0000 C   0  0  0  0  0  0  0  0  0  0  0  0
   -9.7500   -1.2990    0.0000 C   0  0  0  0  0  0  0  0  0  0  0  0
  -10.5000   -2.5981    0.0000 C   0  0  0  0  0  0  0  0  0  0  0  0
   -9.7500   -3.8971    0.0000 C   0  0  0  0  0  0  0  0  0  0  0  0
   -8.2500   -3.8971    0.0000 C   0  0  0  0  0  0  0  0  0  0  0  0
  -10.7537   -5.0118    0.0000 C   0  0  0  0  0  0  0  0  0  0  0  0
  -10.4418   -6.4791    0.0000 O   0  0  0  0  0  0  0  0  0  0  0  0
  -12.1240   -4.4017    0.0000 N   0  0  0  0  0  0  0  0  0  0  0  0
  -13.4231   -5.1517    0.0000 C   0  0  0  0  0  0  0  0  0  0  0  0
  -14.7221   -4.4017    0.0000 C   0  0  0  0  0  0  0  0  0  0  0  0
  -16.0211   -5.1517    0.0000 C   0  0  0  0  0  0  0  0  0  0  0  0
  -16.0211   -6.6517    0.0000 C   0  0  0  0  0  0  0  0  0  0  0  0
  -14.7221   -7.4017    0.0000 C   0  0  0  0  0  0  0  0  0  0  0  0
  -13.4231   -6.6517    0.0000 C   0  0  0  0  0  0  0  0  0  0  0  0
  -11.9672   -2.9099    0.0000 C   0  0  0  0  0  0  0  0  0  0  0  0
  -13.0819   -1.9062    0.0000 O   0  0  0  0  0  0  0  0  0  0  0  0
   -3.7500    1.2990    0.0000 C   0  0  0  0  0  0  0  0  0  0  0  0
   -3.0000    2.5981    0.0000 C   0  0  0  0  0  0  0  0  0  0  0  0
   -3.7500    3.8971    0.0000 O   0  0  0  0  0  0  0  0  0  0  0  0
   -1.5000    2.5981    0.0000 O   0  0  0  0  0  0  0  0  0  0  0  0
   -0.7500    1.2990    0.0000 C   0  0  0  0  0  0  0  0  0  0  0  0
    0.7500    1.2990    0.0000 C   0  0  0  0  0  0  0  0  0  0  0  0
  1  2  1  0
  2  3  2  0
  2  4  1  0
  4  5  2  3
  5  6  1  0
  6  7  2  0
  7  8  1  0
  8  9  2  0
  9 10  1  0
 10 11  1  0
 11 12  1  0
 12 13  2  0
 12 14  1  0
 14 15  2  0
 15 16  1  0
 16 17  2  0
 17 18  1  0
 18 19  2  0
 18 20  1  0
 20 21  2  0
 20 22  1  0
 22 23  1  0
 23 24  1  0
 24 25  1  0
 25 26  1  0
 26 27  1  0
 27 28  1  0
 22 29  1  0
 29 30  2  0
  9 31  1  0
 31 32  2  0
 32 33  1  0
 32 34  1  0
 34 35  1  0
 35 36  2  0
 36  5  1  0
 35  8  1  0
 19 14  1  0
 28 23  1  0
 29 17  1  0
M  CHG  1   4   1
M  END
>  <Compound_ID>  (187) 
C24839727

>  <Active>  (187) 
0

>  <Smiles>  (187) 
CC(=O)[NH+]=c1ccc2c(COC(=O)c3ccc4c(c3)C(=O)N(C3CCCCC3)C4=O)cc(O)oc-2c1

>  <canonical_smi>  (187) 
CC(=O)[NH+]=c1ccc2c(COC(=O)c3ccc4c(c3)C(=O)N(C3CCCCC3)C4=O)cc(O)oc-2c1

>  <Set>  (187) 
G2 inactive

>  <Set_type>  (187) 
Test

>  <MW>  (187) 
489.5

>  <HBD>  (187) 
2

>  <HBA>  (187) 
7

>  <NRB>  (187) 
4

>  <NR>  (187) 
5

>  <NAR>  (187) 
3

>  <PSA>  (187) 
128.09

>  <Standard Type>  (187) 
nan

>  <Standard Relation>  (187) 
nan

>  <Standard Units>  (187) 
nan

>  <Standard Value>  (187) 
nan

>  <Assay ChEMBL ID>  (187) 
nan

>  <Assay Description>  (187) 
nan

>  <BAO Label>  (187) 
nan

$$$$

     RDKit          2D

 35 39  0  0  0  0  0  0  0  0999 V2000
   -0.4374   -6.9496    0.0000 C   0  0  0  0  0  0  0  0  0  0  0  0
   -1.1874   -5.6506    0.0000 C   0  0  0  0  0  0  0  0  0  0  0  0
   -0.5773   -4.2803    0.0000 C   0  0  0  0  0  0  0  0  0  0  0  0
    0.8899   -3.9684    0.0000 N   0  0  0  0  0  0  0  0  0  0  0  0
    1.5000   -2.5981    0.0000 C   0  0  0  0  0  0  0  0  0  0  0  0
    0.7500   -1.2990    0.0000 C   0  0  0  0  0  0  0  0  0  0  0  0
    1.5000    0.0000    0.0000 C   0  0  0  0  0  0  0  0  0  0  0  0
    0.7500    1.2990    0.0000 C   0  0  0  0  0  0  0  0  0  0  0  0
   -0.7500    1.2990    0.0000 C   0  0  0  0  0  0  0  0  0  0  0  0
   -1.5000    0.0000    0.0000 C   0  0  0  0  0  0  0  0  0  0  0  0
   -0.7500   -1.2990    0.0000 C   0  0  0  0  0  0  0  0  0  0  0  0
    2.9918   -2.7549    0.0000 C   0  0  0  0  0  0  0  0  0  0  0  0
    3.3037   -4.2221    0.0000 S   0  0  0  0  0  0  0  0  0  0  0  0
    2.0046   -4.9721    0.0000 C   0  0  0  0  0  0  0  0  0  0  0  0
    1.8478   -6.4639    0.0000 N   0  0  0  0  0  0  0  0  0  0  0  0
    3.0613   -7.3456    0.0000 N   0  0  0  0  0  0  0  0  0  0  0  0
    2.9046   -8.8373    0.0000 C   0  0  0  0  0  0  0  0  0  0  0  0
    1.5342   -9.4474    0.0000 C   0  0  0  0  0  0  0  0  0  0  0  0
    0.3207   -8.5658    0.0000 C   0  0  0  0  0  0  0  0  0  0  0  0
   -1.0496   -9.1759    0.0000 C   0  0  0  0  0  0  0  0  0  0  0  0
   -1.2064  -10.6676    0.0000 C   0  0  0  0  0  0  0  0  0  0  0  0
   -2.5767  -11.2778    0.0000 O   0  0  0  0  0  0  0  0  0  0  0  0
    0.0071  -11.5493    0.0000 C   0  0  0  0  0  0  0  0  0  0  0  0
    1.3774  -10.9392    0.0000 C   0  0  0  0  0  0  0  0  0  0  0  0
   -1.6920   -3.2766    0.0000 C   0  0  0  0  0  0  0  0  0  0  0  0
   -1.5353   -1.7848    0.0000 O   0  0  0  0  0  0  0  0  0  0  0  0
   -2.9911   -4.0266    0.0000 N   0  0  0  0  0  0  0  0  0  0  0  0
   -4.3614   -3.4165    0.0000 C   0  0  0  0  0  0  0  0  0  0  0  0
   -4.5182   -1.9247    0.0000 C   0  0  0  0  0  0  0  0  0  0  0  0
   -5.8885   -1.3146    0.0000 C   0  0  0  0  0  0  0  0  0  0  0  0
   -7.1020   -2.1963    0.0000 C   0  0  0  0  0  0  0  0  0  0  0  0
   -6.9452   -3.6880    0.0000 C   0  0  0  0  0  0  0  0  0  0  0  0
   -5.5749   -4.2981    0.0000 C   0  0  0  0  0  0  0  0  0  0  0  0
   -2.6792   -5.4938    0.0000 N   0  0  0  0  0  0  0  0  0  0  0  0
   -3.6829   -6.6085    0.0000 C   0  0  0  0  0  0  0  0  0  0  0  0
  1  2  1  0
  2  3  2  0
  3  4  1  0
  4  5  1  0
  5  6  1  0
  6  7  2  0
  7  8  1  0
  8  9  2  0
  9 10  1  0
 10 11  2  0
  5 12  2  0
 12 13  1  0
 13 14  1  0
 14 15  2  0
 15 16  1  0
 16 17  2  0
 17 18  1  0
 18 19  2  0
 19 20  1  0
 20 21  2  0
 21 22  1  0
 21 23  1  0
 23 24  2  0
  3 25  1  0
 25 26  2  0
 25 27  1  0
 27 28  1  0
 28 29  2  0
 29 30  1  0
 30 31  2  0
 31 32  1  0
 32 33  2  0
 27 34  1  0
 34 35  1  0
 34  2  1  0
 14  4  1  0
 24 18  1  0
 33 28  1  0
 11  6  1  0
M  END
>  <Compound_ID>  (188) 
C09434058

>  <Active>  (188) 
0

>  <Smiles>  (188) 
Cc1c(-n2c(-c3ccccc3)cs/c2=N\N=C/c2ccc(O)cc2)c(=O)n(-c2ccccc2)n1C

>  <canonical_smi>  (188) 
Cc1c(-n2c(-c3ccccc3)cs/c2=N\N=C/c2ccc(O)cc2)c(=O)n(-c2ccccc2)n1C

>  <Set>  (188) 
G2 inactive

>  <Set_type>  (188) 
Test

>  <MW>  (188) 
481.58

>  <HBD>  (188) 
1

>  <HBA>  (188) 
2

>  <NRB>  (188) 
5

>  <NR>  (188) 
5

>  <NAR>  (188) 
5

>  <PSA>  (188) 
76.81

>  <Standard Type>  (188) 
nan

>  <Standard Relation>  (188) 
nan

>  <Standard Units>  (188) 
nan

>  <Standard Value>  (188) 
nan

>  <Assay ChEMBL ID>  (188) 
nan

>  <Assay Description>  (188) 
nan

>  <BAO Label>  (188) 
nan

$$$$

     RDKit          2D

 37 41  0  0  0  0  0  0  0  0999 V2000
    3.7500   -1.2990    0.0000 C   0  0  0  0  0  0  0  0  0  0  0  0
    3.0000    0.0000    0.0000 O   0  0  0  0  0  0  0  0  0  0  0  0
    1.5000    0.0000    0.0000 C   0  0  0  0  0  0  0  0  0  0  0  0
    0.7500   -1.2990    0.0000 C   0  0  0  0  0  0  0  0  0  0  0  0
   -0.7500   -1.2990    0.0000 C   0  0  0  0  0  0  0  0  0  0  0  0
   -1.5000    0.0000    0.0000 C   0  0  0  0  0  0  0  0  0  0  0  0
   -3.0000    0.0000    0.0000 C   0  0  0  0  0  0  0  0  0  0  0  0
   -3.0000   -1.5000    0.0000 O   0  0  0  0  0  0  0  0  0  0  0  0
   -4.5000    0.0000    0.0000 C   0  0  0  0  0  0  0  0  0  0  0  0
   -5.2500    1.2990    0.0000 C   0  0  0  0  0  0  0  0  0  0  0  0
   -6.7500    1.2990    0.0000 C   0  0  0  0  0  0  0  0  0  0  0  0
   -7.5000    0.0000    0.0000 C   0  0  0  0  0  0  0  0  0  0  0  0
   -9.0000    0.0000    0.0000 O   0  0  0  0  0  0  0  0  0  0  0  0
   -9.7500    1.2990    0.0000 C   0  0  0  0  0  0  0  0  0  0  0  0
   -6.7500   -1.2990    0.0000 C   0  0  0  0  0  0  0  0  0  0  0  0
   -5.2500   -1.2990    0.0000 C   0  0  0  0  0  0  0  0  0  0  0  0
   -3.0000    1.5000    0.0000 C   0  0  0  0  0  0  0  0  0  0  0  0
   -4.2135    2.3817    0.0000 C   0  0  0  0  0  0  0  0  0  0  0  0
   -3.7500    3.8083    0.0000 C   0  0  0  0  0  0  0  0  0  0  0  0
   -2.2500    3.8083    0.0000 C   0  0  0  0  0  0  0  0  0  0  0  0
   -1.3683    5.0218    0.0000 C   0  0  0  0  0  0  0  0  0  0  0  0
    0.1235    4.8650    0.0000 N   0  0  0  0  0  4  0  0  0  0  0  0
    1.0051    6.0785    0.0000 C   0  0  0  0  0  0  0  0  0  0  0  0
    0.3950    7.4488    0.0000 C   0  0  0  0  0  0  0  0  0  0  0  0
    1.1450    8.7479    0.0000 C   0  0  0  0  0  0  0  0  0  0  0  0
    0.1413    9.8626    0.0000 C   0  0  0  0  0  0  0  0  0  0  0  0
   -1.2290    9.2525    0.0000 S   0  0  0  0  0  0  0  0  0  0  0  0
   -1.0722    7.7607    0.0000 C   0  0  0  0  0  0  0  0  0  0  0  0
    0.7336    3.4947    0.0000 C   0  0  0  0  0  0  0  0  0  0  0  0
    2.2253    3.3379    0.0000 C   0  0  0  0  0  0  0  0  0  0  0  0
    3.2290    4.4526    0.0000 C   0  0  0  0  0  0  0  0  0  0  0  0
    4.5994    3.8425    0.0000 C   0  0  0  0  0  0  0  0  0  0  0  0
    4.4426    2.3507    0.0000 C   0  0  0  0  0  0  0  0  0  0  0  0
    2.9753    2.0388    0.0000 O   0  0  0  0  0  0  0  0  0  0  0  0
   -1.7865    2.3817    0.0000 O   0  0  0  0  0  0  0  0  0  0  0  0
   -0.7500    1.2990    0.0000 C   0  0  0  0  0  0  0  0  0  0  0  0
    0.7500    1.2990    0.0000 C   0  0  0  0  0  0  0  0  0  0  0  0
  1  2  1  0
  2  3  1  0
  3  4  2  0
  4  5  1  0
  5  6  2  0
  6  7  1  0
  7  8  1  0
  7  9  1  0
  9 10  2  0
 10 11  1  0
 11 12  2  0
 12 13  1  0
 13 14  1  0
 12 15  1  0
 15 16  2  0
  7 17  1  0
 17 18  2  0
 18 19  1  0
 19 20  2  0
 20 21  1  0
 21 22  1  0
 22 23  1  0
 23 24  1  0
 24 25  1  0
 25 26  2  0
 26 27  1  0
 27 28  1  0
 22 29  1  0
 30 29  1  1
 30 31  1  0
 31 32  1  0
 32 33  1  0
 33 34  1  0
 20 35  1  0
  6 36  1  0
 36 37  2  0
 37  3  1  0
 16  9  1  0
 35 17  1  0
 28 24  2  0
 34 30  1  0
M  CHG  1  22   1
M  END
>  <Compound_ID>  (189) 
C36202740

>  <Active>  (189) 
0

>  <Smiles>  (189) 
COc1ccc(C(O)(c2ccc(OC)cc2)c2ccc(C[NH+](Cc3ccsc3)C[C@H]3CCCO3)o2)cc1

>  <canonical_smi>  (189) 
COc1ccc(C(O)(c2ccc(OC)cc2)c2ccc(C[NH+](Cc3ccsc3)C[C@H]3CCCO3)o2)cc1

>  <Set>  (189) 
G2 inactive

>  <Set_type>  (189) 
Test

>  <MW>  (189) 
520.67

>  <HBD>  (189) 
2

>  <HBA>  (189) 
5

>  <NRB>  (189) 
11

>  <NR>  (189) 
5

>  <NAR>  (189) 
4

>  <PSA>  (189) 
65.5

>  <Standard Type>  (189) 
nan

>  <Standard Relation>  (189) 
nan

>  <Standard Units>  (189) 
nan

>  <Standard Value>  (189) 
nan

>  <Assay ChEMBL ID>  (189) 
nan

>  <Assay Description>  (189) 
nan

>  <BAO Label>  (189) 
nan

$$$$

     RDKit          2D

 37 41  0  0  0  0  0  0  0  0999 V2000
    1.5000   -5.1962    0.0000 C   0  0  0  0  0  0  0  0  0  0  0  0
    0.7500   -3.8971    0.0000 C   0  0  0  0  0  0  0  0  0  0  0  0
   -0.7500   -3.8971    0.0000 C   0  0  0  0  0  0  0  0  0  0  0  0
   -1.5000   -5.1962    0.0000 C   0  0  0  0  0  0  0  0  0  0  0  0
   -3.0000   -5.1962    0.0000 O   0  0  0  0  0  0  0  0  0  0  0  0
   -0.7500   -6.4952    0.0000 N   0  0  0  0  0  0  0  0  0  0  0  0
   -1.5000   -7.7942    0.0000 C   0  0  0  0  0  0  0  0  0  0  0  0
   -3.0000   -7.7942    0.0000 C   0  0  0  0  0  0  0  0  0  0  0  0
   -3.7500   -9.0933    0.0000 C   0  0  0  0  0  0  0  0  0  0  0  0
   -3.0000  -10.3923    0.0000 C   0  0  0  0  0  0  0  0  0  0  0  0
   -3.7500  -11.6913    0.0000 F   0  0  0  0  0  0  0  0  0  0  0  0
   -1.5000  -10.3923    0.0000 C   0  0  0  0  0  0  0  0  0  0  0  0
   -0.7500   -9.0933    0.0000 C   0  0  0  0  0  0  0  0  0  0  0  0
   -1.5000   -2.5981    0.0000 C   0  0  0  0  0  0  0  0  0  0  0  0
   -3.0000   -2.5981    0.0000 C   0  0  0  0  0  0  0  0  0  0  0  0
   -3.7500   -1.2990    0.0000 C   0  0  0  0  0  0  0  0  0  0  0  0
   -5.2500   -1.2990    0.0000 C   0  0  0  0  0  0  0  0  0  0  0  0
   -6.0000   -2.5981    0.0000 C   0  0  0  0  0  0  0  0  0  0  0  0
   -7.5000   -2.5981    0.0000 N   0  0  0  0  0  4  0  0  0  0  0  0
   -8.2500   -3.8971    0.0000 O   0  0  0  0  0  0  0  0  0  0  0  0
   -8.2500   -1.2990    0.0000 O   0  0  0  0  0  1  0  0  0  0  0  0
   -5.2500   -3.8971    0.0000 C   0  0  0  0  0  0  0  0  0  0  0  0
   -3.7500   -3.8971    0.0000 C   0  0  0  0  0  0  0  0  0  0  0  0
   -0.7500   -1.2990    0.0000 C   0  0  0  0  0  0  0  0  0  0  0  0
    0.7500   -1.2990    0.0000 C   0  0  0  0  0  0  0  0  0  0  0  0
    1.5000    0.0000    0.0000 C   0  0  0  0  0  0  0  0  0  0  0  0
    0.7500    1.2990    0.0000 C   0  0  0  0  0  0  0  0  0  0  0  0
    1.5000    2.5981    0.0000 C   0  0  0  0  0  0  0  0  0  0  0  0
    3.0000    2.5981    0.0000 C   0  0  0  0  0  0  0  0  0  0  0  0
    3.7500    3.8971    0.0000 C   0  0  0  0  0  0  0  0  0  0  0  0
    3.0000    5.1962    0.0000 C   0  0  0  0  0  0  0  0  0  0  0  0
    1.5000    5.1962    0.0000 C   0  0  0  0  0  0  0  0  0  0  0  0
    0.7500    3.8971    0.0000 C   0  0  0  0  0  0  0  0  0  0  0  0
   -0.7500    1.2990    0.0000 C   0  0  0  0  0  0  0  0  0  0  0  0
   -1.5000    0.0000    0.0000 C   0  0  0  0  0  0  0  0  0  0  0  0
   -3.0000    0.0000    0.0000 O   0  0  0  0  0  0  0  0  0  0  0  0
    1.5000   -2.5981    0.0000 N   0  0  0  0  0  0  0  0  0  0  0  0
  1  2  1  0
  2  3  2  0
  3  4  1  0
  4  5  2  0
  4  6  1  0
  6  7  1  0
  7  8  2  0
  8  9  1  0
  9 10  2  0
 10 11  1  0
 10 12  1  0
 12 13  2  0
  3 14  1  0
 14 15  1  1
 15 16  2  0
 16 17  1  0
 17 18  2  0
 18 19  1  0
 19 20  2  0
 19 21  1  0
 18 22  1  0
 22 23  2  0
 14 24  1  0
 24 25  2  0
 25 26  1  0
 26 27  1  0
 27 28  1  1
 28 29  2  0
 29 30  1  0
 30 31  2  0
 31 32  1  0
 32 33  2  0
 27 34  1  0
 34 35  1  0
 35 36  2  0
 25 37  1  0
 37  2  1  0
 13  7  1  0
 23 15  1  0
 35 24  1  0
 33 28  1  0
M  CHG  2  19   1  21  -1
M  END
>  <Compound_ID>  (190) 
C01175518

>  <Active>  (190) 
0

>  <Smiles>  (190) 
CC1=C(C(=O)Nc2ccc(F)cc2)[C@@H](c2ccc([N+](=O)[O-])cc2)C2=C(C[C@H](c3ccccc3)CC2=O)N1

>  <canonical_smi>  (190) 
CC1=C(C(=O)Nc2ccc(F)cc2)[C@@H](c2ccc([N+](=O)[O-])cc2)C2=C(C[C@H](c3ccccc3)CC2=O)N1

>  <Set>  (190) 
G2 inactive

>  <Set_type>  (190) 
Test

>  <MW>  (190) 
497.53

>  <HBD>  (190) 
2

>  <HBA>  (190) 
5

>  <NRB>  (190) 
5

>  <NR>  (190) 
5

>  <NAR>  (190) 
3

>  <PSA>  (190) 
101.34

>  <Standard Type>  (190) 
nan

>  <Standard Relation>  (190) 
nan

>  <Standard Units>  (190) 
nan

>  <Standard Value>  (190) 
nan

>  <Assay ChEMBL ID>  (190) 
nan

>  <Assay Description>  (190) 
nan

>  <BAO Label>  (190) 
nan

$$$$

     RDKit          2D

 27 30  0  0  0  0  0  0  0  0999 V2000
   -0.5773   -6.8783    0.0000 C   0  0  0  0  0  0  0  0  0  0  0  0
    0.8899   -6.5665    0.0000 C   0  0  0  0  0  0  0  0  0  0  0  0
    2.0046   -7.5702    0.0000 N   0  0  0  0  0  0  0  0  0  0  0  0
    3.3037   -6.8202    0.0000 N   0  0  0  0  0  0  0  0  0  0  0  0
    4.6740   -7.4303    0.0000 C   0  0  0  0  0  0  0  0  0  0  0  0
    4.8308   -8.9221    0.0000 C   0  0  0  0  0  0  0  0  0  0  0  0
    6.2011   -9.5322    0.0000 C   0  0  0  0  0  0  0  0  0  0  0  0
    7.4146   -8.6505    0.0000 C   0  0  0  0  0  0  0  0  0  0  0  0
    8.7849   -9.2606    0.0000 Br  0  0  0  0  0  0  0  0  0  0  0  0
    7.2578   -7.1587    0.0000 C   0  0  0  0  0  0  0  0  0  0  0  0
    5.8875   -6.5486    0.0000 C   0  0  0  0  0  0  0  0  0  0  0  0
    5.7307   -5.0568    0.0000 C   0  0  0  0  0  0  0  0  0  0  0  0
    2.9918   -5.3529    0.0000 C   0  0  0  0  0  0  0  0  0  0  0  0
    3.9955   -4.2382    0.0000 O   0  0  0  0  0  0  0  0  0  0  0  0
    1.5000   -5.1962    0.0000 C   0  0  0  0  0  0  0  0  0  0  0  0
    0.7500   -3.8971    0.0000 C   0  0  0  0  0  0  0  0  0  0  0  0
    1.5000   -2.5981    0.0000 N   0  0  0  0  0  0  0  0  0  0  0  0
    0.7500   -1.2990    0.0000 C   0  0  0  0  0  0  0  0  0  0  0  0
    1.5000    0.0000    0.0000 C   0  0  0  0  0  0  0  0  0  0  0  0
    0.7500    1.2990    0.0000 C   0  0  0  0  0  0  0  0  0  0  0  0
   -0.7500    1.2990    0.0000 C   0  0  0  0  0  0  0  0  0  0  0  0
   -1.7537    2.4138    0.0000 N   0  0  0  0  0  0  0  0  0  0  0  0
   -3.1240    1.8037    0.0000 C   0  0  0  0  0  0  0  0  0  0  0  0
   -4.4231    2.5537    0.0000 O   0  0  0  0  0  0  0  0  0  0  0  0
   -2.9672    0.3119    0.0000 N   0  0  0  0  0  0  0  0  0  0  0  0
   -1.5000    0.0000    0.0000 C   0  0  0  0  0  0  0  0  0  0  0  0
   -0.7500   -1.2990    0.0000 C   0  0  0  0  0  0  0  0  0  0  0  0
  1  2  1  0
  2  3  2  0
  3  4  1  0
  4  5  1  0
  5  6  2  0
  6  7  1  0
  7  8  2  0
  8  9  1  0
  8 10  1  0
 10 11  2  0
 11 12  1  0
  4 13  1  0
 13 14  2  0
 13 15  1  0
 15 16  2  0
 16 17  1  0
 17 18  1  0
 18 19  2  0
 19 20  1  0
 20 21  2  0
 21 22  1  0
 22 23  1  0
 23 24  2  0
 23 25  1  0
 25 26  1  0
 26 27  2  0
 15  2  1  0
 27 18  1  0
 11  5  1  0
 26 21  1  0
M  END
>  <Compound_ID>  (191) 
C20036808

>  <Active>  (191) 
0

>  <Smiles>  (191) 
CC1=NN(c2ccc(Br)cc2C)C(=O)/C1=C\Nc1ccc2[nH]c(=O)[nH]c2c1

>  <canonical_smi>  (191) 
CC1=NN(c2ccc(Br)cc2C)C(=O)/C1=C\Nc1ccc2[nH]c(=O)[nH]c2c1

>  <Set>  (191) 
G2 inactive

>  <Set_type>  (191) 
Test

>  <MW>  (191) 
426.27

>  <HBD>  (191) 
3

>  <HBA>  (191) 
3

>  <NRB>  (191) 
3

>  <NR>  (191) 
4

>  <NAR>  (191) 
3

>  <PSA>  (191) 
93.35

>  <Standard Type>  (191) 
nan

>  <Standard Relation>  (191) 
nan

>  <Standard Units>  (191) 
nan

>  <Standard Value>  (191) 
nan

>  <Assay ChEMBL ID>  (191) 
nan

>  <Assay Description>  (191) 
nan

>  <BAO Label>  (191) 
nan

$$$$

     RDKit          2D

 39 42  0  0  0  0  0  0  0  0999 V2000
    8.7849   -6.6625    0.0000 C   0  0  0  0  0  0  0  0  0  0  0  0
    7.4146   -6.0524    0.0000 C   0  0  0  0  0  0  0  0  0  0  0  0
    6.2011   -6.9341    0.0000 C   0  0  0  0  0  0  0  0  0  0  0  0
    6.3579   -8.4259    0.0000 C   0  0  0  0  0  0  0  0  0  0  0  0
    4.8308   -6.3240    0.0000 N   0  0  0  0  0  4  0  0  0  0  0  0
    4.6740   -4.8322    0.0000 C   0  0  0  0  0  0  0  0  0  0  0  0
    3.3037   -4.2221    0.0000 C   0  0  0  0  0  0  0  0  0  0  0  0
    2.0046   -4.9721    0.0000 C   0  0  0  0  0  0  0  0  0  0  0  0
    1.8478   -6.4639    0.0000 C   0  0  0  0  0  0  0  0  0  0  0  0
    0.8899   -3.9684    0.0000 N   0  0  0  0  0  0  0  0  0  0  0  0
    1.5000   -2.5981    0.0000 N   0  0  0  0  0  0  0  0  0  0  0  0
    0.7500   -1.2990    0.0000 C   0  0  0  0  0  0  0  0  0  0  0  0
    1.5000    0.0000    0.0000 C   0  0  0  0  0  0  0  0  0  0  0  0
    0.7500    1.2990    0.0000 C   0  0  0  0  0  0  0  0  0  0  0  0
   -0.7500    1.2990    0.0000 C   0  0  0  0  0  0  0  0  0  0  0  0
   -1.5000    0.0000    0.0000 C   0  0  0  0  0  0  0  0  0  0  0  0
   -0.7500   -1.2990    0.0000 C   0  0  0  0  0  0  0  0  0  0  0  0
    2.9918   -2.7549    0.0000 C   0  0  0  0  0  0  0  0  0  0  0  0
    3.9955   -1.6402    0.0000 O   0  0  0  0  0  0  0  0  0  0  0  0
    5.4627   -1.9520    0.0000 C   0  0  0  0  0  0  0  0  0  0  0  0
    5.9262   -3.3786    0.0000 C   0  0  0  0  0  0  0  0  0  0  0  0
    7.3934   -3.6905    0.0000 C   0  0  0  0  0  0  0  0  0  0  0  0
    8.3971   -2.5758    0.0000 C   0  0  0  0  0  0  0  0  0  0  0  0
    7.9336   -1.1492    0.0000 C   0  0  0  0  0  0  0  0  0  0  0  0
    6.4664   -0.8373    0.0000 C   0  0  0  0  0  0  0  0  0  0  0  0
    6.0029    0.5893    0.0000 O   0  0  0  0  0  0  0  0  0  0  0  0
    7.0066    1.7040    0.0000 C   0  0  0  0  0  0  0  0  0  0  0  0
    3.6172   -7.2057    0.0000 C   0  0  0  0  0  0  0  0  0  0  0  0
    3.7740   -8.6974    0.0000 C   0  0  0  0  0  0  0  0  0  0  0  0
    5.1443   -9.3075    0.0000 O   0  0  0  0  0  0  0  0  0  0  0  0
    2.5605   -9.5791    0.0000 C   0  0  0  0  0  0  0  0  0  0  0  0
    2.7173  -11.0709    0.0000 O   0  0  0  0  0  0  0  0  0  0  0  0
    1.5038  -11.9526    0.0000 C   0  0  0  0  0  0  0  0  0  0  0  0
    1.6606  -13.4444    0.0000 C   0  0  0  0  0  0  0  0  0  0  0  0
    3.0309  -14.0545    0.0000 C   0  0  0  0  0  0  0  0  0  0  0  0
    3.1877  -15.5462    0.0000 C   0  0  0  0  0  0  0  0  0  0  0  0
    1.9741  -16.4279    0.0000 C   0  0  0  0  0  0  0  0  0  0  0  0
    0.6038  -15.8178    0.0000 C   0  0  0  0  0  0  0  0  0  0  0  0
    0.4470  -14.3260    0.0000 C   0  0  0  0  0  0  0  0  0  0  0  0
  1  2  1  0
  2  3  1  0
  3  4  1  1
  3  5  1  0
  5  6  1  0
  6  7  1  0
  7  8  1  0
  8  9  1  0
  8 10  2  0
 10 11  1  0
 11 12  1  0
 12 13  2  0
 13 14  1  0
 14 15  2  0
 15 16  1  0
 16 17  2  0
 11 18  1  0
 18 19  1  0
 19 20  1  0
 20 21  2  0
 21 22  1  0
 22 23  2  0
 23 24  1  0
 24 25  2  0
 25 26  1  0
 26 27  1  0
  5 28  1  0
 28 29  1  0
 29 30  1  6
 29 31  1  0
 31 32  1  0
 32 33  1  0
 33 34  1  0
 34 35  2  0
 35 36  1  0
 36 37  2  0
 37 38  1  0
 38 39  2  0
 18  7  2  0
 25 20  1  0
 39 34  1  0
 17 12  1  0
M  CHG  1   5   1
M  END
>  <Compound_ID>  (192) 
C36302051

>  <Active>  (192) 
0

>  <Smiles>  (192) 
CC[C@@H](C)[NH+](Cc1c(C)nn(-c2ccccc2)c1Oc1ccccc1OC)C[C@H](O)COCc1ccccc1

>  <canonical_smi>  (192) 
CC[C@@H](C)[NH+](Cc1c(C)nn(-c2ccccc2)c1Oc1ccccc1OC)C[C@H](O)COCc1ccccc1

>  <Set>  (192) 
G2 inactive

>  <Set_type>  (192) 
Test

>  <MW>  (192) 
530.69

>  <HBD>  (192) 
2

>  <HBA>  (192) 
5

>  <NRB>  (192) 
14

>  <NR>  (192) 
4

>  <NAR>  (192) 
4

>  <PSA>  (192) 
70.18

>  <Standard Type>  (192) 
nan

>  <Standard Relation>  (192) 
nan

>  <Standard Units>  (192) 
nan

>  <Standard Value>  (192) 
nan

>  <Assay ChEMBL ID>  (192) 
nan

>  <Assay Description>  (192) 
nan

>  <BAO Label>  (192) 
nan

$$$$

     RDKit          2D

 34 37  0  0  0  0  0  0  0  0999 V2000
    8.1885   -1.7865    0.0000 N   0  0  0  0  0  0  0  0  0  0  0  0
    6.8895   -1.0365    0.0000 C   0  0  0  0  0  0  0  0  0  0  0  0
    6.8895    0.4635    0.0000 C   0  0  0  0  0  0  0  0  0  0  0  0
    5.5905    1.2135    0.0000 C   0  0  0  0  0  0  0  0  0  0  0  0
    4.2914    0.4635    0.0000 C   0  0  0  0  0  0  0  0  0  0  0  0
    2.9924    1.2135    0.0000 S   0  0  0  0  0  0  0  0  0  0  0  0
    3.7424    2.5126    0.0000 O   0  0  0  0  0  0  0  0  0  0  0  0
    2.6809    0.4797    0.0000 O   0  0  0  0  0  0  0  0  0  0  0  0
    1.6933    1.9635    0.0000 N   0  0  0  0  0  0  0  0  0  0  0  0
    0.3943    1.2135    0.0000 C   0  0  0  0  0  0  0  0  0  0  0  0
   -0.2158    2.5838    0.0000 C   0  0  0  0  0  0  0  0  0  0  0  0
   -0.8259    3.9542    0.0000 F   0  0  0  0  0  0  0  0  0  0  0  0
    1.1545    3.1939    0.0000 F   0  0  0  0  0  0  0  0  0  0  0  0
   -1.5861    1.9737    0.0000 F   0  0  0  0  0  0  0  0  0  0  0  0
    1.2760    0.0000    0.0000 C   0  0  0  0  0  0  0  0  0  0  0  0
    2.1551   -0.1080    0.0000 O   0  0  0  0  0  0  0  0  0  0  0  0
    0.3943   -1.2135    0.0000 N   0  0  0  0  0  0  0  0  0  0  0  0
   -1.0323   -0.7500    0.0000 C   0  0  0  0  0  0  0  0  0  0  0  0
   -1.0323    0.7500    0.0000 C   0  0  0  0  0  0  0  0  0  0  0  0
   -2.3313    1.5000    0.0000 C   0  0  0  0  0  0  0  0  0  0  0  0
   -2.3313    3.0000    0.0000 O   0  0  0  0  0  1  0  0  0  0  0  0
   -3.6304    0.7500    0.0000 N   0  0  0  0  0  0  0  0  0  0  0  0
   -3.6304   -0.7500    0.0000 C   0  0  0  0  0  0  0  0  0  0  0  0
   -4.9294   -1.5000    0.0000 O   0  0  0  0  0  0  0  0  0  0  0  0
   -2.3313   -1.5000    0.0000 N   0  0  0  0  0  0  0  0  0  0  0  0
   -2.3313   -3.0000    0.0000 C   0  0  0  0  0  0  0  0  0  0  0  0
   -3.6304   -3.7500    0.0000 C   0  0  0  0  0  0  0  0  0  0  0  0
   -3.6304   -5.2500    0.0000 C   0  0  0  0  0  0  0  0  0  0  0  0
   -2.3313   -6.0000    0.0000 C   0  0  0  0  0  0  0  0  0  0  0  0
   -2.3313   -7.5000    0.0000 F   0  0  0  0  0  0  0  0  0  0  0  0
   -1.0323   -5.2500    0.0000 C   0  0  0  0  0  0  0  0  0  0  0  0
   -1.0323   -3.7500    0.0000 C   0  0  0  0  0  0  0  0  0  0  0  0
    4.2914   -1.0365    0.0000 C   0  0  0  0  0  0  0  0  0  0  0  0
    5.5905   -1.7865    0.0000 C   0  0  0  0  0  0  0  0  0  0  0  0
  1  2  1  0
  2  3  2  0
  3  4  1  0
  4  5  2  0
  5  6  1  0
  6  7  2  0
  6  8  2  0
  6  9  1  0
 10  9  1  6
 10 11  1  0
 11 12  1  0
 11 13  1  0
 11 14  1  0
 10 15  1  0
 15 16  2  0
 15 17  1  0
 17 18  2  0
 18 19  1  0
 19 20  2  0
 20 21  1  0
 20 22  1  0
 22 23  1  0
 23 24  2  0
 23 25  1  0
 25 26  1  0
 26 27  2  0
 27 28  1  0
 28 29  2  0
 29 30  1  0
 29 31  1  0
 31 32  2  0
  5 33  1  0
 33 34  2  0
 34  2  1  0
 19 10  1  0
 32 26  1  0
 25 18  1  0
M  CHG  1  21  -1
M  END
>  <Compound_ID>  (193) 
C09060775

>  <Active>  (193) 
0

>  <Smiles>  (193) 
Nc1ccc(S(=O)(=O)N[C@]2(C(F)(F)F)C(=O)N=C3C2=C([O-])NC(=O)N3c2ccc(F)cc2)cc1

>  <canonical_smi>  (193) 
Nc1ccc(S(=O)(=O)N[C@]2(C(F)(F)F)C(=O)N=C3C2=C([O-])NC(=O)N3c2ccc(F)cc2)cc1

>  <Set>  (193) 
G2 inactive

>  <Set_type>  (193) 
Test

>  <MW>  (193) 
498.39

>  <HBD>  (193) 
3

>  <HBA>  (193) 
6

>  <NRB>  (193) 
4

>  <NR>  (193) 
4

>  <NAR>  (193) 
2

>  <PSA>  (193) 
157.02

>  <Standard Type>  (193) 
nan

>  <Standard Relation>  (193) 
nan

>  <Standard Units>  (193) 
nan

>  <Standard Value>  (193) 
nan

>  <Assay ChEMBL ID>  (193) 
nan

>  <Assay Description>  (193) 
nan

>  <BAO Label>  (193) 
nan

$$$$

     RDKit          2D

 28 31  0  0  0  0  0  0  0  0999 V2000
   -8.9681    0.9033    0.0000 C   0  0  0  0  0  0  0  0  0  0  0  0
   -7.8533   -0.1004    0.0000 O   0  0  0  0  0  0  0  0  0  0  0  0
   -6.4268    0.3631    0.0000 C   0  0  0  0  0  0  0  0  0  0  0  0
   -6.1149    1.8303    0.0000 C   0  0  0  0  0  0  0  0  0  0  0  0
   -4.6883    2.2939    0.0000 C   0  0  0  0  0  0  0  0  0  0  0  0
   -4.3764    3.7611    0.0000 O   0  0  0  0  0  0  0  0  0  0  0  0
   -5.4912    4.7648    0.0000 C   0  0  0  0  0  0  0  0  0  0  0  0
   -3.5736    1.2902    0.0000 C   0  0  0  0  0  0  0  0  0  0  0  0
   -2.1470    1.7537    0.0000 C   0  0  0  0  0  0  0  0  0  0  0  0
   -1.8351    3.2209    0.0000 C   0  0  0  0  0  0  0  0  0  0  0  0
   -0.4086    3.6844    0.0000 C   0  0  0  0  0  0  0  0  0  0  0  0
   -0.0967    5.1517    0.0000 C   0  0  0  0  0  0  0  0  0  0  0  0
    1.3299    5.6152    0.0000 C   0  0  0  0  0  0  0  0  0  0  0  0
    1.6418    7.0824    0.0000 C   0  0  0  0  0  0  0  0  0  0  0  0
    0.5271    8.0861    0.0000 C   0  0  0  0  0  0  0  0  0  0  0  0
    0.8389    9.5533    0.0000 I   0  0  0  0  0  0  0  0  0  0  0  0
   -0.8995    7.6226    0.0000 C   0  0  0  0  0  0  0  0  0  0  0  0
   -1.2114    6.1554    0.0000 C   0  0  0  0  0  0  0  0  0  0  0  0
    0.7062    2.6807    0.0000 N   0  0  0  0  0  0  0  0  0  0  0  0
    0.3943    1.2135    0.0000 C   0  0  0  0  0  0  0  0  0  0  0  0
    1.2760    0.0000    0.0000 N   0  0  0  0  0  4  0  0  0  0  0  0
    0.3943   -1.2135    0.0000 C   0  0  0  0  0  0  0  0  0  0  0  0
   -1.0323   -0.7500    0.0000 N   0  0  0  0  0  0  0  0  0  0  0  0
   -1.0323    0.7500    0.0000 N   0  0  0  0  0  0  0  0  0  0  0  0
   -3.8855   -0.1771    0.0000 C   0  0  0  0  0  0  0  0  0  0  0  0
   -5.3120   -0.6406    0.0000 C   0  0  0  0  0  0  0  0  0  0  0  0
   -5.6239   -2.1078    0.0000 O   0  0  0  0  0  0  0  0  0  0  0  0
   -4.5092   -3.1115    0.0000 C   0  0  0  0  0  0  0  0  0  0  0  0
  1  2  1  0
  2  3  1  0
  3  4  2  0
  4  5  1  0
  5  6  1  0
  6  7  1  0
  5  8  2  0
  9  8  1  6
  9 10  1  0
 10 11  1  0
 11 12  1  6
 12 13  2  0
 13 14  1  0
 14 15  2  0
 15 16  1  0
 15 17  1  0
 17 18  2  0
 11 19  1  0
 19 20  2  0
 20 21  1  0
 21 22  2  0
 22 23  1  0
 23 24  1  0
  8 25  1  0
 25 26  2  0
 26 27  1  0
 27 28  1  0
 26  3  1  0
 24  9  1  0
 18 12  1  0
 24 20  1  0
M  CHG  1  21   1
M  END
>  <Compound_ID>  (194) 
C02916572

>  <Active>  (194) 
0

>  <Smiles>  (194) 
COc1cc(OC)c([C@@H]2C[C@H](c3ccc(I)cc3)N=C3[NH+]=CNN32)cc1OC

>  <canonical_smi>  (194) 
COc1cc(OC)c([C@@H]2C[C@H](c3ccc(I)cc3)N=C3[NH+]=CNN32)cc1OC

>  <Set>  (194) 
G2 inactive

>  <Set_type>  (194) 
Test

>  <MW>  (194) 
493.32

>  <HBD>  (194) 
2

>  <HBA>  (194) 
5

>  <NRB>  (194) 
5

>  <NR>  (194) 
4

>  <NAR>  (194) 
2

>  <PSA>  (194) 
69.29

>  <Standard Type>  (194) 
nan

>  <Standard Relation>  (194) 
nan

>  <Standard Units>  (194) 
nan

>  <Standard Value>  (194) 
nan

>  <Assay ChEMBL ID>  (194) 
nan

>  <Assay Description>  (194) 
nan

>  <BAO Label>  (194) 
nan

$$$$

     RDKit          2D

 30 32  0  0  0  0  0  0  0  0999 V2000
    3.0000   -7.7942    0.0000 O   0  0  0  0  0  0  0  0  0  0  0  0
    1.5000   -7.7942    0.0000 C   0  0  0  0  0  0  0  0  0  0  0  0
    0.7500   -6.4952    0.0000 C   0  0  0  0  0  0  0  0  0  0  0  0
    1.5000   -5.1962    0.0000 C   0  0  0  0  0  0  0  0  0  0  0  0
    0.7500   -3.8971    0.0000 C   0  0  0  0  0  0  0  0  0  0  0  0
    1.5000   -2.5981    0.0000 S   0  0  0  0  0  0  0  0  0  0  0  0
    0.7500   -1.2990    0.0000 C   0  0  0  0  0  0  0  0  0  0  0  0
    1.5000    0.0000    0.0000 C   0  0  0  0  0  0  0  0  0  0  0  0
    0.7500    1.2990    0.0000 C   0  0  0  0  0  0  0  0  0  0  0  0
   -0.7500    1.2990    0.0000 C   0  0  0  0  0  0  0  0  0  0  0  0
   -1.5000    0.0000    0.0000 C   0  0  0  0  0  0  0  0  0  0  0  0
   -0.7500   -1.2990    0.0000 N   0  0  0  0  0  0  0  0  0  0  0  0
    0.7500   -9.0933    0.0000 N   0  0  0  0  0  0  0  0  0  0  0  0
    1.5000  -10.3923    0.0000 N   0  0  0  0  0  4  0  0  0  0  0  0
    0.7500  -11.6913    0.0000 C   0  0  0  0  0  0  0  0  0  0  0  0
    1.5000  -12.9904    0.0000 C   0  0  0  0  0  0  0  0  0  0  0  0
    0.7500  -14.2894    0.0000 C   0  0  0  0  0  0  0  0  0  0  0  0
    1.5000  -15.5885    0.0000 C   0  0  0  0  0  0  0  0  0  0  0  0
    3.0000  -15.5885    0.0000 C   0  0  0  0  0  0  0  0  0  0  0  0
    3.7500  -14.2894    0.0000 C   0  0  0  0  0  0  0  0  0  0  0  0
    3.0000  -12.9904    0.0000 C   0  0  0  0  0  0  0  0  0  0  0  0
    3.7500  -11.6913    0.0000 O   0  0  0  0  0  0  0  0  0  0  0  0
    5.2500  -11.6913    0.0000 C   0  0  0  0  0  0  0  0  0  0  0  0
    6.0000  -10.3923    0.0000 C   0  0  0  0  0  0  0  0  0  0  0  0
    7.5000  -10.3923    0.0000 C   0  0  0  0  0  0  0  0  0  0  0  0
    8.2500   -9.0933    0.0000 C   0  0  0  0  0  0  0  0  0  0  0  0
    7.5000   -7.7942    0.0000 C   0  0  0  0  0  0  0  0  0  0  0  0
    6.0000   -7.7942    0.0000 C   0  0  0  0  0  0  0  0  0  0  0  0
    5.2500   -6.4952    0.0000 Br  0  0  0  0  0  0  0  0  0  0  0  0
    5.2500   -9.0933    0.0000 C   0  0  0  0  0  0  0  0  0  0  0  0
  1  2  2  0
  2  3  1  0
  3  4  1  0
  4  5  1  0
  5  6  1  0
  6  7  1  0
  7  8  2  0
  8  9  1  0
  9 10  2  0
 10 11  1  0
 11 12  2  0
  2 13  1  0
 13 14  2  0
 14 15  1  0
 15 16  1  0
 16 17  2  0
 17 18  1  0
 18 19  2  0
 19 20  1  0
 20 21  2  0
 21 22  1  0
 22 23  1  0
 23 24  1  0
 24 25  2  0
 25 26  1  0
 26 27  2  0
 27 28  1  0
 28 29  1  0
 28 30  2  0
 12  7  1  0
 21 16  1  0
 30 24  1  0
M  CHG  1  14   1
M  END
>  <Compound_ID>  (195) 
C58986306

>  <Active>  (195) 
0

>  <Smiles>  (195) 
O=C(CCCSc1ccccn1)/N=[NH+]/Cc1ccccc1OCc1cccc(Br)c1

>  <canonical_smi>  (195) 
O=C(CCCSc1ccccn1)/N=[NH+]/Cc1ccccc1OCc1cccc(Br)c1

>  <Set>  (195) 
G2 inactive

>  <Set_type>  (195) 
Test

>  <MW>  (195) 
485.43

>  <HBD>  (195) 
1

>  <HBA>  (195) 
4

>  <NRB>  (195) 
10

>  <NR>  (195) 
3

>  <NAR>  (195) 
3

>  <PSA>  (195) 
65.52

>  <Standard Type>  (195) 
nan

>  <Standard Relation>  (195) 
nan

>  <Standard Units>  (195) 
nan

>  <Standard Value>  (195) 
nan

>  <Assay ChEMBL ID>  (195) 
nan

>  <Assay Description>  (195) 
nan

>  <BAO Label>  (195) 
nan

$$$$

     RDKit          2D

 36 39  0  0  0  0  0  0  0  0999 V2000
   -3.8971  -10.3573    0.0000 C   0  0  0  0  0  0  0  0  0  0  0  0
   -2.5981   -9.6073    0.0000 C   0  0  0  0  0  0  0  0  0  0  0  0
   -2.5981   -8.1073    0.0000 N   0  0  0  0  0  4  0  0  0  0  0  0
   -3.8971   -7.3573    0.0000 C   0  0  0  0  0  0  0  0  0  0  0  0
   -5.1962   -8.1073    0.0000 C   0  0  0  0  0  0  0  0  0  0  0  0
   -1.2990   -7.3573    0.0000 C   0  0  0  0  0  0  0  0  0  0  0  0
   -1.2990   -5.8573    0.0000 C   0  0  0  0  0  0  0  0  0  0  0  0
   -0.0000   -5.1073    0.0000 N   0  0  0  0  0  0  0  0  0  0  0  0
    1.2990   -5.8573    0.0000 C   0  0  0  0  0  0  0  0  0  0  0  0
    2.5981   -5.1073    0.0000 O   0  0  0  0  0  0  0  0  0  0  0  0
    1.2990   -7.3573    0.0000 C   0  0  0  0  0  0  0  0  0  0  0  0
   -0.0000   -8.1073    0.0000 C   0  0  0  0  0  0  0  0  0  0  0  0
    0.0000   -9.6073    0.0000 C   0  0  0  0  0  0  0  0  0  0  0  0
    1.2990  -10.3573    0.0000 C   0  0  0  0  0  0  0  0  0  0  0  0
    2.5981   -9.6073    0.0000 C   0  0  0  0  0  0  0  0  0  0  0  0
    3.8971  -10.3573    0.0000 N   0  0  0  0  0  0  0  0  0  0  0  0
    3.8971  -11.8573    0.0000 S   0  0  0  0  0  0  0  0  0  0  0  0
    2.3971  -11.8573    0.0000 O   0  0  0  0  0  0  0  0  0  0  0  0
    5.3971  -11.8573    0.0000 O   0  0  0  0  0  0  0  0  0  0  0  0
    3.8971  -13.3573    0.0000 C   0  0  0  0  0  0  0  0  0  0  0  0
    2.5981  -14.1073    0.0000 C   0  0  0  0  0  0  0  0  0  0  0  0
    2.5981  -15.6073    0.0000 C   0  0  0  0  0  0  0  0  0  0  0  0
    3.8971  -16.3573    0.0000 C   0  0  0  0  0  0  0  0  0  0  0  0
    3.8971  -17.8573    0.0000 C   0  0  0  0  0  0  0  0  0  0  0  0
    5.1962  -15.6073    0.0000 C   0  0  0  0  0  0  0  0  0  0  0  0
    5.1962  -14.1073    0.0000 C   0  0  0  0  0  0  0  0  0  0  0  0
    2.5981   -8.1073    0.0000 C   0  0  0  0  0  0  0  0  0  0  0  0
   -0.0000   -3.6073    0.0000 C   0  0  0  0  0  0  0  0  0  0  0  0
    1.2135   -2.7256    0.0000 N   0  0  0  0  0  0  0  0  0  0  0  0
    0.7500   -1.2990    0.0000 C   0  0  0  0  0  0  0  0  0  0  0  0
    1.5000    0.0000    0.0000 C   0  0  0  0  0  0  0  0  0  0  0  0
    0.7500    1.2990    0.0000 C   0  0  0  0  0  0  0  0  0  0  0  0
   -0.7500    1.2990    0.0000 C   0  0  0  0  0  0  0  0  0  0  0  0
   -1.5000    0.0000    0.0000 C   0  0  0  0  0  0  0  0  0  0  0  0
   -0.7500   -1.2990    0.0000 C   0  0  0  0  0  0  0  0  0  0  0  0
   -1.2135   -2.7256    0.0000 S   0  0  0  0  0  0  0  0  0  0  0  0
  1  2  1  0
  2  3  1  0
  3  4  1  0
  4  5  1  0
  3  6  1  0
  6  7  1  0
  7  8  1  0
  8  9  1  0
  9 10  2  0
  9 11  1  0
 11 12  2  0
 12 13  1  0
 13 14  2  0
 14 15  1  0
 15 16  1  0
 16 17  1  0
 17 18  2  0
 17 19  2  0
 17 20  1  0
 20 21  2  0
 21 22  1  0
 22 23  2  0
 23 24  1  0
 23 25  1  0
 25 26  2  0
 15 27  2  0
  8 28  1  0
 28 29  2  0
 29 30  1  0
 30 31  2  0
 31 32  1  0
 32 33  2  0
 33 34  1  0
 34 35  2  0
 35 36  1  0
 27 11  1  0
 36 28  1  0
 26 20  1  0
 35 30  1  0
M  CHG  1   3   1
M  END
>  <Compound_ID>  (196) 
C36690308

>  <Active>  (196) 
0

>  <Smiles>  (196) 
CC[NH+](CC)CCN(C(=O)c1cccc(NS(=O)(=O)c2ccc(C)cc2)c1)c1nc2ccccc2s1

>  <canonical_smi>  (196) 
CC[NH+](CC)CCN(C(=O)c1cccc(NS(=O)(=O)c2ccc(C)cc2)c1)c1nc2ccccc2s1

>  <Set>  (196) 
G2 inactive

>  <Set_type>  (196) 
Test

>  <MW>  (196) 
523.7

>  <HBD>  (196) 
2

>  <HBA>  (196) 
4

>  <NRB>  (196) 
10

>  <NR>  (196) 
4

>  <NAR>  (196) 
4

>  <PSA>  (196) 
83.81

>  <Standard Type>  (196) 
nan

>  <Standard Relation>  (196) 
nan

>  <Standard Units>  (196) 
nan

>  <Standard Value>  (196) 
nan

>  <Assay ChEMBL ID>  (196) 
nan

>  <Assay Description>  (196) 
nan

>  <BAO Label>  (196) 
nan

$$$$

     RDKit          2D

 37 41  0  0  0  0  0  0  0  0999 V2000
    7.7304    2.7729    0.0000 C   0  0  0  0  0  0  0  0  0  0  0  0
    6.7267    3.8876    0.0000 O   0  0  0  0  0  0  0  0  0  0  0  0
    5.2595    3.5757    0.0000 C   0  0  0  0  0  0  0  0  0  0  0  0
    4.7960    2.1491    0.0000 C   0  0  0  0  0  0  0  0  0  0  0  0
    3.3287    1.8373    0.0000 C   0  0  0  0  0  0  0  0  0  0  0  0
    2.3250    2.9520    0.0000 C   0  0  0  0  0  0  0  0  0  0  0  0
    0.8578    2.6401    0.0000 C   0  0  0  0  0  0  0  0  0  0  0  0
    0.3943    1.2135    0.0000 C   0  0  0  0  0  0  0  0  0  0  0  0
    1.2760    0.0000    0.0000 O   0  0  0  0  0  0  0  0  0  0  0  0
    0.3943   -1.2135    0.0000 C   0  0  0  0  0  0  0  0  0  0  0  0
    0.7062   -2.6807    0.0000 C   0  0  0  0  0  0  0  0  0  0  0  0
    2.1328   -3.1443    0.0000 C   0  0  0  0  0  0  0  0  0  0  0  0
    2.4446   -4.6115    0.0000 N   0  0  0  0  0  4  0  0  0  0  0  0
    1.3299   -5.6152    0.0000 C   0  0  0  0  0  0  0  0  0  0  0  0
    1.6418   -7.0824    0.0000 C   0  0  0  0  0  0  0  0  0  0  0  0
    3.0684   -7.5459    0.0000 N   0  0  0  0  0  0  0  0  0  0  0  0
    3.3802   -9.0132    0.0000 C   0  0  0  0  0  0  0  0  0  0  0  0
    2.2655  -10.0169    0.0000 C   0  0  0  0  0  0  0  0  0  0  0  0
    2.5774  -11.4841    0.0000 C   0  0  0  0  0  0  0  0  0  0  0  0
    4.0040  -11.9476    0.0000 C   0  0  0  0  0  0  0  0  0  0  0  0
    5.1187  -10.9439    0.0000 C   0  0  0  0  0  0  0  0  0  0  0  0
    4.8068   -9.4767    0.0000 C   0  0  0  0  0  0  0  0  0  0  0  0
    5.9215   -8.4730    0.0000 F   0  0  0  0  0  0  0  0  0  0  0  0
    4.1831   -6.5422    0.0000 C   0  0  0  0  0  0  0  0  0  0  0  0
    3.8712   -5.0750    0.0000 C   0  0  0  0  0  0  0  0  0  0  0  0
   -0.4086   -3.6844    0.0000 C   0  0  0  0  0  0  0  0  0  0  0  0
   -0.0967   -5.1517    0.0000 O   0  0  0  0  0  0  0  0  0  0  0  0
   -1.8351   -3.2209    0.0000 C   0  0  0  0  0  0  0  0  0  0  0  0
   -2.1470   -1.7537    0.0000 C   0  0  0  0  0  0  0  0  0  0  0  0
   -3.5736   -1.2902    0.0000 C   0  0  0  0  0  0  0  0  0  0  0  0
   -1.0323   -0.7500    0.0000 C   0  0  0  0  0  0  0  0  0  0  0  0
   -1.0323    0.7500    0.0000 C   0  0  0  0  0  0  0  0  0  0  0  0
   -2.2458    1.6317    0.0000 O   0  0  0  0  0  0  0  0  0  0  0  0
    2.7886    4.3786    0.0000 C   0  0  0  0  0  0  0  0  0  0  0  0
    1.7849    5.4933    0.0000 O   0  0  0  0  0  0  0  0  0  0  0  0
    2.2484    6.9199    0.0000 C   0  0  0  0  0  0  0  0  0  0  0  0
    4.2558    4.6904    0.0000 C   0  0  0  0  0  0  0  0  0  0  0  0
  1  2  1  0
  2  3  1  0
  3  4  2  0
  4  5  1  0
  5  6  2  0
  6  7  1  0
  7  8  2  0
  8  9  1  0
  9 10  1  0
 10 11  2  0
 11 12  1  0
 12 13  1  0
 13 14  1  0
 14 15  1  0
 15 16  1  0
 16 17  1  0
 17 18  2  0
 18 19  1  0
 19 20  2  0
 20 21  1  0
 21 22  2  0
 22 23  1  0
 16 24  1  0
 24 25  1  0
 11 26  1  0
 26 27  1  0
 26 28  2  0
 28 29  1  0
 29 30  1  0
 29 31  2  0
 31 32  1  0
 32 33  2  0
  6 34  1  0
 34 35  1  0
 35 36  1  0
 34 37  2  0
 37  3  1  0
 32  8  1  0
 31 10  1  0
 25 13  1  0
 22 17  1  0
M  CHG  1  13   1
M  END
>  <Compound_ID>  (197) 
C41585382

>  <Active>  (197) 
0

>  <Smiles>  (197) 
COc1ccc(/C=C2\Oc3c(C[NH+]4CCN(c5ccccc5F)CC4)c(O)cc(C)c3C2=O)c(OC)c1

>  <canonical_smi>  (197) 
COc1ccc(/C=C2\Oc3c(C[NH+]4CCN(c5ccccc5F)CC4)c(O)cc(C)c3C2=O)c(OC)c1

>  <Set>  (197) 
G2 inactive

>  <Set_type>  (197) 
Test

>  <MW>  (197) 
505.57

>  <HBD>  (197) 
2

>  <HBA>  (197) 
6

>  <NRB>  (197) 
6

>  <NR>  (197) 
5

>  <NAR>  (197) 
3

>  <PSA>  (197) 
72.67

>  <Standard Type>  (197) 
nan

>  <Standard Relation>  (197) 
nan

>  <Standard Units>  (197) 
nan

>  <Standard Value>  (197) 
nan

>  <Assay ChEMBL ID>  (197) 
nan

>  <Assay Description>  (197) 
nan

>  <BAO Label>  (197) 
nan

$$$$

     RDKit          2D

 24 26  0  0  0  0  0  0  0  0999 V2000
   -0.7225   -6.6638    0.0000 N   0  0  0  0  0  0  0  0  0  0  0  0
   -1.8373   -5.6601    0.0000 C   0  0  0  0  0  0  0  0  0  0  0  0
   -2.9520   -4.6564    0.0000 C   0  0  0  0  0  0  0  0  0  0  0  0
   -4.3786   -5.1199    0.0000 C   0  0  0  0  0  0  0  0  0  0  0  0
   -5.4933   -4.1162    0.0000 C   0  0  0  0  0  0  0  0  0  0  0  0
   -5.1814   -2.6490    0.0000 C   0  0  0  0  0  0  0  0  0  0  0  0
   -6.2961   -1.6453    0.0000 C   0  0  0  0  0  0  0  0  0  0  0  0
   -7.7227   -2.1088    0.0000 C   0  0  0  0  0  0  0  0  0  0  0  0
   -8.8374   -1.1051    0.0000 C   0  0  0  0  0  0  0  0  0  0  0  0
   -9.9521   -0.1014    0.0000 N   0  0  0  0  0  0  0  0  0  0  0  0
   -8.0346   -3.5760    0.0000 C   0  0  0  0  0  0  0  0  0  0  0  0
   -6.9199   -4.5797    0.0000 C   0  0  0  0  0  0  0  0  0  0  0  0
   -2.6401   -3.1891    0.0000 C   0  0  0  0  0  0  0  0  0  0  0  0
   -3.7548   -2.1855    0.0000 O   0  0  0  0  0  0  0  0  0  0  0  0
   -1.2135   -2.7256    0.0000 C   0  0  0  0  0  0  0  0  0  0  0  0
   -0.0000   -3.6073    0.0000 C   0  0  0  0  0  0  0  0  0  0  0  0
    1.2135   -2.7256    0.0000 N   0  0  0  0  0  0  0  0  0  0  0  0
    0.7500   -1.2990    0.0000 C   0  0  0  0  0  0  0  0  0  0  0  0
    1.5000    0.0000    0.0000 C   0  0  0  0  0  0  0  0  0  0  0  0
    0.7500    1.2990    0.0000 C   0  0  0  0  0  0  0  0  0  0  0  0
    1.5000    2.5981    0.0000 F   0  0  0  0  0  0  0  0  0  0  0  0
   -0.7500    1.2990    0.0000 C   0  0  0  0  0  0  0  0  0  0  0  0
   -1.5000    0.0000    0.0000 C   0  0  0  0  0  0  0  0  0  0  0  0
   -0.7500   -1.2990    0.0000 C   0  0  0  0  0  0  0  0  0  0  0  0
  1  2  3  0
  2  3  1  0
  3  4  2  0
  4  5  1  0
  5  6  2  0
  6  7  1  0
  7  8  2  0
  8  9  1  0
  9 10  3  0
  8 11  1  0
 11 12  2  0
  3 13  1  0
 13 14  2  0
 13 15  1  0
 15 16  2  0
 16 17  1  0
 17 18  1  0
 18 19  2  0
 19 20  1  0
 20 21  1  0
 20 22  2  0
 22 23  1  0
 23 24  2  0
 12  5  1  0
 24 15  1  0
 24 18  1  0
M  END
>  <Compound_ID>  (198) 
C40549536

>  <Active>  (198) 
0

>  <Smiles>  (198) 
N#C/C(=C/c1ccc(C#N)cc1)C(=O)c1c[nH]c2cc(F)ccc12

>  <canonical_smi>  (198) 
N#C/C(=C/c1ccc(C#N)cc1)C(=O)c1c[nH]c2cc(F)ccc12

>  <Set>  (198) 
G2 inactive

>  <Set_type>  (198) 
Test

>  <MW>  (198) 
315.31

>  <HBD>  (198) 
1

>  <HBA>  (198) 
3

>  <NRB>  (198) 
3

>  <NR>  (198) 
3

>  <NAR>  (198) 
3

>  <PSA>  (198) 
80.44

>  <Standard Type>  (198) 
nan

>  <Standard Relation>  (198) 
nan

>  <Standard Units>  (198) 
nan

>  <Standard Value>  (198) 
nan

>  <Assay ChEMBL ID>  (198) 
nan

>  <Assay Description>  (198) 
nan

>  <BAO Label>  (198) 
nan

$$$$
