
     RDKit          2D

 16 17  0  0  0  0  0  0  0  0999 V2000
    3.0000    0.0000    0.0000 O   0  0  0  0  0  0  0  0  0  0  0  0
    1.5000    0.0000    0.0000 C   0  0  0  0  0  0  0  0  0  0  0  0
    0.7500   -1.2990    0.0000 C   0  0  0  0  0  0  0  0  0  0  0  0
   -0.7500   -1.2990    0.0000 C   0  0  0  0  0  0  0  0  0  0  0  0
   -1.5000    0.0000    0.0000 C   0  0  0  0  0  0  0  0  0  0  0  0
   -3.0000    0.0000    0.0000 C   0  0  0  0  0  0  0  0  0  0  0  0
   -3.7500    1.2990    0.0000 N   0  0  0  0  0  4  0  0  0  0  0  0
   -5.2500    1.2990    0.0000 C   0  0  0  0  0  0  0  0  0  0  0  0
   -6.0000    2.5981    0.0000 C   0  0  0  0  0  0  0  0  0  0  0  0
   -7.4918    2.7549    0.0000 N   0  0  0  0  0  0  0  0  0  0  0  0
   -7.8037    4.2221    0.0000 N   0  0  0  0  0  0  0  0  0  0  0  0
   -6.5046    4.9721    0.0000 N   0  0  0  0  0  0  0  0  0  0  0  0
   -5.3899    3.9684    0.0000 N   0  0  0  0  0  2  0  0  0  0  0  0
   -0.7500    1.2990    0.0000 C   0  0  0  0  0  0  0  0  0  0  0  0
    0.7500    1.2990    0.0000 C   0  0  0  0  0  0  0  0  0  0  0  0
    1.5000    2.5981    0.0000 Br  0  0  0  0  0  0  0  0  0  0  0  0
  1  2  1  0
  2  3  2  0
  3  4  1  0
  4  5  2  0
  5  6  1  0
  6  7  1  0
  7  8  1  0
  8  9  1  0
  9 10  2  0
 10 11  1  0
 11 12  2  0
 12 13  1  0
  5 14  1  0
 14 15  2  0
 15 16  1  0
 15  2  1  0
 13  9  1  0
M  CHG  2   7   1  13  -1
M  END
>  <Compound_ID>  (1) 
C62702802

>  <Active>  (1) 
0

>  <Smiles>  (1) 
Oc1ccc(C[NH2+]Cc2nnn[n-]2)cc1Br

>  <canonical_smi>  (1) 
Oc1ccc(C[NH2+]Cc2nnn[n-]2)cc1Br

>  <Set>  (1) 
G2 inactive

>  <Set_type>  (1) 
Train

>  <MW>  (1) 
284.12

>  <HBD>  (1) 
2

>  <HBA>  (1) 
5

>  <NRB>  (1) 
4

>  <NR>  (1) 
2

>  <NAR>  (1) 
2

>  <PSA>  (1) 
89.61

>  <Standard Type>  (1) 
nan

>  <Standard Relation>  (1) 
nan

>  <Standard Units>  (1) 
nan

>  <Standard Value>  (1) 
nan

>  <Assay ChEMBL ID>  (1) 
nan

>  <Assay Description>  (1) 
nan

>  <BAO Label>  (1) 
nan

$$$$

     RDKit          2D

 29 32  0  0  0  0  0  0  0  0999 V2000
   -3.7500   -6.4952    0.0000 C   0  0  0  0  0  0  0  0  0  0  0  0
   -5.2500   -6.4952    0.0000 C   0  0  0  0  0  0  0  0  0  0  0  0
   -6.0000   -7.7942    0.0000 N   0  0  0  0  0  0  0  0  0  0  0  0
   -7.5000   -7.7942    0.0000 C   0  0  0  0  0  0  0  0  0  0  0  0
   -8.5037   -8.9089    0.0000 C   0  0  0  0  0  0  0  0  0  0  0  0
   -8.1918  -10.3762    0.0000 C   0  0  0  0  0  0  0  0  0  0  0  0
   -9.3065  -11.3799    0.0000 N   0  0  0  0  0  0  0  0  0  0  0  0
   -6.7652  -10.8397    0.0000 O   0  0  0  0  0  0  0  0  0  0  0  0
   -9.8740   -8.2988    0.0000 N   0  0  0  0  0  0  0  0  0  0  0  0
   -9.7172   -6.8071    0.0000 C   0  0  0  0  0  0  0  0  0  0  0  0
   -8.2500   -6.4952    0.0000 N   0  0  0  0  0  0  0  0  0  0  0  0
   -7.5000   -5.1962    0.0000 C   0  0  0  0  0  0  0  0  0  0  0  0
   -8.2500   -3.8971    0.0000 C   0  0  0  0  0  0  0  0  0  0  0  0
   -6.0000   -5.1962    0.0000 C   0  0  0  0  0  0  0  0  0  0  0  0
   -5.2500   -3.8971    0.0000 C   0  0  0  0  0  0  0  0  0  0  0  0
   -3.7500   -3.8971    0.0000 C   0  0  0  0  0  0  0  0  0  0  0  0
   -3.0000   -2.5981    0.0000 C   0  0  0  0  0  0  0  0  0  0  0  0
   -3.7500   -1.2990    0.0000 O   0  0  0  0  0  0  0  0  0  0  0  0
   -1.5000   -2.5981    0.0000 N   0  0  0  0  0  0  0  0  0  0  0  0
   -0.7500   -3.8971    0.0000 C   0  0  0  0  0  0  0  0  0  0  0  0
    0.7500   -3.8971    0.0000 C   0  0  0  0  0  0  0  0  0  0  0  0
    1.5000   -2.5981    0.0000 C   0  0  0  0  0  0  0  0  0  0  0  0
    3.0000   -2.5981    0.0000 C   0  0  0  0  0  0  0  0  0  0  0  0
    0.7500   -1.2990    0.0000 C   0  0  0  0  0  0  0  0  0  0  0  0
    1.5000    0.0000    0.0000 C   0  0  0  0  0  0  0  0  0  0  0  0
    0.7500    1.2990    0.0000 C   0  0  0  0  0  0  0  0  0  0  0  0
   -0.7500    1.2990    0.0000 C   0  0  0  0  0  0  0  0  0  0  0  0
   -1.5000    0.0000    0.0000 C   0  0  0  0  0  0  0  0  0  0  0  0
   -0.7500   -1.2990    0.0000 C   0  0  0  0  0  0  0  0  0  0  0  0
  1  2  1  0
  2  3  2  0
  3  4  1  0
  4  5  2  0
  5  6  1  0
  6  7  1  0
  6  8  2  0
  5  9  1  0
  9 10  2  0
 10 11  1  0
 11 12  1  0
 12 13  1  0
 12 14  2  0
 14 15  1  0
 15 16  1  0
 16 17  1  0
 17 18  2  0
 17 19  1  0
 19 20  1  0
 20 21  1  0
 21 22  1  0
 22 23  1  6
 22 24  1  0
 24 25  1  1
 25 26  1  0
 26 27  1  0
 27 28  1  0
 29 28  1  1
 14  2  1  0
 29 19  1  0
 11  4  1  0
 29 24  1  0
M  END
>  <Compound_ID>  (2) 
C41907749

>  <Active>  (2) 
0

>  <Smiles>  (2) 
Cc1nc2c(C(N)=O)ncn2c(C)c1CCC(=O)N1CC[C@@H](C)[C@@H]2CCCC[C@@H]21

>  <canonical_smi>  (2) 
Cc1nc2c(C(N)=O)ncn2c(C)c1CCC(=O)N1CC[C@@H](C)[C@@H]2CCCC[C@@H]21

>  <Set>  (2) 
G2 inactive

>  <Set_type>  (2) 
Train

>  <MW>  (2) 
397.52

>  <HBD>  (2) 
1

>  <HBA>  (2) 
4

>  <NRB>  (2) 
4

>  <NR>  (2) 
4

>  <NAR>  (2) 
2

>  <PSA>  (2) 
93.59

>  <Standard Type>  (2) 
nan

>  <Standard Relation>  (2) 
nan

>  <Standard Units>  (2) 
nan

>  <Standard Value>  (2) 
nan

>  <Assay ChEMBL ID>  (2) 
nan

>  <Assay Description>  (2) 
nan

>  <BAO Label>  (2) 
nan

$$$$

     RDKit          2D

 34 37  0  0  0  0  0  0  0  0999 V2000
    5.6260  -10.9888    0.0000 C   0  0  0  0  0  0  0  0  0  0  0  0
    5.3142   -9.5216    0.0000 N   0  0  0  0  0  4  0  0  0  0  0  0
    3.8876   -9.0580    0.0000 C   0  0  0  0  0  0  0  0  0  0  0  0
    6.4289   -8.5179    0.0000 C   0  0  0  0  0  0  0  0  0  0  0  0
    6.1170   -7.0506    0.0000 C   0  0  0  0  0  0  0  0  0  0  0  0
    4.6904   -6.5871    0.0000 N   0  0  0  0  0  0  0  0  0  0  0  0
    4.3786   -5.1199    0.0000 C   0  0  0  0  0  0  0  0  0  0  0  0
    5.4933   -4.1162    0.0000 O   0  0  0  0  0  0  0  0  0  0  0  0
    2.9520   -4.6564    0.0000 C   0  0  0  0  0  0  0  0  0  0  0  0
    2.6401   -3.1891    0.0000 C   0  0  0  0  0  0  0  0  0  0  0  0
    1.2135   -2.7256    0.0000 C   0  0  0  0  0  0  0  0  0  0  0  0
    0.7500   -1.2990    0.0000 C   0  0  0  0  0  0  0  0  0  0  0  0
    1.5000    0.0000    0.0000 C   0  0  0  0  0  0  0  0  0  0  0  0
    0.7500    1.2990    0.0000 C   0  0  0  0  0  0  0  0  0  0  0  0
   -0.7500    1.2990    0.0000 C   0  0  0  0  0  0  0  0  0  0  0  0
   -1.5000    0.0000    0.0000 C   0  0  0  0  0  0  0  0  0  0  0  0
   -0.7500   -1.2990    0.0000 C   0  0  0  0  0  0  0  0  0  0  0  0
   -1.2135   -2.7256    0.0000 N   0  0  0  0  0  4  0  0  0  0  0  0
    0.0000   -3.6073    0.0000 C   0  0  0  0  0  0  0  0  0  0  0  0
    1.8373   -5.6601    0.0000 N   0  0  0  0  0  0  0  0  0  0  0  0
    2.1491   -7.1273    0.0000 C   0  0  0  0  0  0  0  0  0  0  0  0
    3.5757   -7.5908    0.0000 O   0  0  0  0  0  0  0  0  0  0  0  0
    1.0344   -8.1310    0.0000 C   0  0  0  0  0  0  0  0  0  0  0  0
   -0.3922   -7.6675    0.0000 C   0  0  0  0  0  0  0  0  0  0  0  0
   -1.5069   -8.6712    0.0000 C   0  0  0  0  0  0  0  0  0  0  0  0
   -1.1950  -10.1384    0.0000 C   0  0  0  0  0  0  0  0  0  0  0  0
   -2.3097  -11.1421    0.0000 F   0  0  0  0  0  0  0  0  0  0  0  0
    0.2316  -10.6019    0.0000 C   0  0  0  0  0  0  0  0  0  0  0  0
    1.3463   -9.5982    0.0000 C   0  0  0  0  0  0  0  0  0  0  0  0
    7.8555   -8.9814    0.0000 C   0  0  0  0  0  0  0  0  0  0  0  0
    9.0690   -8.0997    0.0000 C   0  0  0  0  0  0  0  0  0  0  0  0
   10.2825   -8.9814    0.0000 C   0  0  0  0  0  0  0  0  0  0  0  0
    9.8190  -10.4080    0.0000 C   0  0  0  0  0  0  0  0  0  0  0  0
    8.3190  -10.4080    0.0000 S   0  0  0  0  0  0  0  0  0  0  0  0
  1  2  1  0
  2  3  1  0
  2  4  1  0
  4  5  1  6
  5  6  1  0
  6  7  1  0
  7  8  2  0
  7  9  1  0
  9 10  1  1
 10 11  1  0
 11 12  2  0
 12 13  1  0
 13 14  2  0
 14 15  1  0
 15 16  2  0
 16 17  1  0
 17 18  2  0
 18 19  1  0
  9 20  1  0
 20 21  1  0
 21 22  2  0
 21 23  1  0
 23 24  2  0
 24 25  1  0
 25 26  2  0
 26 27  1  0
 26 28  1  0
 28 29  2  0
  4 30  1  0
 30 31  2  0
 31 32  1  0
 32 33  2  0
 33 34  1  0
 19 11  1  0
 29 23  1  0
 34 30  1  0
 17 12  1  0
M  CHG  2   2   1  18   1
M  END
>  <Compound_ID>  (3) 
C63807620

>  <Active>  (3) 
0

>  <Smiles>  (3) 
C[NH+](C)[C@H](CNC(=O)[C@H](CC1=c2ccccc2=[NH+]C1)NC(=O)c1ccc(F)cc1)c1cccs1

>  <canonical_smi>  (3) 
C[NH+](C)[C@H](CNC(=O)[C@H](CC1=c2ccccc2=[NH+]C1)NC(=O)c1ccc(F)cc1)c1cccs1

>  <Set>  (3) 
G2 inactive

>  <Set_type>  (3) 
Train

>  <MW>  (3) 
480.61

>  <HBD>  (3) 
4

>  <HBA>  (3) 
2

>  <NRB>  (3) 
9

>  <NR>  (3) 
4

>  <NAR>  (3) 
3

>  <PSA>  (3) 
76.61

>  <Standard Type>  (3) 
nan

>  <Standard Relation>  (3) 
nan

>  <Standard Units>  (3) 
nan

>  <Standard Value>  (3) 
nan

>  <Assay ChEMBL ID>  (3) 
nan

>  <Assay Description>  (3) 
nan

>  <BAO Label>  (3) 
nan

$$$$

     RDKit          2D

 21 23  0  0  0  0  0  0  0  0999 V2000
   -2.5808   -7.6230    0.0000 N   0  0  0  0  0  4  0  0  0  0  0  0
   -2.4240   -6.1312    0.0000 C   0  0  0  0  0  0  0  0  0  0  0  0
   -3.6375   -5.2496    0.0000 C   0  0  0  0  0  0  0  0  0  0  0  0
   -5.0078   -5.8597    0.0000 C   0  0  0  0  0  0  0  0  0  0  0  0
   -5.3197   -7.3269    0.0000 C   0  0  0  0  0  0  0  0  0  0  0  0
   -6.8115   -7.4837    0.0000 N   0  0  0  0  0  0  0  0  0  0  0  0
   -7.4216   -6.1134    0.0000 C   0  0  0  0  0  0  0  0  0  0  0  0
   -6.3069   -5.1097    0.0000 N   0  0  0  0  0  0  0  0  0  0  0  0
   -1.0537   -5.5211    0.0000 C   0  0  0  0  0  0  0  0  0  0  0  0
   -0.7418   -4.0539    0.0000 N   0  0  0  0  0  0  0  0  0  0  0  0
    0.7500   -3.8971    0.0000 C   0  0  0  0  0  0  0  0  0  0  0  0
    1.5000   -2.5981    0.0000 C   0  0  0  0  0  0  0  0  0  0  0  0
    0.7500   -1.2990    0.0000 C   0  0  0  0  0  0  0  0  0  0  0  0
    1.5000    0.0000    0.0000 C   0  0  0  0  0  0  0  0  0  0  0  0
    0.7500    1.2990    0.0000 C   0  0  0  0  0  0  0  0  0  0  0  0
   -0.7500    1.2990    0.0000 C   0  0  0  0  0  0  0  0  0  0  0  0
   -1.5000    2.5981    0.0000 Br  0  0  0  0  0  0  0  0  0  0  0  0
   -1.5000    0.0000    0.0000 C   0  0  0  0  0  0  0  0  0  0  0  0
   -0.7500   -1.2990    0.0000 C   0  0  0  0  0  0  0  0  0  0  0  0
    1.3601   -5.2674    0.0000 N   0  0  0  0  0  0  0  0  0  0  0  0
    0.2454   -6.2711    0.0000 O   0  0  0  0  0  0  0  0  0  0  0  0
  2  1  1  1
  2  3  1  0
  3  4  1  0
  4  5  2  0
  5  6  1  0
  6  7  1  0
  7  8  2  0
  2  9  1  0
  9 10  2  0
 10 11  1  0
 11 12  1  0
 12 13  1  0
 13 14  2  0
 14 15  1  0
 15 16  2  0
 16 17  1  0
 16 18  1  0
 18 19  2  0
 11 20  2  0
 20 21  1  0
  8  4  1  0
 21  9  1  0
 19 13  1  0
M  CHG  1   1   1
M  END
>  <Compound_ID>  (4) 
C37330775

>  <Active>  (4) 
0

>  <Smiles>  (4) 
[NH3+][C@@H](Cc1c[nH]cn1)c1nc(Cc2ccc(Br)cc2)no1

>  <canonical_smi>  (4) 
[NH3+][C@@H](Cc1c[nH]cn1)c1nc(Cc2ccc(Br)cc2)no1

>  <Set>  (4) 
G2 inactive

>  <Set_type>  (4) 
Train

>  <MW>  (4) 
349.21

>  <HBD>  (4) 
2

>  <HBA>  (4) 
4

>  <NRB>  (4) 
5

>  <NR>  (4) 
3

>  <NAR>  (4) 
3

>  <PSA>  (4) 
95.24

>  <Standard Type>  (4) 
nan

>  <Standard Relation>  (4) 
nan

>  <Standard Units>  (4) 
nan

>  <Standard Value>  (4) 
nan

>  <Assay ChEMBL ID>  (4) 
nan

>  <Assay Description>  (4) 
nan

>  <BAO Label>  (4) 
nan

$$$$

     RDKit          2D

 29 33  0  0  0  0  0  0  0  0999 V2000
   -1.6839   -7.2010    0.0000 N   0  0  0  0  0  4  0  0  0  0  0  0
   -1.5271   -5.7092    0.0000 C   0  0  0  0  0  0  0  0  0  0  0  0
   -0.1568   -5.0991    0.0000 N   0  0  0  0  0  0  0  0  0  0  0  0
   -0.0000   -3.6073    0.0000 C   0  0  0  0  0  0  0  0  0  0  0  0
    1.2135   -2.7256    0.0000 N   0  0  0  0  0  0  0  0  0  0  0  0
    0.7500   -1.2990    0.0000 C   0  0  0  0  0  0  0  0  0  0  0  0
    1.5000    0.0000    0.0000 C   0  0  0  0  0  0  0  0  0  0  0  0
    0.7500    1.2990    0.0000 C   0  0  0  0  0  0  0  0  0  0  0  0
   -0.7500    1.2990    0.0000 C   0  0  0  0  0  0  0  0  0  0  0  0
   -1.5000    0.0000    0.0000 C   0  0  0  0  0  0  0  0  0  0  0  0
   -0.7500   -1.2990    0.0000 C   0  0  0  0  0  0  0  0  0  0  0  0
   -1.2135   -2.7256    0.0000 N   0  0  0  0  0  0  0  0  0  0  0  0
   -2.5838   -3.3357    0.0000 C   0  0  0  0  0  0  0  0  0  0  0  0
   -3.7974   -2.4540    0.0000 C   0  0  0  0  0  0  0  0  0  0  0  0
   -3.6406   -0.9623    0.0000 C   0  0  0  0  0  0  0  0  0  0  0  0
   -4.8541   -0.0806    0.0000 C   0  0  0  0  0  0  0  0  0  0  0  0
   -6.2244   -0.6907    0.0000 C   0  0  0  0  0  0  0  0  0  0  0  0
   -7.4379    0.1910    0.0000 N   0  0  0  0  0  0  0  0  0  0  0  0
   -8.8645   -0.2725    0.0000 C   0  0  0  0  0  0  0  0  0  0  0  0
   -9.7462    0.9410    0.0000 C   0  0  0  0  0  0  0  0  0  0  0  0
   -8.8645    2.1545    0.0000 C   0  0  0  0  0  0  0  0  0  0  0  0
   -9.3281    3.5811    0.0000 C   0  0  0  0  0  0  0  0  0  0  0  0
   -9.7916    5.0077    0.0000 F   0  0  0  0  0  0  0  0  0  0  0  0
   -7.9015    4.0446    0.0000 F   0  0  0  0  0  0  0  0  0  0  0  0
  -10.7546    3.1176    0.0000 F   0  0  0  0  0  0  0  0  0  0  0  0
   -7.4379    1.6910    0.0000 N   0  0  0  0  0  0  0  0  0  0  0  0
   -6.3812   -2.1825    0.0000 C   0  0  0  0  0  0  0  0  0  0  0  0
   -5.1677   -3.0642    0.0000 C   0  0  0  0  0  0  0  0  0  0  0  0
   -2.7406   -4.8275    0.0000 N   0  0  0  0  0  0  0  0  0  0  0  0
  1  2  2  0
  2  3  1  0
  3  4  1  0
  4  5  2  0
  5  6  1  0
  6  7  2  0
  7  8  1  0
  8  9  2  0
  9 10  1  0
 10 11  2  0
 11 12  1  0
 12 13  1  0
 13 14  1  6
 14 15  2  0
 15 16  1  0
 16 17  2  0
 17 18  1  0
 18 19  1  0
 19 20  2  0
 20 21  1  0
 21 22  1  0
 22 23  1  0
 22 24  1  0
 22 25  1  0
 21 26  2  0
 17 27  1  0
 27 28  2  0
 13 29  1  0
 29  2  1  0
 12  4  1  0
 28 14  1  0
 11  6  1  0
 26 18  1  0
M  CHG  1   1   1
M  END
>  <Compound_ID>  (5) 
C54681193

>  <Active>  (5) 
0

>  <Smiles>  (5) 
[NH2+]=C1Nc2nc3ccccc3n2[C@@H](c2ccc(-n3ccc(C(F)(F)F)n3)cc2)N1

>  <canonical_smi>  (5) 
[NH2+]=C1Nc2nc3ccccc3n2[C@@H](c2ccc(-n3ccc(C(F)(F)F)n3)cc2)N1

>  <Set>  (5) 
G2 inactive

>  <Set_type>  (5) 
Train

>  <MW>  (5) 
398.37

>  <HBD>  (5) 
3

>  <HBA>  (5) 
4

>  <NRB>  (5) 
2

>  <NR>  (5) 
5

>  <NAR>  (5) 
4

>  <PSA>  (5) 
85.29

>  <Standard Type>  (5) 
nan

>  <Standard Relation>  (5) 
nan

>  <Standard Units>  (5) 
nan

>  <Standard Value>  (5) 
nan

>  <Assay ChEMBL ID>  (5) 
nan

>  <Assay Description>  (5) 
nan

>  <BAO Label>  (5) 
nan

$$$$

     RDKit          2D

 36 41  0  0  0  0  0  0  0  0999 V2000
   -4.4918   -5.3529    0.0000 C   0  0  0  0  0  0  0  0  0  0  0  0
   -3.0000   -5.1962    0.0000 C   0  0  0  0  0  0  0  0  0  0  0  0
   -3.7500   -3.8971    0.0000 C   0  0  0  0  0  0  0  0  0  0  0  0
   -3.0000   -2.5981    0.0000 C   0  0  0  0  0  0  0  0  0  0  0  0
   -1.5000   -2.5981    0.0000 C   0  0  0  0  0  0  0  0  0  0  0  0
   -0.7500   -3.8971    0.0000 C   0  0  0  0  0  0  0  0  0  0  0  0
    0.7500   -3.8971    0.0000 C   0  0  0  0  0  0  0  0  0  0  0  0
    1.5000   -2.5981    0.0000 C   0  0  0  0  0  0  0  0  0  0  0  0
    0.7500   -1.2990    0.0000 C   0  0  0  0  0  0  0  0  0  0  0  0
    2.2500   -1.2990    0.0000 O   0  0  0  0  0  0  0  0  0  0  0  0
    1.5000    0.0000    0.0000 C   0  0  0  0  0  0  0  0  0  0  0  0
    0.7500    1.2990    0.0000 C   0  0  0  0  0  0  0  0  0  0  0  0
    1.5000    2.5981    0.0000 O   0  0  0  0  0  0  0  0  0  0  0  0
   -0.7500    1.2990    0.0000 C   0  0  0  0  0  0  0  0  0  0  0  0
   -1.5000    0.0000    0.0000 C   0  0  0  0  0  0  0  0  0  0  0  0
   -0.7500   -1.2990    0.0000 C   0  0  0  0  0  0  0  0  0  0  0  0
   -2.2500   -1.2990    0.0000 C   0  0  0  0  0  0  0  0  0  0  0  0
   -3.0000    0.0000    0.0000 N   0  0  0  0  0  0  0  0  0  0  0  0
   -4.5000    0.0000    0.0000 N   0  0  0  0  0  0  0  0  0  0  0  0
   -5.2500    1.2990    0.0000 C   0  0  0  0  0  0  0  0  0  0  0  0
   -4.5000    2.5981    0.0000 C   0  0  0  0  0  0  0  0  0  0  0  0
   -5.2500    3.8971    0.0000 C   0  0  0  0  0  0  0  0  0  0  0  0
   -6.7500    3.8971    0.0000 C   0  0  0  0  0  0  0  0  0  0  0  0
   -7.5000    2.5981    0.0000 C   0  0  0  0  0  0  0  0  0  0  0  0
   -6.7500    1.2990    0.0000 C   0  0  0  0  0  0  0  0  0  0  0  0
   -1.5000   -5.1962    0.0000 C   0  0  0  0  0  0  0  0  0  0  0  0
   -0.0082   -5.3529    0.0000 O   0  0  0  0  0  0  0  0  0  0  0  0
   -1.0365   -6.6227    0.0000 C   0  0  0  0  0  0  0  0  0  0  0  0
   -2.2500   -7.5044    0.0000 C   0  0  0  0  0  0  0  0  0  0  0  0
   -3.4635   -6.6227    0.0000 C   0  0  0  0  0  0  0  0  0  0  0  0
   -4.8901   -7.0863    0.0000 C   0  0  0  0  0  0  0  0  0  0  0  0
   -5.3536   -8.5128    0.0000 C   0  0  0  0  0  0  0  0  0  0  0  0
   -6.8536   -8.5128    0.0000 C   0  0  0  0  0  0  0  0  0  0  0  0
   -7.7353   -9.7264    0.0000 O   0  0  0  0  0  0  0  0  0  0  0  0
   -7.3172   -7.0863    0.0000 O   0  0  0  0  0  0  0  0  0  0  0  0
   -6.1036   -6.2046    0.0000 C   0  0  0  0  0  0  0  0  0  0  0  0
  2  1  1  6
  2  3  1  0
  3  4  1  0
  5  4  1  1
  5  6  1  0
  6  7  1  6
  7  8  1  0
  8  9  1  0
  9 10  1  1
  9 11  1  0
 11 12  1  0
 12 13  1  1
 12 14  1  0
 14 15  1  0
 15 16  1  0
 16 17  1  6
 17 18  2  0
 18 19  1  0
 19 20  1  0
 20 21  2  0
 21 22  1  0
 22 23  2  0
 23 24  1  0
 24 25  2  0
  6 26  1  0
 26 27  1  6
 26 28  1  0
 28 29  1  0
 29 30  1  0
 30 31  1  6
 31 32  2  0
 32 33  1  0
 33 34  2  0
 33 35  1  0
 35 36  1  0
 26  2  1  0
 36 31  1  0
 30  2  1  0
 16  5  1  0
 25 20  1  0
 16  9  1  0
M  END
>  <Compound_ID>  (6) 
C43867027

>  <Active>  (6) 
0

>  <Smiles>  (6) 
C[C@]12CC[C@@H]3[C@H](CC[C@@]4(O)C[C@H](O)CC[C@]34/C=N/Nc3ccccc3)[C@@]1(O)CC[C@@H]2C1=CC(=O)OC1

>  <canonical_smi>  (6) 
C[C@]12CC[C@@H]3[C@H](CC[C@@]4(O)C[C@H](O)CC[C@]34/C=N/Nc3ccccc3)[C@@]1(O)CC[C@@H]2C1=CC(=O)OC1

>  <Set>  (6) 
G2 inactive

>  <Set_type>  (6) 
Train

>  <MW>  (6) 
494.63

>  <HBD>  (6) 
4

>  <HBA>  (6) 
6

>  <NRB>  (6) 
4

>  <NR>  (6) 
6

>  <NAR>  (6) 
1

>  <PSA>  (6) 
111.38

>  <Standard Type>  (6) 
nan

>  <Standard Relation>  (6) 
nan

>  <Standard Units>  (6) 
nan

>  <Standard Value>  (6) 
nan

>  <Assay ChEMBL ID>  (6) 
nan

>  <Assay Description>  (6) 
nan

>  <BAO Label>  (6) 
nan

$$$$

     RDKit          2D

 20 21  0  0  0  0  0  0  0  0999 V2000
   -0.8113  -11.2427    0.0000 N   0  0  0  0  0  4  0  0  0  0  0  0
    0.4022  -10.3610    0.0000 C   0  0  0  0  0  0  0  0  0  0  0  0
    0.2454   -8.8692    0.0000 C   0  0  0  0  0  0  0  0  0  0  0  0
    1.3601   -7.8655    0.0000 C   0  0  0  0  0  0  0  0  0  0  0  0
    0.7500   -6.4952    0.0000 N   0  0  0  0  0  0  0  0  0  0  0  0
    1.5000   -5.1962    0.0000 C   0  0  0  0  0  0  0  0  0  0  0  0
    0.7500   -3.8971    0.0000 C   0  0  0  0  0  0  0  0  0  0  0  0
   -0.7500   -3.8971    0.0000 O   0  0  0  0  0  0  0  0  0  0  0  0
    1.5000   -2.5981    0.0000 N   0  0  0  0  0  0  0  0  0  0  0  0
    0.7500   -1.2990    0.0000 C   0  0  0  0  0  0  0  0  0  0  0  0
    1.5000    0.0000    0.0000 C   0  0  0  0  0  0  0  0  0  0  0  0
    3.0000    0.0000    0.0000 Br  0  0  0  0  0  0  0  0  0  0  0  0
    0.7500    1.2990    0.0000 C   0  0  0  0  0  0  0  0  0  0  0  0
   -0.7500    1.2990    0.0000 C   0  0  0  0  0  0  0  0  0  0  0  0
   -1.5000    2.5981    0.0000 Br  0  0  0  0  0  0  0  0  0  0  0  0
   -1.5000    0.0000    0.0000 C   0  0  0  0  0  0  0  0  0  0  0  0
   -0.7500   -1.2990    0.0000 C   0  0  0  0  0  0  0  0  0  0  0  0
   -1.5000   -2.5981    0.0000 Br  0  0  0  0  0  0  0  0  0  0  0  0
   -0.7418   -6.6520    0.0000 N   0  0  0  0  0  0  0  0  0  0  0  0
   -1.0537   -8.1192    0.0000 N   0  0  0  0  0  0  0  0  0  0  0  0
  1  2  1  0
  2  3  1  0
  3  4  2  0
  4  5  1  0
  5  6  1  0
  6  7  1  0
  7  8  2  0
  7  9  1  0
  9 10  1  0
 10 11  2  0
 11 12  1  0
 11 13  1  0
 13 14  2  0
 14 15  1  0
 14 16  1  0
 16 17  2  0
 17 18  1  0
  5 19  1  0
 19 20  2  0
 20  3  1  0
 17 10  1  0
M  CHG  1   1   1
M  END
>  <Compound_ID>  (7) 
C50224228

>  <Active>  (7) 
0

>  <Smiles>  (7) 
[NH3+]Cc1cn(CC(=O)Nc2c(Br)cc(Br)cc2Br)nn1

>  <canonical_smi>  (7) 
[NH3+]Cc1cn(CC(=O)Nc2c(Br)cc(Br)cc2Br)nn1

>  <Set>  (7) 
G2 inactive

>  <Set_type>  (7) 
Train

>  <MW>  (7) 
468.96

>  <HBD>  (7) 
2

>  <HBA>  (7) 
3

>  <NRB>  (7) 
4

>  <NR>  (7) 
2

>  <NAR>  (7) 
2

>  <PSA>  (7) 
87.45

>  <Standard Type>  (7) 
nan

>  <Standard Relation>  (7) 
nan

>  <Standard Units>  (7) 
nan

>  <Standard Value>  (7) 
nan

>  <Assay ChEMBL ID>  (7) 
nan

>  <Assay Description>  (7) 
nan

>  <BAO Label>  (7) 
nan

$$$$

     RDKit          2D

 18 20  0  0  0  0  0  0  0  0999 V2000
    3.0000    0.0000    0.0000 N   0  0  0  0  0  0  0  0  0  0  0  0
    1.5000    0.0000    0.0000 C   0  0  0  0  0  0  0  0  0  0  0  0
    0.7500   -1.2990    0.0000 C   0  0  0  0  0  0  0  0  0  0  0  0
   -0.7500   -1.2990    0.0000 C   0  0  0  0  0  0  0  0  0  0  0  0
   -1.5000    0.0000    0.0000 C   0  0  0  0  0  0  0  0  0  0  0  0
   -3.0000    0.0000    0.0000 N   0  0  0  0  0  0  0  0  0  0  0  0
   -3.7500    1.2990    0.0000 C   0  0  0  0  0  0  0  0  0  0  0  0
   -5.2500    1.2990    0.0000 N   0  0  0  0  0  0  0  0  0  0  0  0
   -6.0000    2.5981    0.0000 C   0  0  0  0  0  0  0  0  0  0  0  0
   -7.5000    2.5981    0.0000 C   0  0  0  0  0  0  0  0  0  0  0  0
   -8.3817    1.3846    0.0000 C   0  0  0  0  0  0  0  0  0  0  0  0
   -9.8083    1.8481    0.0000 N   0  0  0  0  0  0  0  0  0  0  0  0
   -9.8083    3.3481    0.0000 N   0  0  0  0  0  0  0  0  0  0  0  0
   -8.3817    3.8116    0.0000 C   0  0  0  0  0  0  0  0  0  0  0  0
   -3.0000    2.5981    0.0000 C   0  0  0  0  0  0  0  0  0  0  0  0
   -1.5000    2.5981    0.0000 C   0  0  0  0  0  0  0  0  0  0  0  0
   -0.7500    1.2990    0.0000 C   0  0  0  0  0  0  0  0  0  0  0  0
    0.7500    1.2990    0.0000 C   0  0  0  0  0  0  0  0  0  0  0  0
  1  2  1  0
  2  3  2  0
  3  4  1  0
  4  5  2  0
  5  6  1  0
  6  7  2  0
  7  8  1  0
  8  9  1  0
  9 10  1  0
 10 11  1  0
 11 12  2  0
 12 13  1  0
 13 14  1  0
  7 15  1  0
 15 16  2  0
 16 17  1  0
 17 18  2  0
 18  2  1  0
 17  5  1  0
 14 10  2  0
M  END
>  <Compound_ID>  (8) 
C42358618

>  <Active>  (8) 
0

>  <Smiles>  (8) 
Nc1ccc2nc(NCc3cn[nH]c3)ccc2c1

>  <canonical_smi>  (8) 
Nc1ccc2nc(NCc3cn[nH]c3)ccc2c1

>  <Set>  (8) 
G2 inactive

>  <Set_type>  (8) 
Train

>  <MW>  (8) 
239.28

>  <HBD>  (8) 
3

>  <HBA>  (8) 
4

>  <NRB>  (8) 
3

>  <NR>  (8) 
3

>  <NAR>  (8) 
3

>  <PSA>  (8) 
79.62

>  <Standard Type>  (8) 
nan

>  <Standard Relation>  (8) 
nan

>  <Standard Units>  (8) 
nan

>  <Standard Value>  (8) 
nan

>  <Assay ChEMBL ID>  (8) 
nan

>  <Assay Description>  (8) 
nan

>  <BAO Label>  (8) 
nan

$$$$

     RDKit          2D

 20 22  0  0  0  0  0  0  0  0999 V2000
   -4.9140    5.6597    0.0000 N   0  0  0  0  0  0  0  0  0  0  0  0
   -4.1640    4.3606    0.0000 C   0  0  0  0  0  0  0  0  0  0  0  0
   -3.4140    3.0616    0.0000 N   0  0  0  0  0  0  0  0  0  0  0  0
   -4.1640    1.7626    0.0000 C   0  0  0  0  0  0  0  0  0  0  0  0
   -3.4140    0.4635    0.0000 N   0  0  0  0  0  0  0  0  0  0  0  0
   -1.9140    0.4635    0.0000 C   0  0  0  0  0  0  0  0  0  0  0  0
   -1.0323    1.6771    0.0000 C   0  0  0  0  0  0  0  0  0  0  0  0
    0.3943    1.2135    0.0000 C   0  0  0  0  0  0  0  0  0  0  0  0
    1.2760    0.0000    0.0000 C   0  0  0  0  0  0  0  0  0  0  0  0
    0.3943   -1.2135    0.0000 C   0  0  0  0  0  0  0  0  0  0  0  0
   -1.0323   -0.7500    0.0000 C   0  0  0  0  0  0  0  0  0  0  0  0
   -1.0323    0.7500    0.0000 C   0  0  0  0  0  0  0  0  0  0  0  0
   -5.6640    1.7626    0.0000 N   0  0  0  0  0  0  0  0  0  0  0  0
   -6.4140    3.0616    0.0000 C   0  0  0  0  0  0  0  0  0  0  0  0
   -5.6640    4.3606    0.0000 C   0  0  0  0  0  0  0  0  0  0  0  0
   -6.4140    5.6597    0.0000 C   0  0  0  0  0  0  0  0  0  0  0  0
   -7.9140    5.6597    0.0000 C   0  0  0  0  0  0  0  0  0  0  0  0
   -8.6640    6.9587    0.0000 N   0  0  0  0  0  0  0  0  0  0  0  0
   -8.6640    4.3606    0.0000 N   0  0  0  0  0  0  0  0  0  0  0  0
   -7.9140    3.0616    0.0000 C   0  0  0  0  0  0  0  0  0  0  0  0
  1  2  3  0
  2  3  1  0
  3  4  1  0
  4  5  2  0
  6  5  1  6
  6  7  1  0
  8  7  1  6
  8  9  1  0
  9 10  1  0
 11 10  1  6
 11 12  1  0
  4 13  1  0
 13 14  1  0
 14 15  2  0
 15 16  1  0
 16 17  2  0
 17 18  1  0
 17 19  1  0
 19 20  2  0
 11  6  1  0
 20 14  1  0
 12  8  1  0
M  END
>  <Compound_ID>  (9) 
C13737416

>  <Active>  (9) 
0

>  <Smiles>  (9) 
N#CN/C(=N\[C@@H]1C[C@@H]2CC[C@H]1C2)Nc1ccc(N)nc1

>  <canonical_smi>  (9) 
N#CN/C(=N\[C@@H]1C[C@@H]2CC[C@H]1C2)Nc1ccc(N)nc1

>  <Set>  (9) 
G2 inactive

>  <Set_type>  (9) 
Train

>  <MW>  (9) 
270.34

>  <HBD>  (9) 
3

>  <HBA>  (9) 
5

>  <NRB>  (9) 
2

>  <NR>  (9) 
3

>  <NAR>  (9) 
1

>  <PSA>  (9) 
99.12

>  <Standard Type>  (9) 
nan

>  <Standard Relation>  (9) 
nan

>  <Standard Units>  (9) 
nan

>  <Standard Value>  (9) 
nan

>  <Assay ChEMBL ID>  (9) 
nan

>  <Assay Description>  (9) 
nan

>  <BAO Label>  (9) 
nan

$$$$

     RDKit          2D

 24 27  0  0  0  0  0  0  0  0999 V2000
    3.5757   -7.5908    0.0000 O   0  0  0  0  0  0  0  0  0  0  0  0
    4.6904   -6.5871    0.0000 C   0  0  0  0  0  0  0  0  0  0  0  0
    4.3786   -5.1199    0.0000 N   0  0  0  0  0  0  0  0  0  0  0  0
    2.9520   -4.6564    0.0000 C   0  0  0  0  0  0  0  0  0  0  0  0
    2.6401   -3.1891    0.0000 C   0  0  0  0  0  0  0  0  0  0  0  0
    1.2135   -2.7256    0.0000 C   0  0  0  0  0  0  0  0  0  0  0  0
   -0.0000   -3.6073    0.0000 N   0  0  0  0  0  0  0  0  0  0  0  0
   -1.2135   -2.7256    0.0000 N   0  0  0  0  0  0  0  0  0  0  0  0
   -0.7500   -1.2990    0.0000 C   0  0  0  0  0  0  0  0  0  0  0  0
    0.7500   -1.2990    0.0000 C   0  0  0  0  0  0  0  0  0  0  0  0
    1.5000    0.0000    0.0000 C   0  0  0  0  0  0  0  0  0  0  0  0
    0.7500    1.2990    0.0000 C   0  0  0  0  0  0  0  0  0  0  0  0
   -0.7500    1.2990    0.0000 C   0  0  0  0  0  0  0  0  0  0  0  0
   -1.5000    0.0000    0.0000 C   0  0  0  0  0  0  0  0  0  0  0  0
    6.1170   -7.0506    0.0000 N   0  0  0  0  0  0  0  0  0  0  0  0
    6.4289   -8.5179    0.0000 C   0  0  0  0  0  0  0  0  0  0  0  0
    7.7992   -9.1280    0.0000 N   0  0  0  0  0  0  0  0  0  0  0  0
    7.6424  -10.6198    0.0000 N   0  0  0  0  0  0  0  0  0  0  0  0
    6.1752  -10.9316    0.0000 C   0  0  0  0  0  0  0  0  0  0  0  0
    5.5651  -12.3019    0.0000 C   0  0  0  0  0  0  0  0  0  0  0  0
    4.1647  -12.8395    0.0000 C   0  0  0  0  0  0  0  0  0  0  0  0
    4.7023  -14.2399    0.0000 C   0  0  0  0  0  0  0  0  0  0  0  0
    6.1026  -13.7023    0.0000 C   0  0  0  0  0  0  0  0  0  0  0  0
    5.4252   -9.6326    0.0000 S   0  0  0  0  0  0  0  0  0  0  0  0
  1  2  2  0
  2  3  1  0
  3  4  1  0
  4  5  1  0
  5  6  1  0
  6  7  1  0
  7  8  1  0
  8  9  2  0
  9 10  1  0
 10 11  1  0
 11 12  1  0
 12 13  1  0
 13 14  1  0
  2 15  1  0
 15 16  1  0
 16 17  2  0
 17 18  1  0
 18 19  1  0
 19 20  1  6
 20 21  1  0
 21 22  1  0
 22 23  1  0
 19 24  1  0
 10  6  2  0
 24 16  1  0
 14  9  1  0
 23 20  1  0
M  END
>  <Compound_ID>  (10) 
C39490024

>  <Active>  (10) 
0

>  <Smiles>  (10) 
O=C(NCCc1[nH]nc2c1CCCC2)NC1=NN[C@H](C2CCC2)S1

>  <canonical_smi>  (10) 
O=C(NCCc1[nH]nc2c1CCCC2)NC1=NN[C@H](C2CCC2)S1

>  <Set>  (10) 
G2 inactive

>  <Set_type>  (10) 
Train

>  <MW>  (10) 
348.48

>  <HBD>  (10) 
4

>  <HBA>  (10) 
4

>  <NRB>  (10) 
4

>  <NR>  (10) 
4

>  <NAR>  (10) 
1

>  <PSA>  (10) 
94.2

>  <Standard Type>  (10) 
nan

>  <Standard Relation>  (10) 
nan

>  <Standard Units>  (10) 
nan

>  <Standard Value>  (10) 
nan

>  <Assay ChEMBL ID>  (10) 
nan

>  <Assay Description>  (10) 
nan

>  <BAO Label>  (10) 
nan

$$$$

     RDKit          2D

 18 19  0  0  0  0  0  0  0  0999 V2000
    2.2500   -6.4952    0.0000 C   0  0  0  0  0  0  0  0  0  0  0  0
    1.5000   -5.1962    0.0000 C   0  0  0  0  0  0  0  0  0  0  0  0
    2.2500   -3.8971    0.0000 N   0  0  0  0  0  0  0  0  0  0  0  0
    1.5000   -2.5981    0.0000 S   0  0  0  0  0  0  0  0  0  0  0  0
    2.7990   -1.8481    0.0000 O   0  0  0  0  0  0  0  0  0  0  0  0
    0.2010   -3.3481    0.0000 O   0  0  0  0  0  0  0  0  0  0  0  0
    0.7500   -1.2990    0.0000 C   0  0  0  0  0  0  0  0  0  0  0  0
    1.5000    0.0000    0.0000 C   0  0  0  0  0  0  0  0  0  0  0  0
    0.7500    1.2990    0.0000 C   0  0  0  0  0  0  0  0  0  0  0  0
    1.5000    2.5981    0.0000 Br  0  0  0  0  0  0  0  0  0  0  0  0
   -0.7500    1.2990    0.0000 C   0  0  0  0  0  0  0  0  0  0  0  0
   -1.5000    0.0000    0.0000 N   0  0  0  0  0  0  0  0  0  0  0  0
   -0.7500   -1.2990    0.0000 C   0  0  0  0  0  0  0  0  0  0  0  0
   -1.5000   -2.5981    0.0000 N   0  0  0  0  0  0  0  0  0  0  0  0
   -3.0000   -2.5981    0.0000 N   0  0  0  0  0  0  0  0  0  0  0  0
   -0.0000   -5.1962    0.0000 C   0  0  0  0  0  0  0  0  0  0  0  0
   -1.2990   -5.9462    0.0000 C   0  0  0  0  0  0  0  0  0  0  0  0
   -1.2990   -4.4462    0.0000 C   0  0  0  0  0  0  0  0  0  0  0  0
  2  1  1  6
  2  3  1  0
  3  4  1  0
  4  5  2  0
  4  6  2  0
  4  7  1  0
  7  8  2  0
  8  9  1  0
  9 10  1  0
  9 11  2  0
 11 12  1  0
 12 13  2  0
 13 14  1  0
 14 15  1  0
  2 16  1  0
 16 17  1  0
 17 18  1  0
 13  7  1  0
 18 16  1  0
M  END
>  <Compound_ID>  (11) 
C41070077

>  <Active>  (11) 
0

>  <Smiles>  (11) 
C[C@@H](NS(=O)(=O)c1cc(Br)cnc1NN)C1CC1

>  <canonical_smi>  (11) 
C[C@@H](NS(=O)(=O)c1cc(Br)cnc1NN)C1CC1

>  <Set>  (11) 
G2 inactive

>  <Set_type>  (11) 
Train

>  <MW>  (11) 
335.23

>  <HBD>  (11) 
3

>  <HBA>  (11) 
5

>  <NRB>  (11) 
5

>  <NR>  (11) 
2

>  <NAR>  (11) 
1

>  <PSA>  (11) 
97.11

>  <Standard Type>  (11) 
nan

>  <Standard Relation>  (11) 
nan

>  <Standard Units>  (11) 
nan

>  <Standard Value>  (11) 
nan

>  <Assay ChEMBL ID>  (11) 
nan

>  <Assay Description>  (11) 
nan

>  <BAO Label>  (11) 
nan

$$$$

     RDKit          2D

 24 25  0  0  0  0  0  0  0  0999 V2000
    3.0000    0.0000    0.0000 C   0  0  0  0  0  0  0  0  0  0  0  0
    1.5000    0.0000    0.0000 N   0  0  0  0  0  0  0  0  0  0  0  0
    0.7500   -1.2990    0.0000 C   0  0  0  0  0  0  0  0  0  0  0  0
   -0.7500   -1.2990    0.0000 C   0  0  0  0  0  0  0  0  0  0  0  0
   -1.5000   -2.5981    0.0000 C   0  0  0  0  0  0  0  0  0  0  0  0
   -2.2500   -3.8971    0.0000 F   0  0  0  0  0  0  0  0  0  0  0  0
   -2.7990   -1.8481    0.0000 F   0  0  0  0  0  0  0  0  0  0  0  0
   -0.2010   -3.3481    0.0000 F   0  0  0  0  0  0  0  0  0  0  0  0
   -1.5000    0.0000    0.0000 C   0  0  0  0  0  0  0  0  0  0  0  0
   -0.7500    1.2990    0.0000 C   0  0  0  0  0  0  0  0  0  0  0  0
    0.7500    1.2990    0.0000 C   0  0  0  0  0  0  0  0  0  0  0  0
    1.5000    2.5981    0.0000 C   0  0  0  0  0  0  0  0  0  0  0  0
    0.7500    3.8971    0.0000 C   0  0  0  0  0  0  0  0  0  0  0  0
   -0.0000    5.1962    0.0000 N   0  0  0  0  0  0  0  0  0  0  0  0
    3.0000    2.5981    0.0000 C   0  0  0  0  0  0  0  0  0  0  0  0
    3.7500    1.2990    0.0000 O   0  0  0  0  0  0  0  0  0  0  0  0
    3.7500    3.8971    0.0000 N   0  0  0  0  0  0  0  0  0  0  0  0
    5.2500    3.8971    0.0000 C   0  0  0  0  0  0  0  0  0  0  0  0
    6.0000    2.5981    0.0000 C   0  0  0  0  0  0  0  0  0  0  0  0
    7.5000    2.5981    0.0000 C   0  0  0  0  0  0  0  0  0  0  0  0
    8.2500    3.8971    0.0000 C   0  0  0  0  0  0  0  0  0  0  0  0
    7.5000    5.1962    0.0000 C   0  0  0  0  0  0  0  0  0  0  0  0
    6.0000    5.1962    0.0000 C   0  0  0  0  0  0  0  0  0  0  0  0
    5.2500    6.4952    0.0000 F   0  0  0  0  0  0  0  0  0  0  0  0
  1  2  1  0
  2  3  1  0
  3  4  2  0
  4  5  1  0
  5  6  1  0
  5  7  1  0
  5  8  1  0
  4  9  1  0
  9 10  2  0
 10 11  1  0
 11 12  2  0
 12 13  1  0
 13 14  3  0
 12 15  1  0
 15 16  2  0
 15 17  1  0
 17 18  1  0
 18 19  2  0
 19 20  1  0
 20 21  2  0
 21 22  1  0
 22 23  2  0
 23 24  1  0
 11  2  1  0
 23 18  1  0
M  END
>  <Compound_ID>  (12) 
C12559281

>  <Active>  (12) 
0

>  <Smiles>  (12) 
CN1C=C(C(F)(F)F)C=C/C1=C(\C#N)C(=O)Nc1ccccc1F

>  <canonical_smi>  (12) 
CN1C=C(C(F)(F)F)C=C/C1=C(\C#N)C(=O)Nc1ccccc1F

>  <Set>  (12) 
G2 inactive

>  <Set_type>  (12) 
Train

>  <MW>  (12) 
337.28

>  <HBD>  (12) 
1

>  <HBA>  (12) 
3

>  <NRB>  (12) 
2

>  <NR>  (12) 
2

>  <NAR>  (12) 
1

>  <PSA>  (12) 
56.13

>  <Standard Type>  (12) 
nan

>  <Standard Relation>  (12) 
nan

>  <Standard Units>  (12) 
nan

>  <Standard Value>  (12) 
nan

>  <Assay ChEMBL ID>  (12) 
nan

>  <Assay Description>  (12) 
nan

>  <BAO Label>  (12) 
nan

$$$$

     RDKit          2D

 23 25  0  0  0  0  0  0  0  0999 V2000
    2.6401   -3.1891    0.0000 C   0  0  0  0  0  0  0  0  0  0  0  0
    1.2135   -2.7256    0.0000 C   0  0  0  0  0  0  0  0  0  0  0  0
    0.7500   -1.2990    0.0000 C   0  0  0  0  0  0  0  0  0  0  0  0
    1.5000    0.0000    0.0000 C   0  0  0  0  0  0  0  0  0  0  0  0
    3.0000    0.0000    0.0000 O   0  0  0  0  0  0  0  0  0  0  0  0
    0.7500    1.2990    0.0000 N   0  0  0  0  0  0  0  0  0  0  0  0
   -0.7500    1.2990    0.0000 C   0  0  0  0  0  0  0  0  0  0  0  0
   -1.5000    2.5981    0.0000 C   0  0  0  0  0  0  0  0  0  0  0  0
   -0.7500    3.8971    0.0000 C   0  0  0  0  0  0  0  0  0  0  0  0
   -3.0000    2.5981    0.0000 N   0  0  0  0  0  0  0  0  0  0  0  0
   -3.7500    3.8971    0.0000 C   0  0  0  0  0  0  0  0  0  0  0  0
   -3.0000    5.1962    0.0000 C   0  0  0  0  0  0  0  0  0  0  0  0
   -3.7500    6.4952    0.0000 C   0  0  0  0  0  0  0  0  0  0  0  0
   -5.2500    6.4952    0.0000 C   0  0  0  0  0  0  0  0  0  0  0  0
   -6.0000    7.7942    0.0000 F   0  0  0  0  0  0  0  0  0  0  0  0
   -6.0000    5.1962    0.0000 C   0  0  0  0  0  0  0  0  0  0  0  0
   -7.5000    5.1962    0.0000 Cl  0  0  0  0  0  0  0  0  0  0  0  0
   -5.2500    3.8971    0.0000 C   0  0  0  0  0  0  0  0  0  0  0  0
   -1.5000    0.0000    0.0000 N   0  0  0  0  0  0  0  0  0  0  0  0
   -0.7500   -1.2990    0.0000 C   0  0  0  0  0  0  0  0  0  0  0  0
   -1.2135   -2.7256    0.0000 S   0  0  0  0  0  0  0  0  0  0  0  0
   -0.0000   -3.6073    0.0000 C   0  0  0  0  0  0  0  0  0  0  0  0
   -0.0000   -5.1073    0.0000 C   0  0  0  0  0  0  0  0  0  0  0  0
  1  2  1  0
  2  3  2  0
  3  4  1  0
  4  5  2  0
  4  6  1  0
  6  7  2  0
  7  8  1  0
  8  9  1  1
  8 10  1  0
 10 11  1  0
 11 12  2  0
 12 13  1  0
 13 14  2  0
 14 15  1  0
 14 16  1  0
 16 17  1  0
 16 18  2  0
  7 19  1  0
 19 20  2  0
 20 21  1  0
 21 22  1  0
 22 23  1  1
 22  2  1  0
 20  3  1  0
 18 11  1  0
M  END
>  <Compound_ID>  (13) 
C64220706

>  <Active>  (13) 
0

>  <Smiles>  (13) 
CC1=C2C(=O)N=C([C@H](C)Nc3ccc(F)c(Cl)c3)N=C2S[C@@H]1C

>  <canonical_smi>  (13) 
CC1=C2C(=O)N=C([C@H](C)Nc3ccc(F)c(Cl)c3)N=C2S[C@@H]1C

>  <Set>  (13) 
G2 inactive

>  <Set_type>  (13) 
Train

>  <MW>  (13) 
351.83

>  <HBD>  (13) 
1

>  <HBA>  (13) 
3

>  <NRB>  (13) 
3

>  <NR>  (13) 
3

>  <NAR>  (13) 
1

>  <PSA>  (13) 
53.82

>  <Standard Type>  (13) 
nan

>  <Standard Relation>  (13) 
nan

>  <Standard Units>  (13) 
nan

>  <Standard Value>  (13) 
nan

>  <Assay ChEMBL ID>  (13) 
nan

>  <Assay Description>  (13) 
nan

>  <BAO Label>  (13) 
nan

$$$$

     RDKit          2D

 21 24  0  0  0  0  0  0  0  0999 V2000
   -4.3633   -6.9779    0.0000 N   0  0  0  0  0  4  0  0  0  0  0  0
   -2.9930   -7.5880    0.0000 C   0  0  0  0  0  0  0  0  0  0  0  0
   -1.7795   -6.7064    0.0000 C   0  0  0  0  0  0  0  0  0  0  0  0
   -0.4091   -7.3165    0.0000 C   0  0  0  0  0  0  0  0  0  0  0  0
   -0.0973   -8.7837    0.0000 N   0  0  0  0  0  0  0  0  0  0  0  0
    1.3945   -8.9405    0.0000 N   0  0  0  0  0  0  0  0  0  0  0  0
    2.0046   -7.5702    0.0000 C   0  0  0  0  0  0  0  0  0  0  0  0
    3.3037   -6.8202    0.0000 S   0  0  0  0  0  0  0  0  0  0  0  0
    2.9918   -5.3529    0.0000 C   0  0  0  0  0  0  0  0  0  0  0  0
    1.5000   -5.1962    0.0000 C   0  0  0  0  0  0  0  0  0  0  0  0
    0.7500   -3.8971    0.0000 C   0  0  0  0  0  0  0  0  0  0  0  0
   -0.7500   -3.8971    0.0000 C   0  0  0  0  0  0  0  0  0  0  0  0
   -1.5000   -2.5981    0.0000 C   0  0  0  0  0  0  0  0  0  0  0  0
   -0.7500   -1.2990    0.0000 C   0  0  0  0  0  0  0  0  0  0  0  0
    0.7500   -1.2990    0.0000 C   0  0  0  0  0  0  0  0  0  0  0  0
    1.5000   -2.5981    0.0000 C   0  0  0  0  0  0  0  0  0  0  0  0
    1.5000    0.0000    0.0000 C   0  0  0  0  0  0  0  0  0  0  0  0
    0.7500    1.2990    0.0000 C   0  0  0  0  0  0  0  0  0  0  0  0
   -0.7500    1.2990    0.0000 C   0  0  0  0  0  0  0  0  0  0  0  0
   -1.5000    0.0000    0.0000 C   0  0  0  0  0  0  0  0  0  0  0  0
    0.8899   -6.5665    0.0000 N   0  0  0  0  0  0  0  0  0  0  0  0
  1  2  1  0
  2  3  1  0
  3  4  1  0
  4  5  2  0
  5  6  1  0
  6  7  2  0
  7  8  1  0
  8  9  1  0
  9 10  2  0
 10 11  1  0
 11 12  2  0
 12 13  1  0
 13 14  2  0
 14 15  1  0
 15 16  2  0
 15 17  1  0
 17 18  1  0
 18 19  1  0
 19 20  1  0
 10 21  1  0
 21  4  1  0
 21  7  1  0
 16 11  1  0
 20 14  1  0
M  CHG  1   1   1
M  END
>  <Compound_ID>  (14) 
C58021250

>  <Active>  (14) 
0

>  <Smiles>  (14) 
[NH3+]CCc1nnc2scc(-c3ccc4c(c3)CCCC4)n12

>  <canonical_smi>  (14) 
[NH3+]CCc1nnc2scc(-c3ccc4c(c3)CCCC4)n12

>  <Set>  (14) 
G2 inactive

>  <Set_type>  (14) 
Train

>  <MW>  (14) 
299.42

>  <HBD>  (14) 
1

>  <HBA>  (14) 
2

>  <NRB>  (14) 
3

>  <NR>  (14) 
4

>  <NAR>  (14) 
3

>  <PSA>  (14) 
57.83

>  <Standard Type>  (14) 
nan

>  <Standard Relation>  (14) 
nan

>  <Standard Units>  (14) 
nan

>  <Standard Value>  (14) 
nan

>  <Assay ChEMBL ID>  (14) 
nan

>  <Assay Description>  (14) 
nan

>  <BAO Label>  (14) 
nan

$$$$

     RDKit          2D

 11 12  0  0  0  0  0  0  0  0999 V2000
   -2.9499    4.2246    0.0000 N   0  0  0  0  0  0  0  0  0  0  0  0
   -1.8351    3.2209    0.0000 C   0  0  0  0  0  0  0  0  0  0  0  0
   -0.4086    3.6844    0.0000 N   0  0  0  0  0  0  0  0  0  0  0  0
    0.7062    2.6807    0.0000 C   0  0  0  0  0  0  0  0  0  0  0  0
    2.1328    3.1443    0.0000 N   0  0  0  0  0  0  0  0  0  0  0  0
    0.3943    1.2135    0.0000 C   0  0  0  0  0  0  0  0  0  0  0  0
    1.2760    0.0000    0.0000 N   0  0  0  0  0  0  0  0  0  0  0  0
    0.3943   -1.2135    0.0000 S   0  0  0  0  0  0  0  0  0  0  0  0
   -1.0323   -0.7500    0.0000 N   0  0  0  0  0  0  0  0  0  0  0  0
   -1.0323    0.7500    0.0000 C   0  0  0  0  0  0  0  0  0  0  0  0
   -2.1470    1.7537    0.0000 N   0  0  0  0  0  0  0  0  0  0  0  0
  1  2  1  0
  2  3  1  0
  3  4  2  0
  4  5  1  0
  4  6  1  0
  6  7  2  0
  7  8  1  0
  8  9  1  0
  9 10  2  0
 10 11  1  0
 11  2  2  0
 10  6  1  0
M  END
>  <Compound_ID>  (15) 
C17160622

>  <Active>  (15) 
0

>  <Smiles>  (15) 
Nc1nc(N)c2nsnc2n1

>  <canonical_smi>  (15) 
Nc1nc(N)c2nsnc2n1

>  <Set>  (15) 
G2 inactive

>  <Set_type>  (15) 
Train

>  <MW>  (15) 
168.19

>  <HBD>  (15) 
2

>  <HBA>  (15) 
6

>  <NRB>  (15) 
0

>  <NR>  (15) 
2

>  <NAR>  (15) 
2

>  <PSA>  (15) 
103.6

>  <Standard Type>  (15) 
nan

>  <Standard Relation>  (15) 
nan

>  <Standard Units>  (15) 
nan

>  <Standard Value>  (15) 
nan

>  <Assay ChEMBL ID>  (15) 
nan

>  <Assay Description>  (15) 
nan

>  <BAO Label>  (15) 
nan

$$$$

     RDKit          2D

 16 16  0  0  0  0  0  0  0  0999 V2000
    5.2500   -1.2990    0.0000 C   0  0  0  0  0  0  0  0  0  0  0  0
    3.7500   -1.2990    0.0000 C   0  0  0  0  0  0  0  0  0  0  0  0
    3.0000    0.0000    0.0000 C   0  0  0  0  0  0  0  0  0  0  0  0
    3.7500    1.2990    0.0000 N   0  0  0  0  0  0  0  0  0  0  0  0
    5.2500    1.2990    0.0000 N   0  0  0  0  0  0  0  0  0  0  0  0
    6.0000    2.5981    0.0000 C   0  0  0  0  0  0  0  0  0  0  0  0
    7.5000    2.5981    0.0000 N   0  0  0  0  0  0  0  0  0  0  0  0
    5.2500    3.8971    0.0000 O   0  0  0  0  0  0  0  0  0  0  0  0
    1.5000    0.0000    0.0000 C   0  0  0  0  0  0  0  0  0  0  0  0
    0.7500   -1.2990    0.0000 C   0  0  0  0  0  0  0  0  0  0  0  0
   -0.7500   -1.2990    0.0000 C   0  0  0  0  0  0  0  0  0  0  0  0
   -1.5000   -2.5981    0.0000 F   0  0  0  0  0  0  0  0  0  0  0  0
   -1.5000    0.0000    0.0000 C   0  0  0  0  0  0  0  0  0  0  0  0
   -0.7500    1.2990    0.0000 C   0  0  0  0  0  0  0  0  0  0  0  0
    0.7500    1.2990    0.0000 C   0  0  0  0  0  0  0  0  0  0  0  0
    1.5000    2.5981    0.0000 O   0  0  0  0  0  0  0  0  0  0  0  0
  1  2  1  0
  2  3  1  0
  3  4  1  0
  4  5  1  0
  5  6  1  0
  6  7  1  0
  6  8  2  0
  3  9  2  0
  9 10  1  0
 10 11  2  0
 11 12  1  0
 11 13  1  0
 13 14  2  0
 14 15  1  0
 15 16  2  0
 15  9  1  0
M  END
>  <Compound_ID>  (16) 
C05788753

>  <Active>  (16) 
0

>  <Smiles>  (16) 
CC/C(NNC(N)=O)=C1\C=C(F)C=CC1=O

>  <canonical_smi>  (16) 
CC/C(NNC(N)=O)=C1\C=C(F)C=CC1=O

>  <Set>  (16) 
G2 inactive

>  <Set_type>  (16) 
Train

>  <MW>  (16) 
225.22

>  <HBD>  (16) 
3

>  <HBA>  (16) 
3

>  <NRB>  (16) 
3

>  <NR>  (16) 
1

>  <NAR>  (16) 
0

>  <PSA>  (16) 
84.22

>  <Standard Type>  (16) 
nan

>  <Standard Relation>  (16) 
nan

>  <Standard Units>  (16) 
nan

>  <Standard Value>  (16) 
nan

>  <Assay ChEMBL ID>  (16) 
nan

>  <Assay Description>  (16) 
nan

>  <BAO Label>  (16) 
nan

$$$$

     RDKit          2D

 15 17  0  0  0  0  0  0  0  0999 V2000
    0.3943    6.4937    0.0000 C   0  0  0  0  0  0  0  0  0  0  0  0
    0.8578    5.0672    0.0000 C   0  0  0  0  0  0  0  0  0  0  0  0
   -0.0239    3.8536    0.0000 C   0  0  0  0  0  0  0  0  0  0  0  0
    0.8578    2.6401    0.0000 C   0  0  0  0  0  0  0  0  0  0  0  0
    0.3943    1.2135    0.0000 C   0  0  0  0  0  0  0  0  0  0  0  0
    1.2760    0.0000    0.0000 N   0  0  0  0  0  0  0  0  0  0  0  0
    0.3943   -1.2135    0.0000 N   0  0  0  0  0  0  0  0  0  0  0  0
   -1.0323   -0.7500    0.0000 C   0  0  0  0  0  0  0  0  0  0  0  0
   -2.4589   -1.2135    0.0000 S   0  0  0  0  0  0  0  0  0  0  0  0
   -3.3405    0.0000    0.0000 C   0  0  0  0  0  0  0  0  0  0  0  0
   -4.8405    0.0000    0.0000 N   0  0  0  0  0  0  0  0  0  0  0  0
   -2.4589    1.2135    0.0000 N   0  0  0  0  0  0  0  0  0  0  0  0
   -1.0323    0.7500    0.0000 N   0  0  0  0  0  0  0  0  0  0  0  0
    2.2844    3.1036    0.0000 N   0  0  0  0  0  0  0  0  0  0  0  0
    2.2844    4.6036    0.0000 N   0  0  0  0  0  0  0  0  0  0  0  0
  1  2  1  0
  2  3  2  0
  4  3  1  6
  4  5  1  0
  5  6  1  6
  6  7  1  0
  8  7  1  1
  8  9  1  0
  9 10  1  0
 10 11  1  0
 10 12  2  0
 12 13  1  0
  4 14  1  0
 14 15  2  0
 15  2  1  0
 13  5  1  0
 13  8  1  0
M  END
>  <Compound_ID>  (17) 
C38743803

>  <Active>  (17) 
0

>  <Smiles>  (17) 
CC1=C[C@@H]([C@@H]2NN[C@H]3SC(N)=NN32)N=N1

>  <canonical_smi>  (17) 
CC1=C[C@@H]([C@@H]2NN[C@H]3SC(N)=NN32)N=N1

>  <Set>  (17) 
G2 inactive

>  <Set_type>  (17) 
Train

>  <MW>  (17) 
225.28

>  <HBD>  (17) 
3

>  <HBA>  (17) 
5

>  <NRB>  (17) 
1

>  <NR>  (17) 
3

>  <NAR>  (17) 
0

>  <PSA>  (17) 
90.4

>  <Standard Type>  (17) 
nan

>  <Standard Relation>  (17) 
nan

>  <Standard Units>  (17) 
nan

>  <Standard Value>  (17) 
nan

>  <Assay ChEMBL ID>  (17) 
nan

>  <Assay Description>  (17) 
nan

>  <BAO Label>  (17) 
nan

$$$$

     RDKit          2D

 14 15  0  0  0  0  0  0  0  0999 V2000
   -5.6640    0.6645    0.0000 C   0  0  0  0  0  0  0  0  0  0  0  0
   -4.1640    0.6645    0.0000 C   0  0  0  0  0  0  0  0  0  0  0  0
   -3.4140   -0.6346    0.0000 C   0  0  0  0  0  0  0  0  0  0  0  0
   -3.4140    1.9635    0.0000 O   0  0  0  0  0  0  0  0  0  0  0  0
   -1.9140    1.9635    0.0000 N   0  0  0  0  0  0  0  0  0  0  0  0
   -1.0323    3.1771    0.0000 C   0  0  0  0  0  0  0  0  0  0  0  0
   -1.4958    4.6036    0.0000 N   0  0  0  0  0  0  0  0  0  0  0  0
    0.3943    2.7135    0.0000 C   0  0  0  0  0  0  0  0  0  0  0  0
    1.6078    3.5952    0.0000 N   0  0  0  0  0  0  0  0  0  0  0  0
    0.3943    1.2135    0.0000 C   0  0  0  0  0  0  0  0  0  0  0  0
    1.2760    0.0000    0.0000 C   0  0  0  0  0  0  0  0  0  0  0  0
    0.3943   -1.2135    0.0000 C   0  0  0  0  0  0  0  0  0  0  0  0
   -1.0323   -0.7500    0.0000 O   0  0  0  0  0  0  0  0  0  0  0  0
   -1.0323    0.7500    0.0000 C   0  0  0  0  0  0  0  0  0  0  0  0
  1  2  1  0
  2  3  1  0
  2  4  1  0
  4  5  1  0
  5  6  1  0
  6  7  1  0
  6  8  2  0
  8  9  1  0
  8 10  1  0
 10 11  1  0
 11 12  2  0
 12 13  1  0
 13 14  1  0
 14  5  1  0
 14 10  2  0
M  END
>  <Compound_ID>  (18) 
C39126777

>  <Active>  (18) 
0

>  <Smiles>  (18) 
CC(C)On1c(N)c(N)c2ccoc21

>  <canonical_smi>  (18) 
CC(C)On1c(N)c(N)c2ccoc21

>  <Set>  (18) 
G2 inactive

>  <Set_type>  (18) 
Train

>  <MW>  (18) 
195.22

>  <HBD>  (18) 
2

>  <HBA>  (18) 
4

>  <NRB>  (18) 
2

>  <NR>  (18) 
2

>  <NAR>  (18) 
2

>  <PSA>  (18) 
79.34

>  <Standard Type>  (18) 
nan

>  <Standard Relation>  (18) 
nan

>  <Standard Units>  (18) 
nan

>  <Standard Value>  (18) 
nan

>  <Assay ChEMBL ID>  (18) 
nan

>  <Assay Description>  (18) 
nan

>  <BAO Label>  (18) 
nan

$$$$

     RDKit          2D

 16 17  0  0  0  0  0  0  0  0999 V2000
    3.7500    1.2990    0.0000 H   0  0  0  0  0  0  0  0  0  0  0  0
    3.0000    0.0000    0.0000 N   0  0  0  0  0  0  0  0  0  0  0  0
    1.5000    0.0000    0.0000 C   0  0  0  0  0  0  0  0  0  0  0  0
    0.7500   -1.2990    0.0000 N   0  0  0  0  0  0  0  0  0  0  0  0
   -0.7500   -1.2990    0.0000 C   0  0  0  0  0  0  0  0  0  0  0  0
   -1.5000   -2.5981    0.0000 S   0  0  0  0  0  0  0  0  0  0  0  0
   -1.5000    0.0000    0.0000 N   0  0  0  0  0  0  0  0  0  0  0  0
   -0.7500    1.2990    0.0000 C   0  0  0  0  0  0  0  0  0  0  0  0
   -1.5000    2.5981    0.0000 C   0  0  0  0  0  0  0  0  0  0  0  0
   -0.7500    3.8971    0.0000 C   0  0  0  0  0  0  0  0  0  0  0  0
   -1.5000    5.1962    0.0000 C   0  0  0  0  0  0  0  0  0  0  0  0
   -3.0000    5.1962    0.0000 C   0  0  0  0  0  0  0  0  0  0  0  0
   -3.7500    3.8971    0.0000 C   0  0  0  0  0  0  0  0  0  0  0  0
   -5.2500    3.8971    0.0000 C   0  0  0  0  0  0  0  0  0  0  0  0
   -3.0000    2.5981    0.0000 N   0  0  0  0  0  0  0  0  0  0  0  0
    0.7500    1.2990    0.0000 N   0  0  0  0  0  0  0  0  0  0  0  0
  1  2  1  0
  2  3  2  0
  3  4  1  0
  4  5  1  0
  5  6  2  0
  5  7  1  0
  7  8  1  0
  8  9  1  1
  9 10  2  0
 10 11  1  0
 11 12  2  0
 12 13  1  0
 13 14  1  0
 13 15  2  0
  8 16  1  0
 16  3  1  0
 15  9  1  0
M  END
>  <Compound_ID>  (19) 
C34927018

>  <Active>  (19) 
0

>  <Smiles>  (19) 
[H]/N=C1/NC(=S)N[C@@H](c2cccc(C)n2)N1

>  <canonical_smi>  (19) 
[H]/N=C1/NC(=S)N[C@@H](c2cccc(C)n2)N1

>  <Set>  (19) 
G2 inactive

>  <Set_type>  (19) 
Train

>  <MW>  (19) 
221.29

>  <HBD>  (19) 
4

>  <HBA>  (19) 
5

>  <NRB>  (19) 
1

>  <NR>  (19) 
2

>  <NAR>  (19) 
1

>  <PSA>  (19) 
72.83

>  <Standard Type>  (19) 
nan

>  <Standard Relation>  (19) 
nan

>  <Standard Units>  (19) 
nan

>  <Standard Value>  (19) 
nan

>  <Assay ChEMBL ID>  (19) 
nan

>  <Assay Description>  (19) 
nan

>  <BAO Label>  (19) 
nan

$$$$

     RDKit          2D

 11 12  0  0  0  0  0  0  0  0999 V2000
   -3.5736    1.2902    0.0000 N   0  0  0  0  0  0  0  0  0  0  0  0
   -2.1470    1.7537    0.0000 C   0  0  0  0  0  0  0  0  0  0  0  0
   -1.8351    3.2209    0.0000 N   0  0  0  0  0  0  0  0  0  0  0  0
   -0.4086    3.6844    0.0000 N   0  0  0  0  0  0  0  0  0  0  0  0
    0.7062    2.6807    0.0000 C   0  0  0  0  0  0  0  0  0  0  0  0
    2.1328    3.1443    0.0000 N   0  0  0  0  0  0  0  0  0  0  0  0
    0.3943    1.2135    0.0000 C   0  0  0  0  0  0  0  0  0  0  0  0
    1.2760    0.0000    0.0000 S   0  0  0  0  0  0  0  0  0  0  0  0
    0.3943   -1.2135    0.0000 N   0  0  0  0  0  0  0  0  0  0  0  0
   -1.0323   -0.7500    0.0000 N   0  0  0  0  0  0  0  0  0  0  0  0
   -1.0323    0.7500    0.0000 C   0  0  0  0  0  0  0  0  0  0  0  0
  1  2  1  0
  2  3  2  0
  3  4  1  0
  4  5  2  0
  5  6  1  0
  5  7  1  0
  7  8  1  0
  8  9  1  0
  9 10  2  0
 10 11  1  0
 11  2  1  0
 11  7  2  0
M  END
>  <Compound_ID>  (20) 
C62718318

>  <Active>  (20) 
0

>  <Smiles>  (20) 
Nc1nnc(N)c2snnc12

>  <canonical_smi>  (20) 
Nc1nnc(N)c2snnc12

>  <Set>  (20) 
G2 inactive

>  <Set_type>  (20) 
Train

>  <MW>  (20) 
168.19

>  <HBD>  (20) 
2

>  <HBA>  (20) 
6

>  <NRB>  (20) 
0

>  <NR>  (20) 
2

>  <NAR>  (20) 
2

>  <PSA>  (20) 
103.6

>  <Standard Type>  (20) 
nan

>  <Standard Relation>  (20) 
nan

>  <Standard Units>  (20) 
nan

>  <Standard Value>  (20) 
nan

>  <Assay ChEMBL ID>  (20) 
nan

>  <Assay Description>  (20) 
nan

>  <BAO Label>  (20) 
nan

$$$$

     RDKit          2D

 15 16  0  0  0  0  0  0  0  0999 V2000
    2.7760    0.0000    0.0000 C   0  0  0  0  0  0  0  0  0  0  0  0
    1.2760    0.0000    0.0000 C   0  0  0  0  0  0  0  0  0  0  0  0
    0.3943    1.2135    0.0000 N   0  0  0  0  0  0  0  0  0  0  0  0
   -1.0323    0.7500    0.0000 C   0  0  0  0  0  0  0  0  0  0  0  0
   -2.2458    1.6317    0.0000 N   0  0  0  0  0  0  0  0  0  0  0  0
   -3.6724    1.1682    0.0000 C   0  0  0  0  0  0  0  0  0  0  0  0
   -4.5541    2.3817    0.0000 C   0  0  0  0  0  0  0  0  0  0  0  0
   -3.6724    3.5952    0.0000 C   0  0  0  0  0  0  0  0  0  0  0  0
   -4.1359    5.0218    0.0000 N   0  0  0  0  0  4  0  0  0  0  0  0
   -3.1322    6.1365    0.0000 C   0  0  0  0  0  0  0  0  0  0  0  0
   -5.6031    5.3337    0.0000 C   0  0  0  0  0  0  0  0  0  0  0  0
   -2.2458    3.1317    0.0000 C   0  0  0  0  0  0  0  0  0  0  0  0
   -1.0323   -0.7500    0.0000 C   0  0  0  0  0  0  0  0  0  0  0  0
   -2.2458   -1.6317    0.0000 N   0  0  0  0  0  0  0  0  0  0  0  0
    0.3943   -1.2135    0.0000 N   0  0  0  0  0  4  0  0  0  0  0  0
  1  2  1  0
  2  3  2  0
  3  4  1  0
  4  5  1  6
  5  6  1  0
  6  7  1  0
  7  8  1  0
  8  9  1  1
  9 10  1  0
  9 11  1  0
  8 12  1  0
  4 13  1  0
 13 14  1  0
 13 15  2  0
 15  2  1  0
 12  5  1  0
M  CHG  2   9   1  15   1
M  END
>  <Compound_ID>  (21) 
C62965498

>  <Active>  (21) 
0

>  <Smiles>  (21) 
CC1=N[C@@H](N2CC[C@@H]([NH+](C)C)C2)C(N)=[NH+]1

>  <canonical_smi>  (21) 
CC1=N[C@@H](N2CC[C@@H]([NH+](C)C)C2)C(N)=[NH+]1

>  <Set>  (21) 
G2 inactive

>  <Set_type>  (21) 
Train

>  <MW>  (21) 
211.31

>  <HBD>  (21) 
3

>  <HBA>  (21) 
2

>  <NRB>  (21) 
2

>  <NR>  (21) 
2

>  <NAR>  (21) 
0

>  <PSA>  (21) 
60.03

>  <Standard Type>  (21) 
nan

>  <Standard Relation>  (21) 
nan

>  <Standard Units>  (21) 
nan

>  <Standard Value>  (21) 
nan

>  <Assay ChEMBL ID>  (21) 
nan

>  <Assay Description>  (21) 
nan

>  <BAO Label>  (21) 
nan

$$$$

     RDKit          2D

 14 15  0  0  0  0  0  0  0  0999 V2000
    2.7760    0.0000    0.0000 C   0  0  0  0  0  0  0  0  0  0  0  0
    1.2760    0.0000    0.0000 C   0  0  0  0  0  0  0  0  0  0  0  0
    0.3943    1.2135    0.0000 N   0  0  0  0  0  0  0  0  0  0  0  0
   -1.0323    0.7500    0.0000 C   0  0  0  0  0  0  0  0  0  0  0  0
   -2.2458    1.6317    0.0000 C   0  0  0  0  0  0  0  0  0  0  0  0
   -2.0890    3.1235    0.0000 S   0  0  0  0  0  0  0  0  0  0  0  0
   -3.3025    4.0051    0.0000 C   0  0  0  0  0  0  0  0  0  0  0  0
   -4.7291    3.5416    0.0000 N   0  0  0  0  0  0  0  0  0  0  0  0
   -5.6108    4.7551    0.0000 N   0  0  0  0  0  0  0  0  0  0  0  0
   -4.7291    5.9687    0.0000 C   0  0  0  0  0  0  0  0  0  0  0  0
   -5.1927    7.3952    0.0000 N   0  0  0  0  0  0  0  0  0  0  0  0
   -3.3025    5.5051    0.0000 N   0  0  0  0  0  0  0  0  0  0  0  0
   -1.0323   -0.7500    0.0000 N   0  0  0  0  0  0  0  0  0  0  0  0
    0.3943   -1.2135    0.0000 O   0  0  0  0  0  0  0  0  0  0  0  0
  2  1  1  6
  2  3  1  0
  3  4  1  0
  4  5  1  0
  5  6  1  0
  6  7  1  0
  7  8  2  0
  8  9  1  0
  9 10  1  0
 10 11  1  0
 10 12  2  0
  4 13  2  0
 13 14  1  0
 14  2  1  0
 12  7  1  0
M  END
>  <Compound_ID>  (22) 
C64233257

>  <Active>  (22) 
0

>  <Smiles>  (22) 
C[C@H]1NC(CSc2n[nH]c(N)n2)=NO1

>  <canonical_smi>  (22) 
C[C@H]1NC(CSc2n[nH]c(N)n2)=NO1

>  <Set>  (22) 
G2 inactive

>  <Set_type>  (22) 
Train

>  <MW>  (22) 
214.25

>  <HBD>  (22) 
3

>  <HBA>  (22) 
6

>  <NRB>  (22) 
3

>  <NR>  (22) 
2

>  <NAR>  (22) 
1

>  <PSA>  (22) 
101.21

>  <Standard Type>  (22) 
nan

>  <Standard Relation>  (22) 
nan

>  <Standard Units>  (22) 
nan

>  <Standard Value>  (22) 
nan

>  <Assay ChEMBL ID>  (22) 
nan

>  <Assay Description>  (22) 
nan

>  <BAO Label>  (22) 
nan

$$$$

     RDKit          2D

 21 23  0  0  0  0  0  0  0  0999 V2000
    3.7500   -1.2990    0.0000 C   0  0  0  0  0  0  0  0  0  0  0  0
    3.0000    0.0000    0.0000 N   0  0  0  0  0  0  0  0  0  0  0  0
    3.7500    1.2990    0.0000 C   0  0  0  0  0  0  0  0  0  0  0  0
    1.5000    0.0000    0.0000 C   0  0  0  0  0  0  0  0  0  0  0  0
    0.7500   -1.2990    0.0000 C   0  0  0  0  0  0  0  0  0  0  0  0
   -0.7500   -1.2990    0.0000 C   0  0  0  0  0  0  0  0  0  0  0  0
   -1.5000    0.0000    0.0000 C   0  0  0  0  0  0  0  0  0  0  0  0
   -3.0000    0.0000    0.0000 C   0  0  0  0  0  0  0  0  0  0  0  0
   -3.8817   -1.2135    0.0000 N   0  0  0  0  0  0  0  0  0  0  0  0
   -5.3083   -0.7500    0.0000 N   0  0  0  0  0  0  0  0  0  0  0  0
   -5.3083    0.7500    0.0000 C   0  0  0  0  0  0  0  0  0  0  0  0
   -6.5218    1.6317    0.0000 C   0  0  0  0  0  0  0  0  0  0  0  0
   -6.3650    3.1235    0.0000 C   0  0  0  0  0  0  0  0  0  0  0  0
   -7.5785    4.0051    0.0000 C   0  0  0  0  0  0  0  0  0  0  0  0
   -8.9488    3.3950    0.0000 C   0  0  0  0  0  0  0  0  0  0  0  0
  -10.1624    4.2767    0.0000 Cl  0  0  0  0  0  0  0  0  0  0  0  0
   -9.1056    1.9033    0.0000 C   0  0  0  0  0  0  0  0  0  0  0  0
   -7.8921    1.0216    0.0000 C   0  0  0  0  0  0  0  0  0  0  0  0
   -3.8817    1.2135    0.0000 N   0  0  0  0  0  4  0  0  0  0  0  0
   -0.7500    1.2990    0.0000 C   0  0  0  0  0  0  0  0  0  0  0  0
    0.7500    1.2990    0.0000 C   0  0  0  0  0  0  0  0  0  0  0  0
  1  2  1  0
  2  3  1  0
  2  4  1  0
  4  5  2  0
  5  6  1  0
  6  7  2  0
  8  7  1  6
  8  9  1  0
  9 10  1  0
 10 11  1  0
 11 12  1  0
 12 13  2  0
 13 14  1  0
 14 15  2  0
 15 16  1  0
 15 17  1  0
 17 18  2  0
 11 19  2  0
  7 20  1  0
 20 21  2  0
 21  4  1  0
 19  8  1  0
 18 12  1  0
M  CHG  1  19   1
M  END
>  <Compound_ID>  (23) 
C03179609

>  <Active>  (23) 
0

>  <Smiles>  (23) 
CN(C)c1ccc([C@@H]2NNC(c3ccc(Cl)cc3)=[NH+]2)cc1

>  <canonical_smi>  (23) 
CN(C)c1ccc([C@@H]2NNC(c3ccc(Cl)cc3)=[NH+]2)cc1

>  <Set>  (23) 
G2 inactive

>  <Set_type>  (23) 
Train

>  <MW>  (23) 
301.8

>  <HBD>  (23) 
3

>  <HBA>  (23) 
3

>  <NRB>  (23) 
3

>  <NR>  (23) 
3

>  <NAR>  (23) 
2

>  <PSA>  (23) 
41.27

>  <Standard Type>  (23) 
nan

>  <Standard Relation>  (23) 
nan

>  <Standard Units>  (23) 
nan

>  <Standard Value>  (23) 
nan

>  <Assay ChEMBL ID>  (23) 
nan

>  <Assay Description>  (23) 
nan

>  <BAO Label>  (23) 
nan

$$$$

     RDKit          2D

 24 28  0  0  0  0  0  0  0  0999 V2000
    0.7500   -3.8971    0.0000 C   0  0  0  0  0  0  0  0  0  0  0  0
    1.5000   -2.5981    0.0000 C   0  0  0  0  0  0  0  0  0  0  0  0
    0.7500   -1.2990    0.0000 C   0  0  0  0  0  0  0  0  0  0  0  0
    1.5000    0.0000    0.0000 C   0  0  0  0  0  0  0  0  0  0  0  0
    0.7500    1.2990    0.0000 N   0  0  0  0  0  0  0  0  0  0  0  0
   -0.7500    1.2990    0.0000 C   0  0  0  0  0  0  0  0  0  0  0  0
   -1.5000    0.0000    0.0000 C   0  0  0  0  0  0  0  0  0  0  0  0
   -3.0000    0.0000    0.0000 C   0  0  0  0  0  0  0  0  0  0  0  0
   -3.7500    1.2990    0.0000 C   0  0  0  0  0  0  0  0  0  0  0  0
    1.7010   -0.7500    0.0000 C   0  0  0  0  0  0  0  0  0  0  0  0
    3.0000   -0.0000    0.0000 N   0  0  0  0  0  4  0  0  0  0  0  0
    2.2500   -1.2990    0.0000 C   0  0  0  0  0  0  0  0  0  0  0  0
    2.2500    1.2990    0.0000 C   0  0  0  0  0  0  0  0  0  0  0  0
    3.0000    2.5981    0.0000 C   0  0  0  0  0  0  0  0  0  0  0  0
    4.4918    2.7549    0.0000 C   0  0  0  0  0  0  0  0  0  0  0  0
    4.8037    4.2221    0.0000 C   0  0  0  0  0  0  0  0  0  0  0  0
    6.1027    4.9721    0.0000 C   0  0  0  0  0  0  0  0  0  0  0  0
    6.1027    6.4721    0.0000 C   0  0  0  0  0  0  0  0  0  0  0  0
    4.8037    7.2221    0.0000 C   0  0  0  0  0  0  0  0  0  0  0  0
    3.5046    6.4721    0.0000 C   0  0  0  0  0  0  0  0  0  0  0  0
    3.5046    4.9721    0.0000 C   0  0  0  0  0  0  0  0  0  0  0  0
    2.3899    3.9684    0.0000 N   0  0  0  0  0  0  0  0  0  0  0  0
   -0.7500   -1.2990    0.0000 C   0  0  0  0  0  0  0  0  0  0  0  0
   -1.5000   -2.5981    0.0000 O   0  0  0  0  0  0  0  0  0  0  0  0
  1  2  1  0
  3  2  1  6
  3  4  1  0
  4  5  1  0
  5  6  1  0
  6  7  1  0
  7  8  1  1
  8  9  1  0
  7 10  1  0
 10 11  1  0
 11 12  1  0
 11 13  1  0
 13 14  1  6
 14 15  2  0
 15 16  1  0
 16 17  2  0
 17 18  1  0
 18 19  2  0
 19 20  1  0
 20 21  2  0
 21 22  1  0
  7 23  1  0
 23 24  1  0
 12  3  1  0
 22 14  1  0
 23  3  1  0
 13  5  1  0
 21 16  1  0
M  CHG  1  11   1
M  END
>  <Compound_ID>  (24) 
C27577777

>  <Active>  (24) 
0

>  <Smiles>  (24) 
CC[C@]12CN3C[C@](CC)(C[NH+](C1)[C@H]3c1cc3ccccc3[nH]1)C2O

>  <canonical_smi>  (24) 
CC[C@]12CN3C[C@](CC)(C[NH+](C1)[C@H]3c1cc3ccccc3[nH]1)C2O

>  <Set>  (24) 
G2 inactive

>  <Set_type>  (24) 
Train

>  <MW>  (24) 
326.46

>  <HBD>  (24) 
3

>  <HBA>  (24) 
2

>  <NRB>  (24) 
3

>  <NR>  (24) 
6

>  <NAR>  (24) 
2

>  <PSA>  (24) 
43.7

>  <Standard Type>  (24) 
nan

>  <Standard Relation>  (24) 
nan

>  <Standard Units>  (24) 
nan

>  <Standard Value>  (24) 
nan

>  <Assay ChEMBL ID>  (24) 
nan

>  <Assay Description>  (24) 
nan

>  <BAO Label>  (24) 
nan

$$$$

     RDKit          2D

 20 22  0  0  0  0  0  0  0  0999 V2000
   -5.4912    4.7648    0.0000 C   0  0  0  0  0  0  0  0  0  0  0  0
   -4.3764    3.7611    0.0000 C   0  0  0  0  0  0  0  0  0  0  0  0
   -2.9499    4.2246    0.0000 O   0  0  0  0  0  0  0  0  0  0  0  0
   -1.8351    3.2209    0.0000 C   0  0  0  0  0  0  0  0  0  0  0  0
   -2.1470    1.7537    0.0000 C   0  0  0  0  0  0  0  0  0  0  0  0
   -1.0323    0.7500    0.0000 C   0  0  0  0  0  0  0  0  0  0  0  0
    0.3943    1.2135    0.0000 C   0  0  0  0  0  0  0  0  0  0  0  0
    0.7062    2.6807    0.0000 C   0  0  0  0  0  0  0  0  0  0  0  0
   -0.4086    3.6844    0.0000 C   0  0  0  0  0  0  0  0  0  0  0  0
   -0.0967    5.1517    0.0000 C   0  0  0  0  0  0  0  0  0  0  0  0
   -1.1004    6.2664    0.0000 N   0  0  0  0  0  0  0  0  0  0  0  0
   -0.3504    7.5654    0.0000 C   0  0  0  0  0  0  0  0  0  0  0  0
   -0.9605    8.9357    0.0000 C   0  0  0  0  0  0  0  0  0  0  0  0
   -0.0788   10.1493    0.0000 N   0  0  0  0  0  4  0  0  0  0  0  0
    1.1168    7.2536    0.0000 C   0  0  0  0  0  0  0  0  0  0  0  0
    1.2736    5.7618    0.0000 S   0  0  0  0  0  0  0  0  0  0  0  0
    1.2760    0.0000    0.0000 O   0  0  0  0  0  0  0  0  0  0  0  0
    0.3943   -1.2135    0.0000 C   0  0  0  0  0  0  0  0  0  0  0  0
    0.8578   -2.6401    0.0000 C   0  0  0  0  0  0  0  0  0  0  0  0
   -1.0323   -0.7500    0.0000 C   0  0  0  0  0  0  0  0  0  0  0  0
  1  2  1  0
  2  3  1  0
  3  4  1  0
  4  5  2  0
  5  6  1  0
  6  7  2  0
  7  8  1  0
  8  9  2  0
  9 10  1  0
 10 11  2  0
 11 12  1  0
 12 13  1  0
 13 14  1  0
 12 15  2  0
 15 16  1  0
  7 17  1  0
 17 18  1  0
 18 19  1  1
 18 20  1  0
  9  4  1  0
 16 10  1  0
 20  6  1  0
M  CHG  1  14   1
M  END
>  <Compound_ID>  (25) 
C40999799

>  <Active>  (25) 
0

>  <Smiles>  (25) 
CCOc1cc2c(cc1-c1nc(C[NH3+])cs1)O[C@@H](C)C2

>  <canonical_smi>  (25) 
CCOc1cc2c(cc1-c1nc(C[NH3+])cs1)O[C@@H](C)C2

>  <Set>  (25) 
G2 inactive

>  <Set_type>  (25) 
Train

>  <MW>  (25) 
291.4

>  <HBD>  (25) 
1

>  <HBA>  (25) 
3

>  <NRB>  (25) 
4

>  <NR>  (25) 
3

>  <NAR>  (25) 
2

>  <PSA>  (25) 
58.99

>  <Standard Type>  (25) 
nan

>  <Standard Relation>  (25) 
nan

>  <Standard Units>  (25) 
nan

>  <Standard Value>  (25) 
nan

>  <Assay ChEMBL ID>  (25) 
nan

>  <Assay Description>  (25) 
nan

>  <BAO Label>  (25) 
nan

$$$$

     RDKit          2D

 23 27  0  0  0  0  0  0  0  0999 V2000
   -3.0012   -8.3221    0.0000 C   0  0  0  0  0  0  0  0  0  0  0  0
   -3.7641   -7.0305    0.0000 C   0  0  0  0  0  0  0  0  0  0  0  0
   -3.0270   -5.7241    0.0000 C   0  0  0  0  0  0  0  0  0  0  0  0
   -3.7899   -4.4326    0.0000 C   0  0  0  0  0  0  0  0  0  0  0  0
   -3.5875   -2.2210    0.0000 N   0  0  0  0  0  4  0  0  0  0  0  0
   -2.3166   -2.4911    0.0000 C   0  0  0  0  0  0  0  0  0  0  0  0
   -2.4844   -2.4555    0.0000 C   0  0  0  0  0  0  0  0  0  0  0  0
   -1.2135   -2.7256    0.0000 C   0  0  0  0  0  0  0  0  0  0  0  0
   -0.0000   -3.6073    0.0000 C   0  0  0  0  0  0  0  0  0  0  0  0
   -0.1568   -5.0991    0.0000 C   0  0  0  0  0  0  0  0  0  0  0  0
    1.0567   -5.9808    0.0000 C   0  0  0  0  0  0  0  0  0  0  0  0
    0.8999   -7.4725    0.0000 O   0  0  0  0  0  0  0  0  0  0  0  0
   -1.5271   -5.7092    0.0000 C   0  0  0  0  0  0  0  0  0  0  0  0
   -2.7406   -4.8275    0.0000 C   0  0  0  0  0  0  0  0  0  0  0  0
   -2.5838   -3.3357    0.0000 C   0  0  0  0  0  0  0  0  0  0  0  0
    1.2135   -2.7256    0.0000 N   0  0  0  0  0  0  0  0  0  0  0  0
    0.7500   -1.2990    0.0000 C   0  0  0  0  0  0  0  0  0  0  0  0
    1.5000    0.0000    0.0000 C   0  0  0  0  0  0  0  0  0  0  0  0
    3.0000    0.0000    0.0000 O   0  0  0  0  0  0  0  0  0  0  0  0
    0.7500    1.2990    0.0000 C   0  0  0  0  0  0  0  0  0  0  0  0
   -0.7500    1.2990    0.0000 C   0  0  0  0  0  0  0  0  0  0  0  0
   -1.5000    0.0000    0.0000 C   0  0  0  0  0  0  0  0  0  0  0  0
   -0.7500   -1.2990    0.0000 C   0  0  0  0  0  0  0  0  0  0  0  0
  1  2  1  0
  2  3  2  0
  3  4  1  0
  4  5  1  0
  5  6  1  0
  6  7  1  0
  8  7  1  1
  8  9  1  0
  9 10  2  0
 10 11  1  0
 11 12  2  0
 13 10  1  1
 13 14  1  0
 15 14  1  1
  9 16  1  0
 16 17  1  0
 17 18  2  0
 18 19  1  0
 18 20  1  0
 20 21  2  0
 21 22  1  0
 22 23  2  0
 13  3  1  0
 23 17  1  0
 15  5  1  0
 15  8  1  0
 23  8  1  0
M  CHG  1   5   1
M  END
>  <Compound_ID>  (26) 
C33938146

>  <Active>  (26) 
0

>  <Smiles>  (26) 
C/C=C1/C[NH+]2CC[C@@]34C(=C(C=O)[C@@H]1C[C@@H]23)Nc1c(O)cccc14

>  <canonical_smi>  (26) 
C/C=C1/C[NH+]2CC[C@@]34C(=C(C=O)[C@@H]1C[C@@H]23)Nc1c(O)cccc14

>  <Set>  (26) 
G2 inactive

>  <Set_type>  (26) 
Train

>  <MW>  (26) 
309.39

>  <HBD>  (26) 
3

>  <HBA>  (26) 
3

>  <NRB>  (26) 
1

>  <NR>  (26) 
5

>  <NAR>  (26) 
1

>  <PSA>  (26) 
53.77

>  <Standard Type>  (26) 
nan

>  <Standard Relation>  (26) 
nan

>  <Standard Units>  (26) 
nan

>  <Standard Value>  (26) 
nan

>  <Assay ChEMBL ID>  (26) 
nan

>  <Assay Description>  (26) 
nan

>  <BAO Label>  (26) 
nan

$$$$

     RDKit          2D

 20 22  0  0  0  0  0  0  0  0999 V2000
   -1.1708    5.3800    0.0000 O   0  0  0  0  0  0  0  0  0  0  0  0
   -2.6380    5.6918    0.0000 S   0  0  0  0  0  0  0  0  0  0  0  0
   -4.1052    6.0037    0.0000 O   0  0  0  0  0  0  0  0  0  0  0  0
   -2.3261    7.1591    0.0000 C   0  0  0  0  0  0  0  0  0  0  0  0
   -0.8995    7.6226    0.0000 C   0  0  0  0  0  0  0  0  0  0  0  0
    0.2152    6.6189    0.0000 C   0  0  0  0  0  0  0  0  0  0  0  0
    1.6418    7.0824    0.0000 C   0  0  0  0  0  0  0  0  0  0  0  0
    1.9536    8.5496    0.0000 C   0  0  0  0  0  0  0  0  0  0  0  0
    0.8389    9.5533    0.0000 C   0  0  0  0  0  0  0  0  0  0  0  0
   -0.5877    9.0898    0.0000 C   0  0  0  0  0  0  0  0  0  0  0  0
   -2.9499    4.2246    0.0000 N   0  0  0  0  0  0  0  0  0  0  0  0
   -1.8351    3.2209    0.0000 C   0  0  0  0  0  0  0  0  0  0  0  0
   -0.4086    3.6844    0.0000 C   0  0  0  0  0  0  0  0  0  0  0  0
    0.7062    2.6807    0.0000 C   0  0  0  0  0  0  0  0  0  0  0  0
    0.3943    1.2135    0.0000 C   0  0  0  0  0  0  0  0  0  0  0  0
    1.2760    0.0000    0.0000 C   0  0  0  0  0  0  0  0  0  0  0  0
    0.3943   -1.2135    0.0000 N   0  0  0  0  0  4  0  0  0  0  0  0
   -1.0323   -0.7500    0.0000 C   0  0  0  0  0  0  0  0  0  0  0  0
   -1.0323    0.7500    0.0000 C   0  0  0  0  0  0  0  0  0  0  0  0
   -2.1470    1.7537    0.0000 C   0  0  0  0  0  0  0  0  0  0  0  0
  1  2  2  0
  2  3  2  0
  2  4  1  0
  4  5  1  0
  5  6  1  0
  6  7  1  0
  7  8  1  0
  8  9  1  0
  9 10  1  0
  2 11  1  0
 12 11  1  1
 12 13  1  0
 13 14  1  0
 15 14  1  1
 15 16  1  0
 16 17  1  0
 17 18  1  0
 19 18  1  1
 19 20  1  0
 10  5  1  0
 20 12  1  0
 19 15  1  0
M  CHG  1  17   1
M  END
>  <Compound_ID>  (27) 
C49043242

>  <Active>  (27) 
0

>  <Smiles>  (27) 
O=S(=O)(CC1CCCCC1)N[C@H]1CC[C@H]2C[NH2+]C[C@H]2C1

>  <canonical_smi>  (27) 
O=S(=O)(CC1CCCCC1)N[C@H]1CC[C@H]2C[NH2+]C[C@H]2C1

>  <Set>  (27) 
G2 inactive

>  <Set_type>  (27) 
Train

>  <MW>  (27) 
301.48

>  <HBD>  (27) 
2

>  <HBA>  (27) 
2

>  <NRB>  (27) 
4

>  <NR>  (27) 
3

>  <NAR>  (27) 
0

>  <PSA>  (27) 
62.78

>  <Standard Type>  (27) 
nan

>  <Standard Relation>  (27) 
nan

>  <Standard Units>  (27) 
nan

>  <Standard Value>  (27) 
nan

>  <Assay ChEMBL ID>  (27) 
nan

>  <Assay Description>  (27) 
nan

>  <BAO Label>  (27) 
nan

$$$$

     RDKit          2D

 33 37  0  0  0  0  0  0  0  0999 V2000
   -3.0000   -5.1962    0.0000 O   0  0  0  0  0  0  0  0  0  0  0  0
   -3.7500   -3.8971    0.0000 C   0  0  0  0  0  0  0  0  0  0  0  0
   -3.0000   -2.5981    0.0000 N   0  0  0  0  0  0  0  0  0  0  0  0
   -1.5000   -2.5981    0.0000 C   0  0  0  0  0  0  0  0  0  0  0  0
   -0.7500   -3.8971    0.0000 C   0  0  0  0  0  0  0  0  0  0  0  0
    0.7500   -3.8971    0.0000 C   0  0  0  0  0  0  0  0  0  0  0  0
    1.5000   -2.5981    0.0000 C   0  0  0  0  0  0  0  0  0  0  0  0
    0.7500   -1.2990    0.0000 C   0  0  0  0  0  0  0  0  0  0  0  0
    1.5000    0.0000    0.0000 C   0  0  0  0  0  0  0  0  0  0  0  0
    0.7500    1.2990    0.0000 C   0  0  0  0  0  0  0  0  0  0  0  0
   -0.7500    1.2990    0.0000 C   0  0  0  0  0  0  0  0  0  0  0  0
   -1.5000    0.0000    0.0000 C   0  0  0  0  0  0  0  0  0  0  0  0
   -0.7500   -1.2990    0.0000 C   0  0  0  0  0  0  0  0  0  0  0  0
   -5.2500   -3.8971    0.0000 O   0  0  0  0  0  0  0  0  0  0  0  0
   -6.0000   -5.1962    0.0000 C   0  0  0  0  0  0  0  0  0  0  0  0
   -5.3899   -6.5665    0.0000 C   0  0  0  0  0  0  0  0  0  0  0  0
   -6.5046   -7.5702    0.0000 O   0  0  0  0  0  0  0  0  0  0  0  0
   -7.8037   -6.8202    0.0000 C   0  0  0  0  0  0  0  0  0  0  0  0
   -7.4918   -5.3529    0.0000 C   0  0  0  0  0  0  0  0  0  0  0  0
   -8.7908   -4.6029    0.0000 O   0  0  0  0  0  0  0  0  0  0  0  0
   -9.9055   -5.6066    0.0000 C   0  0  0  0  0  0  0  0  0  0  0  0
   -9.2954   -6.9770    0.0000 C   0  0  0  0  0  0  0  0  0  0  0  0
  -10.0454   -8.2760    0.0000 N   0  0  0  0  0  0  0  0  0  0  0  0
  -11.5454   -8.2760    0.0000 C   0  0  0  0  0  0  0  0  0  0  0  0
  -12.2954   -6.9770    0.0000 S   0  0  0  0  0  0  0  0  0  0  0  0
  -12.2954   -9.5750    0.0000 N   0  0  0  0  0  0  0  0  0  0  0  0
  -13.7954   -9.5750    0.0000 C   0  0  0  0  0  0  0  0  0  0  0  0
  -14.5454   -8.2760    0.0000 C   0  0  0  0  0  0  0  0  0  0  0  0
  -16.0454   -8.2760    0.0000 C   0  0  0  0  0  0  0  0  0  0  0  0
  -16.7954   -9.5750    0.0000 C   0  0  0  0  0  0  0  0  0  0  0  0
  -18.2954   -9.5750    0.0000 Cl  0  0  0  0  0  0  0  0  0  0  0  0
  -16.0454  -10.8741    0.0000 C   0  0  0  0  0  0  0  0  0  0  0  0
  -14.5454  -10.8741    0.0000 C   0  0  0  0  0  0  0  0  0  0  0  0
  1  2  2  0
  2  3  1  0
  3  4  1  0
  4  5  2  0
  5  6  1  0
  6  7  2  0
  7  8  1  0
  8  9  2  0
  9 10  1  0
 10 11  2  0
 11 12  1  0
 12 13  2  0
  2 14  1  0
 15 14  1  6
 15 16  1  0
 16 17  1  0
 18 17  1  6
 18 19  1  0
 19 20  1  6
 20 21  1  0
 21 22  1  0
 22 23  1  1
 23 24  1  0
 24 25  2  0
 24 26  1  0
 26 27  1  0
 27 28  2  0
 28 29  1  0
 29 30  2  0
 30 31  1  0
 30 32  1  0
 32 33  2  0
 13  4  1  0
 19 15  1  0
 33 27  1  0
 13  8  1  0
 22 18  1  0
M  END
>  <Compound_ID>  (28) 
C04235455

>  <Active>  (28) 
0

>  <Smiles>  (28) 
O=C(Nc1cccc2ccccc12)O[C@@H]1CO[C@H]2[C@@H]1OC[C@@H]2NC(=S)Nc1ccc(Cl)cc1

>  <canonical_smi>  (28) 
O=C(Nc1cccc2ccccc12)O[C@@H]1CO[C@@H]2[C@@H](NC(=S)Nc3ccc(Cl)cc3)CO[C@H]12

>  <Set>  (28) 
G2 inactive

>  <Set_type>  (28) 
Train

>  <MW>  (28) 
483.98

>  <HBD>  (28) 
3

>  <HBA>  (28) 
7

>  <NRB>  (28) 
4

>  <NR>  (28) 
5

>  <NAR>  (28) 
3

>  <PSA>  (28) 
80.85

>  <Standard Type>  (28) 
nan

>  <Standard Relation>  (28) 
nan

>  <Standard Units>  (28) 
nan

>  <Standard Value>  (28) 
nan

>  <Assay ChEMBL ID>  (28) 
nan

>  <Assay Description>  (28) 
nan

>  <BAO Label>  (28) 
nan

$$$$

     RDKit          2D

 23 25  0  0  0  0  0  0  0  0999 V2000
    3.7500   -1.2990    0.0000 C   0  0  0  0  0  0  0  0  0  0  0  0
    3.0000    0.0000    0.0000 O   0  0  0  0  0  0  0  0  0  0  0  0
    1.5000    0.0000    0.0000 C   0  0  0  0  0  0  0  0  0  0  0  0
    0.7500   -1.2990    0.0000 C   0  0  0  0  0  0  0  0  0  0  0  0
   -0.7500   -1.2990    0.0000 N   0  0  0  0  0  0  0  0  0  0  0  0
   -1.5000   -2.5981    0.0000 C   0  0  0  0  0  0  0  0  0  0  0  0
   -3.0000   -2.5981    0.0000 C   0  0  0  0  0  0  0  0  0  0  0  0
   -3.7500   -3.8971    0.0000 C   0  0  0  0  0  0  0  0  0  0  0  0
   -3.0000   -5.1962    0.0000 C   0  0  0  0  0  0  0  0  0  0  0  0
   -3.7500   -6.4952    0.0000 S   0  0  0  0  0  0  0  0  0  0  0  0
   -5.2500   -6.4952    0.0000 C   0  0  0  0  0  0  0  0  0  0  0  0
   -1.5000   -5.1962    0.0000 C   0  0  0  0  0  0  0  0  0  0  0  0
   -0.7500   -3.8971    0.0000 C   0  0  0  0  0  0  0  0  0  0  0  0
    0.7500   -3.8971    0.0000 C   0  0  0  0  0  0  0  0  0  0  0  0
    1.5000   -2.5981    0.0000 C   0  0  0  0  0  0  0  0  0  0  0  0
    3.0000   -2.5981    0.0000 C   0  0  0  0  0  0  0  0  0  0  0  0
    3.7500   -3.8971    0.0000 C   0  0  0  0  0  0  0  0  0  0  0  0
    3.0000   -5.1962    0.0000 C   0  0  0  0  0  0  0  0  0  0  0  0
    1.5000   -5.1962    0.0000 C   0  0  0  0  0  0  0  0  0  0  0  0
    0.7500   -6.4952    0.0000 O   0  0  0  0  0  0  0  0  0  0  0  0
   -1.5000    0.0000    0.0000 C   0  0  0  0  0  0  0  0  0  0  0  0
   -0.7500    1.2990    0.0000 C   0  0  0  0  0  0  0  0  0  0  0  0
    0.7500    1.2990    0.0000 N   0  0  0  0  0  0  0  0  0  0  0  0
  1  2  1  0
  3  2  1  1
  3  4  1  0
  4  5  1  0
  5  6  1  0
  6  7  2  0
  7  8  1  0
  8  9  2  0
  9 10  1  0
 10 11  1  0
  9 12  1  0
 12 13  2  0
 13 14  1  0
 14 15  2  0
 15 16  1  0
 16 17  2  0
 17 18  1  0
 18 19  2  0
 19 20  1  0
  5 21  1  0
 21 22  1  0
 22 23  1  0
 23  3  1  0
 13  6  1  0
 19 14  1  0
M  END
>  <Compound_ID>  (29) 
C39529946

>  <Active>  (29) 
0

>  <Smiles>  (29) 
CO[C@H]1CN(c2ccc(SC)cc2-c2ccccc2O)CCN1

>  <canonical_smi>  (29) 
CO[C@H]1CN(c2ccc(SC)cc2-c2ccccc2O)CCN1

>  <Set>  (29) 
G2 inactive

>  <Set_type>  (29) 
Train

>  <MW>  (29) 
330.45

>  <HBD>  (29) 
2

>  <HBA>  (29) 
5

>  <NRB>  (29) 
4

>  <NR>  (29) 
3

>  <NAR>  (29) 
2

>  <PSA>  (29) 
44.73

>  <Standard Type>  (29) 
nan

>  <Standard Relation>  (29) 
nan

>  <Standard Units>  (29) 
nan

>  <Standard Value>  (29) 
nan

>  <Assay ChEMBL ID>  (29) 
nan

>  <Assay Description>  (29) 
nan

>  <BAO Label>  (29) 
nan

$$$$

     RDKit          2D

 23 25  0  0  0  0  0  0  0  0999 V2000
    3.0000    0.0000    0.0000 C   0  0  0  0  0  0  0  0  0  0  0  0
    1.5000    0.0000    0.0000 C   0  0  0  0  0  0  0  0  0  0  0  0
    0.7500   -1.2990    0.0000 C   0  0  0  0  0  0  0  0  0  0  0  0
   -0.7500   -1.2990    0.0000 C   0  0  0  0  0  0  0  0  0  0  0  0
   -1.5000    0.0000    0.0000 C   0  0  0  0  0  0  0  0  0  0  0  0
   -3.0000    0.0000    0.0000 S   0  0  0  0  0  0  0  0  0  0  0  0
   -3.7500    1.2990    0.0000 C   0  0  0  0  0  0  0  0  0  0  0  0
   -3.0000    2.5981    0.0000 N   0  0  0  0  0  0  0  0  0  0  0  0
   -3.7500    3.8971    0.0000 C   0  0  0  0  0  0  0  0  0  0  0  0
   -5.2500    3.8971    0.0000 N   0  0  0  0  0  0  0  0  0  0  0  0
   -6.0000    2.5981    0.0000 C   0  0  0  0  0  0  0  0  0  0  0  0
   -7.5000    2.5981    0.0000 N   0  0  0  0  0  0  0  0  0  0  0  0
   -8.2500    3.8971    0.0000 C   0  0  0  0  0  0  0  0  0  0  0  0
   -8.2500    1.2990    0.0000 C   0  0  0  0  0  0  0  0  0  0  0  0
   -9.7500    1.2990    0.0000 C   0  0  0  0  0  0  0  0  0  0  0  0
  -10.5000    0.0000    0.0000 C   0  0  0  0  0  0  0  0  0  0  0  0
   -9.7500   -1.2990    0.0000 C   0  0  0  0  0  0  0  0  0  0  0  0
   -8.2500   -1.2990    0.0000 C   0  0  0  0  0  0  0  0  0  0  0  0
   -7.5000    0.0000    0.0000 C   0  0  0  0  0  0  0  0  0  0  0  0
   -5.2500    1.2990    0.0000 C   0  0  0  0  0  0  0  0  0  0  0  0
   -6.0000    0.0000    0.0000 N   0  0  0  0  0  0  0  0  0  0  0  0
   -0.7500    1.2990    0.0000 C   0  0  0  0  0  0  0  0  0  0  0  0
    0.7500    1.2990    0.0000 C   0  0  0  0  0  0  0  0  0  0  0  0
  1  2  1  0
  2  3  2  0
  3  4  1  0
  4  5  2  0
  5  6  1  0
  6  7  1  0
  7  8  2  0
  8  9  1  0
  9 10  2  0
 10 11  1  0
 11 12  1  0
 12 13  1  0
 12 14  1  0
 14 15  2  0
 15 16  1  0
 16 17  2  0
 17 18  1  0
 18 19  2  0
 11 20  2  0
 20 21  1  0
  5 22  1  0
 22 23  2  0
 23  2  1  0
 20  7  1  0
 19 14  1  0
M  END
>  <Compound_ID>  (30) 
C40757774

>  <Active>  (30) 
0

>  <Smiles>  (30) 
Cc1ccc(Sc2ncnc(N(C)c3ccccc3)c2N)cc1

>  <canonical_smi>  (30) 
Cc1ccc(Sc2ncnc(N(C)c3ccccc3)c2N)cc1

>  <Set>  (30) 
G2 inactive

>  <Set_type>  (30) 
Train

>  <MW>  (30) 
322.44

>  <HBD>  (30) 
1

>  <HBA>  (30) 
5

>  <NRB>  (30) 
4

>  <NR>  (30) 
3

>  <NAR>  (30) 
3

>  <PSA>  (30) 
55.04

>  <Standard Type>  (30) 
nan

>  <Standard Relation>  (30) 
nan

>  <Standard Units>  (30) 
nan

>  <Standard Value>  (30) 
nan

>  <Assay ChEMBL ID>  (30) 
nan

>  <Assay Description>  (30) 
nan

>  <BAO Label>  (30) 
nan

$$$$

     RDKit          2D

 20 22  0  0  0  0  0  0  0  0999 V2000
   -3.0000    5.1962    0.0000 N   0  0  0  0  0  0  0  0  0  0  0  0
   -3.7500    3.8971    0.0000 C   0  0  0  0  0  0  0  0  0  0  0  0
   -3.0000    2.5981    0.0000 C   0  0  0  0  0  0  0  0  0  0  0  0
   -3.7500    1.2990    0.0000 C   0  0  0  0  0  0  0  0  0  0  0  0
   -3.0000    0.0000    0.0000 N   0  0  0  0  0  0  0  0  0  0  0  0
   -0.3828    0.5621    0.0000 C   0  0  0  0  0  0  0  0  0  0  0  0
    0.2954   -0.6125    0.0000 C   0  0  0  0  0  0  0  0  0  0  0  0
    0.7500   -1.2990    0.0000 N   0  0  0  0  0  4  0  0  0  0  0  0
    1.5000    0.0000    0.0000 C   0  0  0  0  0  0  0  0  0  0  0  0
    0.7500    1.2990    0.0000 C   0  0  0  0  0  0  0  0  0  0  0  0
   -0.7500    1.2990    0.0000 C   0  0  0  0  0  0  0  0  0  0  0  0
   -1.5000    0.0000    0.0000 C   0  0  0  0  0  0  0  0  0  0  0  0
   -0.7500   -1.2990    0.0000 C   0  0  0  0  0  0  0  0  0  0  0  0
   -5.2500    1.2990    0.0000 C   0  0  0  0  0  0  0  0  0  0  0  0
   -6.0000    2.5981    0.0000 C   0  0  0  0  0  0  0  0  0  0  0  0
   -7.5000    2.5981    0.0000 S   0  0  0  0  0  0  0  0  0  0  0  0
   -9.0000    2.5981    0.0000 N   0  0  0  0  0  0  0  0  0  0  0  0
   -7.5000    4.0981    0.0000 O   0  0  0  0  0  0  0  0  0  0  0  0
   -7.5000    1.0981    0.0000 O   0  0  0  0  0  0  0  0  0  0  0  0
   -5.2500    3.8971    0.0000 C   0  0  0  0  0  0  0  0  0  0  0  0
  1  2  1  0
  2  3  2  0
  3  4  1  0
  4  5  1  0
  6  5  1  1
  6  7  1  0
  7  8  1  0
  8  9  1  0
  9 10  1  0
 10 11  1  0
 11 12  1  0
 12 13  1  0
  4 14  2  0
 14 15  1  0
 15 16  1  0
 16 17  1  0
 16 18  2  0
 16 19  2  0
 15 20  2  0
 20  2  1  0
 11  6  1  0
 13  8  1  0
M  CHG  1   8   1
M  END
>  <Compound_ID>  (31) 
C37934058

>  <Active>  (31) 
0

>  <Smiles>  (31) 
Nc1cc(N[C@@H]2C[NH+]3CCC2CC3)cc(S(N)(=O)=O)c1

>  <canonical_smi>  (31) 
Nc1cc(N[C@@H]2C[NH+]3CCC2CC3)cc(S(N)(=O)=O)c1

>  <Set>  (31) 
G2 inactive

>  <Set_type>  (31) 
Train

>  <MW>  (31) 
297.4

>  <HBD>  (31) 
4

>  <HBA>  (31) 
4

>  <NRB>  (31) 
3

>  <NR>  (31) 
4

>  <NAR>  (31) 
1

>  <PSA>  (31) 
102.65

>  <Standard Type>  (31) 
nan

>  <Standard Relation>  (31) 
nan

>  <Standard Units>  (31) 
nan

>  <Standard Value>  (31) 
nan

>  <Assay ChEMBL ID>  (31) 
nan

>  <Assay Description>  (31) 
nan

>  <BAO Label>  (31) 
nan

$$$$

     RDKit          2D

 19 19  0  0  0  0  0  0  0  0999 V2000
    5.2500   -1.2990    0.0000 C   0  0  0  0  0  0  0  0  0  0  0  0
    3.7500   -1.2990    0.0000 C   0  0  0  0  0  0  0  0  0  0  0  0
    3.0000    0.0000    0.0000 N   0  0  0  0  0  0  0  0  0  0  0  0
    3.7500    1.2990    0.0000 C   0  0  0  0  0  0  0  0  0  0  0  0
    5.2500    1.2990    0.0000 C   0  0  0  0  0  0  0  0  0  0  0  0
    6.0000    2.5981    0.0000 O   0  0  0  0  0  0  0  0  0  0  0  0
    1.5000    0.0000    0.0000 C   0  0  0  0  0  0  0  0  0  0  0  0
    0.7500   -1.2990    0.0000 N   0  0  0  0  0  0  0  0  0  0  0  0
   -0.7500   -1.2990    0.0000 C   0  0  0  0  0  0  0  0  0  0  0  0
   -1.5000    0.0000    0.0000 N   0  0  0  0  0  4  0  0  0  0  0  0
   -0.7500    1.2990    0.0000 C   0  0  0  0  0  0  0  0  0  0  0  0
   -1.5000    2.5981    0.0000 N   0  0  0  0  0  0  0  0  0  0  0  0
   -3.0000    2.5981    0.0000 N   0  0  0  0  0  0  0  0  0  0  0  0
   -3.7500    3.8971    0.0000 C   0  0  0  0  0  0  0  0  0  0  0  0
   -5.0490    3.1471    0.0000 C   0  0  0  0  0  0  0  0  0  0  0  0
   -2.4510    4.6471    0.0000 C   0  0  0  0  0  0  0  0  0  0  0  0
   -4.5000    5.1962    0.0000 C   0  0  0  0  0  0  0  0  0  0  0  0
    0.7500    1.2990    0.0000 C   0  0  0  0  0  0  0  0  0  0  0  0
    1.5000    2.5981    0.0000 N   0  0  0  0  0  0  0  0  0  0  0  0
  1  2  1  0
  2  3  1  0
  3  4  1  0
  4  5  1  0
  5  6  1  0
  3  7  1  0
  7  8  2  0
  8  9  1  0
  9 10  2  0
 10 11  1  0
 11 12  1  0
 12 13  1  0
 13 14  1  0
 14 15  1  0
 14 16  1  0
 14 17  1  0
 11 18  2  0
 18 19  1  0
 18  7  1  0
M  CHG  1  10   1
M  END
>  <Compound_ID>  (32) 
C40736308

>  <Active>  (32) 
0

>  <Smiles>  (32) 
CCN(CCO)c1nc[nH+]c(NNC(C)(C)C)c1N

>  <canonical_smi>  (32) 
CCN(CCO)c1nc[nH+]c(NNC(C)(C)C)c1N

>  <Set>  (32) 
G2 inactive

>  <Set_type>  (32) 
Train

>  <MW>  (32) 
269.37

>  <HBD>  (32) 
4

>  <HBA>  (32) 
6

>  <NRB>  (32) 
6

>  <NR>  (32) 
1

>  <NAR>  (32) 
1

>  <PSA>  (32) 
100.58

>  <Standard Type>  (32) 
nan

>  <Standard Relation>  (32) 
nan

>  <Standard Units>  (32) 
nan

>  <Standard Value>  (32) 
nan

>  <Assay ChEMBL ID>  (32) 
nan

>  <Assay Description>  (32) 
nan

>  <BAO Label>  (32) 
nan

$$$$

     RDKit          2D

 26 26  0  0  0  0  0  0  0  0999 V2000
    3.0000    0.0000    0.0000 C   0  0  0  0  0  0  0  0  0  0  0  0
    1.5000    0.0000    0.0000 C   0  0  0  0  0  0  0  0  0  0  0  0
    0.7500   -1.2990    0.0000 N   0  0  0  0  0  0  0  0  0  0  0  0
   -0.7500   -1.2990    0.0000 C   0  0  0  0  0  0  0  0  0  0  0  0
   -1.5000   -2.5981    0.0000 O   0  0  0  0  0  0  0  0  0  0  0  0
   -1.5000    0.0000    0.0000 N   0  0  0  0  0  0  0  0  0  0  0  0
   -0.7500    1.2990    0.0000 C   0  0  0  0  0  0  0  0  0  0  0  0
   -1.5000    2.5981    0.0000 O   0  0  0  0  0  0  0  0  0  0  0  0
    0.7500    1.2990    0.0000 C   0  0  0  0  0  0  0  0  0  0  0  0
    1.5000    2.5981    0.0000 C   0  0  0  0  0  0  0  0  0  0  0  0
    3.0000    2.5981    0.0000 N   0  0  0  0  0  0  0  0  0  0  0  0
    3.7500    3.8971    0.0000 N   0  0  0  0  0  0  0  0  0  0  0  0
    5.2500    3.8971    0.0000 C   0  0  0  0  0  0  0  0  0  0  0  0
    6.0000    2.5981    0.0000 O   0  0  0  0  0  0  0  0  0  0  0  0
    6.0000    5.1962    0.0000 C   0  0  0  0  0  0  0  0  0  0  0  0
    5.2500    6.4952    0.0000 N   0  0  0  0  0  0  0  0  0  0  0  0
    6.0000    7.7942    0.0000 C   0  0  0  0  0  0  0  0  0  0  0  0
    7.5000    7.7942    0.0000 O   0  0  0  0  0  0  0  0  0  0  0  0
    5.2500    9.0933    0.0000 O   0  0  0  0  0  0  0  0  0  0  0  0
    6.0000   10.3923    0.0000 C   0  0  0  0  0  0  0  0  0  0  0  0
    4.7010   11.1423    0.0000 C   0  0  0  0  0  0  0  0  0  0  0  0
    7.2990    9.6423    0.0000 C   0  0  0  0  0  0  0  0  0  0  0  0
    6.7500   11.6913    0.0000 C   0  0  0  0  0  0  0  0  0  0  0  0
    7.5000    5.1962    0.0000 C   0  0  0  0  0  0  0  0  0  0  0  0
    8.2500    6.4952    0.0000 C   0  0  0  0  0  0  0  0  0  0  0  0
    8.2500    3.8971    0.0000 C   0  0  0  0  0  0  0  0  0  0  0  0
  1  2  1  0
  2  3  1  0
  3  4  1  0
  4  5  2  0
  4  6  1  0
  6  7  1  0
  7  8  2  0
  7  9  1  0
  9 10  1  0
 10 11  2  0
 11 12  1  0
 12 13  1  0
 13 14  2  0
 13 15  1  0
 15 16  1  1
 16 17  1  0
 17 18  2  0
 17 19  1  0
 19 20  1  0
 20 21  1  0
 20 22  1  0
 20 23  1  0
 15 24  1  0
 24 25  1  0
 24 26  1  0
  9  2  2  0
M  END
>  <Compound_ID>  (33) 
C01889672

>  <Active>  (33) 
0

>  <Smiles>  (33) 
Cc1[nH]c(=O)[nH]c(=O)c1/C=N/NC(=O)[C@@H](NC(=O)OC(C)(C)C)C(C)C

>  <canonical_smi>  (33) 
Cc1[nH]c(=O)[nH]c(=O)c1/C=N/NC(=O)[C@@H](NC(=O)OC(C)(C)C)C(C)C

>  <Set>  (33) 
G2 inactive

>  <Set_type>  (33) 
Train

>  <MW>  (33) 
367.41

>  <HBD>  (33) 
4

>  <HBA>  (33) 
5

>  <NRB>  (33) 
5

>  <NR>  (33) 
1

>  <NAR>  (33) 
1

>  <PSA>  (33) 
145.51

>  <Standard Type>  (33) 
nan

>  <Standard Relation>  (33) 
nan

>  <Standard Units>  (33) 
nan

>  <Standard Value>  (33) 
nan

>  <Assay ChEMBL ID>  (33) 
nan

>  <Assay Description>  (33) 
nan

>  <BAO Label>  (33) 
nan

$$$$

     RDKit          2D

 23 25  0  0  0  0  0  0  0  0999 V2000
    3.0000    0.0000    0.0000 C   0  0  0  0  0  0  0  0  0  0  0  0
    1.5000    0.0000    0.0000 C   0  0  0  0  0  0  0  0  0  0  0  0
    0.7500   -1.2990    0.0000 C   0  0  0  0  0  0  0  0  0  0  0  0
   -0.7500   -1.2990    0.0000 C   0  0  0  0  0  0  0  0  0  0  0  0
   -1.5000    0.0000    0.0000 N   0  0  0  0  0  0  0  0  0  0  0  0
   -3.0000    0.0000    0.0000 C   0  0  0  0  0  0  0  0  0  0  0  0
   -3.7500    1.2990    0.0000 N   0  0  0  0  0  0  0  0  0  0  0  0
   -5.2500    1.2990    0.0000 C   0  0  0  0  0  0  0  0  0  0  0  0
   -6.0000    0.0000    0.0000 N   0  0  0  0  0  0  0  0  0  0  0  0
   -5.2500   -1.2990    0.0000 C   0  0  0  0  0  0  0  0  0  0  0  0
   -6.0000   -2.5981    0.0000 N   0  0  0  0  0  0  0  0  0  0  0  0
   -7.5000   -2.5981    0.0000 N   0  0  0  0  0  0  0  0  0  0  0  0
   -8.2500   -3.8971    0.0000 C   0  0  0  0  0  0  0  0  0  0  0  0
   -7.5000   -5.1962    0.0000 O   0  0  0  0  0  0  0  0  0  0  0  0
   -9.7500   -3.8971    0.0000 C   0  0  0  0  0  0  0  0  0  0  0  0
  -10.6317   -5.1106    0.0000 C   0  0  0  0  0  0  0  0  0  0  0  0
  -12.0583   -4.6471    0.0000 C   0  0  0  0  0  0  0  0  0  0  0  0
  -12.0583   -3.1471    0.0000 C   0  0  0  0  0  0  0  0  0  0  0  0
  -10.6317   -2.6836    0.0000 O   0  0  0  0  0  0  0  0  0  0  0  0
   -3.7500   -1.2990    0.0000 C   0  0  0  0  0  0  0  0  0  0  0  0
   -3.0000   -2.5981    0.0000 N   0  0  0  0  0  0  0  0  0  0  0  0
   -0.7500    1.2990    0.0000 C   0  0  0  0  0  0  0  0  0  0  0  0
    0.7500    1.2990    0.0000 C   0  0  0  0  0  0  0  0  0  0  0  0
  1  2  1  0
  2  3  1  0
  3  4  1  0
  4  5  1  0
  5  6  1  0
  6  7  2  0
  7  8  1  0
  8  9  2  0
  9 10  1  0
 10 11  1  0
 11 12  1  0
 12 13  1  0
 13 14  2  0
 13 15  1  0
 15 16  2  0
 16 17  1  0
 17 18  2  0
 18 19  1  0
 10 20  2  0
 20 21  1  0
  5 22  1  0
 22 23  1  0
 23  2  1  0
 20  6  1  0
 19 15  1  0
M  END
>  <Compound_ID>  (34) 
C40733008

>  <Active>  (34) 
0

>  <Smiles>  (34) 
CC1CCN(c2ncnc(NNC(=O)c3ccco3)c2N)CC1

>  <canonical_smi>  (34) 
CC1CCN(c2ncnc(NNC(=O)c3ccco3)c2N)CC1

>  <Set>  (34) 
G2 inactive

>  <Set_type>  (34) 
Train

>  <MW>  (34) 
316.37

>  <HBD>  (34) 
3

>  <HBA>  (34) 
7

>  <NRB>  (34) 
4

>  <NR>  (34) 
3

>  <NAR>  (34) 
2

>  <PSA>  (34) 
109.31

>  <Standard Type>  (34) 
nan

>  <Standard Relation>  (34) 
nan

>  <Standard Units>  (34) 
nan

>  <Standard Value>  (34) 
nan

>  <Assay ChEMBL ID>  (34) 
nan

>  <Assay Description>  (34) 
nan

>  <BAO Label>  (34) 
nan

$$$$

     RDKit          2D

 20 21  0  0  0  0  0  0  0  0999 V2000
   -1.5613   -9.9436    0.0000 C   0  0  0  0  0  0  0  0  0  0  0  0
   -0.3478   -9.0619    0.0000 C   0  0  0  0  0  0  0  0  0  0  0  0
   -0.5046   -7.5702    0.0000 N   0  0  0  0  0  0  0  0  0  0  0  0
    0.6101   -6.5665    0.0000 C   0  0  0  0  0  0  0  0  0  0  0  0
   -0.0000   -5.1962    0.0000 C   0  0  0  0  0  0  0  0  0  0  0  0
    0.7500   -3.8971    0.0000 S   0  0  0  0  0  0  0  0  0  0  0  0
   -0.5490   -3.1471    0.0000 O   0  0  0  0  0  0  0  0  0  0  0  0
    2.0490   -4.6471    0.0000 O   0  0  0  0  0  0  0  0  0  0  0  0
    1.5000   -2.5981    0.0000 N   0  0  0  0  0  0  0  0  0  0  0  0
    0.7500   -1.2990    0.0000 C   0  0  0  0  0  0  0  0  0  0  0  0
    1.5000    0.0000    0.0000 C   0  0  0  0  0  0  0  0  0  0  0  0
    0.7500    1.2990    0.0000 C   0  0  0  0  0  0  0  0  0  0  0  0
    1.5000    2.5981    0.0000 C   0  0  0  0  0  0  0  0  0  0  0  0
   -0.7500    1.2990    0.0000 C   0  0  0  0  0  0  0  0  0  0  0  0
   -1.5000    2.5981    0.0000 N   0  0  0  0  0  0  0  0  0  0  0  0
   -1.5000    0.0000    0.0000 C   0  0  0  0  0  0  0  0  0  0  0  0
   -0.7500   -1.2990    0.0000 N   0  0  0  0  0  0  0  0  0  0  0  0
   -1.4918   -5.3529    0.0000 N   0  0  0  0  0  4  0  0  0  0  0  0
   -1.8037   -6.8202    0.0000 C   0  0  0  0  0  0  0  0  0  0  0  0
   -3.1740   -7.4303    0.0000 C   0  0  0  0  0  0  0  0  0  0  0  0
  1  2  1  0
  2  3  1  0
  3  4  1  0
  4  5  2  0
  5  6  1  0
  6  7  2  0
  6  8  2  0
  6  9  1  0
  9 10  2  0
 10 11  1  0
 11 12  2  0
 12 13  1  0
 12 14  1  0
 14 15  1  0
 14 16  2  0
 16 17  1  0
  5 18  1  0
 18 19  2  0
 19 20  1  0
 19  3  1  0
 17 10  1  0
M  CHG  1  18   1
M  END
>  <Compound_ID>  (35) 
C50265337

>  <Active>  (35) 
0

>  <Smiles>  (35) 
CCn1cc(S(=O)(=O)/N=c2/cc(C)c(N)c[nH]2)[nH+]c1C

>  <canonical_smi>  (35) 
CCn1cc(S(=O)(=O)/N=c2/cc(C)c(N)c[nH]2)[nH+]c1C

>  <Set>  (35) 
G2 inactive

>  <Set_type>  (35) 
Train

>  <MW>  (35) 
296.38

>  <HBD>  (35) 
2

>  <HBA>  (35) 
3

>  <NRB>  (35) 
3

>  <NR>  (35) 
2

>  <NAR>  (35) 
2

>  <PSA>  (35) 
107.38

>  <Standard Type>  (35) 
nan

>  <Standard Relation>  (35) 
nan

>  <Standard Units>  (35) 
nan

>  <Standard Value>  (35) 
nan

>  <Assay ChEMBL ID>  (35) 
nan

>  <Assay Description>  (35) 
nan

>  <BAO Label>  (35) 
nan

$$$$

     RDKit          2D

 20 22  0  0  0  0  0  0  0  0999 V2000
    5.7760   -2.5981    0.0000 C   0  0  0  0  0  0  0  0  0  0  0  0
    5.0260   -1.2990    0.0000 N   0  0  0  0  0  4  0  0  0  0  0  0
    5.7760    0.0000    0.0000 C   0  0  0  0  0  0  0  0  0  0  0  0
    3.5260   -1.2990    0.0000 C   0  0  0  0  0  0  0  0  0  0  0  0
    2.7760    0.0000    0.0000 C   0  0  0  0  0  0  0  0  0  0  0  0
    1.2760    0.0000    0.0000 C   0  0  0  0  0  0  0  0  0  0  0  0
    0.3943    1.2135    0.0000 N   0  0  0  0  0  0  0  0  0  0  0  0
   -1.0323    0.7500    0.0000 O   0  0  0  0  0  0  0  0  0  0  0  0
   -1.0323   -0.7500    0.0000 C   0  0  0  0  0  0  0  0  0  0  0  0
   -2.2458   -1.6317    0.0000 C   0  0  0  0  0  0  0  0  0  0  0  0
   -2.2458   -3.1317    0.0000 C   0  0  0  0  0  0  0  0  0  0  0  0
   -3.6724   -3.5952    0.0000 C   0  0  0  0  0  0  0  0  0  0  0  0
   -4.5541   -2.3817    0.0000 C   0  0  0  0  0  0  0  0  0  0  0  0
   -6.0541   -2.3817    0.0000 C   0  0  0  0  0  0  0  0  0  0  0  0
   -6.9358   -3.5952    0.0000 N   0  0  0  0  0  0  0  0  0  0  0  0
   -8.3623   -3.1317    0.0000 C   0  0  0  0  0  0  0  0  0  0  0  0
   -8.3623   -1.6317    0.0000 C   0  0  0  0  0  0  0  0  0  0  0  0
   -6.9358   -1.1682    0.0000 N   0  0  0  0  0  0  0  0  0  0  0  0
   -3.6724   -1.1682    0.0000 S   0  0  0  0  0  0  0  0  0  0  0  0
    0.3943   -1.2135    0.0000 N   0  0  0  0  0  0  0  0  0  0  0  0
  1  2  1  0
  2  3  1  0
  2  4  1  0
  4  5  1  0
  6  5  1  6
  6  7  1  0
  7  8  1  0
  8  9  1  0
  9 10  1  1
 10 11  2  0
 11 12  1  0
 12 13  2  0
 13 14  1  0
 14 15  2  0
 15 16  1  0
 16 17  2  0
 17 18  1  0
 13 19  1  0
  9 20  1  0
 20  6  1  0
 19 10  1  0
 18 14  1  0
M  CHG  1   2   1
M  END
>  <Compound_ID>  (36) 
C64058406

>  <Active>  (36) 
0

>  <Smiles>  (36) 
C[NH+](C)CC[C@H]1NO[C@H](c2ccc(-c3ncc[nH]3)s2)N1

>  <canonical_smi>  (36) 
C[NH+](C)CC[C@H]1NO[C@H](c2ccc(-c3ncc[nH]3)s2)N1

>  <Set>  (36) 
G2 inactive

>  <Set_type>  (36) 
Train

>  <MW>  (36) 
294.4

>  <HBD>  (36) 
4

>  <HBA>  (36) 
4

>  <NRB>  (36) 
5

>  <NR>  (36) 
3

>  <NAR>  (36) 
2

>  <PSA>  (36) 
66.41

>  <Standard Type>  (36) 
nan

>  <Standard Relation>  (36) 
nan

>  <Standard Units>  (36) 
nan

>  <Standard Value>  (36) 
nan

>  <Assay ChEMBL ID>  (36) 
nan

>  <Assay Description>  (36) 
nan

>  <BAO Label>  (36) 
nan

$$$$

     RDKit          2D

 25 27  0  0  0  0  0  0  0  0999 V2000
   -2.9499    4.2246    0.0000 C   0  0  0  0  0  0  0  0  0  0  0  0
   -1.8351    3.2209    0.0000 C   0  0  0  0  0  0  0  0  0  0  0  0
   -0.4086    3.6844    0.0000 C   0  0  0  0  0  0  0  0  0  0  0  0
   -0.0967    5.1517    0.0000 C   0  0  0  0  0  0  0  0  0  0  0  0
    1.3299    5.6152    0.0000 N   0  0  0  0  0  0  0  0  0  0  0  0
   -1.2114    6.1554    0.0000 O   0  0  0  0  0  0  0  0  0  0  0  0
    0.7062    2.6807    0.0000 C   0  0  0  0  0  0  0  0  0  0  0  0
    2.1328    3.1443    0.0000 C   0  0  0  0  0  0  0  0  0  0  0  0
    3.2475    2.1406    0.0000 C   0  0  0  0  0  0  0  0  0  0  0  0
    4.6741    2.6041    0.0000 C   0  0  0  0  0  0  0  0  0  0  0  0
    4.9859    4.0713    0.0000 C   0  0  0  0  0  0  0  0  0  0  0  0
    6.4125    4.5348    0.0000 C   0  0  0  0  0  0  0  0  0  0  0  0
    7.8391    4.9984    0.0000 N   0  0  0  0  0  0  0  0  0  0  0  0
    3.8712    5.0750    0.0000 C   0  0  0  0  0  0  0  0  0  0  0  0
    2.4446    4.6115    0.0000 C   0  0  0  0  0  0  0  0  0  0  0  0
    0.3943    1.2135    0.0000 N   0  0  0  0  0  0  0  0  0  0  0  0
    1.2760    0.0000    0.0000 N   0  0  0  0  0  0  0  0  0  0  0  0
    0.3943   -1.2135    0.0000 C   0  0  0  0  0  0  0  0  0  0  0  0
    0.8578   -2.6401    0.0000 C   0  0  0  0  0  0  0  0  0  0  0  0
   -0.1459   -3.7548    0.0000 C   0  0  0  0  0  0  0  0  0  0  0  0
    0.3177   -5.1814    0.0000 C   0  0  0  0  0  0  0  0  0  0  0  0
   -0.6860   -6.2961    0.0000 O   0  0  0  0  0  0  0  0  0  0  0  0
   -1.0323   -0.7500    0.0000 N   0  0  0  0  0  0  0  0  0  0  0  0
   -1.0323    0.7500    0.0000 C   0  0  0  0  0  0  0  0  0  0  0  0
   -2.1470    1.7537    0.0000 N   0  0  0  0  0  0  0  0  0  0  0  0
  1  2  1  0
  2  3  2  0
  3  4  1  0
  4  5  1  0
  4  6  2  0
  3  7  1  0
  7  8  1  1
  8  9  2  0
  9 10  1  0
 10 11  2  0
 11 12  1  0
 12 13  3  0
 11 14  1  0
 14 15  2  0
  7 16  1  0
 16 17  1  0
 17 18  1  0
 18 19  1  0
 19 20  1  0
 20 21  1  0
 21 22  1  0
 18 23  2  0
 23 24  1  0
 24 25  2  0
 25  2  1  0
 15  8  1  0
 24 16  1  0
M  END
>  <Compound_ID>  (37) 
C04294262

>  <Active>  (37) 
0

>  <Smiles>  (37) 
CC1=C(C(N)=O)[C@@H](c2ccc(C#N)cc2)N2NC(CCCO)=NC2=N1

>  <canonical_smi>  (37) 
CC1=C(C(N)=O)[C@@H](c2ccc(C#N)cc2)N2NC(CCCO)=NC2=N1

>  <Set>  (37) 
G2 inactive

>  <Set_type>  (37) 
Train

>  <MW>  (37) 
338.37

>  <HBD>  (37) 
3

>  <HBA>  (37) 
5

>  <NRB>  (37) 
5

>  <NR>  (37) 
3

>  <NAR>  (37) 
1

>  <PSA>  (37) 
127.1

>  <Standard Type>  (37) 
nan

>  <Standard Relation>  (37) 
nan

>  <Standard Units>  (37) 
nan

>  <Standard Value>  (37) 
nan

>  <Assay ChEMBL ID>  (37) 
nan

>  <Assay Description>  (37) 
nan

>  <BAO Label>  (37) 
nan

$$$$

     RDKit          2D

 22 24  0  0  0  0  0  0  0  0999 V2000
    3.0000    0.0000    0.0000 N   0  0  0  0  0  0  0  0  0  0  0  0
    1.5000    0.0000    0.0000 C   0  0  0  0  0  0  0  0  0  0  0  0
    0.7500   -1.2990    0.0000 N   0  0  0  0  0  0  0  0  0  0  0  0
   -0.7500   -1.2990    0.0000 C   0  0  0  0  0  0  0  0  0  0  0  0
   -1.5000    0.0000    0.0000 C   0  0  0  0  0  0  0  0  0  0  0  0
   -3.0000    0.0000    0.0000 C   0  0  0  0  0  0  0  0  0  0  0  0
   -3.7500    1.2990    0.0000 N   0  0  0  0  0  0  0  0  0  0  0  0
   -3.0000    2.5981    0.0000 C   0  0  0  0  0  0  0  0  0  0  0  0
   -3.7500    3.8971    0.0000 C   0  0  0  0  0  0  0  0  0  0  0  0
   -5.2500    3.8971    0.0000 C   0  0  0  0  0  0  0  0  0  0  0  0
   -6.0000    2.5981    0.0000 C   0  0  0  0  0  0  0  0  0  0  0  0
   -7.5000    2.5981    0.0000 N   0  0  0  0  0  4  0  0  0  0  0  0
   -8.2500    3.8971    0.0000 C   0  0  0  0  0  0  0  0  0  0  0  0
   -9.7500    3.8971    0.0000 C   0  0  0  0  0  0  0  0  0  0  0  0
  -10.5000    2.5981    0.0000 C   0  0  0  0  0  0  0  0  0  0  0  0
  -12.0000    2.5981    0.0000 C   0  0  0  0  0  0  0  0  0  0  0  0
  -12.7500    3.8971    0.0000 O   0  0  0  0  0  0  0  0  0  0  0  0
   -9.7500    1.2990    0.0000 C   0  0  0  0  0  0  0  0  0  0  0  0
   -8.2500    1.2990    0.0000 C   0  0  0  0  0  0  0  0  0  0  0  0
   -5.2500    1.2990    0.0000 C   0  0  0  0  0  0  0  0  0  0  0  0
   -0.7500    1.2990    0.0000 C   0  0  0  0  0  0  0  0  0  0  0  0
    0.7500    1.2990    0.0000 N   0  0  0  0  0  0  0  0  0  0  0  0
  1  2  1  0
  2  3  2  0
  3  4  1  0
  4  5  2  0
  5  6  1  0
  6  7  1  0
  7  8  1  0
  8  9  1  0
  9 10  1  0
 10 11  1  0
 11 12  1  6
 12 13  1  0
 13 14  1  0
 14 15  1  0
 15 16  1  0
 16 17  1  0
 15 18  1  0
 18 19  1  0
 11 20  1  0
  5 21  1  0
 21 22  2  0
 22  2  1  0
 20  7  1  0
 19 12  1  0
M  CHG  1  12   1
M  END
>  <Compound_ID>  (38) 
C20149201

>  <Active>  (38) 
0

>  <Smiles>  (38) 
Nc1ncc(CN2CCC[C@@H]([NH+]3CCC(CO)CC3)C2)cn1

>  <canonical_smi>  (38) 
Nc1ncc(CN2CCC[C@@H]([NH+]3CCC(CO)CC3)C2)cn1

>  <Set>  (38) 
G2 inactive

>  <Set_type>  (38) 
Train

>  <MW>  (38) 
306.43

>  <HBD>  (38) 
3

>  <HBA>  (38) 
5

>  <NRB>  (38) 
4

>  <NR>  (38) 
3

>  <NAR>  (38) 
1

>  <PSA>  (38) 
79.71

>  <Standard Type>  (38) 
nan

>  <Standard Relation>  (38) 
nan

>  <Standard Units>  (38) 
nan

>  <Standard Value>  (38) 
nan

>  <Assay ChEMBL ID>  (38) 
nan

>  <Assay Description>  (38) 
nan

>  <BAO Label>  (38) 
nan

$$$$

     RDKit          2D

 19 20  0  0  0  0  0  0  0  0999 V2000
    2.7760    0.0000    0.0000 C   0  0  0  0  0  0  0  0  0  0  0  0
    1.2760    0.0000    0.0000 C   0  0  0  0  0  0  0  0  0  0  0  0
    0.3943    1.2135    0.0000 C   0  0  0  0  0  0  0  0  0  0  0  0
   -1.0323    0.7500    0.0000 N   0  0  0  0  0  4  0  0  0  0  0  0
   -1.0323   -0.7500    0.0000 C   0  0  0  0  0  0  0  0  0  0  0  0
   -2.2458   -1.6317    0.0000 C   0  0  0  0  0  0  0  0  0  0  0  0
   -3.6161   -1.0216    0.0000 N   0  0  0  0  0  0  0  0  0  0  0  0
   -4.8297   -1.9033    0.0000 C   0  0  0  0  0  0  0  0  0  0  0  0
   -3.7729    0.4702    0.0000 C   0  0  0  0  0  0  0  0  0  0  0  0
   -2.5594    1.3519    0.0000 O   0  0  0  0  0  0  0  0  0  0  0  0
   -5.1432    1.0803    0.0000 C   0  0  0  0  0  0  0  0  0  0  0  0
   -5.3000    2.5721    0.0000 S   0  0  0  0  0  0  0  0  0  0  0  0
   -6.6704    3.1822    0.0000 C   0  0  0  0  0  0  0  0  0  0  0  0
   -7.9694    2.4322    0.0000 N   0  0  0  0  0  0  0  0  0  0  0  0
   -9.0841    3.4359    0.0000 N   0  0  0  0  0  0  0  0  0  0  0  0
   -8.4740    4.8062    0.0000 C   0  0  0  0  0  0  0  0  0  0  0  0
   -9.2240    6.1053    0.0000 C   0  0  0  0  0  0  0  0  0  0  0  0
   -6.9822    4.6494    0.0000 S   0  0  0  0  0  0  0  0  0  0  0  0
    0.3943   -1.2135    0.0000 N   0  0  0  0  0  0  0  0  0  0  0  0
  1  2  1  0
  2  3  2  0
  3  4  1  0
  4  5  2  0
  5  6  1  0
  6  7  1  0
  7  8  1  0
  7  9  1  0
  9 10  2  0
  9 11  1  0
 11 12  1  0
 13 12  1  1
 13 14  1  0
 14 15  1  0
 15 16  1  0
 16 17  1  6
 16 18  1  0
  5 19  1  0
 19  2  1  0
 18 13  1  0
M  CHG  1   4   1
M  END
>  <Compound_ID>  (39) 
C63884193

>  <Active>  (39) 
0

>  <Smiles>  (39) 
Cc1c[nH+]c(CN(C)C(=O)CS[C@H]2NN[C@H](C)S2)[nH]1

>  <canonical_smi>  (39) 
Cc1c[nH+]c(CN(C)C(=O)CS[C@H]2NN[C@H](C)S2)[nH]1

>  <Set>  (39) 
G2 inactive

>  <Set_type>  (39) 
Train

>  <MW>  (39) 
302.45

>  <HBD>  (39) 
3

>  <HBA>  (39) 
5

>  <NRB>  (39) 
5

>  <NR>  (39) 
2

>  <NAR>  (39) 
1

>  <PSA>  (39) 
74.3

>  <Standard Type>  (39) 
nan

>  <Standard Relation>  (39) 
nan

>  <Standard Units>  (39) 
nan

>  <Standard Value>  (39) 
nan

>  <Assay ChEMBL ID>  (39) 
nan

>  <Assay Description>  (39) 
nan

>  <BAO Label>  (39) 
nan

$$$$

     RDKit          2D

 20 21  0  0  0  0  0  0  0  0999 V2000
    3.0000   -5.1962    0.0000 O   0  0  0  0  0  0  0  0  0  0  0  0
    1.5000   -5.1962    0.0000 C   0  0  0  0  0  0  0  0  0  0  0  0
    0.7500   -3.8971    0.0000 O   0  0  0  0  0  0  0  0  0  0  0  0
    1.5000   -2.5981    0.0000 C   0  0  0  0  0  0  0  0  0  0  0  0
    0.7500   -1.2990    0.0000 C   0  0  0  0  0  0  0  0  0  0  0  0
    1.5000    0.0000    0.0000 C   0  0  0  0  0  0  0  0  0  0  0  0
    0.7500    1.2990    0.0000 C   0  0  0  0  0  0  0  0  0  0  0  0
   -0.7500    1.2990    0.0000 C   0  0  0  0  0  0  0  0  0  0  0  0
   -1.5000    2.5981    0.0000 O   0  0  0  0  0  0  0  0  0  0  0  0
   -1.5000    0.0000    0.0000 C   0  0  0  0  0  0  0  0  0  0  0  0
   -3.0000    0.0000    0.0000 O   0  0  0  0  0  0  0  0  0  0  0  0
   -0.7500   -1.2990    0.0000 C   0  0  0  0  0  0  0  0  0  0  0  0
    0.7500   -6.4952    0.0000 C   0  0  0  0  0  0  0  0  0  0  0  0
   -0.7500   -6.4952    0.0000 C   0  0  0  0  0  0  0  0  0  0  0  0
   -1.5000   -7.7942    0.0000 C   0  0  0  0  0  0  0  0  0  0  0  0
   -0.7500   -9.0933    0.0000 C   0  0  0  0  0  0  0  0  0  0  0  0
   -1.5000  -10.3923    0.0000 O   0  0  0  0  0  0  0  0  0  0  0  0
    0.7500   -9.0933    0.0000 C   0  0  0  0  0  0  0  0  0  0  0  0
    1.5000  -10.3923    0.0000 O   0  0  0  0  0  0  0  0  0  0  0  0
    1.5000   -7.7942    0.0000 C   0  0  0  0  0  0  0  0  0  0  0  0
  1  2  2  0
  2  3  1  0
  3  4  1  0
  5  4  1  1
  5  6  1  0
  6  7  1  0
  7  8  1  0
  8  9  1  1
  8 10  1  0
 10 11  1  1
 10 12  1  0
 13  2  1  1
 13 14  1  0
 14 15  1  0
 15 16  1  0
 16 17  1  1
 16 18  1  0
 18 19  1  1
 18 20  1  0
 12  5  1  0
 20 13  1  0
M  END
>  <Compound_ID>  (40) 
C33637585

>  <Active>  (40) 
0

>  <Smiles>  (40) 
O=C(OC[C@@H]1CC[C@H](O)[C@H](O)C1)[C@@H]1CC[C@H](O)[C@H](O)C1

>  <canonical_smi>  (40) 
O=C(OC[C@@H]1CC[C@H](O)[C@H](O)C1)[C@@H]1CC[C@H](O)[C@H](O)C1

>  <Set>  (40) 
G2 inactive

>  <Set_type>  (40) 
Train

>  <MW>  (40) 
288.34

>  <HBD>  (40) 
4

>  <HBA>  (40) 
6

>  <NRB>  (40) 
3

>  <NR>  (40) 
2

>  <NAR>  (40) 
0

>  <PSA>  (40) 
107.22

>  <Standard Type>  (40) 
nan

>  <Standard Relation>  (40) 
nan

>  <Standard Units>  (40) 
nan

>  <Standard Value>  (40) 
nan

>  <Assay ChEMBL ID>  (40) 
nan

>  <Assay Description>  (40) 
nan

>  <BAO Label>  (40) 
nan

$$$$

     RDKit          2D

 24 25  0  0  0  0  0  0  0  0999 V2000
   10.5000   -2.5981    0.0000 C   0  0  0  0  0  0  0  0  0  0  0  0
    9.7500   -3.8971    0.0000 C   0  0  0  0  0  0  0  0  0  0  0  0
   10.5000   -5.1962    0.0000 C   0  0  0  0  0  0  0  0  0  0  0  0
   12.0000   -5.1962    0.0000 C   0  0  0  0  0  0  0  0  0  0  0  0
    9.7500   -6.4952    0.0000 N   0  0  0  0  0  4  0  0  0  0  0  0
   10.5000   -7.7942    0.0000 C   0  0  0  0  0  0  0  0  0  0  0  0
    8.2500   -6.4952    0.0000 C   0  0  0  0  0  0  0  0  0  0  0  0
    7.5000   -5.1962    0.0000 C   0  0  0  0  0  0  0  0  0  0  0  0
    6.0000   -5.1962    0.0000 N   0  0  0  0  0  0  0  0  0  0  0  0
    5.2500   -3.8971    0.0000 C   0  0  0  0  0  0  0  0  0  0  0  0
    6.0000   -2.5981    0.0000 O   0  0  0  0  0  0  0  0  0  0  0  0
    3.7500   -3.8971    0.0000 N   0  0  0  0  0  0  0  0  0  0  0  0
    3.0000   -2.5981    0.0000 C   0  0  0  0  0  0  0  0  0  0  0  0
    1.5000   -2.5981    0.0000 C   0  0  0  0  0  0  0  0  0  0  0  0
    0.7500   -3.8971    0.0000 C   0  0  0  0  0  0  0  0  0  0  0  0
   -0.7500   -3.8971    0.0000 C   0  0  0  0  0  0  0  0  0  0  0  0
   -1.5000   -5.1962    0.0000 F   0  0  0  0  0  0  0  0  0  0  0  0
   -1.5000   -2.5981    0.0000 C   0  0  0  0  0  0  0  0  0  0  0  0
   -0.7500   -1.2990    0.0000 C   0  0  0  0  0  0  0  0  0  0  0  0
    0.7500   -1.2990    0.0000 C   0  0  0  0  0  0  0  0  0  0  0  0
    1.5000    0.0000    0.0000 O   0  0  0  0  0  0  0  0  0  0  0  0
    0.7500    1.2990    0.0000 C   0  0  0  0  0  0  0  0  0  0  0  0
   -0.7500    1.2990    0.0000 O   0  0  0  0  0  0  0  0  0  0  0  0
   -1.5000    0.0000    0.0000 C   0  0  0  0  0  0  0  0  0  0  0  0
  1  2  1  0
  2  3  1  0
  3  4  1  1
  3  5  1  0
  5  6  1  0
  5  7  1  0
  7  8  1  0
  8  9  1  0
  9 10  1  0
 10 11  2  0
 10 12  1  0
 12 13  1  0
 13 14  1  0
 14 15  2  0
 15 16  1  0
 16 17  1  0
 16 18  2  0
 18 19  1  0
 19 20  2  0
 20 21  1  0
 21 22  1  0
 22 23  1  0
 23 24  1  0
 20 14  1  0
 24 19  1  0
M  CHG  1   5   1
M  END
>  <Compound_ID>  (41) 
C66195241

>  <Active>  (41) 
0

>  <Smiles>  (41) 
CC[C@@H](C)[NH+](C)CCNC(=O)NCc1cc(F)cc2c1OCOC2

>  <canonical_smi>  (41) 
CC[C@@H](C)[NH+](C)CCNC(=O)NCc1cc(F)cc2c1OCOC2

>  <Set>  (41) 
G2 inactive

>  <Set_type>  (41) 
Train

>  <MW>  (41) 
340.42

>  <HBD>  (41) 
3

>  <HBA>  (41) 
3

>  <NRB>  (41) 
7

>  <NR>  (41) 
2

>  <NAR>  (41) 
1

>  <PSA>  (41) 
64.03

>  <Standard Type>  (41) 
nan

>  <Standard Relation>  (41) 
nan

>  <Standard Units>  (41) 
nan

>  <Standard Value>  (41) 
nan

>  <Assay ChEMBL ID>  (41) 
nan

>  <Assay Description>  (41) 
nan

>  <BAO Label>  (41) 
nan

$$$$

     RDKit          2D

 33 35  0  0  0  0  0  0  0  0999 V2000
    7.2154    2.0639    0.0000 C   0  0  0  0  0  0  0  0  0  0  0  0
    5.7888    1.6004    0.0000 C   0  0  0  0  0  0  0  0  0  0  0  0
    5.4769    0.1332    0.0000 C   0  0  0  0  0  0  0  0  0  0  0  0
    4.6741    2.6041    0.0000 N   0  0  0  0  0  0  0  0  0  0  0  0
    3.2475    2.1406    0.0000 C   0  0  0  0  0  0  0  0  0  0  0  0
    2.9356    0.6734    0.0000 O   0  0  0  0  0  0  0  0  0  0  0  0
    2.1328    3.1443    0.0000 C   0  0  0  0  0  0  0  0  0  0  0  0
    0.7062    2.6807    0.0000 C   0  0  0  0  0  0  0  0  0  0  0  0
    0.3943    1.2135    0.0000 C   0  0  0  0  0  0  0  0  0  0  0  0
    1.2760    0.0000    0.0000 N   0  0  0  0  0  0  0  0  0  0  0  0
    0.3943   -1.2135    0.0000 C   0  0  0  0  0  0  0  0  0  0  0  0
    0.8578   -2.6401    0.0000 N   0  0  0  0  0  0  0  0  0  0  0  0
   -0.1459   -3.7548    0.0000 C   0  0  0  0  0  0  0  0  0  0  0  0
   -1.6131   -3.4430    0.0000 O   0  0  0  0  0  0  0  0  0  0  0  0
    0.3177   -5.1814    0.0000 C   0  0  0  0  0  0  0  0  0  0  0  0
   -0.6860   -6.2961    0.0000 C   0  0  0  0  0  0  0  0  0  0  0  0
    0.4287   -7.2998    0.0000 C   0  0  0  0  0  0  0  0  0  0  0  0
   -1.8008   -5.2924    0.0000 C   0  0  0  0  0  0  0  0  0  0  0  0
   -1.6897   -7.4108    0.0000 C   0  0  0  0  0  0  0  0  0  0  0  0
   -1.0323   -0.7500    0.0000 S   0  0  0  0  0  0  0  0  0  0  0  0
   -1.0323    0.7500    0.0000 C   0  0  0  0  0  0  0  0  0  0  0  0
   -2.1470    1.7537    0.0000 C   0  0  0  0  0  0  0  0  0  0  0  0
   -1.8351    3.2209    0.0000 C   0  0  0  0  0  0  0  0  0  0  0  0
   -2.9499    4.2246    0.0000 C   0  0  0  0  0  0  0  0  0  0  0  0
   -4.3406    4.7865    0.0000 C   0  0  0  0  0  0  0  0  0  0  0  0
   -3.7447    2.9525    0.0000 C   0  0  0  0  0  0  0  0  0  0  0  0
   -5.2438    3.0049    0.0000 O   0  0  0  0  0  0  0  0  0  0  0  0
   -2.6380    5.6918    0.0000 C   0  0  0  0  0  0  0  0  0  0  0  0
   -3.7527    6.6955    0.0000 O   0  0  0  0  0  0  0  0  0  0  0  0
   -1.2114    6.1554    0.0000 C   0  0  0  0  0  0  0  0  0  0  0  0
   -0.0967    5.1517    0.0000 C   0  0  0  0  0  0  0  0  0  0  0  0
   -0.4086    3.6844    0.0000 C   0  0  0  0  0  0  0  0  0  0  0  0
    1.0180    4.1480    0.0000 C   0  0  0  0  0  0  0  0  0  0  0  0
  1  2  1  0
  2  3  1  0
  2  4  1  0
  4  5  1  0
  5  6  2  0
  5  7  1  0
  8  7  1  6
  8  9  1  0
  9 10  1  0
 10 11  2  0
 11 12  1  0
 12 13  1  0
 13 14  2  0
 13 15  1  0
 15 16  1  0
 16 17  1  0
 16 18  1  0
 16 19  1  0
 11 20  1  0
 20 21  1  0
 21 22  1  0
 23 22  1  6
 23 24  1  0
 24 25  1  1
 24 26  1  0
 26 27  1  0
 24 28  1  0
 28 29  1  6
 28 30  1  0
 30 31  1  0
 31 32  1  0
 32 33  1  6
 32  8  1  0
 21  9  2  0
 32 23  1  0
M  END
>  <Compound_ID>  (42) 
C03841087

>  <Active>  (42) 
0

>  <Smiles>  (42) 
CC(C)NC(=O)C[C@@H]1c2nc(NC(=O)CC(C)(C)C)sc2C[C@@H]2[C@](C)(CO)[C@H](O)CC[C@]21C

>  <canonical_smi>  (42) 
CC(C)NC(=O)C[C@@H]1c2nc(NC(=O)CC(C)(C)C)sc2C[C@H]2[C@@]1(C)CC[C@@H](O)[C@@]2(C)CO

>  <Set>  (42) 
G2 inactive

>  <Set_type>  (42) 
Train

>  <MW>  (42) 
479.69

>  <HBD>  (42) 
4

>  <HBA>  (42) 
5

>  <NRB>  (42) 
6

>  <NR>  (42) 
3

>  <NAR>  (42) 
1

>  <PSA>  (42) 
111.55

>  <Standard Type>  (42) 
nan

>  <Standard Relation>  (42) 
nan

>  <Standard Units>  (42) 
nan

>  <Standard Value>  (42) 
nan

>  <Assay ChEMBL ID>  (42) 
nan

>  <Assay Description>  (42) 
nan

>  <BAO Label>  (42) 
nan

$$$$

     RDKit          2D

 20 21  0  0  0  0  0  0  0  0999 V2000
    4.7581   -7.3178    0.0000 C   0  0  0  0  0  0  0  0  0  0  0  0
    3.2909   -7.0059    0.0000 C   0  0  0  0  0  0  0  0  0  0  0  0
    2.8273   -5.5793    0.0000 C   0  0  0  0  0  0  0  0  0  0  0  0
    1.3601   -5.2674    0.0000 N   0  0  0  0  0  0  0  0  0  0  0  0
    0.7500   -3.8971    0.0000 C   0  0  0  0  0  0  0  0  0  0  0  0
    1.5000   -2.5981    0.0000 S   0  0  0  0  0  0  0  0  0  0  0  0
    0.7500   -1.2990    0.0000 C   0  0  0  0  0  0  0  0  0  0  0  0
    1.5000    0.0000    0.0000 C   0  0  0  0  0  0  0  0  0  0  0  0
    0.7500    1.2990    0.0000 C   0  0  0  0  0  0  0  0  0  0  0  0
   -0.7500    1.2990    0.0000 C   0  0  0  0  0  0  0  0  0  0  0  0
   -1.5000    2.5981    0.0000 C   0  0  0  0  0  0  0  0  0  0  0  0
   -0.7500    3.8971    0.0000 C   0  0  0  0  0  0  0  0  0  0  0  0
   -3.0000    2.5981    0.0000 N   0  0  0  0  0  4  0  0  0  0  0  0
   -1.5000    0.0000    0.0000 C   0  0  0  0  0  0  0  0  0  0  0  0
   -0.7500   -1.2990    0.0000 C   0  0  0  0  0  0  0  0  0  0  0  0
   -1.5000   -2.5981    0.0000 Br  0  0  0  0  0  0  0  0  0  0  0  0
   -0.7418   -4.0539    0.0000 N   0  0  0  0  0  0  0  0  0  0  0  0
   -1.0537   -5.5211    0.0000 N   0  0  0  0  0  0  0  0  0  0  0  0
    0.2454   -6.2711    0.0000 C   0  0  0  0  0  0  0  0  0  0  0  0
    0.4022   -7.7629    0.0000 O   0  0  0  0  0  0  0  0  0  0  0  0
  1  2  1  0
  2  3  1  0
  3  4  1  0
  4  5  1  0
  5  6  1  0
  6  7  1  0
  7  8  2  0
  8  9  1  0
  9 10  2  0
 10 11  1  0
 11 12  1  6
 11 13  1  0
 10 14  1  0
 14 15  2  0
 15 16  1  0
  5 17  2  0
 17 18  1  0
 18 19  1  0
 19 20  2  0
 19  4  1  0
 15  7  1  0
M  CHG  1  13   1
M  END
>  <Compound_ID>  (43) 
C61700519

>  <Active>  (43) 
0

>  <Smiles>  (43) 
CCCn1c(Sc2ccc([C@@H](C)[NH3+])cc2Br)n[nH]c1=O

>  <canonical_smi>  (43) 
CCCn1c(Sc2ccc([C@@H](C)[NH3+])cc2Br)n[nH]c1=O

>  <Set>  (43) 
G2 inactive

>  <Set_type>  (43) 
Train

>  <MW>  (43) 
358.29

>  <HBD>  (43) 
2

>  <HBA>  (43) 
3

>  <NRB>  (43) 
5

>  <NR>  (43) 
2

>  <NAR>  (43) 
2

>  <PSA>  (43) 
78.32

>  <Standard Type>  (43) 
nan

>  <Standard Relation>  (43) 
nan

>  <Standard Units>  (43) 
nan

>  <Standard Value>  (43) 
nan

>  <Assay ChEMBL ID>  (43) 
nan

>  <Assay Description>  (43) 
nan

>  <BAO Label>  (43) 
nan

$$$$

     RDKit          2D

 25 28  0  0  0  0  0  0  0  0999 V2000
    8.2500   -6.4952    0.0000 C   0  0  0  0  0  0  0  0  0  0  0  0
    7.5000   -5.1962    0.0000 C   0  0  0  0  0  0  0  0  0  0  0  0
    6.0000   -5.1962    0.0000 N   0  0  0  0  0  0  0  0  0  0  0  0
    5.2500   -6.4952    0.0000 C   0  0  0  0  0  0  0  0  0  0  0  0
    6.0000   -7.7942    0.0000 C   0  0  0  0  0  0  0  0  0  0  0  0
    5.2500   -3.8971    0.0000 C   0  0  0  0  0  0  0  0  0  0  0  0
    6.0000   -2.5981    0.0000 O   0  0  0  0  0  0  0  0  0  0  0  0
    3.7500   -3.8971    0.0000 C   0  0  0  0  0  0  0  0  0  0  0  0
    3.0000   -2.5981    0.0000 C   0  0  0  0  0  0  0  0  0  0  0  0
    1.5000   -2.5981    0.0000 C   0  0  0  0  0  0  0  0  0  0  0  0
    0.7500   -1.2990    0.0000 C   0  0  0  0  0  0  0  0  0  0  0  0
    1.5000    0.0000    0.0000 C   0  0  0  0  0  0  0  0  0  0  0  0
    0.7500    1.2990    0.0000 C   0  0  0  0  0  0  0  0  0  0  0  0
   -0.7500    1.2990    0.0000 C   0  0  0  0  0  0  0  0  0  0  0  0
   -1.5000    0.0000    0.0000 C   0  0  0  0  0  0  0  0  0  0  0  0
   -2.9266   -0.4635    0.0000 N   0  0  0  0  0  0  0  0  0  0  0  0
   -2.9266   -1.9635    0.0000 C   0  0  0  0  0  0  0  0  0  0  0  0
   -1.5000   -2.5981    0.0000 C   0  0  0  0  0  0  0  0  0  0  0  0
   -0.7500   -1.2990    0.0000 C   0  0  0  0  0  0  0  0  0  0  0  0
   -0.7500   -3.8971    0.0000 C   0  0  0  0  0  0  0  0  0  0  0  0
    0.7500   -3.8971    0.0000 C   0  0  0  0  0  0  0  0  0  0  0  0
    1.5000   -5.1962    0.0000 N   0  0  0  0  0  4  0  0  0  0  0  0
    0.7500   -6.4952    0.0000 C   0  0  0  0  0  0  0  0  0  0  0  0
   -0.0000   -7.7942    0.0000 N   0  0  0  0  0  0  0  0  0  0  0  0
    3.0000   -5.1962    0.0000 C   0  0  0  0  0  0  0  0  0  0  0  0
  1  2  1  0
  2  3  1  0
  3  4  1  0
  4  5  1  0
  3  6  1  0
  6  7  2  0
  8  6  1  1
  8  9  1  0
  9 10  2  0
 10 11  1  0
 11 12  2  0
 12 13  1  0
 13 14  2  0
 14 15  1  0
 15 16  1  0
 16 17  1  0
 17 18  2  0
 18 19  1  0
 18 20  1  0
 21 20  1  1
 21 22  1  0
 22 23  1  0
 23 24  3  0
 22 25  1  0
 25  8  1  0
 21 10  1  0
 19 11  1  0
 19 15  2  0
M  CHG  1  22   1
M  END
>  <Compound_ID>  (44) 
C44608112

>  <Active>  (44) 
0

>  <Smiles>  (44) 
CCN(CC)C(=O)[C@@H]1C=C2c3cccc4[nH]cc(c34)C[C@@H]2[NH+](C#N)C1

>  <canonical_smi>  (44) 
CCN(CC)C(=O)[C@@H]1C=C2c3cccc4[nH]cc(c34)C[C@@H]2[NH+](C#N)C1

>  <Set>  (44) 
G2 inactive

>  <Set_type>  (44) 
Train

>  <MW>  (44) 
335.43

>  <HBD>  (44) 
2

>  <HBA>  (44) 
2

>  <NRB>  (44) 
3

>  <NR>  (44) 
4

>  <NAR>  (44) 
2

>  <PSA>  (44) 
64.33

>  <Standard Type>  (44) 
nan

>  <Standard Relation>  (44) 
nan

>  <Standard Units>  (44) 
nan

>  <Standard Value>  (44) 
nan

>  <Assay ChEMBL ID>  (44) 
nan

>  <Assay Description>  (44) 
nan

>  <BAO Label>  (44) 
nan

$$$$

     RDKit          2D

 22 23  0  0  0  0  0  0  0  0999 V2000
    4.8139  -10.0996    0.0000 C   0  0  0  0  0  0  0  0  0  0  0  0
    5.4240   -8.7293    0.0000 C   0  0  0  0  0  0  0  0  0  0  0  0
    6.0341   -7.3590    0.0000 C   0  0  0  0  0  0  0  0  0  0  0  0
    6.7943   -9.3394    0.0000 C   0  0  0  0  0  0  0  0  0  0  0  0
    4.0537   -8.1192    0.0000 C   0  0  0  0  0  0  0  0  0  0  0  0
    3.7418   -6.6520    0.0000 N   0  0  0  0  0  0  0  0  0  0  0  0
    2.2500   -6.4952    0.0000 C   0  0  0  0  0  0  0  0  0  0  0  0
    1.5000   -5.1962    0.0000 C   0  0  0  0  0  0  0  0  0  0  0  0
    0.2010   -5.9462    0.0000 C   0  0  0  0  0  0  0  0  0  0  0  0
    2.7990   -4.4462    0.0000 C   0  0  0  0  0  0  0  0  0  0  0  0
    0.7500   -3.8971    0.0000 N   0  0  0  0  0  0  0  0  0  0  0  0
    1.5000   -2.5981    0.0000 C   0  0  0  0  0  0  0  0  0  0  0  0
    3.0000   -2.5981    0.0000 O   0  0  0  0  0  0  0  0  0  0  0  0
    0.7500   -1.2990    0.0000 C   0  0  0  0  0  0  0  0  0  0  0  0
    1.5000    0.0000    0.0000 C   0  0  0  0  0  0  0  0  0  0  0  0
    3.0000    0.0000    0.0000 Cl  0  0  0  0  0  0  0  0  0  0  0  0
    0.7500    1.2990    0.0000 C   0  0  0  0  0  0  0  0  0  0  0  0
   -0.7500    1.2990    0.0000 C   0  0  0  0  0  0  0  0  0  0  0  0
   -1.5000    0.0000    0.0000 C   0  0  0  0  0  0  0  0  0  0  0  0
   -0.7500   -1.2990    0.0000 C   0  0  0  0  0  0  0  0  0  0  0  0
    1.6399   -7.8655    0.0000 N   0  0  0  0  0  0  0  0  0  0  0  0
    2.7546   -8.8692    0.0000 O   0  0  0  0  0  0  0  0  0  0  0  0
  1  2  1  0
  2  3  1  0
  2  4  1  0
  2  5  1  0
  5  6  2  0
  6  7  1  0
  7  8  1  0
  8  9  1  0
  8 10  1  0
  8 11  1  0
 11 12  1  0
 12 13  2  0
 12 14  1  0
 14 15  2  0
 15 16  1  0
 15 17  1  0
 17 18  1  0
 18 19  1  0
 19 20  1  0
  7 21  2  0
 21 22  1  0
 22  5  1  0
 20 14  1  0
M  END
>  <Compound_ID>  (45) 
C63957460

>  <Active>  (45) 
0

>  <Smiles>  (45) 
CC(C)(C)c1nc(C(C)(C)NC(=O)C2=C(Cl)CCCC2)no1

>  <canonical_smi>  (45) 
CC(C)(C)c1nc(C(C)(C)NC(=O)C2=C(Cl)CCCC2)no1

>  <Set>  (45) 
G2 inactive

>  <Set_type>  (45) 
Train

>  <MW>  (45) 
325.84

>  <HBD>  (45) 
1

>  <HBA>  (45) 
4

>  <NRB>  (45) 
3

>  <NR>  (45) 
2

>  <NAR>  (45) 
1

>  <PSA>  (45) 
68.02

>  <Standard Type>  (45) 
nan

>  <Standard Relation>  (45) 
nan

>  <Standard Units>  (45) 
nan

>  <Standard Value>  (45) 
nan

>  <Assay ChEMBL ID>  (45) 
nan

>  <Assay Description>  (45) 
nan

>  <BAO Label>  (45) 
nan

$$$$

     RDKit          2D

 23 25  0  0  0  0  0  0  0  0999 V2000
   -3.7500   -3.8971    0.0000 O   0  0  0  0  0  0  0  0  0  0  0  0
   -3.0000   -2.5981    0.0000 C   0  0  0  0  0  0  0  0  0  0  0  0
   -3.7500   -1.2990    0.0000 N   0  0  0  0  0  0  0  0  0  0  0  0
   -3.0000    0.0000    0.0000 C   0  0  0  0  0  0  0  0  0  0  0  0
   -3.7500    1.2990    0.0000 C   0  0  0  0  0  0  0  0  0  0  0  0
   -4.5000    2.5981    0.0000 F   0  0  0  0  0  0  0  0  0  0  0  0
   -5.0490    0.5490    0.0000 F   0  0  0  0  0  0  0  0  0  0  0  0
   -2.4510    2.0490    0.0000 F   0  0  0  0  0  0  0  0  0  0  0  0
   -1.5000    0.0000    0.0000 C   0  0  0  0  0  0  0  0  0  0  0  0
   -0.7500   -1.2990    0.0000 C   0  0  0  0  0  0  0  0  0  0  0  0
   -1.5000   -2.5981    0.0000 N   0  0  0  0  0  0  0  0  0  0  0  0
    0.7500   -1.2990    0.0000 C   0  0  0  0  0  0  0  0  0  0  0  0
    1.5000   -2.5981    0.0000 C   0  0  0  0  0  0  0  0  0  0  0  0
    3.0000   -2.5981    0.0000 C   0  0  0  0  0  0  0  0  0  0  0  0
    3.7500   -3.8971    0.0000 C   0  0  0  0  0  0  0  0  0  0  0  0
    5.2500   -3.8971    0.0000 C   0  0  0  0  0  0  0  0  0  0  0  0
    6.0000   -2.5981    0.0000 C   0  0  0  0  0  0  0  0  0  0  0  0
    7.5000   -2.5981    0.0000 F   0  0  0  0  0  0  0  0  0  0  0  0
    5.2500   -1.2990    0.0000 C   0  0  0  0  0  0  0  0  0  0  0  0
    3.7500   -1.2990    0.0000 C   0  0  0  0  0  0  0  0  0  0  0  0
    1.5000    0.0000    0.0000 C   0  0  0  0  0  0  0  0  0  0  0  0
    0.7500    1.2990    0.0000 N   0  0  0  0  0  0  0  0  0  0  0  0
   -0.7500    1.2990    0.0000 C   0  0  0  0  0  0  0  0  0  0  0  0
  1  2  2  0
  2  3  1  0
  3  4  2  0
  4  5  1  0
  5  6  1  0
  5  7  1  0
  5  8  1  0
  4  9  1  0
  9 10  2  0
 10 11  1  0
 10 12  1  0
 12 13  2  0
 13 14  1  0
 14 15  2  0
 15 16  1  0
 16 17  2  0
 17 18  1  0
 17 19  1  0
 19 20  2  0
 12 21  1  0
 21 22  1  0
 22 23  1  0
 11  2  1  0
 20 14  1  0
 23  9  1  0
M  END
>  <Compound_ID>  (46) 
C43464101

>  <Active>  (46) 
0

>  <Smiles>  (46) 
O=c1nc(C(F)(F)F)c2c([nH]1)/C(=C/c1ccc(F)cc1)CNC2

>  <canonical_smi>  (46) 
O=c1nc(C(F)(F)F)c2c([nH]1)/C(=C/c1ccc(F)cc1)CNC2

>  <Set>  (46) 
G2 inactive

>  <Set_type>  (46) 
Train

>  <MW>  (46) 
325.26

>  <HBD>  (46) 
2

>  <HBA>  (46) 
3

>  <NRB>  (46) 
1

>  <NR>  (46) 
3

>  <NAR>  (46) 
2

>  <PSA>  (46) 
57.78

>  <Standard Type>  (46) 
nan

>  <Standard Relation>  (46) 
nan

>  <Standard Units>  (46) 
nan

>  <Standard Value>  (46) 
nan

>  <Assay ChEMBL ID>  (46) 
nan

>  <Assay Description>  (46) 
nan

>  <BAO Label>  (46) 
nan

$$$$

     RDKit          2D

 20 22  0  0  0  0  0  0  0  0999 V2000
    3.7500   -1.2990    0.0000 C   0  0  0  0  0  0  0  0  0  0  0  0
    3.0000    0.0000    0.0000 O   0  0  0  0  0  0  0  0  0  0  0  0
    1.5000    0.0000    0.0000 C   0  0  0  0  0  0  0  0  0  0  0  0
    0.7500   -1.2990    0.0000 C   0  0  0  0  0  0  0  0  0  0  0  0
   -0.7500   -1.2990    0.0000 C   0  0  0  0  0  0  0  0  0  0  0  0
   -1.5000    0.0000    0.0000 C   0  0  0  0  0  0  0  0  0  0  0  0
   -0.7500    1.2990    0.0000 C   0  0  0  0  0  0  0  0  0  0  0  0
    0.7500    1.2990    0.0000 C   0  0  0  0  0  0  0  0  0  0  0  0
   -1.5000    2.5981    0.0000 C   0  0  0  0  0  0  0  0  0  0  0  0
   -3.0000    2.5981    0.0000 C   0  0  0  0  0  0  0  0  0  0  0  0
   -3.7500    1.2990    0.0000 C   0  0  0  0  0  0  0  0  0  0  0  0
   -3.0000    0.0000    0.0000 C   0  0  0  0  0  0  0  0  0  0  0  0
   -3.7500   -1.2990    0.0000 N   0  0  0  0  0  0  0  0  0  0  0  0
   -3.1399   -2.6694    0.0000 N   0  0  0  0  0  0  0  0  0  0  0  0
   -4.2546   -3.6731    0.0000 C   0  0  0  0  0  0  0  0  0  0  0  0
   -4.0978   -5.1648    0.0000 C   0  0  0  0  0  0  0  0  0  0  0  0
   -5.5537   -2.9231    0.0000 C   0  0  0  0  0  0  0  0  0  0  0  0
   -6.9240   -3.5332    0.0000 Br  0  0  0  0  0  0  0  0  0  0  0  0
   -5.2418   -1.4558    0.0000 C   0  0  0  0  0  0  0  0  0  0  0  0
   -6.2455   -0.3411    0.0000 N   0  0  0  0  0  0  0  0  0  0  0  0
  1  2  1  0
  2  3  1  0
  3  4  2  0
  4  5  1  0
  5  6  2  0
  6  7  1  0
  7  8  2  0
  7  9  1  0
  9 10  1  0
 10 11  1  0
 11 12  1  0
 12 13  1  1
 13 14  1  0
 14 15  2  0
 15 16  1  0
 15 17  1  0
 17 18  1  0
 17 19  2  0
 19 20  1  0
  8  3  1  0
 19 13  1  0
 12  6  1  0
M  END
>  <Compound_ID>  (47) 
C43668521

>  <Active>  (47) 
0

>  <Smiles>  (47) 
COc1ccc2c(c1)CCC[C@@H]2n1nc(C)c(Br)c1N

>  <canonical_smi>  (47) 
COc1ccc2c(c1)CCC[C@@H]2n1nc(C)c(Br)c1N

>  <Set>  (47) 
G2 inactive

>  <Set_type>  (47) 
Train

>  <MW>  (47) 
336.23

>  <HBD>  (47) 
1

>  <HBA>  (47) 
3

>  <NRB>  (47) 
2

>  <NR>  (47) 
3

>  <NAR>  (47) 
2

>  <PSA>  (47) 
53.07

>  <Standard Type>  (47) 
nan

>  <Standard Relation>  (47) 
nan

>  <Standard Units>  (47) 
nan

>  <Standard Value>  (47) 
nan

>  <Assay ChEMBL ID>  (47) 
nan

>  <Assay Description>  (47) 
nan

>  <BAO Label>  (47) 
nan

$$$$

     RDKit          2D

 22 24  0  0  0  0  0  0  0  0999 V2000
   -3.0000   -2.5981    0.0000 C   0  0  0  0  0  0  0  0  0  0  0  0
   -1.5000   -2.5981    0.0000 C   0  0  0  0  0  0  0  0  0  0  0  0
   -0.7500   -3.8971    0.0000 N   0  0  0  0  0  0  0  0  0  0  0  0
    0.7500   -3.8971    0.0000 N   0  0  0  0  0  0  0  0  0  0  0  0
    1.5000   -2.5981    0.0000 C   0  0  0  0  0  0  0  0  0  0  0  0
    3.0000   -2.5981    0.0000 N   0  0  0  0  0  0  0  0  0  0  0  0
    3.7500   -3.8971    0.0000 S   0  0  0  0  0  4  0  0  0  0  0  0
    3.0000   -5.1962    0.0000 O   0  0  0  0  0  0  0  0  0  0  0  0
    5.2500   -3.8971    0.0000 O   0  0  0  0  0  0  0  0  0  0  0  0
    6.0000   -5.1962    0.0000 C   0  0  0  0  0  0  0  0  0  0  0  0
    5.2500   -6.4952    0.0000 C   0  0  0  0  0  0  0  0  0  0  0  0
    6.0000   -7.7942    0.0000 C   0  0  0  0  0  0  0  0  0  0  0  0
    7.5000   -7.7942    0.0000 C   0  0  0  0  0  0  0  0  0  0  0  0
    8.2500   -9.0933    0.0000 N   0  0  0  0  0  0  0  0  0  0  0  0
    8.2500   -6.4952    0.0000 C   0  0  0  0  0  0  0  0  0  0  0  0
    7.5000   -5.1962    0.0000 C   0  0  0  0  0  0  0  0  0  0  0  0
    0.7500   -1.2990    0.0000 C   0  0  0  0  0  0  0  0  0  0  0  0
    1.5000    0.0000    0.0000 C   0  0  0  0  0  0  0  0  0  0  0  0
    0.7500    1.2990    0.0000 C   0  0  0  0  0  0  0  0  0  0  0  0
   -0.7500    1.2990    0.0000 C   0  0  0  0  0  0  0  0  0  0  0  0
   -1.5000    0.0000    0.0000 C   0  0  0  0  0  0  0  0  0  0  0  0
   -0.7500   -1.2990    0.0000 C   0  0  0  0  0  0  0  0  0  0  0  0
  1  2  1  0
  2  3  2  0
  3  4  1  0
  4  5  2  0
  5  6  1  0
  7  6  1  1
  7  8  2  0
  7  9  1  0
  9 10  1  0
 10 11  2  0
 11 12  1  0
 12 13  2  0
 13 14  1  0
 13 15  1  0
 15 16  2  0
  5 17  1  0
 17 18  2  0
 18 19  1  0
 19 20  2  0
 20 21  1  0
 21 22  2  0
 22  2  1  0
 16 10  1  0
 22 17  1  0
M  END
>  <Compound_ID>  (48) 
C08306450

>  <Active>  (48) 
0

>  <Smiles>  (48) 
Cc1nnc(N[S@](=O)Oc2ccc(N)cc2)c2ccccc12

>  <canonical_smi>  (48) 
Cc1nnc(N[S@](=O)Oc2ccc(N)cc2)c2ccccc12

>  <Set>  (48) 
G2 inactive

>  <Set_type>  (48) 
Train

>  <MW>  (48) 
314.37

>  <HBD>  (48) 
2

>  <HBA>  (48) 
5

>  <NRB>  (48) 
4

>  <NR>  (48) 
3

>  <NAR>  (48) 
3

>  <PSA>  (48) 
90.13

>  <Standard Type>  (48) 
nan

>  <Standard Relation>  (48) 
nan

>  <Standard Units>  (48) 
nan

>  <Standard Value>  (48) 
nan

>  <Assay ChEMBL ID>  (48) 
nan

>  <Assay Description>  (48) 
nan

>  <BAO Label>  (48) 
nan

$$$$

     RDKit          2D

 22 23  0  0  0  0  0  0  0  0999 V2000
    5.2500   -1.2990    0.0000 C   0  0  0  0  0  0  0  0  0  0  0  0
    3.7500   -1.2990    0.0000 N   0  0  0  0  0  0  0  0  0  0  0  0
    3.0000    0.0000    0.0000 C   0  0  0  0  0  0  0  0  0  0  0  0
    3.7500    1.2990    0.0000 O   0  0  0  0  0  0  0  0  0  0  0  0
    1.5000    0.0000    0.0000 C   0  0  0  0  0  0  0  0  0  0  0  0
    0.7500   -1.2990    0.0000 C   0  0  0  0  0  0  0  0  0  0  0  0
    1.5000   -2.5981    0.0000 C   0  0  0  0  0  0  0  0  0  0  0  0
   -0.7500   -1.2990    0.0000 N   0  0  0  0  0  0  0  0  0  0  0  0
   -1.5000    0.0000    0.0000 C   0  0  0  0  0  0  0  0  0  0  0  0
   -3.0000    0.0000    0.0000 N   0  0  0  0  0  0  0  0  0  0  0  0
   -0.7500    1.2990    0.0000 N   0  0  0  0  0  0  0  0  0  0  0  0
    0.7500    1.2990    0.0000 C   0  0  0  0  0  0  0  0  0  0  0  0
    1.5000    2.5981    0.0000 C   0  0  0  0  0  0  0  0  0  0  0  0
    0.7500    3.8971    0.0000 C   0  0  0  0  0  0  0  0  0  0  0  0
    3.0000    2.5981    0.0000 O   0  0  0  0  0  0  0  0  0  0  0  0
    3.7500    3.8971    0.0000 C   0  0  0  0  0  0  0  0  0  0  0  0
    5.2500    3.8971    0.0000 C   0  0  0  0  0  0  0  0  0  0  0  0
    6.0000    5.1962    0.0000 C   0  0  0  0  0  0  0  0  0  0  0  0
    5.2500    6.4952    0.0000 C   0  0  0  0  0  0  0  0  0  0  0  0
    3.7500    6.4952    0.0000 C   0  0  0  0  0  0  0  0  0  0  0  0
    3.0000    5.1962    0.0000 C   0  0  0  0  0  0  0  0  0  0  0  0
    1.5000    5.1962    0.0000 Cl  0  0  0  0  0  0  0  0  0  0  0  0
  1  2  1  0
  2  3  1  0
  3  4  2  0
  3  5  1  0
  5  6  2  0
  6  7  1  0
  6  8  1  0
  8  9  2  0
  9 10  1  0
  9 11  1  0
 11 12  2  0
 12 13  1  0
 13 14  1  1
 13 15  1  0
 15 16  1  0
 16 17  2  0
 17 18  1  0
 18 19  2  0
 19 20  1  0
 20 21  2  0
 21 22  1  0
 12  5  1  0
 21 16  1  0
M  END
>  <Compound_ID>  (49) 
C66135953

>  <Active>  (49) 
0

>  <Smiles>  (49) 
CNC(=O)c1c(C)nc(N)nc1[C@@H](C)Oc1ccccc1Cl

>  <canonical_smi>  (49) 
CNC(=O)c1c(C)nc(N)nc1[C@@H](C)Oc1ccccc1Cl

>  <Set>  (49) 
G2 inactive

>  <Set_type>  (49) 
Train

>  <MW>  (49) 
320.78

>  <HBD>  (49) 
2

>  <HBA>  (49) 
5

>  <NRB>  (49) 
4

>  <NR>  (49) 
2

>  <NAR>  (49) 
2

>  <PSA>  (49) 
90.13

>  <Standard Type>  (49) 
nan

>  <Standard Relation>  (49) 
nan

>  <Standard Units>  (49) 
nan

>  <Standard Value>  (49) 
nan

>  <Assay ChEMBL ID>  (49) 
nan

>  <Assay Description>  (49) 
nan

>  <BAO Label>  (49) 
nan

$$$$

     RDKit          2D

 23 25  0  0  0  0  0  0  0  0999 V2000
   -1.0409   -5.7068    0.0000 C   0  0  0  0  0  0  0  0  0  0  0  0
   -0.5773   -4.2803    0.0000 C   0  0  0  0  0  0  0  0  0  0  0  0
    0.8899   -3.9684    0.0000 N   0  0  0  0  0  0  0  0  0  0  0  0
    2.0046   -4.9721    0.0000 C   0  0  0  0  0  0  0  0  0  0  0  0
    1.8478   -6.4639    0.0000 S   0  0  0  0  0  0  0  0  0  0  0  0
    3.0613   -7.3456    0.0000 C   0  0  0  0  0  0  0  0  0  0  0  0
    2.9046   -8.8373    0.0000 C   0  0  0  0  0  0  0  0  0  0  0  0
    4.1181   -9.7190    0.0000 N   0  0  0  0  0  0  0  0  0  0  0  0
    1.5342   -9.4474    0.0000 O   0  0  0  0  0  0  0  0  0  0  0  0
    3.3037   -4.2221    0.0000 N   0  0  0  0  0  0  0  0  0  0  0  0
    2.9918   -2.7549    0.0000 N   0  0  0  0  0  0  0  0  0  0  0  0
    1.5000   -2.5981    0.0000 C   0  0  0  0  0  0  0  0  0  0  0  0
    0.7500   -1.2990    0.0000 C   0  0  0  0  0  0  0  0  0  0  0  0
    1.5000    0.0000    0.0000 C   0  0  0  0  0  0  0  0  0  0  0  0
    0.7500    1.2990    0.0000 C   0  0  0  0  0  0  0  0  0  0  0  0
    1.2135    2.7256    0.0000 C   0  0  0  0  0  0  0  0  0  0  0  0
    2.6401    3.1891    0.0000 C   0  0  0  0  0  0  0  0  0  0  0  0
    0.0000    3.6073    0.0000 C   0  0  0  0  0  0  0  0  0  0  0  0
    0.0000    5.1073    0.0000 C   0  0  0  0  0  0  0  0  0  0  0  0
   -1.2135    2.7256    0.0000 N   0  0  0  0  0  0  0  0  0  0  0  0
   -0.7500    1.2990    0.0000 C   0  0  0  0  0  0  0  0  0  0  0  0
   -1.5000    0.0000    0.0000 C   0  0  0  0  0  0  0  0  0  0  0  0
   -0.7500   -1.2990    0.0000 C   0  0  0  0  0  0  0  0  0  0  0  0
  1  2  1  0
  2  3  1  0
  3  4  1  0
  4  5  1  0
  5  6  1  0
  6  7  1  0
  7  8  1  0
  7  9  2  0
  4 10  2  0
 10 11  1  0
 11 12  1  0
 12 13  1  6
 13 14  2  0
 14 15  1  0
 15 16  2  0
 16 17  1  0
 16 18  1  0
 18 19  1  0
 18 20  2  0
 20 21  1  0
 21 22  1  6
 22 23  2  0
 12  3  1  0
 23 13  1  0
 21 15  1  0
M  END
>  <Compound_ID>  (50) 
C39711977

>  <Active>  (50) 
0

>  <Smiles>  (50) 
CCN1C(SCC(N)=O)=NN[C@H]1C1=CC2=C(C)C(C)=N[C@H]2C=C1

>  <canonical_smi>  (50) 
CCN1C(SCC(N)=O)=NN[C@H]1C1=CC2=C(C)C(C)=N[C@H]2C=C1

>  <Set>  (50) 
G2 inactive

>  <Set_type>  (50) 
Train

>  <MW>  (50) 
331.44

>  <HBD>  (50) 
2

>  <HBA>  (50) 
4

>  <NRB>  (50) 
4

>  <NR>  (50) 
3

>  <NAR>  (50) 
0

>  <PSA>  (50) 
83.08

>  <Standard Type>  (50) 
nan

>  <Standard Relation>  (50) 
nan

>  <Standard Units>  (50) 
nan

>  <Standard Value>  (50) 
nan

>  <Assay ChEMBL ID>  (50) 
nan

>  <Assay Description>  (50) 
nan

>  <BAO Label>  (50) 
nan

$$$$

     RDKit          2D

 20 21  0  0  0  0  0  0  0  0999 V2000
    8.2314   -3.8613    0.0000 C   0  0  0  0  0  0  0  0  0  0  0  0
    6.7728   -4.2115    0.0000 N   0  0  0  0  0  0  0  0  0  0  0  0
    5.6322   -3.2373    0.0000 C   0  0  0  0  0  0  0  0  0  0  0  0
    4.3532   -4.0210    0.0000 C   0  0  0  0  0  0  0  0  0  0  0  0
    2.9674   -3.4470    0.0000 S   0  0  0  0  0  0  0  0  0  0  0  0
    3.5415   -2.0612    0.0000 O   0  0  0  0  0  0  0  0  0  0  0  0
    2.3934   -4.8328    0.0000 O   0  0  0  0  0  0  0  0  0  0  0  0
    1.5816   -2.8730    0.0000 N   0  0  0  0  0  0  0  0  0  0  0  0
    1.3858   -1.3858    0.0000 C   0  0  0  0  0  0  0  0  0  0  0  0
    2.8730   -1.5816    0.0000 C   0  0  0  0  0  0  0  0  0  0  0  0
    3.7861   -0.3916    0.0000 N   0  0  0  0  0  4  0  0  0  0  0  0
    1.9598    0.0000    0.0000 C   0  0  0  0  0  0  0  0  0  0  0  0
    1.3858    1.3858    0.0000 C   0  0  0  0  0  0  0  0  0  0  0  0
    0.0000    1.9598    0.0000 C   0  0  0  0  0  0  0  0  0  0  0  0
   -1.3858    1.3858    0.0000 C   0  0  0  0  0  0  0  0  0  0  0  0
   -1.9598    0.0000    0.0000 C   0  0  0  0  0  0  0  0  0  0  0  0
   -1.3858   -1.3858    0.0000 C   0  0  0  0  0  0  0  0  0  0  0  0
   -0.0000   -1.9598    0.0000 C   0  0  0  0  0  0  0  0  0  0  0  0
    4.7034   -5.4796    0.0000 C   0  0  0  0  0  0  0  0  0  0  0  0
    6.1988   -5.5973    0.0000 N   0  0  0  0  0  0  0  0  0  0  0  0
  1  2  1  0
  2  3  1  0
  3  4  2  0
  4  5  1  0
  5  6  2  0
  5  7  2  0
  5  8  1  0
  8  9  1  0
  9 10  1  0
 10 11  1  0
  9 12  1  0
 12 13  1  0
 13 14  1  0
 14 15  1  0
 15 16  1  0
 16 17  1  0
 17 18  1  0
  4 19  1  0
 19 20  2  0
 20  2  1  0
 18  9  1  0
M  CHG  1  11   1
M  END
>  <Compound_ID>  (51) 
C50252059

>  <Active>  (51) 
0

>  <Smiles>  (51) 
Cn1cc(S(=O)(=O)NC2(C[NH3+])CCCCCCC2)cn1

>  <canonical_smi>  (51) 
Cn1cc(S(=O)(=O)NC2(C[NH3+])CCCCCCC2)cn1

>  <Set>  (51) 
G2 inactive

>  <Set_type>  (51) 
Train

>  <MW>  (51) 
301.44

>  <HBD>  (51) 
2

>  <HBA>  (51) 
3

>  <NRB>  (51) 
4

>  <NR>  (51) 
2

>  <NAR>  (51) 
1

>  <PSA>  (51) 
91.63

>  <Standard Type>  (51) 
nan

>  <Standard Relation>  (51) 
nan

>  <Standard Units>  (51) 
nan

>  <Standard Value>  (51) 
nan

>  <Assay ChEMBL ID>  (51) 
nan

>  <Assay Description>  (51) 
nan

>  <BAO Label>  (51) 
nan

$$$$

     RDKit          2D

 19 20  0  0  0  0  0  0  0  0999 V2000
    3.0000    0.0000    0.0000 N   0  0  0  0  0  4  0  0  0  0  0  0
    1.5000    0.0000    0.0000 C   0  0  0  0  0  0  0  0  0  0  0  0
    0.7500   -1.2990    0.0000 C   0  0  0  0  0  0  0  0  0  0  0  0
   -0.7500   -1.2990    0.0000 C   0  0  0  0  0  0  0  0  0  0  0  0
   -1.5000    0.0000    0.0000 C   0  0  0  0  0  0  0  0  0  0  0  0
   -0.7500    1.2990    0.0000 C   0  0  0  0  0  0  0  0  0  0  0  0
    0.7500    1.2990    0.0000 C   0  0  0  0  0  0  0  0  0  0  0  0
    1.5000    2.5981    0.0000 N   0  0  0  0  0  0  0  0  0  0  0  0
    0.7500    3.8971    0.0000 S   0  0  0  0  0  0  0  0  0  0  0  0
   -0.5490    3.1471    0.0000 O   0  0  0  0  0  0  0  0  0  0  0  0
    2.0490    4.6471    0.0000 O   0  0  0  0  0  0  0  0  0  0  0  0
    0.0000    5.1962    0.0000 C   0  0  0  0  0  0  0  0  0  0  0  0
    0.7500    6.4952    0.0000 C   0  0  0  0  0  0  0  0  0  0  0  0
   -0.0000    7.7942    0.0000 C   0  0  0  0  0  0  0  0  0  0  0  0
   -1.5000    7.7942    0.0000 S   0  0  0  0  0  0  0  0  0  0  0  0
   -2.9095    8.3073    0.0000 O   0  0  0  0  0  0  0  0  0  0  0  0
   -1.2395    9.2714    0.0000 O   0  0  0  0  0  0  0  0  0  0  0  0
   -2.2500    6.4952    0.0000 C   0  0  0  0  0  0  0  0  0  0  0  0
   -1.5000    5.1962    0.0000 C   0  0  0  0  0  0  0  0  0  0  0  0
  2  1  1  6
  2  3  1  0
  3  4  1  0
  4  5  1  0
  5  6  1  0
  6  7  1  0
  7  8  1  1
  8  9  1  0
  9 10  2  0
  9 11  2  0
  9 12  1  0
 12 13  1  0
 13 14  1  0
 14 15  1  0
 15 16  2  0
 15 17  2  0
 15 18  1  0
 18 19  1  0
  7  2  1  0
 19 12  1  0
M  CHG  1   1   1
M  END
>  <Compound_ID>  (52) 
C50351642

>  <Active>  (52) 
0

>  <Smiles>  (52) 
[NH3+][C@@H]1CCCC[C@H]1NS(=O)(=O)C1CCS(=O)(=O)CC1

>  <canonical_smi>  (52) 
[NH3+][C@@H]1CCCC[C@H]1NS(=O)(=O)C1CCS(=O)(=O)CC1

>  <Set>  (52) 
G2 inactive

>  <Set_type>  (52) 
Train

>  <MW>  (52) 
311.45

>  <HBD>  (52) 
2

>  <HBA>  (52) 
4

>  <NRB>  (52) 
3

>  <NR>  (52) 
2

>  <NAR>  (52) 
0

>  <PSA>  (52) 
107.95

>  <Standard Type>  (52) 
nan

>  <Standard Relation>  (52) 
nan

>  <Standard Units>  (52) 
nan

>  <Standard Value>  (52) 
nan

>  <Assay ChEMBL ID>  (52) 
nan

>  <Assay Description>  (52) 
nan

>  <BAO Label>  (52) 
nan

$$$$

     RDKit          2D

 31 34  0  0  0  0  0  0  0  0999 V2000
    2.8273   -8.1774    0.0000 N   0  0  0  0  0  0  0  0  0  0  0  0
    1.3601   -7.8655    0.0000 N   0  0  0  0  0  0  0  0  0  0  0  0
    0.7500   -6.4952    0.0000 C   0  0  0  0  0  0  0  0  0  0  0  0
    1.5000   -5.1962    0.0000 S   0  0  0  0  0  0  0  0  0  0  0  0
    0.7500   -3.8971    0.0000 C   0  0  0  0  0  0  0  0  0  0  0  0
    1.5000   -2.5981    0.0000 C   0  0  0  0  0  0  0  0  0  0  0  0
    3.0000   -2.5981    0.0000 O   0  0  0  0  0  0  0  0  0  0  0  0
    0.7500   -1.2990    0.0000 C   0  0  0  0  0  0  0  0  0  0  0  0
    1.5000    0.0000    0.0000 C   0  0  0  0  0  0  0  0  0  0  0  0
    0.7500    1.2990    0.0000 C   0  0  0  0  0  0  0  0  0  0  0  0
   -0.7500    1.2990    0.0000 C   0  0  0  0  0  0  0  0  0  0  0  0
   -1.5000    2.5981    0.0000 N   0  0  0  0  0  4  0  0  0  0  0  0
   -3.0000    2.5981    0.0000 O   0  0  0  0  0  0  0  0  0  0  0  0
   -0.7500    3.8971    0.0000 O   0  0  0  0  0  1  0  0  0  0  0  0
   -1.5000    0.0000    0.0000 C   0  0  0  0  0  0  0  0  0  0  0  0
   -0.7500   -1.2990    0.0000 C   0  0  0  0  0  0  0  0  0  0  0  0
   -0.7418   -6.6520    0.0000 N   0  0  0  0  0  0  0  0  0  0  0  0
   -1.0537   -8.1192    0.0000 N   0  0  0  0  0  0  0  0  0  0  0  0
    0.2454   -8.8692    0.0000 C   0  0  0  0  0  0  0  0  0  0  0  0
    0.4022  -10.3610    0.0000 C   0  0  0  0  0  0  0  0  0  0  0  0
    1.7012  -11.1110    0.0000 C   0  0  0  0  0  0  0  0  0  0  0  0
    1.3894  -12.5782    0.0000 C   0  0  0  0  0  0  0  0  0  0  0  0
    2.3930  -13.6929    0.0000 C   0  0  0  0  0  0  0  0  0  0  0  0
    1.9295  -15.1195    0.0000 C   0  0  0  0  0  0  0  0  0  0  0  0
    2.9332  -16.2342    0.0000 C   0  0  0  0  0  0  0  0  0  0  0  0
    4.4004  -15.9224    0.0000 C   0  0  0  0  0  0  0  0  0  0  0  0
    5.4041  -17.0371    0.0000 F   0  0  0  0  0  0  0  0  0  0  0  0
    4.8640  -14.4958    0.0000 C   0  0  0  0  0  0  0  0  0  0  0  0
    3.8603  -13.3811    0.0000 C   0  0  0  0  0  0  0  0  0  0  0  0
   -0.1024  -12.7350    0.0000 N   0  0  0  0  0  0  0  0  0  0  0  0
   -0.7125  -11.3647    0.0000 N   0  0  0  0  0  0  0  0  0  0  0  0
  1  2  1  0
  2  3  1  0
  3  4  1  6
  4  5  1  0
  5  6  1  0
  6  7  2  0
  6  8  1  0
  8  9  2  0
  9 10  1  0
 10 11  2  0
 11 12  1  0
 12 13  2  0
 12 14  1  0
 11 15  1  0
 15 16  2  0
  3 17  1  0
 17 18  1  0
 19 18  1  1
 19 20  1  0
 20 21  1  6
 21 22  2  0
 22 23  1  0
 23 24  2  0
 24 25  1  0
 25 26  2  0
 26 27  1  0
 26 28  1  0
 28 29  2  0
 22 30  1  0
 30 31  2  0
 19  2  1  0
 31 20  1  0
 16  8  1  0
 29 23  1  0
M  CHG  2  12   1  14  -1
M  END
>  <Compound_ID>  (53) 
C38751917

>  <Active>  (53) 
0

>  <Smiles>  (53) 
NN1[C@@H](SCC(=O)c2ccc([N+](=O)[O-])cc2)NN[C@@H]1[C@@H]1C=C(c2ccc(F)cc2)N=N1

>  <canonical_smi>  (53) 
NN1[C@@H](SCC(=O)c2ccc([N+](=O)[O-])cc2)NN[C@@H]1[C@@H]1C=C(c2ccc(F)cc2)N=N1

>  <Set>  (53) 
G2 inactive

>  <Set_type>  (53) 
Train

>  <MW>  (53) 
443.46

>  <HBD>  (53) 
3

>  <HBA>  (53) 
8

>  <NRB>  (53) 
7

>  <NR>  (53) 
4

>  <NAR>  (53) 
2

>  <PSA>  (53) 
138.25

>  <Standard Type>  (53) 
nan

>  <Standard Relation>  (53) 
nan

>  <Standard Units>  (53) 
nan

>  <Standard Value>  (53) 
nan

>  <Assay ChEMBL ID>  (53) 
nan

>  <Assay Description>  (53) 
nan

>  <BAO Label>  (53) 
nan

$$$$

     RDKit          2D

 19 20  0  0  0  0  0  0  0  0999 V2000
    3.0000    0.0000    0.0000 O   0  0  0  0  0  0  0  0  0  0  0  0
    1.5000    0.0000    0.0000 C   0  0  0  0  0  0  0  0  0  0  0  0
    0.7500   -1.2990    0.0000 N   0  0  0  0  0  0  0  0  0  0  0  0
   -0.7500   -1.2990    0.0000 C   0  0  0  0  0  0  0  0  0  0  0  0
   -1.5000   -2.5981    0.0000 N   0  0  0  0  0  0  0  0  0  0  0  0
   -3.0000   -2.5981    0.0000 N   0  0  0  0  0  0  0  0  0  0  0  0
   -3.7500   -3.8971    0.0000 C   0  0  0  0  0  0  0  0  0  0  0  0
   -5.2500   -3.8971    0.0000 C   0  0  0  0  0  0  0  0  0  0  0  0
   -6.0000   -2.5981    0.0000 C   0  0  0  0  0  0  0  0  0  0  0  0
   -7.5000   -2.5981    0.0000 C   0  0  0  0  0  0  0  0  0  0  0  0
   -8.2500   -1.2990    0.0000 Br  0  0  0  0  0  0  0  0  0  0  0  0
   -8.2500   -3.8971    0.0000 C   0  0  0  0  0  0  0  0  0  0  0  0
   -9.7500   -3.8971    0.0000 O   0  0  0  0  0  0  0  0  0  0  0  0
   -7.5000   -5.1962    0.0000 C   0  0  0  0  0  0  0  0  0  0  0  0
   -8.2500   -6.4952    0.0000 Br  0  0  0  0  0  0  0  0  0  0  0  0
   -6.0000   -5.1962    0.0000 C   0  0  0  0  0  0  0  0  0  0  0  0
   -1.5000    0.0000    0.0000 C   0  0  0  0  0  0  0  0  0  0  0  0
   -0.7500    1.2990    0.0000 N   0  0  0  0  0  0  0  0  0  0  0  0
    0.7500    1.2990    0.0000 N   0  0  0  0  0  0  0  0  0  0  0  0
  1  2  2  0
  2  3  1  0
  3  4  2  0
  4  5  1  0
  5  6  1  0
  6  7  2  0
  7  8  1  0
  8  9  2  0
  9 10  1  0
 10 11  1  0
 10 12  2  0
 12 13  1  0
 12 14  1  0
 14 15  1  0
 14 16  2  0
  4 17  1  0
 17 18  2  0
 18 19  1  0
 19  2  1  0
 16  8  1  0
M  END
>  <Compound_ID>  (54) 
C03946756

>  <Active>  (54) 
0

>  <Smiles>  (54) 
O=c1nc(N/N=C/c2cc(Br)c(O)c(Br)c2)cn[nH]1

>  <canonical_smi>  (54) 
O=c1nc(N/N=C/c2cc(Br)c(O)c(Br)c2)cn[nH]1

>  <Set>  (54) 
G2 inactive

>  <Set_type>  (54) 
Train

>  <MW>  (54) 
389.01

>  <HBD>  (54) 
3

>  <HBA>  (54) 
5

>  <NRB>  (54) 
3

>  <NR>  (54) 
2

>  <NAR>  (54) 
2

>  <PSA>  (54) 
103.26

>  <Standard Type>  (54) 
nan

>  <Standard Relation>  (54) 
nan

>  <Standard Units>  (54) 
nan

>  <Standard Value>  (54) 
nan

>  <Assay ChEMBL ID>  (54) 
nan

>  <Assay Description>  (54) 
nan

>  <BAO Label>  (54) 
nan

$$$$

     RDKit          2D

 26 29  0  0  0  0  0  0  0  0999 V2000
   -5.6724    1.2892    0.0000 C   0  0  0  0  0  0  0  0  0  0  0  0
   -4.0375   -0.1829    0.0000 C   0  0  0  0  0  0  0  0  0  0  0  0
   -3.2766    0.0643    0.0000 C   0  0  0  0  0  0  0  0  0  0  0  0
   -2.6821   -0.4710    0.0000 C   0  0  0  0  0  0  0  0  0  0  0  0
   -0.5898    0.2088    0.0000 O   0  0  0  0  0  0  0  0  0  0  0  0
   -2.3282   -1.7219    0.0000 C   0  0  0  0  0  0  0  0  0  0  0  0
   -3.7548   -2.1855    0.0000 C   0  0  0  0  0  0  0  0  0  0  0  0
   -4.2038   -0.9654    0.0000 C   0  0  0  0  0  0  0  0  0  0  0  0
   -4.0667   -3.6527    0.0000 O   0  0  0  0  0  0  0  0  0  0  0  0
   -2.9520   -4.6564    0.0000 C   0  0  0  0  0  0  0  0  0  0  0  0
   -3.2638   -6.1236    0.0000 N   0  0  0  0  0  0  0  0  0  0  0  0
   -1.5254   -4.1928    0.0000 C   0  0  0  0  0  0  0  0  0  0  0  0
   -0.4107   -5.1965    0.0000 C   0  0  0  0  0  0  0  0  0  0  0  0
    0.7040   -6.2002    0.0000 N   0  0  0  0  0  0  0  0  0  0  0  0
   -1.2135   -2.7256    0.0000 C   0  0  0  0  0  0  0  0  0  0  0  0
   -0.0000   -3.6073    0.0000 C   0  0  0  0  0  0  0  0  0  0  0  0
    0.2940   -4.7862    0.0000 O   0  0  0  0  0  0  0  0  0  0  0  0
    1.2135   -2.7256    0.0000 N   0  0  0  0  0  0  0  0  0  0  0  0
    2.6401   -3.1891    0.0000 C   0  0  0  0  0  0  0  0  0  0  0  0
    2.9520   -4.6564    0.0000 O   0  0  0  0  0  0  0  0  0  0  0  0
    0.7500   -1.2990    0.0000 C   0  0  0  0  0  0  0  0  0  0  0  0
    1.5000    0.0000    0.0000 C   0  0  0  0  0  0  0  0  0  0  0  0
    0.7500    1.2990    0.0000 C   0  0  0  0  0  0  0  0  0  0  0  0
   -0.7500    1.2990    0.0000 C   0  0  0  0  0  0  0  0  0  0  0  0
   -1.5000    0.0000    0.0000 C   0  0  0  0  0  0  0  0  0  0  0  0
   -0.7500   -1.2990    0.0000 C   0  0  0  0  0  0  0  0  0  0  0  0
  2  1  1  1
  2  3  1  0
  3  4  1  0
  4  5  2  0
  4  6  1  0
  6  7  2  0
  7  8  1  0
  7  9  1  0
  9 10  1  0
 10 11  1  0
 10 12  2  0
 12 13  1  0
 13 14  3  0
 15 12  1  1
 15 16  1  0
 16 17  2  0
 16 18  1  0
 18 19  1  0
 19 20  1  0
 18 21  1  0
 21 22  2  0
 22 23  1  0
 23 24  2  0
 24 25  1  0
 25 26  2  0
  8  2  1  0
 26 15  1  0
 15  6  1  0
 26 21  1  0
M  END
>  <Compound_ID>  (55) 
C05437349

>  <Active>  (55) 
0

>  <Smiles>  (55) 
C[C@H]1CC(=O)C2=C(C1)OC(N)=C(C#N)[C@@]21C(=O)N(CO)c2ccccc21

>  <canonical_smi>  (55) 
C[C@H]1CC(=O)C2=C(C1)OC(N)=C(C#N)[C@@]21C(=O)N(CO)c2ccccc21

>  <Set>  (55) 
G2 inactive

>  <Set_type>  (55) 
Train

>  <MW>  (55) 
351.36

>  <HBD>  (55) 
2

>  <HBA>  (55) 
6

>  <NRB>  (55) 
1

>  <NR>  (55) 
4

>  <NAR>  (55) 
1

>  <PSA>  (55) 
116.65

>  <Standard Type>  (55) 
nan

>  <Standard Relation>  (55) 
nan

>  <Standard Units>  (55) 
nan

>  <Standard Value>  (55) 
nan

>  <Assay ChEMBL ID>  (55) 
nan

>  <Assay Description>  (55) 
nan

>  <BAO Label>  (55) 
nan

$$$$

     RDKit          2D

 23 24  0  0  0  0  0  0  0  0999 V2000
    3.0000    0.0000    0.0000 C   0  0  0  0  0  0  0  0  0  0  0  0
    1.5000    0.0000    0.0000 C   0  0  0  0  0  0  0  0  0  0  0  0
    0.7500   -1.2990    0.0000 C   0  0  0  0  0  0  0  0  0  0  0  0
   -0.7500   -1.2990    0.0000 C   0  0  0  0  0  0  0  0  0  0  0  0
   -1.5000   -2.5981    0.0000 C   0  0  0  0  0  0  0  0  0  0  0  0
   -3.0000   -2.5981    0.0000 C   0  0  0  0  0  0  0  0  0  0  0  0
   -3.7500   -1.2990    0.0000 O   0  0  0  0  0  0  0  0  0  0  0  0
   -3.7500   -3.8971    0.0000 N   0  0  0  0  0  0  0  0  0  0  0  0
   -3.0000   -5.1962    0.0000 C   0  0  0  0  0  0  0  0  0  0  0  0
   -3.7500   -6.4952    0.0000 O   0  0  0  0  0  0  0  0  0  0  0  0
   -1.5000   -5.1962    0.0000 N   0  0  0  0  0  0  0  0  0  0  0  0
   -0.7500   -3.8971    0.0000 C   0  0  0  0  0  0  0  0  0  0  0  0
    0.7500   -3.8971    0.0000 O   0  0  0  0  0  0  0  0  0  0  0  0
   -1.5000    0.0000    0.0000 C   0  0  0  0  0  0  0  0  0  0  0  0
   -0.7500    1.2990    0.0000 C   0  0  0  0  0  0  0  0  0  0  0  0
   -1.5000    2.5981    0.0000 C   0  0  0  0  0  0  0  0  0  0  0  0
   -2.2500    3.8971    0.0000 F   0  0  0  0  0  0  0  0  0  0  0  0
   -0.2010    3.3481    0.0000 F   0  0  0  0  0  0  0  0  0  0  0  0
   -2.7990    1.8481    0.0000 F   0  0  0  0  0  0  0  0  0  0  0  0
    0.7500    1.2990    0.0000 N   0  0  0  0  0  0  0  0  0  0  0  0
    1.5000    2.5981    0.0000 C   0  0  0  0  0  0  0  0  0  0  0  0
    3.0000    2.5981    0.0000 C   0  0  0  0  0  0  0  0  0  0  0  0
    3.7500    3.8971    0.0000 O   0  0  0  0  0  0  0  0  0  0  0  0
  1  2  1  0
  2  3  2  0
  3  4  1  0
  4  5  2  0
  5  6  1  0
  6  7  2  0
  6  8  1  0
  8  9  1  0
  9 10  2  0
  9 11  1  0
 11 12  1  0
 12 13  2  0
  4 14  1  0
 14 15  2  0
 15 16  1  0
 16 17  1  0
 16 18  1  0
 16 19  1  0
 15 20  1  0
 20 21  1  0
 21 22  1  0
 22 23  1  0
 20  2  1  0
 12  5  1  0
M  END
>  <Compound_ID>  (56) 
C02891855

>  <Active>  (56) 
0

>  <Smiles>  (56) 
CC1=CC(=C2C(=O)NC(=O)NC2=O)C=C(C(F)(F)F)N1CCO

>  <canonical_smi>  (56) 
CC1=CC(=C2C(=O)NC(=O)NC2=O)C=C(C(F)(F)F)N1CCO

>  <Set>  (56) 
G2 inactive

>  <Set_type>  (56) 
Train

>  <MW>  (56) 
331.25

>  <HBD>  (56) 
3

>  <HBA>  (56) 
5

>  <NRB>  (56) 
2

>  <NR>  (56) 
2

>  <NAR>  (56) 
0

>  <PSA>  (56) 
98.74

>  <Standard Type>  (56) 
nan

>  <Standard Relation>  (56) 
nan

>  <Standard Units>  (56) 
nan

>  <Standard Value>  (56) 
nan

>  <Assay ChEMBL ID>  (56) 
nan

>  <Assay Description>  (56) 
nan

>  <BAO Label>  (56) 
nan

$$$$

     RDKit          2D

 25 26  0  0  0  0  0  0  0  0999 V2000
    9.1471   -0.9510    0.0000 C   0  0  0  0  0  0  0  0  0  0  0  0
    7.8481   -0.2010    0.0000 C   0  0  0  0  0  0  0  0  0  0  0  0
    6.5490   -0.9510    0.0000 C   0  0  0  0  0  0  0  0  0  0  0  0
    6.5490   -2.4510    0.0000 C   0  0  0  0  0  0  0  0  0  0  0  0
    5.2500   -0.2010    0.0000 C   0  0  0  0  0  0  0  0  0  0  0  0
    3.9510   -0.9510    0.0000 O   0  0  0  0  0  0  0  0  0  0  0  0
    5.2500    1.2990    0.0000 C   0  0  0  0  0  0  0  0  0  0  0  0
    6.7500    1.2990    0.0000 C   0  0  0  0  0  0  0  0  0  0  0  0
    5.2500    2.7990    0.0000 O   0  0  0  0  0  0  0  0  0  0  0  0
    3.7500    1.2990    0.0000 C   0  0  0  0  0  0  0  0  0  0  0  0
    3.0000    0.0000    0.0000 C   0  0  0  0  0  0  0  0  0  0  0  0
    1.5000    0.0000    0.0000 C   0  0  0  0  0  0  0  0  0  0  0  0
    0.7500   -1.2990    0.0000 C   0  0  0  0  0  0  0  0  0  0  0  0
   -0.7500   -1.2990    0.0000 C   0  0  0  0  0  0  0  0  0  0  0  0
   -1.5000   -2.5981    0.0000 C   0  0  0  0  0  0  0  0  0  0  0  0
   -3.0000   -2.5981    0.0000 C   0  0  0  0  0  0  0  0  0  0  0  0
   -3.7500   -3.8971    0.0000 O   0  0  0  0  0  0  0  0  0  0  0  0
   -3.7500   -1.2990    0.0000 C   0  0  0  0  0  0  0  0  0  0  0  0
   -4.8991   -0.3349    0.0000 C   0  0  0  0  0  0  0  0  0  0  0  0
   -4.8991   -2.2632    0.0000 O   0  0  0  0  0  0  0  0  0  0  0  0
   -3.0000    0.0000    0.0000 C   0  0  0  0  0  0  0  0  0  0  0  0
   -3.7500    1.2990    0.0000 O   0  0  0  0  0  0  0  0  0  0  0  0
   -1.5000    0.0000    0.0000 C   0  0  0  0  0  0  0  0  0  0  0  0
   -0.7500    1.2990    0.0000 C   0  0  0  0  0  0  0  0  0  0  0  0
    0.7500    1.2990    0.0000 O   0  0  0  0  0  0  0  0  0  0  0  0
  1  2  1  0
  2  3  1  0
  3  4  1  1
  3  5  1  0
  5  6  1  6
  5  7  1  0
  7  8  1  1
  7  9  1  0
  7 10  1  0
 10 11  2  0
 11 12  1  0
 12 13  2  0
 13 14  1  0
 14 15  2  0
 15 16  1  0
 16 17  2  0
 16 18  1  0
 18 19  1  6
 18 20  1  0
 18 21  1  0
 21 22  1  1
 21 23  1  0
 23 24  1  6
 24 25  1  0
 25 12  1  0
 23 14  1  0
M  END
>  <Compound_ID>  (57) 
C31158154

>  <Active>  (57) 
0

>  <Smiles>  (57) 
CC[C@@H](C)[C@H](O)[C@@](C)(O)/C=C/C1=CC2=CC(=O)[C@@](C)(O)[C@@H](O)[C@@H]2CO1

>  <canonical_smi>  (57) 
CC[C@@H](C)[C@H](O)[C@@](C)(O)/C=C/C1=CC2=CC(=O)[C@@](C)(O)[C@@H](O)[C@@H]2CO1

>  <Set>  (57) 
G2 inactive

>  <Set_type>  (57) 
Train

>  <MW>  (57) 
352.43

>  <HBD>  (57) 
4

>  <HBA>  (57) 
6

>  <NRB>  (57) 
5

>  <NR>  (57) 
2

>  <NAR>  (57) 
0

>  <PSA>  (57) 
107.22

>  <Standard Type>  (57) 
nan

>  <Standard Relation>  (57) 
nan

>  <Standard Units>  (57) 
nan

>  <Standard Value>  (57) 
nan

>  <Assay ChEMBL ID>  (57) 
nan

>  <Assay Description>  (57) 
nan

>  <BAO Label>  (57) 
nan

$$$$

     RDKit          2D

 28 30  0  0  0  0  0  0  0  0999 V2000
    5.2500   -1.2990    0.0000 C   0  0  0  0  0  0  0  0  0  0  0  0
    3.7500   -1.2990    0.0000 C   0  0  0  0  0  0  0  0  0  0  0  0
    3.0000    0.0000    0.0000 O   0  0  0  0  0  0  0  0  0  0  0  0
    1.5000    0.0000    0.0000 C   0  0  0  0  0  0  0  0  0  0  0  0
    0.7500   -1.2990    0.0000 C   0  0  0  0  0  0  0  0  0  0  0  0
   -0.7500   -1.2990    0.0000 C   0  0  0  0  0  0  0  0  0  0  0  0
   -1.5000   -2.5981    0.0000 C   0  0  0  0  0  0  0  0  0  0  0  0
   -3.0000   -2.5981    0.0000 C   0  0  0  0  0  0  0  0  0  0  0  0
   -3.8817   -1.3846    0.0000 C   0  0  0  0  0  0  0  0  0  0  0  0
   -3.4182    0.0420    0.0000 C   0  0  0  0  0  0  0  0  0  0  0  0
   -5.3083   -1.8481    0.0000 N   0  0  0  0  0  0  0  0  0  0  0  0
   -5.3083   -3.3481    0.0000 N   0  0  0  0  0  0  0  0  0  0  0  0
   -3.8817   -3.8116    0.0000 C   0  0  0  0  0  0  0  0  0  0  0  0
   -3.5955   -5.2841    0.0000 O   0  0  0  0  0  0  0  0  0  0  0  0
   -0.7500   -3.8971    0.0000 C   0  0  0  0  0  0  0  0  0  0  0  0
    0.7418   -4.0539    0.0000 C   0  0  0  0  0  0  0  0  0  0  0  0
    1.7455   -2.9392    0.0000 C   0  0  0  0  0  0  0  0  0  0  0  0
    1.0537   -5.5211    0.0000 N   0  0  0  0  0  0  0  0  0  0  0  0
   -0.2454   -6.2711    0.0000 N   0  0  0  0  0  0  0  0  0  0  0  0
   -1.3601   -5.2674    0.0000 C   0  0  0  0  0  0  0  0  0  0  0  0
   -2.7784   -5.7558    0.0000 O   0  0  0  0  0  1  0  0  0  0  0  0
   -1.5000    0.0000    0.0000 C   0  0  0  0  0  0  0  0  0  0  0  0
   -0.7500    1.2990    0.0000 C   0  0  0  0  0  0  0  0  0  0  0  0
   -1.5000    2.5981    0.0000 I   0  0  0  0  0  0  0  0  0  0  0  0
    0.7500    1.2990    0.0000 C   0  0  0  0  0  0  0  0  0  0  0  0
    1.5000    2.5981    0.0000 O   0  0  0  0  0  0  0  0  0  0  0  0
    0.7500    3.8971    0.0000 C   0  0  0  0  0  0  0  0  0  0  0  0
    1.5000    5.1962    0.0000 C   0  0  0  0  0  0  0  0  0  0  0  0
  1  2  1  0
  2  3  1  0
  3  4  1  0
  4  5  2  0
  5  6  1  0
  7  6  1  6
  7  8  1  0
  8  9  2  0
  9 10  1  0
  9 11  1  0
 11 12  2  0
 12 13  1  0
 13 14  1  1
  7 15  1  0
 15 16  1  0
 16 17  1  0
 16 18  2  0
 18 19  1  0
 19 20  1  0
 20 21  1  0
  6 22  2  0
 22 23  1  0
 23 24  1  0
 23 25  2  0
 25 26  1  0
 26 27  1  0
 27 28  1  0
 25  4  1  0
 13  8  1  0
 20 15  2  0
M  CHG  1  21  -1
M  END
>  <Compound_ID>  (58) 
C39350893

>  <Active>  (58) 
0

>  <Smiles>  (58) 
CCOc1cc([C@@H](C2=C(C)N=N[C@@H]2O)c2c(C)n[nH]c2[O-])cc(I)c1OCC

>  <canonical_smi>  (58) 
CCOc1cc([C@@H](C2=C(C)N=N[C@@H]2O)c2c(C)n[nH]c2[O-])cc(I)c1OCC

>  <Set>  (58) 
G2 inactive

>  <Set_type>  (58) 
Train

>  <MW>  (58) 
497.31

>  <HBD>  (58) 
2

>  <HBA>  (58) 
5

>  <NRB>  (58) 
7

>  <NR>  (58) 
3

>  <NAR>  (58) 
2

>  <PSA>  (58) 
115.15

>  <Standard Type>  (58) 
nan

>  <Standard Relation>  (58) 
nan

>  <Standard Units>  (58) 
nan

>  <Standard Value>  (58) 
nan

>  <Assay ChEMBL ID>  (58) 
nan

>  <Assay Description>  (58) 
nan

>  <BAO Label>  (58) 
nan

$$$$

     RDKit          2D

 35 38  0  0  0  0  0  0  0  0999 V2000
   12.0000    2.5981    0.0000 C   0  0  0  0  0  0  0  0  0  0  0  0
   10.5000    2.5981    0.0000 C   0  0  0  0  0  0  0  0  0  0  0  0
    9.7500    3.8971    0.0000 C   0  0  0  0  0  0  0  0  0  0  0  0
   10.5000    5.1962    0.0000 C   0  0  0  0  0  0  0  0  0  0  0  0
    8.2500    3.8971    0.0000 C   0  0  0  0  0  0  0  0  0  0  0  0
    7.5000    2.5981    0.0000 N   0  0  0  0  0  0  0  0  0  0  0  0
    6.0000    2.5981    0.0000 C   0  0  0  0  0  0  0  0  0  0  0  0
    5.2500    3.8971    0.0000 O   0  0  0  0  0  0  0  0  0  0  0  0
    5.2500    1.2990    0.0000 C   0  0  0  0  0  0  0  0  0  0  0  0
    3.7500    1.2990    0.0000 O   0  0  0  0  0  0  0  0  0  0  0  0
    3.0000    0.0000    0.0000 N   0  0  0  0  0  0  0  0  0  0  0  0
    1.5000    0.0000    0.0000 C   0  0  0  0  0  0  0  0  0  0  0  0
    0.7500   -1.2990    0.0000 C   0  0  0  0  0  0  0  0  0  0  0  0
   -0.7500   -1.2990    0.0000 C   0  0  0  0  0  0  0  0  0  0  0  0
   -1.5000   -2.5981    0.0000 C   0  0  0  0  0  0  0  0  0  0  0  0
   -3.0000   -2.5981    0.0000 C   0  0  0  0  0  0  0  0  0  0  0  0
   -3.7500   -1.2990    0.0000 C   0  0  0  0  0  0  0  0  0  0  0  0
   -3.0000    0.0000    0.0000 C   0  0  0  0  0  0  0  0  0  0  0  0
   -3.7500    1.2990    0.0000 C   0  0  0  0  0  0  0  0  0  0  0  0
   -5.2500    1.2990    0.0000 C   0  0  0  0  0  0  0  0  0  0  0  0
   -6.0000    0.0000    0.0000 C   0  0  0  0  0  0  0  0  0  0  0  0
   -6.7272    1.3119    0.0000 C   0  0  0  0  0  0  0  0  0  0  0  0
   -5.2500   -1.2990    0.0000 C   0  0  0  0  0  0  0  0  0  0  0  0
   -6.2537   -2.4138    0.0000 C   0  0  0  0  0  0  0  0  0  0  0  0
   -7.6240   -1.8037    0.0000 C   0  0  0  0  0  0  0  0  0  0  0  0
   -7.4672   -0.3119    0.0000 C   0  0  0  0  0  0  0  0  0  0  0  0
   -8.9672   -0.3119    0.0000 C   0  0  0  0  0  0  0  0  0  0  0  0
   -7.8047    1.1497    0.0000 O   0  0  0  0  0  0  0  0  0  0  0  0
   -1.5000    0.0000    0.0000 C   0  0  0  0  0  0  0  0  0  0  0  0
   -2.2500    1.2990    0.0000 C   0  0  0  0  0  0  0  0  0  0  0  0
   -0.7500    1.2990    0.0000 C   0  0  0  0  0  0  0  0  0  0  0  0
    0.7500    1.2990    0.0000 C   0  0  0  0  0  0  0  0  0  0  0  0
    7.5000    5.1962    0.0000 C   0  0  0  0  0  0  0  0  0  0  0  0
    6.0000    5.1962    0.0000 O   0  0  0  0  0  0  0  0  0  0  0  0
    8.2500    6.4952    0.0000 O   0  0  0  0  0  1  0  0  0  0  0  0
  1  2  1  0
  2  3  1  0
  3  4  1  1
  3  5  1  0
  5  6  1  1
  6  7  1  0
  7  8  2  0
  7  9  1  0
  9 10  1  0
 10 11  1  0
 11 12  2  0
 12 13  1  0
 13 14  2  0
 14 15  1  0
 15 16  1  0
 17 16  1  6
 17 18  1  0
 18 19  1  1
 19 20  1  0
 20 21  1  0
 21 22  1  1
 21 23  1  0
 23 24  1  1
 24 25  1  0
 25 26  1  0
 26 27  1  6
 26 28  1  0
 18 29  1  0
 29 30  1  1
 29 31  1  0
 31 32  1  0
  5 33  1  0
 33 34  2  0
 33 35  1  0
 32 12  1  0
 29 14  1  0
 23 17  1  0
 26 21  1  0
M  CHG  1  35  -1
M  END
>  <Compound_ID>  (59) 
C43743417

>  <Active>  (59) 
0

>  <Smiles>  (59) 
CC[C@H](C)[C@@H](NC(=O)CO/N=C1/C=C2CC[C@H]3[C@@H](CC[C@]4(C)[C@@H]3CC[C@@]4(C)O)[C@]2(C)CC1)C(=O)[O-]

>  <canonical_smi>  (59) 
CC[C@H](C)[C@@H](NC(=O)CO/N=C1/C=C2CC[C@H]3[C@@H](CC[C@]4(C)[C@@H]3CC[C@@]4(C)O)[C@]2(C)CC1)C(=O)[O-]

>  <Set>  (59) 
G2 inactive

>  <Set_type>  (59) 
Train

>  <MW>  (59) 
487.66

>  <HBD>  (59) 
2

>  <HBA>  (59) 
5

>  <NRB>  (59) 
7

>  <NR>  (59) 
4

>  <NAR>  (59) 
0

>  <PSA>  (59) 
111.05

>  <Standard Type>  (59) 
nan

>  <Standard Relation>  (59) 
nan

>  <Standard Units>  (59) 
nan

>  <Standard Value>  (59) 
nan

>  <Assay ChEMBL ID>  (59) 
nan

>  <Assay Description>  (59) 
nan

>  <BAO Label>  (59) 
nan

$$$$

     RDKit          2D

 37 40  0  0  0  0  0  0  0  0999 V2000
   -2.6840   -8.8195    0.0000 C   0  0  0  0  0  0  0  0  0  0  0  0
   -1.5693   -9.8232    0.0000 C   0  0  0  0  0  0  0  0  0  0  0  0
   -0.4545  -10.8269    0.0000 C   0  0  0  0  0  0  0  0  0  0  0  0
   -2.5730  -10.9379    0.0000 O   0  0  0  0  0  0  0  0  0  0  0  0
   -0.5656   -8.7085    0.0000 C   0  0  0  0  0  0  0  0  0  0  0  0
   -1.0291   -7.2819    0.0000 C   0  0  0  0  0  0  0  0  0  0  0  0
   -0.0254   -6.1672    0.0000 C   0  0  0  0  0  0  0  0  0  0  0  0
   -0.4889   -4.7406    0.0000 O   0  0  0  0  0  0  0  0  0  0  0  0
    1.4418   -6.4791    0.0000 C   0  0  0  0  0  0  0  0  0  0  0  0
    1.1300   -7.9463    0.0000 C   0  0  0  0  0  0  0  0  0  0  0  0
    2.9090   -6.7909    0.0000 O   0  0  0  0  0  0  0  0  0  0  0  0
    1.7537   -5.0118    0.0000 C   0  0  0  0  0  0  0  0  0  0  0  0
    3.1240   -4.4017    0.0000 C   0  0  0  0  0  0  0  0  0  0  0  0
    4.4231   -5.1517    0.0000 O   0  0  0  0  0  0  0  0  0  0  0  0
    2.9672   -2.9099    0.0000 C   0  0  0  0  0  0  0  0  0  0  0  0
    1.5000   -2.5981    0.0000 C   0  0  0  0  0  0  0  0  0  0  0  0
    2.3817   -1.3846    0.0000 C   0  0  0  0  0  0  0  0  0  0  0  0
    0.7500   -1.2990    0.0000 C   0  0  0  0  0  0  0  0  0  0  0  0
    1.5000    0.0000    0.0000 C   0  0  0  0  0  0  0  0  0  0  0  0
    0.7500    1.2990    0.0000 C   0  0  0  0  0  0  0  0  0  0  0  0
   -0.7500    1.2990    0.0000 C   0  0  0  0  0  0  0  0  0  0  0  0
   -1.5000    0.0000    0.0000 C   0  0  0  0  0  0  0  0  0  0  0  0
   -3.0000    0.0000    0.0000 C   0  0  0  0  0  0  0  0  0  0  0  0
   -3.7500    1.2990    0.0000 C   0  0  0  0  0  0  0  0  0  0  0  0
   -5.2500    1.2990    0.0000 O   0  0  0  0  0  0  0  0  0  0  0  0
   -3.0000    2.5981    0.0000 C   0  0  0  0  0  0  0  0  0  0  0  0
   -3.7500    3.8971    0.0000 O   0  0  0  0  0  0  0  0  0  0  0  0
   -1.5000    2.5981    0.0000 C   0  0  0  0  0  0  0  0  0  0  0  0
   -0.0905    3.1111    0.0000 C   0  0  0  0  0  0  0  0  0  0  0  0
   -1.7605    4.0753    0.0000 C   0  0  0  0  0  0  0  0  0  0  0  0
   -0.7500   -1.2990    0.0000 C   0  0  0  0  0  0  0  0  0  0  0  0
   -2.2500   -1.2990    0.0000 C   0  0  0  0  0  0  0  0  0  0  0  0
   -1.5000   -2.5981    0.0000 C   0  0  0  0  0  0  0  0  0  0  0  0
   -3.0000   -2.5981    0.0000 O   0  0  0  0  0  0  0  0  0  0  0  0
   -0.7500   -3.8971    0.0000 C   0  0  0  0  0  0  0  0  0  0  0  0
    0.7500   -3.8971    0.0000 C   0  0  0  0  0  0  0  0  0  0  0  0
    0.1399   -5.2674    0.0000 C   0  0  0  0  0  0  0  0  0  0  0  0
  1  2  1  0
  2  3  1  0
  2  4  1  0
  2  5  1  0
  5  6  2  0
  6  7  1  0
  7  8  2  0
  7  9  1  0
  9 10  1  6
  9 11  1  0
 12  9  1  1
 12 13  1  0
 13 14  1  1
 13 15  1  0
 15 16  1  0
 16 17  1  1
 16 18  1  0
 18 19  1  1
 19 20  1  0
 20 21  2  0
 21 22  1  0
 22 23  1  6
 23 24  2  0
 24 25  1  0
 24 26  1  0
 26 27  2  0
 26 28  1  0
 28 29  1  0
 28 30  1  0
 22 31  1  0
 31 32  1  6
 31 33  1  0
 33 34  2  0
 33 35  1  0
 35 36  1  0
 36 37  1  6
 36 12  1  0
 36 16  1  0
 31 18  1  0
 28 21  1  0
M  END
>  <Compound_ID>  (60) 
C14806458

>  <Active>  (60) 
0

>  <Smiles>  (60) 
CC(C)(O)/C=C/C(=O)[C@](C)(O)[C@@H]1[C@H](O)C[C@@]2(C)[C@@H]3CC=C4[C@@H](C=C(O)C(=O)C4(C)C)[C@]3(C)C(=O)C[C@]12C

>  <canonical_smi>  (60) 
CC(C)(O)/C=C/C(=O)[C@](C)(O)[C@@H]1[C@H](O)C[C@@]2(C)[C@@H]3CC=C4[C@@H](C=C(O)C(=O)C4(C)C)[C@]3(C)C(=O)C[C@]12C

>  <Set>  (60) 
G2 inactive

>  <Set_type>  (60) 
Train

>  <MW>  (60) 
514.66

>  <HBD>  (60) 
4

>  <HBA>  (60) 
7

>  <NRB>  (60) 
4

>  <NR>  (60) 
4

>  <NAR>  (60) 
0

>  <PSA>  (60) 
132.13

>  <Standard Type>  (60) 
nan

>  <Standard Relation>  (60) 
nan

>  <Standard Units>  (60) 
nan

>  <Standard Value>  (60) 
nan

>  <Assay ChEMBL ID>  (60) 
nan

>  <Assay Description>  (60) 
nan

>  <BAO Label>  (60) 
nan

$$$$

     RDKit          2D

 38 42  0  0  0  0  0  0  0  0999 V2000
    2.7760    0.0000    0.0000 C   0  0  0  0  0  0  0  0  0  0  0  0
    1.2760    0.0000    0.0000 C   0  0  0  0  0  0  0  0  0  0  0  0
    0.3943    1.2135    0.0000 C   0  0  0  0  0  0  0  0  0  0  0  0
   -1.0323    0.7500    0.0000 C   0  0  0  0  0  0  0  0  0  0  0  0
   -2.7425    1.6861    0.0000 C   0  0  0  0  0  0  0  0  0  0  0  0
   -4.2413    1.6272    0.0000 C   0  0  0  0  0  0  0  0  0  0  0  0
   -5.6035    0.9992    0.0000 N   0  0  0  0  0  0  0  0  0  0  0  0
   -6.6217   -0.1023    0.0000 C   0  0  0  0  0  0  0  0  0  0  0  0
   -7.1409   -1.5096    0.0000 C   0  0  0  0  0  0  0  0  0  0  0  0
   -7.0820   -3.0084    0.0000 C   0  0  0  0  0  0  0  0  0  0  0  0
   -6.4540   -4.3706    0.0000 N   0  0  0  0  0  4  0  0  0  0  0  0
   -5.3525   -5.3888    0.0000 C   0  0  0  0  0  0  0  0  0  0  0  0
   -3.9452   -5.9080    0.0000 C   0  0  0  0  0  0  0  0  0  0  0  0
   -2.4464   -5.8491    0.0000 C   0  0  0  0  0  0  0  0  0  0  0  0
   -1.0842   -5.2211    0.0000 N   0  0  0  0  0  0  0  0  0  0  0  0
   -0.0660   -4.1197    0.0000 C   0  0  0  0  0  0  0  0  0  0  0  0
    0.4532   -2.7124    0.0000 C   0  0  0  0  0  0  0  0  0  0  0  0
    0.3943   -1.2135    0.0000 C   0  0  0  0  0  0  0  0  0  0  0  0
   -1.0323   -0.7500    0.0000 N   0  0  0  0  0  4  0  0  0  0  0  0
    0.3975   -5.5462    0.0000 C   0  0  0  0  0  0  0  0  0  0  0  0
    1.8241   -6.0098    0.0000 C   0  0  0  0  0  0  0  0  0  0  0  0
   -0.8160   -6.4279    0.0000 C   0  0  0  0  0  0  0  0  0  0  0  0
   -0.8160   -7.9279    0.0000 C   0  0  0  0  0  0  0  0  0  0  0  0
   -2.1150   -8.6779    0.0000 C   0  0  0  0  0  0  0  0  0  0  0  0
   -2.1150  -10.1779    0.0000 C   0  0  0  0  0  0  0  0  0  0  0  0
   -0.8160  -10.9279    0.0000 O   0  0  0  0  0  0  0  0  0  0  0  0
   -3.4141  -10.9279    0.0000 O   0  0  0  0  0  1  0  0  0  0  0  0
   -6.7791   -5.8524    0.0000 C   0  0  0  0  0  0  0  0  0  0  0  0
   -7.2426   -7.2790    0.0000 C   0  0  0  0  0  0  0  0  0  0  0  0
   -6.2389   -8.3937    0.0000 C   0  0  0  0  0  0  0  0  0  0  0  0
   -6.7025   -9.8203    0.0000 C   0  0  0  0  0  0  0  0  0  0  0  0
   -8.1697  -10.1321    0.0000 O   0  0  0  0  0  0  0  0  0  0  0  0
   -5.6988  -10.9350    0.0000 O   0  0  0  0  0  1  0  0  0  0  0  0
   -7.6608   -4.6388    0.0000 C   0  0  0  0  0  0  0  0  0  0  0  0
   -9.1608   -4.6388    0.0000 C   0  0  0  0  0  0  0  0  0  0  0  0
   -7.0852    1.3243    0.0000 C   0  0  0  0  0  0  0  0  0  0  0  0
   -5.8717    2.2060    0.0000 C   0  0  0  0  0  0  0  0  0  0  0  0
   -5.8717    3.7060    0.0000 C   0  0  0  0  0  0  0  0  0  0  0  0
  1  2  1  0
  2  3  2  0
  3  4  1  0
  4  5  2  0
  5  6  1  0
  6  7  1  0
  7  8  1  0
  8  9  1  0
  9 10  2  0
 10 11  1  0
 11 12  2  0
 12 13  1  0
 13 14  2  0
 14 15  1  0
 15 16  1  0
 16 17  2  0
 17 18  1  0
 18 19  2  0
 16 20  1  0
 20 21  1  0
 20 22  2  0
 22 23  1  0
 23 24  1  0
 24 25  1  0
 25 26  2  0
 25 27  1  0
 12 28  1  0
 28 29  1  0
 29 30  1  0
 30 31  1  0
 31 32  2  0
 31 33  1  0
 28 34  2  0
 34 35  1  0
  8 36  2  0
 36 37  1  0
 37 38  1  0
 18  2  1  0
 19  4  1  0
 37  6  2  0
 34 10  1  0
 22 14  1  0
M  CHG  4  11   1  19   1  27  -1  33  -1
M  END
>  <Compound_ID>  (61) 
C19721276

>  <Active>  (61) 
0

>  <Smiles>  (61) 
CC1=Cc2cc3[nH]c(cc4[nH+]c(cc5[nH]c(cc1[nH+]2)c(C)c5CCC(=O)[O-])C(CCC(=O)[O-])=C4C)cc3C

>  <canonical_smi>  (61) 
CC1=Cc2cc3[nH]c(cc4[nH+]c(cc5[nH]c(cc1[nH+]2)c(C)c5CCC(=O)[O-])C(CCC(=O)[O-])=C4C)cc3C

>  <Set>  (61) 
G2 inactive

>  <Set_type>  (61) 
Train

>  <MW>  (61) 
510.59

>  <HBD>  (61) 
2

>  <HBA>  (61) 
4

>  <NRB>  (61) 
6

>  <NR>  (61) 
5

>  <NAR>  (61) 
3

>  <PSA>  (61) 
140.12

>  <Standard Type>  (61) 
nan

>  <Standard Relation>  (61) 
nan

>  <Standard Units>  (61) 
nan

>  <Standard Value>  (61) 
nan

>  <Assay ChEMBL ID>  (61) 
nan

>  <Assay Description>  (61) 
nan

>  <BAO Label>  (61) 
nan

$$$$

     RDKit          2D

 25 28  0  0  0  0  0  0  0  0999 V2000
   -0.0000   -7.7054    0.0000 N   0  0  0  0  0  0  0  0  0  0  0  0
   -0.0000   -6.2054    0.0000 C   0  0  0  0  0  0  0  0  0  0  0  0
    1.2135   -5.3237    0.0000 C   0  0  0  0  0  0  0  0  0  0  0  0
    2.6401   -5.7872    0.0000 S   0  0  0  0  0  0  0  0  0  0  0  0
    3.1036   -4.3606    0.0000 O   0  0  0  0  0  0  0  0  0  0  0  0
    2.1766   -7.2138    0.0000 O   0  0  0  0  0  0  0  0  0  0  0  0
    4.0667   -6.2508    0.0000 C   0  0  0  0  0  0  0  0  0  0  0  0
    4.3786   -7.7180    0.0000 C   0  0  0  0  0  0  0  0  0  0  0  0
    5.8051   -8.1815    0.0000 C   0  0  0  0  0  0  0  0  0  0  0  0
    6.9199   -7.1778    0.0000 C   0  0  0  0  0  0  0  0  0  0  0  0
    8.3464   -7.6413    0.0000 F   0  0  0  0  0  0  0  0  0  0  0  0
    6.6080   -5.7106    0.0000 C   0  0  0  0  0  0  0  0  0  0  0  0
    5.1814   -5.2471    0.0000 C   0  0  0  0  0  0  0  0  0  0  0  0
    0.7500   -3.8971    0.0000 C   0  0  0  0  0  0  0  0  0  0  0  0
    1.5000   -2.5981    0.0000 N   0  0  0  0  0  0  0  0  0  0  0  0
    0.7500   -1.2990    0.0000 C   0  0  0  0  0  0  0  0  0  0  0  0
    1.5000    0.0000    0.0000 C   0  0  0  0  0  0  0  0  0  0  0  0
    0.7500    1.2990    0.0000 C   0  0  0  0  0  0  0  0  0  0  0  0
   -0.7500    1.2990    0.0000 C   0  0  0  0  0  0  0  0  0  0  0  0
   -1.5000    0.0000    0.0000 C   0  0  0  0  0  0  0  0  0  0  0  0
   -0.7500   -1.2990    0.0000 C   0  0  0  0  0  0  0  0  0  0  0  0
   -1.5000   -2.5981    0.0000 N   0  0  0  0  0  0  0  0  0  0  0  0
   -0.7500   -3.8971    0.0000 C   0  0  0  0  0  0  0  0  0  0  0  0
   -1.2135   -5.3237    0.0000 N   0  0  0  0  0  0  0  0  0  0  0  0
   -2.6401   -5.7872    0.0000 N   0  0  0  0  0  0  0  0  0  0  0  0
  1  2  1  0
  2  3  2  0
  3  4  1  0
  4  5  2  0
  4  6  2  0
  4  7  1  0
  7  8  2  0
  8  9  1  0
  9 10  2  0
 10 11  1  0
 10 12  1  0
 12 13  2  0
  3 14  1  0
 14 15  2  0
 15 16  1  0
 16 17  2  0
 17 18  1  0
 18 19  2  0
 19 20  1  0
 20 21  2  0
 21 22  1  0
 22 23  2  0
 23 24  1  0
 24 25  1  0
 24  2  1  0
 13  7  1  0
 23 14  1  0
 21 16  1  0
M  END
>  <Compound_ID>  (62) 
C02369238

>  <Active>  (62) 
0

>  <Smiles>  (62) 
Nc1c(S(=O)(=O)c2ccc(F)cc2)c2nc3ccccc3nc2n1N

>  <canonical_smi>  (62) 
Nc1c(S(=O)(=O)c2ccc(F)cc2)c2nc3ccccc3nc2n1N

>  <Set>  (62) 
G2 inactive

>  <Set_type>  (62) 
Train

>  <MW>  (62) 
357.37

>  <HBD>  (62) 
2

>  <HBA>  (62) 
6

>  <NRB>  (62) 
2

>  <NR>  (62) 
4

>  <NAR>  (62) 
4

>  <PSA>  (62) 
116.89

>  <Standard Type>  (62) 
nan

>  <Standard Relation>  (62) 
nan

>  <Standard Units>  (62) 
nan

>  <Standard Value>  (62) 
nan

>  <Assay ChEMBL ID>  (62) 
nan

>  <Assay Description>  (62) 
nan

>  <BAO Label>  (62) 
nan

$$$$

     RDKit          2D

 24 25  0  0  0  0  0  0  0  0999 V2000
    7.5000    0.0000    0.0000 C   0  0  0  0  0  0  0  0  0  0  0  0
    6.0000    0.0000    0.0000 O   0  0  0  0  0  0  0  0  0  0  0  0
    5.2500   -1.2990    0.0000 C   0  0  0  0  0  0  0  0  0  0  0  0
    5.8423   -2.0850    0.0000 O   0  0  0  0  0  1  0  0  0  0  0  0
    3.7500   -1.2990    0.0000 C   0  0  0  0  0  0  0  0  0  0  0  0
    3.0000   -0.0000    0.0000 F   0  0  0  0  0  0  0  0  0  0  0  0
    3.0000   -2.5981    0.0000 C   0  0  0  0  0  0  0  0  0  0  0  0
    1.5000   -2.5981    0.0000 N   0  0  0  0  0  0  0  0  0  0  0  0
    0.7500   -1.2990    0.0000 C   0  0  0  0  0  0  0  0  0  0  0  0
    1.5000    0.0000    0.0000 N   0  0  0  0  0  4  0  0  0  0  0  0
    0.7500    1.2990    0.0000 C   0  0  0  0  0  0  0  0  0  0  0  0
   -0.7500    1.2990    0.0000 C   0  0  0  0  0  0  0  0  0  0  0  0
   -1.5000    0.0000    0.0000 C   0  0  0  0  0  0  0  0  0  0  0  0
   -0.7500   -1.2990    0.0000 C   0  0  0  0  0  0  0  0  0  0  0  0
   -1.5000   -2.5981    0.0000 C   0  0  0  0  0  0  0  0  0  0  0  0
    3.7500   -3.8971    0.0000 C   0  0  0  0  0  0  0  0  0  0  0  0
    3.0000   -5.1962    0.0000 C   0  0  0  0  0  0  0  0  0  0  0  0
    1.5000   -5.1962    0.0000 O   0  0  0  0  0  1  0  0  0  0  0  0
    3.7500   -6.4952    0.0000 N   0  0  0  0  0  0  0  0  0  0  0  0
    5.2500   -6.4952    0.0000 C   0  0  0  0  0  0  0  0  0  0  0  0
    6.0000   -7.7942    0.0000 S   0  0  0  0  0  0  0  0  0  0  0  0
    6.0000   -5.1962    0.0000 N   0  0  0  0  0  0  0  0  0  0  0  0
    5.2500   -3.8971    0.0000 C   0  0  0  0  0  0  0  0  0  0  0  0
    5.8423   -3.1112    0.0000 O   0  0  0  0  0  0  0  0  0  0  0  0
  1  2  1  0
  2  3  1  0
  3  4  1  0
  3  5  2  0
  5  6  1  0
  5  7  1  0
  7  8  2  0
  8  9  1  0
  9 10  2  0
 10 11  1  0
 11 12  2  0
 12 13  1  0
 13 14  2  0
 14 15  1  0
  7 16  1  0
 16 17  2  0
 17 18  1  0
 17 19  1  0
 19 20  1  0
 20 21  2  0
 20 22  1  0
 22 23  1  0
 23 24  2  0
 14  9  1  0
 23 16  1  0
M  CHG  3   4  -1  10   1  18  -1
M  END
>  <Compound_ID>  (63) 
C54502110

>  <Active>  (63) 
0

>  <Smiles>  (63) 
CO/C([O-])=C(F)/C(=N\c1[nH+]cccc1C)c1c([O-])[nH]c(=S)[nH]c1=O

>  <canonical_smi>  (63) 
CO/C([O-])=C(F)/C(=N\c1[nH+]cccc1C)c1c([O-])[nH]c(=S)[nH]c1=O

>  <Set>  (63) 
G2 inactive

>  <Set_type>  (63) 
Train

>  <MW>  (63) 
351.34

>  <HBD>  (63) 
2

>  <HBA>  (63) 
5

>  <NRB>  (63) 
4

>  <NR>  (63) 
2

>  <NAR>  (63) 
2

>  <PSA>  (63) 
130.5

>  <Standard Type>  (63) 
nan

>  <Standard Relation>  (63) 
nan

>  <Standard Units>  (63) 
nan

>  <Standard Value>  (63) 
nan

>  <Assay ChEMBL ID>  (63) 
nan

>  <Assay Description>  (63) 
nan

>  <BAO Label>  (63) 
nan

$$$$

     RDKit          2D

 21 22  0  0  0  0  0  0  0  0999 V2000
    3.7500    1.2990    0.0000 O   0  0  0  0  0  0  0  0  0  0  0  0
    3.0000    0.0000    0.0000 C   0  0  0  0  0  0  0  0  0  0  0  0
    3.7500   -1.2990    0.0000 O   0  0  0  0  0  1  0  0  0  0  0  0
    1.5000    0.0000    0.0000 C   0  0  0  0  0  0  0  0  0  0  0  0
    0.7500   -1.2990    0.0000 C   0  0  0  0  0  0  0  0  0  0  0  0
   -0.7500   -1.2990    0.0000 C   0  0  0  0  0  0  0  0  0  0  0  0
   -1.5000    0.0000    0.0000 C   0  0  0  0  0  0  0  0  0  0  0  0
   -0.7500    1.2990    0.0000 C   0  0  0  0  0  0  0  0  0  0  0  0
   -1.5000    2.5981    0.0000 Br  0  0  0  0  0  0  0  0  0  0  0  0
    0.7500    1.2990    0.0000 C   0  0  0  0  0  0  0  0  0  0  0  0
    1.5000    2.5981    0.0000 N   0  0  0  0  0  0  0  0  0  0  0  0
    0.7500    3.8971    0.0000 C   0  0  0  0  0  0  0  0  0  0  0  0
   -0.7500    3.8971    0.0000 O   0  0  0  0  0  0  0  0  0  0  0  0
    1.5000    5.1962    0.0000 C   0  0  0  0  0  0  0  0  0  0  0  0
    3.0000    5.1962    0.0000 C   0  0  0  0  0  0  0  0  0  0  0  0
    3.7500    6.4952    0.0000 N   0  0  0  0  0  0  0  0  0  0  0  0
    3.0000    7.7942    0.0000 C   0  0  0  0  0  0  0  0  0  0  0  0
    3.7500    9.0933    0.0000 O   0  0  0  0  0  0  0  0  0  0  0  0
    1.5000    7.7942    0.0000 N   0  0  0  0  0  0  0  0  0  0  0  0
    0.7500    6.4952    0.0000 C   0  0  0  0  0  0  0  0  0  0  0  0
   -0.7500    6.4952    0.0000 O   0  0  0  0  0  0  0  0  0  0  0  0
  1  2  2  0
  2  3  1  0
  2  4  1  0
  4  5  2  0
  5  6  1  0
  6  7  2  0
  7  8  1  0
  8  9  1  0
  8 10  2  0
 10 11  1  0
 11 12  1  0
 12 13  2  0
 12 14  1  0
 14 15  2  0
 15 16  1  0
 16 17  1  0
 17 18  2  0
 17 19  1  0
 19 20  1  0
 20 21  2  0
 10  4  1  0
 20 14  1  0
M  CHG  1   3  -1
M  END
>  <Compound_ID>  (64) 
C62826379

>  <Active>  (64) 
0

>  <Smiles>  (64) 
O=C([O-])c1cccc(Br)c1NC(=O)c1c[nH]c(=O)[nH]c1=O

>  <canonical_smi>  (64) 
O=C([O-])c1cccc(Br)c1NC(=O)c1c[nH]c(=O)[nH]c1=O

>  <Set>  (64) 
G2 inactive

>  <Set_type>  (64) 
Train

>  <MW>  (64) 
353.11

>  <HBD>  (64) 
3

>  <HBA>  (64) 
5

>  <NRB>  (64) 
3

>  <NR>  (64) 
2

>  <NAR>  (64) 
2

>  <PSA>  (64) 
134.95

>  <Standard Type>  (64) 
nan

>  <Standard Relation>  (64) 
nan

>  <Standard Units>  (64) 
nan

>  <Standard Value>  (64) 
nan

>  <Assay ChEMBL ID>  (64) 
nan

>  <Assay Description>  (64) 
nan

>  <BAO Label>  (64) 
nan

$$$$

     RDKit          2D

 23 24  0  0  0  0  0  0  0  0999 V2000
    8.7718   -5.5288    0.0000 C   0  0  0  0  0  0  0  0  0  0  0  0
    7.5583   -4.6471    0.0000 C   0  0  0  0  0  0  0  0  0  0  0  0
    7.5583   -3.1471    0.0000 N   0  0  0  0  0  0  0  0  0  0  0  0
    6.1317   -2.6836    0.0000 N   0  0  0  0  0  0  0  0  0  0  0  0
    5.2500   -3.8971    0.0000 C   0  0  0  0  0  0  0  0  0  0  0  0
    3.7500   -3.8971    0.0000 S   0  0  0  0  0  0  0  0  0  0  0  0
    3.0000   -2.5981    0.0000 C   0  0  0  0  0  0  0  0  0  0  0  0
    1.5000   -2.5981    0.0000 C   0  0  0  0  0  0  0  0  0  0  0  0
    0.7500   -3.8971    0.0000 O   0  0  0  0  0  1  0  0  0  0  0  0
    0.7500   -1.2990    0.0000 C   0  0  0  0  0  0  0  0  0  0  0  0
    1.5000    0.0000    0.0000 C   0  0  0  0  0  0  0  0  0  0  0  0
    3.0000    0.0000    0.0000 O   0  0  0  0  0  0  0  0  0  0  0  0
    0.7500    1.2990    0.0000 N   0  0  0  0  0  0  0  0  0  0  0  0
   -0.7500    1.2990    0.0000 C   0  0  0  0  0  0  0  0  0  0  0  0
   -1.5000    2.5981    0.0000 O   0  0  0  0  0  0  0  0  0  0  0  0
   -1.5000    0.0000    0.0000 N   0  0  0  0  0  0  0  0  0  0  0  0
   -3.0000    0.0000    0.0000 C   0  0  0  0  0  0  0  0  0  0  0  0
   -3.7500    1.2990    0.0000 C   0  0  0  0  0  0  0  0  0  0  0  0
   -5.2500    1.2990    0.0000 C   0  0  0  0  0  0  0  0  0  0  0  0
   -3.0000    2.5981    0.0000 C   0  0  0  0  0  0  0  0  0  0  0  0
   -0.7500   -1.2990    0.0000 C   0  0  0  0  0  0  0  0  0  0  0  0
   -1.5000   -2.5981    0.0000 N   0  0  0  0  0  0  0  0  0  0  0  0
    6.1317   -5.1106    0.0000 N   0  0  0  0  0  0  0  0  0  0  0  0
  1  2  1  0
  2  3  2  0
  3  4  1  0
  4  5  1  0
  5  6  1  0
  6  7  1  0
  7  8  1  0
  8  9  1  0
  8 10  2  0
 10 11  1  0
 11 12  2  0
 11 13  1  0
 13 14  1  0
 14 15  2  0
 14 16  1  0
 16 17  1  0
 17 18  1  0
 18 19  1  0
 18 20  1  0
 16 21  1  0
 21 22  1  1
  5 23  2  0
 23  2  1  0
 21 10  1  0
M  CHG  1   9  -1
M  END
>  <Compound_ID>  (65) 
C63908595

>  <Active>  (65) 
0

>  <Smiles>  (65) 
Cc1n[nH]c(SC/C([O-])=C2\C(=O)NC(=O)N(CC(C)C)[C@@H]2N)n1

>  <canonical_smi>  (65) 
Cc1n[nH]c(SC/C([O-])=C2\C(=O)NC(=O)N(CC(C)C)[C@@H]2N)n1

>  <Set>  (65) 
G2 inactive

>  <Set_type>  (65) 
Train

>  <MW>  (65) 
339.4

>  <HBD>  (65) 
3

>  <HBA>  (65) 
7

>  <NRB>  (65) 
5

>  <NR>  (65) 
2

>  <NAR>  (65) 
1

>  <PSA>  (65) 
140.06

>  <Standard Type>  (65) 
nan

>  <Standard Relation>  (65) 
nan

>  <Standard Units>  (65) 
nan

>  <Standard Value>  (65) 
nan

>  <Assay ChEMBL ID>  (65) 
nan

>  <Assay Description>  (65) 
nan

>  <BAO Label>  (65) 
nan

$$$$

     RDKit          2D

 25 28  0  0  0  0  0  0  0  0999 V2000
    3.0000    0.0000    0.0000 O   0  0  0  0  0  0  0  0  0  0  0  0
    1.5000    0.0000    0.0000 C   0  0  0  0  0  0  0  0  0  0  0  0
    0.7500   -1.2990    0.0000 C   0  0  0  0  0  0  0  0  0  0  0  0
   -0.7500   -1.2990    0.0000 C   0  0  0  0  0  0  0  0  0  0  0  0
   -1.5000   -2.5981    0.0000 C   0  0  0  0  0  0  0  0  0  0  0  0
   -2.9918   -2.7549    0.0000 C   0  0  0  0  0  0  0  0  0  0  0  0
   -3.3037   -4.2221    0.0000 N   0  0  0  0  0  0  0  0  0  0  0  0
   -2.0046   -4.9721    0.0000 N   0  0  0  0  0  0  0  0  0  0  0  0
   -0.8899   -3.9684    0.0000 C   0  0  0  0  0  0  0  0  0  0  0  0
    0.5773   -4.2803    0.0000 C   0  0  0  0  0  0  0  0  0  0  0  0
    1.5810   -3.1655    0.0000 O   0  0  0  0  0  0  0  0  0  0  0  0
    1.0409   -5.7068    0.0000 O   0  0  0  0  0  1  0  0  0  0  0  0
   -1.5000    0.0000    0.0000 C   0  0  0  0  0  0  0  0  0  0  0  0
   -2.9672    0.3119    0.0000 C   0  0  0  0  0  0  0  0  0  0  0  0
   -4.0819   -0.6918    0.0000 O   0  0  0  0  0  1  0  0  0  0  0  0
   -3.1240    1.8037    0.0000 N   0  0  0  0  0  0  0  0  0  0  0  0
   -1.7537    2.4138    0.0000 N   0  0  0  0  0  4  0  0  0  0  0  0
   -1.4418    3.8810    0.0000 C   0  0  0  0  0  0  0  0  0  0  0  0
   -0.0152    4.3445    0.0000 C   0  0  0  0  0  0  0  0  0  0  0  0
    0.2966    5.8117    0.0000 C   0  0  0  0  0  0  0  0  0  0  0  0
   -0.8181    6.8154    0.0000 C   0  0  0  0  0  0  0  0  0  0  0  0
   -2.2447    6.3519    0.0000 C   0  0  0  0  0  0  0  0  0  0  0  0
   -2.5565    4.8847    0.0000 C   0  0  0  0  0  0  0  0  0  0  0  0
   -0.7500    1.2990    0.0000 C   0  0  0  0  0  0  0  0  0  0  0  0
    0.7500    1.2990    0.0000 N   0  0  0  0  0  0  0  0  0  0  0  0
  1  2  2  0
  2  3  1  0
  4  3  1  1
  4  5  1  0
  5  6  1  1
  6  7  2  0
  7  8  1  0
  8  9  2  0
  9 10  1  0
 10 11  2  0
 10 12  1  0
  4 13  1  0
 13 14  2  0
 14 15  1  0
 14 16  1  0
 16 17  1  0
 17 18  1  0
 18 19  1  0
 19 20  1  0
 20 21  1  0
 21 22  1  0
 22 23  1  0
 17 24  1  0
 24 25  1  6
 25  2  1  0
  9  5  1  0
 24 13  1  0
 23 18  1  0
M  CHG  3  12  -1  15  -1  17   1
M  END
>  <Compound_ID>  (66) 
C65381877

>  <Active>  (66) 
0

>  <Smiles>  (66) 
O=C1C[C@@H]([C@@H]2C=NN=C2C(=O)[O-])C2=C([O-])N[NH+](C3CCCCC3)[C@@H]2N1

>  <canonical_smi>  (66) 
O=C1C[C@@H]([C@@H]2C=NN=C2C(=O)[O-])C2=C([O-])N[NH+](C3CCCCC3)[C@@H]2N1

>  <Set>  (66) 
G2 inactive

>  <Set_type>  (66) 
Train

>  <MW>  (66) 
346.37

>  <HBD>  (66) 
3

>  <HBA>  (66) 
5

>  <NRB>  (66) 
3

>  <NR>  (66) 
4

>  <NAR>  (66) 
0

>  <PSA>  (66) 
133.48

>  <Standard Type>  (66) 
nan

>  <Standard Relation>  (66) 
nan

>  <Standard Units>  (66) 
nan

>  <Standard Value>  (66) 
nan

>  <Assay ChEMBL ID>  (66) 
nan

>  <Assay Description>  (66) 
nan

>  <BAO Label>  (66) 
nan

$$$$

     RDKit          2D

 26 28  0  0  0  0  0  0  0  0999 V2000
    3.0000    0.0000    0.0000 C   0  0  0  0  0  0  0  0  0  0  0  0
    1.5000    0.0000    0.0000 C   0  0  0  0  0  0  0  0  0  0  0  0
    0.7500   -1.2990    0.0000 C   0  0  0  0  0  0  0  0  0  0  0  0
   -0.7500   -1.2990    0.0000 C   0  0  0  0  0  0  0  0  0  0  0  0
   -1.5000   -2.5981    0.0000 S   0  0  0  0  0  0  0  0  0  0  0  0
   -2.2500   -3.8971    0.0000 C   0  0  0  0  0  0  0  0  0  0  0  0
   -0.2010   -3.3481    0.0000 O   0  0  0  0  0  0  0  0  0  0  0  0
   -2.7990   -1.8481    0.0000 O   0  0  0  0  0  0  0  0  0  0  0  0
   -1.5000    0.0000    0.0000 C   0  0  0  0  0  0  0  0  0  0  0  0
   -0.7500    1.2990    0.0000 C   0  0  0  0  0  0  0  0  0  0  0  0
    0.7500    1.2990    0.0000 C   0  0  0  0  0  0  0  0  0  0  0  0
    1.5000    2.5981    0.0000 N   0  0  0  0  0  0  0  0  0  0  0  0
    0.7500    3.8971    0.0000 N   0  0  0  0  0  0  0  0  0  0  0  0
   -0.7500    3.8971    0.0000 C   0  0  0  0  0  0  0  0  0  0  0  0
   -1.5000    5.1962    0.0000 C   0  0  0  0  0  0  0  0  0  0  0  0
   -0.7500    6.4952    0.0000 N   0  0  0  0  0  0  0  0  0  0  0  0
   -3.0000    5.1962    0.0000 O   0  0  0  0  0  0  0  0  0  0  0  0
   -1.5000    2.5981    0.0000 C   0  0  0  0  0  0  0  0  0  0  0  0
   -3.0000    2.5981    0.0000 N   0  0  0  0  0  0  0  0  0  0  0  0
   -3.7500    1.2990    0.0000 C   0  0  0  0  0  0  0  0  0  0  0  0
   -3.0000   -0.0000    0.0000 C   0  0  0  0  0  0  0  0  0  0  0  0
   -3.7500   -1.2990    0.0000 N   0  0  0  0  0  0  0  0  0  0  0  0
   -5.2500   -1.2990    0.0000 C   0  0  0  0  0  0  0  0  0  0  0  0
   -6.0000   -0.0000    0.0000 C   0  0  0  0  0  0  0  0  0  0  0  0
   -7.5000   -0.0000    0.0000 F   0  0  0  0  0  0  0  0  0  0  0  0
   -5.2500    1.2990    0.0000 C   0  0  0  0  0  0  0  0  0  0  0  0
  1  2  1  0
  2  3  2  0
  3  4  1  0
  4  5  1  0
  5  6  1  0
  5  7  2  0
  5  8  2  0
  4  9  2  0
  9 10  1  0
 10 11  2  0
 11 12  1  0
 12 13  1  0
 13 14  1  0
 14 15  1  0
 15 16  1  0
 15 17  2  0
 14 18  2  0
 18 19  1  0
 19 20  1  0
 20 21  2  0
 21 22  1  0
 22 23  2  0
 23 24  1  0
 24 25  1  0
 24 26  2  0
 11  2  1  0
 26 20  1  0
 18 10  1  0
M  END
>  <Compound_ID>  (67) 
C45349245

>  <Active>  (67) 
0

>  <Smiles>  (67) 
Cc1cc(S(C)(=O)=O)cc2c1NNC(C(N)=O)=C2Nc1cncc(F)c1

>  <canonical_smi>  (67) 
Cc1cc(S(C)(=O)=O)cc2c1NNC(C(N)=O)=C2Nc1cncc(F)c1

>  <Set>  (67) 
G2 inactive

>  <Set_type>  (67) 
Train

>  <MW>  (67) 
377.4

>  <HBD>  (67) 
4

>  <HBA>  (67) 
7

>  <NRB>  (67) 
4

>  <NR>  (67) 
3

>  <NAR>  (67) 
2

>  <PSA>  (67) 
126.21

>  <Standard Type>  (67) 
nan

>  <Standard Relation>  (67) 
nan

>  <Standard Units>  (67) 
nan

>  <Standard Value>  (67) 
nan

>  <Assay ChEMBL ID>  (67) 
nan

>  <Assay Description>  (67) 
nan

>  <BAO Label>  (67) 
nan

$$$$

     RDKit          2D

 31 33  0  0  0  0  0  0  0  0999 V2000
    3.0000  -18.1865    0.0000 O   0  0  0  0  0  0  0  0  0  0  0  0
    1.5000  -18.1865    0.0000 C   0  0  0  0  0  0  0  0  0  0  0  0
    0.7500  -19.4856    0.0000 O   0  0  0  0  0  1  0  0  0  0  0  0
    0.7500  -16.8875    0.0000 C   0  0  0  0  0  0  0  0  0  0  0  0
    1.5000  -15.5885    0.0000 C   0  0  0  0  0  0  0  0  0  0  0  0
    0.7500  -14.2894    0.0000 N   0  0  0  0  0  0  0  0  0  0  0  0
    1.5000  -12.9904    0.0000 C   0  0  0  0  0  0  0  0  0  0  0  0
    3.0000  -12.9904    0.0000 O   0  0  0  0  0  0  0  0  0  0  0  0
    0.7500  -11.6913    0.0000 C   0  0  0  0  0  0  0  0  0  0  0  0
    1.5000  -10.3923    0.0000 N   0  0  0  0  0  0  0  0  0  0  0  0
    0.7500   -9.0933    0.0000 C   0  0  0  0  0  0  0  0  0  0  0  0
   -0.7500   -9.0933    0.0000 O   0  0  0  0  0  0  0  0  0  0  0  0
    1.5000   -7.7942    0.0000 C   0  0  0  0  0  0  0  0  0  0  0  0
    0.7500   -6.4952    0.0000 C   0  0  0  0  0  0  0  0  0  0  0  0
    1.5000   -5.1962    0.0000 C   0  0  0  0  0  0  0  0  0  0  0  0
    0.7500   -3.8971    0.0000 C   0  0  0  0  0  0  0  0  0  0  0  0
   -0.7500   -3.8971    0.0000 C   0  0  0  0  0  0  0  0  0  0  0  0
   -1.5000   -2.5981    0.0000 C   0  0  0  0  0  0  0  0  0  0  0  0
   -0.7500   -1.2990    0.0000 C   0  0  0  0  0  0  0  0  0  0  0  0
    0.7500   -1.2990    0.0000 C   0  0  0  0  0  0  0  0  0  0  0  0
    1.5000   -2.5981    0.0000 N   0  0  0  0  0  4  0  0  0  0  0  0
    1.5000    0.0000    0.0000 N   0  0  0  0  0  0  0  0  0  0  0  0
    0.7500    1.2990    0.0000 C   0  0  0  0  0  0  0  0  0  0  0  0
   -0.7500    1.2990    0.0000 C   0  0  0  0  0  0  0  0  0  0  0  0
   -1.5000    0.0000    0.0000 C   0  0  0  0  0  0  0  0  0  0  0  0
    3.0000  -15.5885    0.0000 C   0  0  0  0  0  0  0  0  0  0  0  0
    3.7500  -16.8875    0.0000 C   0  0  0  0  0  0  0  0  0  0  0  0
    5.2500  -16.8875    0.0000 C   0  0  0  0  0  0  0  0  0  0  0  0
    6.0000  -15.5885    0.0000 C   0  0  0  0  0  0  0  0  0  0  0  0
    5.2500  -14.2894    0.0000 N   0  0  0  0  0  0  0  0  0  0  0  0
    3.7500  -14.2894    0.0000 C   0  0  0  0  0  0  0  0  0  0  0  0
  1  2  2  0
  2  3  1  0
  2  4  1  0
  5  4  1  6
  5  6  1  0
  6  7  1  0
  7  8  2  0
  7  9  1  0
  9 10  1  0
 10 11  1  0
 11 12  2  0
 11 13  1  0
 13 14  1  0
 14 15  1  0
 15 16  1  0
 16 17  2  0
 17 18  1  0
 18 19  2  0
 19 20  1  0
 20 21  2  0
 20 22  1  0
 22 23  1  0
 23 24  1  0
 24 25  1  0
  5 26  1  0
 26 27  2  0
 27 28  1  0
 28 29  2  0
 29 30  1  0
 30 31  2  0
 21 16  1  0
 31 26  1  0
 25 19  1  0
M  CHG  2   3  -1  21   1
M  END
>  <Compound_ID>  (68) 
C13436045

>  <Active>  (68) 
0

>  <Smiles>  (68) 
O=C([O-])C[C@H](NC(=O)CNC(=O)CCCc1ccc2c([nH+]1)NCCC2)c1cccnc1

>  <canonical_smi>  (68) 
O=C([O-])C[C@H](NC(=O)CNC(=O)CCCc1ccc2c([nH+]1)NCCC2)c1cccnc1

>  <Set>  (68) 
G2 inactive

>  <Set_type>  (68) 
Train

>  <MW>  (68) 
425.49

>  <HBD>  (68) 
3

>  <HBA>  (68) 
6

>  <NRB>  (68) 
10

>  <NR>  (68) 
3

>  <NAR>  (68) 
2

>  <PSA>  (68) 
137.39

>  <Standard Type>  (68) 
nan

>  <Standard Relation>  (68) 
nan

>  <Standard Units>  (68) 
nan

>  <Standard Value>  (68) 
nan

>  <Assay ChEMBL ID>  (68) 
nan

>  <Assay Description>  (68) 
nan

>  <BAO Label>  (68) 
nan

$$$$

     RDKit          2D

 25 26  0  0  0  0  0  0  0  0999 V2000
    1.9509   -5.5501    0.0000 H   0  0  0  0  0  0  0  0  0  0  0  0
    3.4182   -5.2382    0.0000 N   0  0  0  0  0  0  0  0  0  0  0  0
    3.8817   -3.8116    0.0000 C   0  0  0  0  0  0  0  0  0  0  0  0
    5.3083   -3.3481    0.0000 C   0  0  0  0  0  0  0  0  0  0  0  0
    6.5218   -4.2298    0.0000 C   0  0  0  0  0  0  0  0  0  0  0  0
    7.8921   -3.6196    0.0000 Cl  0  0  0  0  0  0  0  0  0  0  0  0
    5.3083   -1.8481    0.0000 S   0  0  0  0  0  0  0  0  0  0  0  0
    3.8817   -1.3846    0.0000 C   0  0  0  0  0  0  0  0  0  0  0  0
    3.4182    0.0420    0.0000 S   0  0  0  0  0  0  0  0  0  0  0  0
    3.0000   -2.5981    0.0000 N   0  0  0  0  0  0  0  0  0  0  0  0
    1.5000   -2.5981    0.0000 N   0  0  0  0  0  0  0  0  0  0  0  0
    0.7500   -1.2990    0.0000 C   0  0  0  0  0  0  0  0  0  0  0  0
    1.5000    0.0000    0.0000 N   0  0  0  0  0  0  0  0  0  0  0  0
    0.7500    1.2990    0.0000 C   0  0  0  0  0  0  0  0  0  0  0  0
    1.5000    2.5981    0.0000 C   0  0  0  0  0  0  0  0  0  0  0  0
   -0.7500    1.2990    0.0000 N   0  0  0  0  0  0  0  0  0  0  0  0
   -1.5000    0.0000    0.0000 C   0  0  0  0  0  0  0  0  0  0  0  0
   -3.0000    0.0000    0.0000 N   0  0  0  0  0  0  0  0  0  0  0  0
   -3.7500    1.2990    0.0000 C   0  0  0  0  0  0  0  0  0  0  0  0
   -3.0000    2.5981    0.0000 O   0  0  0  0  0  0  0  0  0  0  0  0
   -5.2500    1.2990    0.0000 C   0  0  0  0  0  0  0  0  0  0  0  0
   -6.7500    1.2990    0.0000 Cl  0  0  0  0  0  0  0  0  0  0  0  0
   -5.2500    2.7990    0.0000 Cl  0  0  0  0  0  0  0  0  0  0  0  0
   -5.2500   -0.2010    0.0000 Cl  0  0  0  0  0  0  0  0  0  0  0  0
   -0.7500   -1.2990    0.0000 N   0  0  0  0  0  0  0  0  0  0  0  0
  1  2  1  0
  2  3  2  0
  3  4  1  0
  4  5  1  6
  5  6  1  0
  4  7  1  0
  7  8  1  0
  8  9  2  0
  8 10  1  0
 10 11  1  0
 11 12  1  0
 12 13  2  0
 13 14  1  0
 14 15  1  0
 14 16  2  0
 16 17  1  0
 17 18  1  0
 18 19  1  0
 19 20  1  1
 19 21  1  0
 21 22  1  0
 21 23  1  0
 21 24  1  0
 17 25  2  0
 10  3  1  0
 25 12  1  0
M  END
>  <Compound_ID>  (69) 
C26949972

>  <Active>  (69) 
0

>  <Smiles>  (69) 
[H]/N=C1/[C@@H](CCl)SC(=S)N1Nc1nc(C)nc(N[C@H](O)C(Cl)(Cl)Cl)n1

>  <canonical_smi>  (69) 
[H]/N=C1/[C@@H](CCl)SC(=S)N1Nc1nc(C)nc(N[C@H](O)C(Cl)(Cl)Cl)n1

>  <Set>  (69) 
G2 inactive

>  <Set_type>  (69) 
Train

>  <MW>  (69) 
451.19

>  <HBD>  (69) 
4

>  <HBA>  (69) 
9

>  <NRB>  (69) 
5

>  <NR>  (69) 
2

>  <NAR>  (69) 
1

>  <PSA>  (69) 
110.05

>  <Standard Type>  (69) 
nan

>  <Standard Relation>  (69) 
nan

>  <Standard Units>  (69) 
nan

>  <Standard Value>  (69) 
nan

>  <Assay ChEMBL ID>  (69) 
nan

>  <Assay Description>  (69) 
nan

>  <BAO Label>  (69) 
nan

$$$$

     RDKit          2D

 14 15  0  0  0  0  0  0  0  0999 V2000
    2.7760    0.0000    0.0000 N   0  0  0  0  0  0  0  0  0  0  0  0
    1.2760    0.0000    0.0000 C   0  0  0  0  0  0  0  0  0  0  0  0
    0.3943    1.2135    0.0000 N   0  0  0  0  0  0  0  0  0  0  0  0
   -1.0323    0.7500    0.0000 N   0  0  0  0  0  0  0  0  0  0  0  0
   -1.0323   -0.7500    0.0000 C   0  0  0  0  0  0  0  0  0  0  0  0
   -2.2458   -1.6317    0.0000 N   0  0  0  0  0  0  0  0  0  0  0  0
   -3.6161   -1.0216    0.0000 N   0  0  0  0  0  0  0  0  0  0  0  0
   -4.9152   -1.7716    0.0000 C   0  0  0  0  0  0  0  0  0  0  0  0
   -5.0720   -3.2634    0.0000 O   0  0  0  0  0  0  0  0  0  0  0  0
   -6.0299   -0.7679    0.0000 C   0  0  0  0  0  0  0  0  0  0  0  0
   -5.4198    0.6024    0.0000 S   0  0  0  0  0  0  0  0  0  0  0  0
   -3.9280    0.4456    0.0000 C   0  0  0  0  0  0  0  0  0  0  0  0
   -2.9243    1.5604    0.0000 S   0  0  0  0  0  0  0  0  0  0  0  0
    0.3943   -1.2135    0.0000 S   0  0  0  0  0  0  0  0  0  0  0  0
  1  2  1  0
  2  3  2  0
  3  4  1  0
  4  5  2  0
  5  6  1  0
  6  7  1  0
  7  8  1  0
  8  9  2  0
  8 10  1  0
 10 11  1  0
 11 12  1  0
 12 13  2  0
  5 14  1  0
 14  2  1  0
 12  7  1  0
M  END
>  <Compound_ID>  (70) 
C28629018

>  <Active>  (70) 
0

>  <Smiles>  (70) 
Nc1nnc(NN2C(=O)CSC2=S)s1

>  <canonical_smi>  (70) 
Nc1nnc(NN2C(=O)CSC2=S)s1

>  <Set>  (70) 
G2 inactive

>  <Set_type>  (70) 
Train

>  <MW>  (70) 
247.33

>  <HBD>  (70) 
2

>  <HBA>  (70) 
7

>  <NRB>  (70) 
2

>  <NR>  (70) 
2

>  <NAR>  (70) 
1

>  <PSA>  (70) 
84.14

>  <Standard Type>  (70) 
nan

>  <Standard Relation>  (70) 
nan

>  <Standard Units>  (70) 
nan

>  <Standard Value>  (70) 
nan

>  <Assay ChEMBL ID>  (70) 
nan

>  <Assay Description>  (70) 
nan

>  <BAO Label>  (70) 
nan

$$$$

     RDKit          2D

 29 32  0  0  0  0  0  0  0  0999 V2000
   -5.2725  -12.6808    0.0000 C   0  0  0  0  0  0  0  0  0  0  0  0
   -4.6624  -11.3105    0.0000 C   0  0  0  0  0  0  0  0  0  0  0  0
   -5.5441  -10.0970    0.0000 C   0  0  0  0  0  0  0  0  0  0  0  0
   -4.9340   -8.7267    0.0000 C   0  0  0  0  0  0  0  0  0  0  0  0
   -3.4422   -8.5699    0.0000 C   0  0  0  0  0  0  0  0  0  0  0  0
   -2.8321   -7.1996    0.0000 S   0  0  0  0  0  0  0  0  0  0  0  0
   -4.2024   -6.5895    0.0000 O   0  0  0  0  0  0  0  0  0  0  0  0
   -1.4617   -7.8097    0.0000 O   0  0  0  0  0  0  0  0  0  0  0  0
   -2.2220   -5.8293    0.0000 O   0  0  0  0  0  0  0  0  0  0  0  0
   -3.1036   -4.6157    0.0000 C   0  0  0  0  0  0  0  0  0  0  0  0
   -4.6036   -4.6157    0.0000 C   0  0  0  0  0  0  0  0  0  0  0  0
   -5.4853   -5.8293    0.0000 O   0  0  0  0  0  0  0  0  0  0  0  0
   -5.0672   -3.1891    0.0000 C   0  0  0  0  0  0  0  0  0  0  0  0
   -6.4937   -2.7256    0.0000 C   0  0  0  0  0  0  0  0  0  0  0  0
   -6.8056   -1.2584    0.0000 O   0  0  0  0  0  0  0  0  0  0  0  0
   -3.8536   -2.3075    0.0000 O   0  0  0  0  0  0  0  0  0  0  0  0
   -2.6401   -3.1891    0.0000 C   0  0  0  0  0  0  0  0  0  0  0  0
   -1.2135   -2.7256    0.0000 N   0  0  0  0  0  0  0  0  0  0  0  0
   -0.0000   -3.6073    0.0000 C   0  0  0  0  0  0  0  0  0  0  0  0
    1.2135   -2.7256    0.0000 N   0  0  0  0  0  0  0  0  0  0  0  0
    0.7500   -1.2990    0.0000 C   0  0  0  0  0  0  0  0  0  0  0  0
    1.5000    0.0000    0.0000 C   0  0  0  0  0  0  0  0  0  0  0  0
    3.0000    0.0000    0.0000 N   0  0  0  0  0  0  0  0  0  0  0  0
    0.7500    1.2990    0.0000 N   0  0  0  0  0  0  0  0  0  0  0  0
   -0.7500    1.2990    0.0000 C   0  0  0  0  0  0  0  0  0  0  0  0
   -1.5000    0.0000    0.0000 N   0  0  0  0  0  0  0  0  0  0  0  0
   -0.7500   -1.2990    0.0000 C   0  0  0  0  0  0  0  0  0  0  0  0
   -2.5605   -9.7834    0.0000 C   0  0  0  0  0  0  0  0  0  0  0  0
   -3.1706  -11.1537    0.0000 C   0  0  0  0  0  0  0  0  0  0  0  0
  1  2  1  0
  2  3  2  0
  3  4  1  0
  4  5  2  0
  5  6  1  0
  6  7  2  0
  6  8  2  0
  6  9  1  0
 10  9  1  1
 10 11  1  0
 11 12  1  1
 11 13  1  0
 13 14  1  6
 14 15  1  0
 13 16  1  0
 16 17  1  0
 17 18  1  6
 18 19  1  0
 19 20  2  0
 20 21  1  0
 21 22  2  0
 22 23  1  0
 22 24  1  0
 24 25  2  0
 25 26  1  0
 26 27  2  0
  5 28  1  0
 28 29  2  0
 29  2  1  0
 17 10  1  0
 27 18  1  0
 27 21  1  0
M  END
>  <Compound_ID>  (71) 
C35395411

>  <Active>  (71) 
0

>  <Smiles>  (71) 
Cc1ccc(S(=O)(=O)O[C@H]2[C@@H](O)[C@H](CO)O[C@@H]2n2cnc3c(N)ncnc32)cc1

>  <canonical_smi>  (71) 
Cc1ccc(S(=O)(=O)O[C@H]2[C@@H](O)[C@H](CO)O[C@@H]2n2cnc3c(N)ncnc32)cc1

>  <Set>  (71) 
G2 inactive

>  <Set_type>  (71) 
Train

>  <MW>  (71) 
421.44

>  <HBD>  (71) 
3

>  <HBA>  (71) 
10

>  <NRB>  (71) 
5

>  <NR>  (71) 
4

>  <NAR>  (71) 
3

>  <PSA>  (71) 
162.68

>  <Standard Type>  (71) 
nan

>  <Standard Relation>  (71) 
nan

>  <Standard Units>  (71) 
nan

>  <Standard Value>  (71) 
nan

>  <Assay ChEMBL ID>  (71) 
nan

>  <Assay Description>  (71) 
nan

>  <BAO Label>  (71) 
nan

$$$$

     RDKit          2D

 26 28  0  0  0  0  0  0  0  0999 V2000
    7.5000   -5.1962    0.0000 C   0  0  0  0  0  0  0  0  0  0  0  0
    6.0000   -5.1962    0.0000 C   0  0  0  0  0  0  0  0  0  0  0  0
    5.2500   -3.8971    0.0000 C   0  0  0  0  0  0  0  0  0  0  0  0
    3.7500   -3.8971    0.0000 N   0  0  0  0  0  0  0  0  0  0  0  0
    3.0000   -5.1962    0.0000 C   0  0  0  0  0  0  0  0  0  0  0  0
    3.7500   -6.4952    0.0000 O   0  0  0  0  0  0  0  0  0  0  0  0
    1.5000   -5.1962    0.0000 N   0  0  0  0  0  0  0  0  0  0  0  0
    0.7500   -3.8971    0.0000 C   0  0  0  0  0  0  0  0  0  0  0  0
   -0.7500   -3.8971    0.0000 O   0  0  0  0  0  0  0  0  0  0  0  0
    1.5000   -2.5981    0.0000 C   0  0  0  0  0  0  0  0  0  0  0  0
    0.7500   -1.2990    0.0000 C   0  0  0  0  0  0  0  0  0  0  0  0
    1.5000    0.0000    0.0000 N   0  0  0  0  0  4  0  0  0  0  0  0
    0.7500    1.2990    0.0000 C   0  0  0  0  0  0  0  0  0  0  0  0
   -0.7500    1.2990    0.0000 C   0  0  0  0  0  0  0  0  0  0  0  0
   -1.5000    0.0000    0.0000 C   0  0  0  0  0  0  0  0  0  0  0  0
   -3.0000    0.0000    0.0000 C   0  0  0  0  0  0  0  0  0  0  0  0
   -3.7500   -1.2990    0.0000 C   0  0  0  0  0  0  0  0  0  0  0  0
   -5.2500   -1.2990    0.0000 O   0  0  0  0  0  0  0  0  0  0  0  0
   -6.0000    0.0000    0.0000 C   0  0  0  0  0  0  0  0  0  0  0  0
   -3.0000   -2.5981    0.0000 C   0  0  0  0  0  0  0  0  0  0  0  0
   -3.7500   -3.8971    0.0000 O   0  0  0  0  0  0  0  0  0  0  0  0
   -3.0000   -5.1962    0.0000 C   0  0  0  0  0  0  0  0  0  0  0  0
   -1.5000   -2.5981    0.0000 C   0  0  0  0  0  0  0  0  0  0  0  0
   -0.7500   -1.2990    0.0000 C   0  0  0  0  0  0  0  0  0  0  0  0
    3.0000   -2.5981    0.0000 C   0  0  0  0  0  0  0  0  0  0  0  0
    3.7500   -1.2990    0.0000 O   0  0  0  0  0  0  0  0  0  0  0  0
  1  2  2  0
  2  3  1  0
  3  4  1  0
  4  5  1  0
  5  6  1  0
  5  7  2  0
  7  8  1  0
  8  9  1  0
  8 10  2  0
 11 10  1  6
 11 12  1  0
 12 13  1  0
 13 14  1  0
 14 15  1  0
 15 16  2  0
 16 17  1  0
 17 18  1  0
 18 19  1  0
 17 20  2  0
 20 21  1  0
 21 22  1  0
 20 23  1  0
 23 24  2  0
 10 25  1  0
 25 26  2  0
 25  4  1  0
 24 11  1  0
 24 15  1  0
M  CHG  1  12   1
M  END
>  <Compound_ID>  (72) 
C08770428

>  <Active>  (72) 
0

>  <Smiles>  (72) 
C=CCn1c(O)nc(O)c([C@H]2[NH2+]CCc3cc(OC)c(OC)cc32)c1=O

>  <canonical_smi>  (72) 
C=CCn1c(O)nc(O)c([C@H]2[NH2+]CCc3cc(OC)c(OC)cc32)c1=O

>  <Set>  (72) 
G2 inactive

>  <Set_type>  (72) 
Train

>  <MW>  (72) 
360.39

>  <HBD>  (72) 
3

>  <HBA>  (72) 
6

>  <NRB>  (72) 
5

>  <NR>  (72) 
3

>  <NAR>  (72) 
2

>  <PSA>  (72) 
110.42

>  <Standard Type>  (72) 
nan

>  <Standard Relation>  (72) 
nan

>  <Standard Units>  (72) 
nan

>  <Standard Value>  (72) 
nan

>  <Assay ChEMBL ID>  (72) 
nan

>  <Assay Description>  (72) 
nan

>  <BAO Label>  (72) 
nan

$$$$

     RDKit          2D

 18 20  0  0  0  0  0  0  0  0999 V2000
   -2.9499    4.2246    0.0000 N   0  0  0  0  0  0  0  0  0  0  0  0
   -1.8351    3.2209    0.0000 C   0  0  0  0  0  0  0  0  0  0  0  0
   -0.4086    3.6844    0.0000 N   0  0  0  0  0  0  0  0  0  0  0  0
    0.7062    2.6807    0.0000 C   0  0  0  0  0  0  0  0  0  0  0  0
    2.1328    3.1443    0.0000 N   0  0  0  0  0  0  0  0  0  0  0  0
    2.4446    4.6115    0.0000 C   0  0  0  0  0  0  0  0  0  0  0  0
    3.8712    5.0750    0.0000 C   0  0  0  0  0  0  0  0  0  0  0  0
    4.1831    6.5422    0.0000 C   0  0  0  0  0  0  0  0  0  0  0  0
    3.1794    7.6570    0.0000 C   0  0  0  0  0  0  0  0  0  0  0  0
    3.9294    8.9560    0.0000 C   0  0  0  0  0  0  0  0  0  0  0  0
    5.3966    8.6441    0.0000 C   0  0  0  0  0  0  0  0  0  0  0  0
    5.5534    7.1523    0.0000 S   0  0  0  0  0  0  0  0  0  0  0  0
    0.3943    1.2135    0.0000 C   0  0  0  0  0  0  0  0  0  0  0  0
    1.2760    0.0000    0.0000 N   0  0  0  0  0  0  0  0  0  0  0  0
    0.3943   -1.2135    0.0000 C   0  0  0  0  0  0  0  0  0  0  0  0
   -1.0323   -0.7500    0.0000 N   0  0  0  0  0  0  0  0  0  0  0  0
   -1.0323    0.7500    0.0000 C   0  0  0  0  0  0  0  0  0  0  0  0
   -2.1470    1.7537    0.0000 N   0  0  0  0  0  0  0  0  0  0  0  0
  1  2  1  0
  2  3  2  0
  3  4  1  0
  4  5  2  0
  5  6  1  0
  6  7  1  0
  7  8  1  0
  8  9  2  0
  9 10  1  0
 10 11  2  0
 11 12  1  0
  4 13  1  0
 13 14  2  0
 14 15  1  0
 15 16  2  0
 16 17  1  0
 17 18  1  1
 18  2  1  0
 12  8  1  0
 17 13  1  0
M  END
>  <Compound_ID>  (73) 
C38577356

>  <Active>  (73) 
0

>  <Smiles>  (73) 
NC1=N/C(=N\CCc2cccs2)C2=NC=N[C@H]2N1

>  <canonical_smi>  (73) 
NC1=N/C(=N\CCc2cccs2)C2=NC=N[C@H]2N1

>  <Set>  (73) 
G2 inactive

>  <Set_type>  (73) 
Train

>  <MW>  (73) 
260.33

>  <HBD>  (73) 
2

>  <HBA>  (73) 
2

>  <NRB>  (73) 
3

>  <NR>  (73) 
3

>  <NAR>  (73) 
1

>  <PSA>  (73) 
87.49

>  <Standard Type>  (73) 
nan

>  <Standard Relation>  (73) 
nan

>  <Standard Units>  (73) 
nan

>  <Standard Value>  (73) 
nan

>  <Assay ChEMBL ID>  (73) 
nan

>  <Assay Description>  (73) 
nan

>  <BAO Label>  (73) 
nan

$$$$

     RDKit          2D

 20 21  0  0  0  0  0  0  0  0999 V2000
    3.0000    0.0000    0.0000 C   0  0  0  0  0  0  0  0  0  0  0  0
    1.5000    0.0000    0.0000 C   0  0  0  0  0  0  0  0  0  0  0  0
    0.7500   -1.2990    0.0000 N   0  0  0  0  0  0  0  0  0  0  0  0
   -0.7500   -1.2990    0.0000 C   0  0  0  0  0  0  0  0  0  0  0  0
   -1.5000    0.0000    0.0000 C   0  0  0  0  0  0  0  0  0  0  0  0
   -3.0000    0.0000    0.0000 C   0  0  0  0  0  0  0  0  0  0  0  0
   -4.5000    0.0000    0.0000 N   0  0  0  0  0  0  0  0  0  0  0  0
   -0.7500    1.2990    0.0000 C   0  0  0  0  0  0  0  0  0  0  0  0
   -1.5000    2.5981    0.0000 C   0  0  0  0  0  0  0  0  0  0  0  0
    0.7500    1.2990    0.0000 C   0  0  0  0  0  0  0  0  0  0  0  0
    1.5000    2.5981    0.0000 N   0  0  0  0  0  0  0  0  0  0  0  0
    3.0000    2.5981    0.0000 C   0  0  0  0  0  0  0  0  0  0  0  0
    3.7500    1.2990    0.0000 O   0  0  0  0  0  1  0  0  0  0  0  0
    3.7500    3.8971    0.0000 C   0  0  0  0  0  0  0  0  0  0  0  0
    5.2500    3.8971    0.0000 C   0  0  0  0  0  0  0  0  0  0  0  0
    6.0000    5.1962    0.0000 C   0  0  0  0  0  0  0  0  0  0  0  0
    7.5000    5.1962    0.0000 N   0  0  0  0  0  0  0  0  0  0  0  0
    5.2500    6.4952    0.0000 C   0  0  0  0  0  0  0  0  0  0  0  0
    3.7500    6.4952    0.0000 C   0  0  0  0  0  0  0  0  0  0  0  0
    3.0000    5.1962    0.0000 N   0  0  0  0  0  4  0  0  0  0  0  0
  1  2  1  0
  2  3  2  0
  3  4  1  0
  4  5  2  0
  5  6  1  0
  6  7  3  0
  5  8  1  0
  8  9  1  0
  8 10  2  0
 10 11  1  0
 11 12  2  0
 12 13  1  0
 12 14  1  0
 14 15  2  0
 15 16  1  0
 16 17  1  0
 16 18  2  0
 18 19  1  0
 19 20  2  0
 10  2  1  0
 20 14  1  0
M  CHG  2  13  -1  20   1
M  END
>  <Compound_ID>  (74) 
C40816491

>  <Active>  (74) 
0

>  <Smiles>  (74) 
Cc1ncc(C#N)c(C)c1/N=C(\[O-])c1cc(N)cc[nH+]1

>  <canonical_smi>  (74) 
Cc1ncc(C#N)c(C)c1/N=C(\[O-])c1cc(N)cc[nH+]1

>  <Set>  (74) 
G2 inactive

>  <Set_type>  (74) 
Train

>  <MW>  (74) 
267.29

>  <HBD>  (74) 
1

>  <HBA>  (74) 
4

>  <NRB>  (74) 
2

>  <NR>  (74) 
2

>  <NAR>  (74) 
2

>  <PSA>  (74) 
112.26

>  <Standard Type>  (74) 
nan

>  <Standard Relation>  (74) 
nan

>  <Standard Units>  (74) 
nan

>  <Standard Value>  (74) 
nan

>  <Assay ChEMBL ID>  (74) 
nan

>  <Assay Description>  (74) 
nan

>  <BAO Label>  (74) 
nan

$$$$

     RDKit          2D

 18 20  0  0  0  0  0  0  0  0999 V2000
   -3.1880    4.3580    0.0000 C   0  0  0  0  0  0  0  0  0  0  0  0
   -2.4186    3.0703    0.0000 C   0  0  0  0  0  0  0  0  0  0  0  0
   -3.8452    2.6068    0.0000 C   0  0  0  0  0  0  0  0  0  0  0  0
   -1.3344    4.1069    0.0000 C   0  0  0  0  0  0  0  0  0  0  0  0
    0.1520    3.9056    0.0000 N   0  0  0  0  0  0  0  0  0  0  0  0
    0.9214    2.6179    0.0000 C   0  0  0  0  0  0  0  0  0  0  0  0
    2.4153    2.7523    0.0000 O   0  0  0  0  0  0  0  0  0  0  0  0
    0.3943    1.2135    0.0000 C   0  0  0  0  0  0  0  0  0  0  0  0
    1.2760    0.0000    0.0000 N   0  0  0  0  0  0  0  0  0  0  0  0
    0.3943   -1.2135    0.0000 C   0  0  0  0  0  0  0  0  0  0  0  0
    0.8578   -2.6401    0.0000 C   0  0  0  0  0  0  0  0  0  0  0  0
    2.2844   -3.1036    0.0000 N   0  0  0  0  0  0  0  0  0  0  0  0
    2.2844   -4.6036    0.0000 C   0  0  0  0  0  0  0  0  0  0  0  0
    0.8578   -5.0672    0.0000 C   0  0  0  0  0  0  0  0  0  0  0  0
   -0.0239   -3.8536    0.0000 N   0  0  0  0  0  0  0  0  0  0  0  0
   -1.0323   -0.7500    0.0000 N   0  0  0  0  0  0  0  0  0  0  0  0
   -1.0323    0.7500    0.0000 C   0  0  0  0  0  0  0  0  0  0  0  0
   -2.2841    1.5763    0.0000 C   0  0  0  0  0  0  0  0  0  0  0  0
  1  2  1  0
  2  3  1  0
  2  4  1  0
  4  5  1  0
  5  6  1  0
  6  7  2  0
  6  8  1  0
  8  9  1  1
  9 10  1  0
 10 11  1  6
 11 12  2  0
 12 13  1  0
 13 14  2  0
 14 15  1  0
 10 16  1  0
 16 17  2  0
 17 18  1  0
 18  2  1  0
 17  8  1  0
 15 11  1  0
M  END
>  <Compound_ID>  (75) 
C65421493

>  <Active>  (75) 
0

>  <Smiles>  (75) 
CC1(C)CNC(=O)[C@H]2N[C@H](c3ncc[nH]3)N=C2C1

>  <canonical_smi>  (75) 
CC1(C)CNC(=O)[C@H]2N[C@H](c3ncc[nH]3)N=C2C1

>  <Set>  (75) 
G2 inactive

>  <Set_type>  (75) 
Train

>  <MW>  (75) 
247.3

>  <HBD>  (75) 
3

>  <HBA>  (75) 
3

>  <NRB>  (75) 
1

>  <NR>  (75) 
3

>  <NAR>  (75) 
1

>  <PSA>  (75) 
82.17

>  <Standard Type>  (75) 
nan

>  <Standard Relation>  (75) 
nan

>  <Standard Units>  (75) 
nan

>  <Standard Value>  (75) 
nan

>  <Assay ChEMBL ID>  (75) 
nan

>  <Assay Description>  (75) 
nan

>  <BAO Label>  (75) 
nan

$$$$

     RDKit          2D

 21 22  0  0  0  0  0  0  0  0999 V2000
    3.0000    0.0000    0.0000 N   0  0  0  0  0  0  0  0  0  0  0  0
    1.5000    0.0000    0.0000 C   0  0  0  0  0  0  0  0  0  0  0  0
    0.7500   -1.2990    0.0000 C   0  0  0  0  0  0  0  0  0  0  0  0
   -0.7500   -1.2990    0.0000 C   0  0  0  0  0  0  0  0  0  0  0  0
   -1.5000    0.0000    0.0000 C   0  0  0  0  0  0  0  0  0  0  0  0
   -3.0000    0.0000    0.0000 O   0  0  0  0  0  0  0  0  0  0  0  0
   -0.7500    1.2990    0.0000 N   0  0  0  0  0  0  0  0  0  0  0  0
   -1.5000    2.5981    0.0000 C   0  0  0  0  0  0  0  0  0  0  0  0
   -0.7500    3.8971    0.0000 C   0  0  0  0  0  0  0  0  0  0  0  0
   -1.5000    5.1962    0.0000 C   0  0  0  0  0  0  0  0  0  0  0  0
   -0.7500    6.4952    0.0000 O   0  0  0  0  0  0  0  0  0  0  0  0
   -1.5000    7.7942    0.0000 C   0  0  0  0  0  0  0  0  0  0  0  0
   -0.7500    9.0933    0.0000 C   0  0  0  0  0  0  0  0  0  0  0  0
   -1.5000   10.3923    0.0000 C   0  0  0  0  0  0  0  0  0  0  0  0
   -0.7500   11.6913    0.0000 Cl  0  0  0  0  0  0  0  0  0  0  0  0
   -3.0000   10.3923    0.0000 C   0  0  0  0  0  0  0  0  0  0  0  0
   -3.7500   11.6913    0.0000 Cl  0  0  0  0  0  0  0  0  0  0  0  0
   -3.7500    9.0933    0.0000 C   0  0  0  0  0  0  0  0  0  0  0  0
   -3.0000    7.7942    0.0000 C   0  0  0  0  0  0  0  0  0  0  0  0
   -3.7500    6.4952    0.0000 Cl  0  0  0  0  0  0  0  0  0  0  0  0
    0.7500    1.2990    0.0000 C   0  0  0  0  0  0  0  0  0  0  0  0
  1  2  1  0
  2  3  1  0
  3  4  2  0
  4  5  1  0
  5  6  2  0
  5  7  1  0
  7  8  1  0
  8  9  1  0
  9 10  1  0
 10 11  1  0
 11 12  1  0
 12 13  2  0
 13 14  1  0
 14 15  1  0
 14 16  2  0
 16 17  1  0
 16 18  1  0
 18 19  2  0
 19 20  1  0
  7 21  1  0
 21  2  2  0
 19 12  1  0
M  END
>  <Compound_ID>  (76) 
C37065630

>  <Active>  (76) 
0

>  <Smiles>  (76) 
Nc1ccc(=O)n(CCCOc2cc(Cl)c(Cl)cc2Cl)c1

>  <canonical_smi>  (76) 
Nc1ccc(=O)n(CCCOc2cc(Cl)c(Cl)cc2Cl)c1

>  <Set>  (76) 
G2 inactive

>  <Set_type>  (76) 
Train

>  <MW>  (76) 
347.63

>  <HBD>  (76) 
1

>  <HBA>  (76) 
3

>  <NRB>  (76) 
5

>  <NR>  (76) 
2

>  <NAR>  (76) 
2

>  <PSA>  (76) 
57.25

>  <Standard Type>  (76) 
nan

>  <Standard Relation>  (76) 
nan

>  <Standard Units>  (76) 
nan

>  <Standard Value>  (76) 
nan

>  <Assay ChEMBL ID>  (76) 
nan

>  <Assay Description>  (76) 
nan

>  <BAO Label>  (76) 
nan

$$$$

     RDKit          2D

 22 23  0  0  0  0  0  0  0  0999 V2000
    2.2500   -3.8971    0.0000 N   0  0  0  0  0  0  0  0  0  0  0  0
    3.0000   -2.5981    0.0000 C   0  0  0  0  0  0  0  0  0  0  0  0
    3.7500   -1.2990    0.0000 C   0  0  0  0  0  0  0  0  0  0  0  0
    3.0000    0.0000    0.0000 C   0  0  0  0  0  0  0  0  0  0  0  0
    1.5000    0.0000    0.0000 C   0  0  0  0  0  0  0  0  0  0  0  0
    0.7500   -1.2990    0.0000 C   0  0  0  0  0  0  0  0  0  0  0  0
   -0.7500   -1.2990    0.0000 C   0  0  0  0  0  0  0  0  0  0  0  0
   -1.5000    0.0000    0.0000 C   0  0  0  0  0  0  0  0  0  0  0  0
   -3.0000    0.0000    0.0000 O   0  0  0  0  0  0  0  0  0  0  0  0
   -3.7500    1.2990    0.0000 C   0  0  0  0  0  0  0  0  0  0  0  0
   -5.2500    1.2990    0.0000 C   0  0  0  0  0  0  0  0  0  0  0  0
   -6.0000    2.5981    0.0000 C   0  0  0  0  0  0  0  0  0  0  0  0
   -7.5000    2.5981    0.0000 C   0  0  0  0  0  0  0  0  0  0  0  0
   -8.2500    1.2990    0.0000 C   0  0  0  0  0  0  0  0  0  0  0  0
   -7.5000    0.0000    0.0000 C   0  0  0  0  0  0  0  0  0  0  0  0
   -6.0000    0.0000    0.0000 C   0  0  0  0  0  0  0  0  0  0  0  0
   -0.7500    1.2990    0.0000 C   0  0  0  0  0  0  0  0  0  0  0  0
   -1.5000    2.5981    0.0000 Br  0  0  0  0  0  0  0  0  0  0  0  0
    0.7500    1.2990    0.0000 C   0  0  0  0  0  0  0  0  0  0  0  0
    5.2500   -1.2990    0.0000 C   0  0  0  0  0  0  0  0  0  0  0  0
    6.0000   -2.5981    0.0000 N   0  0  0  0  0  0  0  0  0  0  0  0
    6.0000    0.0000    0.0000 O   0  0  0  0  0  0  0  0  0  0  0  0
  1  2  3  0
  2  3  1  0
  3  4  2  0
  4  5  1  0
  5  6  2  0
  6  7  1  0
  7  8  2  0
  8  9  1  0
  9 10  1  0
 10 11  1  0
 11 12  2  0
 12 13  1  0
 13 14  2  0
 14 15  1  0
 15 16  2  0
  8 17  1  0
 17 18  1  0
 17 19  2  0
  3 20  1  0
 20 21  1  0
 20 22  2  0
 19  5  1  0
 16 11  1  0
M  END
>  <Compound_ID>  (77) 
C42912907

>  <Active>  (77) 
0

>  <Smiles>  (77) 
N#C/C(=C\c1ccc(OCc2ccccc2)c(Br)c1)C(N)=O

>  <canonical_smi>  (77) 
N#C/C(=C\c1ccc(OCc2ccccc2)c(Br)c1)C(N)=O

>  <Set>  (77) 
G2 inactive

>  <Set_type>  (77) 
Train

>  <MW>  (77) 
357.21

>  <HBD>  (77) 
1

>  <HBA>  (77) 
3

>  <NRB>  (77) 
5

>  <NR>  (77) 
2

>  <NAR>  (77) 
2

>  <PSA>  (77) 
76.11

>  <Standard Type>  (77) 
nan

>  <Standard Relation>  (77) 
nan

>  <Standard Units>  (77) 
nan

>  <Standard Value>  (77) 
nan

>  <Assay ChEMBL ID>  (77) 
nan

>  <Assay Description>  (77) 
nan

>  <BAO Label>  (77) 
nan

$$$$

     RDKit          2D

 23 24  0  0  0  0  0  0  0  0999 V2000
   13.2718   -4.8635    0.0000 C   0  0  0  0  0  0  0  0  0  0  0  0
   12.0583   -5.7452    0.0000 C   0  0  0  0  0  0  0  0  0  0  0  0
   10.6317   -5.2817    0.0000 C   0  0  0  0  0  0  0  0  0  0  0  0
    9.7500   -6.4952    0.0000 C   0  0  0  0  0  0  0  0  0  0  0  0
    8.2500   -6.4952    0.0000 C   0  0  0  0  0  0  0  0  0  0  0  0
    7.5000   -7.7942    0.0000 O   0  0  0  0  0  0  0  0  0  0  0  0
    7.5000   -5.1962    0.0000 N   0  0  0  0  0  0  0  0  0  0  0  0
    6.0000   -5.1962    0.0000 N   0  0  0  0  0  0  0  0  0  0  0  0
    5.2500   -3.8971    0.0000 C   0  0  0  0  0  0  0  0  0  0  0  0
    6.0000   -2.5981    0.0000 O   0  0  0  0  0  0  0  0  0  0  0  0
    3.7500   -3.8971    0.0000 N   0  0  0  0  0  0  0  0  0  0  0  0
    3.0000   -2.5981    0.0000 C   0  0  0  0  0  0  0  0  0  0  0  0
    1.5000   -2.5981    0.0000 C   0  0  0  0  0  0  0  0  0  0  0  0
    0.7500   -1.2990    0.0000 C   0  0  0  0  0  0  0  0  0  0  0  0
    1.5000    0.0000    0.0000 C   0  0  0  0  0  0  0  0  0  0  0  0
    0.7500    1.2990    0.0000 C   0  0  0  0  0  0  0  0  0  0  0  0
   -0.7500    1.2990    0.0000 C   0  0  0  0  0  0  0  0  0  0  0  0
   -1.5000    0.0000    0.0000 C   0  0  0  0  0  0  0  0  0  0  0  0
   -0.7500   -1.2990    0.0000 C   0  0  0  0  0  0  0  0  0  0  0  0
   -1.5000   -2.5981    0.0000 C   0  0  0  0  0  0  0  0  0  0  0  0
   10.6317   -7.7087    0.0000 C   0  0  0  0  0  0  0  0  0  0  0  0
   10.1682   -9.1353    0.0000 C   0  0  0  0  0  0  0  0  0  0  0  0
   12.0583   -7.2452    0.0000 O   0  0  0  0  0  0  0  0  0  0  0  0
  1  2  1  0
  2  3  2  0
  3  4  1  0
  4  5  1  0
  5  6  2  0
  5  7  1  0
  7  8  1  0
  8  9  1  0
  9 10  2  0
  9 11  1  0
 11 12  1  0
 12 13  1  0
 13 14  1  0
 14 15  2  0
 15 16  1  0
 16 17  2  0
 17 18  1  0
 18 19  2  0
 19 20  1  0
  4 21  2  0
 21 22  1  0
 21 23  1  0
 23  2  1  0
 19 14  1  0
M  END
>  <Compound_ID>  (78) 
C09866911

>  <Active>  (78) 
0

>  <Smiles>  (78) 
Cc1cc(C(=O)NNC(=O)NCCc2ccccc2C)c(C)o1

>  <canonical_smi>  (78) 
Cc1cc(C(=O)NNC(=O)NCCc2ccccc2C)c(C)o1

>  <Set>  (78) 
G2 inactive

>  <Set_type>  (78) 
Train

>  <MW>  (78) 
315.37

>  <HBD>  (78) 
3

>  <HBA>  (78) 
3

>  <NRB>  (78) 
4

>  <NR>  (78) 
2

>  <NAR>  (78) 
2

>  <PSA>  (78) 
83.37

>  <Standard Type>  (78) 
nan

>  <Standard Relation>  (78) 
nan

>  <Standard Units>  (78) 
nan

>  <Standard Value>  (78) 
nan

>  <Assay ChEMBL ID>  (78) 
nan

>  <Assay Description>  (78) 
nan

>  <BAO Label>  (78) 
nan

$$$$

     RDKit          2D

 34 38  0  0  0  0  0  0  0  0999 V2000
    3.2537   -7.6099    0.0000 N   0  0  0  0  0  0  0  0  0  0  0  0
    2.5037   -6.3109    0.0000 C   0  0  0  0  0  0  0  0  0  0  0  0
    1.7537   -5.0118    0.0000 C   0  0  0  0  0  0  0  0  0  0  0  0
    0.5402   -5.8935    0.0000 C   0  0  0  0  0  0  0  0  0  0  0  0
    0.6970   -7.3853    0.0000 N   0  0  0  0  0  0  0  0  0  0  0  0
   -0.8301   -5.2834    0.0000 O   0  0  0  0  0  0  0  0  0  0  0  0
    3.1240   -4.4017    0.0000 C   0  0  0  0  0  0  0  0  0  0  0  0
    4.4231   -5.1517    0.0000 C   0  0  0  0  0  0  0  0  0  0  0  0
    4.4231   -6.6517    0.0000 C   0  0  0  0  0  0  0  0  0  0  0  0
    5.7221   -7.4017    0.0000 C   0  0  0  0  0  0  0  0  0  0  0  0
    7.0211   -6.6517    0.0000 N   0  0  0  0  0  0  0  0  0  0  0  0
    7.0211   -5.1517    0.0000 C   0  0  0  0  0  0  0  0  0  0  0  0
    5.7221   -4.4017    0.0000 C   0  0  0  0  0  0  0  0  0  0  0  0
    2.9672   -2.9099    0.0000 C   0  0  0  0  0  0  0  0  0  0  0  0
    4.0819   -1.9062    0.0000 C   0  0  0  0  0  0  0  0  0  0  0  0
    5.5085   -2.3698    0.0000 O   0  0  0  0  0  0  0  0  0  0  0  0
    3.7701   -0.4390    0.0000 C   0  0  0  0  0  0  0  0  0  0  0  0
    4.8848    0.5647    0.0000 C   0  0  0  0  0  0  0  0  0  0  0  0
    4.5729    2.0319    0.0000 C   0  0  0  0  0  0  0  0  0  0  0  0
    3.1463    2.4954    0.0000 C   0  0  0  0  0  0  0  0  0  0  0  0
    2.8345    3.9626    0.0000 Cl  0  0  0  0  0  0  0  0  0  0  0  0
    2.0316    1.4917    0.0000 C   0  0  0  0  0  0  0  0  0  0  0  0
    2.3435    0.0245    0.0000 C   0  0  0  0  0  0  0  0  0  0  0  0
    1.5000   -2.5981    0.0000 N   0  0  0  0  0  0  0  0  0  0  0  0
    0.7500   -1.2990    0.0000 C   0  0  0  0  0  0  0  0  0  0  0  0
    1.5000    0.0000    0.0000 C   0  0  0  0  0  0  0  0  0  0  0  0
    0.7500    1.2990    0.0000 C   0  0  0  0  0  0  0  0  0  0  0  0
   -0.7500    1.2990    0.0000 C   0  0  0  0  0  0  0  0  0  0  0  0
   -1.5000    2.5981    0.0000 F   0  0  0  0  0  0  0  0  0  0  0  0
   -1.5000    0.0000    0.0000 C   0  0  0  0  0  0  0  0  0  0  0  0
   -0.7500   -1.2990    0.0000 C   0  0  0  0  0  0  0  0  0  0  0  0
   -1.5000   -2.5981    0.0000 C   0  0  0  0  0  0  0  0  0  0  0  0
   -0.7500   -3.8971    0.0000 C   0  0  0  0  0  0  0  0  0  0  0  0
    0.7500   -3.8971    0.0000 C   0  0  0  0  0  0  0  0  0  0  0  0
  1  2  3  0
  3  2  1  6
  3  4  1  0
  4  5  1  0
  4  6  2  0
  3  7  1  0
  7  8  1  6
  8  9  2  0
  9 10  1  0
 10 11  2  0
 11 12  1  0
 12 13  2  0
  7 14  1  0
 14 15  1  1
 15 16  2  0
 15 17  1  0
 17 18  2  0
 18 19  1  0
 19 20  2  0
 20 21  1  0
 20 22  1  0
 22 23  2  0
 14 24  1  0
 24 25  1  0
 25 26  2  0
 26 27  1  0
 27 28  2  0
 28 29  1  0
 28 30  1  0
 30 31  2  0
 31 32  1  0
 32 33  2  0
 34 33  1  1
 34  3  1  0
 13  8  1  0
 23 17  1  0
 34 24  1  0
 31 25  1  0
M  END
>  <Compound_ID>  (79) 
C12428980

>  <Active>  (79) 
0

>  <Smiles>  (79) 
N#C[C@@]1(C(N)=O)[C@@H](c2ccncc2)[C@H](C(=O)c2ccc(Cl)cc2)N2c3ccc(F)cc3C=C[C@@H]21

>  <canonical_smi>  (79) 
N#C[C@@]1(C(N)=O)[C@@H](c2ccncc2)[C@H](C(=O)c2ccc(Cl)cc2)N2c3ccc(F)cc3C=C[C@@H]21

>  <Set>  (79) 
G2 inactive

>  <Set_type>  (79) 
Train

>  <MW>  (79) 
472.91

>  <HBD>  (79) 
1

>  <HBA>  (79) 
5

>  <NRB>  (79) 
4

>  <NR>  (79) 
5

>  <NAR>  (79) 
3

>  <PSA>  (79) 
100.08

>  <Standard Type>  (79) 
nan

>  <Standard Relation>  (79) 
nan

>  <Standard Units>  (79) 
nan

>  <Standard Value>  (79) 
nan

>  <Assay ChEMBL ID>  (79) 
nan

>  <Assay Description>  (79) 
nan

>  <BAO Label>  (79) 
nan

$$$$

     RDKit          2D

 19 21  0  0  0  0  0  0  0  0999 V2000
   -0.5773   -4.2803    0.0000 C   0  0  0  0  0  0  0  0  0  0  0  0
    0.8899   -3.9684    0.0000 C   0  0  0  0  0  0  0  0  0  0  0  0
    2.0046   -4.9721    0.0000 C   0  0  0  0  0  0  0  0  0  0  0  0
    1.8478   -6.4639    0.0000 C   0  0  0  0  0  0  0  0  0  0  0  0
    1.6910   -7.9557    0.0000 N   0  0  0  0  0  0  0  0  0  0  0  0
    3.3037   -4.2221    0.0000 N   0  0  0  0  0  0  0  0  0  0  0  0
    2.9918   -2.7549    0.0000 N   0  0  0  0  0  0  0  0  0  0  0  0
    1.5000   -2.5981    0.0000 N   0  0  0  0  0  0  0  0  0  0  0  0
    0.7500   -1.2990    0.0000 C   0  0  0  0  0  0  0  0  0  0  0  0
    1.5000    0.0000    0.0000 C   0  0  0  0  0  0  0  0  0  0  0  0
    0.7500    1.2990    0.0000 C   0  0  0  0  0  0  0  0  0  0  0  0
   -0.7500    1.2990    0.0000 C   0  0  0  0  0  0  0  0  0  0  0  0
   -1.5000    0.0000    0.0000 C   0  0  0  0  0  0  0  0  0  0  0  0
   -3.0000    0.0000    0.0000 C   0  0  0  0  0  0  0  0  0  0  0  0
   -3.7500    1.2990    0.0000 O   0  0  0  0  0  0  0  0  0  0  0  0
   -3.7500   -1.2990    0.0000 C   0  0  0  0  0  0  0  0  0  0  0  0
   -3.0000   -2.5981    0.0000 C   0  0  0  0  0  0  0  0  0  0  0  0
   -1.5000   -2.5981    0.0000 C   0  0  0  0  0  0  0  0  0  0  0  0
   -0.7500   -1.2990    0.0000 C   0  0  0  0  0  0  0  0  0  0  0  0
  1  2  1  0
  2  3  2  0
  3  4  1  0
  4  5  3  0
  3  6  1  0
  6  7  2  0
  7  8  1  0
  8  9  1  0
  9 10  2  0
 10 11  1  0
 11 12  2  0
 12 13  1  0
 13 14  2  0
 14 15  1  0
 14 16  1  0
 16 17  2  0
 17 18  1  0
 18 19  2  0
  8  2  1  0
 19  9  1  0
 19 13  1  0
M  END
>  <Compound_ID>  (80) 
C62242963

>  <Active>  (80) 
0

>  <Smiles>  (80) 
Cc1c(C#N)nnn1-c1cccc2c(O)cccc12

>  <canonical_smi>  (80) 
Cc1c(C#N)nnn1-c1cccc2c(O)cccc12

>  <Set>  (80) 
G2 inactive

>  <Set_type>  (80) 
Train

>  <MW>  (80) 
250.26

>  <HBD>  (80) 
1

>  <HBA>  (80) 
4

>  <NRB>  (80) 
1

>  <NR>  (80) 
3

>  <NAR>  (80) 
3

>  <PSA>  (80) 
74.73

>  <Standard Type>  (80) 
nan

>  <Standard Relation>  (80) 
nan

>  <Standard Units>  (80) 
nan

>  <Standard Value>  (80) 
nan

>  <Assay ChEMBL ID>  (80) 
nan

>  <Assay Description>  (80) 
nan

>  <BAO Label>  (80) 
nan

$$$$

     RDKit          2D

 33 37  0  0  0  0  0  0  0  0999 V2000
   -5.9157   -6.1668    0.0000 C   0  0  0  0  0  0  0  0  0  0  0  0
   -4.4738   -6.5802    0.0000 C   0  0  0  0  0  0  0  0  0  0  0  0
   -4.1110   -8.0357    0.0000 C   0  0  0  0  0  0  0  0  0  0  0  0
   -5.6073   -8.1403    0.0000 O   0  0  0  0  0  0  0  0  0  0  0  0
   -6.2649   -9.4885    0.0000 C   0  0  0  0  0  0  0  0  0  0  0  0
   -5.9030  -10.1988    0.0000 O   0  0  0  0  0  0  0  0  0  0  0  0
   -7.7612   -9.5932    0.0000 C   0  0  0  0  0  0  0  0  0  0  0  0
   -8.4188  -10.9413    0.0000 N   0  0  0  0  0  4  0  0  0  0  0  0
   -9.9151  -11.0460    0.0000 C   0  0  0  0  0  0  0  0  0  0  0  0
   -7.5800  -12.1849    0.0000 C   0  0  0  0  0  0  0  0  0  0  0  0
   -4.2677   -9.5275    0.0000 C   0  0  0  0  0  0  0  0  0  0  0  0
   -4.9510   -9.9381    0.0000 O   0  0  0  0  0  0  0  0  0  0  0  0
   -3.0542  -10.4092    0.0000 O   0  0  0  0  0  0  0  0  0  0  0  0
   -1.6839   -9.7990    0.0000 C   0  0  0  0  0  0  0  0  0  0  0  0
   -1.5271   -8.3073    0.0000 C   0  0  0  0  0  0  0  0  0  0  0  0
   -2.7406   -7.4256    0.0000 C   0  0  0  0  0  0  0  0  0  0  0  0
   -2.5838   -5.9338    0.0000 C   0  0  0  0  0  0  0  0  0  0  0  0
   -1.2135   -5.3237    0.0000 C   0  0  0  0  0  0  0  0  0  0  0  0
   -0.0000   -6.2054    0.0000 N   0  0  0  0  0  0  0  0  0  0  0  0
   -0.1568   -7.6972    0.0000 C   0  0  0  0  0  0  0  0  0  0  0  0
    1.0567   -8.5788    0.0000 O   0  0  0  0  0  0  0  0  0  0  0  0
    1.2135   -5.3237    0.0000 C   0  0  0  0  0  0  0  0  0  0  0  0
    0.7500   -3.8971    0.0000 C   0  0  0  0  0  0  0  0  0  0  0  0
    1.5000   -2.5981    0.0000 C   0  0  0  0  0  0  0  0  0  0  0  0
    0.7500   -1.2990    0.0000 C   0  0  0  0  0  0  0  0  0  0  0  0
    1.5000    0.0000    0.0000 C   0  0  0  0  0  0  0  0  0  0  0  0
    3.0000    0.0000    0.0000 N   0  0  0  0  0  0  0  0  0  0  0  0
    0.7500    1.2990    0.0000 C   0  0  0  0  0  0  0  0  0  0  0  0
   -0.7500    1.2990    0.0000 C   0  0  0  0  0  0  0  0  0  0  0  0
   -1.5000    0.0000    0.0000 C   0  0  0  0  0  0  0  0  0  0  0  0
   -0.7500   -1.2990    0.0000 C   0  0  0  0  0  0  0  0  0  0  0  0
   -1.5000   -2.5981    0.0000 N   0  0  0  0  0  0  0  0  0  0  0  0
   -0.7500   -3.8971    0.0000 C   0  0  0  0  0  0  0  0  0  0  0  0
  1  2  1  0
  3  2  1  1
  3  4  1  0
  4  5  1  0
  5  6  2  0
  5  7  1  0
  7  8  1  0
  8  9  1  0
  8 10  1  0
  3 11  1  0
 11 12  2  0
 11 13  1  0
 13 14  1  0
 14 15  1  0
 15 16  2  0
 16 17  1  0
 17 18  2  0
 18 19  1  0
 19 20  1  0
 20 21  2  0
 19 22  1  0
 22 23  1  0
 23 24  2  0
 24 25  1  0
 25 26  2  0
 26 27  1  0
 26 28  1  0
 28 29  2  0
 29 30  1  0
 30 31  2  0
 31 32  1  0
 32 33  2  0
 16  3  1  0
 33 18  1  0
 20 15  1  0
 33 23  1  0
 31 25  1  0
M  CHG  1   8   1
M  END
>  <Compound_ID>  (81) 
C13000561

>  <Active>  (81) 
0

>  <Smiles>  (81) 
CC[C@]1(OC(=O)C[NH+](C)C)C(=O)OCc2c1cc1n(c2=O)Cc2cc3c(N)cccc3nc2-1

>  <canonical_smi>  (81) 
CC[C@]1(OC(=O)C[NH+](C)C)C(=O)OCc2c1cc1n(c2=O)Cc2cc3c(N)cccc3nc2-1

>  <Set>  (81) 
G2 inactive

>  <Set_type>  (81) 
Train

>  <MW>  (81) 
449.49

>  <HBD>  (81) 
2

>  <HBA>  (81) 
7

>  <NRB>  (81) 
4

>  <NR>  (81) 
5

>  <NAR>  (81) 
4

>  <PSA>  (81) 
117.95

>  <Standard Type>  (81) 
nan

>  <Standard Relation>  (81) 
nan

>  <Standard Units>  (81) 
nan

>  <Standard Value>  (81) 
nan

>  <Assay ChEMBL ID>  (81) 
nan

>  <Assay Description>  (81) 
nan

>  <BAO Label>  (81) 
nan

$$$$

     RDKit          2D

 31 35  0  0  0  0  0  0  0  0999 V2000
   -6.4562  -11.5849    0.0000 C   0  0  0  0  0  0  0  0  0  0  0  0
   -5.1572  -10.8349    0.0000 C   0  0  0  0  0  0  0  0  0  0  0  0
   -3.7869  -11.4450    0.0000 C   0  0  0  0  0  0  0  0  0  0  0  0
   -2.7832  -10.3303    0.0000 S   0  0  0  0  0  0  0  0  0  0  0  0
   -3.5332   -9.0313    0.0000 C   0  0  0  0  0  0  0  0  0  0  0  0
   -2.9231   -7.6610    0.0000 N   0  0  0  0  0  0  0  0  0  0  0  0
   -3.6731   -6.3619    0.0000 C   0  0  0  0  0  0  0  0  0  0  0  0
   -5.1648   -6.2051    0.0000 O   0  0  0  0  0  0  0  0  0  0  0  0
   -2.6694   -5.2472    0.0000 C   0  0  0  0  0  0  0  0  0  0  0  0
   -2.9812   -3.7800    0.0000 O   0  0  0  0  0  1  0  0  0  0  0  0
   -1.2990   -5.8573    0.0000 C   0  0  0  0  0  0  0  0  0  0  0  0
   -0.0000   -5.1073    0.0000 C   0  0  0  0  0  0  0  0  0  0  0  0
    1.2990   -5.8573    0.0000 O   0  0  0  0  0  0  0  0  0  0  0  0
   -0.0000   -3.6073    0.0000 C   0  0  0  0  0  0  0  0  0  0  0  0
    1.2135   -2.7256    0.0000 C   0  0  0  0  0  0  0  0  0  0  0  0
    0.7500   -1.2990    0.0000 C   0  0  0  0  0  0  0  0  0  0  0  0
    1.5000    0.0000    0.0000 C   0  0  0  0  0  0  0  0  0  0  0  0
    0.7500    1.2990    0.0000 C   0  0  0  0  0  0  0  0  0  0  0  0
   -0.7500    1.2990    0.0000 C   0  0  0  0  0  0  0  0  0  0  0  0
   -1.5000    0.0000    0.0000 C   0  0  0  0  0  0  0  0  0  0  0  0
   -0.7500   -1.2990    0.0000 C   0  0  0  0  0  0  0  0  0  0  0  0
   -1.2135   -2.7256    0.0000 O   0  0  0  0  0  0  0  0  0  0  0  0
   -1.4558   -7.3491    0.0000 C   0  0  0  0  0  0  0  0  0  0  0  0
   -0.3411   -8.3528    0.0000 C   0  0  0  0  0  0  0  0  0  0  0  0
    1.0855   -7.8893    0.0000 C   0  0  0  0  0  0  0  0  0  0  0  0
    2.2002   -8.8929    0.0000 C   0  0  0  0  0  0  0  0  0  0  0  0
    1.8883  -10.3602    0.0000 C   0  0  0  0  0  0  0  0  0  0  0  0
    0.4617  -10.8237    0.0000 C   0  0  0  0  0  0  0  0  0  0  0  0
   -0.6530   -9.8200    0.0000 C   0  0  0  0  0  0  0  0  0  0  0  0
   -1.7978  -10.5355    0.0000 F   0  0  0  0  0  0  0  0  0  0  0  0
   -5.0004   -9.3431    0.0000 N   0  0  0  0  0  0  0  0  0  0  0  0
  1  2  1  0
  2  3  2  0
  3  4  1  0
  4  5  1  0
  5  6  1  0
  6  7  1  0
  7  8  2  0
  7  9  1  0
  9 10  1  0
  9 11  2  0
 11 12  1  0
 12 13  2  0
 12 14  1  0
 14 15  2  0
 15 16  1  0
 16 17  2  0
 17 18  1  0
 18 19  2  0
 19 20  1  0
 20 21  2  0
 21 22  1  0
 11 23  1  0
 23 24  1  1
 24 25  2  0
 25 26  1  0
 26 27  2  0
 27 28  1  0
 28 29  2  0
 29 30  1  0
  5 31  2  0
 31  2  1  0
 23  6  1  0
 29 24  1  0
 22 14  1  0
 21 16  1  0
M  CHG  1  10  -1
M  END
>  <Compound_ID>  (82) 
C39848505

>  <Active>  (82) 
0

>  <Smiles>  (82) 
Cc1csc(N2C(=O)C([O-])=C(C(=O)c3cc4ccccc4o3)[C@H]2c2ccccc2F)n1

>  <canonical_smi>  (82) 
Cc1csc(N2C(=O)C([O-])=C(C(=O)c3cc4ccccc4o3)[C@H]2c2ccccc2F)n1

>  <Set>  (82) 
G2 inactive

>  <Set_type>  (82) 
Train

>  <MW>  (82) 
433.44

>  <HBD>  (82) 
0

>  <HBA>  (82) 
5

>  <NRB>  (82) 
4

>  <NR>  (82) 
5

>  <NAR>  (82) 
4

>  <PSA>  (82) 
86.47

>  <Standard Type>  (82) 
nan

>  <Standard Relation>  (82) 
nan

>  <Standard Units>  (82) 
nan

>  <Standard Value>  (82) 
nan

>  <Assay ChEMBL ID>  (82) 
nan

>  <Assay Description>  (82) 
nan

>  <BAO Label>  (82) 
nan

$$$$

     RDKit          2D

 29 33  0  0  0  0  0  0  0  0999 V2000
    0.8050    6.0661    0.0000 O   0  0  0  0  0  0  0  0  0  0  0  0
   -0.4086    5.1844    0.0000 C   0  0  0  0  0  0  0  0  0  0  0  0
   -0.4086    3.6844    0.0000 C   0  0  0  0  0  0  0  0  0  0  0  0
    0.7062    2.6807    0.0000 C   0  0  0  0  0  0  0  0  0  0  0  0
    2.1328    3.1443    0.0000 C   0  0  0  0  0  0  0  0  0  0  0  0
    2.5963    4.5709    0.0000 C   0  0  0  0  0  0  0  0  0  0  0  0
    4.0963    4.5709    0.0000 C   0  0  0  0  0  0  0  0  0  0  0  0
    4.5598    3.1443    0.0000 C   0  0  0  0  0  0  0  0  0  0  0  0
    3.3463    2.2626    0.0000 S   0  0  0  0  0  0  0  0  0  0  0  0
    0.3943    1.2135    0.0000 C   0  0  0  0  0  0  0  0  0  0  0  0
    1.2760    0.0000    0.0000 S   0  0  0  0  0  0  0  0  0  0  0  0
    0.3943   -1.2135    0.0000 C   0  0  0  0  0  0  0  0  0  0  0  0
    0.8578   -2.6401    0.0000 S   0  0  0  0  0  1  0  0  0  0  0  0
   -1.0323   -0.7500    0.0000 N   0  0  0  0  0  0  0  0  0  0  0  0
   -1.0323    0.7500    0.0000 C   0  0  0  0  0  0  0  0  0  0  0  0
   -2.1470    1.7537    0.0000 S   0  0  0  0  0  0  0  0  0  0  0  0
   -1.8351    3.2209    0.0000 C   0  0  0  0  0  0  0  0  0  0  0  0
   -2.7168    4.4344    0.0000 C   0  0  0  0  0  0  0  0  0  0  0  0
   -4.2168    4.4344    0.0000 O   0  0  0  0  0  0  0  0  0  0  0  0
   -1.8351    5.6480    0.0000 N   0  0  0  0  0  0  0  0  0  0  0  0
   -2.2987    7.0746    0.0000 C   0  0  0  0  0  0  0  0  0  0  0  0
   -1.2950    8.1893    0.0000 C   0  0  0  0  0  0  0  0  0  0  0  0
   -1.7585    9.6159    0.0000 C   0  0  0  0  0  0  0  0  0  0  0  0
   -3.2257    9.9277    0.0000 C   0  0  0  0  0  0  0  0  0  0  0  0
   -3.6892   11.3543    0.0000 N   0  0  0  0  0  4  0  0  0  0  0  0
   -5.1565   11.6662    0.0000 O   0  0  0  0  0  0  0  0  0  0  0  0
   -2.6855   12.4690    0.0000 O   0  0  0  0  0  1  0  0  0  0  0  0
   -4.2294    8.8130    0.0000 C   0  0  0  0  0  0  0  0  0  0  0  0
   -3.7659    7.3864    0.0000 C   0  0  0  0  0  0  0  0  0  0  0  0
  1  2  2  0
  3  2  1  6
  3  4  1  0
  4  5  1  1
  5  6  2  0
  6  7  1  0
  7  8  2  0
  8  9  1  0
  4 10  1  0
 10 11  1  0
 11 12  1  0
 12 13  1  0
 12 14  2  0
 14 15  1  0
 15 16  1  0
 17 16  1  1
 17 18  1  0
 18 19  2  0
 18 20  1  0
 20 21  1  0
 21 22  2  0
 22 23  1  0
 23 24  2  0
 24 25  1  0
 25 26  2  0
 25 27  1  0
 24 28  1  0
 28 29  2  0
 20  2  1  0
 29 21  1  0
 17  3  1  0
  9  5  1  0
 15 10  2  0
M  CHG  3  13  -1  25   1  27  -1
M  END
>  <Compound_ID>  (83) 
C40475562

>  <Active>  (83) 
0

>  <Smiles>  (83) 
O=C1[C@@H]2[C@@H](c3cccs3)c3sc([S-])nc3S[C@H]2C(=O)N1c1ccc([N+](=O)[O-])cc1

>  <canonical_smi>  (83) 
O=C1[C@@H]2[C@@H](c3cccs3)c3sc([S-])nc3S[C@H]2C(=O)N1c1ccc([N+](=O)[O-])cc1

>  <Set>  (83) 
G2 inactive

>  <Set_type>  (83) 
Train

>  <MW>  (83) 
460.56

>  <HBD>  (83) 
0

>  <HBA>  (83) 
7

>  <NRB>  (83) 
3

>  <NR>  (83) 
5

>  <NAR>  (83) 
3

>  <PSA>  (83) 
93.41

>  <Standard Type>  (83) 
nan

>  <Standard Relation>  (83) 
nan

>  <Standard Units>  (83) 
nan

>  <Standard Value>  (83) 
nan

>  <Assay ChEMBL ID>  (83) 
nan

>  <Assay Description>  (83) 
nan

>  <BAO Label>  (83) 
nan

$$$$

     RDKit          2D

 25 28  0  0  0  0  0  0  0  0999 V2000
    3.0000    0.0000    0.0000 C   0  0  0  0  0  0  0  0  0  0  0  0
    1.5000    0.0000    0.0000 C   0  0  0  0  0  0  0  0  0  0  0  0
    0.7500   -1.2990    0.0000 C   0  0  0  0  0  0  0  0  0  0  0  0
   -0.7500   -1.2990    0.0000 C   0  0  0  0  0  0  0  0  0  0  0  0
   -1.5000    0.0000    0.0000 C   0  0  0  0  0  0  0  0  0  0  0  0
   -3.0000    0.0000    0.0000 C   0  0  0  0  0  0  0  0  0  0  0  0
   -3.7500    1.2990    0.0000 N   0  0  0  0  0  0  0  0  0  0  0  0
   -5.2418    1.4558    0.0000 C   0  0  0  0  0  0  0  0  0  0  0  0
   -5.5537    2.9231    0.0000 C   0  0  0  0  0  0  0  0  0  0  0  0
   -6.9240    3.5332    0.0000 N   0  0  0  0  0  0  0  0  0  0  0  0
   -8.2230    2.7832    0.0000 C   0  0  0  0  0  0  0  0  0  0  0  0
   -8.3798    1.2914    0.0000 S   0  0  0  0  0  1  0  0  0  0  0  0
   -9.3377    3.7869    0.0000 N   0  0  0  0  0  0  0  0  0  0  0  0
   -8.7276    5.1572    0.0000 N   0  0  0  0  0  0  0  0  0  0  0  0
   -7.2358    5.0004    0.0000 C   0  0  0  0  0  0  0  0  0  0  0  0
   -6.2321    6.1151    0.0000 C   0  0  0  0  0  0  0  0  0  0  0  0
   -6.5440    7.5823    0.0000 C   0  0  0  0  0  0  0  0  0  0  0  0
   -5.2450    8.3323    0.0000 C   0  0  0  0  0  0  0  0  0  0  0  0
   -5.0882    9.8241    0.0000 C   0  0  0  0  0  0  0  0  0  0  0  0
   -4.1303    7.3286    0.0000 N   0  0  0  0  0  0  0  0  0  0  0  0
   -4.7404    5.9583    0.0000 N   0  0  0  0  0  0  0  0  0  0  0  0
   -4.2546    3.6731    0.0000 C   0  0  0  0  0  0  0  0  0  0  0  0
   -3.1399    2.6694    0.0000 N   0  0  0  0  0  0  0  0  0  0  0  0
   -0.7500    1.2990    0.0000 C   0  0  0  0  0  0  0  0  0  0  0  0
    0.7500    1.2990    0.0000 C   0  0  0  0  0  0  0  0  0  0  0  0
  1  2  1  0
  2  3  2  0
  3  4  1  0
  4  5  2  0
  5  6  1  0
  6  7  1  0
  7  8  1  0
  8  9  2  0
  9 10  1  0
 10 11  1  0
 11 12  1  0
 11 13  2  0
 13 14  1  0
 14 15  2  0
 15 16  1  0
 16 17  1  0
 17 18  2  0
 18 19  1  0
 18 20  1  0
 20 21  1  0
  9 22  1  0
 22 23  2  0
  5 24  1  0
 24 25  2  0
 25  2  1  0
 23  7  1  0
 15 10  1  0
 21 16  2  0
M  CHG  1  12  -1
M  END
>  <Compound_ID>  (84) 
C06413446

>  <Active>  (84) 
0

>  <Smiles>  (84) 
Cc1ccc(Cn2cc(-n3c([S-])nnc3-c3cc(C)[nH]n3)cn2)cc1

>  <canonical_smi>  (84) 
Cc1ccc(Cn2cc(-n3c([S-])nnc3-c3cc(C)[nH]n3)cn2)cc1

>  <Set>  (84) 
G2 inactive

>  <Set_type>  (84) 
Train

>  <MW>  (84) 
350.43

>  <HBD>  (84) 
1

>  <HBA>  (84) 
5

>  <NRB>  (84) 
4

>  <NR>  (84) 
4

>  <NAR>  (84) 
4

>  <PSA>  (84) 
77.21

>  <Standard Type>  (84) 
nan

>  <Standard Relation>  (84) 
nan

>  <Standard Units>  (84) 
nan

>  <Standard Value>  (84) 
nan

>  <Assay ChEMBL ID>  (84) 
nan

>  <Assay Description>  (84) 
nan

>  <BAO Label>  (84) 
nan

$$$$

     RDKit          2D

 29 33  0  0  0  0  0  0  0  0999 V2000
   -1.2990   -5.8573    0.0000 C   0  0  0  0  0  0  0  0  0  0  0  0
   -0.0000   -5.1073    0.0000 C   0  0  0  0  0  0  0  0  0  0  0  0
   -0.0000   -3.6073    0.0000 C   0  0  0  0  0  0  0  0  0  0  0  0
    1.2135   -2.7256    0.0000 C   0  0  0  0  0  0  0  0  0  0  0  0
    2.6401   -3.1891    0.0000 C   0  0  0  0  0  0  0  0  0  0  0  0
    2.9520   -4.6564    0.0000 C   0  0  0  0  0  0  0  0  0  0  0  0
    4.3786   -5.1199    0.0000 C   0  0  0  0  0  0  0  0  0  0  0  0
    5.4933   -4.1162    0.0000 C   0  0  0  0  0  0  0  0  0  0  0  0
    5.1814   -2.6490    0.0000 C   0  0  0  0  0  0  0  0  0  0  0  0
    6.2961   -1.6453    0.0000 Cl  0  0  0  0  0  0  0  0  0  0  0  0
    3.7548   -2.1855    0.0000 C   0  0  0  0  0  0  0  0  0  0  0  0
    0.7500   -1.2990    0.0000 C   0  0  0  0  0  0  0  0  0  0  0  0
    1.5000    0.0000    0.0000 N   0  0  0  0  0  0  0  0  0  0  0  0
    0.7500    1.2990    0.0000 C   0  0  0  0  0  0  0  0  0  0  0  0
   -0.7500    1.2990    0.0000 C   0  0  0  0  0  0  0  0  0  0  0  0
   -1.5000    2.5981    0.0000 C   0  0  0  0  0  0  0  0  0  0  0  0
   -0.7500    3.8971    0.0000 O   0  0  0  0  0  0  0  0  0  0  0  0
   -3.0000    2.5981    0.0000 N   0  0  0  0  0  0  0  0  0  0  0  0
   -3.7500    3.8971    0.0000 C   0  0  0  0  0  0  0  0  0  0  0  0
   -5.2418    4.0539    0.0000 N   0  0  0  0  0  0  0  0  0  0  0  0
   -5.5537    5.5211    0.0000 N   0  0  0  0  0  0  0  0  0  0  0  0
   -4.2546    6.2711    0.0000 C   0  0  0  0  0  0  0  0  0  0  0  0
   -4.0978    7.7629    0.0000 C   0  0  0  0  0  0  0  0  0  0  0  0
   -3.1399    5.2674    0.0000 N   0  0  0  0  0  2  0  0  0  0  0  0
   -3.7500    1.2990    0.0000 C   0  0  0  0  0  0  0  0  0  0  0  0
   -3.0000    0.0000    0.0000 C   0  0  0  0  0  0  0  0  0  0  0  0
   -1.5000    0.0000    0.0000 C   0  0  0  0  0  0  0  0  0  0  0  0
   -0.7500   -1.2990    0.0000 N   0  0  0  0  0  0  0  0  0  0  0  0
   -1.2135   -2.7256    0.0000 N   0  0  0  0  0  0  0  0  0  0  0  0
  1  2  1  0
  2  3  1  0
  3  4  2  0
  4  5  1  0
  5  6  2  0
  6  7  1  0
  7  8  2  0
  8  9  1  0
  9 10  1  0
  9 11  2  0
  4 12  1  0
 12 13  2  0
 13 14  1  0
 14 15  2  0
 15 16  1  0
 16 17  2  0
 16 18  1  0
 18 19  1  0
 19 20  2  0
 20 21  1  0
 21 22  2  0
 22 23  1  0
 22 24  1  0
 18 25  1  0
 25 26  2  0
 26 27  1  0
 27 28  1  1
 28 29  1  0
 29  3  1  0
 11  5  1  0
 28 12  1  0
 27 15  1  0
 24 19  1  0
M  CHG  1  24  -1
M  END
>  <Compound_ID>  (85) 
C63349177

>  <Active>  (85) 
0

>  <Smiles>  (85) 
CCC1=C(c2cccc(Cl)c2)C2=NC=C3C(=O)N(c4nnc(C)[n-]4)C=C[C@@H]3N2N1

>  <canonical_smi>  (85) 
CCC1=C(c2cccc(Cl)c2)C2=NC=C3C(=O)N(c4nnc(C)[n-]4)C=C[C@@H]3N2N1

>  <Set>  (85) 
G2 inactive

>  <Set_type>  (85) 
Train

>  <MW>  (85) 
406.86

>  <HBD>  (85) 
1

>  <HBA>  (85) 
6

>  <NRB>  (85) 
3

>  <NR>  (85) 
5

>  <NAR>  (85) 
2

>  <PSA>  (85) 
87.82

>  <Standard Type>  (85) 
nan

>  <Standard Relation>  (85) 
nan

>  <Standard Units>  (85) 
nan

>  <Standard Value>  (85) 
nan

>  <Assay ChEMBL ID>  (85) 
nan

>  <Assay Description>  (85) 
nan

>  <BAO Label>  (85) 
nan

$$$$

     RDKit          2D

 25 28  0  0  0  0  0  0  0  0999 V2000
    2.2500   -1.2990    0.0000 C   0  0  0  0  0  0  0  0  0  0  0  0
    0.7500   -1.2990    0.0000 C   0  0  0  0  0  0  0  0  0  0  0  0
    1.5000    0.0000    0.0000 C   0  0  0  0  0  0  0  0  0  0  0  0
    0.7500    1.2990    0.0000 C   0  0  0  0  0  0  0  0  0  0  0  0
   -0.7500    1.2990    0.0000 C   0  0  0  0  0  0  0  0  0  0  0  0
   -1.5000    2.5981    0.0000 O   0  0  0  0  0  0  0  0  0  0  0  0
   -1.5000    0.0000    0.0000 C   0  0  0  0  0  0  0  0  0  0  0  0
   -0.7500   -1.2990    0.0000 C   0  0  0  0  0  0  0  0  0  0  0  0
   -1.5000   -2.5981    0.0000 C   0  0  0  0  0  0  0  0  0  0  0  0
   -0.7500   -3.8971    0.0000 C   0  0  0  0  0  0  0  0  0  0  0  0
    0.7500   -3.8971    0.0000 C   0  0  0  0  0  0  0  0  0  0  0  0
    1.5000   -5.1962    0.0000 C   0  0  0  0  0  0  0  0  0  0  0  0
    1.0365   -6.6227    0.0000 C   0  0  0  0  0  0  0  0  0  0  0  0
    2.2500   -7.5044    0.0000 C   0  0  0  0  0  0  0  0  0  0  0  0
    3.4635   -6.6227    0.0000 C   0  0  0  0  0  0  0  0  0  0  0  0
    4.8901   -7.0863    0.0000 N   0  0  0  0  0  0  0  0  0  0  0  0
    5.2020   -8.5535    0.0000 N   0  0  0  0  0  0  0  0  0  0  0  0
    6.6286   -9.0170    0.0000 C   0  0  0  0  0  0  0  0  0  0  0  0
    6.9404  -10.4842    0.0000 N   0  0  0  0  0  0  0  0  0  0  0  0
    7.7433   -8.0133    0.0000 O   0  0  0  0  0  0  0  0  0  0  0  0
    3.0000   -5.1962    0.0000 C   0  0  0  0  0  0  0  0  0  0  0  0
    4.4918   -5.3529    0.0000 C   0  0  0  0  0  0  0  0  0  0  0  0
    3.7500   -3.8971    0.0000 C   0  0  0  0  0  0  0  0  0  0  0  0
    3.0000   -2.5981    0.0000 C   0  0  0  0  0  0  0  0  0  0  0  0
    1.5000   -2.5981    0.0000 C   0  0  0  0  0  0  0  0  0  0  0  0
  2  1  1  1
  2  3  1  0
  3  4  1  0
  4  5  1  0
  5  6  1  1
  5  7  1  0
  8  7  1  1
  8  9  1  0
  9 10  1  0
 11 10  1  1
 11 12  1  0
 12 13  1  6
 13 14  1  0
 14 15  1  0
 15 16  2  0
 16 17  1  0
 17 18  1  0
 18 19  1  0
 18 20  2  0
 15 21  1  0
 21 22  1  1
 21 23  1  0
 23 24  1  0
 25 24  1  1
  8  2  1  0
 25 11  1  0
 25  2  1  0
 21 12  1  0
M  END
>  <Compound_ID>  (86) 
C04027972

>  <Active>  (86) 
0

>  <Smiles>  (86) 
C[C@]12CC[C@H](O)C[C@@H]1CC[C@@H]1[C@H]3CC/C(=N\NC(N)=O)[C@@]3(C)CC[C@@H]12

>  <canonical_smi>  (86) 
C[C@]12CC[C@H](O)C[C@@H]1CC[C@H]1[C@@H]2CC[C@]2(C)/C(=N/NC(N)=O)CC[C@H]12

>  <Set>  (86) 
G2 inactive

>  <Set_type>  (86) 
Train

>  <MW>  (86) 
347.5

>  <HBD>  (86) 
3

>  <HBA>  (86) 
2

>  <NRB>  (86) 
1

>  <NR>  (86) 
4

>  <NAR>  (86) 
0

>  <PSA>  (86) 
87.71

>  <Standard Type>  (86) 
nan

>  <Standard Relation>  (86) 
nan

>  <Standard Units>  (86) 
nan

>  <Standard Value>  (86) 
nan

>  <Assay ChEMBL ID>  (86) 
nan

>  <Assay Description>  (86) 
nan

>  <BAO Label>  (86) 
nan

$$$$

     RDKit          2D

 36 38  0  0  0  0  0  0  0  0999 V2000
    8.1510    6.4656    0.0000 C   0  0  0  0  0  0  0  0  0  0  0  0
    6.7244    6.0021    0.0000 O   0  0  0  0  0  0  0  0  0  0  0  0
    5.6097    7.0058    0.0000 C   0  0  0  0  0  0  0  0  0  0  0  0
    5.9215    8.4730    0.0000 O   0  0  0  0  0  0  0  0  0  0  0  0
    4.1831    6.5422    0.0000 C   0  0  0  0  0  0  0  0  0  0  0  0
    3.0684    7.5459    0.0000 C   0  0  0  0  0  0  0  0  0  0  0  0
    1.6418    7.0824    0.0000 C   0  0  0  0  0  0  0  0  0  0  0  0
    0.5271    8.0861    0.0000 C   0  0  0  0  0  0  0  0  0  0  0  0
    1.3299    5.6152    0.0000 C   0  0  0  0  0  0  0  0  0  0  0  0
   -0.0967    5.1517    0.0000 C   0  0  0  0  0  0  0  0  0  0  0  0
   -0.4086    3.6844    0.0000 C   0  0  0  0  0  0  0  0  0  0  0  0
   -1.8351    3.2209    0.0000 C   0  0  0  0  0  0  0  0  0  0  0  0
   -2.9499    4.2246    0.0000 O   0  0  0  0  0  0  0  0  0  0  0  0
   -2.6380    5.6918    0.0000 C   0  0  0  0  0  0  0  0  0  0  0  0
   -2.1470    1.7537    0.0000 C   0  0  0  0  0  0  0  0  0  0  0  0
   -3.5736    1.2902    0.0000 C   0  0  0  0  0  0  0  0  0  0  0  0
   -1.0323    0.7500    0.0000 C   0  0  0  0  0  0  0  0  0  0  0  0
    0.3943    1.2135    0.0000 C   0  0  0  0  0  0  0  0  0  0  0  0
    0.7062    2.6807    0.0000 C   0  0  0  0  0  0  0  0  0  0  0  0
    2.1328    3.1443    0.0000 O   0  0  0  0  0  0  0  0  0  0  0  0
    3.2475    2.1406    0.0000 C   0  0  0  0  0  0  0  0  0  0  0  0
    2.9356    0.6734    0.0000 O   0  0  0  0  0  0  0  0  0  0  0  0
    4.0503   -0.3303    0.0000 C   0  0  0  0  0  0  0  0  0  0  0  0
    3.7385   -1.7976    0.0000 C   0  0  0  0  0  0  0  0  0  0  0  0
    2.3119   -2.2611    0.0000 O   0  0  0  0  0  0  0  0  0  0  0  0
    4.8532   -2.8013    0.0000 O   0  0  0  0  0  1  0  0  0  0  0  0
    5.4769    0.1332    0.0000 C   0  0  0  0  0  0  0  0  0  0  0  0
    6.5916   -0.8705    0.0000 O   0  0  0  0  0  0  0  0  0  0  0  0
    5.7888    1.6004    0.0000 C   0  0  0  0  0  0  0  0  0  0  0  0
    7.2154    2.0639    0.0000 O   0  0  0  0  0  0  0  0  0  0  0  0
    4.6741    2.6041    0.0000 C   0  0  0  0  0  0  0  0  0  0  0  0
    4.9859    4.0713    0.0000 O   0  0  0  0  0  0  0  0  0  0  0  0
    1.2760    0.0000    0.0000 C   0  0  0  0  0  0  0  0  0  0  0  0
    2.7314   -0.3630    0.0000 O   0  0  0  0  0  0  0  0  0  0  0  0
    0.3943   -1.2135    0.0000 O   0  0  0  0  0  0  0  0  0  0  0  0
   -1.0323   -0.7500    0.0000 C   0  0  0  0  0  0  0  0  0  0  0  0
  1  2  1  0
  2  3  1  0
  3  4  2  0
  3  5  1  0
  5  6  1  0
  6  7  1  0
  7  8  1  0
  7  9  2  0
  9 10  1  0
 10 11  1  0
 11 12  2  0
 12 13  1  0
 13 14  1  0
 12 15  1  0
 15 16  1  0
 15 17  2  0
 17 18  1  0
 18 19  2  0
 19 20  1  0
 21 20  1  6
 21 22  1  0
 22 23  1  0
 23 24  1  1
 24 25  2  0
 24 26  1  0
 23 27  1  0
 27 28  1  6
 27 29  1  0
 29 30  1  1
 29 31  1  0
 31 32  1  1
 18 33  1  0
 33 34  2  0
 33 35  1  0
 35 36  1  0
 19 11  1  0
 31 21  1  0
 36 17  1  0
M  CHG  1  26  -1
M  END
>  <Compound_ID>  (87) 
C22063379

>  <Active>  (87) 
0

>  <Smiles>  (87) 
COC(=O)CC/C(C)=C/Cc1c(OC)c(C)c2c(c1O[C@H]1O[C@H](C(=O)[O-])[C@@H](O)[C@H](O)[C@@H]1O)C(=O)OC2

>  <canonical_smi>  (87) 
COC(=O)CC/C(C)=C/Cc1c(OC)c(C)c2c(c1O[C@H]1O[C@H](C(=O)[O-])[C@@H](O)[C@H](O)[C@@H]1O)C(=O)OC2

>  <Set>  (87) 
G2 inactive

>  <Set_type>  (87) 
Train

>  <MW>  (87) 
509.48

>  <HBD>  (87) 
3

>  <HBA>  (87) 
12

>  <NRB>  (87) 
9

>  <NR>  (87) 
3

>  <NAR>  (87) 
1

>  <PSA>  (87) 
181.11

>  <Standard Type>  (87) 
nan

>  <Standard Relation>  (87) 
nan

>  <Standard Units>  (87) 
nan

>  <Standard Value>  (87) 
nan

>  <Assay ChEMBL ID>  (87) 
nan

>  <Assay Description>  (87) 
nan

>  <BAO Label>  (87) 
nan

$$$$

     RDKit          2D

 29 32  0  0  0  0  0  0  0  0999 V2000
    3.0000    0.0000    0.0000 C   0  0  0  0  0  0  0  0  0  0  0  0
    1.5000    0.0000    0.0000 C   0  0  0  0  0  0  0  0  0  0  0  0
    0.7500   -1.2990    0.0000 C   0  0  0  0  0  0  0  0  0  0  0  0
   -0.7500   -1.2990    0.0000 C   0  0  0  0  0  0  0  0  0  0  0  0
   -1.5000    0.0000    0.0000 C   0  0  0  0  0  0  0  0  0  0  0  0
   -0.7500    1.2990    0.0000 C   0  0  0  0  0  0  0  0  0  0  0  0
    0.7500    1.2990    0.0000 C   0  0  0  0  0  0  0  0  0  0  0  0
    1.5000    2.5981    0.0000 N   0  0  0  0  0  0  0  0  0  0  0  0
    0.7500    3.8971    0.0000 C   0  0  0  0  0  0  0  0  0  0  0  0
   -0.7500    3.8971    0.0000 S   0  0  0  0  0  0  0  0  0  0  0  0
    1.5000    5.1962    0.0000 C   0  0  0  0  0  0  0  0  0  0  0  0
    0.7500    6.4952    0.0000 N   0  0  0  0  0  0  0  0  0  0  0  0
    1.5000    7.7942    0.0000 N   0  0  0  0  0  0  0  0  0  0  0  0
    0.7500    9.0933    0.0000 C   0  0  0  0  0  0  0  0  0  0  0  0
    1.5000   10.3923    0.0000 N   0  0  0  0  0  0  0  0  0  0  0  0
    0.7500   11.6913    0.0000 C   0  0  0  0  0  0  0  0  0  0  0  0
    1.5000   12.9904    0.0000 N   0  0  0  0  0  0  0  0  0  0  0  0
    0.8899   14.3607    0.0000 C   0  0  0  0  0  0  0  0  0  0  0  0
    2.0046   15.3644    0.0000 C   0  0  0  0  0  0  0  0  0  0  0  0
    3.3037   14.6144    0.0000 C   0  0  0  0  0  0  0  0  0  0  0  0
    2.9918   13.1472    0.0000 C   0  0  0  0  0  0  0  0  0  0  0  0
   -0.7500   11.6913    0.0000 N   0  0  0  0  0  0  0  0  0  0  0  0
   -1.5000   10.3923    0.0000 C   0  0  0  0  0  0  0  0  0  0  0  0
   -3.0000   10.3923    0.0000 N   0  0  0  0  0  0  0  0  0  0  0  0
   -3.8817    9.1788    0.0000 C   0  0  0  0  0  0  0  0  0  0  0  0
   -5.3083    9.6423    0.0000 C   0  0  0  0  0  0  0  0  0  0  0  0
   -5.3083   11.1423    0.0000 C   0  0  0  0  0  0  0  0  0  0  0  0
   -3.8817   11.6058    0.0000 C   0  0  0  0  0  0  0  0  0  0  0  0
   -0.7500    9.0933    0.0000 N   0  0  0  0  0  4  0  0  0  0  0  0
  1  2  1  0
  2  3  2  0
  3  4  1  0
  4  5  2  0
  5  6  1  0
  6  7  2  0
  7  8  1  0
  8  9  1  0
  9 10  2  0
  9 11  1  0
 11 12  1  0
 12 13  1  0
 13 14  1  0
 14 15  2  0
 15 16  1  0
 16 17  1  0
 17 18  1  0
 18 19  1  0
 19 20  1  0
 20 21  1  0
 16 22  2  0
 22 23  1  0
 23 24  1  0
 24 25  1  0
 25 26  1  0
 26 27  1  0
 27 28  1  0
 23 29  2  0
  7  2  1  0
 29 14  1  0
 21 17  1  0
 28 24  1  0
M  CHG  1  29   1
M  END
>  <Compound_ID>  (88) 
C27546185

>  <Active>  (88) 
0

>  <Smiles>  (88) 
Cc1ccccc1NC(=S)CNNc1nc(N2CCCC2)nc(N2CCCC2)[nH+]1

>  <canonical_smi>  (88) 
Cc1ccccc1NC(=S)CNNc1nc(N2CCCC2)nc(N2CCCC2)[nH+]1

>  <Set>  (88) 
G2 inactive

>  <Set_type>  (88) 
Train

>  <MW>  (88) 
413.58

>  <HBD>  (88) 
3

>  <HBA>  (88) 
8

>  <NRB>  (88) 
7

>  <NR>  (88) 
4

>  <NAR>  (88) 
2

>  <PSA>  (88) 
82.49

>  <Standard Type>  (88) 
nan

>  <Standard Relation>  (88) 
nan

>  <Standard Units>  (88) 
nan

>  <Standard Value>  (88) 
nan

>  <Assay ChEMBL ID>  (88) 
nan

>  <Assay Description>  (88) 
nan

>  <BAO Label>  (88) 
nan

$$$$

     RDKit          2D

 27 29  0  0  0  0  0  0  0  0999 V2000
    3.0000    0.0000    0.0000 O   0  0  0  0  0  0  0  0  0  0  0  0
    1.5000    0.0000    0.0000 C   0  0  0  0  0  0  0  0  0  0  0  0
    0.7500   -1.2990    0.0000 N   0  0  0  0  0  0  0  0  0  0  0  0
   -0.7500   -1.2990    0.0000 C   0  0  0  0  0  0  0  0  0  0  0  0
   -1.5000   -2.5981    0.0000 O   0  0  0  0  0  0  0  0  0  0  0  0
   -1.5000    0.0000    0.0000 C   0  0  0  0  0  0  0  0  0  0  0  0
   -3.0000    0.0000    0.0000 C   0  0  0  0  0  0  0  0  0  0  0  0
   -3.7500    1.2990    0.0000 N   0  0  0  0  0  0  0  0  0  0  0  0
   -5.2500    1.2990    0.0000 C   0  0  0  0  0  0  0  0  0  0  0  0
   -6.0000    2.5981    0.0000 C   0  0  0  0  0  0  0  0  0  0  0  0
   -7.5000    2.5981    0.0000 C   0  0  0  0  0  0  0  0  0  0  0  0
   -8.2500    3.8971    0.0000 N   0  0  0  0  0  4  0  0  0  0  0  0
   -7.5000    5.1962    0.0000 C   0  0  0  0  0  0  0  0  0  0  0  0
   -8.2500    6.4952    0.0000 C   0  0  0  0  0  0  0  0  0  0  0  0
   -9.7500    6.4952    0.0000 C   0  0  0  0  0  0  0  0  0  0  0  0
  -10.5000    5.1962    0.0000 C   0  0  0  0  0  0  0  0  0  0  0  0
   -9.7500    3.8971    0.0000 C   0  0  0  0  0  0  0  0  0  0  0  0
   -0.7500    1.2990    0.0000 C   0  0  0  0  0  0  0  0  0  0  0  0
   -1.5000    2.5981    0.0000 O   0  0  0  0  0  0  0  0  0  0  0  0
    0.7500    1.2990    0.0000 N   0  0  0  0  0  0  0  0  0  0  0  0
    1.5000    2.5981    0.0000 C   0  0  0  0  0  0  0  0  0  0  0  0
    3.0000    2.5981    0.0000 C   0  0  0  0  0  0  0  0  0  0  0  0
    3.7500    3.8971    0.0000 C   0  0  0  0  0  0  0  0  0  0  0  0
    3.0000    5.1962    0.0000 C   0  0  0  0  0  0  0  0  0  0  0  0
    3.7500    6.4952    0.0000 I   0  0  0  0  0  0  0  0  0  0  0  0
    1.5000    5.1962    0.0000 C   0  0  0  0  0  0  0  0  0  0  0  0
    0.7500    3.8971    0.0000 C   0  0  0  0  0  0  0  0  0  0  0  0
  1  2  2  0
  2  3  1  0
  3  4  2  0
  4  5  1  0
  4  6  1  0
  6  7  1  6
  7  8  2  0
  8  9  1  0
  9 10  1  0
 10 11  1  0
 11 12  1  0
 12 13  1  0
 13 14  1  0
 14 15  1  0
 15 16  1  0
 16 17  1  0
  6 18  1  0
 18 19  2  0
 18 20  1  0
 20 21  1  0
 21 22  2  0
 22 23  1  0
 23 24  2  0
 24 25  1  0
 24 26  1  0
 26 27  2  0
 20  2  1  0
 27 21  1  0
 17 12  1  0
M  CHG  1  12   1
M  END
>  <Compound_ID>  (89) 
C09244275

>  <Active>  (89) 
0

>  <Smiles>  (89) 
O=C1N=C(O)[C@H](/C=N/CCC[NH+]2CCCCC2)C(=O)N1c1ccc(I)cc1

>  <canonical_smi>  (89) 
O=C1N=C(O)[C@H](/C=N/CCC[NH+]2CCCCC2)C(=O)N1c1ccc(I)cc1

>  <Set>  (89) 
G2 inactive

>  <Set_type>  (89) 
Train

>  <MW>  (89) 
483.33

>  <HBD>  (89) 
2

>  <HBA>  (89) 
3

>  <NRB>  (89) 
6

>  <NR>  (89) 
3

>  <NAR>  (89) 
1

>  <PSA>  (89) 
86.77

>  <Standard Type>  (89) 
nan

>  <Standard Relation>  (89) 
nan

>  <Standard Units>  (89) 
nan

>  <Standard Value>  (89) 
nan

>  <Assay ChEMBL ID>  (89) 
nan

>  <Assay Description>  (89) 
nan

>  <BAO Label>  (89) 
nan

$$$$

     RDKit          2D

 25 27  0  0  0  0  0  0  0  0999 V2000
   -4.7368    5.6908    0.0000 C   0  0  0  0  0  0  0  0  0  0  0  0
   -5.0487    4.2236    0.0000 C   0  0  0  0  0  0  0  0  0  0  0  0
   -6.4752    3.7601    0.0000 C   0  0  0  0  0  0  0  0  0  0  0  0
   -6.7871    2.2929    0.0000 S   0  0  0  0  0  0  0  0  0  0  0  0
   -5.3199    1.9810    0.0000 O   0  0  0  0  0  0  0  0  0  0  0  0
   -8.2543    2.6047    0.0000 O   0  0  0  0  0  0  0  0  0  0  0  0
   -7.0990    0.8256    0.0000 N   0  0  0  0  0  0  0  0  0  0  0  0
   -5.9843   -0.1781    0.0000 C   0  0  0  0  0  0  0  0  0  0  0  0
   -4.5577    0.2855    0.0000 C   0  0  0  0  0  0  0  0  0  0  0  0
   -3.4430   -0.7182    0.0000 C   0  0  0  0  0  0  0  0  0  0  0  0
   -3.7548   -2.1855    0.0000 N   0  0  0  0  0  4  0  0  0  0  0  0
   -2.6401   -3.1891    0.0000 C   0  0  0  0  0  0  0  0  0  0  0  0
   -1.2135   -2.7256    0.0000 N   0  0  0  0  0  0  0  0  0  0  0  0
   -0.0000   -3.6073    0.0000 C   0  0  0  0  0  0  0  0  0  0  0  0
    0.0000   -5.1073    0.0000 O   0  0  0  0  0  0  0  0  0  0  0  0
    1.2135   -2.7256    0.0000 O   0  0  0  0  0  0  0  0  0  0  0  0
    0.7500   -1.2990    0.0000 C   0  0  0  0  0  0  0  0  0  0  0  0
    1.5000    0.0000    0.0000 C   0  0  0  0  0  0  0  0  0  0  0  0
    0.7500    1.2990    0.0000 C   0  0  0  0  0  0  0  0  0  0  0  0
    1.5000    2.5981    0.0000 Br  0  0  0  0  0  0  0  0  0  0  0  0
   -0.7500    1.2990    0.0000 C   0  0  0  0  0  0  0  0  0  0  0  0
   -1.5000    0.0000    0.0000 C   0  0  0  0  0  0  0  0  0  0  0  0
   -0.7500   -1.2990    0.0000 C   0  0  0  0  0  0  0  0  0  0  0  0
   -5.1814   -2.6490    0.0000 C   0  0  0  0  0  0  0  0  0  0  0  0
   -6.2961   -1.6453    0.0000 C   0  0  0  0  0  0  0  0  0  0  0  0
  1  2  1  0
  2  3  1  0
  3  4  1  0
  4  5  2  0
  4  6  2  0
  4  7  1  0
  7  8  1  0
  8  9  1  0
  9 10  1  0
 10 11  1  0
 11 12  1  0
 12 13  1  0
 13 14  1  0
 14 15  2  0
 14 16  1  0
 16 17  1  0
 17 18  2  0
 18 19  1  0
 19 20  1  0
 19 21  2  0
 21 22  1  0
 22 23  2  0
 11 24  1  0
 24 25  1  0
 25  8  1  0
 23 13  1  0
 23 17  1  0
M  CHG  1  11   1
M  END
>  <Compound_ID>  (90) 
C48289157

>  <Active>  (90) 
0

>  <Smiles>  (90) 
CCCS(=O)(=O)NC1CC[NH+](Cn2c(=O)oc3cc(Br)ccc32)CC1

>  <canonical_smi>  (90) 
CCCS(=O)(=O)NC1CC[NH+](Cn2c(=O)oc3cc(Br)ccc32)CC1

>  <Set>  (90) 
G2 inactive

>  <Set_type>  (90) 
Train

>  <MW>  (90) 
433.35

>  <HBD>  (90) 
2

>  <HBA>  (90) 
4

>  <NRB>  (90) 
6

>  <NR>  (90) 
3

>  <NAR>  (90) 
2

>  <PSA>  (90) 
85.75

>  <Standard Type>  (90) 
nan

>  <Standard Relation>  (90) 
nan

>  <Standard Units>  (90) 
nan

>  <Standard Value>  (90) 
nan

>  <Assay ChEMBL ID>  (90) 
nan

>  <Assay Description>  (90) 
nan

>  <BAO Label>  (90) 
nan

$$$$

     RDKit          2D

 27 30  0  0  0  0  0  0  0  0999 V2000
    4.2558    4.6904    0.0000 O   0  0  0  0  0  0  0  0  0  0  0  0
    3.2521    5.8051    0.0000 C   0  0  0  0  0  0  0  0  0  0  0  0
    3.7156    7.2317    0.0000 C   0  0  0  0  0  0  0  0  0  0  0  0
    5.1828    7.5436    0.0000 N   0  0  0  0  0  4  0  0  0  0  0  0
    6.2976    6.5399    0.0000 C   0  0  0  0  0  0  0  0  0  0  0  0
    7.5966    7.2899    0.0000 C   0  0  0  0  0  0  0  0  0  0  0  0
    7.2847    8.7571    0.0000 C   0  0  0  0  0  0  0  0  0  0  0  0
    5.7929    8.9139    0.0000 C   0  0  0  0  0  0  0  0  0  0  0  0
    5.0429   10.2130    0.0000 C   0  0  0  0  0  0  0  0  0  0  0  0
    3.5429   10.2130    0.0000 O   0  0  0  0  0  0  0  0  0  0  0  0
    5.7929   11.5120    0.0000 N   0  0  0  0  0  0  0  0  0  0  0  0
    5.0429   12.8110    0.0000 C   0  0  0  0  0  0  0  0  0  0  0  0
    5.7929   14.1101    0.0000 C   0  0  0  0  0  0  0  0  0  0  0  0
    7.2929   14.1101    0.0000 S   0  0  0  0  0  0  0  0  0  0  0  0
    8.0429   12.8110    0.0000 C   0  0  0  0  0  0  0  0  0  0  0  0
    7.2929   11.5120    0.0000 C   0  0  0  0  0  0  0  0  0  0  0  0
    1.7849    5.4933    0.0000 N   0  0  0  0  0  0  0  0  0  0  0  0
    1.3213    4.0667    0.0000 C   0  0  0  0  0  0  0  0  0  0  0  0
   -0.1459    3.7548    0.0000 C   0  0  0  0  0  0  0  0  0  0  0  0
   -0.6094    2.3282    0.0000 C   0  0  0  0  0  0  0  0  0  0  0  0
    0.3943    1.2135    0.0000 C   0  0  0  0  0  0  0  0  0  0  0  0
    1.8615    1.5254    0.0000 C   0  0  0  0  0  0  0  0  0  0  0  0
    2.3250    2.9520    0.0000 C   0  0  0  0  0  0  0  0  0  0  0  0
    1.2760    0.0000    0.0000 O   0  0  0  0  0  0  0  0  0  0  0  0
    0.3943   -1.2135    0.0000 C   0  0  0  0  0  0  0  0  0  0  0  0
   -1.0323   -0.7500    0.0000 C   0  0  0  0  0  0  0  0  0  0  0  0
   -1.0323    0.7500    0.0000 O   0  0  0  0  0  0  0  0  0  0  0  0
  1  2  2  0
  2  3  1  0
  3  4  1  0
  4  5  1  0
  5  6  1  0
  6  7  1  0
  7  8  1  0
  8  9  1  1
  9 10  2  0
  9 11  1  0
 11 12  1  0
 12 13  1  0
 13 14  1  0
 14 15  1  0
 15 16  1  0
  2 17  1  0
 17 18  1  0
 18 19  1  0
 19 20  1  0
 20 21  1  0
 21 22  1  0
 22 23  1  0
 21 24  1  0
 24 25  1  0
 25 26  1  0
 26 27  1  0
  8  4  1  0
 16 11  1  0
 23 18  1  0
 27 21  1  0
M  CHG  1   4   1
M  END
>  <Compound_ID>  (91) 
C67117619

>  <Active>  (91) 
0

>  <Smiles>  (91) 
O=C(C[NH+]1CCC[C@@H]1C(=O)N1CCSCC1)NC1CCC2(CC1)OCCO2

>  <canonical_smi>  (91) 
O=C(C[NH+]1CCC[C@@H]1C(=O)N1CCSCC1)NC1CCC2(CC1)OCCO2

>  <Set>  (91) 
G2 inactive

>  <Set_type>  (91) 
Train

>  <MW>  (91) 
398.55

>  <HBD>  (91) 
2

>  <HBA>  (91) 
5

>  <NRB>  (91) 
4

>  <NR>  (91) 
4

>  <NAR>  (91) 
0

>  <PSA>  (91) 
72.31

>  <Standard Type>  (91) 
nan

>  <Standard Relation>  (91) 
nan

>  <Standard Units>  (91) 
nan

>  <Standard Value>  (91) 
nan

>  <Assay ChEMBL ID>  (91) 
nan

>  <Assay Description>  (91) 
nan

>  <BAO Label>  (91) 
nan

$$$$

     RDKit          2D

 30 35  0  0  0  0  0  0  0  0999 V2000
    6.9240   -8.7293    0.0000 C   0  0  0  0  0  0  0  0  0  0  0  0
    5.5537   -8.1192    0.0000 C   0  0  0  0  0  0  0  0  0  0  0  0
    5.2418   -6.6520    0.0000 N   0  0  0  0  0  0  0  0  0  0  0  0
    3.7500   -6.4952    0.0000 N   0  0  0  0  0  0  0  0  0  0  0  0
    3.0000   -5.1962    0.0000 C   0  0  0  0  0  0  0  0  0  0  0  0
    3.7500   -3.8971    0.0000 C   0  0  0  0  0  0  0  0  0  0  0  0
    3.0000   -2.5981    0.0000 C   0  0  0  0  0  0  0  0  0  0  0  0
    1.5000   -2.5981    0.0000 C   0  0  0  0  0  0  0  0  0  0  0  0
    0.7500   -1.2990    0.0000 C   0  0  0  0  0  0  0  0  0  0  0  0
    1.5000    0.0000    0.0000 C   0  0  0  0  0  0  0  0  0  0  0  0
    0.7500    1.2990    0.0000 C   0  0  0  0  0  0  0  0  0  0  0  0
   -0.7500    1.2990    0.0000 C   0  0  0  0  0  0  0  0  0  0  0  0
   -1.5000    0.0000    0.0000 C   0  0  0  0  0  0  0  0  0  0  0  0
    1.7010   -0.7500    0.0000 C   0  0  0  0  0  0  0  0  0  0  0  0
    3.0000   -0.0000    0.0000 C   0  0  0  0  0  0  0  0  0  0  0  0
    2.2500    1.2990    0.0000 C   0  0  0  0  0  0  0  0  0  0  0  0
    2.2500   -1.2990    0.0000 C   0  0  0  0  0  0  0  0  0  0  0  0
   -0.7500   -1.2990    0.0000 C   0  0  0  0  0  0  0  0  0  0  0  0
    0.7500   -3.8971    0.0000 C   0  0  0  0  0  0  0  0  0  0  0  0
    1.5000   -5.1962    0.0000 C   0  0  0  0  0  0  0  0  0  0  0  0
    3.1399   -7.8655    0.0000 C   0  0  0  0  0  0  0  0  0  0  0  0
    1.6727   -8.1774    0.0000 O   0  0  0  0  0  0  0  0  0  0  0  0
    4.2546   -8.8692    0.0000 C   0  0  0  0  0  0  0  0  0  0  0  0
    4.0978  -10.3610    0.0000 C   0  0  0  0  0  0  0  0  0  0  0  0
    5.3113  -11.2427    0.0000 N   0  0  0  0  0  0  0  0  0  0  0  0
    5.1546  -12.7344    0.0000 N   0  0  0  0  0  0  0  0  0  0  0  0
    6.2693  -13.7381    0.0000 C   0  0  0  0  0  0  0  0  0  0  0  0
    5.6592  -15.1085    0.0000 N   0  0  0  0  0  0  0  0  0  0  0  0
    4.1674  -14.9517    0.0000 N   0  0  0  0  0  0  0  0  0  0  0  0
    3.8555  -13.4844    0.0000 C   0  0  0  0  0  0  0  0  0  0  0  0
  1  2  1  0
  2  3  2  0
  3  4  1  0
  4  5  1  0
  5  6  2  0
  6  7  1  0
  7  8  2  0
  8  9  1  0
  9 10  1  0
 10 11  1  0
 11 12  1  0
 12 13  1  0
 13 14  1  0
 14 15  1  0
 15 16  1  0
 15 17  1  0
 13 18  1  0
  8 19  1  0
 19 20  2  0
  4 21  1  0
 21 22  2  0
 21 23  1  0
 23 24  2  0
 24 25  1  0
 25 26  1  0
 26 27  1  0
 27 28  2  0
 28 29  1  0
 29 30  2  0
 23  2  1  0
 30 26  1  0
 20  5  1  0
 17  9  1  0
 18  9  1  0
 16 11  1  0
M  END
>  <Compound_ID>  (92) 
C17193974

>  <Active>  (92) 
0

>  <Smiles>  (92) 
CC1=NN(c2ccc(C34CC5CC(CC(C5)C3)C4)cc2)C(=O)/C1=C/Nn1cnnc1

>  <canonical_smi>  (92) 
CC1=NN(c2ccc(C34CC5CC(CC(C5)C3)C4)cc2)C(=O)/C1=C/Nn1cnnc1

>  <Set>  (92) 
G2 inactive

>  <Set_type>  (92) 
Train

>  <MW>  (92) 
402.5

>  <HBD>  (92) 
1

>  <HBA>  (92) 
4

>  <NRB>  (92) 
4

>  <NR>  (92) 
7

>  <NAR>  (92) 
2

>  <PSA>  (92) 
75.41

>  <Standard Type>  (92) 
nan

>  <Standard Relation>  (92) 
nan

>  <Standard Units>  (92) 
nan

>  <Standard Value>  (92) 
nan

>  <Assay ChEMBL ID>  (92) 
nan

>  <Assay Description>  (92) 
nan

>  <BAO Label>  (92) 
nan

$$$$

     RDKit          2D

 26 28  0  0  0  0  0  0  0  0999 V2000
    3.0000    0.0000    0.0000 C   0  0  0  0  0  0  0  0  0  0  0  0
    1.5000    0.0000    0.0000 C   0  0  0  0  0  0  0  0  0  0  0  0
    0.7500   -1.2990    0.0000 C   0  0  0  0  0  0  0  0  0  0  0  0
   -0.7500   -1.2990    0.0000 N   0  0  0  0  0  0  0  0  0  0  0  0
   -1.5000   -2.5981    0.0000 C   0  0  0  0  0  0  0  0  0  0  0  0
   -3.0000   -2.5981    0.0000 C   0  0  0  0  0  0  0  0  0  0  0  0
   -3.8817   -3.8116    0.0000 C   0  0  0  0  0  0  0  0  0  0  0  0
   -5.3083   -3.3481    0.0000 S   0  0  0  0  0  0  0  0  0  0  0  0
   -5.3083   -1.8481    0.0000 C   0  0  0  0  0  0  0  0  0  0  0  0
   -6.5218   -0.9664    0.0000 N   0  0  0  0  0  0  0  0  0  0  0  0
   -7.8921   -1.5765    0.0000 S   0  0  0  0  0  0  0  0  0  0  0  0
   -7.2820   -2.9468    0.0000 O   0  0  0  0  0  0  0  0  0  0  0  0
   -8.5022   -0.2062    0.0000 O   0  0  0  0  0  0  0  0  0  0  0  0
   -9.2624   -2.1866    0.0000 C   0  0  0  0  0  0  0  0  0  0  0  0
  -10.4760   -1.3049    0.0000 C   0  0  0  0  0  0  0  0  0  0  0  0
  -11.8463   -1.9150    0.0000 C   0  0  0  0  0  0  0  0  0  0  0  0
  -12.0031   -3.4068    0.0000 C   0  0  0  0  0  0  0  0  0  0  0  0
  -10.7895   -4.2885    0.0000 C   0  0  0  0  0  0  0  0  0  0  0  0
   -9.4192   -3.6784    0.0000 C   0  0  0  0  0  0  0  0  0  0  0  0
   -8.2057   -4.5601    0.0000 C   0  0  0  0  0  0  0  0  0  0  0  0
   -6.9922   -5.4417    0.0000 N   0  0  0  0  0  0  0  0  0  0  0  0
   -3.8817   -1.3846    0.0000 N   0  0  0  0  0  0  0  0  0  0  0  0
   -1.5000    0.0000    0.0000 C   0  0  0  0  0  0  0  0  0  0  0  0
   -0.7500    1.2990    0.0000 C   0  0  0  0  0  0  0  0  0  0  0  0
   -1.5000    2.5981    0.0000 C   0  0  0  0  0  0  0  0  0  0  0  0
    0.7500    1.2990    0.0000 O   0  0  0  0  0  0  0  0  0  0  0  0
  2  1  1  1
  2  3  1  0
  3  4  1  0
  4  5  1  0
  5  6  1  0
  6  7  2  0
  7  8  1  0
  8  9  1  0
  9 10  2  0
 10 11  1  0
 11 12  2  0
 11 13  2  0
 11 14  1  0
 14 15  2  0
 15 16  1  0
 16 17  2  0
 17 18  1  0
 18 19  2  0
 19 20  1  0
 20 21  3  0
  9 22  1  0
  4 23  1  0
 23 24  1  0
 24 25  1  6
 24 26  1  0
 26  2  1  0
 22  6  1  0
 19 14  1  0
M  END
>  <Compound_ID>  (93) 
C66250748

>  <Active>  (93) 
0

>  <Smiles>  (93) 
C[C@H]1CN(Cc2cs/c(=N\S(=O)(=O)c3ccccc3C#N)[nH]2)C[C@H](C)O1

>  <canonical_smi>  (93) 
C[C@H]1CN(Cc2cs/c(=N\S(=O)(=O)c3ccccc3C#N)[nH]2)C[C@H](C)O1

>  <Set>  (93) 
G2 inactive

>  <Set_type>  (93) 
Train

>  <MW>  (93) 
392.51

>  <HBD>  (93) 
1

>  <HBA>  (93) 
5

>  <NRB>  (93) 
4

>  <NR>  (93) 
3

>  <NAR>  (93) 
2

>  <PSA>  (93) 
98.55

>  <Standard Type>  (93) 
nan

>  <Standard Relation>  (93) 
nan

>  <Standard Units>  (93) 
nan

>  <Standard Value>  (93) 
nan

>  <Assay ChEMBL ID>  (93) 
nan

>  <Assay Description>  (93) 
nan

>  <BAO Label>  (93) 
nan

$$$$

     RDKit          2D

 29 32  0  0  0  0  0  0  0  0999 V2000
    6.0961    5.6301    0.0000 C   0  0  0  0  0  0  0  0  0  0  0  0
    5.4656    4.2691    0.0000 C   0  0  0  0  0  0  0  0  0  0  0  0
    3.9716    4.1346    0.0000 O   0  0  0  0  0  0  0  0  0  0  0  0
    3.3411    2.7736    0.0000 C   0  0  0  0  0  0  0  0  0  0  0  0
    4.2045    1.5470    0.0000 O   0  0  0  0  0  0  0  0  0  0  0  0
    1.8471    2.6391    0.0000 C   0  0  0  0  0  0  0  0  0  0  0  0
    1.0777    1.3515    0.0000 C   0  0  0  0  0  0  0  0  0  0  0  0
    1.7286    0.0000    0.0000 C   0  0  0  0  0  0  0  0  0  0  0  0
    1.0777   -1.3515    0.0000 C   0  0  0  0  0  0  0  0  0  0  0  0
   -0.3846   -1.6852    0.0000 C   0  0  0  0  0  0  0  0  0  0  0  0
   -1.5574   -0.7500    0.0000 C   0  0  0  0  0  0  0  0  0  0  0  0
   -1.5574    0.7500    0.0000 C   0  0  0  0  0  0  0  0  0  0  0  0
   -0.3846    1.6852    0.0000 C   0  0  0  0  0  0  0  0  0  0  0  0
   -0.5191    3.1792    0.0000 S   0  0  0  0  0  0  0  0  0  0  0  0
    0.8602    3.7687    0.0000 C   0  0  0  0  0  0  0  0  0  0  0  0
    1.1940    5.2311    0.0000 N   0  0  0  0  0  0  0  0  0  0  0  0
    0.0944    6.2514    0.0000 C   0  0  0  0  0  0  0  0  0  0  0  0
   -1.3390    5.8093    0.0000 O   0  0  0  0  0  0  0  0  0  0  0  0
    0.4282    7.7138    0.0000 C   0  0  0  0  0  0  0  0  0  0  0  0
   -0.6714    8.7340    0.0000 S   0  0  0  0  0  0  0  0  0  0  0  0
   -0.3376   10.1964    0.0000 C   0  0  0  0  0  0  0  0  0  0  0  0
    1.0957   10.6386    0.0000 N   0  0  0  0  0  0  0  0  0  0  0  0
    1.4295   12.1010    0.0000 C   0  0  0  0  0  0  0  0  0  0  0  0
    0.3299   13.1212    0.0000 N   0  0  0  0  0  0  0  0  0  0  0  0
   -1.1034   12.6791    0.0000 C   0  0  0  0  0  0  0  0  0  0  0  0
   -2.3911   13.4484    0.0000 N   0  0  0  0  0  0  0  0  0  0  0  0
   -3.5207   12.4615    0.0000 C   0  0  0  0  0  0  0  0  0  0  0  0
   -2.9312   11.0822    0.0000 N   0  0  0  0  0  0  0  0  0  0  0  0
   -1.4372   11.2167    0.0000 C   0  0  0  0  0  0  0  0  0  0  0  0
  1  2  1  0
  2  3  1  0
  3  4  1  0
  4  5  2  0
  4  6  1  0
  6  7  2  0
  7  8  1  0
  8  9  1  0
  9 10  1  0
 10 11  1  0
 11 12  1  0
 13 12  1  6
 13 14  1  0
 14 15  1  0
 15 16  1  6
 16 17  1  0
 17 18  2  0
 17 19  1  0
 19 20  1  0
 20 21  1  0
 21 22  2  0
 22 23  1  0
 23 24  2  0
 24 25  1  0
 25 26  2  0
 26 27  1  0
 27 28  2  0
 29 28  1  1
 15  6  1  0
 29 21  1  0
 13  7  1  0
 29 25  1  0
M  END
>  <Compound_ID>  (94) 
C64688263

>  <Active>  (94) 
0

>  <Smiles>  (94) 
CCOC(=O)C1=C2CCCCC[C@@H]2S[C@@H]1NC(=O)CSC1=NC=NC2=NC=N[C@@H]21

>  <canonical_smi>  (94) 
CCOC(=O)C1=C2CCCCC[C@@H]2S[C@@H]1NC(=O)CSC1=NC=NC2=NC=N[C@@H]21

>  <Set>  (94) 
G2 inactive

>  <Set_type>  (94) 
Train

>  <MW>  (94) 
433.56

>  <HBD>  (94) 
1

>  <HBA>  (94) 
5

>  <NRB>  (94) 
5

>  <NR>  (94) 
4

>  <NAR>  (94) 
0

>  <PSA>  (94) 
104.84

>  <Standard Type>  (94) 
nan

>  <Standard Relation>  (94) 
nan

>  <Standard Units>  (94) 
nan

>  <Standard Value>  (94) 
nan

>  <Assay ChEMBL ID>  (94) 
nan

>  <Assay Description>  (94) 
nan

>  <BAO Label>  (94) 
nan

$$$$

     RDKit          2D

 30 32  0  0  0  0  0  0  0  0999 V2000
    3.0000   -5.1962    0.0000 O   0  0  0  0  0  0  0  0  0  0  0  0
    1.5000   -5.1962    0.0000 C   0  0  0  0  0  0  0  0  0  0  0  0
    0.7500   -3.8971    0.0000 C   0  0  0  0  0  0  0  0  0  0  0  0
    1.5000   -2.5981    0.0000 O   0  0  0  0  0  0  0  0  0  0  0  0
    0.7500   -1.2990    0.0000 C   0  0  0  0  0  0  0  0  0  0  0  0
    1.5000    0.0000    0.0000 C   0  0  0  0  0  0  0  0  0  0  0  0
    0.7500    1.2990    0.0000 C   0  0  0  0  0  0  0  0  0  0  0  0
   -0.7500    1.2990    0.0000 C   0  0  0  0  0  0  0  0  0  0  0  0
   -1.5000    2.5981    0.0000 C   0  0  0  0  0  0  0  0  0  0  0  0
   -0.7500    3.8971    0.0000 N   0  0  0  0  0  0  0  0  0  0  0  0
   -1.5000    5.1962    0.0000 N   0  0  0  0  0  0  0  0  0  0  0  0
   -0.7500    6.4952    0.0000 C   0  0  0  0  0  0  0  0  0  0  0  0
    0.7500    6.4952    0.0000 O   0  0  0  0  0  0  0  0  0  0  0  0
   -1.5000    7.7942    0.0000 C   0  0  0  0  0  0  0  0  0  0  0  0
   -3.0000    7.7942    0.0000 O   0  0  0  0  0  0  0  0  0  0  0  0
   -0.7500    9.0933    0.0000 N   0  0  0  0  0  0  0  0  0  0  0  0
    0.7500    9.0933    0.0000 C   0  0  0  0  0  0  0  0  0  0  0  0
    1.5000   10.3923    0.0000 C   0  0  0  0  0  0  0  0  0  0  0  0
    0.7500   11.6913    0.0000 C   0  0  0  0  0  0  0  0  0  0  0  0
   -0.7500   11.6913    0.0000 C   0  0  0  0  0  0  0  0  0  0  0  0
   -1.5000   10.3923    0.0000 C   0  0  0  0  0  0  0  0  0  0  0  0
   -1.5000    0.0000    0.0000 C   0  0  0  0  0  0  0  0  0  0  0  0
   -0.7500   -1.2990    0.0000 C   0  0  0  0  0  0  0  0  0  0  0  0
    0.7500   -6.4952    0.0000 N   0  0  0  0  0  0  0  0  0  0  0  0
    1.5000   -7.7942    0.0000 C   0  0  0  0  0  0  0  0  0  0  0  0
    0.7500   -9.0933    0.0000 C   0  0  0  0  0  0  0  0  0  0  0  0
    1.3601  -10.4636    0.0000 C   0  0  0  0  0  0  0  0  0  0  0  0
    0.2454  -11.4673    0.0000 C   0  0  0  0  0  0  0  0  0  0  0  0
   -1.0537  -10.7173    0.0000 C   0  0  0  0  0  0  0  0  0  0  0  0
   -0.7418   -9.2501    0.0000 O   0  0  0  0  0  0  0  0  0  0  0  0
  1  2  2  0
  2  3  1  0
  3  4  1  0
  4  5  1  0
  5  6  2  0
  6  7  1  0
  7  8  2  0
  8  9  1  0
  9 10  2  0
 10 11  1  0
 11 12  1  0
 12 13  2  0
 12 14  1  0
 14 15  2  0
 14 16  1  0
 16 17  1  0
 17 18  1  0
 18 19  1  0
 19 20  1  0
 20 21  1  0
  8 22  1  0
 22 23  2  0
  2 24  1  0
 24 25  1  0
 25 26  1  0
 26 27  2  0
 27 28  1  0
 28 29  2  0
 29 30  1  0
 23  5  1  0
 30 26  1  0
 21 16  1  0
M  END
>  <Compound_ID>  (95) 
C58880658

>  <Active>  (95) 
0

>  <Smiles>  (95) 
O=C(COc1ccc(/C=N/NC(=O)C(=O)N2CCCCC2)cc1)NCc1ccco1

>  <canonical_smi>  (95) 
O=C(COc1ccc(/C=N/NC(=O)C(=O)N2CCCCC2)cc1)NCc1ccco1

>  <Set>  (95) 
G2 inactive

>  <Set_type>  (95) 
Train

>  <MW>  (95) 
412.45

>  <HBD>  (95) 
2

>  <HBA>  (95) 
5

>  <NRB>  (95) 
7

>  <NR>  (95) 
3

>  <NAR>  (95) 
2

>  <PSA>  (95) 
113.24

>  <Standard Type>  (95) 
nan

>  <Standard Relation>  (95) 
nan

>  <Standard Units>  (95) 
nan

>  <Standard Value>  (95) 
nan

>  <Assay ChEMBL ID>  (95) 
nan

>  <Assay Description>  (95) 
nan

>  <BAO Label>  (95) 
nan

$$$$

     RDKit          2D

 25 27  0  0  0  0  0  0  0  0999 V2000
    3.7500    1.2990    0.0000 O   0  0  0  0  0  0  0  0  0  0  0  0
    3.0000    0.0000    0.0000 N   0  0  0  0  0  4  0  0  0  0  0  0
    3.7500   -1.2990    0.0000 O   0  0  0  0  0  1  0  0  0  0  0  0
    1.5000    0.0000    0.0000 C   0  0  0  0  0  0  0  0  0  0  0  0
    0.7500   -1.2990    0.0000 C   0  0  0  0  0  0  0  0  0  0  0  0
   -0.7500   -1.2990    0.0000 C   0  0  0  0  0  0  0  0  0  0  0  0
   -1.5000   -2.5981    0.0000 Br  0  0  0  0  0  0  0  0  0  0  0  0
   -1.5000    0.0000    0.0000 C   0  0  0  0  0  0  0  0  0  0  0  0
   -0.7500    1.2990    0.0000 C   0  0  0  0  0  0  0  0  0  0  0  0
   -1.5000    2.5981    0.0000 C   0  0  0  0  0  0  0  0  0  0  0  0
   -0.7500    3.8971    0.0000 N   0  0  0  0  0  0  0  0  0  0  0  0
   -1.5000    5.1962    0.0000 C   0  0  0  0  0  0  0  0  0  0  0  0
   -0.7500    6.4952    0.0000 C   0  0  0  0  0  0  0  0  0  0  0  0
   -1.5000    7.7942    0.0000 C   0  0  0  0  0  0  0  0  0  0  0  0
   -3.0000    7.7942    0.0000 C   0  0  0  0  0  0  0  0  0  0  0  0
   -3.7500    6.4952    0.0000 C   0  0  0  0  0  0  0  0  0  0  0  0
   -3.0000    5.1962    0.0000 C   0  0  0  0  0  0  0  0  0  0  0  0
   -3.7500    3.8971    0.0000 N   0  0  0  0  0  0  0  0  0  0  0  0
   -5.2500    3.8971    0.0000 C   0  0  0  0  0  0  0  0  0  0  0  0
   -6.0000    2.5981    0.0000 C   0  0  0  0  0  0  0  0  0  0  0  0
   -5.2500    1.2990    0.0000 C   0  0  0  0  0  0  0  0  0  0  0  0
   -3.7500    1.2990    0.0000 C   0  0  0  0  0  0  0  0  0  0  0  0
   -3.0000    2.5981    0.0000 C   0  0  0  0  0  0  0  0  0  0  0  0
    0.7500    1.2990    0.0000 C   0  0  0  0  0  0  0  0  0  0  0  0
    1.5000    2.5981    0.0000 O   0  0  0  0  0  1  0  0  0  0  0  0
  1  2  2  0
  2  3  1  0
  2  4  1  0
  4  5  2  0
  5  6  1  0
  6  7  1  0
  6  8  2  0
  8  9  1  0
  9 10  1  0
 10 11  2  0
 11 12  1  0
 12 13  2  0
 13 14  1  0
 14 15  2  0
 15 16  1  0
 16 17  2  0
 17 18  1  0
 18 19  1  0
 19 20  1  0
 20 21  1  0
 21 22  1  0
 22 23  1  0
  9 24  2  0
 24 25  1  0
 24  4  1  0
 17 12  1  0
 23 18  1  0
M  CHG  3   2   1   3  -1  25  -1
M  END
>  <Compound_ID>  (96) 
C06615556

>  <Active>  (96) 
0

>  <Smiles>  (96) 
O=[N+]([O-])c1cc(Br)cc(/C=N/c2ccccc2N2CCCCC2)c1[O-]

>  <canonical_smi>  (96) 
O=[N+]([O-])c1cc(Br)cc(/C=N/c2ccccc2N2CCCCC2)c1[O-]

>  <Set>  (96) 
G2 inactive

>  <Set_type>  (96) 
Train

>  <MW>  (96) 
403.26

>  <HBD>  (96) 
0

>  <HBA>  (96) 
4

>  <NRB>  (96) 
4

>  <NR>  (96) 
3

>  <NAR>  (96) 
2

>  <PSA>  (96) 
81.8

>  <Standard Type>  (96) 
nan

>  <Standard Relation>  (96) 
nan

>  <Standard Units>  (96) 
nan

>  <Standard Value>  (96) 
nan

>  <Assay ChEMBL ID>  (96) 
nan

>  <Assay Description>  (96) 
nan

>  <BAO Label>  (96) 
nan

$$$$

     RDKit          2D

 26 29  0  0  0  0  0  0  0  0999 V2000
   -0.7680    8.9944    0.0000 O   0  0  0  0  0  0  0  0  0  0  0  0
   -1.8827    9.9981    0.0000 S   0  0  0  0  0  0  0  0  0  0  0  0
   -2.9974   11.0018    0.0000 O   0  0  0  0  0  0  0  0  0  0  0  0
   -2.8864    8.8834    0.0000 N   0  0  0  0  0  2  0  0  0  0  0  0
   -2.4229    7.4568    0.0000 C   0  0  0  0  0  0  0  0  0  0  0  0
   -3.4266    6.3421    0.0000 C   0  0  0  0  0  0  0  0  0  0  0  0
   -2.9630    4.9155    0.0000 C   0  0  0  0  0  0  0  0  0  0  0  0
   -1.4958    4.6036    0.0000 C   0  0  0  0  0  0  0  0  0  0  0  0
   -1.0323    3.1771    0.0000 C   0  0  0  0  0  0  0  0  0  0  0  0
   -1.9140    1.9635    0.0000 C   0  0  0  0  0  0  0  0  0  0  0  0
   -1.0323    0.7500    0.0000 N   0  0  0  0  0  0  0  0  0  0  0  0
    0.3943    1.2135    0.0000 C   0  0  0  0  0  0  0  0  0  0  0  0
    0.3943    2.7135    0.0000 N   0  0  0  0  0  0  0  0  0  0  0  0
    1.2760    0.0000    0.0000 S   0  0  0  0  0  0  0  0  0  0  0  0
    0.3943   -1.2135    0.0000 C   0  0  0  0  0  0  0  0  0  0  0  0
   -1.0323   -0.7500    0.0000 C   0  0  0  0  0  0  0  0  0  0  0  0
   -0.4921    5.7184    0.0000 C   0  0  0  0  0  0  0  0  0  0  0  0
   -0.9556    7.1449    0.0000 C   0  0  0  0  0  0  0  0  0  0  0  0
   -0.8790   11.1128    0.0000 C   0  0  0  0  0  0  0  0  0  0  0  0
    0.5882   10.8010    0.0000 C   0  0  0  0  0  0  0  0  0  0  0  0
    1.5919   11.9157    0.0000 C   0  0  0  0  0  0  0  0  0  0  0  0
    1.1284   13.3423    0.0000 C   0  0  0  0  0  0  0  0  0  0  0  0
   -0.3388   13.6541    0.0000 C   0  0  0  0  0  0  0  0  0  0  0  0
   -0.8024   15.0807    0.0000 Cl  0  0  0  0  0  0  0  0  0  0  0  0
   -1.3425   12.5394    0.0000 C   0  0  0  0  0  0  0  0  0  0  0  0
   -2.8097   12.8513    0.0000 Cl  0  0  0  0  0  0  0  0  0  0  0  0
  1  2  2  0
  2  3  2  0
  2  4  1  0
  4  5  1  0
  5  6  2  0
  6  7  1  0
  7  8  2  0
  8  9  1  0
  9 10  2  0
 10 11  1  0
 11 12  1  0
 12 13  2  0
 12 14  1  0
 14 15  1  0
 15 16  1  0
  8 17  1  0
 17 18  2  0
  2 19  1  0
 19 20  2  0
 20 21  1  0
 21 22  2  0
 22 23  1  0
 23 24  1  0
 23 25  2  0
 25 26  1  0
 18  5  1  0
 25 19  1  0
 13  9  1  0
 16 11  1  0
M  CHG  1   4  -1
M  END
>  <Compound_ID>  (97) 
C38718467

>  <Active>  (97) 
0

>  <Smiles>  (97) 
O=S(=O)([N-]c1ccc(-c2cn3c(n2)SCC3)cc1)c1cccc(Cl)c1Cl

>  <canonical_smi>  (97) 
O=S(=O)([N-]c1ccc(-c2cn3c(n2)SCC3)cc1)c1cccc(Cl)c1Cl

>  <Set>  (97) 
G2 inactive

>  <Set_type>  (97) 
Train

>  <MW>  (97) 
425.34

>  <HBD>  (97) 
0

>  <HBA>  (97) 
4

>  <NRB>  (97) 
4

>  <NR>  (97) 
4

>  <NAR>  (97) 
3

>  <PSA>  (97) 
66.06

>  <Standard Type>  (97) 
nan

>  <Standard Relation>  (97) 
nan

>  <Standard Units>  (97) 
nan

>  <Standard Value>  (97) 
nan

>  <Assay ChEMBL ID>  (97) 
nan

>  <Assay Description>  (97) 
nan

>  <BAO Label>  (97) 
nan

$$$$

     RDKit          2D

 29 32  0  0  0  0  0  0  0  0999 V2000
    3.0000    0.0000    0.0000 C   0  0  0  0  0  0  0  0  0  0  0  0
    1.5000    0.0000    0.0000 C   0  0  0  0  0  0  0  0  0  0  0  0
    0.7500   -1.2990    0.0000 C   0  0  0  0  0  0  0  0  0  0  0  0
   -0.7500   -1.2990    0.0000 C   0  0  0  0  0  0  0  0  0  0  0  0
   -1.5000    0.0000    0.0000 C   0  0  0  0  0  0  0  0  0  0  0  0
   -0.7500    1.2990    0.0000 C   0  0  0  0  0  0  0  0  0  0  0  0
    0.7500    1.2990    0.0000 C   0  0  0  0  0  0  0  0  0  0  0  0
    1.5000    2.5981    0.0000 C   0  0  0  0  0  0  0  0  0  0  0  0
    0.8899    3.9684    0.0000 N   0  0  0  0  0  0  0  0  0  0  0  0
    2.0046    4.9721    0.0000 N   0  0  0  0  0  0  0  0  0  0  0  0
    3.3037    4.2221    0.0000 C   0  0  0  0  0  0  0  0  0  0  0  0
    4.6740    4.8322    0.0000 S   0  0  0  0  0  1  0  0  0  0  0  0
    2.9918    2.7549    0.0000 N   0  0  0  0  0  0  0  0  0  0  0  0
    3.9955    1.6402    0.0000 N   0  0  0  0  0  0  0  0  0  0  0  0
    5.4627    1.9520    0.0000 C   0  0  0  0  0  0  0  0  0  0  0  0
    6.4664    0.8373    0.0000 C   0  0  0  0  0  0  0  0  0  0  0  0
    7.9582    0.9941    0.0000 C   0  0  0  0  0  0  0  0  0  0  0  0
    8.7082    2.2931    0.0000 C   0  0  0  0  0  0  0  0  0  0  0  0
    8.5683   -0.3762    0.0000 N   0  0  0  0  0  0  0  0  0  0  0  0
    7.4536   -1.3799    0.0000 N   0  0  0  0  0  0  0  0  0  0  0  0
    7.6104   -2.8717    0.0000 C   0  0  0  0  0  0  0  0  0  0  0  0
    6.3968   -3.7534    0.0000 C   0  0  0  0  0  0  0  0  0  0  0  0
    6.5536   -5.2452    0.0000 C   0  0  0  0  0  0  0  0  0  0  0  0
    7.9239   -5.8553    0.0000 C   0  0  0  0  0  0  0  0  0  0  0  0
    8.0807   -7.3471    0.0000 F   0  0  0  0  0  0  0  0  0  0  0  0
    9.1375   -4.9736    0.0000 C   0  0  0  0  0  0  0  0  0  0  0  0
    8.9807   -3.4818    0.0000 C   0  0  0  0  0  0  0  0  0  0  0  0
    6.1545   -0.6299    0.0000 C   0  0  0  0  0  0  0  0  0  0  0  0
    4.7842   -1.2400    0.0000 Cl  0  0  0  0  0  0  0  0  0  0  0  0
  1  2  1  0
  2  3  2  0
  3  4  1  0
  4  5  2  0
  5  6  1  0
  6  7  2  0
  7  8  1  0
  8  9  2  0
  9 10  1  0
 10 11  2  0
 11 12  1  0
 11 13  1  0
 13 14  1  0
 14 15  2  0
 15 16  1  0
 16 17  1  0
 17 18  1  0
 17 19  2  0
 19 20  1  0
 20 21  1  0
 21 22  2  0
 22 23  1  0
 23 24  2  0
 24 25  1  0
 24 26  1  0
 26 27  2  0
 20 28  1  0
 28 29  1  0
  7  2  1  0
 13  8  1  0
 28 16  2  0
 27 21  1  0
M  CHG  1  12  -1
M  END
>  <Compound_ID>  (98) 
C21188584

>  <Active>  (98) 
0

>  <Smiles>  (98) 
Cc1ccccc1-c1nnc([S-])n1/N=C/c1c(C)nn(-c2ccc(F)cc2)c1Cl

>  <canonical_smi>  (98) 
Cc1ccccc1-c1nnc([S-])n1/N=C/c1c(C)nn(-c2ccc(F)cc2)c1Cl

>  <Set>  (98) 
G2 inactive

>  <Set_type>  (98) 
Train

>  <MW>  (98) 
425.9

>  <HBD>  (98) 
0

>  <HBA>  (98) 
4

>  <NRB>  (98) 
4

>  <NR>  (98) 
4

>  <NAR>  (98) 
4

>  <PSA>  (98) 
60.89

>  <Standard Type>  (98) 
nan

>  <Standard Relation>  (98) 
nan

>  <Standard Units>  (98) 
nan

>  <Standard Value>  (98) 
nan

>  <Assay ChEMBL ID>  (98) 
nan

>  <Assay Description>  (98) 
nan

>  <BAO Label>  (98) 
nan

$$$$

     RDKit          2D

 27 30  0  0  0  0  0  0  0  0999 V2000
    3.0000    0.0000    0.0000 C   0  0  0  0  0  0  0  0  0  0  0  0
    1.5000    0.0000    0.0000 C   0  0  0  0  0  0  0  0  0  0  0  0
    0.7500   -1.2990    0.0000 C   0  0  0  0  0  0  0  0  0  0  0  0
   -0.7500   -1.2990    0.0000 C   0  0  0  0  0  0  0  0  0  0  0  0
   -1.5000    0.0000    0.0000 C   0  0  0  0  0  0  0  0  0  0  0  0
   -3.0000    0.0000    0.0000 N   0  0  0  0  0  2  0  0  0  0  0  0
   -3.7500    1.2990    0.0000 S   0  0  0  0  0  0  0  0  0  0  0  0
   -2.4510    2.0490    0.0000 O   0  0  0  0  0  0  0  0  0  0  0  0
   -5.0490    0.5490    0.0000 O   0  0  0  0  0  0  0  0  0  0  0  0
   -4.5000    2.5981    0.0000 C   0  0  0  0  0  0  0  0  0  0  0  0
   -5.9918    2.7549    0.0000 C   0  0  0  0  0  0  0  0  0  0  0  0
   -6.3037    4.2221    0.0000 C   0  0  0  0  0  0  0  0  0  0  0  0
   -7.6740    4.8322    0.0000 C   0  0  0  0  0  0  0  0  0  0  0  0
   -8.9730    4.0822    0.0000 N   0  0  0  0  0  0  0  0  0  0  0  0
  -10.0877    5.0859    0.0000 O   0  0  0  0  0  0  0  0  0  0  0  0
   -9.4776    6.4562    0.0000 C   0  0  0  0  0  0  0  0  0  0  0  0
  -10.2276    7.7552    0.0000 C   0  0  0  0  0  0  0  0  0  0  0  0
  -11.7194    7.9120    0.0000 C   0  0  0  0  0  0  0  0  0  0  0  0
  -12.0313    9.3793    0.0000 C   0  0  0  0  0  0  0  0  0  0  0  0
  -10.7322   10.1293    0.0000 C   0  0  0  0  0  0  0  0  0  0  0  0
   -9.6175    9.1256    0.0000 C   0  0  0  0  0  0  0  0  0  0  0  0
   -7.9858    6.2994    0.0000 N   0  0  0  0  0  0  0  0  0  0  0  0
   -5.0046    4.9721    0.0000 C   0  0  0  0  0  0  0  0  0  0  0  0
   -3.8899    3.9684    0.0000 S   0  0  0  0  0  0  0  0  0  0  0  0
   -0.7500    1.2990    0.0000 C   0  0  0  0  0  0  0  0  0  0  0  0
    0.7500    1.2990    0.0000 C   0  0  0  0  0  0  0  0  0  0  0  0
    1.5000    2.5981    0.0000 F   0  0  0  0  0  0  0  0  0  0  0  0
  1  2  1  0
  2  3  2  0
  3  4  1  0
  4  5  2  0
  5  6  1  0
  6  7  1  0
  7  8  2  0
  7  9  2  0
  7 10  1  0
 10 11  2  0
 11 12  1  0
 12 13  1  0
 13 14  2  0
 14 15  1  0
 15 16  1  0
 16 17  1  0
 17 18  1  0
 18 19  1  0
 19 20  1  0
 20 21  1  0
 16 22  2  0
 12 23  2  0
 23 24  1  0
  5 25  1  0
 25 26  2  0
 26 27  1  0
 26  2  1  0
 24 10  1  0
 22 13  1  0
 21 17  1  0
M  CHG  1   6  -1
M  END
>  <Compound_ID>  (99) 
C35557545

>  <Active>  (99) 
0

>  <Smiles>  (99) 
Cc1ccc([N-]S(=O)(=O)c2cc(-c3noc(C4CCCC4)n3)cs2)cc1F

>  <canonical_smi>  (99) 
Cc1ccc([N-]S(=O)(=O)c2cc(-c3noc(C4CCCC4)n3)cs2)cc1F

>  <Set>  (99) 
G2 inactive

>  <Set_type>  (99) 
Train

>  <MW>  (99) 
406.48

>  <HBD>  (99) 
0

>  <HBA>  (99) 
5

>  <NRB>  (99) 
5

>  <NR>  (99) 
4

>  <NAR>  (99) 
3

>  <PSA>  (99) 
87.16

>  <Standard Type>  (99) 
nan

>  <Standard Relation>  (99) 
nan

>  <Standard Units>  (99) 
nan

>  <Standard Value>  (99) 
nan

>  <Assay ChEMBL ID>  (99) 
nan

>  <Assay Description>  (99) 
nan

>  <BAO Label>  (99) 
nan

$$$$

     RDKit          2D

 24 25  0  0  0  0  0  0  0  0999 V2000
    1.6418    7.0824    0.0000 C   0  0  0  0  0  0  0  0  0  0  0  0
    1.3299    5.6152    0.0000 C   0  0  0  0  0  0  0  0  0  0  0  0
   -0.0967    5.1517    0.0000 S   0  0  0  0  0  0  0  0  0  0  0  0
   -0.4086    3.6844    0.0000 C   0  0  0  0  0  0  0  0  0  0  0  0
    0.7062    2.6807    0.0000 N   0  0  0  0  0  0  0  0  0  0  0  0
    0.3943    1.2135    0.0000 C   0  0  0  0  0  0  0  0  0  0  0  0
    1.2760    0.0000    0.0000 S   0  0  0  0  0  0  0  0  0  0  0  0
    0.3943   -1.2135    0.0000 C   0  0  0  0  0  0  0  0  0  0  0  0
   -1.0323   -0.7500    0.0000 C   0  0  0  0  0  0  0  0  0  0  0  0
   -1.0323    0.7500    0.0000 C   0  0  0  0  0  0  0  0  0  0  0  0
   -2.1470    1.7537    0.0000 C   0  0  0  0  0  0  0  0  0  0  0  0
   -3.5736    1.2902    0.0000 O   0  0  0  0  0  0  0  0  0  0  0  0
   -1.8351    3.2209    0.0000 N   0  0  0  0  0  0  0  0  0  0  0  0
   -2.9499    4.2246    0.0000 C   0  0  0  0  0  0  0  0  0  0  0  0
    2.4446    4.6115    0.0000 C   0  0  0  0  0  0  0  0  0  0  0  0
    2.1328    3.1443    0.0000 O   0  0  0  0  0  0  0  0  0  0  0  0
    3.8712    5.0750    0.0000 N   0  0  0  0  0  0  0  0  0  0  0  0
    4.9859    4.0713    0.0000 C   0  0  0  0  0  0  0  0  0  0  0  0
    4.6741    2.6041    0.0000 O   0  0  0  0  0  0  0  0  0  0  0  0
    6.4125    4.5348    0.0000 N   0  0  0  0  0  0  0  0  0  0  0  0
    7.5272    3.5312    0.0000 C   0  0  0  0  0  0  0  0  0  0  0  0
    8.5309    4.6459    0.0000 C   0  0  0  0  0  0  0  0  0  0  0  0
    6.5235    2.4164    0.0000 C   0  0  0  0  0  0  0  0  0  0  0  0
    8.6419    2.5275    0.0000 C   0  0  0  0  0  0  0  0  0  0  0  0
  2  1  1  1
  2  3  1  0
  3  4  1  0
  4  5  2  0
  5  6  1  0
  6  7  1  0
  7  8  1  0
  8  9  2  0
  9 10  1  0
 10 11  1  0
 11 12  2  0
 11 13  1  0
 13 14  1  0
  2 15  1  0
 15 16  2  0
 15 17  1  0
 17 18  1  0
 18 19  2  0
 18 20  1  0
 20 21  1  0
 21 22  1  0
 21 23  1  0
 21 24  1  0
 13  4  1  0
 10  6  2  0
M  END
>  <Compound_ID>  (100) 
C22641370

>  <Active>  (100) 
0

>  <Smiles>  (100) 
C[C@H](Sc1nc2sccc2c(=O)n1C)C(=O)NC(=O)NC(C)(C)C

>  <canonical_smi>  (100) 
C[C@H](Sc1nc2sccc2c(=O)n1C)C(=O)NC(=O)NC(C)(C)C

>  <Set>  (100) 
G2 inactive

>  <Set_type>  (100) 
Train

>  <MW>  (100) 
368.48

>  <HBD>  (100) 
2

>  <HBA>  (100) 
5

>  <NRB>  (100) 
3

>  <NR>  (100) 
2

>  <NAR>  (100) 
2

>  <PSA>  (100) 
93.09

>  <Standard Type>  (100) 
nan

>  <Standard Relation>  (100) 
nan

>  <Standard Units>  (100) 
nan

>  <Standard Value>  (100) 
nan

>  <Assay ChEMBL ID>  (100) 
nan

>  <Assay Description>  (100) 
nan

>  <BAO Label>  (100) 
nan

$$$$

     RDKit          2D

 28 31  0  0  0  0  0  0  0  0999 V2000
    6.2781    0.7592    0.0000 O   0  0  0  0  0  0  0  0  0  0  0  0
    6.6410    2.2147    0.0000 C   0  0  0  0  0  0  0  0  0  0  0  0
    8.0829    2.6281    0.0000 N   0  0  0  0  0  0  0  0  0  0  0  0
    9.1619    1.5862    0.0000 C   0  0  0  0  0  0  0  0  0  0  0  0
   10.6038    1.9996    0.0000 C   0  0  0  0  0  0  0  0  0  0  0  0
   11.6828    0.9576    0.0000 C   0  0  0  0  0  0  0  0  0  0  0  0
   13.1247    1.3711    0.0000 C   0  0  0  0  0  0  0  0  0  0  0  0
   13.4876    2.8265    0.0000 C   0  0  0  0  0  0  0  0  0  0  0  0
   12.4086    3.8685    0.0000 C   0  0  0  0  0  0  0  0  0  0  0  0
   12.7714    5.3240    0.0000 F   0  0  0  0  0  0  0  0  0  0  0  0
   10.9667    3.4551    0.0000 C   0  0  0  0  0  0  0  0  0  0  0  0
    9.8877    4.4970    0.0000 F   0  0  0  0  0  0  0  0  0  0  0  0
    8.4458    4.0836    0.0000 C   0  0  0  0  0  0  0  0  0  0  0  0
    7.3668    5.1256    0.0000 C   0  0  0  0  0  0  0  0  0  0  0  0
    5.9249    4.7121    0.0000 C   0  0  0  0  0  0  0  0  0  0  0  0
    5.5620    3.2567    0.0000 C   0  0  0  0  0  0  0  0  0  0  0  0
    4.7232    2.0131    0.0000 O   0  0  0  0  0  0  0  0  0  0  0  0
    4.1917    3.8668    0.0000 C   0  0  0  0  0  0  0  0  0  0  0  0
    2.9781    2.9851    0.0000 N   0  0  0  0  0  4  0  0  0  0  0  0
    1.6078    3.5952    0.0000 C   0  0  0  0  0  0  0  0  0  0  0  0
    0.3943    2.7135    0.0000 C   0  0  0  0  0  0  0  0  0  0  0  0
   -1.0323    3.1771    0.0000 N   0  0  0  0  0  0  0  0  0  0  0  0
   -1.9140    1.9635    0.0000 N   0  0  0  0  0  0  0  0  0  0  0  0
   -1.0323    0.7500    0.0000 C   0  0  0  0  0  0  0  0  0  0  0  0
    0.3943    1.2135    0.0000 C   0  0  0  0  0  0  0  0  0  0  0  0
    1.2760    0.0000    0.0000 C   0  0  0  0  0  0  0  0  0  0  0  0
    0.3943   -1.2135    0.0000 C   0  0  0  0  0  0  0  0  0  0  0  0
   -1.0323   -0.7500    0.0000 C   0  0  0  0  0  0  0  0  0  0  0  0
  1  2  2  0
  2  3  1  0
  3  4  1  0
  4  5  1  0
  5  6  2  0
  6  7  1  0
  7  8  2  0
  8  9  1  0
  9 10  1  0
  9 11  2  0
 11 12  1  0
  3 13  1  0
 13 14  1  0
 14 15  1  0
 15 16  1  0
 16 17  1  1
 16 18  1  0
 18 19  1  0
 19 20  1  0
 20 21  1  0
 21 22  2  0
 22 23  1  0
 23 24  1  0
 24 25  2  0
 25 26  1  0
 26 27  1  0
 27 28  1  0
 16  2  1  0
 25 21  1  0
 11  5  1  0
 28 24  1  0
M  CHG  1  19   1
M  END
>  <Compound_ID>  (101) 
C12446272

>  <Active>  (101) 
0

>  <Smiles>  (101) 
O=C1N(Cc2cccc(F)c2F)CCC[C@@]1(O)C[NH2+]Cc1n[nH]c2c1CCC2

>  <canonical_smi>  (101) 
O=C1N(Cc2cccc(F)c2F)CCC[C@@]1(O)C[NH2+]Cc1n[nH]c2c1CCC2

>  <Set>  (101) 
G2 inactive

>  <Set_type>  (101) 
Train

>  <MW>  (101) 
391.44

>  <HBD>  (101) 
3

>  <HBA>  (101) 
3

>  <NRB>  (101) 
6

>  <NR>  (101) 
4

>  <NAR>  (101) 
2

>  <PSA>  (101) 
85.83

>  <Standard Type>  (101) 
nan

>  <Standard Relation>  (101) 
nan

>  <Standard Units>  (101) 
nan

>  <Standard Value>  (101) 
nan

>  <Assay ChEMBL ID>  (101) 
nan

>  <Assay Description>  (101) 
nan

>  <BAO Label>  (101) 
nan

$$$$

     RDKit          2D

 19 20  0  0  0  0  0  0  0  0999 V2000
    3.0000    0.0000    0.0000 C   0  0  0  0  0  0  0  0  0  0  0  0
    1.5000    0.0000    0.0000 N   0  0  0  0  0  4  0  0  0  0  0  0
    0.7500   -1.2990    0.0000 C   0  0  0  0  0  0  0  0  0  0  0  0
   -0.7500   -1.2990    0.0000 C   0  0  0  0  0  0  0  0  0  0  0  0
   -1.5000    0.0000    0.0000 C   0  0  0  0  0  0  0  0  0  0  0  0
   -0.7500    1.2990    0.0000 C   0  0  0  0  0  0  0  0  0  0  0  0
    0.7500    1.2990    0.0000 C   0  0  0  0  0  0  0  0  0  0  0  0
    1.5000    2.5981    0.0000 C   0  0  0  0  0  0  0  0  0  0  0  0
    3.0000    2.5981    0.0000 N   0  0  0  0  0  0  0  0  0  0  0  0
    3.7500    3.8971    0.0000 C   0  0  0  0  0  0  0  0  0  0  0  0
    5.2500    3.8971    0.0000 C   0  0  0  0  0  0  0  0  0  0  0  0
    6.0000    5.1962    0.0000 C   0  0  0  0  0  0  0  0  0  0  0  0
    5.2500    6.4952    0.0000 C   0  0  0  0  0  0  0  0  0  0  0  0
    6.0000    7.7942    0.0000 N   0  0  0  0  0  0  0  0  0  0  0  0
    3.7500    6.4952    0.0000 C   0  0  0  0  0  0  0  0  0  0  0  0
    3.0000    5.1962    0.0000 C   0  0  0  0  0  0  0  0  0  0  0  0
    1.5000    5.1962    0.0000 C   0  0  0  0  0  0  0  0  0  0  0  0
    0.7500    3.8971    0.0000 O   0  0  0  0  0  0  0  0  0  0  0  0
    0.7500    6.4952    0.0000 O   0  0  0  0  0  1  0  0  0  0  0  0
  1  2  1  0
  2  3  1  0
  3  4  1  0
  4  5  1  0
  5  6  1  0
  6  7  1  0
  7  8  1  6
  8  9  1  0
  9 10  1  0
 10 11  2  0
 11 12  1  0
 12 13  2  0
 13 14  1  0
 13 15  1  0
 15 16  2  0
 16 17  1  0
 17 18  2  0
 17 19  1  0
  7  2  1  0
 16 10  1  0
M  CHG  2   2   1  19  -1
M  END
>  <Compound_ID>  (102) 
C44560412

>  <Active>  (102) 
0

>  <Smiles>  (102) 
C[NH+]1CCCC[C@@H]1CNc1ccc(N)cc1C(=O)[O-]

>  <canonical_smi>  (102) 
C[NH+]1CCCC[C@@H]1CNc1ccc(N)cc1C(=O)[O-]

>  <Set>  (102) 
G2 inactive

>  <Set_type>  (102) 
Train

>  <MW>  (102) 
263.34

>  <HBD>  (102) 
3

>  <HBA>  (102) 
4

>  <NRB>  (102) 
4

>  <NR>  (102) 
2

>  <NAR>  (102) 
1

>  <PSA>  (102) 
82.62

>  <Standard Type>  (102) 
nan

>  <Standard Relation>  (102) 
nan

>  <Standard Units>  (102) 
nan

>  <Standard Value>  (102) 
nan

>  <Assay ChEMBL ID>  (102) 
nan

>  <Assay Description>  (102) 
nan

>  <BAO Label>  (102) 
nan

$$$$

     RDKit          2D

 27 29  0  0  0  0  0  0  0  0999 V2000
    1.5000   -5.1962    0.0000 C   0  0  0  0  0  0  0  0  0  0  0  0
    0.7500   -3.8971    0.0000 C   0  0  0  0  0  0  0  0  0  0  0  0
   -0.7500   -3.8971    0.0000 C   0  0  0  0  0  0  0  0  0  0  0  0
   -1.5000   -2.5981    0.0000 C   0  0  0  0  0  0  0  0  0  0  0  0
   -0.7500   -1.2990    0.0000 C   0  0  0  0  0  0  0  0  0  0  0  0
    0.7500   -1.2990    0.0000 C   0  0  0  0  0  0  0  0  0  0  0  0
    2.2500   -1.2990    0.0000 C   0  0  0  0  0  0  0  0  0  0  0  0
    1.5000    0.0000    0.0000 C   0  0  0  0  0  0  0  0  0  0  0  0
    0.7500    1.2990    0.0000 C   0  0  0  0  0  0  0  0  0  0  0  0
   -0.7500    1.2990    0.0000 C   0  0  0  0  0  0  0  0  0  0  0  0
   -1.5000    0.0000    0.0000 C   0  0  0  0  0  0  0  0  0  0  0  0
   -2.6491   -0.9642    0.0000 C   0  0  0  0  0  0  0  0  0  0  0  0
   -2.6491    0.9642    0.0000 C   0  0  0  0  0  0  0  0  0  0  0  0
   -4.0586    0.4512    0.0000 O   0  0  0  0  0  0  0  0  0  0  0  0
   -2.3886    2.4414    0.0000 O   0  0  0  0  0  0  0  0  0  0  0  0
   -3.5377    3.4056    0.0000 C   0  0  0  0  0  0  0  0  0  0  0  0
    1.5000   -2.5981    0.0000 C   0  0  0  0  0  0  0  0  0  0  0  0
    3.0000   -2.5981    0.0000 C   0  0  0  0  0  0  0  0  0  0  0  0
    3.7500   -3.8971    0.0000 C   0  0  0  0  0  0  0  0  0  0  0  0
    5.2500   -3.8971    0.0000 C   0  0  0  0  0  0  0  0  0  0  0  0
    6.1317   -2.6836    0.0000 C   0  0  0  0  0  0  0  0  0  0  0  0
    7.5583   -3.1471    0.0000 C   0  0  0  0  0  0  0  0  0  0  0  0
    7.5583   -4.6471    0.0000 O   0  0  0  0  0  0  0  0  0  0  0  0
    6.1317   -5.1106    0.0000 C   0  0  0  0  0  0  0  0  0  0  0  0
    5.6682   -6.5372    0.0000 C   0  0  0  0  0  0  0  0  0  0  0  0
    6.6718   -7.6519    0.0000 N   0  0  0  0  0  4  0  0  0  0  0  0
    6.2083   -9.0785    0.0000 C   0  0  0  0  0  0  0  0  0  0  0  0
  1  2  2  0
  2  3  1  0
  3  4  1  0
  5  4  1  1
  5  6  1  0
  6  7  1  6
  6  8  1  0
  8  9  1  0
  9 10  1  0
 10 11  1  0
 11 12  1  1
 11 13  1  0
 13 14  2  0
 13 15  1  0
 15 16  1  0
  6 17  1  0
 17 18  1  1
 18 19  1  0
 19 20  1  0
 20 21  1  0
 21 22  2  0
 22 23  1  0
 23 24  1  0
 24 25  1  0
 25 26  1  0
 26 27  1  0
 17  2  1  0
 24 20  2  0
 11  5  1  0
M  CHG  1  26   1
M  END
>  <Compound_ID>  (103) 
C43465364

>  <Active>  (103) 
0

>  <Smiles>  (103) 
C=C1CC[C@@H]2[C@@](C)(CCC[C@@]2(C)C(=O)OC)[C@H]1CCc1ccoc1C[NH2+]C

>  <canonical_smi>  (103) 
C=C1CC[C@@H]2[C@@](C)(CCC[C@@]2(C)C(=O)OC)[C@H]1CCc1ccoc1C[NH2+]C

>  <Set>  (103) 
G2 inactive

>  <Set_type>  (103) 
Train

>  <MW>  (103) 
374.55

>  <HBD>  (103) 
1

>  <HBA>  (103) 
3

>  <NRB>  (103) 
6

>  <NR>  (103) 
3

>  <NAR>  (103) 
1

>  <PSA>  (103) 
56.05

>  <Standard Type>  (103) 
nan

>  <Standard Relation>  (103) 
nan

>  <Standard Units>  (103) 
nan

>  <Standard Value>  (103) 
nan

>  <Assay ChEMBL ID>  (103) 
nan

>  <Assay Description>  (103) 
nan

>  <BAO Label>  (103) 
nan

$$$$

     RDKit          2D

 26 29  0  0  0  0  0  0  0  0999 V2000
    0.1921   -7.3578    0.0000 C   0  0  0  0  0  0  0  0  0  0  0  0
    1.6839   -7.2010    0.0000 C   0  0  0  0  0  0  0  0  0  0  0  0
    3.1757   -7.0442    0.0000 C   0  0  0  0  0  0  0  0  0  0  0  0
    1.8407   -8.6928    0.0000 C   0  0  0  0  0  0  0  0  0  0  0  0
    1.5271   -5.7092    0.0000 C   0  0  0  0  0  0  0  0  0  0  0  0
    0.1568   -5.0991    0.0000 C   0  0  0  0  0  0  0  0  0  0  0  0
   -0.0000   -3.6073    0.0000 C   0  0  0  0  0  0  0  0  0  0  0  0
   -1.2135   -2.7256    0.0000 O   0  0  0  0  0  0  0  0  0  0  0  0
   -0.7500   -1.2990    0.0000 C   0  0  0  0  0  0  0  0  0  0  0  0
    0.7500   -1.2990    0.0000 C   0  0  0  0  0  0  0  0  0  0  0  0
    1.2135   -2.7256    0.0000 C   0  0  0  0  0  0  0  0  0  0  0  0
    2.5838   -3.3357    0.0000 C   0  0  0  0  0  0  0  0  0  0  0  0
    3.7974   -2.4540    0.0000 C   0  0  0  0  0  0  0  0  0  0  0  0
    5.1677   -3.0642    0.0000 N   0  0  0  0  0  0  0  0  0  0  0  0
    6.3812   -2.1825    0.0000 C   0  0  0  0  0  0  0  0  0  0  0  0
    7.7515   -2.7926    0.0000 C   0  0  0  0  0  0  0  0  0  0  0  0
    8.9651   -1.9109    0.0000 C   0  0  0  0  0  0  0  0  0  0  0  0
    8.8083   -0.4191    0.0000 C   0  0  0  0  0  0  0  0  0  0  0  0
    7.4379    0.1910    0.0000 C   0  0  0  0  0  0  0  0  0  0  0  0
    6.2244   -0.6907    0.0000 N   0  0  0  0  0  4  0  0  0  0  0  0
    2.7406   -4.8275    0.0000 C   0  0  0  0  0  0  0  0  0  0  0  0
    4.1110   -5.4376    0.0000 O   0  0  0  0  0  0  0  0  0  0  0  0
    1.5000    0.0000    0.0000 C   0  0  0  0  0  0  0  0  0  0  0  0
    0.7500    1.2990    0.0000 C   0  0  0  0  0  0  0  0  0  0  0  0
   -0.7500    1.2990    0.0000 C   0  0  0  0  0  0  0  0  0  0  0  0
   -1.5000    0.0000    0.0000 C   0  0  0  0  0  0  0  0  0  0  0  0
  1  2  1  0
  2  3  1  0
  2  4  1  0
  2  5  1  0
  5  6  2  0
  6  7  1  0
  7  8  1  0
  8  9  1  0
  9 10  2  0
 10 11  1  0
 11 12  1  0
 12 13  1  0
 13 14  2  0
 14 15  1  0
 15 16  2  0
 16 17  1  0
 17 18  2  0
 18 19  1  0
 19 20  2  0
 12 21  2  0
 21 22  1  0
 10 23  1  0
 23 24  1  0
 24 25  1  0
 25 26  1  0
 21  5  1  0
 11  7  2  0
 20 15  1  0
 26  9  1  0
M  CHG  1  20   1
M  END
>  <Compound_ID>  (104) 
C05726727

>  <Active>  (104) 
0

>  <Smiles>  (104) 
CC(C)(C)c1cc2oc3c(c2c(/C=N/c2cccc[nH+]2)c1O)CCCC3

>  <canonical_smi>  (104) 
CC(C)(C)c1cc2oc3c(c2c(/C=N/c2cccc[nH+]2)c1O)CCCC3

>  <Set>  (104) 
G2 inactive

>  <Set_type>  (104) 
Train

>  <MW>  (104) 
349.45

>  <HBD>  (104) 
1

>  <HBA>  (104) 
2

>  <NRB>  (104) 
2

>  <NR>  (104) 
4

>  <NAR>  (104) 
3

>  <PSA>  (104) 
59.87

>  <Standard Type>  (104) 
nan

>  <Standard Relation>  (104) 
nan

>  <Standard Units>  (104) 
nan

>  <Standard Value>  (104) 
nan

>  <Assay ChEMBL ID>  (104) 
nan

>  <Assay Description>  (104) 
nan

>  <BAO Label>  (104) 
nan

$$$$

     RDKit          2D

 21 23  0  0  0  0  0  0  0  0999 V2000
   -0.0000   -6.6073    0.0000 N   0  0  0  0  0  0  0  0  0  0  0  0
   -0.0000   -5.1073    0.0000 C   0  0  0  0  0  0  0  0  0  0  0  0
   -0.0000   -3.6073    0.0000 C   0  0  0  0  0  0  0  0  0  0  0  0
    1.2135   -2.7256    0.0000 S   0  0  0  0  0  0  0  0  0  0  0  0
    0.7500   -1.2990    0.0000 C   0  0  0  0  0  0  0  0  0  0  0  0
    1.5000    0.0000    0.0000 N   0  0  0  0  0  0  0  0  0  0  0  0
    0.7500    1.2990    0.0000 C   0  0  0  0  0  0  0  0  0  0  0  0
    1.5000    2.5981    0.0000 C   0  0  0  0  0  0  0  0  0  0  0  0
    2.2500    3.8971    0.0000 F   0  0  0  0  0  0  0  0  0  0  0  0
    2.7990    1.8481    0.0000 F   0  0  0  0  0  0  0  0  0  0  0  0
    0.2010    3.3481    0.0000 F   0  0  0  0  0  0  0  0  0  0  0  0
   -0.7500    1.2990    0.0000 C   0  0  0  0  0  0  0  0  0  0  0  0
   -1.5000    0.0000    0.0000 C   0  0  0  0  0  0  0  0  0  0  0  0
   -3.0000    0.0000    0.0000 C   0  0  0  0  0  0  0  0  0  0  0  0
   -3.8817   -1.2135    0.0000 C   0  0  0  0  0  0  0  0  0  0  0  0
   -5.3083   -0.7500    0.0000 C   0  0  0  0  0  0  0  0  0  0  0  0
   -5.3083    0.7500    0.0000 C   0  0  0  0  0  0  0  0  0  0  0  0
   -3.8817    1.2135    0.0000 O   0  0  0  0  0  0  0  0  0  0  0  0
   -0.7500   -1.2990    0.0000 C   0  0  0  0  0  0  0  0  0  0  0  0
   -1.2135   -2.7256    0.0000 C   0  0  0  0  0  0  0  0  0  0  0  0
   -2.6401   -3.1891    0.0000 N   0  0  0  0  0  0  0  0  0  0  0  0
  1  2  3  0
  2  3  1  0
  3  4  1  0
  4  5  1  0
  5  6  2  0
  6  7  1  0
  7  8  1  0
  8  9  1  0
  8 10  1  0
  8 11  1  0
  7 12  2  0
 12 13  1  0
 13 14  1  0
 14 15  2  0
 15 16  1  0
 16 17  2  0
 17 18  1  0
 13 19  2  0
 19 20  1  0
 20 21  1  0
 20  3  2  0
 19  5  1  0
 18 14  1  0
M  END
>  <Compound_ID>  (105) 
C20328929

>  <Active>  (105) 
0

>  <Smiles>  (105) 
N#Cc1sc2nc(C(F)(F)F)cc(-c3ccco3)c2c1N

>  <canonical_smi>  (105) 
N#Cc1sc2nc(C(F)(F)F)cc(-c3ccco3)c2c1N

>  <Set>  (105) 
G2 inactive

>  <Set_type>  (105) 
Train

>  <MW>  (105) 
309.27

>  <HBD>  (105) 
1

>  <HBA>  (105) 
4

>  <NRB>  (105) 
1

>  <NR>  (105) 
3

>  <NAR>  (105) 
3

>  <PSA>  (105) 
75.84

>  <Standard Type>  (105) 
nan

>  <Standard Relation>  (105) 
nan

>  <Standard Units>  (105) 
nan

>  <Standard Value>  (105) 
nan

>  <Assay ChEMBL ID>  (105) 
nan

>  <Assay Description>  (105) 
nan

>  <BAO Label>  (105) 
nan

$$$$

     RDKit          2D

 21 22  0  0  0  0  0  0  0  0999 V2000
    3.0000    0.0000    0.0000 C   0  0  0  0  0  0  0  0  0  0  0  0
    1.5000    0.0000    0.0000 C   0  0  0  0  0  0  0  0  0  0  0  0
    0.7500   -1.2990    0.0000 C   0  0  0  0  0  0  0  0  0  0  0  0
   -0.7500   -1.2990    0.0000 C   0  0  0  0  0  0  0  0  0  0  0  0
   -1.5000    0.0000    0.0000 C   0  0  0  0  0  0  0  0  0  0  0  0
   -3.0000    0.0000    0.0000 N   0  0  0  0  0  0  0  0  0  0  0  0
   -0.7500    1.2990    0.0000 C   0  0  0  0  0  0  0  0  0  0  0  0
   -1.5000    2.5981    0.0000 C   0  0  0  0  0  0  0  0  0  0  0  0
    0.7500    1.2990    0.0000 C   0  0  0  0  0  0  0  0  0  0  0  0
    1.5000    2.5981    0.0000 S   0  0  0  0  0  0  0  0  0  0  0  0
    2.7990    1.8481    0.0000 O   0  0  0  0  0  0  0  0  0  0  0  0
    0.2010    3.3481    0.0000 O   0  0  0  0  0  0  0  0  0  0  0  0
    2.2500    3.8971    0.0000 N   0  0  0  0  0  0  0  0  0  0  0  0
    1.5000    5.1962    0.0000 C   0  0  0  0  0  0  0  0  0  0  0  0
    3.7500    3.8971    0.0000 C   0  0  0  0  0  0  0  0  0  0  0  0
    4.5000    2.5981    0.0000 C   0  0  0  0  0  0  0  0  0  0  0  0
    6.0000    2.5981    0.0000 C   0  0  0  0  0  0  0  0  0  0  0  0
    6.7500    3.8971    0.0000 C   0  0  0  0  0  0  0  0  0  0  0  0
    6.0000    5.1962    0.0000 C   0  0  0  0  0  0  0  0  0  0  0  0
    6.7500    6.4952    0.0000 C   0  0  0  0  0  0  0  0  0  0  0  0
    4.5000    5.1962    0.0000 C   0  0  0  0  0  0  0  0  0  0  0  0
  1  2  1  0
  2  3  2  0
  3  4  1  0
  4  5  2  0
  5  6  1  0
  5  7  1  0
  7  8  1  0
  7  9  2  0
  9 10  1  0
 10 11  2  0
 10 12  2  0
 10 13  1  0
 13 14  1  0
 15 13  1  6
 15 16  1  0
 16 17  1  0
 17 18  1  0
 18 19  1  0
 19 20  1  1
 19 21  1  0
  9  2  1  0
 21 15  1  0
M  END
>  <Compound_ID>  (106) 
C49009635

>  <Active>  (106) 
0

>  <Smiles>  (106) 
Cc1ccc(N)c(C)c1S(=O)(=O)N(C)[C@H]1CCC[C@H](C)C1

>  <canonical_smi>  (106) 
Cc1ccc(N)c(C)c1S(=O)(=O)N(C)[C@H]1CCC[C@H](C)C1

>  <Set>  (106) 
G2 inactive

>  <Set_type>  (106) 
Train

>  <MW>  (106) 
310.46

>  <HBD>  (106) 
1

>  <HBA>  (106) 
3

>  <NRB>  (106) 
3

>  <NR>  (106) 
2

>  <NAR>  (106) 
1

>  <PSA>  (106) 
63.4

>  <Standard Type>  (106) 
nan

>  <Standard Relation>  (106) 
nan

>  <Standard Units>  (106) 
nan

>  <Standard Value>  (106) 
nan

>  <Assay ChEMBL ID>  (106) 
nan

>  <Assay Description>  (106) 
nan

>  <BAO Label>  (106) 
nan

$$$$

     RDKit          2D

 14 14  0  0  0  0  0  0  0  0999 V2000
    3.0000    0.0000    0.0000 N   0  0  0  0  0  0  0  0  0  0  0  0
    1.5000    0.0000    0.0000 C   0  0  0  0  0  0  0  0  0  0  0  0
    0.7500   -1.2990    0.0000 C   0  0  0  0  0  0  0  0  0  0  0  0
    1.5000   -2.5981    0.0000 F   0  0  0  0  0  0  0  0  0  0  0  0
   -0.7500   -1.2990    0.0000 C   0  0  0  0  0  0  0  0  0  0  0  0
   -1.5000   -2.5981    0.0000 F   0  0  0  0  0  0  0  0  0  0  0  0
   -1.5000    0.0000    0.0000 C   0  0  0  0  0  0  0  0  0  0  0  0
   -3.0000    0.0000    0.0000 F   0  0  0  0  0  0  0  0  0  0  0  0
   -0.7500    1.2990    0.0000 C   0  0  0  0  0  0  0  0  0  0  0  0
   -1.5000    2.5981    0.0000 F   0  0  0  0  0  0  0  0  0  0  0  0
    0.7500    1.2990    0.0000 C   0  0  0  0  0  0  0  0  0  0  0  0
    1.5000    2.5981    0.0000 N   0  0  0  0  0  4  0  0  0  0  0  0
    3.0000    2.5981    0.0000 O   0  0  0  0  0  0  0  0  0  0  0  0
    0.7500    3.8971    0.0000 O   0  0  0  0  0  1  0  0  0  0  0  0
  1  2  1  0
  2  3  2  0
  3  4  1  0
  3  5  1  0
  5  6  1  0
  5  7  2  0
  7  8  1  0
  7  9  1  0
  9 10  1  0
  9 11  2  0
 11 12  1  0
 12 13  2  0
 12 14  1  0
 11  2  1  0
M  CHG  2  12   1  14  -1
M  END
>  <Compound_ID>  (107) 
C05510640

>  <Active>  (107) 
0

>  <Smiles>  (107) 
Nc1c(F)c(F)c(F)c(F)c1[N+](=O)[O-]

>  <canonical_smi>  (107) 
Nc1c(F)c(F)c(F)c(F)c1[N+](=O)[O-]

>  <Set>  (107) 
G2 inactive

>  <Set_type>  (107) 
Train

>  <MW>  (107) 
210.09

>  <HBD>  (107) 
1

>  <HBA>  (107) 
3

>  <NRB>  (107) 
1

>  <NR>  (107) 
1

>  <NAR>  (107) 
1

>  <PSA>  (107) 
69.16

>  <Standard Type>  (107) 
nan

>  <Standard Relation>  (107) 
nan

>  <Standard Units>  (107) 
nan

>  <Standard Value>  (107) 
nan

>  <Assay ChEMBL ID>  (107) 
nan

>  <Assay Description>  (107) 
nan

>  <BAO Label>  (107) 
nan

$$$$

     RDKit          2D

 27 28  0  0  0  0  0  0  0  0999 V2000
    5.7760    2.5981    0.0000 C   0  0  0  0  0  0  0  0  0  0  0  0
    5.0260    1.2990    0.0000 C   0  0  0  0  0  0  0  0  0  0  0  0
    3.5260    1.2990    0.0000 O   0  0  0  0  0  0  0  0  0  0  0  0
    2.7760    0.0000    0.0000 C   0  0  0  0  0  0  0  0  0  0  0  0
    3.5260   -1.2990    0.0000 O   0  0  0  0  0  0  0  0  0  0  0  0
    1.2760    0.0000    0.0000 C   0  0  0  0  0  0  0  0  0  0  0  0
    0.3943    1.2135    0.0000 C   0  0  0  0  0  0  0  0  0  0  0  0
    0.8578    2.6401    0.0000 N   0  0  0  0  0  0  0  0  0  0  0  0
   -0.1459    3.7548    0.0000 C   0  0  0  0  0  0  0  0  0  0  0  0
   -1.6131    3.4430    0.0000 O   0  0  0  0  0  0  0  0  0  0  0  0
    0.3177    5.1814    0.0000 C   0  0  0  0  0  0  0  0  0  0  0  0
   -0.6860    6.2961    0.0000 C   0  0  0  0  0  0  0  0  0  0  0  0
    1.7849    5.4933    0.0000 N   0  0  0  0  0  0  0  0  0  0  0  0
    2.8996    4.4896    0.0000 C   0  0  0  0  0  0  0  0  0  0  0  0
    2.7428    2.9978    0.0000 N   0  0  0  0  0  0  0  0  0  0  0  0
    4.1986    5.2396    0.0000 N   0  0  0  0  0  0  0  0  0  0  0  0
    3.8868    6.7068    0.0000 N   0  0  0  0  0  0  0  0  0  0  0  0
    2.3950    6.8636    0.0000 C   0  0  0  0  0  0  0  0  0  0  0  0
    1.6450    8.1626    0.0000 S   0  0  0  0  0  0  0  0  0  0  0  0
    2.3950    9.4617    0.0000 C   0  0  0  0  0  0  0  0  0  0  0  0
    3.8950    9.4617    0.0000 C   0  0  0  0  0  0  0  0  0  0  0  0
    5.3950    9.4617    0.0000 N   0  0  0  0  0  0  0  0  0  0  0  0
   -1.0323    0.7500    0.0000 S   0  0  0  0  0  0  0  0  0  0  0  0
   -1.0323   -0.7500    0.0000 C   0  0  0  0  0  0  0  0  0  0  0  0
   -2.2458   -1.6317    0.0000 C   0  0  0  0  0  0  0  0  0  0  0  0
    0.3943   -1.2135    0.0000 C   0  0  0  0  0  0  0  0  0  0  0  0
    0.8578   -2.6401    0.0000 C   0  0  0  0  0  0  0  0  0  0  0  0
  1  2  1  0
  2  3  1  0
  3  4  1  0
  4  5  2  0
  4  6  1  0
  6  7  2  0
  7  8  1  0
  8  9  1  0
  9 10  2  0
  9 11  1  0
 11 12  1  1
 11 13  1  0
 13 14  1  0
 14 15  1  0
 14 16  2  0
 16 17  1  0
 17 18  2  0
 18 19  1  0
 19 20  1  0
 20 21  1  0
 21 22  3  0
  7 23  1  0
 23 24  1  0
 24 25  1  0
 24 26  2  0
 26 27  1  0
 26  6  1  0
 18 13  1  0
M  END
>  <Compound_ID>  (108) 
C40173473

>  <Active>  (108) 
0

>  <Smiles>  (108) 
CCOC(=O)c1c(NC(=O)[C@@H](C)n2c(N)nnc2SCC#N)sc(C)c1C

>  <canonical_smi>  (108) 
CCOC(=O)c1c(NC(=O)[C@@H](C)n2c(N)nnc2SCC#N)sc(C)c1C

>  <Set>  (108) 
G2 inactive

>  <Set_type>  (108) 
Train

>  <MW>  (108) 
408.51

>  <HBD>  (108) 
2

>  <HBA>  (108) 
8

>  <NRB>  (108) 
7

>  <NR>  (108) 
2

>  <NAR>  (108) 
2

>  <PSA>  (108) 
135.92

>  <Standard Type>  (108) 
nan

>  <Standard Relation>  (108) 
nan

>  <Standard Units>  (108) 
nan

>  <Standard Value>  (108) 
nan

>  <Assay ChEMBL ID>  (108) 
nan

>  <Assay Description>  (108) 
nan

>  <BAO Label>  (108) 
nan

$$$$

     RDKit          2D

 21 23  0  0  0  0  0  0  0  0999 V2000
    1.5000   -5.1962    0.0000 C   0  0  0  0  0  0  0  0  0  0  0  0
    0.7500   -3.8971    0.0000 C   0  0  0  0  0  0  0  0  0  0  0  0
   -0.7500   -3.8971    0.0000 C   0  0  0  0  0  0  0  0  0  0  0  0
   -1.5000   -5.1962    0.0000 C   0  0  0  0  0  0  0  0  0  0  0  0
   -0.8899   -6.5665    0.0000 C   0  0  0  0  0  0  0  0  0  0  0  0
   -2.0046   -7.5702    0.0000 C   0  0  0  0  0  0  0  0  0  0  0  0
   -3.3037   -6.8202    0.0000 C   0  0  0  0  0  0  0  0  0  0  0  0
   -2.9918   -5.3529    0.0000 O   0  0  0  0  0  0  0  0  0  0  0  0
    1.5000   -2.5981    0.0000 N   0  0  0  0  0  0  0  0  0  0  0  0
    0.7500   -1.2990    0.0000 C   0  0  0  0  0  0  0  0  0  0  0  0
    1.5000    0.0000    0.0000 C   0  0  0  0  0  0  0  0  0  0  0  0
    0.7500    1.2990    0.0000 C   0  0  0  0  0  0  0  0  0  0  0  0
   -0.7500    1.2990    0.0000 C   0  0  0  0  0  0  0  0  0  0  0  0
   -1.5000    0.0000    0.0000 C   0  0  0  0  0  0  0  0  0  0  0  0
   -3.0000    0.0000    0.0000 C   0  0  0  0  0  0  0  0  0  0  0  0
   -3.8817   -1.2135    0.0000 N   0  0  0  0  0  0  0  0  0  0  0  0
   -5.3083   -0.7500    0.0000 N   0  0  0  0  0  0  0  0  0  0  0  0
   -5.3083    0.7500    0.0000 C   0  0  0  0  0  0  0  0  0  0  0  0
   -3.8817    1.2135    0.0000 N   0  0  0  0  0  0  0  0  0  0  0  0
   -3.4182    2.6401    0.0000 C   0  0  0  0  0  0  0  0  0  0  0  0
   -0.7500   -1.2990    0.0000 C   0  0  0  0  0  0  0  0  0  0  0  0
  2  1  1  6
  2  3  1  0
  3  4  1  0
  4  5  2  0
  5  6  1  0
  6  7  2  0
  7  8  1  0
  2  9  1  0
  9 10  1  0
 10 11  2  0
 11 12  1  0
 12 13  2  0
 13 14  1  0
 14 15  1  0
 15 16  2  0
 16 17  1  0
 17 18  2  0
 18 19  1  0
 19 20  1  0
 14 21  2  0
  8  4  1  0
 21 10  1  0
 19 15  1  0
M  END
>  <Compound_ID>  (109) 
C62771522

>  <Active>  (109) 
0

>  <Smiles>  (109) 
C[C@H](Cc1ccco1)Nc1cccc(-c2nncn2C)c1

>  <canonical_smi>  (109) 
C[C@H](Cc1ccco1)Nc1cccc(-c2nncn2C)c1

>  <Set>  (109) 
G2 inactive

>  <Set_type>  (109) 
Train

>  <MW>  (109) 
282.35

>  <HBD>  (109) 
1

>  <HBA>  (109) 
4

>  <NRB>  (109) 
5

>  <NR>  (109) 
3

>  <NAR>  (109) 
3

>  <PSA>  (109) 
55.88

>  <Standard Type>  (109) 
nan

>  <Standard Relation>  (109) 
nan

>  <Standard Units>  (109) 
nan

>  <Standard Value>  (109) 
nan

>  <Assay ChEMBL ID>  (109) 
nan

>  <Assay Description>  (109) 
nan

>  <BAO Label>  (109) 
nan

$$$$

     RDKit          2D

 20 22  0  0  0  0  0  0  0  0999 V2000
    3.9285    6.3019    0.0000 C   0  0  0  0  0  0  0  0  0  0  0  0
    2.6294    5.5519    0.0000 C   0  0  0  0  0  0  0  0  0  0  0  0
    1.3304    6.3019    0.0000 C   0  0  0  0  0  0  0  0  0  0  0  0
    0.0314    5.5519    0.0000 N   0  0  0  0  0  0  0  0  0  0  0  0
   -1.2677    6.3019    0.0000 C   0  0  0  0  0  0  0  0  0  0  0  0
   -1.4245    7.7937    0.0000 S   0  0  0  0  0  0  0  0  0  0  0  0
   -2.8917    8.1056    0.0000 N   0  0  0  0  0  0  0  0  0  0  0  0
   -3.6417    6.8066    0.0000 N   0  0  0  0  0  0  0  0  0  0  0  0
   -2.6380    5.6918    0.0000 C   0  0  0  0  0  0  0  0  0  0  0  0
   -2.9499    4.2246    0.0000 C   0  0  0  0  0  0  0  0  0  0  0  0
   -1.8351    3.2209    0.0000 N   0  0  0  0  0  0  0  0  0  0  0  0
   -0.4086    3.6844    0.0000 C   0  0  0  0  0  0  0  0  0  0  0  0
    0.7062    2.6807    0.0000 N   0  0  0  0  0  0  0  0  0  0  0  0
    0.3943    1.2135    0.0000 C   0  0  0  0  0  0  0  0  0  0  0  0
    1.2760    0.0000    0.0000 C   0  0  0  0  0  0  0  0  0  0  0  0
    0.3943   -1.2135    0.0000 C   0  0  0  0  0  0  0  0  0  0  0  0
   -1.0323   -0.7500    0.0000 S   0  0  0  0  0  0  0  0  0  0  0  0
   -1.0323    0.7500    0.0000 C   0  0  0  0  0  0  0  0  0  0  0  0
   -2.1470    1.7537    0.0000 C   0  0  0  0  0  0  0  0  0  0  0  0
   -3.5736    1.2902    0.0000 O   0  0  0  0  0  0  0  0  0  0  0  0
  1  2  1  0
  2  3  1  0
  3  4  1  0
  4  5  1  0
  5  6  1  0
  6  7  1  0
  7  8  2  0
  8  9  1  0
  9 10  1  0
 10 11  1  0
 11 12  1  0
 12 13  2  0
 13 14  1  0
 14 15  1  0
 15 16  2  0
 16 17  1  0
 17 18  1  0
 18 19  1  0
 19 20  2  0
  9  5  2  0
 19 11  1  0
 18 14  2  0
M  END
>  <Compound_ID>  (110) 
C50829430

>  <Active>  (110) 
0

>  <Smiles>  (110) 
CCCNc1snnc1Cn1cnc2ccsc2c1=O

>  <canonical_smi>  (110) 
CCCNc1snnc1Cn1cnc2ccsc2c1=O

>  <Set>  (110) 
G2 inactive

>  <Set_type>  (110) 
Train

>  <MW>  (110) 
307.4

>  <HBD>  (110) 
1

>  <HBA>  (110) 
5

>  <NRB>  (110) 
5

>  <NR>  (110) 
3

>  <NAR>  (110) 
3

>  <PSA>  (110) 
72.7

>  <Standard Type>  (110) 
nan

>  <Standard Relation>  (110) 
nan

>  <Standard Units>  (110) 
nan

>  <Standard Value>  (110) 
nan

>  <Assay ChEMBL ID>  (110) 
nan

>  <Assay Description>  (110) 
nan

>  <BAO Label>  (110) 
nan

$$$$

     RDKit          2D

 21 23  0  0  0  0  0  0  0  0999 V2000
  -11.0184   -2.4947    0.0000 N   0  0  0  0  0  0  0  0  0  0  0  0
  -10.7065   -1.0275    0.0000 C   0  0  0  0  0  0  0  0  0  0  0  0
  -10.3946    0.4398    0.0000 C   0  0  0  0  0  0  0  0  0  0  0  0
  -11.5094    1.4435    0.0000 C   0  0  0  0  0  0  0  0  0  0  0  0
  -11.1975    2.9107    0.0000 C   0  0  0  0  0  0  0  0  0  0  0  0
   -9.7709    3.3742    0.0000 C   0  0  0  0  0  0  0  0  0  0  0  0
   -8.6562    2.3705    0.0000 C   0  0  0  0  0  0  0  0  0  0  0  0
   -7.2296    2.8340    0.0000 O   0  0  0  0  0  0  0  0  0  0  0  0
   -6.1149    1.8303    0.0000 C   0  0  0  0  0  0  0  0  0  0  0  0
   -4.6883    2.2939    0.0000 C   0  0  0  0  0  0  0  0  0  0  0  0
   -3.5736    1.2902    0.0000 S   0  0  0  0  0  0  0  0  0  0  0  0
   -2.1470    1.7537    0.0000 C   0  0  0  0  0  0  0  0  0  0  0  0
   -1.8351    3.2209    0.0000 N   0  0  0  0  0  0  0  0  0  0  0  0
   -0.4086    3.6844    0.0000 C   0  0  0  0  0  0  0  0  0  0  0  0
    0.7062    2.6807    0.0000 N   0  0  0  0  0  0  0  0  0  0  0  0
    0.3943    1.2135    0.0000 C   0  0  0  0  0  0  0  0  0  0  0  0
    1.2760    0.0000    0.0000 N   0  0  0  0  0  0  0  0  0  0  0  0
    0.3943   -1.2135    0.0000 C   0  0  0  0  0  0  0  0  0  0  0  0
   -1.0323   -0.7500    0.0000 N   0  0  0  0  0  0  0  0  0  0  0  0
   -1.0323    0.7500    0.0000 C   0  0  0  0  0  0  0  0  0  0  0  0
   -8.9681    0.9033    0.0000 C   0  0  0  0  0  0  0  0  0  0  0  0
  1  2  3  0
  2  3  1  0
  3  4  2  0
  4  5  1  0
  5  6  2  0
  6  7  1  0
  7  8  1  0
  8  9  1  0
  9 10  1  0
 10 11  1  0
 11 12  1  0
 12 13  2  0
 13 14  1  0
 14 15  2  0
 15 16  1  0
 16 17  1  0
 17 18  2  0
 18 19  1  0
 19 20  1  0
  7 21  2  0
 21  3  1  0
 20 12  1  0
 20 16  2  0
M  END
>  <Compound_ID>  (111) 
C51036439

>  <Active>  (111) 
0

>  <Smiles>  (111) 
N#Cc1cccc(OCCSc2ncnc3nc[nH]c23)c1

>  <canonical_smi>  (111) 
N#Cc1cccc(OCCSc2ncnc3nc[nH]c23)c1

>  <Set>  (111) 
G2 inactive

>  <Set_type>  (111) 
Train

>  <MW>  (111) 
297.34

>  <HBD>  (111) 
1

>  <HBA>  (111) 
6

>  <NRB>  (111) 
5

>  <NR>  (111) 
3

>  <NAR>  (111) 
3

>  <PSA>  (111) 
87.48

>  <Standard Type>  (111) 
nan

>  <Standard Relation>  (111) 
nan

>  <Standard Units>  (111) 
nan

>  <Standard Value>  (111) 
nan

>  <Assay ChEMBL ID>  (111) 
nan

>  <Assay Description>  (111) 
nan

>  <BAO Label>  (111) 
nan

$$$$

     RDKit          2D

 12 12  0  0  0  0  0  0  0  0999 V2000
    3.7500    1.2990    0.0000 O   0  0  0  0  0  0  0  0  0  0  0  0
    3.0000    0.0000    0.0000 C   0  0  0  0  0  0  0  0  0  0  0  0
    3.7500   -1.2990    0.0000 C   0  0  0  0  0  0  0  0  0  0  0  0
    5.2500   -1.2990    0.0000 Cl  0  0  0  0  0  0  0  0  0  0  0  0
    1.5000    0.0000    0.0000 C   0  0  0  0  0  0  0  0  0  0  0  0
    0.7500   -1.2990    0.0000 C   0  0  0  0  0  0  0  0  0  0  0  0
   -0.7500   -1.2990    0.0000 C   0  0  0  0  0  0  0  0  0  0  0  0
   -1.5000    0.0000    0.0000 C   0  0  0  0  0  0  0  0  0  0  0  0
   -0.7500    1.2990    0.0000 C   0  0  0  0  0  0  0  0  0  0  0  0
   -1.5000    2.5981    0.0000 O   0  0  0  0  0  0  0  0  0  0  0  0
    0.7500    1.2990    0.0000 C   0  0  0  0  0  0  0  0  0  0  0  0
    1.5000    2.5981    0.0000 O   0  0  0  0  0  0  0  0  0  0  0  0
  1  2  2  0
  2  3  1  0
  3  4  1  0
  2  5  1  0
  5  6  2  0
  6  7  1  0
  7  8  2  0
  8  9  1  0
  9 10  1  0
  9 11  2  0
 11 12  1  0
 11  5  1  0
M  END
>  <Compound_ID>  (112) 
C06091710

>  <Active>  (112) 
0

>  <Smiles>  (112) 
O=C(CCl)c1cccc(O)c1O

>  <canonical_smi>  (112) 
O=C(CCl)c1cccc(O)c1O

>  <Set>  (112) 
G2 inactive

>  <Set_type>  (112) 
Train

>  <MW>  (112) 
186.59

>  <HBD>  (112) 
2

>  <HBA>  (112) 
3

>  <NRB>  (112) 
2

>  <NR>  (112) 
1

>  <NAR>  (112) 
1

>  <PSA>  (112) 
57.53

>  <Standard Type>  (112) 
nan

>  <Standard Relation>  (112) 
nan

>  <Standard Units>  (112) 
nan

>  <Standard Value>  (112) 
nan

>  <Assay ChEMBL ID>  (112) 
nan

>  <Assay Description>  (112) 
nan

>  <BAO Label>  (112) 
nan

$$$$

     RDKit          2D

 12 12  0  0  0  0  0  0  0  0999 V2000
    2.8817   -4.9418    0.0000 C   0  0  0  0  0  0  0  0  0  0  0  0
    3.1935   -3.4746    0.0000 C   0  0  0  0  0  0  0  0  0  0  0  0
    2.0788   -2.4709    0.0000 C   0  0  0  0  0  0  0  0  0  0  0  0
    2.3907   -1.0037    0.0000 C   0  0  0  0  0  0  0  0  0  0  0  0
    1.2760    0.0000    0.0000 C   0  0  0  0  0  0  0  0  0  0  0  0
    2.3907    1.0037    0.0000 C   0  0  0  0  0  0  0  0  0  0  0  0
    0.3943    1.2135    0.0000 N   0  0  0  0  0  0  0  0  0  0  0  0
   -1.0323    0.7500    0.0000 C   0  0  0  0  0  0  0  0  0  0  0  0
   -2.2458    1.6317    0.0000 S   0  0  0  0  0  0  0  0  0  0  0  0
   -1.0323   -0.7500    0.0000 N   0  0  0  0  0  0  0  0  0  0  0  0
   -2.2458   -1.6317    0.0000 C   0  0  0  0  0  0  0  0  0  0  0  0
    0.3943   -1.2135    0.0000 N   0  0  0  0  0  0  0  0  0  0  0  0
  1  2  1  0
  2  3  1  0
  3  4  1  0
  4  5  1  0
  5  6  1  1
  5  7  1  0
  7  8  1  0
  8  9  2  0
  8 10  1  0
 10 11  1  0
 10 12  1  0
 12  5  1  0
M  END
>  <Compound_ID>  (113) 
C02190583

>  <Active>  (113) 
0

>  <Smiles>  (113) 
CCCC[C@@]1(C)NC(=S)N(C)N1

>  <canonical_smi>  (113) 
CCCC[C@@]1(C)NC(=S)N(C)N1

>  <Set>  (113) 
G2 inactive

>  <Set_type>  (113) 
Train

>  <MW>  (113) 
187.31

>  <HBD>  (113) 
2

>  <HBA>  (113) 
4

>  <NRB>  (113) 
3

>  <NR>  (113) 
1

>  <NAR>  (113) 
0

>  <PSA>  (113) 
27.3

>  <Standard Type>  (113) 
nan

>  <Standard Relation>  (113) 
nan

>  <Standard Units>  (113) 
nan

>  <Standard Value>  (113) 
nan

>  <Assay ChEMBL ID>  (113) 
nan

>  <Assay Description>  (113) 
nan

>  <BAO Label>  (113) 
nan

$$$$

     RDKit          2D

 13 14  0  0  0  0  0  0  0  0999 V2000
    3.7500    1.2990    0.0000 O   0  0  0  0  0  0  0  0  0  0  0  0
    3.0000    0.0000    0.0000 C   0  0  0  0  0  0  0  0  0  0  0  0
    3.7500   -1.2990    0.0000 O   0  0  0  0  0  1  0  0  0  0  0  0
    1.5000    0.0000    0.0000 C   0  0  0  0  0  0  0  0  0  0  0  0
    0.7500   -1.2990    0.0000 C   0  0  0  0  0  0  0  0  0  0  0  0
   -0.7500   -1.2990    0.0000 C   0  0  0  0  0  0  0  0  0  0  0  0
   -1.5000    0.0000    0.0000 C   0  0  0  0  0  0  0  0  0  0  0  0
   -0.7500    1.2990    0.0000 C   0  0  0  0  0  0  0  0  0  0  0  0
    0.7500    1.2990    0.0000 C   0  0  0  0  0  0  0  0  0  0  0  0
    1.5000    2.5981    0.0000 N   0  0  0  0  0  4  0  0  0  0  0  0
    0.7500    3.8971    0.0000 C   0  0  0  0  0  0  0  0  0  0  0  0
   -0.5490    4.6471    0.0000 C   0  0  0  0  0  0  0  0  0  0  0  0
    0.7500    5.3971    0.0000 C   0  0  0  0  0  0  0  0  0  0  0  0
  1  2  2  0
  2  3  1  0
  4  2  1  6
  4  5  1  0
  5  6  1  0
  6  7  1  0
  7  8  1  0
  8  9  1  0
  9 10  1  6
 10 11  1  0
 11 12  1  0
 12 13  1  0
  9  4  1  0
 13 11  1  0
M  CHG  2   3  -1  10   1
M  END
>  <Compound_ID>  (114) 
C08698793

>  <Active>  (114) 
0

>  <Smiles>  (114) 
O=C([O-])[C@@H]1CCCC[C@@H]1[NH2+]C1CC1

>  <canonical_smi>  (114) 
O=C([O-])[C@@H]1CCCC[C@@H]1[NH2+]C1CC1

>  <Set>  (114) 
G2 inactive

>  <Set_type>  (114) 
Train

>  <MW>  (114) 
183.25

>  <HBD>  (114) 
1

>  <HBA>  (114) 
2

>  <NRB>  (114) 
3

>  <NR>  (114) 
2

>  <NAR>  (114) 
0

>  <PSA>  (114) 
56.74

>  <Standard Type>  (114) 
nan

>  <Standard Relation>  (114) 
nan

>  <Standard Units>  (114) 
nan

>  <Standard Value>  (114) 
nan

>  <Assay ChEMBL ID>  (114) 
nan

>  <Assay Description>  (114) 
nan

>  <BAO Label>  (114) 
nan

$$$$

     RDKit          2D

 14 15  0  0  0  0  0  0  0  0999 V2000
    3.0000    0.0000    0.0000 N   0  0  0  0  0  0  0  0  0  0  0  0
    1.5000    0.0000    0.0000 C   0  0  0  0  0  0  0  0  0  0  0  0
    0.7500   -1.2990    0.0000 C   0  0  0  0  0  0  0  0  0  0  0  0
   -0.7500   -1.2990    0.0000 C   0  0  0  0  0  0  0  0  0  0  0  0
   -1.5000   -2.5981    0.0000 F   0  0  0  0  0  0  0  0  0  0  0  0
   -1.5000    0.0000    0.0000 C   0  0  0  0  0  0  0  0  0  0  0  0
   -0.7500    1.2990    0.0000 C   0  0  0  0  0  0  0  0  0  0  0  0
    0.7500    1.2990    0.0000 C   0  0  0  0  0  0  0  0  0  0  0  0
    1.5000    2.5981    0.0000 S   0  0  0  0  0  0  0  0  0  0  0  0
    0.7500    3.8971    0.0000 C   0  0  0  0  0  0  0  0  0  0  0  0
   -0.7418    4.0539    0.0000 N   0  0  0  0  0  0  0  0  0  0  0  0
   -1.0537    5.5211    0.0000 N   0  0  0  0  0  0  0  0  0  0  0  0
    0.2454    6.2711    0.0000 C   0  0  0  0  0  0  0  0  0  0  0  0
    1.3601    5.2674    0.0000 S   0  0  0  0  0  0  0  0  0  0  0  0
  1  2  1  0
  2  3  2  0
  3  4  1  0
  4  5  1  0
  4  6  2  0
  6  7  1  0
  7  8  2  0
  8  9  1  0
  9 10  1  0
 10 11  2  0
 11 12  1  0
 12 13  2  0
 13 14  1  0
  8  2  1  0
 14 10  1  0
M  END
>  <Compound_ID>  (115) 
C19869401

>  <Active>  (115) 
0

>  <Smiles>  (115) 
Nc1cc(F)ccc1Sc1nncs1

>  <canonical_smi>  (115) 
Nc1cc(F)ccc1Sc1nncs1

>  <Set>  (115) 
G2 inactive

>  <Set_type>  (115) 
Train

>  <MW>  (115) 
227.29

>  <HBD>  (115) 
1

>  <HBA>  (115) 
4

>  <NRB>  (115) 
2

>  <NR>  (115) 
2

>  <NAR>  (115) 
2

>  <PSA>  (115) 
51.8

>  <Standard Type>  (115) 
nan

>  <Standard Relation>  (115) 
nan

>  <Standard Units>  (115) 
nan

>  <Standard Value>  (115) 
nan

>  <Assay ChEMBL ID>  (115) 
nan

>  <Assay Description>  (115) 
nan

>  <BAO Label>  (115) 
nan

$$$$

     RDKit          2D

 14 15  0  0  0  0  0  0  0  0999 V2000
   -3.7500   -6.4952    0.0000 C   0  0  0  0  0  0  0  0  0  0  0  0
   -3.0000   -5.1962    0.0000 C   0  0  0  0  0  0  0  0  0  0  0  0
   -1.5000   -5.1962    0.0000 S   0  0  0  0  0  0  0  0  0  0  0  0
   -0.7500   -3.8971    0.0000 C   0  0  0  0  0  0  0  0  0  0  0  0
   -1.5000   -2.5981    0.0000 C   0  0  0  0  0  0  0  0  0  0  0  0
   -0.7500   -1.2990    0.0000 C   0  0  0  0  0  0  0  0  0  0  0  0
    0.7500   -1.2990    0.0000 C   0  0  0  0  0  0  0  0  0  0  0  0
    1.5000   -2.5981    0.0000 C   0  0  0  0  0  0  0  0  0  0  0  0
    0.7500   -3.8971    0.0000 C   0  0  0  0  0  0  0  0  0  0  0  0
    1.5000   -5.1962    0.0000 N   0  0  0  0  0  0  0  0  0  0  0  0
    1.5000    0.0000    0.0000 O   0  0  0  0  0  0  0  0  0  0  0  0
    0.7500    1.2990    0.0000 C   0  0  0  0  0  0  0  0  0  0  0  0
   -0.7500    1.2990    0.0000 C   0  0  0  0  0  0  0  0  0  0  0  0
   -1.5000    0.0000    0.0000 O   0  0  0  0  0  0  0  0  0  0  0  0
  1  2  1  0
  2  3  1  0
  3  4  1  0
  4  5  2  0
  5  6  1  0
  6  7  2  0
  7  8  1  0
  8  9  2  0
  9 10  1  0
  7 11  1  0
 11 12  1  0
 12 13  1  0
 13 14  1  0
  9  4  1  0
 14  6  1  0
M  END
>  <Compound_ID>  (116) 
C19869645

>  <Active>  (116) 
0

>  <Smiles>  (116) 
CCSc1cc2c(cc1N)OCCO2

>  <canonical_smi>  (116) 
CCSc1cc2c(cc1N)OCCO2

>  <Set>  (116) 
G2 inactive

>  <Set_type>  (116) 
Train

>  <MW>  (116) 
211.29

>  <HBD>  (116) 
1

>  <HBA>  (116) 
4

>  <NRB>  (116) 
2

>  <NR>  (116) 
2

>  <NAR>  (116) 
1

>  <PSA>  (116) 
44.48

>  <Standard Type>  (116) 
nan

>  <Standard Relation>  (116) 
nan

>  <Standard Units>  (116) 
nan

>  <Standard Value>  (116) 
nan

>  <Assay ChEMBL ID>  (116) 
nan

>  <Assay Description>  (116) 
nan

>  <BAO Label>  (116) 
nan

$$$$

     RDKit          2D

 25 26  0  0  0  0  0  0  0  0999 V2000
   -4.5205   -8.7470    0.0000 C   0  0  0  0  0  0  0  0  0  0  0  0
   -4.2600   -7.2698    0.0000 C   0  0  0  0  0  0  0  0  0  0  0  0
   -2.8505   -6.7567    0.0000 C   0  0  0  0  0  0  0  0  0  0  0  0
   -2.5900   -5.2795    0.0000 C   0  0  0  0  0  0  0  0  0  0  0  0
   -1.1805   -4.7665    0.0000 N   0  0  0  0  0  0  0  0  0  0  0  0
   -0.9200   -3.2893    0.0000 C   0  0  0  0  0  0  0  0  0  0  0  0
   -2.0691   -2.3251    0.0000 O   0  0  0  0  0  0  0  0  0  0  0  0
    0.4895   -2.7762    0.0000 N   0  0  0  0  0  0  0  0  0  0  0  0
    0.7500   -1.2990    0.0000 C   0  0  0  0  0  0  0  0  0  0  0  0
    2.1595   -1.8121    0.0000 C   0  0  0  0  0  0  0  0  0  0  0  0
    3.3086   -0.8479    0.0000 O   0  0  0  0  0  0  0  0  0  0  0  0
    2.4200   -3.2893    0.0000 N   0  0  0  0  0  0  0  0  0  0  0  0
    3.8296   -3.8023    0.0000 C   0  0  0  0  0  0  0  0  0  0  0  0
    4.0900   -5.2795    0.0000 C   0  0  0  0  0  0  0  0  0  0  0  0
    5.4996   -5.7926    0.0000 C   0  0  0  0  0  0  0  0  0  0  0  0
    6.9768   -5.5321    0.0000 C   0  0  0  0  0  0  0  0  0  0  0  0
    6.4637   -6.9416    0.0000 C   0  0  0  0  0  0  0  0  0  0  0  0
    2.9410   -6.2437    0.0000 N   0  0  0  0  0  4  0  0  0  0  0  0
    3.2014   -7.7209    0.0000 C   0  0  0  0  0  0  0  0  0  0  0  0
    1.5314   -5.7307    0.0000 C   0  0  0  0  0  0  0  0  0  0  0  0
    1.5000    0.0000    0.0000 C   0  0  0  0  0  0  0  0  0  0  0  0
    0.7500    1.2990    0.0000 C   0  0  0  0  0  0  0  0  0  0  0  0
   -0.7500    1.2990    0.0000 C   0  0  0  0  0  0  0  0  0  0  0  0
   -1.5000    0.0000    0.0000 C   0  0  0  0  0  0  0  0  0  0  0  0
   -0.7500   -1.2990    0.0000 C   0  0  0  0  0  0  0  0  0  0  0  0
  1  2  1  0
  2  3  1  0
  3  4  1  0
  4  5  1  0
  5  6  1  0
  6  7  2  0
  6  8  1  0
  8  9  1  0
  9 10  1  0
 10 11  2  0
 10 12  1  0
 12 13  1  0
 14 13  1  1
 14 15  1  0
 15 16  1  0
 16 17  1  0
 14 18  1  0
 18 19  1  0
 18 20  1  0
  9 21  1  0
 21 22  1  0
 22 23  1  0
 23 24  1  0
 24 25  1  0
 25  9  1  0
 17 15  1  0
M  CHG  1  18   1
M  END
>  <Compound_ID>  (117) 
C64299893

>  <Active>  (117) 
0

>  <Smiles>  (117) 
CCCCNC(=O)NC1(C(=O)NC[C@@H](C2CC2)[NH+](C)C)CCCCC1

>  <canonical_smi>  (117) 
CCCCNC(=O)NC1(C(=O)NC[C@@H](C2CC2)[NH+](C)C)CCCCC1

>  <Set>  (117) 
G2 inactive

>  <Set_type>  (117) 
Train

>  <MW>  (117) 
353.53

>  <HBD>  (117) 
4

>  <HBA>  (117) 
2

>  <NRB>  (117) 
9

>  <NR>  (117) 
2

>  <NAR>  (117) 
0

>  <PSA>  (117) 
74.67

>  <Standard Type>  (117) 
nan

>  <Standard Relation>  (117) 
nan

>  <Standard Units>  (117) 
nan

>  <Standard Value>  (117) 
nan

>  <Assay ChEMBL ID>  (117) 
nan

>  <Assay Description>  (117) 
nan

>  <BAO Label>  (117) 
nan

$$$$

     RDKit          2D

 24 26  0  0  0  0  0  0  0  0999 V2000
    3.0000    0.0000    0.0000 C   0  0  0  0  0  0  0  0  0  0  0  0
    1.5000    0.0000    0.0000 C   0  0  0  0  0  0  0  0  0  0  0  0
    0.7500   -1.2990    0.0000 C   0  0  0  0  0  0  0  0  0  0  0  0
   -0.7500   -1.2990    0.0000 C   0  0  0  0  0  0  0  0  0  0  0  0
   -1.5000    0.0000    0.0000 C   0  0  0  0  0  0  0  0  0  0  0  0
   -0.7500    1.2990    0.0000 C   0  0  0  0  0  0  0  0  0  0  0  0
   -1.5000    2.5981    0.0000 O   0  0  0  0  0  0  0  0  0  0  0  0
    0.7500    1.2990    0.0000 N   0  0  0  0  0  0  0  0  0  0  0  0
   -3.0000    0.0000    0.0000 C   0  0  0  0  0  0  0  0  0  0  0  0
   -3.7500    1.2990    0.0000 C   0  0  0  0  0  0  0  0  0  0  0  0
   -3.0000    2.5981    0.0000 C   0  0  0  0  0  0  0  0  0  0  0  0
   -3.7500    3.8971    0.0000 C   0  0  0  0  0  0  0  0  0  0  0  0
   -5.2500    3.8971    0.0000 C   0  0  0  0  0  0  0  0  0  0  0  0
   -6.0000    5.1962    0.0000 N   0  0  0  0  0  4  0  0  0  0  0  0
   -7.5000    5.1962    0.0000 O   0  0  0  0  0  0  0  0  0  0  0  0
   -5.2500    6.4952    0.0000 O   0  0  0  0  0  1  0  0  0  0  0  0
   -6.0000    2.5981    0.0000 C   0  0  0  0  0  0  0  0  0  0  0  0
   -5.2500    1.2990    0.0000 C   0  0  0  0  0  0  0  0  0  0  0  0
   -3.7500   -1.2990    0.0000 C   0  0  0  0  0  0  0  0  0  0  0  0
   -5.2500   -1.2990    0.0000 C   0  0  0  0  0  0  0  0  0  0  0  0
   -6.7500   -1.2990    0.0000 N   0  0  0  0  0  0  0  0  0  0  0  0
   -3.0000   -2.5981    0.0000 C   0  0  0  0  0  0  0  0  0  0  0  0
   -3.7500   -3.8971    0.0000 N   0  0  0  0  0  0  0  0  0  0  0  0
   -1.5000   -2.5981    0.0000 O   0  0  0  0  0  0  0  0  0  0  0  0
  1  2  1  0
  2  3  2  0
  3  4  1  0
  4  5  2  0
  5  6  1  0
  6  7  2  0
  6  8  1  0
  5  9  1  0
  9 10  1  6
 10 11  2  0
 11 12  1  0
 12 13  2  0
 13 14  1  0
 14 15  2  0
 14 16  1  0
 13 17  1  0
 17 18  2  0
  9 19  1  0
 19 20  1  0
 20 21  3  0
 19 22  2  0
 22 23  1  0
 22 24  1  0
  8  2  1  0
 18 10  1  0
 24  4  1  0
M  CHG  2  14   1  16  -1
M  END
>  <Compound_ID>  (118) 
C04262779

>  <Active>  (118) 
0

>  <Smiles>  (118) 
Cc1cc2c(c(=O)[nH]1)[C@@H](c1ccc([N+](=O)[O-])cc1)C(C#N)=C(N)O2

>  <canonical_smi>  (118) 
Cc1cc2c(c(=O)[nH]1)[C@@H](c1ccc([N+](=O)[O-])cc1)C(C#N)=C(N)O2

>  <Set>  (118) 
G2 inactive

>  <Set_type>  (118) 
Train

>  <MW>  (118) 
324.3

>  <HBD>  (118) 
2

>  <HBA>  (118) 
6

>  <NRB>  (118) 
2

>  <NR>  (118) 
3

>  <NAR>  (118) 
2

>  <PSA>  (118) 
135.04

>  <Standard Type>  (118) 
nan

>  <Standard Relation>  (118) 
nan

>  <Standard Units>  (118) 
nan

>  <Standard Value>  (118) 
nan

>  <Assay ChEMBL ID>  (118) 
nan

>  <Assay Description>  (118) 
nan

>  <BAO Label>  (118) 
nan

$$$$

     RDKit          2D

 26 29  0  0  0  0  0  0  0  0999 V2000
   -9.0323    4.3118    0.0000 C   0  0  0  0  0  0  0  0  0  0  0  0
   -7.5405    4.1551    0.0000 C   0  0  0  0  0  0  0  0  0  0  0  0
   -6.9304    2.7847    0.0000 O   0  0  0  0  0  3  0  0  0  0  0  0
   -6.6589    5.3686    0.0000 N   0  0  0  0  0  0  0  0  0  0  0  0
   -5.1671    5.2118    0.0000 C   0  0  0  0  0  0  0  0  0  0  0  0
   -4.4171    3.9127    0.0000 N   0  0  0  0  0  0  0  0  0  0  0  0
   -2.9499    4.2246    0.0000 C   0  0  0  0  0  0  0  0  0  0  0  0
   -1.8351    3.2209    0.0000 C   0  0  0  0  0  0  0  0  0  0  0  0
   -0.4086    3.6844    0.0000 C   0  0  0  0  0  0  0  0  0  0  0  0
    0.7062    2.6807    0.0000 C   0  0  0  0  0  0  0  0  0  0  0  0
    0.3943    1.2135    0.0000 C   0  0  0  0  0  0  0  0  0  0  0  0
    1.2760    0.0000    0.0000 N   0  0  0  0  0  0  0  0  0  0  0  0
    0.3943   -1.2135    0.0000 C   0  0  0  0  0  0  0  0  0  0  0  0
   -1.0323   -0.7500    0.0000 N   0  0  0  0  0  0  0  0  0  0  0  0
   -1.0323    0.7500    0.0000 N   0  0  0  0  0  0  0  0  0  0  0  0
   -2.1470    1.7537    0.0000 C   0  0  0  0  0  0  0  0  0  0  0  0
   -2.7931    5.7164    0.0000 C   0  0  0  0  0  0  0  0  0  0  0  0
   -1.4940    6.4664    0.0000 C   0  0  0  0  0  0  0  0  0  0  0  0
   -0.1950    5.7164    0.0000 C   0  0  0  0  0  0  0  0  0  0  0  0
    1.1041    6.4664    0.0000 C   0  0  0  0  0  0  0  0  0  0  0  0
    1.1041    7.9664    0.0000 C   0  0  0  0  0  0  0  0  0  0  0  0
    2.4031    8.7164    0.0000 F   0  0  0  0  0  0  0  0  0  0  0  0
   -0.1950    8.7164    0.0000 C   0  0  0  0  0  0  0  0  0  0  0  0
   -0.1950   10.2164    0.0000 C   0  0  0  0  0  0  0  0  0  0  0  0
   -1.4940    7.9664    0.0000 N   0  0  0  0  0  0  0  0  0  0  0  0
   -4.1634    6.3265    0.0000 N   0  0  0  0  0  0  0  0  0  0  0  0
  1  2  1  0
  2  3  2  0
  2  4  1  0
  4  5  2  0
  5  6  1  0
  6  7  1  0
  7  8  1  0
  8  9  1  0
  9 10  2  0
 10 11  1  0
 11 12  2  0
 12 13  1  0
 13 14  2  0
 14 15  1  0
 15 16  1  0
  7 17  2  0
 17 18  1  0
 18 19  2  0
 19 20  1  0
 20 21  2  0
 21 22  1  0
 21 23  1  0
 23 24  1  0
 23 25  2  0
 17 26  1  0
 26  5  1  0
 16  8  2  0
 25 18  1  0
 15 11  1  0
M  CHG  1   3   1
M  END
>  <Compound_ID>  (119) 
C40935333

>  <Active>  (119) 
0

>  <Smiles>  (119) 
CC(=[OH+])/N=c1\[nH]c(-c2ccc3ncnn3c2)c(-c2ccc(F)c(C)n2)[nH]1

>  <canonical_smi>  (119) 
CC(=[OH+])/N=c1\[nH]c(-c2ccc3ncnn3c2)c(-c2ccc(F)c(C)n2)[nH]1

>  <Set>  (119) 
G2 inactive

>  <Set_type>  (119) 
Train

>  <MW>  (119) 
352.35

>  <HBD>  (119) 
2

>  <HBA>  (119) 
3

>  <NRB>  (119) 
2

>  <NR>  (119) 
4

>  <NAR>  (119) 
4

>  <PSA>  (119) 
108.42

>  <Standard Type>  (119) 
nan

>  <Standard Relation>  (119) 
nan

>  <Standard Units>  (119) 
nan

>  <Standard Value>  (119) 
nan

>  <Assay ChEMBL ID>  (119) 
nan

>  <Assay Description>  (119) 
nan

>  <BAO Label>  (119) 
nan

$$$$

     RDKit          2D

 26 30  0  0  0  0  0  0  0  0999 V2000
    8.0346   -3.5760    0.0000 O   0  0  0  0  0  0  0  0  0  0  0  0
    6.9199   -4.5797    0.0000 C   0  0  0  0  0  0  0  0  0  0  0  0
    7.2317   -6.0469    0.0000 C   0  0  0  0  0  0  0  0  0  0  0  0
    8.6583   -6.5105    0.0000 C   0  0  0  0  0  0  0  0  0  0  0  0
    9.1218   -7.9371    0.0000 C   0  0  0  0  0  0  0  0  0  0  0  0
   10.6218   -7.9371    0.0000 N   0  0  0  0  0  0  0  0  0  0  0  0
   11.8354   -8.8187    0.0000 C   0  0  0  0  0  0  0  0  0  0  0  0
   13.0489   -7.9371    0.0000 C   0  0  0  0  0  0  0  0  0  0  0  0
   12.5854   -6.5105    0.0000 S   0  0  0  0  0  0  0  0  0  0  0  0
   11.0854   -6.5105    0.0000 C   0  0  0  0  0  0  0  0  0  0  0  0
    9.8718   -5.6288    0.0000 N   0  0  0  0  0  0  0  0  0  0  0  0
    5.4933   -4.1162    0.0000 N   0  0  0  0  0  0  0  0  0  0  0  0
    5.1814   -2.6490    0.0000 C   0  0  0  0  0  0  0  0  0  0  0  0
    3.7548   -2.1855    0.0000 C   0  0  0  0  0  0  0  0  0  0  0  0
    2.6401   -3.1891    0.0000 C   0  0  0  0  0  0  0  0  0  0  0  0
    1.2135   -2.7256    0.0000 C   0  0  0  0  0  0  0  0  0  0  0  0
    0.7500   -1.2990    0.0000 C   0  0  0  0  0  0  0  0  0  0  0  0
    1.5000    0.0000    0.0000 C   0  0  0  0  0  0  0  0  0  0  0  0
    0.7500    1.2990    0.0000 C   0  0  0  0  0  0  0  0  0  0  0  0
   -0.7500    1.2990    0.0000 C   0  0  0  0  0  0  0  0  0  0  0  0
   -1.5000    0.0000    0.0000 N   0  0  0  0  0  0  0  0  0  0  0  0
   -0.7500   -1.2990    0.0000 C   0  0  0  0  0  0  0  0  0  0  0  0
   -1.2135   -2.7256    0.0000 N   0  0  0  0  0  4  0  0  0  0  0  0
    0.0000   -3.6073    0.0000 C   0  0  0  0  0  0  0  0  0  0  0  0
    2.9520   -4.6564    0.0000 C   0  0  0  0  0  0  0  0  0  0  0  0
    4.3786   -5.1199    0.0000 C   0  0  0  0  0  0  0  0  0  0  0  0
  1  2  2  0
  2  3  1  0
  3  4  2  0
  4  5  1  0
  5  6  1  0
  6  7  1  0
  7  8  2  0
  8  9  1  0
  9 10  1  0
 10 11  1  1
  2 12  1  0
 12 13  1  0
 13 14  1  0
 14 15  2  0
 15 16  1  0
 16 17  2  0
 17 18  1  0
 18 19  2  0
 19 20  1  0
 20 21  2  0
 21 22  1  0
 22 23  2  0
 23 24  1  0
 15 25  1  0
 25 26  1  0
 11  4  1  0
 26 12  1  0
 10  6  1  0
 24 16  1  0
 22 17  1  0
M  CHG  1  23   1
M  END
>  <Compound_ID>  (120) 
C64028533

>  <Active>  (120) 
0

>  <Smiles>  (120) 
O=C(/C=C1/CN2C=CS[C@@H]2N1)N1CC=C(C2=c3cccnc3=[NH+]C2)CC1

>  <canonical_smi>  (120) 
O=C(/C=C1/CN2C=CS[C@@H]2N1)N1CC=C(C2=c3cccnc3=[NH+]C2)CC1

>  <Set>  (120) 
G2 inactive

>  <Set_type>  (120) 
Train

>  <MW>  (120) 
366.47

>  <HBD>  (120) 
2

>  <HBA>  (120) 
5

>  <NRB>  (120) 
2

>  <NR>  (120) 
5

>  <NAR>  (120) 
1

>  <PSA>  (120) 
62.44

>  <Standard Type>  (120) 
nan

>  <Standard Relation>  (120) 
nan

>  <Standard Units>  (120) 
nan

>  <Standard Value>  (120) 
nan

>  <Assay ChEMBL ID>  (120) 
nan

>  <Assay Description>  (120) 
nan

>  <BAO Label>  (120) 
nan

$$$$

     RDKit          2D

 24 28  0  0  0  0  0  0  0  0999 V2000
    3.7500   -1.2990    0.0000 C   0  0  0  0  0  0  0  0  0  0  0  0
    3.0000    0.0000    0.0000 C   0  0  0  0  0  0  0  0  0  0  0  0
    3.7500    1.2990    0.0000 C   0  0  0  0  0  0  0  0  0  0  0  0
    1.5000    0.0000    0.0000 C   0  0  0  0  0  0  0  0  0  0  0  0
    0.7500   -1.2990    0.0000 C   0  0  0  0  0  0  0  0  0  0  0  0
   -0.7500   -1.2990    0.0000 C   0  0  0  0  0  0  0  0  0  0  0  0
   -1.5000    0.0000    0.0000 C   0  0  0  0  0  0  0  0  0  0  0  0
   -2.9672   -0.3119    0.0000 S   0  0  0  0  0  0  0  0  0  0  0  0
   -3.1240   -1.8037    0.0000 C   0  0  0  0  0  0  0  0  0  0  0  0
   -1.7537   -2.4138    0.0000 C   0  0  0  0  0  0  0  0  0  0  0  0
   -1.5969   -3.9055    0.0000 C   0  0  0  0  0  0  0  0  0  0  0  0
   -0.3834   -4.7872    0.0000 N   0  0  0  0  0  0  0  0  0  0  0  0
   -0.8469   -6.2138    0.0000 N   0  0  0  0  0  4  0  0  0  0  0  0
   -2.3469   -6.2138    0.0000 C   0  0  0  0  0  0  0  0  0  0  0  0
   -3.2286   -7.4273    0.0000 S   0  0  0  0  0  0  0  0  0  0  0  0
   -2.8104   -4.7872    0.0000 N   0  0  0  0  0  0  0  0  0  0  0  0
   -4.1807   -4.1771    0.0000 C   0  0  0  0  0  0  0  0  0  0  0  0
   -5.5511   -4.7872    0.0000 N   0  0  0  0  0  0  0  0  0  0  0  0
   -6.5548   -3.6725    0.0000 N   0  0  0  0  0  0  0  0  0  0  0  0
   -5.8048   -2.3735    0.0000 C   0  0  0  0  0  0  0  0  0  0  0  0
   -6.4149   -1.0031    0.0000 S   0  0  0  0  0  0  0  0  0  0  0  0
   -4.3375   -2.6853    0.0000 N   0  0  0  0  0  0  0  0  0  0  0  0
   -0.7500    1.2990    0.0000 C   0  0  0  0  0  0  0  0  0  0  0  0
    0.7500    1.2990    0.0000 O   0  0  0  0  0  0  0  0  0  0  0  0
  1  2  1  0
  2  3  1  0
  4  2  1  1
  4  5  1  0
  5  6  1  0
  6  7  2  0
  7  8  1  0
  8  9  1  0
  9 10  2  0
 10 11  1  0
 11 12  1  6
 12 13  2  0
 13 14  1  0
 14 15  2  0
 14 16  1  0
 16 17  1  0
 17 18  2  0
 18 19  1  0
 19 20  1  0
 20 21  2  0
 20 22  1  0
  7 23  1  0
 23 24  1  0
 24  4  1  0
 10  6  1  0
 16 11  1  0
 22 17  1  0
 22  9  1  0
M  CHG  1  13   1
M  END
>  <Compound_ID>  (121) 
C64480193

>  <Active>  (121) 
0

>  <Smiles>  (121) 
CC(C)[C@H]1Cc2c(sc3c2[C@@H]2N=[NH+]C(=S)N2c2n[nH]c(=S)n2-3)CO1

>  <canonical_smi>  (121) 
CC(C)[C@H]1Cc2c(sc3c2[C@@H]2N=[NH+]C(=S)N2c2n[nH]c(=S)n2-3)CO1

>  <Set>  (121) 
G2 inactive

>  <Set_type>  (121) 
Train

>  <MW>  (121) 
379.52

>  <HBD>  (121) 
2

>  <HBA>  (121) 
5

>  <NRB>  (121) 
1

>  <NR>  (121) 
5

>  <NAR>  (121) 
2

>  <PSA>  (121) 
72.41

>  <Standard Type>  (121) 
nan

>  <Standard Relation>  (121) 
nan

>  <Standard Units>  (121) 
nan

>  <Standard Value>  (121) 
nan

>  <Assay ChEMBL ID>  (121) 
nan

>  <Assay Description>  (121) 
nan

>  <BAO Label>  (121) 
nan

$$$$

     RDKit          2D

 20 22  0  0  0  0  0  0  0  0999 V2000
    3.2286   -0.0000    0.0000 O   0  0  0  0  0  0  0  0  0  0  0  0
    1.7286    0.0000    0.0000 C   0  0  0  0  0  0  0  0  0  0  0  0
    1.0777    1.3515    0.0000 C   0  0  0  0  0  0  0  0  0  0  0  0
   -0.3846    1.6852    0.0000 C   0  0  0  0  0  0  0  0  0  0  0  0
   -1.5574    0.7500    0.0000 N   0  0  0  0  0  4  0  0  0  0  0  0
   -2.9088    1.4008    0.0000 C   0  0  0  0  0  0  0  0  0  0  0  0
   -3.0209    2.8966    0.0000 C   0  0  0  0  0  0  0  0  0  0  0  0
   -4.2970    3.6852    0.0000 N   0  0  0  0  0  0  0  0  0  0  0  0
   -3.9413    5.1424    0.0000 C   0  0  0  0  0  0  0  0  0  0  0  0
   -4.9112    6.2866    0.0000 C   0  0  0  0  0  0  0  0  0  0  0  0
   -6.4070    6.1745    0.0000 C   0  0  0  0  0  0  0  0  0  0  0  0
   -6.9759    7.5625    0.0000 C   0  0  0  0  0  0  0  0  0  0  0  0
   -8.4331    7.9181    0.0000 Br  0  0  0  0  0  0  0  0  0  0  0  0
   -5.8316    8.5324    0.0000 C   0  0  0  0  0  0  0  0  0  0  0  0
   -4.5556    7.7439    0.0000 S   0  0  0  0  0  0  0  0  0  0  0  0
   -2.4455    5.2545    0.0000 N   0  0  0  0  0  0  0  0  0  0  0  0
   -1.8767    3.8665    0.0000 O   0  0  0  0  0  0  0  0  0  0  0  0
   -1.5574   -0.7500    0.0000 C   0  0  0  0  0  0  0  0  0  0  0  0
   -0.3846   -1.6852    0.0000 C   0  0  0  0  0  0  0  0  0  0  0  0
    1.0777   -1.3515    0.0000 N   0  0  0  0  0  0  0  0  0  0  0  0
  1  2  2  0
  2  3  1  0
  3  4  1  0
  4  5  1  0
  5  6  1  0
  6  7  1  0
  7  8  2  0
  8  9  1  0
  9 10  1  0
 10 11  2  0
 11 12  1  0
 12 13  1  0
 12 14  2  0
 14 15  1  0
  9 16  2  0
 16 17  1  0
  5 18  1  0
 18 19  1  0
 19 20  1  0
 20  2  1  0
 17  7  1  0
 15 10  1  0
M  CHG  1   5   1
M  END
>  <Compound_ID>  (122) 
C65954533

>  <Active>  (122) 
0

>  <Smiles>  (122) 
O=C1CC[NH+](Cc2nc(-c3cc(Br)cs3)no2)CCN1

>  <canonical_smi>  (122) 
O=C1CC[NH+](Cc2nc(-c3cc(Br)cs3)no2)CCN1

>  <Set>  (122) 
G2 inactive

>  <Set_type>  (122) 
Train

>  <MW>  (122) 
358.24

>  <HBD>  (122) 
2

>  <HBA>  (122) 
4

>  <NRB>  (122) 
3

>  <NR>  (122) 
3

>  <NAR>  (122) 
2

>  <PSA>  (122) 
72.46

>  <Standard Type>  (122) 
nan

>  <Standard Relation>  (122) 
nan

>  <Standard Units>  (122) 
nan

>  <Standard Value>  (122) 
nan

>  <Assay ChEMBL ID>  (122) 
nan

>  <Assay Description>  (122) 
nan

>  <BAO Label>  (122) 
nan

$$$$

     RDKit          2D

 19 22  0  0  0  0  0  0  0  0999 V2000
   -1.2114    6.1554    0.0000 O   0  0  0  0  0  0  0  0  0  0  0  0
   -0.0967    5.1517    0.0000 C   0  0  0  0  0  0  0  0  0  0  0  0
    1.3299    5.6152    0.0000 N   0  0  0  0  0  0  0  0  0  0  0  0
    1.6418    7.0824    0.0000 C   0  0  0  0  0  0  0  0  0  0  0  0
    0.6381    8.1971    0.0000 C   0  0  0  0  0  0  0  0  0  0  0  0
    1.3881    9.4962    0.0000 C   0  0  0  0  0  0  0  0  0  0  0  0
    1.5449    8.0044    0.0000 C   0  0  0  0  0  0  0  0  0  0  0  0
    3.0121    7.6925    0.0000 C   0  0  0  0  0  0  0  0  0  0  0  0
    3.7621    8.9916    0.0000 C   0  0  0  0  0  0  0  0  0  0  0  0
    2.7584   10.1063    0.0000 N   0  0  0  0  0  4  0  0  0  0  0  0
   -0.4086    3.6844    0.0000 C   0  0  0  0  0  0  0  0  0  0  0  0
    0.7062    2.6807    0.0000 C   0  0  0  0  0  0  0  0  0  0  0  0
    0.3943    1.2135    0.0000 C   0  0  0  0  0  0  0  0  0  0  0  0
    1.2760    0.0000    0.0000 N   0  0  0  0  0  0  0  0  0  0  0  0
    0.3943   -1.2135    0.0000 C   0  0  0  0  0  0  0  0  0  0  0  0
   -1.0323   -0.7500    0.0000 C   0  0  0  0  0  0  0  0  0  0  0  0
   -1.0323    0.7500    0.0000 N   0  0  0  0  0  0  0  0  0  0  0  0
   -2.1470    1.7537    0.0000 C   0  0  0  0  0  0  0  0  0  0  0  0
   -1.8351    3.2209    0.0000 N   0  0  0  0  0  0  0  0  0  0  0  0
  1  2  2  0
  2  3  1  0
  4  3  1  6
  4  5  1  0
  6  5  1  6
  6  7  1  0
  7  8  1  0
  8  9  1  6
  9 10  1  0
  2 11  1  0
 11 12  2  0
 12 13  1  0
 13 14  2  0
 14 15  1  0
 15 16  2  0
 16 17  1  0
 17 18  1  0
 18 19  2  0
  8  4  1  0
 19 11  1  0
 10  6  1  0
 17 13  1  0
M  CHG  1  10   1
M  END
>  <Compound_ID>  (123) 
C39073355

>  <Active>  (123) 
0

>  <Smiles>  (123) 
O=C(N[C@@H]1C[C@H]2C[C@@H]1C[NH2+]2)c1cc2nccn2cn1

>  <canonical_smi>  (123) 
O=C(N[C@@H]1C[C@H]2C[C@@H]1C[NH2+]2)c1cc2nccn2cn1

>  <Set>  (123) 
G2 inactive

>  <Set_type>  (123) 
Train

>  <MW>  (123) 
258.31

>  <HBD>  (123) 
2

>  <HBA>  (123) 
3

>  <NRB>  (123) 
2

>  <NR>  (123) 
4

>  <NAR>  (123) 
2

>  <PSA>  (123) 
75.9

>  <Standard Type>  (123) 
nan

>  <Standard Relation>  (123) 
nan

>  <Standard Units>  (123) 
nan

>  <Standard Value>  (123) 
nan

>  <Assay ChEMBL ID>  (123) 
nan

>  <Assay Description>  (123) 
nan

>  <BAO Label>  (123) 
nan

$$$$

     RDKit          2D

 16 18  0  0  0  0  0  0  0  0999 V2000
   -2.3649    4.9155    0.0000 O   0  0  0  0  0  0  0  0  0  0  0  0
   -3.8321    4.6036    0.0000 N   0  0  0  0  0  4  0  0  0  0  0  0
   -4.8358    5.7184    0.0000 O   0  0  0  0  0  1  0  0  0  0  0  0
   -4.2956    3.1771    0.0000 C   0  0  0  0  0  0  0  0  0  0  0  0
   -5.7222    2.7135    0.0000 N   0  0  0  0  0  0  0  0  0  0  0  0
   -5.7222    1.2135    0.0000 N   0  0  0  0  0  0  0  0  0  0  0  0
   -4.2956    0.7500    0.0000 C   0  0  0  0  0  0  0  0  0  0  0  0
   -3.4140    1.9635    0.0000 C   0  0  0  0  0  0  0  0  0  0  0  0
   -1.9140    1.9635    0.0000 N   0  0  0  0  0  0  0  0  0  0  0  0
   -1.0323    3.1771    0.0000 C   0  0  0  0  0  0  0  0  0  0  0  0
    0.3943    2.7135    0.0000 C   0  0  0  0  0  0  0  0  0  0  0  0
    0.3943    1.2135    0.0000 C   0  0  0  0  0  0  0  0  0  0  0  0
    1.2760    0.0000    0.0000 C   0  0  0  0  0  0  0  0  0  0  0  0
    0.3943   -1.2135    0.0000 N   0  0  0  0  0  4  0  0  0  0  0  0
   -1.0323   -0.7500    0.0000 C   0  0  0  0  0  0  0  0  0  0  0  0
   -1.0323    0.7500    0.0000 C   0  0  0  0  0  0  0  0  0  0  0  0
  1  2  2  0
  2  3  1  0
  2  4  1  0
  4  5  2  0
  5  6  1  0
  6  7  1  0
  7  8  2  0
  8  9  1  0
  9 10  1  0
 10 11  1  0
 12 11  1  1
 12 13  1  0
 13 14  1  0
 14 15  1  0
 16 15  1  1
  8  4  1  0
 16  9  1  0
 16 12  1  0
M  CHG  3   2   1   3  -1  14   1
M  END
>  <Compound_ID>  (124) 
C40998918

>  <Active>  (124) 
0

>  <Smiles>  (124) 
O=[N+]([O-])c1n[nH]cc1N1CC[C@H]2C[NH2+]C[C@H]21

>  <canonical_smi>  (124) 
O=[N+]([O-])c1n[nH]cc1N1CC[C@H]2C[NH2+]C[C@H]21

>  <Set>  (124) 
G2 inactive

>  <Set_type>  (124) 
Train

>  <MW>  (124) 
224.24

>  <HBD>  (124) 
2

>  <HBA>  (124) 
4

>  <NRB>  (124) 
2

>  <NR>  (124) 
3

>  <NAR>  (124) 
1

>  <PSA>  (124) 
91.67

>  <Standard Type>  (124) 
nan

>  <Standard Relation>  (124) 
nan

>  <Standard Units>  (124) 
nan

>  <Standard Value>  (124) 
nan

>  <Assay ChEMBL ID>  (124) 
nan

>  <Assay Description>  (124) 
nan

>  <BAO Label>  (124) 
nan

$$$$

     RDKit          2D

 19 21  0  0  0  0  0  0  0  0999 V2000
   -3.7500   -3.8971    0.0000 C   0  0  0  0  0  0  0  0  0  0  0  0
   -3.0000   -2.5981    0.0000 N   0  0  0  0  0  4  0  0  0  0  0  0
   -1.5000   -2.5981    0.0000 C   0  0  0  0  0  0  0  0  0  0  0  0
   -0.7500   -3.8971    0.0000 C   0  0  0  0  0  0  0  0  0  0  0  0
    0.7500   -3.8971    0.0000 C   0  0  0  0  0  0  0  0  0  0  0  0
    0.4895   -5.3743    0.0000 C   0  0  0  0  0  0  0  0  0  0  0  0
    2.1595   -4.4101    0.0000 C   0  0  0  0  0  0  0  0  0  0  0  0
    1.5000   -2.5981    0.0000 C   0  0  0  0  0  0  0  0  0  0  0  0
    0.7500   -1.2990    0.0000 C   0  0  0  0  0  0  0  0  0  0  0  0
    1.5000    0.0000    0.0000 N   0  0  0  0  0  0  0  0  0  0  0  0
    0.7500    1.2990    0.0000 C   0  0  0  0  0  0  0  0  0  0  0  0
    1.5000    2.5981    0.0000 C   0  0  0  0  0  0  0  0  0  0  0  0
    0.8899    3.9684    0.0000 N   0  0  0  0  0  0  0  0  0  0  0  0
    2.0046    4.9721    0.0000 C   0  0  0  0  0  0  0  0  0  0  0  0
    3.3037    4.2221    0.0000 N   0  0  0  0  0  0  0  0  0  0  0  0
    2.9918    2.7549    0.0000 N   0  0  0  0  0  0  0  0  0  0  0  0
   -0.7500    1.2990    0.0000 N   0  0  0  0  0  0  0  0  0  0  0  0
   -1.5000    0.0000    0.0000 C   0  0  0  0  0  0  0  0  0  0  0  0
   -0.7500   -1.2990    0.0000 C   0  0  0  0  0  0  0  0  0  0  0  0
  1  2  1  0
  3  2  1  1
  3  4  1  0
  4  5  1  0
  5  6  1  0
  5  7  1  0
  5  8  1  0
  8  9  1  0
  9 10  2  0
 10 11  1  0
 11 12  1  0
 12 13  2  0
 13 14  1  0
 14 15  2  0
 15 16  1  0
 11 17  2  0
 17 18  1  0
 18 19  2  0
 19  3  1  0
 19  9  1  0
 16 12  1  0
M  CHG  1   2   1
M  END
>  <Compound_ID>  (125) 
C50101164

>  <Active>  (125) 
0

>  <Smiles>  (125) 
C[NH2+][C@@H]1CC(C)(C)Cc2nc(-c3ncn[nH]3)ncc21

>  <canonical_smi>  (125) 
C[NH2+][C@@H]1CC(C)(C)Cc2nc(-c3ncn[nH]3)ncc21

>  <Set>  (125) 
G2 inactive

>  <Set_type>  (125) 
Train

>  <MW>  (125) 
259.34

>  <HBD>  (125) 
2

>  <HBA>  (125) 
4

>  <NRB>  (125) 
2

>  <NR>  (125) 
3

>  <NAR>  (125) 
2

>  <PSA>  (125) 
83.96

>  <Standard Type>  (125) 
nan

>  <Standard Relation>  (125) 
nan

>  <Standard Units>  (125) 
nan

>  <Standard Value>  (125) 
nan

>  <Assay ChEMBL ID>  (125) 
nan

>  <Assay Description>  (125) 
nan

>  <BAO Label>  (125) 
nan

$$$$

     RDKit          2D

 17 18  0  0  0  0  0  0  0  0999 V2000
    5.0260   -1.2990    0.0000 C   0  0  0  0  0  0  0  0  0  0  0  0
    3.5260   -1.2990    0.0000 O   0  0  0  0  0  0  0  0  0  0  0  0
    2.7760    0.0000    0.0000 C   0  0  0  0  0  0  0  0  0  0  0  0
    1.2760    0.0000    0.0000 C   0  0  0  0  0  0  0  0  0  0  0  0
    0.3943    1.2135    0.0000 C   0  0  0  0  0  0  0  0  0  0  0  0
    0.8578    2.6401    0.0000 C   0  0  0  0  0  0  0  0  0  0  0  0
    2.3250    2.9520    0.0000 N   0  0  0  0  0  4  0  0  0  0  0  0
   -1.0323    0.7500    0.0000 N   0  0  0  0  0  0  0  0  0  0  0  0
   -1.0323   -0.7500    0.0000 N   0  0  0  0  0  0  0  0  0  0  0  0
    0.3943   -1.2135    0.0000 N   0  0  0  0  0  0  0  0  0  0  0  0
    0.8578   -2.6401    0.0000 C   0  0  0  0  0  0  0  0  0  0  0  0
    2.2844   -3.1036    0.0000 N   0  0  0  0  0  0  0  0  0  0  0  0
    2.2844   -4.6036    0.0000 C   0  0  0  0  0  0  0  0  0  0  0  0
    3.4979   -5.4853    0.0000 C   0  0  0  0  0  0  0  0  0  0  0  0
    0.8578   -5.0672    0.0000 C   0  0  0  0  0  0  0  0  0  0  0  0
    0.3943   -6.4937    0.0000 C   0  0  0  0  0  0  0  0  0  0  0  0
   -0.0239   -3.8536    0.0000 S   0  0  0  0  0  0  0  0  0  0  0  0
  1  2  1  0
  2  3  1  0
  3  4  1  0
  4  5  2  0
  5  6  1  0
  6  7  1  0
  5  8  1  0
  8  9  2  0
  9 10  1  0
 10 11  1  0
 11 12  2  0
 12 13  1  0
 13 14  1  0
 13 15  2  0
 15 16  1  0
 15 17  1  0
 10  4  1  0
 17 11  1  0
M  CHG  1   7   1
M  END
>  <Compound_ID>  (126) 
C62427964

>  <Active>  (126) 
0

>  <Smiles>  (126) 
COCc1c(C[NH3+])nnn1-c1nc(C)c(C)s1

>  <canonical_smi>  (126) 
COCc1c(C[NH3+])nnn1-c1nc(C)c(C)s1

>  <Set>  (126) 
G2 inactive

>  <Set_type>  (126) 
Train

>  <MW>  (126) 
254.34

>  <HBD>  (126) 
1

>  <HBA>  (126) 
4

>  <NRB>  (126) 
4

>  <NR>  (126) 
2

>  <NAR>  (126) 
2

>  <PSA>  (126) 
80.47

>  <Standard Type>  (126) 
nan

>  <Standard Relation>  (126) 
nan

>  <Standard Units>  (126) 
nan

>  <Standard Value>  (126) 
nan

>  <Assay ChEMBL ID>  (126) 
nan

>  <Assay Description>  (126) 
nan

>  <BAO Label>  (126) 
nan

$$$$

     RDKit          2D

 16 17  0  0  0  0  0  0  0  0999 V2000
    1.6418    7.0824    0.0000 C   0  0  0  0  0  0  0  0  0  0  0  0
    1.3299    5.6152    0.0000 C   0  0  0  0  0  0  0  0  0  0  0  0
   -0.0967    5.1517    0.0000 N   0  0  0  0  0  0  0  0  0  0  0  0
   -1.2114    6.1554    0.0000 C   0  0  0  0  0  0  0  0  0  0  0  0
   -0.8995    7.6226    0.0000 C   0  0  0  0  0  0  0  0  0  0  0  0
   -0.4086    3.6844    0.0000 C   0  0  0  0  0  0  0  0  0  0  0  0
   -1.8351    3.2209    0.0000 N   0  0  0  0  0  0  0  0  0  0  0  0
   -2.1470    1.7537    0.0000 C   0  0  0  0  0  0  0  0  0  0  0  0
   -3.5736    1.2902    0.0000 N   0  0  0  0  0  0  0  0  0  0  0  0
   -1.0323    0.7500    0.0000 N   0  0  0  0  0  0  0  0  0  0  0  0
    0.3943    1.2135    0.0000 C   0  0  0  0  0  0  0  0  0  0  0  0
    0.7062    2.6807    0.0000 N   0  0  0  0  0  4  0  0  0  0  0  0
    1.2760    0.0000    0.0000 O   0  0  0  0  0  0  0  0  0  0  0  0
    0.3943   -1.2135    0.0000 C   0  0  0  0  0  0  0  0  0  0  0  0
   -1.0323   -0.7500    0.0000 C   0  0  0  0  0  0  0  0  0  0  0  0
   -2.2458   -1.6317    0.0000 Cl  0  0  0  0  0  0  0  0  0  0  0  0
  1  2  1  0
  2  3  1  0
  3  4  1  0
  4  5  1  0
  3  6  1  0
  6  7  2  0
  7  8  1  0
  8  9  1  6
  8 10  1  0
 10 11  1  0
 11 12  2  0
 11 13  1  0
 13 14  1  0
 14 15  1  0
 15 16  1  6
 12  6  1  0
 15 10  1  0
M  CHG  1  12   1
M  END
>  <Compound_ID>  (127) 
C16848118

>  <Active>  (127) 
0

>  <Smiles>  (127) 
CCN(CC)C1=N[C@@H](N)N2C(=[NH+]1)OC[C@@H]2Cl

>  <canonical_smi>  (127) 
CCN(CC)C1=N[C@@H](N)N2C(=[NH+]1)OC[C@@H]2Cl

>  <Set>  (127) 
G2 inactive

>  <Set_type>  (127) 
Train

>  <MW>  (127) 
246.72

>  <HBD>  (127) 
2

>  <HBA>  (127) 
4

>  <NRB>  (127) 
2

>  <NR>  (127) 
2

>  <NAR>  (127) 
0

>  <PSA>  (127) 
68.06

>  <Standard Type>  (127) 
nan

>  <Standard Relation>  (127) 
nan

>  <Standard Units>  (127) 
nan

>  <Standard Value>  (127) 
nan

>  <Assay ChEMBL ID>  (127) 
nan

>  <Assay Description>  (127) 
nan

>  <BAO Label>  (127) 
nan

$$$$

     RDKit          2D

 30 33  0  0  0  0  0  0  0  0999 V2000
   -7.7107  -17.2380    0.0000 C   0  0  0  0  0  0  0  0  0  0  0  0
   -6.3404  -17.8481    0.0000 O   0  0  0  0  0  0  0  0  0  0  0  0
   -5.1269  -16.9664    0.0000 C   0  0  0  0  0  0  0  0  0  0  0  0
   -5.2837  -15.4746    0.0000 C   0  0  0  0  0  0  0  0  0  0  0  0
   -4.0701  -14.5929    0.0000 C   0  0  0  0  0  0  0  0  0  0  0  0
   -2.6998  -15.2030    0.0000 C   0  0  0  0  0  0  0  0  0  0  0  0
   -1.4863  -14.3214    0.0000 C   0  0  0  0  0  0  0  0  0  0  0  0
   -1.6431  -12.8296    0.0000 C   0  0  0  0  0  0  0  0  0  0  0  0
   -0.4296  -11.9479    0.0000 N   0  0  0  0  0  0  0  0  0  0  0  0
   -0.5864  -10.4561    0.0000 C   0  0  0  0  0  0  0  0  0  0  0  0
   -1.9567   -9.8460    0.0000 O   0  0  0  0  0  0  0  0  0  0  0  0
    0.6272   -9.5744    0.0000 C   0  0  0  0  0  0  0  0  0  0  0  0
    0.4704   -8.0826    0.0000 N   0  0  0  0  0  0  0  0  0  0  0  0
    1.6839   -7.2010    0.0000 C   0  0  0  0  0  0  0  0  0  0  0  0
    3.0542   -7.8111    0.0000 O   0  0  0  0  0  0  0  0  0  0  0  0
    1.5271   -5.7092    0.0000 N   0  0  0  0  0  0  0  0  0  0  0  0
    2.7406   -4.8275    0.0000 C   0  0  0  0  0  0  0  0  0  0  0  0
    2.5838   -3.3357    0.0000 C   0  0  0  0  0  0  0  0  0  0  0  0
    1.2135   -2.7256    0.0000 C   0  0  0  0  0  0  0  0  0  0  0  0
    0.7500   -1.2990    0.0000 C   0  0  0  0  0  0  0  0  0  0  0  0
    1.5000    0.0000    0.0000 C   0  0  0  0  0  0  0  0  0  0  0  0
    0.7500    1.2990    0.0000 C   0  0  0  0  0  0  0  0  0  0  0  0
   -0.7500    1.2990    0.0000 C   0  0  0  0  0  0  0  0  0  0  0  0
   -1.5000    0.0000    0.0000 C   0  0  0  0  0  0  0  0  0  0  0  0
   -0.7500   -1.2990    0.0000 C   0  0  0  0  0  0  0  0  0  0  0  0
   -1.2135   -2.7256    0.0000 N   0  0  0  0  0  4  0  0  0  0  0  0
    0.0000   -3.6073    0.0000 C   0  0  0  0  0  0  0  0  0  0  0  0
    0.1568   -5.0991    0.0000 C   0  0  0  0  0  0  0  0  0  0  0  0
   -2.5430  -16.6948    0.0000 C   0  0  0  0  0  0  0  0  0  0  0  0
   -3.7566  -17.5765    0.0000 C   0  0  0  0  0  0  0  0  0  0  0  0
  1  2  1  0
  2  3  1  0
  3  4  2  0
  4  5  1  0
  5  6  2  0
  6  7  1  0
  7  8  1  0
  8  9  1  0
  9 10  1  0
 10 11  2  0
 10 12  1  0
 12 13  1  0
 13 14  1  0
 14 15  2  0
 14 16  1  0
 16 17  1  0
 17 18  1  0
 18 19  1  0
 19 20  2  0
 20 21  1  0
 21 22  2  0
 22 23  1  0
 23 24  2  0
 24 25  1  0
 25 26  2  0
 26 27  1  0
 27 28  1  1
  6 29  1  0
 29 30  2  0
 30  3  1  0
 28 16  1  0
 27 19  1  0
 25 20  1  0
M  CHG  1  26   1
M  END
>  <Compound_ID>  (128) 
C63270890

>  <Active>  (128) 
0

>  <Smiles>  (128) 
COc1ccc(CCNC(=O)CNC(=O)N2CCC3=c4ccccc4=[NH+][C@@H]3C2)cc1

>  <canonical_smi>  (128) 
COc1ccc(CCNC(=O)CNC(=O)N2CCC3=c4ccccc4=[NH+][C@@H]3C2)cc1

>  <Set>  (128) 
G2 inactive

>  <Set_type>  (128) 
Train

>  <MW>  (128) 
407.49

>  <HBD>  (128) 
3

>  <HBA>  (128) 
3

>  <NRB>  (128) 
6

>  <NR>  (128) 
4

>  <NAR>  (128) 
2

>  <PSA>  (128) 
84.64

>  <Standard Type>  (128) 
nan

>  <Standard Relation>  (128) 
nan

>  <Standard Units>  (128) 
nan

>  <Standard Value>  (128) 
nan

>  <Assay ChEMBL ID>  (128) 
nan

>  <Assay Description>  (128) 
nan

>  <BAO Label>  (128) 
nan

$$$$

     RDKit          2D

 29 33  0  0  0  0  0  0  0  0999 V2000
   -7.9478   -4.8680    0.0000 C   0  0  0  0  0  0  0  0  0  0  0  0
   -8.2597   -6.3352    0.0000 O   0  0  0  0  0  0  0  0  0  0  0  0
   -7.1449   -7.3389    0.0000 C   0  0  0  0  0  0  0  0  0  0  0  0
   -5.7184   -6.8754    0.0000 C   0  0  0  0  0  0  0  0  0  0  0  0
   -4.6036   -7.8791    0.0000 C   0  0  0  0  0  0  0  0  0  0  0  0
   -3.1771   -7.4156    0.0000 C   0  0  0  0  0  0  0  0  0  0  0  0
   -2.7135   -5.9890    0.0000 N   0  0  0  0  0  0  0  0  0  0  0  0
   -1.2135   -5.9890    0.0000 N   0  0  0  0  0  0  0  0  0  0  0  0
   -0.7500   -7.4156    0.0000 C   0  0  0  0  0  0  0  0  0  0  0  0
    0.7500   -7.4156    0.0000 N   0  0  0  0  0  0  0  0  0  0  0  0
    1.2135   -5.9890    0.0000 N   0  0  0  0  0  0  0  0  0  0  0  0
   -0.0000   -5.1073    0.0000 C   0  0  0  0  0  0  0  0  0  0  0  0
   -0.0000   -3.6073    0.0000 C   0  0  0  0  0  0  0  0  0  0  0  0
    1.2135   -2.7256    0.0000 C   0  0  0  0  0  0  0  0  0  0  0  0
    0.7500   -1.2990    0.0000 C   0  0  0  0  0  0  0  0  0  0  0  0
    1.5000    0.0000    0.0000 C   0  0  0  0  0  0  0  0  0  0  0  0
    0.7500    1.2990    0.0000 C   0  0  0  0  0  0  0  0  0  0  0  0
   -0.7500    1.2990    0.0000 C   0  0  0  0  0  0  0  0  0  0  0  0
   -1.5000    0.0000    0.0000 C   0  0  0  0  0  0  0  0  0  0  0  0
   -0.7500   -1.2990    0.0000 C   0  0  0  0  0  0  0  0  0  0  0  0
   -1.2135   -2.7256    0.0000 N   0  0  0  0  0  4  0  0  0  0  0  0
   -1.9635   -8.2972    0.0000 S   0  0  0  0  0  0  0  0  0  0  0  0
   -4.9155   -9.3463    0.0000 C   0  0  0  0  0  0  0  0  0  0  0  0
   -6.3421   -9.8098    0.0000 C   0  0  0  0  0  0  0  0  0  0  0  0
   -6.6540  -11.2771    0.0000 O   0  0  0  0  0  0  0  0  0  0  0  0
   -8.0805  -11.7406    0.0000 C   0  0  0  0  0  0  0  0  0  0  0  0
   -7.4568   -8.8061    0.0000 C   0  0  0  0  0  0  0  0  0  0  0  0
   -8.8834   -9.2697    0.0000 O   0  0  0  0  0  0  0  0  0  0  0  0
   -9.9981   -8.2660    0.0000 C   0  0  0  0  0  0  0  0  0  0  0  0
  1  2  1  0
  2  3  1  0
  3  4  2  0
  4  5  1  0
  5  6  1  0
  6  7  2  0
  7  8  1  0
  8  9  1  0
  9 10  1  6
 10 11  1  0
 12 11  1  1
 12 13  1  0
 13 14  1  1
 14 15  2  0
 15 16  1  0
 16 17  2  0
 17 18  1  0
 18 19  2  0
 19 20  1  0
 20 21  2  0
  9 22  1  0
  5 23  2  0
 23 24  1  0
 24 25  1  0
 25 26  1  0
 24 27  2  0
 27 28  1  0
 28 29  1  0
 27  3  1  0
 22  6  1  0
 12  8  1  0
 21 13  1  0
 20 15  1  0
M  CHG  1  21   1
M  END
>  <Compound_ID>  (129) 
C63282082

>  <Active>  (129) 
0

>  <Smiles>  (129) 
COc1cc(C2=NN3[C@H](NN[C@@H]3[C@@H]3C=c4ccccc4=[NH+]3)S2)cc(OC)c1OC

>  <canonical_smi>  (129) 
COc1cc(C2=NN3[C@H](NN[C@@H]3[C@@H]3C=c4ccccc4=[NH+]3)S2)cc(OC)c1OC

>  <Set>  (129) 
G2 inactive

>  <Set_type>  (129) 
Train

>  <MW>  (129) 
412.5

>  <HBD>  (129) 
3

>  <HBA>  (129) 
7

>  <NRB>  (129) 
5

>  <NR>  (129) 
5

>  <NAR>  (129) 
2

>  <PSA>  (129) 
81.32

>  <Standard Type>  (129) 
nan

>  <Standard Relation>  (129) 
nan

>  <Standard Units>  (129) 
nan

>  <Standard Value>  (129) 
nan

>  <Assay ChEMBL ID>  (129) 
nan

>  <Assay Description>  (129) 
nan

>  <BAO Label>  (129) 
nan

$$$$

     RDKit          2D

 28 30  0  0  0  0  0  0  0  0999 V2000
   -7.1185    5.8871    0.0000 C   0  0  0  0  0  0  0  0  0  0  0  0
   -6.6763    4.4537    0.0000 O   0  0  0  0  0  0  0  0  0  0  0  0
   -5.2140    4.1199    0.0000 C   0  0  0  0  0  0  0  0  0  0  0  0
   -4.1937    5.2195    0.0000 C   0  0  0  0  0  0  0  0  0  0  0  0
   -2.7313    4.8857    0.0000 C   0  0  0  0  0  0  0  0  0  0  0  0
   -2.2892    3.4524    0.0000 C   0  0  0  0  0  0  0  0  0  0  0  0
   -0.8268    3.1186    0.0000 C   0  0  0  0  0  0  0  0  0  0  0  0
   -0.3846    1.6852    0.0000 C   0  0  0  0  0  0  0  0  0  0  0  0
    1.0777    1.3515    0.0000 C   0  0  0  0  0  0  0  0  0  0  0  0
    1.7286    0.0000    0.0000 C   0  0  0  0  0  0  0  0  0  0  0  0
    1.0777   -1.3515    0.0000 C   0  0  0  0  0  0  0  0  0  0  0  0
   -0.3846   -1.6852    0.0000 C   0  0  0  0  0  0  0  0  0  0  0  0
   -1.5574   -0.7500    0.0000 C   0  0  0  0  0  0  0  0  0  0  0  0
   -1.5574    0.7500    0.0000 C   0  0  0  0  0  0  0  0  0  0  0  0
    2.0980    2.4510    0.0000 C   0  0  0  0  0  0  0  0  0  0  0  0
    3.5604    2.1172    0.0000 C   0  0  0  0  0  0  0  0  0  0  0  0
    5.0228    1.7835    0.0000 N   0  0  0  0  0  0  0  0  0  0  0  0
    1.6559    3.8844    0.0000 C   0  0  0  0  0  0  0  0  0  0  0  0
    2.6761    4.9840    0.0000 N   0  0  0  0  0  0  0  0  0  0  0  0
    0.1935    4.2182    0.0000 C   0  0  0  0  0  0  0  0  0  0  0  0
   -1.0666    5.0320    0.0000 C   0  0  0  0  0  0  0  0  0  0  0  0
   -2.3266    5.8458    0.0000 N   0  0  0  0  0  0  0  0  0  0  0  0
    0.7761    5.6004    0.0000 C   0  0  0  0  0  0  0  0  0  0  0  0
    1.3588    6.9826    0.0000 N   0  0  0  0  0  0  0  0  0  0  0  0
   -3.3094    2.3528    0.0000 C   0  0  0  0  0  0  0  0  0  0  0  0
   -4.7718    2.6866    0.0000 C   0  0  0  0  0  0  0  0  0  0  0  0
   -5.7921    1.5870    0.0000 O   0  0  0  0  0  0  0  0  0  0  0  0
   -5.3499    0.1536    0.0000 C   0  0  0  0  0  0  0  0  0  0  0  0
  1  2  1  0
  2  3  1  0
  3  4  2  0
  4  5  1  0
  5  6  2  0
  7  6  1  6
  7  8  1  0
  8  9  2  0
  9 10  1  0
 10 11  1  0
 11 12  1  0
 12 13  1  0
 13 14  1  0
  9 15  1  0
 15 16  1  0
 16 17  3  0
 15 18  2  0
 18 19  1  0
 18 20  1  0
 20 21  1  0
 21 22  3  0
 20 23  1  0
 23 24  3  0
  6 25  1  0
 25 26  2  0
 26 27  1  0
 27 28  1  0
 26  3  1  0
 20  7  1  0
 14  8  1  0
M  END
>  <Compound_ID>  (130) 
C36611881

>  <Active>  (130) 
0

>  <Smiles>  (130) 
COc1ccc([C@H]2C3=C(CCCCC3)C(C#N)=C(N)C2(C#N)C#N)cc1OC

>  <canonical_smi>  (130) 
COc1ccc([C@H]2C3=C(CCCCC3)C(C#N)=C(N)C2(C#N)C#N)cc1OC

>  <Set>  (130) 
G2 inactive

>  <Set_type>  (130) 
Train

>  <MW>  (130) 
374.44

>  <HBD>  (130) 
1

>  <HBA>  (130) 
6

>  <NRB>  (130) 
3

>  <NR>  (130) 
3

>  <NAR>  (130) 
1

>  <PSA>  (130) 
115.85

>  <Standard Type>  (130) 
nan

>  <Standard Relation>  (130) 
nan

>  <Standard Units>  (130) 
nan

>  <Standard Value>  (130) 
nan

>  <Assay ChEMBL ID>  (130) 
nan

>  <Assay Description>  (130) 
nan

>  <BAO Label>  (130) 
nan

$$$$

     RDKit          2D

 21 23  0  0  0  0  0  0  0  0999 V2000
   -0.0967    5.1517    0.0000 C   0  0  0  0  0  0  0  0  0  0  0  0
   -0.4086    3.6844    0.0000 N   0  0  0  0  0  0  0  0  0  0  0  0
    0.7062    2.6807    0.0000 C   0  0  0  0  0  0  0  0  0  0  0  0
    2.1328    3.1443    0.0000 O   0  0  0  0  0  0  0  0  0  0  0  0
    0.3943    1.2135    0.0000 C   0  0  0  0  0  0  0  0  0  0  0  0
    1.2760    0.0000    0.0000 N   0  0  0  0  0  0  0  0  0  0  0  0
    0.3943   -1.2135    0.0000 C   0  0  0  0  0  0  0  0  0  0  0  0
    0.8578   -2.6401    0.0000 N   0  0  0  0  0  0  0  0  0  0  0  0
   -0.1459   -3.7548    0.0000 C   0  0  0  0  0  0  0  0  0  0  0  0
    0.3177   -5.1814    0.0000 C   0  0  0  0  0  0  0  0  0  0  0  0
    1.7442   -5.6449    0.0000 C   0  0  0  0  0  0  0  0  0  0  0  0
    1.7442   -7.1449    0.0000 C   0  0  0  0  0  0  0  0  0  0  0  0
    0.3177   -7.6085    0.0000 C   0  0  0  0  0  0  0  0  0  0  0  0
   -0.1459   -9.0350    0.0000 Br  0  0  0  0  0  0  0  0  0  0  0  0
   -0.5640   -6.3949    0.0000 S   0  0  0  0  0  0  0  0  0  0  0  0
   -1.0323   -0.7500    0.0000 N   0  0  0  0  0  0  0  0  0  0  0  0
   -1.0323    0.7500    0.0000 C   0  0  0  0  0  0  0  0  0  0  0  0
   -2.1470    1.7537    0.0000 N   0  0  0  0  0  0  0  0  0  0  0  0
   -3.5736    1.2902    0.0000 C   0  0  0  0  0  0  0  0  0  0  0  0
   -1.8351    3.2209    0.0000 C   0  0  0  0  0  0  0  0  0  0  0  0
   -2.9499    4.2246    0.0000 O   0  0  0  0  0  0  0  0  0  0  0  0
  1  2  1  0
  2  3  1  0
  3  4  2  0
  3  5  1  0
  5  6  1  0
  6  7  1  0
  7  8  1  0
  8  9  1  0
  9 10  1  0
 10 11  2  0
 11 12  1  0
 12 13  2  0
 13 14  1  0
 13 15  1  0
  7 16  2  0
 16 17  1  0
 17 18  1  0
 18 19  1  0
 18 20  1  0
 20 21  2  0
 20  2  1  0
 17  5  2  0
 15 10  1  0
M  END
>  <Compound_ID>  (131) 
C38018880

>  <Active>  (131) 
0

>  <Smiles>  (131) 
Cn1c(=O)c2[nH]c(NCc3ccc(Br)s3)nc2n(C)c1=O

>  <canonical_smi>  (131) 
Cn1c(=O)c2[nH]c(NCc3ccc(Br)s3)nc2n(C)c1=O

>  <Set>  (131) 
G2 inactive

>  <Set_type>  (131) 
Train

>  <MW>  (131) 
370.23

>  <HBD>  (131) 
2

>  <HBA>  (131) 
4

>  <NRB>  (131) 
3

>  <NR>  (131) 
3

>  <NAR>  (131) 
3

>  <PSA>  (131) 
84.71

>  <Standard Type>  (131) 
nan

>  <Standard Relation>  (131) 
nan

>  <Standard Units>  (131) 
nan

>  <Standard Value>  (131) 
nan

>  <Assay ChEMBL ID>  (131) 
nan

>  <Assay Description>  (131) 
nan

>  <BAO Label>  (131) 
nan

$$$$

     RDKit          2D

 21 23  0  0  0  0  0  0  0  0999 V2000
    3.0000    0.0000    0.0000 C   0  0  0  0  0  0  0  0  0  0  0  0
    1.5000    0.0000    0.0000 C   0  0  0  0  0  0  0  0  0  0  0  0
    0.7500   -1.2990    0.0000 N   0  0  0  0  0  0  0  0  0  0  0  0
   -0.7500   -1.2990    0.0000 C   0  0  0  0  0  0  0  0  0  0  0  0
   -1.5000   -2.5981    0.0000 N   0  0  0  0  0  0  0  0  0  0  0  0
   -1.5000    0.0000    0.0000 C   0  0  0  0  0  0  0  0  0  0  0  0
   -2.9672    0.3119    0.0000 C   0  0  0  0  0  0  0  0  0  0  0  0
   -4.0819   -0.6918    0.0000 C   0  0  0  0  0  0  0  0  0  0  0  0
   -3.1240    1.8037    0.0000 C   0  0  0  0  0  0  0  0  0  0  0  0
   -4.4231    2.5537    0.0000 C   0  0  0  0  0  0  0  0  0  0  0  0
   -1.7537    2.4138    0.0000 N   0  0  0  0  0  0  0  0  0  0  0  0
   -1.4418    3.8810    0.0000 C   0  0  0  0  0  0  0  0  0  0  0  0
   -0.0152    3.4175    0.0000 C   0  0  0  0  0  0  0  0  0  0  0  0
   -0.8317    5.2513    0.0000 C   0  0  0  0  0  0  0  0  0  0  0  0
   -1.9464    6.2550    0.0000 C   0  0  0  0  0  0  0  0  0  0  0  0
   -3.2455    5.5050    0.0000 S   0  0  0  0  0  0  0  0  0  0  0  0
   -3.8556    6.8753    0.0000 O   0  0  0  0  0  0  0  0  0  0  0  0
   -4.6721    5.0415    0.0000 O   0  0  0  0  0  0  0  0  0  0  0  0
   -2.9336    4.0378    0.0000 C   0  0  0  0  0  0  0  0  0  0  0  0
   -0.7500    1.2990    0.0000 C   0  0  0  0  0  0  0  0  0  0  0  0
    0.7500    1.2990    0.0000 N   0  0  0  0  0  0  0  0  0  0  0  0
  1  2  1  0
  2  3  2  0
  3  4  1  0
  4  5  1  0
  4  6  2  0
  6  7  1  0
  7  8  1  0
  7  9  2  0
  9 10  1  0
  9 11  1  0
 11 12  1  0
 12 13  1  1
 12 14  1  0
 14 15  1  0
 15 16  1  0
 16 17  2  0
 16 18  2  0
 16 19  1  0
 11 20  1  0
 20 21  2  0
 21  2  1  0
 20  6  1  0
 19 12  1  0
M  END
>  <Compound_ID>  (132) 
C44931975

>  <Active>  (132) 
0

>  <Smiles>  (132) 
Cc1nc(N)c2c(C)c(C)n([C@@]3(C)CCS(=O)(=O)C3)c2n1

>  <canonical_smi>  (132) 
Cc1nc(N)c2c(C)c(C)n([C@@]3(C)CCS(=O)(=O)C3)c2n1

>  <Set>  (132) 
G2 inactive

>  <Set_type>  (132) 
Train

>  <MW>  (132) 
308.41

>  <HBD>  (132) 
1

>  <HBA>  (132) 
5

>  <NRB>  (132) 
1

>  <NR>  (132) 
3

>  <NAR>  (132) 
2

>  <PSA>  (132) 
90.87

>  <Standard Type>  (132) 
nan

>  <Standard Relation>  (132) 
nan

>  <Standard Units>  (132) 
nan

>  <Standard Value>  (132) 
nan

>  <Assay ChEMBL ID>  (132) 
nan

>  <Assay Description>  (132) 
nan

>  <BAO Label>  (132) 
nan

$$$$

     RDKit          2D

 21 24  0  0  0  0  0  0  0  0999 V2000
    3.2286   -0.0000    0.0000 O   0  0  0  0  0  0  0  0  0  0  0  0
    1.7286    0.0000    0.0000 C   0  0  0  0  0  0  0  0  0  0  0  0
    1.0777    1.3515    0.0000 N   0  0  0  0  0  0  0  0  0  0  0  0
   -0.3846    1.6852    0.0000 C   0  0  0  0  0  0  0  0  0  0  0  0
   -1.5574    0.7500    0.0000 C   0  0  0  0  0  0  0  0  0  0  0  0
   -1.5574   -0.7500    0.0000 C   0  0  0  0  0  0  0  0  0  0  0  0
   -0.3846   -1.6852    0.0000 C   0  0  0  0  0  0  0  0  0  0  0  0
   -0.5191   -3.1792    0.0000 N   0  0  0  0  0  0  0  0  0  0  0  0
    0.8602   -3.7687    0.0000 C   0  0  0  0  0  0  0  0  0  0  0  0
    1.1940   -5.2311    0.0000 C   0  0  0  0  0  0  0  0  0  0  0  0
    0.2071   -6.3607    0.0000 N   0  0  0  0  0  0  0  0  0  0  0  0
    0.9764   -7.6484    0.0000 N   0  0  0  0  0  0  0  0  0  0  0  0
    2.4388   -7.3146    0.0000 C   0  0  0  0  0  0  0  0  0  0  0  0
    2.5733   -5.8207    0.0000 C   0  0  0  0  0  0  0  0  0  0  0  0
    3.8251   -4.9943    0.0000 C   0  0  0  0  0  0  0  0  0  0  0  0
    5.2517   -5.4578    0.0000 C   0  0  0  0  0  0  0  0  0  0  0  0
    5.7788   -6.8622    0.0000 C   0  0  0  0  0  0  0  0  0  0  0  0
    5.0094   -8.1499    0.0000 C   0  0  0  0  0  0  0  0  0  0  0  0
    3.5230   -8.3512    0.0000 C   0  0  0  0  0  0  0  0  0  0  0  0
    1.8471   -2.6391    0.0000 N   0  0  0  0  0  0  0  0  0  0  0  0
    1.0777   -1.3515    0.0000 C   0  0  0  0  0  0  0  0  0  0  0  0
  1  2  2  0
  2  3  1  0
  3  4  1  0
  4  5  1  0
  5  6  1  0
  6  7  1  0
  7  8  2  0
  8  9  1  0
  9 10  1  0
 10 11  1  1
 11 12  2  0
 12 13  1  0
 13 14  2  0
 14 15  1  0
 15 16  1  0
 16 17  1  0
 17 18  1  0
 18 19  1  0
  9 20  1  6
 21 20  1  6
 21  2  1  0
 21  7  1  0
 14 10  1  0
 19 13  1  0
M  END
>  <Compound_ID>  (133) 
C65490832

>  <Active>  (133) 
0

>  <Smiles>  (133) 
O=C1NCCCC2=N[C@@H]([C@@H]3N=NC4=C3CCCCC4)N[C@@H]12

>  <canonical_smi>  (133) 
O=C1NCCCC2=N[C@@H]([C@@H]3N=NC4=C3CCCCC4)N[C@@H]12

>  <Set>  (133) 
G2 inactive

>  <Set_type>  (133) 
Train

>  <MW>  (133) 
287.37

>  <HBD>  (133) 
2

>  <HBA>  (133) 
2

>  <NRB>  (133) 
1

>  <NR>  (133) 
4

>  <NAR>  (133) 
0

>  <PSA>  (133) 
78.21

>  <Standard Type>  (133) 
nan

>  <Standard Relation>  (133) 
nan

>  <Standard Units>  (133) 
nan

>  <Standard Value>  (133) 
nan

>  <Assay ChEMBL ID>  (133) 
nan

>  <Assay Description>  (133) 
nan

>  <BAO Label>  (133) 
nan

$$$$

     RDKit          2D

 23 26  0  0  0  0  0  0  0  0999 V2000
   -2.3113   -8.6446    0.0000 C   0  0  0  0  0  0  0  0  0  0  0  0
   -1.0978   -7.7629    0.0000 C   0  0  0  0  0  0  0  0  0  0  0  0
   -1.2546   -6.2711    0.0000 N   0  0  0  0  0  0  0  0  0  0  0  0
   -0.1399   -5.2674    0.0000 C   0  0  0  0  0  0  0  0  0  0  0  0
    1.3273   -5.5793    0.0000 O   0  0  0  0  0  0  0  0  0  0  0  0
   -0.7500   -3.8971    0.0000 C   0  0  0  0  0  0  0  0  0  0  0  0
    0.7500   -3.8971    0.0000 N   0  0  0  0  0  0  0  0  0  0  0  0
    1.5000   -2.5981    0.0000 C   0  0  0  0  0  0  0  0  0  0  0  0
    3.0000   -2.5981    0.0000 O   0  0  0  0  0  0  0  0  0  0  0  0
    0.7500   -1.2990    0.0000 C   0  0  0  0  0  0  0  0  0  0  0  0
    1.5000    0.0000    0.0000 C   0  0  0  0  0  0  0  0  0  0  0  0
    0.7500    1.2990    0.0000 C   0  0  0  0  0  0  0  0  0  0  0  0
   -0.7500    1.2990    0.0000 C   0  0  0  0  0  0  0  0  0  0  0  0
   -1.5000    0.0000    0.0000 N   0  0  0  0  0  0  0  0  0  0  0  0
   -0.7500   -1.2990    0.0000 C   0  0  0  0  0  0  0  0  0  0  0  0
   -1.5000   -2.5981    0.0000 N   0  0  0  0  0  0  0  0  0  0  0  0
   -2.2418   -4.0539    0.0000 C   0  0  0  0  0  0  0  0  0  0  0  0
   -3.3565   -3.0502    0.0000 C   0  0  0  0  0  0  0  0  0  0  0  0
   -4.7831   -3.5137    0.0000 C   0  0  0  0  0  0  0  0  0  0  0  0
   -5.8978   -2.5100    0.0000 C   0  0  0  0  0  0  0  0  0  0  0  0
   -5.0950   -4.9810    0.0000 C   0  0  0  0  0  0  0  0  0  0  0  0
   -3.9802   -5.9847    0.0000 C   0  0  0  0  0  0  0  0  0  0  0  0
   -2.5537   -5.5211    0.0000 C   0  0  0  0  0  0  0  0  0  0  0  0
  1  2  1  0
  2  3  1  0
  3  4  1  0
  4  5  2  0
  4  6  1  0
  6  7  1  1
  7  8  1  0
  8  9  2  0
  8 10  1  0
 10 11  2  0
 11 12  1  0
 12 13  2  0
 13 14  1  0
 14 15  2  0
 15 16  1  0
  6 17  1  0
 17 18  2  0
 18 19  1  0
 19 20  1  0
 19 21  2  0
 21 22  1  0
 22 23  2  0
 23  3  1  0
 16  6  1  0
 23 17  1  0
 15 10  1  0
M  END
>  <Compound_ID>  (134) 
C66739644

>  <Active>  (134) 
0

>  <Smiles>  (134) 
CCN1C(=O)[C@]2(NC(=O)c3cccnc3N2)c2cc(C)ccc21

>  <canonical_smi>  (134) 
CCN1C(=O)[C@]2(NC(=O)c3cccnc3N2)c2cc(C)ccc21

>  <Set>  (134) 
G2 inactive

>  <Set_type>  (134) 
Train

>  <MW>  (134) 
308.34

>  <HBD>  (134) 
2

>  <HBA>  (134) 
4

>  <NRB>  (134) 
1

>  <NR>  (134) 
4

>  <NAR>  (134) 
2

>  <PSA>  (134) 
74.33

>  <Standard Type>  (134) 
nan

>  <Standard Relation>  (134) 
nan

>  <Standard Units>  (134) 
nan

>  <Standard Value>  (134) 
nan

>  <Assay ChEMBL ID>  (134) 
nan

>  <Assay Description>  (134) 
nan

>  <BAO Label>  (134) 
nan

$$$$

     RDKit          2D

 17 17  0  0  0  0  0  0  0  0999 V2000
    2.3886   -2.4414    0.0000 C   0  0  0  0  0  0  0  0  0  0  0  0
    2.6491   -0.9642    0.0000 O   0  0  0  0  0  0  0  0  0  0  0  0
    1.5000    0.0000    0.0000 C   0  0  0  0  0  0  0  0  0  0  0  0
    2.6491    0.9642    0.0000 C   0  0  0  0  0  0  0  0  0  0  0  0
    0.7500   -1.2990    0.0000 O   0  0  0  0  0  0  0  0  0  0  0  0
   -0.7500   -1.2990    0.0000 C   0  0  0  0  0  0  0  0  0  0  0  0
   -0.4895   -2.7762    0.0000 C   0  0  0  0  0  0  0  0  0  0  0  0
   -2.1595   -1.8121    0.0000 C   0  0  0  0  0  0  0  0  0  0  0  0
   -1.5000    0.0000    0.0000 C   0  0  0  0  0  0  0  0  0  0  0  0
   -2.6491   -0.9642    0.0000 C   0  0  0  0  0  0  0  0  0  0  0  0
   -2.6491    0.9642    0.0000 O   0  0  0  0  0  0  0  0  0  0  0  0
   -0.7500    1.2990    0.0000 C   0  0  0  0  0  0  0  0  0  0  0  0
   -2.1595    1.8121    0.0000 C   0  0  0  0  0  0  0  0  0  0  0  0
   -0.4895    2.7762    0.0000 O   0  0  0  0  0  0  0  0  0  0  0  0
    0.7500    1.2990    0.0000 C   0  0  0  0  0  0  0  0  0  0  0  0
    0.4895    2.7762    0.0000 C   0  0  0  0  0  0  0  0  0  0  0  0
    2.1595    1.8121    0.0000 O   0  0  0  0  0  0  0  0  0  0  0  0
  1  2  1  0
  2  3  1  0
  3  4  1  1
  3  5  1  0
  5  6  1  0
  6  7  1  0
  6  8  1  0
  6  9  1  0
  9 10  1  6
  9 11  1  0
  9 12  1  0
 12 13  1  6
 12 14  1  0
 12 15  1  0
 15 16  1  6
 15 17  1  0
 15  3  1  0
M  END
>  <Compound_ID>  (135) 
C09970431

>  <Active>  (135) 
0

>  <Smiles>  (135) 
CO[C@]1(C)OC(C)(C)[C@@](C)(O)[C@@](C)(O)[C@@]1(C)O

>  <canonical_smi>  (135) 
CO[C@]1(C)OC(C)(C)[C@@](C)(O)[C@@](C)(O)[C@@]1(C)O

>  <Set>  (135) 
G2 inactive

>  <Set_type>  (135) 
Train

>  <MW>  (135) 
248.32

>  <HBD>  (135) 
3

>  <HBA>  (135) 
5

>  <NRB>  (135) 
1

>  <NR>  (135) 
1

>  <NAR>  (135) 
0

>  <PSA>  (135) 
79.15

>  <Standard Type>  (135) 
nan

>  <Standard Relation>  (135) 
nan

>  <Standard Units>  (135) 
nan

>  <Standard Value>  (135) 
nan

>  <Assay ChEMBL ID>  (135) 
nan

>  <Assay Description>  (135) 
nan

>  <BAO Label>  (135) 
nan

$$$$

     RDKit          2D

 17 18  0  0  0  0  0  0  0  0999 V2000
    3.0000    0.0000    0.0000 C   0  0  0  0  0  0  0  0  0  0  0  0
    1.5000    0.0000    0.0000 N   0  0  0  0  0  0  0  0  0  0  0  0
    0.7500   -1.2990    0.0000 C   0  0  0  0  0  0  0  0  0  0  0  0
   -0.7500   -1.2990    0.0000 C   0  0  0  0  0  0  0  0  0  0  0  0
   -1.5000    0.0000    0.0000 C   0  0  0  0  0  0  0  0  0  0  0  0
   -3.0000    0.0000    0.0000 N   0  0  0  0  0  0  0  0  0  0  0  0
   -3.7500    1.2990    0.0000 C   0  0  0  0  0  0  0  0  0  0  0  0
   -5.2500    1.2990    0.0000 N   0  0  0  0  0  0  0  0  0  0  0  0
   -6.0000    2.5981    0.0000 N   0  0  0  0  0  0  0  0  0  0  0  0
   -3.0000    2.5981    0.0000 N   0  0  0  0  0  0  0  0  0  0  0  0
   -1.5000    2.5981    0.0000 C   0  0  0  0  0  0  0  0  0  0  0  0
   -0.7500    3.8971    0.0000 C   0  0  0  0  0  0  0  0  0  0  0  0
    0.0000    5.1962    0.0000 F   0  0  0  0  0  0  0  0  0  0  0  0
   -2.0490    4.6471    0.0000 F   0  0  0  0  0  0  0  0  0  0  0  0
    0.5490    3.1471    0.0000 F   0  0  0  0  0  0  0  0  0  0  0  0
   -0.7500    1.2990    0.0000 C   0  0  0  0  0  0  0  0  0  0  0  0
    0.7500    1.2990    0.0000 C   0  0  0  0  0  0  0  0  0  0  0  0
  1  2  1  0
  2  3  1  0
  3  4  1  0
  4  5  1  0
  5  6  2  0
  6  7  1  0
  7  8  1  0
  8  9  1  0
  7 10  2  0
 10 11  1  0
 11 12  1  0
 12 13  1  0
 12 14  1  0
 12 15  1  0
 11 16  2  0
 16 17  1  0
 17  2  1  0
 16  5  1  0
M  END
>  <Compound_ID>  (136) 
C62203219

>  <Active>  (136) 
0

>  <Smiles>  (136) 
CN1CCc2nc(NN)nc(C(F)(F)F)c2C1

>  <canonical_smi>  (136) 
CN1CCc2nc(NN)nc(C(F)(F)F)c2C1

>  <Set>  (136) 
G2 inactive

>  <Set_type>  (136) 
Train

>  <MW>  (136) 
247.22

>  <HBD>  (136) 
2

>  <HBA>  (136) 
5

>  <NRB>  (136) 
1

>  <NR>  (136) 
2

>  <NAR>  (136) 
1

>  <PSA>  (136) 
67.07

>  <Standard Type>  (136) 
nan

>  <Standard Relation>  (136) 
nan

>  <Standard Units>  (136) 
nan

>  <Standard Value>  (136) 
nan

>  <Assay ChEMBL ID>  (136) 
nan

>  <Assay Description>  (136) 
nan

>  <BAO Label>  (136) 
nan

$$$$

     RDKit          2D

 17 18  0  0  0  0  0  0  0  0999 V2000
    2.3907    1.0037    0.0000 C   0  0  0  0  0  0  0  0  0  0  0  0
    1.2760    0.0000    0.0000 C   0  0  0  0  0  0  0  0  0  0  0  0
    2.3907   -1.0037    0.0000 C   0  0  0  0  0  0  0  0  0  0  0  0
    0.3943    1.2135    0.0000 C   0  0  0  0  0  0  0  0  0  0  0  0
    0.8578    2.6401    0.0000 C   0  0  0  0  0  0  0  0  0  0  0  0
   -0.0239    3.8536    0.0000 N   0  0  0  0  0  0  0  0  0  0  0  0
    0.8578    5.0672    0.0000 N   0  0  0  0  0  0  0  0  0  0  0  0
    2.2844    4.6036    0.0000 C   0  0  0  0  0  0  0  0  0  0  0  0
    3.4979    5.4853    0.0000 N   0  0  0  0  0  0  0  0  0  0  0  0
    2.2844    3.1036    0.0000 N   0  0  0  0  0  0  0  0  0  0  0  0
   -1.0323    0.7500    0.0000 C   0  0  0  0  0  0  0  0  0  0  0  0
   -1.0323   -0.7500    0.0000 C   0  0  0  0  0  0  0  0  0  0  0  0
    0.3943   -1.2135    0.0000 C   0  0  0  0  0  0  0  0  0  0  0  0
    1.6933   -1.9635    0.0000 C   0  0  0  0  0  0  0  0  0  0  0  0
   -0.2158   -2.5838    0.0000 C   0  0  0  0  0  0  0  0  0  0  0  0
    0.6659   -3.7974    0.0000 O   0  0  0  0  0  0  0  0  0  0  0  0
   -1.7076   -2.7406    0.0000 O   0  0  0  0  0  1  0  0  0  0  0  0
  1  2  1  0
  2  3  1  0
  2  4  1  0
  4  5  1  1
  5  6  2  0
  6  7  1  0
  7  8  2  0
  8  9  1  0
  8 10  1  0
  4 11  1  0
 11 12  1  0
 12 13  1  0
 13 14  1  1
 13 15  1  0
 15 16  2  0
 15 17  1  0
 13  2  1  0
 10  5  1  0
M  CHG  1  17  -1
M  END
>  <Compound_ID>  (137) 
C35982286

>  <Active>  (137) 
0

>  <Smiles>  (137) 
CC1(C)[C@H](c2nnc(N)[nH]2)CC[C@@]1(C)C(=O)[O-]

>  <canonical_smi>  (137) 
CC1(C)[C@H](c2nnc(N)[nH]2)CC[C@@]1(C)C(=O)[O-]

>  <Set>  (137) 
G2 inactive

>  <Set_type>  (137) 
Train

>  <MW>  (137) 
237.28

>  <HBD>  (137) 
2

>  <HBA>  (137) 
5

>  <NRB>  (137) 
2

>  <NR>  (137) 
2

>  <NAR>  (137) 
1

>  <PSA>  (137) 
107.72

>  <Standard Type>  (137) 
nan

>  <Standard Relation>  (137) 
nan

>  <Standard Units>  (137) 
nan

>  <Standard Value>  (137) 
nan

>  <Assay ChEMBL ID>  (137) 
nan

>  <Assay Description>  (137) 
nan

>  <BAO Label>  (137) 
nan

$$$$

     RDKit          2D

 16 17  0  0  0  0  0  0  0  0999 V2000
    3.7500   -3.8971    0.0000 C   0  0  0  0  0  0  0  0  0  0  0  0
    3.0000   -2.5981    0.0000 C   0  0  0  0  0  0  0  0  0  0  0  0
    1.5000   -2.5981    0.0000 N   0  0  0  0  0  0  0  0  0  0  0  0
    0.7500   -1.2990    0.0000 C   0  0  0  0  0  0  0  0  0  0  0  0
    1.5000    0.0000    0.0000 N   0  0  0  0  0  0  0  0  0  0  0  0
    0.7500    1.2990    0.0000 C   0  0  0  0  0  0  0  0  0  0  0  0
   -0.7500    1.2990    0.0000 N   0  0  0  0  0  0  0  0  0  0  0  0
   -1.5000    0.0000    0.0000 C   0  0  0  0  0  0  0  0  0  0  0  0
   -3.0000    0.0000    0.0000 Cl  0  0  0  0  0  0  0  0  0  0  0  0
   -0.7500   -1.2990    0.0000 C   0  0  0  0  0  0  0  0  0  0  0  0
   -1.5000   -2.5981    0.0000 N   0  0  0  0  0  0  0  0  0  0  0  0
    3.7500   -1.2990    0.0000 C   0  0  0  0  0  0  0  0  0  0  0  0
    3.1399    0.0713    0.0000 N   0  0  0  0  0  0  0  0  0  0  0  0
    4.2546    1.0750    0.0000 N   0  0  0  0  0  0  0  0  0  0  0  0
    5.5537    0.3250    0.0000 N   0  0  0  0  0  0  0  0  0  0  0  0
    5.2418   -1.1422    0.0000 N   0  0  0  0  0  2  0  0  0  0  0  0
  2  1  1  1
  2  3  1  0
  3  4  1  0
  4  5  2  0
  5  6  1  0
  6  7  2  0
  7  8  1  0
  8  9  1  0
  8 10  2  0
 10 11  1  0
  2 12  1  0
 12 13  2  0
 13 14  1  0
 14 15  2  0
 15 16  1  0
 10  4  1  0
 16 12  1  0
M  CHG  1  16  -1
M  END
>  <Compound_ID>  (138) 
C62364043

>  <Active>  (138) 
0

>  <Smiles>  (138) 
C[C@@H](Nc1ncnc(Cl)c1N)c1nnn[n-]1

>  <canonical_smi>  (138) 
C[C@@H](Nc1ncnc(Cl)c1N)c1nnn[n-]1

>  <Set>  (138) 
G2 inactive

>  <Set_type>  (138) 
Train

>  <MW>  (138) 
239.65

>  <HBD>  (138) 
2

>  <HBA>  (138) 
8

>  <NRB>  (138) 
3

>  <NR>  (138) 
2

>  <NAR>  (138) 
2

>  <PSA>  (138) 
116.6

>  <Standard Type>  (138) 
nan

>  <Standard Relation>  (138) 
nan

>  <Standard Units>  (138) 
nan

>  <Standard Value>  (138) 
nan

>  <Assay ChEMBL ID>  (138) 
nan

>  <Assay Description>  (138) 
nan

>  <BAO Label>  (138) 
nan

$$$$

     RDKit          2D

 28 31  0  0  0  0  0  0  0  0999 V2000
    1.5000   -5.1962    0.0000 C   0  0  0  0  0  0  0  0  0  0  0  0
    0.7500   -3.8971    0.0000 C   0  0  0  0  0  0  0  0  0  0  0  0
    1.5000   -2.5981    0.0000 O   0  0  0  0  0  0  0  0  0  0  0  0
    0.7500   -1.2990    0.0000 C   0  0  0  0  0  0  0  0  0  0  0  0
    1.5000    0.0000    0.0000 C   0  0  0  0  0  0  0  0  0  0  0  0
    0.7500    1.2990    0.0000 C   0  0  0  0  0  0  0  0  0  0  0  0
    1.5000    2.5981    0.0000 O   0  0  0  0  0  0  0  0  0  0  0  0
    3.0000    2.5981    0.0000 C   0  0  0  0  0  0  0  0  0  0  0  0
    3.7500    1.2990    0.0000 O   0  0  0  0  0  0  0  0  0  0  0  0
    5.2500    1.2990    0.0000 C   0  0  0  0  0  0  0  0  0  0  0  0
    6.0000    2.5981    0.0000 C   0  0  0  0  0  0  0  0  0  0  0  0
    7.5000    2.5981    0.0000 O   0  0  0  0  0  0  0  0  0  0  0  0
    5.2500    3.8971    0.0000 C   0  0  0  0  0  0  0  0  0  0  0  0
    6.0000    5.1962    0.0000 O   0  0  0  0  0  0  0  0  0  0  0  0
    3.7500    3.8971    0.0000 C   0  0  0  0  0  0  0  0  0  0  0  0
    3.0000    5.1962    0.0000 O   0  0  0  0  0  0  0  0  0  0  0  0
   -0.7500    1.2990    0.0000 C   0  0  0  0  0  0  0  0  0  0  0  0
   -1.5000    0.0000    0.0000 C   0  0  0  0  0  0  0  0  0  0  0  0
   -0.7500   -1.2990    0.0000 C   0  0  0  0  0  0  0  0  0  0  0  0
   -1.5000   -2.5981    0.0000 C   0  0  0  0  0  0  0  0  0  0  0  0
   -3.0000   -2.5981    0.0000 O   0  0  0  0  0  0  0  0  0  0  0  0
   -0.7500   -3.8971    0.0000 C   0  0  0  0  0  0  0  0  0  0  0  0
   -1.5000   -5.1962    0.0000 C   0  0  0  0  0  0  0  0  0  0  0  0
   -3.0000   -5.1962    0.0000 C   0  0  0  0  0  0  0  0  0  0  0  0
   -3.7500   -6.4952    0.0000 C   0  0  0  0  0  0  0  0  0  0  0  0
   -3.0000   -7.7942    0.0000 C   0  0  0  0  0  0  0  0  0  0  0  0
   -1.5000   -7.7942    0.0000 C   0  0  0  0  0  0  0  0  0  0  0  0
   -0.7500   -6.4952    0.0000 N   0  0  0  0  0  0  0  0  0  0  0  0
  1  2  1  0
  2  3  1  0
  3  4  1  0
  4  5  2  0
  5  6  1  0
  6  7  1  0
  8  7  1  1
  8  9  1  0
  9 10  1  0
 10 11  1  0
 11 12  1  6
 11 13  1  0
 13 14  1  6
 13 15  1  0
 15 16  1  6
  6 17  2  0
 17 18  1  0
 18 19  2  0
 19 20  1  0
 20 21  2  0
 20 22  1  0
 22 23  1  0
 23 24  2  0
 24 25  1  0
 25 26  2  0
 26 27  1  0
 27 28  2  0
 22  2  2  0
 28 23  1  0
 19  4  1  0
 15  8  1  0
M  END
>  <Compound_ID>  (139) 
C34898336

>  <Active>  (139) 
0

>  <Smiles>  (139) 
Cc1oc2cc(O[C@@H]3OC[C@@H](O)[C@@H](O)[C@H]3O)ccc2c(=O)c1-c1ccccn1

>  <canonical_smi>  (139) 
Cc1oc2cc(O[C@@H]3OC[C@@H](O)[C@@H](O)[C@H]3O)ccc2c(=O)c1-c1ccccn1

>  <Set>  (139) 
G2 inactive

>  <Set_type>  (139) 
Train

>  <MW>  (139) 
385.37

>  <HBD>  (139) 
3

>  <HBA>  (139) 
8

>  <NRB>  (139) 
3

>  <NR>  (139) 
4

>  <NAR>  (139) 
3

>  <PSA>  (139) 
122.25

>  <Standard Type>  (139) 
nan

>  <Standard Relation>  (139) 
nan

>  <Standard Units>  (139) 
nan

>  <Standard Value>  (139) 
nan

>  <Assay ChEMBL ID>  (139) 
nan

>  <Assay Description>  (139) 
nan

>  <BAO Label>  (139) 
nan

$$$$

     RDKit          2D

 32 36  0  0  0  0  0  0  0  0999 V2000
   -7.5000   -5.1962    0.0000 C   0  0  0  0  0  0  0  0  0  0  0  0
   -6.0000   -5.1962    0.0000 O   0  0  0  0  0  0  0  0  0  0  0  0
   -5.2500   -3.8971    0.0000 C   0  0  0  0  0  0  0  0  0  0  0  0
   -6.0000   -2.5981    0.0000 C   0  0  0  0  0  0  0  0  0  0  0  0
   -5.2500   -1.2990    0.0000 C   0  0  0  0  0  0  0  0  0  0  0  0
   -3.7500   -1.2990    0.0000 C   0  0  0  0  0  0  0  0  0  0  0  0
   -3.0000   -2.5981    0.0000 C   0  0  0  0  0  0  0  0  0  0  0  0
   -1.5000   -2.5981    0.0000 C   0  0  0  0  0  0  0  0  0  0  0  0
   -0.7500   -1.2990    0.0000 C   0  0  0  0  0  0  0  0  0  0  0  0
    0.7500   -1.2990    0.0000 C   0  0  0  0  0  0  0  0  0  0  0  0
    1.5000    0.0000    0.0000 C   0  0  0  0  0  0  0  0  0  0  0  0
    0.7500    1.2990    0.0000 C   0  0  0  0  0  0  0  0  0  0  0  0
    1.5000    2.5981    0.0000 C   0  0  0  0  0  0  0  0  0  0  0  0
    0.8899    3.9684    0.0000 C   0  0  0  0  0  0  0  0  0  0  0  0
    2.0046    4.9721    0.0000 C   0  0  0  0  0  0  0  0  0  0  0  0
    3.3037    4.2221    0.0000 C   0  0  0  0  0  0  0  0  0  0  0  0
    2.9918    2.7549    0.0000 S   0  0  0  0  0  0  0  0  0  0  0  0
   -0.7500    1.2990    0.0000 C   0  0  0  0  0  0  0  0  0  0  0  0
   -1.5000    0.0000    0.0000 C   0  0  0  0  0  0  0  0  0  0  0  0
   -3.0000    0.0000    0.0000 O   0  0  0  0  0  0  0  0  0  0  0  0
    1.5000   -2.5981    0.0000 N   0  0  0  0  0  0  0  0  0  0  0  0
    0.7500   -3.8971    0.0000 C   0  0  0  0  0  0  0  0  0  0  0  0
    1.5000   -5.1962    0.0000 N   0  0  0  0  0  0  0  0  0  0  0  0
    0.7500   -6.4952    0.0000 C   0  0  0  0  0  0  0  0  0  0  0  0
    1.5000   -7.7942    0.0000 O   0  0  0  0  0  0  0  0  0  0  0  0
   -0.7500   -6.4952    0.0000 N   0  0  0  0  0  0  0  0  0  0  0  0
   -1.5000   -5.1962    0.0000 C   0  0  0  0  0  0  0  0  0  0  0  0
   -2.2735   -5.3890    0.0000 O   0  0  0  0  0  0  0  0  0  0  0  0
   -0.7500   -3.8971    0.0000 C   0  0  0  0  0  0  0  0  0  0  0  0
   -3.7500   -3.8971    0.0000 C   0  0  0  0  0  0  0  0  0  0  0  0
   -3.0000   -5.1962    0.0000 O   0  0  0  0  0  0  0  0  0  0  0  0
   -3.7500   -6.4952    0.0000 C   0  0  0  0  0  0  0  0  0  0  0  0
  1  2  1  0
  2  3  1  0
  3  4  2  0
  4  5  1  0
  5  6  2  0
  6  7  1  0
  8  7  1  1
  8  9  1  0
  9 10  2  0
 10 11  1  0
 11 12  1  0
 12 13  1  6
 13 14  2  0
 14 15  1  0
 15 16  2  0
 16 17  1  0
 12 18  1  0
 18 19  1  0
 19 20  2  0
 10 21  1  0
 21 22  1  0
 22 23  1  0
 23 24  1  0
 24 25  2  0
 24 26  1  0
 26 27  1  0
 27 28  2  0
 27 29  1  0
  7 30  2  0
 30 31  1  0
 31 32  1  0
 30  3  1  0
 29  8  1  0
 19  9  1  0
 29 22  2  0
 17 13  1  0
M  END
>  <Compound_ID>  (140) 
C18200558

>  <Active>  (140) 
0

>  <Smiles>  (140) 
COc1cccc([C@H]2C3=C(C[C@@H](c4cccs4)CC3=O)Nc3[nH]c(=O)[nH]c(=O)c32)c1OC

>  <canonical_smi>  (140) 
COc1cccc([C@H]2C3=C(C[C@@H](c4cccs4)CC3=O)Nc3[nH]c(=O)[nH]c(=O)c32)c1OC

>  <Set>  (140) 
G2 inactive

>  <Set_type>  (140) 
Train

>  <MW>  (140) 
451.5

>  <HBD>  (140) 
3

>  <HBA>  (140) 
6

>  <NRB>  (140) 
4

>  <NR>  (140) 
5

>  <NAR>  (140) 
3

>  <PSA>  (140) 
113.28

>  <Standard Type>  (140) 
nan

>  <Standard Relation>  (140) 
nan

>  <Standard Units>  (140) 
nan

>  <Standard Value>  (140) 
nan

>  <Assay ChEMBL ID>  (140) 
nan

>  <Assay Description>  (140) 
nan

>  <BAO Label>  (140) 
nan

$$$$

     RDKit          2D

 33 37  0  0  0  0  0  0  0  0999 V2000
   11.8495   -1.2013    0.0000 C   0  0  0  0  0  0  0  0  0  0  0  0
   11.2394    0.1690    0.0000 O   0  0  0  0  0  0  0  0  0  0  0  0
    9.7476    0.3258    0.0000 C   0  0  0  0  0  0  0  0  0  0  0  0
    8.8659   -0.8877    0.0000 C   0  0  0  0  0  0  0  0  0  0  0  0
    7.3741   -0.7309    0.0000 C   0  0  0  0  0  0  0  0  0  0  0  0
    6.7640    0.6394    0.0000 C   0  0  0  0  0  0  0  0  0  0  0  0
    5.2723    0.7962    0.0000 C   0  0  0  0  0  0  0  0  0  0  0  0
    4.3906   -0.4174    0.0000 N   0  0  0  0  0  0  0  0  0  0  0  0
    4.8541   -1.8439    0.0000 C   0  0  0  0  0  0  0  0  0  0  0  0
    6.2807   -2.3075    0.0000 O   0  0  0  0  0  0  0  0  0  0  0  0
    3.6406   -2.7256    0.0000 C   0  0  0  0  0  0  0  0  0  0  0  0
    3.1771   -4.1522    0.0000 C   0  0  0  0  0  0  0  0  0  0  0  0
    4.0587   -5.3657    0.0000 C   0  0  0  0  0  0  0  0  0  0  0  0
    3.4486   -6.7361    0.0000 C   0  0  0  0  0  0  0  0  0  0  0  0
    5.5505   -5.2089    0.0000 O   0  0  0  0  0  0  0  0  0  0  0  0
    1.6771   -4.1522    0.0000 N   0  0  0  0  0  0  0  0  0  0  0  0
    1.2135   -2.7256    0.0000 C   0  0  0  0  0  0  0  0  0  0  0  0
   -0.0000   -3.6073    0.0000 C   0  0  0  0  0  0  0  0  0  0  0  0
   -0.0000   -5.1073    0.0000 O   0  0  0  0  0  0  0  0  0  0  0  0
   -1.2135   -2.7256    0.0000 N   0  0  0  0  0  0  0  0  0  0  0  0
   -0.7500   -1.2990    0.0000 C   0  0  0  0  0  0  0  0  0  0  0  0
    0.7500   -1.2990    0.0000 C   0  0  0  0  0  0  0  0  0  0  0  0
    1.5000    0.0000    0.0000 C   0  0  0  0  0  0  0  0  0  0  0  0
    0.7500    1.2990    0.0000 C   0  0  0  0  0  0  0  0  0  0  0  0
   -0.7500    1.2990    0.0000 C   0  0  0  0  0  0  0  0  0  0  0  0
   -1.5000    2.5981    0.0000 C   0  0  0  0  0  0  0  0  0  0  0  0
   -1.5000    0.0000    0.0000 C   0  0  0  0  0  0  0  0  0  0  0  0
   -3.0000    0.0000    0.0000 C   0  0  0  0  0  0  0  0  0  0  0  0
    2.4271   -1.8439    0.0000 C   0  0  0  0  0  0  0  0  0  0  0  0
    2.8906   -0.4174    0.0000 C   0  0  0  0  0  0  0  0  0  0  0  0
    2.0089    0.7962    0.0000 O   0  0  0  0  0  0  0  0  0  0  0  0
    7.6457    1.8529    0.0000 C   0  0  0  0  0  0  0  0  0  0  0  0
    9.1375    1.6961    0.0000 C   0  0  0  0  0  0  0  0  0  0  0  0
  1  2  1  0
  2  3  1  0
  3  4  2  0
  4  5  1  0
  5  6  2  0
  6  7  1  0
  7  8  1  0
  8  9  1  0
  9 10  2  0
 11  9  1  6
 11 12  1  0
 12 13  1  0
 13 14  1  6
 13 15  1  0
 12 16  1  1
 17 16  1  1
 17 18  1  0
 18 19  2  0
 18 20  1  0
 20 21  1  0
 21 22  2  0
 22 23  1  0
 23 24  2  0
 24 25  1  0
 25 26  1  0
 25 27  2  0
 27 28  1  0
 17 29  1  0
 29 30  1  6
 30 31  2  0
  6 32  1  0
 32 33  2  0
 33  3  1  0
 30  8  1  0
 29 11  1  0
 22 17  1  0
 27 21  1  0
M  END
>  <Compound_ID>  (141) 
C15957052

>  <Active>  (141) 
0

>  <Smiles>  (141) 
COc1ccc(CN2C(=O)[C@@H]3[C@@H]([C@@H](C)O)N[C@]4(C(=O)Nc5c4ccc(C)c5C)[C@@H]3C2=O)cc1

>  <canonical_smi>  (141) 
COc1ccc(CN2C(=O)[C@@H]3[C@@H]([C@@H](C)O)N[C@]4(C(=O)Nc5c4ccc(C)c5C)[C@@H]3C2=O)cc1

>  <Set>  (141) 
G2 inactive

>  <Set_type>  (141) 
Train

>  <MW>  (141) 
449.51

>  <HBD>  (141) 
3

>  <HBA>  (141) 
6

>  <NRB>  (141) 
4

>  <NR>  (141) 
5

>  <NAR>  (141) 
2

>  <PSA>  (141) 
107.97

>  <Standard Type>  (141) 
nan

>  <Standard Relation>  (141) 
nan

>  <Standard Units>  (141) 
nan

>  <Standard Value>  (141) 
nan

>  <Assay ChEMBL ID>  (141) 
nan

>  <Assay Description>  (141) 
nan

>  <BAO Label>  (141) 
nan

$$$$

     RDKit          2D

 18 20  0  0  0  0  0  0  0  0999 V2000
   -3.4140    1.9635    0.0000 C   0  0  0  0  0  0  0  0  0  0  0  0
   -1.9140    1.9635    0.0000 C   0  0  0  0  0  0  0  0  0  0  0  0
   -1.0323    3.1771    0.0000 C   0  0  0  0  0  0  0  0  0  0  0  0
   -1.4958    4.6036    0.0000 C   0  0  0  0  0  0  0  0  0  0  0  0
   -2.9224    5.0672    0.0000 C   0  0  0  0  0  0  0  0  0  0  0  0
   -2.9224    6.5672    0.0000 S   0  0  0  0  0  0  0  0  0  0  0  0
   -1.4958    7.0307    0.0000 C   0  0  0  0  0  0  0  0  0  0  0  0
   -1.0323    8.4573    0.0000 N   0  0  0  0  0  0  0  0  0  0  0  0
    0.4349    8.7691    0.0000 C   0  0  0  0  0  0  0  0  0  0  0  0
    0.8985   10.1957    0.0000 N   0  0  0  0  0  0  0  0  0  0  0  0
    1.4386    7.6544    0.0000 N   0  0  0  0  0  0  0  0  0  0  0  0
   -0.6141    5.8172    0.0000 N   0  0  0  0  0  0  0  0  0  0  0  0
    0.3943    2.7135    0.0000 S   0  0  0  0  0  0  0  0  0  0  0  0
    0.3943    1.2135    0.0000 C   0  0  0  0  0  0  0  0  0  0  0  0
    1.2760    0.0000    0.0000 N   0  0  0  0  0  0  0  0  0  0  0  0
    0.3943   -1.2135    0.0000 C   0  0  0  0  0  0  0  0  0  0  0  0
   -1.0323   -0.7500    0.0000 N   0  0  0  0  0  0  0  0  0  0  0  0
   -1.0323    0.7500    0.0000 N   0  0  0  0  0  0  0  0  0  0  0  0
  1  2  1  0
  2  3  2  0
  3  4  1  0
  4  5  2  0
  5  6  1  0
  6  7  1  0
  7  8  1  0
  8  9  2  0
  9 10  1  0
  9 11  1  0
  7 12  2  0
  3 13  1  0
 13 14  1  0
 14 15  2  0
 15 16  1  0
 16 17  2  0
 17 18  1  0
 18  2  1  0
 12  4  1  0
 18 14  1  0
M  END
>  <Compound_ID>  (142) 
C06418307

>  <Active>  (142) 
0

>  <Smiles>  (142) 
Cc1c(-c2csc(N=C(N)N)n2)sc2ncnn12

>  <canonical_smi>  (142) 
Cc1c(-c2csc(N=C(N)N)n2)sc2ncnn12

>  <Set>  (142) 
G2 inactive

>  <Set_type>  (142) 
Train

>  <MW>  (142) 
279.35

>  <HBD>  (142) 
2

>  <HBA>  (142) 
5

>  <NRB>  (142) 
2

>  <NR>  (142) 
3

>  <NAR>  (142) 
3

>  <PSA>  (142) 
107.48

>  <Standard Type>  (142) 
nan

>  <Standard Relation>  (142) 
nan

>  <Standard Units>  (142) 
nan

>  <Standard Value>  (142) 
nan

>  <Assay ChEMBL ID>  (142) 
nan

>  <Assay Description>  (142) 
nan

>  <BAO Label>  (142) 
nan

$$$$

     RDKit          2D

 33 36  0  0  0  0  0  0  0  0999 V2000
   -3.8886  -18.0299    0.0000 N   0  0  0  0  0  0  0  0  0  0  0  0
   -2.7395  -17.0657    0.0000 C   0  0  0  0  0  0  0  0  0  0  0  0
   -1.3300  -17.5787    0.0000 O   0  0  0  0  0  0  0  0  0  0  0  0
   -3.0000  -15.5885    0.0000 C   0  0  0  0  0  0  0  0  0  0  0  0
   -4.4095  -16.1015    0.0000 N   0  0  0  0  0  4  0  0  0  0  0  0
   -5.5586  -15.1373    0.0000 C   0  0  0  0  0  0  0  0  0  0  0  0
   -6.9681  -15.6503    0.0000 C   0  0  0  0  0  0  0  0  0  0  0  0
   -7.2286  -17.1275    0.0000 C   0  0  0  0  0  0  0  0  0  0  0  0
   -6.0796  -18.0917    0.0000 C   0  0  0  0  0  0  0  0  0  0  0  0
   -4.6700  -17.5787    0.0000 C   0  0  0  0  0  0  0  0  0  0  0  0
   -1.5000  -15.5885    0.0000 C   0  0  0  0  0  0  0  0  0  0  0  0
   -0.7500  -14.2894    0.0000 C   0  0  0  0  0  0  0  0  0  0  0  0
   -1.5000  -12.9904    0.0000 N   0  0  0  0  0  0  0  0  0  0  0  0
   -0.7500  -11.6913    0.0000 C   0  0  0  0  0  0  0  0  0  0  0  0
    0.7500  -11.6913    0.0000 O   0  0  0  0  0  0  0  0  0  0  0  0
   -1.5000  -10.3923    0.0000 C   0  0  0  0  0  0  0  0  0  0  0  0
   -0.7500   -9.0933    0.0000 C   0  0  0  0  0  0  0  0  0  0  0  0
   -1.5000   -7.7942    0.0000 C   0  0  0  0  0  0  0  0  0  0  0  0
   -0.7500   -6.4952    0.0000 C   0  0  0  0  0  0  0  0  0  0  0  0
   -1.5000   -5.1962    0.0000 C   0  0  0  0  0  0  0  0  0  0  0  0
   -0.7500   -3.8971    0.0000 N   0  0  0  0  0  0  0  0  0  0  0  0
    0.7500   -3.8971    0.0000 N   0  0  0  0  0  0  0  0  0  0  0  0
    1.5000   -2.5981    0.0000 N   0  0  0  0  0  0  0  0  0  0  0  0
    0.7500   -1.2990    0.0000 C   0  0  0  0  0  0  0  0  0  0  0  0
    1.5000    0.0000    0.0000 C   0  0  0  0  0  0  0  0  0  0  0  0
    0.7500    1.2990    0.0000 C   0  0  0  0  0  0  0  0  0  0  0  0
   -0.7500    1.2990    0.0000 C   0  0  0  0  0  0  0  0  0  0  0  0
   -1.5000    0.0000    0.0000 C   0  0  0  0  0  0  0  0  0  0  0  0
   -0.7500   -1.2990    0.0000 C   0  0  0  0  0  0  0  0  0  0  0  0
   -1.5000   -2.5981    0.0000 C   0  0  0  0  0  0  0  0  0  0  0  0
   -3.0000   -2.5981    0.0000 O   0  0  0  0  0  0  0  0  0  0  0  0
   -3.0000  -12.9904    0.0000 C   0  0  0  0  0  0  0  0  0  0  0  0
   -3.7500  -14.2894    0.0000 C   0  0  0  0  0  0  0  0  0  0  0  0
  1  2  1  0
  2  3  2  0
  2  4  1  0
  4  5  1  0
  5  6  1  0
  6  7  1  0
  7  8  1  0
  8  9  1  0
  9 10  1  0
  4 11  1  0
 11 12  1  0
 12 13  1  0
 13 14  1  0
 14 15  2  0
 14 16  1  0
 16 17  1  0
 17 18  1  0
 18 19  1  0
 19 20  1  0
 20 21  1  0
 21 22  1  0
 22 23  2  0
 23 24  1  0
 24 25  2  0
 25 26  1  0
 26 27  2  0
 27 28  1  0
 28 29  2  0
 29 30  1  0
 30 31  2  0
 13 32  1  0
 32 33  1  0
 33  4  1  0
 10  5  1  0
 30 21  1  0
 29 24  1  0
M  CHG  1   5   1
M  END
>  <Compound_ID>  (143) 
C19925600

>  <Active>  (143) 
0

>  <Smiles>  (143) 
NC(=O)C1([NH+]2CCCCC2)CCN(C(=O)CCCCCn2nnc3ccccc3c2=O)CC1

>  <canonical_smi>  (143) 
NC(=O)C1([NH+]2CCCCC2)CCN(C(=O)CCCCCn2nnc3ccccc3c2=O)CC1

>  <Set>  (143) 
G2 inactive

>  <Set_type>  (143) 
Train

>  <MW>  (143) 
455.58

>  <HBD>  (143) 
2

>  <HBA>  (143) 
5

>  <NRB>  (143) 
8

>  <NR>  (143) 
4

>  <NAR>  (143) 
2

>  <PSA>  (143) 
115.62

>  <Standard Type>  (143) 
nan

>  <Standard Relation>  (143) 
nan

>  <Standard Units>  (143) 
nan

>  <Standard Value>  (143) 
nan

>  <Assay ChEMBL ID>  (143) 
nan

>  <Assay Description>  (143) 
nan

>  <BAO Label>  (143) 
nan

$$$$

     RDKit          2D

 30 34  0  0  0  0  0  0  0  0999 V2000
   -0.0000   -8.1073    0.0000 O   0  0  0  0  0  0  0  0  0  0  0  0
   -1.2990   -7.3573    0.0000 C   0  0  0  0  0  0  0  0  0  0  0  0
   -1.2990   -5.8573    0.0000 C   0  0  0  0  0  0  0  0  0  0  0  0
   -0.0000   -5.1073    0.0000 S   0  0  0  0  0  0  0  0  0  0  0  0
   -0.0000   -3.6073    0.0000 C   0  0  0  0  0  0  0  0  0  0  0  0
   -1.2135   -2.7256    0.0000 N   0  0  0  0  0  0  0  0  0  0  0  0
   -0.7500   -1.2990    0.0000 C   0  0  0  0  0  0  0  0  0  0  0  0
    0.7500   -1.2990    0.0000 C   0  0  0  0  0  0  0  0  0  0  0  0
    1.2135   -2.7256    0.0000 N   0  0  0  0  0  0  0  0  0  0  0  0
    2.6401   -3.1891    0.0000 C   0  0  0  0  0  0  0  0  0  0  0  0
    2.9520   -4.6564    0.0000 C   0  0  0  0  0  0  0  0  0  0  0  0
    4.3786   -5.1199    0.0000 C   0  0  0  0  0  0  0  0  0  0  0  0
    5.4933   -4.1162    0.0000 C   0  0  0  0  0  0  0  0  0  0  0  0
    5.1814   -2.6490    0.0000 C   0  0  0  0  0  0  0  0  0  0  0  0
    3.7548   -2.1855    0.0000 C   0  0  0  0  0  0  0  0  0  0  0  0
    1.5000    0.0000    0.0000 C   0  0  0  0  0  0  0  0  0  0  0  0
    0.7500    1.2990    0.0000 C   0  0  0  0  0  0  0  0  0  0  0  0
   -0.7500    1.2990    0.0000 C   0  0  0  0  0  0  0  0  0  0  0  0
   -1.5000    0.0000    0.0000 C   0  0  0  0  0  0  0  0  0  0  0  0
   -2.5981   -8.1073    0.0000 N   0  0  0  0  0  4  0  0  0  0  0  0
   -2.5981   -9.6073    0.0000 C   0  0  0  0  0  0  0  0  0  0  0  0
   -1.2990  -10.3573    0.0000 C   0  0  0  0  0  0  0  0  0  0  0  0
   -1.2990  -11.8573    0.0000 C   0  0  0  0  0  0  0  0  0  0  0  0
   -2.5981  -12.6073    0.0000 C   0  0  0  0  0  0  0  0  0  0  0  0
   -2.9099  -14.0745    0.0000 N   0  0  0  0  0  0  0  0  0  0  0  0
   -4.4017  -14.2313    0.0000 C   0  0  0  0  0  0  0  0  0  0  0  0
   -5.1517  -15.5304    0.0000 O   0  0  0  0  0  1  0  0  0  0  0  0
   -5.0118  -12.8610    0.0000 N   0  0  0  0  0  0  0  0  0  0  0  0
   -3.8971  -11.8573    0.0000 C   0  0  0  0  0  0  0  0  0  0  0  0
   -3.8971  -10.3573    0.0000 C   0  0  0  0  0  0  0  0  0  0  0  0
  1  2  2  0
  2  3  1  0
  3  4  1  0
  4  5  1  0
  5  6  2  0
  6  7  1  0
  7  8  2  0
  8  9  1  0
  9 10  1  0
 10 11  2  0
 11 12  1  0
 12 13  2  0
 13 14  1  0
 14 15  2  0
  8 16  1  0
 16 17  1  0
 17 18  1  0
 18 19  1  0
  2 20  1  0
 20 21  2  0
 21 22  1  0
 22 23  2  0
 23 24  1  0
 24 25  2  0
 25 26  1  0
 26 27  1  0
 26 28  2  0
 28 29  1  0
 29 30  2  0
  9  5  1  0
 15 10  1  0
 30 21  1  0
 19  7  1  0
 29 24  1  0
M  CHG  2  20   1  27  -1
M  END
>  <Compound_ID>  (144) 
C39730706

>  <Active>  (144) 
0

>  <Smiles>  (144) 
O=C(CSc1nc2c(n1-c1ccccc1)CCCC2)/[NH+]=C1\C=CC2=NC([O-])=NC2=C1

>  <canonical_smi>  (144) 
O=C(CSc1nc2c(n1-c1ccccc1)CCCC2)/[NH+]=C1\C=CC2=NC([O-])=NC2=C1

>  <Set>  (144) 
G2 inactive

>  <Set_type>  (144) 
Train

>  <MW>  (144) 
417.49

>  <HBD>  (144) 
1

>  <HBA>  (144) 
4

>  <NRB>  (144) 
4

>  <NR>  (144) 
5

>  <NAR>  (144) 
2

>  <PSA>  (144) 
96.64

>  <Standard Type>  (144) 
nan

>  <Standard Relation>  (144) 
nan

>  <Standard Units>  (144) 
nan

>  <Standard Value>  (144) 
nan

>  <Assay ChEMBL ID>  (144) 
nan

>  <Assay Description>  (144) 
nan

>  <BAO Label>  (144) 
nan

$$$$

     RDKit          2D

 31 35  0  0  0  0  0  0  0  0999 V2000
   -1.4635   -6.7316    0.0000 O   0  0  0  0  0  0  0  0  0  0  0  0
   -0.1121   -6.0808    0.0000 C   0  0  0  0  0  0  0  0  0  0  0  0
    1.1273   -6.9258    0.0000 C   0  0  0  0  0  0  0  0  0  0  0  0
    2.4787   -6.2750    0.0000 C   0  0  0  0  0  0  0  0  0  0  0  0
    3.7181   -7.1199    0.0000 C   0  0  0  0  0  0  0  0  0  0  0  0
    3.6060   -8.6157    0.0000 C   0  0  0  0  0  0  0  0  0  0  0  0
    4.8453   -9.4607    0.0000 C   0  0  0  0  0  0  0  0  0  0  0  0
    6.1968   -8.8099    0.0000 C   0  0  0  0  0  0  0  0  0  0  0  0
    7.4361   -9.6549    0.0000 F   0  0  0  0  0  0  0  0  0  0  0  0
    6.3089   -7.3141    0.0000 C   0  0  0  0  0  0  0  0  0  0  0  0
    5.0695   -6.4691    0.0000 C   0  0  0  0  0  0  0  0  0  0  0  0
    2.5908   -4.7792    0.0000 C   0  0  0  0  0  0  0  0  0  0  0  0
    1.3515   -3.9342    0.0000 C   0  0  0  0  0  0  0  0  0  0  0  0
    1.6852   -2.4718    0.0000 N   0  0  0  0  0  0  0  0  0  0  0  0
    0.7500   -1.2990    0.0000 C   0  0  0  0  0  0  0  0  0  0  0  0
    1.5000    0.0000    0.0000 C   0  0  0  0  0  0  0  0  0  0  0  0
    0.7500    1.2990    0.0000 C   0  0  0  0  0  0  0  0  0  0  0  0
   -0.7500    1.2990    0.0000 C   0  0  0  0  0  0  0  0  0  0  0  0
   -1.5000    0.0000    0.0000 C   0  0  0  0  0  0  0  0  0  0  0  0
   -0.7500   -1.2990    0.0000 C   0  0  0  0  0  0  0  0  0  0  0  0
   -1.6852   -2.4718    0.0000 N   0  0  0  0  0  0  0  0  0  0  0  0
   -1.3515   -3.9342    0.0000 C   0  0  0  0  0  0  0  0  0  0  0  0
   -2.5242   -4.8694    0.0000 C   0  0  0  0  0  0  0  0  0  0  0  0
   -2.4569   -6.3679    0.0000 C   0  0  0  0  0  0  0  0  0  0  0  0
   -3.8613   -6.8950    0.0000 C   0  0  0  0  0  0  0  0  0  0  0  0
   -4.7965   -5.7222    0.0000 C   0  0  0  0  0  0  0  0  0  0  0  0
   -6.2950   -5.7895    0.0000 N   0  0  0  0  0  4  0  0  0  0  0  0
   -6.9859   -7.1209    0.0000 O   0  0  0  0  0  0  0  0  0  0  0  0
   -7.1025   -4.5254    0.0000 O   0  0  0  0  0  1  0  0  0  0  0  0
   -3.9701   -4.4704    0.0000 O   0  0  0  0  0  0  0  0  0  0  0  0
    0.0000   -4.5850    0.0000 C   0  0  0  0  0  0  0  0  0  0  0  0
  1  2  2  0
  2  3  1  0
  3  4  1  0
  4  5  1  1
  5  6  2  0
  6  7  1  0
  7  8  2  0
  8  9  1  0
  8 10  1  0
 10 11  2  0
  4 12  1  0
 12 13  1  0
 13 14  2  0
 14 15  1  0
 15 16  2  0
 16 17  1  0
 17 18  2  0
 18 19  1  0
 19 20  2  0
 20 21  1  0
 21 22  1  0
 22 23  1  6
 23 24  2  0
 24 25  1  0
 25 26  2  0
 26 27  1  0
 27 28  2  0
 27 29  1  0
 26 30  1  0
 22 31  1  0
 31  2  1  1
 11  5  1  0
 31 13  1  0
 20 15  1  0
 30 23  1  0
M  CHG  2  27   1  29  -1
M  END
>  <Compound_ID>  (145) 
C09333844

>  <Active>  (145) 
0

>  <Smiles>  (145) 
O=C1C[C@H](c2ccc(F)cc2)CC2=Nc3ccccc3N[C@@H](c3ccc([N+](=O)[O-])o3)[C@H]12

>  <canonical_smi>  (145) 
O=C1C[C@H](c2ccc(F)cc2)CC2=Nc3ccccc3N[C@@H](c3ccc([N+](=O)[O-])o3)[C@H]12

>  <Set>  (145) 
G2 inactive

>  <Set_type>  (145) 
Train

>  <MW>  (145) 
419.41

>  <HBD>  (145) 
1

>  <HBA>  (145) 
5

>  <NRB>  (145) 
3

>  <NR>  (145) 
5

>  <NAR>  (145) 
3

>  <PSA>  (145) 
97.74

>  <Standard Type>  (145) 
nan

>  <Standard Relation>  (145) 
nan

>  <Standard Units>  (145) 
nan

>  <Standard Value>  (145) 
nan

>  <Assay ChEMBL ID>  (145) 
nan

>  <Assay Description>  (145) 
nan

>  <BAO Label>  (145) 
nan

$$$$

     RDKit          2D

 42 46  0  0  0  0  0  0  0  0999 V2000
   -5.9648   -6.8980    0.0000 C   0  0  0  0  0  0  0  0  0  0  0  0
   -4.7747   -5.9848    0.0000 C   0  0  0  0  0  0  0  0  0  0  0  0
   -4.9705   -4.4977    0.0000 O   0  0  0  0  0  0  0  0  0  0  0  0
   -3.3889   -6.5588    0.0000 O   0  0  0  0  0  0  0  0  0  0  0  0
   -2.1989   -5.6457    0.0000 C   0  0  0  0  0  0  0  0  0  0  0  0
   -2.5871   -4.1968    0.0000 C   0  0  0  0  0  0  0  0  0  0  0  0
   -4.0743   -4.0010    0.0000 O   0  0  0  0  0  0  0  0  0  0  0  0
   -1.8371   -2.8978    0.0000 C   0  0  0  0  0  0  0  0  0  0  0  0
   -3.3243   -3.0936    0.0000 C   0  0  0  0  0  0  0  0  0  0  0  0
   -0.3882   -2.5095    0.0000 C   0  0  0  0  0  0  0  0  0  0  0  0
    0.9108   -3.2595    0.0000 C   0  0  0  0  0  0  0  0  0  0  0  0
    2.1008   -2.3464    0.0000 O   0  0  0  0  0  0  0  0  0  0  0  0
    3.4867   -2.9204    0.0000 C   0  0  0  0  0  0  0  0  0  0  0  0
    3.6824   -4.4076    0.0000 O   0  0  0  0  0  0  0  0  0  0  0  0
    4.6767   -2.0073    0.0000 C   0  0  0  0  0  0  0  0  0  0  0  0
    6.0625   -2.5813    0.0000 C   0  0  0  0  0  0  0  0  0  0  0  0
    7.2525   -1.6682    0.0000 C   0  0  0  0  0  0  0  0  0  0  0  0
    7.0567   -0.1810    0.0000 C   0  0  0  0  0  0  0  0  0  0  0  0
    5.6709    0.3930    0.0000 C   0  0  0  0  0  0  0  0  0  0  0  0
    4.4809   -0.5201    0.0000 C   0  0  0  0  0  0  0  0  0  0  0  0
    1.2990   -4.7084    0.0000 C   0  0  0  0  0  0  0  0  0  0  0  0
    2.7862   -4.9042    0.0000 O   0  0  0  0  0  0  0  0  0  0  0  0
    2.0745   -6.0041    0.0000 C   0  0  0  0  0  0  0  0  0  0  0  0
    1.5005   -7.3899    0.0000 C   0  0  0  0  0  0  0  0  0  0  0  0
    2.4136   -8.5800    0.0000 O   0  0  0  0  0  0  0  0  0  0  0  0
    0.0133   -7.5857    0.0000 C   0  0  0  0  0  0  0  0  0  0  0  0
   -0.5607   -8.9716    0.0000 C   0  0  0  0  0  0  0  0  0  0  0  0
   -0.8999   -6.3957    0.0000 C   0  0  0  0  0  0  0  0  0  0  0  0
    0.5490   -6.0075    0.0000 C   0  0  0  0  0  0  0  0  0  0  0  0
    1.8609   -6.7348    0.0000 C   0  0  0  0  0  0  0  0  0  0  0  0
    0.8136   -7.0685    0.0000 C   0  0  0  0  0  0  0  0  0  0  0  0
   -0.0000   -1.0607    0.0000 C   0  0  0  0  0  0  0  0  0  0  0  0
    1.2990   -1.8107    0.0000 O   0  0  0  0  0  0  0  0  0  0  0  0
    2.5981   -1.0607    0.0000 C   0  0  0  0  0  0  0  0  0  0  0  0
    3.8971   -1.8107    0.0000 C   0  0  0  0  0  0  0  0  0  0  0  0
    2.5981    0.4393    0.0000 O   0  0  0  0  0  0  0  0  0  0  0  0
    1.0607    0.0000    0.0000 C   0  0  0  0  0  0  0  0  0  0  0  0
    0.0000    1.0607    0.0000 O   0  0  0  0  0  0  0  0  0  0  0  0
   -1.0607    0.0000    0.0000 C   0  0  0  0  0  0  0  0  0  0  0  0
   -2.5095   -0.3882    0.0000 C   0  0  0  0  0  0  0  0  0  0  0  0
   -2.8978   -1.8371    0.0000 C   0  0  0  0  0  0  0  0  0  0  0  0
   -4.3467   -2.2253    0.0000 O   0  0  0  0  0  0  0  0  0  0  0  0
  1  2  1  0
  2  3  2  0
  2  4  1  0
  5  4  1  1
  5  6  1  0
  6  7  2  0
  6  8  1  0
  8  9  1  1
  8 10  1  0
 10 11  1  1
 11 12  1  6
 12 13  1  0
 13 14  2  0
 13 15  1  0
 15 16  2  0
 16 17  1  0
 17 18  2  0
 18 19  1  0
 19 20  2  0
 11 21  1  0
 21 22  1  1
 21 23  1  0
 23 24  1  0
 24 25  1  6
 24 26  1  0
 26 27  1  0
 26 28  2  0
 28 29  1  0
 29 30  1  0
 29 31  1  0
 10 32  1  0
 32 33  1  6
 33 34  1  0
 34 35  1  0
 34 36  2  0
 32 37  1  0
 37 38  1  0
 38 39  1  0
 39 40  1  1
 40 41  1  0
 41 42  1  1
 28  5  1  0
 39 32  1  0
 41  8  1  0
 20 15  1  0
 29 21  1  0
M  END
>  <Compound_ID>  (146) 
C04102268

>  <Active>  (146) 
0

>  <Smiles>  (146) 
CC(=O)O[C@H]1C(=O)[C@@]2(C)[C@H]([C@H](OC(=O)c3ccccc3)[C@]3(O)C[C@H](O)C(C)=C1C3(C)C)[C@]1(OC(C)=O)CO[C@@H]1C[C@@H]2O

>  <canonical_smi>  (146) 
CC(=O)O[C@H]1C(=O)[C@]2(C)[C@@H](O)C[C@H]3OC[C@@]3(OC(C)=O)[C@H]2[C@H](OC(=O)c2ccccc2)[C@]2(O)C[C@H](O)C(C)=C1C2(C)C

>  <Set>  (146) 
G2 inactive

>  <Set_type>  (146) 
Train

>  <MW>  (146) 
586.63

>  <HBD>  (146) 
3

>  <HBA>  (146) 
11

>  <NRB>  (146) 
4

>  <NR>  (146) 
5

>  <NAR>  (146) 
1

>  <PSA>  (146) 
165.89

>  <Standard Type>  (146) 
nan

>  <Standard Relation>  (146) 
nan

>  <Standard Units>  (146) 
nan

>  <Standard Value>  (146) 
nan

>  <Assay ChEMBL ID>  (146) 
nan

>  <Assay Description>  (146) 
nan

>  <BAO Label>  (146) 
nan

$$$$

     RDKit          2D

 40 44  0  0  0  0  0  0  0  0999 V2000
   10.5000   -7.7942    0.0000 C   0  0  0  0  0  0  0  0  0  0  0  0
    9.7500   -6.4952    0.0000 C   0  0  0  0  0  0  0  0  0  0  0  0
    8.2500   -6.4952    0.0000 O   0  0  0  0  0  0  0  0  0  0  0  0
   10.5000   -5.1962    0.0000 N   0  0  0  0  0  0  0  0  0  0  0  0
    9.7500   -3.8971    0.0000 C   0  0  0  0  0  0  0  0  0  0  0  0
    8.2500   -3.8971    0.0000 C   0  0  0  0  0  0  0  0  0  0  0  0
    7.5000   -2.5981    0.0000 C   0  0  0  0  0  0  0  0  0  0  0  0
    8.2500   -1.2990    0.0000 C   0  0  0  0  0  0  0  0  0  0  0  0
    7.5000   -0.0000    0.0000 S   0  0  0  0  0  0  0  0  0  0  0  0
    6.2010   -0.7500    0.0000 O   0  0  0  0  0  0  0  0  0  0  0  0
    8.7990    0.7500    0.0000 O   0  0  0  0  0  0  0  0  0  0  0  0
    6.7500    1.2990    0.0000 N   0  0  0  0  0  0  0  0  0  0  0  0
    5.2500    1.2990    0.0000 C   0  0  0  0  0  0  0  0  0  0  0  0
    4.5000    2.5981    0.0000 C   0  0  0  0  0  0  0  0  0  0  0  0
    3.0000    2.5981    0.0000 C   0  0  0  0  0  0  0  0  0  0  0  0
    2.2500    1.2990    0.0000 C   0  0  0  0  0  0  0  0  0  0  0  0
    3.0000   -0.0000    0.0000 N   0  0  0  0  0  0  0  0  0  0  0  0
    4.5000   -0.0000    0.0000 C   0  0  0  0  0  0  0  0  0  0  0  0
    5.2500   -1.2990    0.0000 O   0  0  0  0  0  0  0  0  0  0  0  0
    2.2500   -1.2990    0.0000 C   0  0  0  0  0  0  0  0  0  0  0  0
    0.7500   -1.2990    0.0000 C   0  0  0  0  0  0  0  0  0  0  0  0
    1.5000    0.0000    0.0000 C   0  0  0  0  0  0  0  0  0  0  0  0
    0.7500    1.2990    0.0000 C   0  0  0  0  0  0  0  0  0  0  0  0
   -0.7500    1.2990    0.0000 C   0  0  0  0  0  0  0  0  0  0  0  0
   -1.5000    0.0000    0.0000 N   0  0  0  0  0  0  0  0  0  0  0  0
   -3.0000    0.0000    0.0000 C   0  0  0  0  0  0  0  0  0  0  0  0
   -3.7500   -1.2990    0.0000 O   0  0  0  0  0  0  0  0  0  0  0  0
   -3.7500    1.2990    0.0000 N   0  0  0  0  0  0  0  0  0  0  0  0
   -5.2500    1.2990    0.0000 C   0  0  0  0  0  0  0  0  0  0  0  0
   -6.0000    2.5981    0.0000 C   0  0  0  0  0  0  0  0  0  0  0  0
   -7.5000    2.5981    0.0000 C   0  0  0  0  0  0  0  0  0  0  0  0
   -8.2500    1.2990    0.0000 C   0  0  0  0  0  0  0  0  0  0  0  0
   -9.7500    1.2990    0.0000 C   0  0  0  0  0  0  0  0  0  0  0  0
  -10.5000    2.5981    0.0000 C   0  0  0  0  0  0  0  0  0  0  0  0
  -10.5000    0.0000    0.0000 O   0  0  0  0  0  0  0  0  0  0  0  0
   -7.5000    0.0000    0.0000 C   0  0  0  0  0  0  0  0  0  0  0  0
   -6.0000    0.0000    0.0000 C   0  0  0  0  0  0  0  0  0  0  0  0
   -0.7500   -1.2990    0.0000 C   0  0  0  0  0  0  0  0  0  0  0  0
    9.7500   -1.2990    0.0000 C   0  0  0  0  0  0  0  0  0  0  0  0
   10.5000   -2.5981    0.0000 C   0  0  0  0  0  0  0  0  0  0  0  0
  1  2  1  0
  2  3  2  0
  2  4  1  0
  4  5  1  0
  5  6  2  0
  6  7  1  0
  7  8  2  0
  8  9  1  0
  9 10  2  0
  9 11  2  0
  9 12  1  0
 12 13  1  0
 13 14  2  0
 14 15  1  0
 15 16  2  0
 16 17  1  0
 17 18  1  0
 18 19  2  0
 17 20  1  0
 21 20  1  6
 21 22  1  0
 22 23  1  0
 23 24  1  6
 24 25  1  0
 25 26  1  0
 26 27  2  0
 26 28  1  0
 28 29  1  0
 29 30  2  0
 30 31  1  0
 31 32  2  0
 32 33  1  0
 33 34  1  0
 33 35  2  0
 32 36  1  0
 36 37  2  0
 25 38  1  0
  8 39  1  0
 39 40  2  0
 40  5  1  0
 18 13  1  0
 38 21  1  0
 23 16  1  0
 37 29  1  0
M  END
>  <Compound_ID>  (147) 
C04150088

>  <Active>  (147) 
0

>  <Smiles>  (147) 
CC(=O)Nc1ccc(S(=O)(=O)Nc2ccc3n(c2=O)C[C@H]2C[C@@H]3CN(C(=O)Nc3ccc(C(C)=O)cc3)C2)cc1

>  <canonical_smi>  (147) 
CC(=O)Nc1ccc(S(=O)(=O)Nc2ccc3n(c2=O)C[C@H]2C[C@@H]3CN(C(=O)Nc3ccc(C(C)=O)cc3)C2)cc1

>  <Set>  (147) 
G2 inactive

>  <Set_type>  (147) 
Train

>  <MW>  (147) 
563.64

>  <HBD>  (147) 
3

>  <HBA>  (147) 
6

>  <NRB>  (147) 
6

>  <NR>  (147) 
5

>  <NAR>  (147) 
3

>  <PSA>  (147) 
146.68

>  <Standard Type>  (147) 
nan

>  <Standard Relation>  (147) 
nan

>  <Standard Units>  (147) 
nan

>  <Standard Value>  (147) 
nan

>  <Assay ChEMBL ID>  (147) 
nan

>  <Assay Description>  (147) 
nan

>  <BAO Label>  (147) 
nan

$$$$

     RDKit          2D

 19 21  0  0  0  0  0  0  0  0999 V2000
    6.8056   -1.2584    0.0000 H   0  0  0  0  0  0  0  0  0  0  0  0
    6.4937   -2.7256    0.0000 N   0  0  0  0  0  0  0  0  0  0  0  0
    5.0672   -3.1891    0.0000 C   0  0  0  0  0  0  0  0  0  0  0  0
    3.8536   -2.3075    0.0000 S   0  0  0  0  0  0  0  0  0  0  0  0
    2.6401   -3.1891    0.0000 C   0  0  0  0  0  0  0  0  0  0  0  0
    1.2135   -2.7256    0.0000 C   0  0  0  0  0  0  0  0  0  0  0  0
    0.7500   -1.2990    0.0000 C   0  0  0  0  0  0  0  0  0  0  0  0
    1.5000    0.0000    0.0000 C   0  0  0  0  0  0  0  0  0  0  0  0
    0.7500    1.2990    0.0000 C   0  0  0  0  0  0  0  0  0  0  0  0
   -0.7500    1.2990    0.0000 C   0  0  0  0  0  0  0  0  0  0  0  0
   -1.5000    0.0000    0.0000 C   0  0  0  0  0  0  0  0  0  0  0  0
   -0.7500   -1.2990    0.0000 C   0  0  0  0  0  0  0  0  0  0  0  0
   -1.2135   -2.7256    0.0000 N   0  0  0  0  0  0  0  0  0  0  0  0
    0.0000   -3.6073    0.0000 C   0  0  0  0  0  0  0  0  0  0  0  0
    0.0000   -5.1073    0.0000 O   0  0  0  0  0  0  0  0  0  0  0  0
    3.1036   -4.6157    0.0000 C   0  0  0  0  0  0  0  0  0  0  0  0
    2.2220   -5.8293    0.0000 O   0  0  0  0  0  0  0  0  0  0  0  0
    4.6036   -4.6157    0.0000 N   0  0  0  0  0  0  0  0  0  0  0  0
    5.4853   -5.8293    0.0000 C   0  0  0  0  0  0  0  0  0  0  0  0
  1  2  1  0
  2  3  2  0
  3  4  1  0
  4  5  1  0
  5  6  1  0
  6  7  2  0
  7  8  1  0
  8  9  2  0
  9 10  1  0
 10 11  2  0
 11 12  1  0
 12 13  2  0
 13 14  1  0
 14 15  2  0
  5 16  2  0
 16 17  1  0
 16 18  1  0
 18 19  1  0
 18  3  1  0
 14  6  1  0
 12  7  1  0
M  END
>  <Compound_ID>  (148) 
C05648741

>  <Active>  (148) 
0

>  <Smiles>  (148) 
[H]/N=c1\sc(C2=c3ccccc3=NC2=O)c(O)n1C

>  <canonical_smi>  (148) 
[H]/N=c1\sc(C2=c3ccccc3=NC2=O)c(O)n1C

>  <Set>  (148) 
G2 inactive

>  <Set_type>  (148) 
Train

>  <MW>  (148) 
259.29

>  <HBD>  (148) 
2

>  <HBA>  (148) 
2

>  <NRB>  (148) 
1

>  <NR>  (148) 
3

>  <NAR>  (148) 
2

>  <PSA>  (148) 
78.44

>  <Standard Type>  (148) 
nan

>  <Standard Relation>  (148) 
nan

>  <Standard Units>  (148) 
nan

>  <Standard Value>  (148) 
nan

>  <Assay ChEMBL ID>  (148) 
nan

>  <Assay Description>  (148) 
nan

>  <BAO Label>  (148) 
nan

$$$$

     RDKit          2D

 16 17  0  0  0  0  0  0  0  0999 V2000
    3.0000    0.0000    0.0000 N   0  0  0  0  0  0  0  0  0  0  0  0
    1.5000    0.0000    0.0000 N   0  0  0  0  0  0  0  0  0  0  0  0
    0.7500   -1.2990    0.0000 C   0  0  0  0  0  0  0  0  0  0  0  0
    1.5000   -2.5981    0.0000 O   0  0  0  0  0  0  0  0  0  0  0  0
   -0.7500   -1.2990    0.0000 C   0  0  0  0  0  0  0  0  0  0  0  0
   -1.5000   -2.5981    0.0000 C   0  0  0  0  0  0  0  0  0  0  0  0
   -3.0000   -2.5981    0.0000 C   0  0  0  0  0  0  0  0  0  0  0  0
   -3.7500   -3.8971    0.0000 C   0  0  0  0  0  0  0  0  0  0  0  0
   -3.1399   -5.2674    0.0000 C   0  0  0  0  0  0  0  0  0  0  0  0
   -4.2546   -6.2711    0.0000 C   0  0  0  0  0  0  0  0  0  0  0  0
   -5.5537   -5.5211    0.0000 C   0  0  0  0  0  0  0  0  0  0  0  0
   -5.2418   -4.0539    0.0000 S   0  0  0  0  0  0  0  0  0  0  0  0
   -1.5000    0.0000    0.0000 N   0  0  0  0  0  0  0  0  0  0  0  0
   -0.7500    1.2990    0.0000 N   0  0  0  0  0  0  0  0  0  0  0  0
    0.7500    1.2990    0.0000 C   0  0  0  0  0  0  0  0  0  0  0  0
    1.5000    2.5981    0.0000 S   0  0  0  0  0  0  0  0  0  0  0  0
  1  2  1  0
  2  3  1  0
  3  4  2  0
  3  5  1  0
  5  6  1  6
  6  7  2  0
  7  8  1  0
  8  9  2  0
  9 10  1  0
 10 11  2  0
 11 12  1  0
  5 13  1  0
 13 14  2  0
 14 15  1  0
 15 16  2  0
 15  2  1  0
 12  8  1  0
M  END
>  <Compound_ID>  (149) 
C39565313

>  <Active>  (149) 
0

>  <Smiles>  (149) 
NN1C(=O)[C@H](/C=C/c2cccs2)N=NC1=S

>  <canonical_smi>  (149) 
NN1C(=O)[C@H](/C=C/c2cccs2)N=NC1=S

>  <Set>  (149) 
G2 inactive

>  <Set_type>  (149) 
Train

>  <MW>  (149) 
252.32

>  <HBD>  (149) 
1

>  <HBA>  (149) 
3

>  <NRB>  (149) 
2

>  <NR>  (149) 
2

>  <NAR>  (149) 
1

>  <PSA>  (149) 
71.05

>  <Standard Type>  (149) 
nan

>  <Standard Relation>  (149) 
nan

>  <Standard Units>  (149) 
nan

>  <Standard Value>  (149) 
nan

>  <Assay ChEMBL ID>  (149) 
nan

>  <Assay Description>  (149) 
nan

>  <BAO Label>  (149) 
nan

$$$$

     RDKit          2D

 17 18  0  0  0  0  0  0  0  0999 V2000
    3.5260   -1.2990    0.0000 C   0  0  0  0  0  0  0  0  0  0  0  0
    2.7760    0.0000    0.0000 C   0  0  0  0  0  0  0  0  0  0  0  0
    1.2760    0.0000    0.0000 N   0  0  0  0  0  0  0  0  0  0  0  0
    0.3943    1.2135    0.0000 C   0  0  0  0  0  0  0  0  0  0  0  0
   -1.0323    0.7500    0.0000 C   0  0  0  0  0  0  0  0  0  0  0  0
   -2.2458    1.6317    0.0000 C   0  0  0  0  0  0  0  0  0  0  0  0
   -2.0890    3.1235    0.0000 C   0  0  0  0  0  0  0  0  0  0  0  0
   -3.6161    1.0216    0.0000 N   0  0  0  0  0  0  0  0  0  0  0  0
   -3.9280   -0.4456    0.0000 N   0  0  0  0  0  0  0  0  0  0  0  0
   -5.4198   -0.6024    0.0000 C   0  0  0  0  0  0  0  0  0  0  0  0
   -6.1698   -1.9015    0.0000 C   0  0  0  0  0  0  0  0  0  0  0  0
   -6.0299    0.7679    0.0000 C   0  0  0  0  0  0  0  0  0  0  0  0
   -7.4971    1.0797    0.0000 Cl  0  0  0  0  0  0  0  0  0  0  0  0
   -4.9152    1.7716    0.0000 C   0  0  0  0  0  0  0  0  0  0  0  0
   -5.0720    3.2634    0.0000 N   0  0  0  0  0  0  0  0  0  0  0  0
   -1.0323   -0.7500    0.0000 C   0  0  0  0  0  0  0  0  0  0  0  0
    0.3943   -1.2135    0.0000 N   0  0  0  0  0  0  0  0  0  0  0  0
  1  2  1  0
  2  3  1  0
  3  4  1  0
  4  5  2  0
  5  6  1  0
  6  7  1  6
  6  8  1  0
  8  9  1  0
  9 10  2  0
 10 11  1  0
 10 12  1  0
 12 13  1  0
 12 14  2  0
 14 15  1  0
  5 16  1  0
 16 17  2  0
 17  3  1  0
 14  8  1  0
M  END
>  <Compound_ID>  (150) 
C44500825

>  <Active>  (150) 
0

>  <Smiles>  (150) 
CCn1cc([C@@H](C)n2nc(C)c(Cl)c2N)cn1

>  <canonical_smi>  (150) 
CCn1cc([C@@H](C)n2nc(C)c(Cl)c2N)cn1

>  <Set>  (150) 
G2 inactive

>  <Set_type>  (150) 
Train

>  <MW>  (150) 
253.74

>  <HBD>  (150) 
1

>  <HBA>  (150) 
3

>  <NRB>  (150) 
3

>  <NR>  (150) 
2

>  <NAR>  (150) 
2

>  <PSA>  (150) 
61.66

>  <Standard Type>  (150) 
nan

>  <Standard Relation>  (150) 
nan

>  <Standard Units>  (150) 
nan

>  <Standard Value>  (150) 
nan

>  <Assay ChEMBL ID>  (150) 
nan

>  <Assay Description>  (150) 
nan

>  <BAO Label>  (150) 
nan

$$$$

     RDKit          2D

 19 21  0  0  0  0  0  0  0  0999 V2000
   -6.0000   -7.7942    0.0000 N   0  0  0  0  0  0  0  0  0  0  0  0
   -5.2500   -6.4952    0.0000 C   0  0  0  0  0  0  0  0  0  0  0  0
   -6.0000   -5.1962    0.0000 C   0  0  0  0  0  0  0  0  0  0  0  0
   -5.2500   -3.8971    0.0000 C   0  0  0  0  0  0  0  0  0  0  0  0
   -3.7500   -3.8971    0.0000 C   0  0  0  0  0  0  0  0  0  0  0  0
   -3.0000   -2.5981    0.0000 C   0  0  0  0  0  0  0  0  0  0  0  0
   -3.7500   -1.2990    0.0000 O   0  0  0  0  0  0  0  0  0  0  0  0
   -1.5000   -2.5981    0.0000 N   0  0  0  0  0  0  0  0  0  0  0  0
   -0.7500   -3.8971    0.0000 C   0  0  0  0  0  0  0  0  0  0  0  0
    0.7500   -3.8971    0.0000 C   0  0  0  0  0  0  0  0  0  0  0  0
    1.5000   -2.5981    0.0000 C   0  0  0  0  0  0  0  0  0  0  0  0
    0.7500   -1.2990    0.0000 C   0  0  0  0  0  0  0  0  0  0  0  0
    1.5000    0.0000    0.0000 C   0  0  0  0  0  0  0  0  0  0  0  0
    0.7500    1.2990    0.0000 C   0  0  0  0  0  0  0  0  0  0  0  0
   -0.7500    1.2990    0.0000 C   0  0  0  0  0  0  0  0  0  0  0  0
   -1.5000    0.0000    0.0000 C   0  0  0  0  0  0  0  0  0  0  0  0
   -0.7500   -1.2990    0.0000 C   0  0  0  0  0  0  0  0  0  0  0  0
   -3.0000   -5.1962    0.0000 N   0  0  0  0  0  0  0  0  0  0  0  0
   -3.7500   -6.4952    0.0000 N   0  0  0  0  0  0  0  0  0  0  0  0
  1  2  1  0
  2  3  2  0
  3  4  1  0
  4  5  2  0
  5  6  1  0
  6  7  2  0
  6  8  1  0
  8  9  1  0
  9 10  1  0
 10 11  1  0
 12 11  1  6
 12 13  1  0
 13 14  1  0
 14 15  1  0
 15 16  1  0
 17 16  1  6
  5 18  1  0
 18 19  2  0
 19  2  1  0
 17  8  1  0
 17 12  1  0
M  END
>  <Compound_ID>  (151) 
C50704088

>  <Active>  (151) 
0

>  <Smiles>  (151) 
Nc1ccc(C(=O)N2CCC[C@H]3CCCC[C@H]32)nn1

>  <canonical_smi>  (151) 
Nc1ccc(C(=O)N2CCC[C@H]3CCCC[C@H]32)nn1

>  <Set>  (151) 
G2 inactive

>  <Set_type>  (151) 
Train

>  <MW>  (151) 
260.34

>  <HBD>  (151) 
1

>  <HBA>  (151) 
4

>  <NRB>  (151) 
1

>  <NR>  (151) 
3

>  <NAR>  (151) 
1

>  <PSA>  (151) 
72.11

>  <Standard Type>  (151) 
nan

>  <Standard Relation>  (151) 
nan

>  <Standard Units>  (151) 
nan

>  <Standard Value>  (151) 
nan

>  <Assay ChEMBL ID>  (151) 
nan

>  <Assay Description>  (151) 
nan

>  <BAO Label>  (151) 
nan

$$$$

     RDKit          2D

 28 30  0  0  0  0  0  0  0  0999 V2000
    2.6709    3.2039    0.0000 C   0  0  0  0  0  0  0  0  0  0  0  0
    3.7856    2.2002    0.0000 C   0  0  0  0  0  0  0  0  0  0  0  0
    4.9004    1.1965    0.0000 C   0  0  0  0  0  0  0  0  0  0  0  0
    4.7893    3.3149    0.0000 C   0  0  0  0  0  0  0  0  0  0  0  0
    2.7820    1.0855    0.0000 C   0  0  0  0  0  0  0  0  0  0  0  0
    1.3147    1.3973    0.0000 C   0  0  0  0  0  0  0  0  0  0  0  0
    0.8512    2.8239    0.0000 O   0  0  0  0  0  0  0  0  0  0  0  0
   -0.6160    3.1358    0.0000 C   0  0  0  0  0  0  0  0  0  0  0  0
   -1.0795    4.5624    0.0000 C   0  0  0  0  0  0  0  0  0  0  0  0
   -2.5468    4.8742    0.0000 C   0  0  0  0  0  0  0  0  0  0  0  0
   -3.5505    3.7595    0.0000 C   0  0  0  0  0  0  0  0  0  0  0  0
   -3.0869    2.3329    0.0000 C   0  0  0  0  0  0  0  0  0  0  0  0
   -1.6197    2.0211    0.0000 C   0  0  0  0  0  0  0  0  0  0  0  0
    3.2455   -0.3411    0.0000 N   0  0  0  0  0  4  0  0  0  0  0  0
    2.2418   -1.4558    0.0000 C   0  0  0  0  0  0  0  0  0  0  0  0
    2.5537   -2.9231    0.0000 N   0  0  0  0  0  0  0  0  0  0  0  0
    1.2546   -3.6731    0.0000 C   0  0  0  0  0  0  0  0  0  0  0  0
    1.0978   -5.1648    0.0000 S   0  0  0  0  0  0  0  0  0  0  0  0
    0.1399   -2.6694    0.0000 N   0  0  0  0  0  0  0  0  0  0  0  0
   -1.3273   -2.9812    0.0000 C   0  0  0  0  0  0  0  0  0  0  0  0
   -1.7909   -4.4078    0.0000 C   0  0  0  0  0  0  0  0  0  0  0  0
   -2.2544   -5.8344    0.0000 N   0  0  0  0  0  0  0  0  0  0  0  0
    0.7500   -1.2990    0.0000 C   0  0  0  0  0  0  0  0  0  0  0  0
    1.5000    0.0000    0.0000 C   0  0  0  0  0  0  0  0  0  0  0  0
    0.7500    1.2990    0.0000 C   0  0  0  0  0  0  0  0  0  0  0  0
   -0.7500    1.2990    0.0000 C   0  0  0  0  0  0  0  0  0  0  0  0
   -1.5000    0.0000    0.0000 C   0  0  0  0  0  0  0  0  0  0  0  0
   -0.7500   -1.2990    0.0000 C   0  0  0  0  0  0  0  0  0  0  0  0
  1  2  1  0
  2  3  1  0
  2  4  1  0
  2  5  1  0
  5  6  1  6
  6  7  1  0
  7  8  1  0
  8  9  2  0
  9 10  1  0
 10 11  2  0
 11 12  1  0
 12 13  2  0
  5 14  1  0
 14 15  2  0
 15 16  1  0
 16 17  1  0
 17 18  2  0
 17 19  1  0
 19 20  1  0
 20 21  1  0
 21 22  3  0
 19 23  1  0
 23 24  1  0
 24 25  1  0
 25 26  1  0
 26 27  1  0
 27 28  1  0
 13  8  1  0
 23 15  1  0
 28 23  1  0
M  CHG  1  14   1
M  END
>  <Compound_ID>  (152) 
C01435836

>  <Active>  (152) 
0

>  <Smiles>  (152) 
CC(C)(C)[C@@H](COc1ccccc1)/[NH+]=C1/NC(=S)N(CC#N)C12CCCCC2

>  <canonical_smi>  (152) 
CC(C)(C)[C@@H](COc1ccccc1)/[NH+]=C1/NC(=S)N(CC#N)C12CCCCC2

>  <Set>  (152) 
G2 inactive

>  <Set_type>  (152) 
Train

>  <MW>  (152) 
399.58

>  <HBD>  (152) 
2

>  <HBA>  (152) 
5

>  <NRB>  (152) 
5

>  <NR>  (152) 
3

>  <NAR>  (152) 
1

>  <PSA>  (152) 
62.26

>  <Standard Type>  (152) 
nan

>  <Standard Relation>  (152) 
nan

>  <Standard Units>  (152) 
nan

>  <Standard Value>  (152) 
nan

>  <Assay ChEMBL ID>  (152) 
nan

>  <Assay Description>  (152) 
nan

>  <BAO Label>  (152) 
nan

$$$$

     RDKit          2D

 31 34  0  0  0  0  0  0  0  0999 V2000
    9.0000  -15.5885    0.0000 C   0  0  0  0  0  0  0  0  0  0  0  0
    7.5000  -15.5885    0.0000 C   0  0  0  0  0  0  0  0  0  0  0  0
    6.7500  -16.8875    0.0000 C   0  0  0  0  0  0  0  0  0  0  0  0
    6.7500  -14.2894    0.0000 C   0  0  0  0  0  0  0  0  0  0  0  0
    5.2500  -14.2894    0.0000 C   0  0  0  0  0  0  0  0  0  0  0  0
    4.5000  -15.5885    0.0000 C   0  0  0  0  0  0  0  0  0  0  0  0
    4.5000  -12.9904    0.0000 N   0  0  0  0  0  0  0  0  0  0  0  0
    5.2500  -11.6913    0.0000 C   0  0  0  0  0  0  0  0  0  0  0  0
    6.7500  -11.6913    0.0000 O   0  0  0  0  0  0  0  0  0  0  0  0
    4.5000  -10.3923    0.0000 C   0  0  0  0  0  0  0  0  0  0  0  0
    3.0000  -10.3923    0.0000 C   0  0  0  0  0  0  0  0  0  0  0  0
    2.2500   -9.0933    0.0000 C   0  0  0  0  0  0  0  0  0  0  0  0
    3.0000   -7.7942    0.0000 C   0  0  0  0  0  0  0  0  0  0  0  0
    2.2500   -6.4952    0.0000 C   0  0  0  0  0  0  0  0  0  0  0  0
    0.7500   -6.4952    0.0000 C   0  0  0  0  0  0  0  0  0  0  0  0
   -0.0000   -5.1962    0.0000 C   0  0  0  0  0  0  0  0  0  0  0  0
    0.7500   -3.8971    0.0000 C   0  0  0  0  0  0  0  0  0  0  0  0
    2.2500   -3.8971    0.0000 C   0  0  0  0  0  0  0  0  0  0  0  0
    3.0000   -5.1962    0.0000 C   0  0  0  0  0  0  0  0  0  0  0  0
    3.0000   -2.5981    0.0000 C   0  0  0  0  0  0  0  0  0  0  0  0
    2.2500   -1.2990    0.0000 C   0  0  0  0  0  0  0  0  0  0  0  0
    0.7500   -1.2990    0.0000 C   0  0  0  0  0  0  0  0  0  0  0  0
    1.5000    0.0000    0.0000 C   0  0  0  0  0  0  0  0  0  0  0  0
    0.7500    1.2990    0.0000 C   0  0  0  0  0  0  0  0  0  0  0  0
   -0.7500    1.2990    0.0000 N   0  0  0  0  0  4  0  0  0  0  0  0
   -1.5000    2.5981    0.0000 C   0  0  0  0  0  0  0  0  0  0  0  0
   -1.5000    0.0000    0.0000 C   0  0  0  0  0  0  0  0  0  0  0  0
   -0.7500   -1.2990    0.0000 C   0  0  0  0  0  0  0  0  0  0  0  0
   -0.0000   -2.5981    0.0000 O   0  0  0  0  0  0  0  0  0  0  0  0
    4.5000   -7.7942    0.0000 C   0  0  0  0  0  0  0  0  0  0  0  0
    5.2500   -9.0933    0.0000 C   0  0  0  0  0  0  0  0  0  0  0  0
  1  2  1  0
  2  3  1  0
  2  4  1  0
  4  5  1  0
  5  6  1  6
  5  7  1  0
  7  8  1  0
  8  9  2  0
  8 10  1  0
 10 11  2  0
 11 12  1  0
 12 13  2  0
 13 14  1  0
 14 15  2  0
 15 16  1  0
 16 17  2  0
 17 18  1  0
 18 19  2  0
 18 20  1  0
 20 21  1  0
 21 22  1  0
 22 23  1  0
 23 24  1  0
 24 25  1  0
 25 26  1  0
 25 27  1  0
 27 28  1  0
 22 29  1  0
 13 30  1  0
 30 31  2  0
 31 10  1  0
 19 14  1  0
 28 22  1  0
 29 17  1  0
M  CHG  1  25   1
M  END
>  <Compound_ID>  (153) 
C39227682

>  <Active>  (153) 
0

>  <Smiles>  (153) 
CC(C)C[C@H](C)NC(=O)c1ccc(-c2ccc3c(c2)CCC2(CC[NH+](C)CC2)O3)cc1

>  <canonical_smi>  (153) 
CC(C)C[C@H](C)NC(=O)c1ccc(-c2ccc3c(c2)CCC2(CC[NH+](C)CC2)O3)cc1

>  <Set>  (153) 
G2 inactive

>  <Set_type>  (153) 
Train

>  <MW>  (153) 
421.61

>  <HBD>  (153) 
2

>  <HBA>  (153) 
2

>  <NRB>  (153) 
5

>  <NR>  (153) 
4

>  <NAR>  (153) 
2

>  <PSA>  (153) 
42.77

>  <Standard Type>  (153) 
nan

>  <Standard Relation>  (153) 
nan

>  <Standard Units>  (153) 
nan

>  <Standard Value>  (153) 
nan

>  <Assay ChEMBL ID>  (153) 
nan

>  <Assay Description>  (153) 
nan

>  <BAO Label>  (153) 
nan

$$$$

     RDKit          2D

 28 32  0  0  0  0  0  0  0  0999 V2000
  -15.5247    6.0289    0.0000 C   0  0  0  0  0  0  0  0  0  0  0  0
  -14.3112    6.9106    0.0000 O   0  0  0  0  0  0  0  0  0  0  0  0
  -12.9409    6.3005    0.0000 C   0  0  0  0  0  0  0  0  0  0  0  0
  -12.7841    4.8087    0.0000 O   0  0  0  0  0  0  0  0  0  0  0  0
  -11.7273    7.1822    0.0000 C   0  0  0  0  0  0  0  0  0  0  0  0
  -10.3007    6.7187    0.0000 C   0  0  0  0  0  0  0  0  0  0  0  0
   -9.4191    7.9322    0.0000 C   0  0  0  0  0  0  0  0  0  0  0  0
   -7.9191    7.9322    0.0000 C   0  0  0  0  0  0  0  0  0  0  0  0
   -7.0374    9.1457    0.0000 C   0  0  0  0  0  0  0  0  0  0  0  0
   -5.6108    8.6822    0.0000 S   0  0  0  0  0  0  0  0  0  0  0  0
   -5.6108    7.1822    0.0000 C   0  0  0  0  0  0  0  0  0  0  0  0
   -4.3973    6.3005    0.0000 N   0  0  0  0  0  0  0  0  0  0  0  0
   -4.5541    4.8087    0.0000 C   0  0  0  0  0  0  0  0  0  0  0  0
   -5.9244    4.1986    0.0000 O   0  0  0  0  0  0  0  0  0  0  0  0
   -3.3405    3.9271    0.0000 C   0  0  0  0  0  0  0  0  0  0  0  0
   -3.3405    2.4271    0.0000 C   0  0  0  0  0  0  0  0  0  0  0  0
   -1.9140    1.9635    0.0000 C   0  0  0  0  0  0  0  0  0  0  0  0
   -1.0323    3.1771    0.0000 C   0  0  0  0  0  0  0  0  0  0  0  0
    0.3943    2.7135    0.0000 N   0  0  0  0  0  0  0  0  0  0  0  0
    0.3943    1.2135    0.0000 C   0  0  0  0  0  0  0  0  0  0  0  0
    1.2760    0.0000    0.0000 S   0  0  0  0  0  0  0  0  0  0  0  0
    0.3943   -1.2135    0.0000 C   0  0  0  0  0  0  0  0  0  0  0  0
   -1.0323   -0.7500    0.0000 C   0  0  0  0  0  0  0  0  0  0  0  0
   -1.0323    0.7500    0.0000 N   0  0  0  0  0  0  0  0  0  0  0  0
   -1.9140    4.3906    0.0000 S   0  0  0  0  0  0  0  0  0  0  0  0
   -7.0374    6.7187    0.0000 N   0  0  0  0  0  0  0  0  0  0  0  0
  -10.3007    9.1457    0.0000 C   0  0  0  0  0  0  0  0  0  0  0  0
  -11.7273    8.6822    0.0000 N   0  0  0  0  0  0  0  0  0  0  0  0
  1  2  1  0
  2  3  1  0
  3  4  2  0
  3  5  1  0
  5  6  2  0
  6  7  1  0
  7  8  1  0
  8  9  2  0
  9 10  1  0
 10 11  1  0
 11 12  1  0
 12 13  1  0
 13 14  2  0
 13 15  1  0
 15 16  2  0
 16 17  1  0
 17 18  2  0
 18 19  1  0
 19 20  2  0
 20 21  1  0
 21 22  1  0
 22 23  2  0
 23 24  1  0
 18 25  1  0
 11 26  2  0
  7 27  2  0
 27 28  1  0
 28  5  1  0
 26  8  1  0
 25 15  1  0
 24 17  1  0
 24 20  1  0
M  END
>  <Compound_ID>  (154) 
C30987583

>  <Active>  (154) 
0

>  <Smiles>  (154) 
COC(=O)c1cc(-c2csc(NC(=O)c3cc4c(nc5sccn54)s3)n2)c[nH]1

>  <canonical_smi>  (154) 
COC(=O)c1cc(-c2csc(NC(=O)c3cc4c(nc5sccn54)s3)n2)c[nH]1

>  <Set>  (154) 
G2 inactive

>  <Set_type>  (154) 
Train

>  <MW>  (154) 
429.51

>  <HBD>  (154) 
2

>  <HBA>  (154) 
5

>  <NRB>  (154) 
4

>  <NR>  (154) 
5

>  <NAR>  (154) 
5

>  <PSA>  (154) 
101.38

>  <Standard Type>  (154) 
nan

>  <Standard Relation>  (154) 
nan

>  <Standard Units>  (154) 
nan

>  <Standard Value>  (154) 
nan

>  <Assay ChEMBL ID>  (154) 
nan

>  <Assay Description>  (154) 
nan

>  <BAO Label>  (154) 
nan

$$$$

     RDKit          2D

 21 23  0  0  0  0  0  0  0  0999 V2000
  -11.1975    2.9107    0.0000 C   0  0  0  0  0  0  0  0  0  0  0  0
   -9.7709    3.3742    0.0000 C   0  0  0  0  0  0  0  0  0  0  0  0
   -8.6562    2.3705    0.0000 S   0  0  0  0  0  0  0  0  0  0  0  0
   -7.2296    2.8340    0.0000 C   0  0  0  0  0  0  0  0  0  0  0  0
   -6.9177    4.3013    0.0000 N   0  0  0  0  0  0  0  0  0  0  0  0
   -5.4912    4.7648    0.0000 C   0  0  0  0  0  0  0  0  0  0  0  0
   -4.3764    3.7611    0.0000 C   0  0  0  0  0  0  0  0  0  0  0  0
   -2.9499    4.2246    0.0000 Br  0  0  0  0  0  0  0  0  0  0  0  0
   -4.6883    2.2939    0.0000 C   0  0  0  0  0  0  0  0  0  0  0  0
   -3.5736    1.2902    0.0000 S   0  0  0  0  0  0  0  0  0  0  0  0
   -2.1470    1.7537    0.0000 C   0  0  0  0  0  0  0  0  0  0  0  0
   -1.8351    3.2209    0.0000 N   0  0  0  0  0  0  0  0  0  0  0  0
   -0.4086    3.6844    0.0000 C   0  0  0  0  0  0  0  0  0  0  0  0
   -0.0967    5.1517    0.0000 N   0  0  0  0  0  0  0  0  0  0  0  0
    0.7062    2.6807    0.0000 N   0  0  0  0  0  0  0  0  0  0  0  0
    0.3943    1.2135    0.0000 C   0  0  0  0  0  0  0  0  0  0  0  0
    1.2760    0.0000    0.0000 N   0  0  0  0  0  0  0  0  0  0  0  0
    0.3943   -1.2135    0.0000 C   0  0  0  0  0  0  0  0  0  0  0  0
   -1.0323   -0.7500    0.0000 N   0  0  0  0  0  0  0  0  0  0  0  0
   -1.0323    0.7500    0.0000 C   0  0  0  0  0  0  0  0  0  0  0  0
   -6.1149    1.8303    0.0000 N   0  0  0  0  0  0  0  0  0  0  0  0
  1  2  1  0
  2  3  1  0
  3  4  1  0
  4  5  2  0
  5  6  1  0
  6  7  2  0
  7  8  1  0
  7  9  1  0
  9 10  1  0
 10 11  1  0
 11 12  2  0
 12 13  1  0
 13 14  1  0
 13 15  2  0
 15 16  1  0
 16 17  1  0
 17 18  1  0
 18 19  2  0
 19 20  1  0
  9 21  2  0
 21  4  1  0
 20 11  1  0
 20 16  2  0
M  END
>  <Compound_ID>  (155) 
C08615349

>  <Active>  (155) 
0

>  <Smiles>  (155) 
CCSc1ncc(Br)c(Sc2nc(N)nc3[nH]cnc23)n1

>  <canonical_smi>  (155) 
CCSc1ncc(Br)c(Sc2nc(N)nc3[nH]cnc23)n1

>  <Set>  (155) 
G2 inactive

>  <Set_type>  (155) 
Train

>  <MW>  (155) 
384.29

>  <HBD>  (155) 
2

>  <HBA>  (155) 
8

>  <NRB>  (155) 
4

>  <NR>  (155) 
3

>  <NAR>  (155) 
3

>  <PSA>  (155) 
106.26

>  <Standard Type>  (155) 
nan

>  <Standard Relation>  (155) 
nan

>  <Standard Units>  (155) 
nan

>  <Standard Value>  (155) 
nan

>  <Assay ChEMBL ID>  (155) 
nan

>  <Assay Description>  (155) 
nan

>  <BAO Label>  (155) 
nan

$$$$

     RDKit          2D

 32 35  0  0  0  0  0  0  0  0999 V2000
   -0.3991   -2.9329    0.0000 C   0  0  0  0  0  0  0  0  0  0  0  0
    0.7500   -3.8971    0.0000 C   0  0  0  0  0  0  0  0  0  0  0  0
    1.5000   -2.5981    0.0000 O   0  0  0  0  0  0  0  0  0  0  0  0
    0.7500   -1.2990    0.0000 C   0  0  0  0  0  0  0  0  0  0  0  0
    1.5000    0.0000    0.0000 C   0  0  0  0  0  0  0  0  0  0  0  0
    0.7500    1.2990    0.0000 C   0  0  0  0  0  0  0  0  0  0  0  0
   -0.7500    1.2990    0.0000 C   0  0  0  0  0  0  0  0  0  0  0  0
   -1.5000    2.5981    0.0000 N   0  0  0  0  0  0  0  0  0  0  0  0
   -3.0000    2.5981    0.0000 C   0  0  0  0  0  0  0  0  0  0  0  0
   -3.7500    3.8971    0.0000 C   0  0  0  0  0  0  0  0  0  0  0  0
   -5.2500    3.8971    0.0000 C   0  0  0  0  0  0  0  0  0  0  0  0
   -6.0000    2.5981    0.0000 C   0  0  0  0  0  0  0  0  0  0  0  0
   -7.5000    2.5981    0.0000 O   0  0  0  0  0  0  0  0  0  0  0  0
   -5.2500    1.2990    0.0000 C   0  0  0  0  0  0  0  0  0  0  0  0
   -3.7500    1.2990    0.0000 C   0  0  0  0  0  0  0  0  0  0  0  0
   -3.0000    0.0000    0.0000 O   0  0  0  0  0  0  0  0  0  0  0  0
   -1.5000    0.0000    0.0000 C   0  0  0  0  0  0  0  0  0  0  0  0
   -0.7500   -1.2990    0.0000 C   0  0  0  0  0  0  0  0  0  0  0  0
    2.1595   -4.4101    0.0000 O   0  0  0  0  0  0  0  0  0  0  0  0
    2.4200   -5.8874    0.0000 C   0  0  0  0  0  0  0  0  0  0  0  0
    3.1700   -7.1864    0.0000 C   0  0  0  0  0  0  0  0  0  0  0  0
    3.8296   -5.3743    0.0000 C   0  0  0  0  0  0  0  0  0  0  0  0
    4.9786   -6.3385    0.0000 O   0  0  0  0  0  0  0  0  0  0  0  0
    1.2709   -6.8515    0.0000 C   0  0  0  0  0  0  0  0  0  0  0  0
    0.5209   -8.1506    0.0000 C   0  0  0  0  0  0  0  0  0  0  0  0
    2.4200   -7.8157    0.0000 O   0  0  0  0  0  0  0  0  0  0  0  0
   -0.1386   -6.3385    0.0000 C   0  0  0  0  0  0  0  0  0  0  0  0
   -1.6386   -6.3385    0.0000 C   0  0  0  0  0  0  0  0  0  0  0  0
   -0.3991   -7.8157    0.0000 O   0  0  0  0  0  0  0  0  0  0  0  0
   -0.3991   -4.8613    0.0000 C   0  0  0  0  0  0  0  0  0  0  0  0
   -1.1491   -3.5623    0.0000 C   0  0  0  0  0  0  0  0  0  0  0  0
   -1.8086   -5.3743    0.0000 O   0  0  0  0  0  0  0  0  0  0  0  0
  2  1  1  1
  2  3  1  0
  3  4  1  0
  4  5  2  0
  5  6  1  0
  6  7  2  0
  7  8  1  0
  8  9  2  0
  9 10  1  0
 10 11  2  0
 11 12  1  0
 12 13  2  0
 12 14  1  0
 14 15  2  0
 15 16  1  0
 16 17  1  0
 17 18  2  0
  2 19  1  0
 19 20  1  0
 20 21  1  6
 20 22  1  0
 22 23  1  0
 20 24  1  0
 24 25  1  1
 24 26  1  0
 24 27  1  0
 27 28  1  6
 27 29  1  0
 27 30  1  0
 30 31  1  6
 30 32  1  0
 30  2  1  0
 18  4  1  0
 17  7  1  0
 15  9  1  0
M  END
>  <Compound_ID>  (156) 
C09970331

>  <Active>  (156) 
0

>  <Smiles>  (156) 
C[C@@]1(Oc2ccc3nc4ccc(=O)cc-4oc3c2)O[C@@](C)(CO)[C@](C)(O)[C@@](C)(O)[C@@]1(C)O

>  <canonical_smi>  (156) 
C[C@@]1(CO)O[C@@](C)(Oc2ccc3nc4ccc(=O)cc-4oc3c2)[C@](C)(O)[C@](C)(O)[C@@]1(C)O

>  <Set>  (156) 
G2 inactive

>  <Set_type>  (156) 
Train

>  <MW>  (156) 
445.47

>  <HBD>  (156) 
4

>  <HBA>  (156) 
9

>  <NRB>  (156) 
3

>  <NR>  (156) 
4

>  <NAR>  (156) 
3

>  <PSA>  (156) 
142.48

>  <Standard Type>  (156) 
nan

>  <Standard Relation>  (156) 
nan

>  <Standard Units>  (156) 
nan

>  <Standard Value>  (156) 
nan

>  <Assay ChEMBL ID>  (156) 
nan

>  <Assay Description>  (156) 
nan

>  <BAO Label>  (156) 
nan

$$$$

     RDKit          2D

 34 39  0  0  0  0  0  0  0  0999 V2000
   -0.7500   -3.8971    0.0000 O   0  0  0  0  0  0  0  0  0  0  0  0
    0.7500   -3.8971    0.0000 C   0  0  0  0  0  0  0  0  0  0  0  0
    1.5000   -5.1962    0.0000 N   0  0  0  0  0  0  0  0  0  0  0  0
    0.7500   -6.4952    0.0000 C   0  0  0  0  0  0  0  0  0  0  0  0
   -0.7500   -6.4952    0.0000 C   0  0  0  0  0  0  0  0  0  0  0  0
   -1.5000   -7.7942    0.0000 C   0  0  0  0  0  0  0  0  0  0  0  0
   -0.7500   -9.0933    0.0000 C   0  0  0  0  0  0  0  0  0  0  0  0
   -1.5000  -10.3923    0.0000 N   0  0  0  0  0  0  0  0  0  0  0  0
   -0.8899  -11.7626    0.0000 C   0  0  0  0  0  0  0  0  0  0  0  0
   -2.0046  -12.7663    0.0000 C   0  0  0  0  0  0  0  0  0  0  0  0
   -3.3037  -12.0163    0.0000 C   0  0  0  0  0  0  0  0  0  0  0  0
   -2.9918  -10.5491    0.0000 C   0  0  0  0  0  0  0  0  0  0  0  0
    0.7500   -9.0933    0.0000 C   0  0  0  0  0  0  0  0  0  0  0  0
    1.5000  -10.3923    0.0000 C   0  0  0  0  0  0  0  0  0  0  0  0
    0.7500  -11.6913    0.0000 O   0  0  0  0  0  0  0  0  0  0  0  0
    3.0000  -10.3923    0.0000 N   0  0  0  0  0  0  0  0  0  0  0  0
    3.7500  -11.6913    0.0000 C   0  0  0  0  0  0  0  0  0  0  0  0
    5.2500  -11.6913    0.0000 C   0  0  0  0  0  0  0  0  0  0  0  0
    6.1317  -10.4778    0.0000 C   0  0  0  0  0  0  0  0  0  0  0  0
    7.5583  -10.9413    0.0000 C   0  0  0  0  0  0  0  0  0  0  0  0
    7.5583  -12.4413    0.0000 C   0  0  0  0  0  0  0  0  0  0  0  0
    6.1317  -12.9049    0.0000 O   0  0  0  0  0  0  0  0  0  0  0  0
    1.5000   -7.7942    0.0000 C   0  0  0  0  0  0  0  0  0  0  0  0
    1.5000   -2.5981    0.0000 N   0  0  0  0  0  0  0  0  0  0  0  0
    0.7500   -1.2990    0.0000 C   0  0  0  0  0  0  0  0  0  0  0  0
    1.5000    0.0000    0.0000 C   0  0  0  0  0  0  0  0  0  0  0  0
    0.7500    1.2990    0.0000 C   0  0  0  0  0  0  0  0  0  0  0  0
   -0.7500    1.2990    0.0000 C   0  0  0  0  0  0  0  0  0  0  0  0
   -1.5000    0.0000    0.0000 C   0  0  0  0  0  0  0  0  0  0  0  0
    1.7010   -0.7500    0.0000 C   0  0  0  0  0  0  0  0  0  0  0  0
    3.0000   -0.0000    0.0000 C   0  0  0  0  0  0  0  0  0  0  0  0
    2.2500    1.2990    0.0000 C   0  0  0  0  0  0  0  0  0  0  0  0
    2.2500   -1.2990    0.0000 C   0  0  0  0  0  0  0  0  0  0  0  0
   -0.7500   -1.2990    0.0000 C   0  0  0  0  0  0  0  0  0  0  0  0
  1  2  2  0
  2  3  1  0
  3  4  1  0
  4  5  2  0
  5  6  1  0
  6  7  2  0
  7  8  1  0
  8  9  1  0
  9 10  1  0
 10 11  1  0
 11 12  1  0
  7 13  1  0
 13 14  1  0
 14 15  2  0
 14 16  1  0
 16 17  1  0
 18 17  1  6
 18 19  1  0
 19 20  1  0
 20 21  1  0
 21 22  1  0
 13 23  2  0
  2 24  1  0
 24 25  1  0
 25 26  1  0
 26 27  1  0
 27 28  1  0
 28 29  1  0
 29 30  1  0
 30 31  1  0
 31 32  1  0
 31 33  1  0
 29 34  1  0
 23  4  1  0
 33 25  1  0
 12  8  1  0
 22 18  1  0
 34 25  1  0
 32 27  1  0
M  END
>  <Compound_ID>  (157) 
C33557718

>  <Active>  (157) 
0

>  <Smiles>  (157) 
O=C(Nc1ccc(N2CCCC2)c(C(=O)NC[C@@H]2CCCO2)c1)NC12CC3CC(CC(C3)C1)C2

>  <canonical_smi>  (157) 
O=C(Nc1ccc(N2CCCC2)c(C(=O)NC[C@@H]2CCCO2)c1)NC12CC3CC(CC(C3)C1)C2

>  <Set>  (157) 
G2 inactive

>  <Set_type>  (157) 
Train

>  <MW>  (157) 
466.63

>  <HBD>  (157) 
3

>  <HBA>  (157) 
4

>  <NRB>  (157) 
6

>  <NR>  (157) 
7

>  <NAR>  (157) 
1

>  <PSA>  (157) 
82.7

>  <Standard Type>  (157) 
nan

>  <Standard Relation>  (157) 
nan

>  <Standard Units>  (157) 
nan

>  <Standard Value>  (157) 
nan

>  <Assay ChEMBL ID>  (157) 
nan

>  <Assay Description>  (157) 
nan

>  <BAO Label>  (157) 
nan

$$$$

     RDKit          2D

 17 16  0  0  0  0  0  0  0  0999 V2000
    0.0000    0.0000    0.0000 C   0  0  0  0  0  0  0  0  0  0  0  0
    1.2990    0.7500    0.0000 C   0  0  0  0  0  0  0  0  0  0  0  0
    0.5490    2.0490    0.0000 N   0  0  0  0  0  4  0  0  0  0  0  0
    2.5981    1.5000    0.0000 C   0  0  0  0  0  0  0  0  0  0  0  0
    2.5981    3.0000    0.0000 C   0  0  0  0  0  0  0  0  0  0  0  0
    1.0981    3.0000    0.0000 O   0  0  0  0  0  0  0  0  0  0  0  0
    2.5981    4.5000    0.0000 C   0  0  0  0  0  0  0  0  0  0  0  0
    2.5981    6.0000    0.0000 F   0  0  0  0  0  0  0  0  0  0  0  0
    1.0981    4.5000    0.0000 F   0  0  0  0  0  0  0  0  0  0  0  0
    3.4772    4.6080    0.0000 Cl  0  0  0  0  0  0  0  0  0  0  0  0
    4.0981    3.0000    0.0000 C   0  0  0  0  0  0  0  0  0  0  0  0
    5.5981    3.0000    0.0000 F   0  0  0  0  0  0  0  0  0  0  0  0
    4.2060    3.8791    0.0000 F   0  0  0  0  0  0  0  0  0  0  0  0
    4.0981    1.5000    0.0000 Cl  0  0  0  0  0  0  0  0  0  0  0  0
    2.0490   -0.5490    0.0000 C   0  0  0  0  0  0  0  0  0  0  0  0
    1.2990   -1.8481    0.0000 O   0  0  0  0  0  0  0  0  0  0  0  0
    3.5490   -0.5490    0.0000 O   0  0  0  0  0  1  0  0  0  0  0  0
  2  1  1  1
  2  3  1  0
  2  4  1  0
  4  5  1  0
  5  6  1  0
  5  7  1  0
  7  8  1  0
  7  9  1  0
  7 10  1  0
  5 11  1  0
 11 12  1  0
 11 13  1  0
 11 14  1  0
  2 15  1  0
 15 16  2  0
 15 17  1  0
M  CHG  2   3   1  17  -1
M  END
>  <Compound_ID>  (158) 
C06442030

>  <Active>  (158) 
0

>  <Smiles>  (158) 
C[C@@]([NH3+])(CC(O)(C(F)(F)Cl)C(F)(F)Cl)C(=O)[O-]

>  <canonical_smi>  (158) 
C[C@@]([NH3+])(CC(O)(C(F)(F)Cl)C(F)(F)Cl)C(=O)[O-]

>  <Set>  (158) 
G2 inactive

>  <Set_type>  (158) 
Train

>  <MW>  (158) 
302.05

>  <HBD>  (158) 
2

>  <HBA>  (158) 
3

>  <NRB>  (158) 
5

>  <NR>  (158) 
0

>  <NAR>  (158) 
0

>  <PSA>  (158) 
88.0

>  <Standard Type>  (158) 
nan

>  <Standard Relation>  (158) 
nan

>  <Standard Units>  (158) 
nan

>  <Standard Value>  (158) 
nan

>  <Assay ChEMBL ID>  (158) 
nan

>  <Assay Description>  (158) 
nan

>  <BAO Label>  (158) 
nan

$$$$

     RDKit          2D

 23 25  0  0  0  0  0  0  0  0999 V2000
   -4.5960   -3.5353    0.0000 C   0  0  0  0  0  0  0  0  0  0  0  0
   -3.2970   -4.2853    0.0000 C   0  0  0  0  0  0  0  0  0  0  0  0
   -1.9979   -3.5353    0.0000 N   0  0  0  0  0  0  0  0  0  0  0  0
   -0.6989   -4.2853    0.0000 C   0  0  0  0  0  0  0  0  0  0  0  0
   -0.3107   -5.7342    0.0000 C   0  0  0  0  0  0  0  0  0  0  0  0
   -1.0607   -7.0333    0.0000 O   0  0  0  0  0  0  0  0  0  0  0  0
    1.1382   -5.3460    0.0000 C   0  0  0  0  0  0  0  0  0  0  0  0
    2.4373   -6.0960    0.0000 O   0  0  0  0  0  0  0  0  0  0  0  0
    0.7500   -3.8971    0.0000 C   0  0  0  0  0  0  0  0  0  0  0  0
    1.5000   -2.5981    0.0000 N   0  0  0  0  0  0  0  0  0  0  0  0
    0.7500   -1.2990    0.0000 C   0  0  0  0  0  0  0  0  0  0  0  0
    1.5000    0.0000    0.0000 C   0  0  0  0  0  0  0  0  0  0  0  0
    0.7500    1.2990    0.0000 C   0  0  0  0  0  0  0  0  0  0  0  0
   -0.7500    1.2990    0.0000 N   0  0  0  0  0  4  0  0  0  0  0  0
   -1.5000    0.0000    0.0000 C   0  0  0  0  0  0  0  0  0  0  0  0
   -0.7500   -1.2990    0.0000 C   0  0  0  0  0  0  0  0  0  0  0  0
   -3.2970   -5.7853    0.0000 C   0  0  0  0  0  0  0  0  0  0  0  0
   -4.5960   -6.5353    0.0000 C   0  0  0  0  0  0  0  0  0  0  0  0
   -4.5960   -8.0353    0.0000 C   0  0  0  0  0  0  0  0  0  0  0  0
   -3.2970   -8.7853    0.0000 C   0  0  0  0  0  0  0  0  0  0  0  0
   -1.9979   -8.0353    0.0000 C   0  0  0  0  0  0  0  0  0  0  0  0
   -0.6989   -8.7853    0.0000 N   0  0  0  0  0  0  0  0  0  0  0  0
   -1.9979   -6.5353    0.0000 C   0  0  0  0  0  0  0  0  0  0  0  0
  2  1  1  1
  2  3  1  0
  3  4  2  0
  4  5  1  0
  5  6  2  0
  5  7  1  0
  7  8  2  0
  7  9  1  0
  9 10  1  6
 10 11  1  0
 11 12  2  0
 12 13  1  0
 13 14  2  0
 14 15  1  0
 15 16  2  0
  2 17  1  0
 17 18  2  0
 18 19  1  0
 19 20  2  0
 20 21  1  0
 21 22  1  0
 21 23  2  0
  9  4  1  0
 16 11  1  0
 23 17  1  0
M  CHG  1  14   1
M  END
>  <Compound_ID>  (159) 
C49538650

>  <Active>  (159) 
0

>  <Smiles>  (159) 
C[C@@H](/N=C1\C(=O)C(=O)[C@H]1Nc1cc[nH+]cc1)c1cccc(N)c1

>  <canonical_smi>  (159) 
C[C@@H](/N=C1\C(=O)C(=O)[C@H]1Nc1cc[nH+]cc1)c1cccc(N)c1

>  <Set>  (159) 
G2 inactive

>  <Set_type>  (159) 
Train

>  <MW>  (159) 
309.35

>  <HBD>  (159) 
2

>  <HBA>  (159) 
4

>  <NRB>  (159) 
4

>  <NR>  (159) 
3

>  <NAR>  (159) 
2

>  <PSA>  (159) 
98.69

>  <Standard Type>  (159) 
nan

>  <Standard Relation>  (159) 
nan

>  <Standard Units>  (159) 
nan

>  <Standard Value>  (159) 
nan

>  <Assay ChEMBL ID>  (159) 
nan

>  <Assay Description>  (159) 
nan

>  <BAO Label>  (159) 
nan

$$$$

     RDKit          2D

 29 32  0  0  0  0  0  0  0  0999 V2000
    3.7500   -1.2990    0.0000 O   0  0  0  0  0  0  0  0  0  0  0  0
    3.0000   -2.5981    0.0000 C   0  0  0  0  0  0  0  0  0  0  0  0
    3.7500   -3.8971    0.0000 C   0  0  0  0  0  0  0  0  0  0  0  0
    5.2500   -3.8971    0.0000 C   0  0  0  0  0  0  0  0  0  0  0  0
    6.0000   -5.1962    0.0000 C   0  0  0  0  0  0  0  0  0  0  0  0
    7.5000   -5.1962    0.0000 C   0  0  0  0  0  0  0  0  0  0  0  0
    8.2500   -6.4952    0.0000 C   0  0  0  0  0  0  0  0  0  0  0  0
    9.7418   -6.6520    0.0000 C   0  0  0  0  0  0  0  0  0  0  0  0
   11.0408   -5.9020    0.0000 N   0  0  0  0  0  0  0  0  0  0  0  0
   12.1555   -6.9057    0.0000 C   0  0  0  0  0  0  0  0  0  0  0  0
   13.6228   -6.5938    0.0000 O   0  0  0  0  0  0  0  0  0  0  0  0
   11.5454   -8.2760    0.0000 N   0  0  0  0  0  0  0  0  0  0  0  0
   10.0537   -8.1192    0.0000 C   0  0  0  0  0  0  0  0  0  0  0  0
    8.7546   -8.8692    0.0000 C   0  0  0  0  0  0  0  0  0  0  0  0
    7.6399   -7.8655    0.0000 S   0  0  0  0  0  0  0  0  0  0  0  0
    6.7582   -9.0790    0.0000 O   0  0  0  0  0  0  0  0  0  0  0  0
    6.3409   -7.1155    0.0000 O   0  0  0  0  0  0  0  0  0  0  0  0
    1.5000   -2.5981    0.0000 N   0  0  0  0  0  0  0  0  0  0  0  0
    0.7500   -1.2990    0.0000 C   0  0  0  0  0  0  0  0  0  0  0  0
    1.5000    0.0000    0.0000 C   0  0  0  0  0  0  0  0  0  0  0  0
    0.7500    1.2990    0.0000 C   0  0  0  0  0  0  0  0  0  0  0  0
   -0.7500    1.2990    0.0000 S   0  0  0  0  0  0  0  0  0  0  0  0
   -1.5000    0.0000    0.0000 C   0  0  0  0  0  0  0  0  0  0  0  0
   -3.0000    0.0000    0.0000 C   0  0  0  0  0  0  0  0  0  0  0  0
   -3.7500   -1.2990    0.0000 C   0  0  0  0  0  0  0  0  0  0  0  0
   -3.0000   -2.5981    0.0000 C   0  0  0  0  0  0  0  0  0  0  0  0
   -3.7500   -3.8971    0.0000 Cl  0  0  0  0  0  0  0  0  0  0  0  0
   -1.5000   -2.5981    0.0000 C   0  0  0  0  0  0  0  0  0  0  0  0
   -0.7500   -1.2990    0.0000 C   0  0  0  0  0  0  0  0  0  0  0  0
  1  2  2  0
  2  3  1  0
  3  4  1  0
  4  5  1  0
  5  6  1  0
  7  6  1  6
  7  8  1  0
  8  9  1  1
  9 10  1  0
 10 11  2  0
 10 12  1  0
 12 13  1  0
 13 14  1  6
 14 15  1  0
 15 16  2  0
 15 17  2  0
  2 18  1  0
 19 18  1  6
 19 20  1  0
 20 21  1  0
 21 22  1  0
 22 23  1  0
 23 24  2  0
 24 25  1  0
 25 26  2  0
 26 27  1  0
 26 28  1  0
 28 29  2  0
 15  7  1  0
 29 19  1  0
 13  8  1  0
 29 23  1  0
M  END
>  <Compound_ID>  (160) 
C35277501

>  <Active>  (160) 
0

>  <Smiles>  (160) 
O=C(CCCC[C@@H]1[C@H]2NC(=O)N[C@@H]2CS1(=O)=O)N[C@H]1CCSc2ccc(Cl)cc21

>  <canonical_smi>  (160) 
O=C(CCCC[C@@H]1[C@H]2NC(=O)N[C@@H]2CS1(=O)=O)N[C@H]1CCSc2ccc(Cl)cc21

>  <Set>  (160) 
G2 inactive

>  <Set_type>  (160) 
Train

>  <MW>  (160) 
458.01

>  <HBD>  (160) 
3

>  <HBA>  (160) 
5

>  <NRB>  (160) 
6

>  <NR>  (160) 
4

>  <NAR>  (160) 
1

>  <PSA>  (160) 
104.37

>  <Standard Type>  (160) 
nan

>  <Standard Relation>  (160) 
nan

>  <Standard Units>  (160) 
nan

>  <Standard Value>  (160) 
nan

>  <Assay ChEMBL ID>  (160) 
nan

>  <Assay Description>  (160) 
nan

>  <BAO Label>  (160) 
nan

$$$$

     RDKit          2D

 17 18  0  0  0  0  0  0  0  0999 V2000
    3.0000    0.0000    0.0000 O   0  0  0  0  0  0  0  0  0  0  0  0
    1.5000    0.0000    0.0000 C   0  0  0  0  0  0  0  0  0  0  0  0
    0.7500   -1.2990    0.0000 N   0  0  0  0  0  0  0  0  0  0  0  0
   -0.7500   -1.2990    0.0000 C   0  0  0  0  0  0  0  0  0  0  0  0
   -1.5000   -2.5981    0.0000 O   0  0  0  0  0  0  0  0  0  0  0  0
   -1.5000    0.0000    0.0000 N   0  0  0  0  0  0  0  0  0  0  0  0
   -3.0000    0.0000    0.0000 C   0  0  0  0  0  0  0  0  0  0  0  0
   -3.8817   -1.2135    0.0000 C   0  0  0  0  0  0  0  0  0  0  0  0
   -5.3083   -0.7500    0.0000 C   0  0  0  0  0  0  0  0  0  0  0  0
   -6.5218   -1.6317    0.0000 O   0  0  0  0  0  0  0  0  0  0  0  0
   -5.3083    0.7500    0.0000 C   0  0  0  0  0  0  0  0  0  0  0  0
   -6.5218    1.6317    0.0000 C   0  0  0  0  0  0  0  0  0  0  0  0
   -6.3650    3.1235    0.0000 O   0  0  0  0  0  0  0  0  0  0  0  0
   -3.8817    1.2135    0.0000 O   0  0  0  0  0  0  0  0  0  0  0  0
   -0.7500    1.2990    0.0000 C   0  0  0  0  0  0  0  0  0  0  0  0
    0.7500    1.2990    0.0000 C   0  0  0  0  0  0  0  0  0  0  0  0
    1.5000    2.5981    0.0000 I   0  0  0  0  0  0  0  0  0  0  0  0
  1  2  2  0
  2  3  1  0
  3  4  1  0
  4  5  2  0
  4  6  1  0
  7  6  1  6
  7  8  1  0
  8  9  1  0
  9 10  1  6
  9 11  1  0
 11 12  1  1
 12 13  1  0
 11 14  1  0
  6 15  1  0
 15 16  2  0
 16 17  1  0
 16  2  1  0
 14  7  1  0
M  END
>  <Compound_ID>  (161) 
C05223557

>  <Active>  (161) 
0

>  <Smiles>  (161) 
O=c1[nH]c(=O)n([C@@H]2C[C@H](O)[C@@H](CO)O2)cc1I

>  <canonical_smi>  (161) 
O=c1[nH]c(=O)n([C@@H]2C[C@H](O)[C@@H](CO)O2)cc1I

>  <Set>  (161) 
G2 inactive

>  <Set_type>  (161) 
Train

>  <MW>  (161) 
354.1

>  <HBD>  (161) 
3

>  <HBA>  (161) 
5

>  <NRB>  (161) 
2

>  <NR>  (161) 
2

>  <NAR>  (161) 
1

>  <PSA>  (161) 
104.55

>  <Standard Type>  (161) 
nan

>  <Standard Relation>  (161) 
nan

>  <Standard Units>  (161) 
nan

>  <Standard Value>  (161) 
nan

>  <Assay ChEMBL ID>  (161) 
nan

>  <Assay Description>  (161) 
nan

>  <BAO Label>  (161) 
nan

$$$$

     RDKit          2D

 15 16  0  0  0  0  0  0  0  0999 V2000
    3.7500   -1.2990    0.0000 C   0  0  0  0  0  0  0  0  0  0  0  0
    3.0000    0.0000    0.0000 O   0  0  0  0  0  0  0  0  0  0  0  0
    1.5000    0.0000    0.0000 C   0  0  0  0  0  0  0  0  0  0  0  0
    0.7500   -1.2990    0.0000 C   0  0  0  0  0  0  0  0  0  0  0  0
   -0.7500   -1.2990    0.0000 C   0  0  0  0  0  0  0  0  0  0  0  0
   -1.5000   -2.5981    0.0000 O   0  0  0  0  0  0  0  0  0  0  0  0
   -1.5000    0.0000    0.0000 C   0  0  0  0  0  0  0  0  0  0  0  0
   -3.0000    0.0000    0.0000 C   0  0  0  0  0  0  0  0  0  0  0  0
   -3.8817    1.2135    0.0000 N   0  0  0  0  0  0  0  0  0  0  0  0
   -5.3083    0.7500    0.0000 C   0  0  0  0  0  0  0  0  0  0  0  0
   -5.3083   -0.7500    0.0000 C   0  0  0  0  0  0  0  0  0  0  0  0
   -6.5218   -1.6317    0.0000 C   0  0  0  0  0  0  0  0  0  0  0  0
   -3.8817   -1.2135    0.0000 N   0  0  0  0  0  0  0  0  0  0  0  0
   -0.7500    1.2990    0.0000 C   0  0  0  0  0  0  0  0  0  0  0  0
    0.7500    1.2990    0.0000 C   0  0  0  0  0  0  0  0  0  0  0  0
  1  2  1  0
  2  3  1  0
  3  4  2  0
  4  5  1  0
  5  6  2  0
  5  7  1  0
  7  8  2  0
  8  9  1  0
  9 10  1  0
 10 11  1  0
 11 12  1  1
 11 13  1  0
  7 14  1  0
 14 15  2  0
 15  3  1  0
 13  8  1  0
M  END
>  <Compound_ID>  (162) 
C35188600

>  <Active>  (162) 
0

>  <Smiles>  (162) 
COC1=CC(=O)/C(=C2/NC[C@H](C)N2)C=C1

>  <canonical_smi>  (162) 
COC1=CC(=O)/C(=C2/NC[C@H](C)N2)C=C1

>  <Set>  (162) 
G2 inactive

>  <Set_type>  (162) 
Train

>  <MW>  (162) 
206.24

>  <HBD>  (162) 
2

>  <HBA>  (162) 
4

>  <NRB>  (162) 
1

>  <NR>  (162) 
2

>  <NAR>  (162) 
0

>  <PSA>  (162) 
50.36

>  <Standard Type>  (162) 
nan

>  <Standard Relation>  (162) 
nan

>  <Standard Units>  (162) 
nan

>  <Standard Value>  (162) 
nan

>  <Assay ChEMBL ID>  (162) 
nan

>  <Assay Description>  (162) 
nan

>  <BAO Label>  (162) 
nan

$$$$

     RDKit          2D

 30 32  0  0  0  0  0  0  0  0999 V2000
   -2.9499    4.2246    0.0000 C   0  0  0  0  0  0  0  0  0  0  0  0
   -1.8351    3.2209    0.0000 C   0  0  0  0  0  0  0  0  0  0  0  0
   -0.4086    3.6844    0.0000 C   0  0  0  0  0  0  0  0  0  0  0  0
    0.7062    2.6807    0.0000 C   0  0  0  0  0  0  0  0  0  0  0  0
    1.7099    3.7955    0.0000 C   0  0  0  0  0  0  0  0  0  0  0  0
    3.1364    4.2590    0.0000 C   0  0  0  0  0  0  0  0  0  0  0  0
    3.0579    5.7569    0.0000 C   0  0  0  0  0  0  0  0  0  0  0  0
    4.6037    3.9471    0.0000 C   0  0  0  0  0  0  0  0  0  0  0  0
    5.7184    2.9434    0.0000 C   0  0  0  0  0  0  0  0  0  0  0  0
    6.1819    1.5168    0.0000 C   0  0  0  0  0  0  0  0  0  0  0  0
    7.6799    1.5953    0.0000 O   0  0  0  0  0  0  0  0  0  0  0  0
    5.8700    0.0496    0.0000 C   0  0  0  0  0  0  0  0  0  0  0  0
    7.2066   -0.6314    0.0000 O   0  0  0  0  0  0  0  0  0  0  0  0
    4.8663   -1.0651    0.0000 C   0  0  0  0  0  0  0  0  0  0  0  0
    3.4398   -1.5286    0.0000 C   0  0  0  0  0  0  0  0  0  0  0  0
    1.9725   -1.2168    0.0000 C   0  0  0  0  0  0  0  0  0  0  0  0
    1.2916   -2.5533    0.0000 O   0  0  0  0  0  0  0  0  0  0  0  0
    0.8578   -0.2131    0.0000 O   0  0  0  0  0  0  0  0  0  0  0  0
    0.3943    1.2135    0.0000 C   0  0  0  0  0  0  0  0  0  0  0  0
   -0.0880    1.4842    0.0000 C   0  0  0  0  0  0  0  0  0  0  0  0
    2.7760    0.0000    0.0000 O   0  0  0  0  0  0  0  0  0  0  0  0
   -0.2546    0.7837    0.0000 N   0  0  0  0  0  0  0  0  0  0  0  0
   -0.8013    1.2525    0.0000 C   0  0  0  0  0  0  0  0  0  0  0  0
   -2.2458   -1.6317    0.0000 C   0  0  0  0  0  0  0  0  0  0  0  0
   -2.0890   -3.1235    0.0000 C   0  0  0  0  0  0  0  0  0  0  0  0
   -3.3025   -4.0051    0.0000 C   0  0  0  0  0  0  0  0  0  0  0  0
   -0.7187   -3.7336    0.0000 C   0  0  0  0  0  0  0  0  0  0  0  0
   -1.0323    0.7500    0.0000 C   0  0  0  0  0  0  0  0  0  0  0  0
   -2.1470    1.7537    0.0000 C   0  0  0  0  0  0  0  0  0  0  0  0
   -3.5736    1.2902    0.0000 C   0  0  0  0  0  0  0  0  0  0  0  0
  1  2  1  0
  2  3  2  0
  4  3  1  1
  4  5  1  0
  5  6  2  0
  6  7  1  0
  6  8  1  0
  8  9  1  0
  9 10  1  0
 10 11  1  6
 10 12  1  0
 12 13  1  6
 12 14  1  0
 14 15  2  0
 15 16  1  0
 16 17  2  0
 16 18  1  0
 19 18  1  6
 19 20  1  0
 20 21  2  0
 20 22  1  0
 22 23  1  0
 23 24  1  1
 24 25  1  0
 25 26  1  0
 25 27  1  0
 28 23  1  6
 28 29  1  0
 29 30  1  6
 29  2  1  0
 19  4  1  0
 28 19  1  0
M  END
>  <Compound_ID>  (163) 
C14857367

>  <Active>  (163) 
0

>  <Smiles>  (163) 
CC1=C[C@H]2/C=C(\C)CC[C@H](O)[C@H](O)/C=C/C(=O)O[C@]23C(=O)N[C@H](CC(C)C)[C@@H]3[C@@H]1C

>  <canonical_smi>  (163) 
CC1=C[C@H]2/C=C(\C)CC[C@H](O)[C@H](O)/C=C/C(=O)O[C@]23C(=O)N[C@H](CC(C)C)[C@@H]3[C@@H]1C

>  <Set>  (163) 
G2 inactive

>  <Set_type>  (163) 
Train

>  <MW>  (163) 
417.55

>  <HBD>  (163) 
3

>  <HBA>  (163) 
5

>  <NRB>  (163) 
2

>  <NR>  (163) 
3

>  <NAR>  (163) 
0

>  <PSA>  (163) 
95.86

>  <Standard Type>  (163) 
nan

>  <Standard Relation>  (163) 
nan

>  <Standard Units>  (163) 
nan

>  <Standard Value>  (163) 
nan

>  <Assay ChEMBL ID>  (163) 
nan

>  <Assay Description>  (163) 
nan

>  <BAO Label>  (163) 
nan

$$$$

     RDKit          2D

 32 36  0  0  0  0  0  0  0  0999 V2000
    5.8763   -2.9335    0.0000 C   0  0  0  0  0  0  0  0  0  0  0  0
    4.8726   -1.8188    0.0000 C   0  0  0  0  0  0  0  0  0  0  0  0
    3.4054   -2.1306    0.0000 O   0  0  0  0  0  0  0  0  0  0  0  0
    5.3361   -0.3922    0.0000 O   0  0  0  0  0  0  0  0  0  0  0  0
    4.3324    0.7225    0.0000 C   0  0  0  0  0  0  0  0  0  0  0  0
    2.8652    0.4107    0.0000 C   0  0  0  0  0  0  0  0  0  0  0  0
    1.8615    1.5254    0.0000 C   0  0  0  0  0  0  0  0  0  0  0  0
    3.3287    1.8373    0.0000 C   0  0  0  0  0  0  0  0  0  0  0  0
    2.3250    2.9520    0.0000 C   0  0  0  0  0  0  0  0  0  0  0  0
    1.3213    4.0667    0.0000 C   0  0  0  0  0  0  0  0  0  0  0  0
   -0.1459    3.7548    0.0000 C   0  0  0  0  0  0  0  0  0  0  0  0
   -0.6094    2.3282    0.0000 C   0  0  0  0  0  0  0  0  0  0  0  0
   -2.0766    2.0164    0.0000 C   0  0  0  0  0  0  0  0  0  0  0  0
    0.3943    1.2135    0.0000 C   0  0  0  0  0  0  0  0  0  0  0  0
    1.2760    0.0000    0.0000 C   0  0  0  0  0  0  0  0  0  0  0  0
    0.3943   -1.2135    0.0000 C   0  0  0  0  0  0  0  0  0  0  0  0
   -1.0323   -0.7500    0.0000 C   0  0  0  0  0  0  0  0  0  0  0  0
   -2.1470   -1.7537    0.0000 C   0  0  0  0  0  0  0  0  0  0  0  0
   -1.8351   -3.2209    0.0000 C   0  0  0  0  0  0  0  0  0  0  0  0
   -0.4086   -3.6844    0.0000 C   0  0  0  0  0  0  0  0  0  0  0  0
    0.7062   -2.6807    0.0000 C   0  0  0  0  0  0  0  0  0  0  0  0
    2.1328   -3.1443    0.0000 O   0  0  0  0  0  0  0  0  0  0  0  0
   -0.4086   -5.1844    0.0000 C   0  0  0  0  0  0  0  0  0  0  0  0
    0.8050   -6.0661    0.0000 O   0  0  0  0  0  0  0  0  0  0  0  0
   -1.8351   -5.6480    0.0000 O   0  0  0  0  0  0  0  0  0  0  0  0
   -2.7168   -4.4344    0.0000 C   0  0  0  0  0  0  0  0  0  0  0  0
   -1.0323    0.7500    0.0000 O   0  0  0  0  0  0  0  0  0  0  0  0
    3.7923    3.2638    0.0000 C   0  0  0  0  0  0  0  0  0  0  0  0
    3.2304    4.6546    0.0000 C   0  0  0  0  0  0  0  0  0  0  0  0
    5.0643    4.0587    0.0000 C   0  0  0  0  0  0  0  0  0  0  0  0
    4.7960    2.1491    0.0000 C   0  0  0  0  0  0  0  0  0  0  0  0
    6.2632    2.4610    0.0000 O   0  0  0  0  0  0  0  0  0  0  0  0
  1  2  1  0
  2  3  2  0
  2  4  1  0
  5  4  1  6
  5  6  1  0
  6  7  1  0
  7  8  1  1
  7  9  1  0
  9 10  1  6
 10 11  1  0
 11 12  1  0
 12 13  1  6
 12 14  1  0
 14 15  1  1
 15 16  1  0
 16 17  2  0
 17 18  1  0
 18 19  2  0
 19 20  1  0
 20 21  2  0
 21 22  1  0
 20 23  1  0
 23 24  1  6
 23 25  1  0
 25 26  1  0
 17 27  1  0
  9 28  1  0
 28 29  1  0
 28 30  1  0
 28 31  1  0
 31 32  1  6
 31  5  1  0
 14  7  1  0
 21 16  1  0
 27 14  1  0
 26 19  1  0
M  END
>  <Compound_ID>  (164) 
C39559914

>  <Active>  (164) 
0

>  <Smiles>  (164) 
CC(=O)O[C@@H]1C[C@@]2(C)[C@H](CC[C@@H](C)[C@]23Cc2c(cc4c(c2O)[C@H](O)OC4)O3)C(C)(C)[C@@H]1O

>  <canonical_smi>  (164) 
CC(=O)O[C@@H]1C[C@@]2(C)[C@H](CC[C@@H](C)[C@]23Cc2c(cc4c(c2O)[C@H](O)OC4)O3)C(C)(C)[C@@H]1O

>  <Set>  (164) 
G2 inactive

>  <Set_type>  (164) 
Train

>  <MW>  (164) 
446.54

>  <HBD>  (164) 
3

>  <HBA>  (164) 
7

>  <NRB>  (164) 
1

>  <NR>  (164) 
5

>  <NAR>  (164) 
1

>  <PSA>  (164) 
105.45

>  <Standard Type>  (164) 
nan

>  <Standard Relation>  (164) 
nan

>  <Standard Units>  (164) 
nan

>  <Standard Value>  (164) 
nan

>  <Assay ChEMBL ID>  (164) 
nan

>  <Assay Description>  (164) 
nan

>  <BAO Label>  (164) 
nan

$$$$

     RDKit          2D

 24 27  0  0  0  0  0  0  0  0999 V2000
    2.9940    0.2618    0.0000 C   0  0  0  0  0  0  0  0  0  0  0  0
    4.2930   -0.4882    0.0000 C   0  0  0  0  0  0  0  0  0  0  0  0
    5.5921    0.2618    0.0000 C   0  0  0  0  0  0  0  0  0  0  0  0
    6.8911   -0.4882    0.0000 C   0  0  0  0  0  0  0  0  0  0  0  0
    6.8911   -1.9882    0.0000 C   0  0  0  0  0  0  0  0  0  0  0  0
    5.5921   -2.7382    0.0000 C   0  0  0  0  0  0  0  0  0  0  0  0
    5.5921   -4.2382    0.0000 C   0  0  0  0  0  0  0  0  0  0  0  0
    6.8056   -5.1199    0.0000 N   0  0  0  0  0  0  0  0  0  0  0  0
    6.3421   -6.5465    0.0000 N   0  0  0  0  0  0  0  0  0  0  0  0
    4.8421   -6.5465    0.0000 C   0  0  0  0  0  0  0  0  0  0  0  0
    3.9604   -7.7600    0.0000 S   0  0  0  0  0  0  0  0  0  0  0  0
    4.3786   -5.1199    0.0000 N   0  0  0  0  0  0  0  0  0  0  0  0
    2.9520   -4.6564    0.0000 N   0  0  0  0  0  0  0  0  0  0  0  0
    2.6401   -3.1891    0.0000 C   0  0  0  0  0  0  0  0  0  0  0  0
    1.2135   -2.7256    0.0000 C   0  0  0  0  0  0  0  0  0  0  0  0
    0.7500   -1.2990    0.0000 C   0  0  0  0  0  0  0  0  0  0  0  0
    1.5000    0.0000    0.0000 C   0  0  0  0  0  0  0  0  0  0  0  0
    0.7500    1.2990    0.0000 C   0  0  0  0  0  0  0  0  0  0  0  0
   -0.7500    1.2990    0.0000 C   0  0  0  0  0  0  0  0  0  0  0  0
   -1.5000    0.0000    0.0000 C   0  0  0  0  0  0  0  0  0  0  0  0
   -0.7500   -1.2990    0.0000 C   0  0  0  0  0  0  0  0  0  0  0  0
   -1.2135   -2.7256    0.0000 N   0  0  0  0  0  4  0  0  0  0  0  0
    0.0000   -3.6073    0.0000 C   0  0  0  0  0  0  0  0  0  0  0  0
    4.2930   -1.9882    0.0000 C   0  0  0  0  0  0  0  0  0  0  0  0
  1  2  1  0
  2  3  2  0
  3  4  1  0
  4  5  2  0
  5  6  1  0
  7  6  1  6
  7  8  1  0
  8  9  1  0
  9 10  1  0
 10 11  1  1
 10 12  1  0
 12 13  1  0
 13 14  2  0
 14 15  1  0
 15 16  2  0
 16 17  1  0
 17 18  2  0
 18 19  1  0
 19 20  2  0
 20 21  1  0
 21 22  2  0
 22 23  1  0
  6 24  2  0
 24  2  1  0
 12  7  1  0
 23 15  1  0
 21 16  1  0
M  CHG  1  22   1
M  END
>  <Compound_ID>  (165) 
C39926579

>  <Active>  (165) 
0

>  <Smiles>  (165) 
Cc1cccc([C@@H]2NN[C@@H](S)N2/N=C/C2=c3ccccc3=[NH+]C2)c1

>  <canonical_smi>  (165) 
Cc1cccc([C@@H]2NN[C@@H](S)N2/N=C/C2=c3ccccc3=[NH+]C2)c1

>  <Set>  (165) 
G2 inactive

>  <Set_type>  (165) 
Train

>  <MW>  (165) 
338.46

>  <HBD>  (165) 
4

>  <HBA>  (165) 
3

>  <NRB>  (165) 
3

>  <NR>  (165) 
4

>  <NAR>  (165) 
2

>  <PSA>  (165) 
53.63

>  <Standard Type>  (165) 
nan

>  <Standard Relation>  (165) 
nan

>  <Standard Units>  (165) 
nan

>  <Standard Value>  (165) 
nan

>  <Assay ChEMBL ID>  (165) 
nan

>  <Assay Description>  (165) 
nan

>  <BAO Label>  (165) 
nan

$$$$

     RDKit          2D

 19 21  0  0  0  0  0  0  0  0999 V2000
   -1.5000   -5.1962    0.0000 N   0  0  0  0  0  0  0  0  0  0  0  0
   -0.7500   -3.8971    0.0000 C   0  0  0  0  0  0  0  0  0  0  0  0
    0.7500   -3.8971    0.0000 C   0  0  0  0  0  0  0  0  0  0  0  0
    1.5000   -2.5981    0.0000 N   0  0  0  0  0  4  0  0  0  0  0  0
    0.7500   -1.2990    0.0000 C   0  0  0  0  0  0  0  0  0  0  0  0
    1.5000    0.0000    0.0000 C   0  0  0  0  0  0  0  0  0  0  0  0
    0.7500    1.2990    0.0000 C   0  0  0  0  0  0  0  0  0  0  0  0
   -0.7500    1.2990    0.0000 C   0  0  0  0  0  0  0  0  0  0  0  0
   -1.5000    2.5981    0.0000 Br  0  0  0  0  0  0  0  0  0  0  0  0
   -1.5000    0.0000    0.0000 C   0  0  0  0  0  0  0  0  0  0  0  0
   -0.7500   -1.2990    0.0000 C   0  0  0  0  0  0  0  0  0  0  0  0
   -1.5000   -2.5981    0.0000 C   0  0  0  0  0  0  0  0  0  0  0  0
   -3.0000   -2.5981    0.0000 N   0  0  0  0  0  0  0  0  0  0  0  0
   -3.7500   -1.2990    0.0000 C   0  0  0  0  0  0  0  0  0  0  0  0
   -5.2500   -1.2990    0.0000 C   0  0  0  0  0  0  0  0  0  0  0  0
   -6.0000   -2.5981    0.0000 S   0  0  0  0  0  0  0  0  0  0  0  0
   -7.5000   -2.5981    0.0000 O   0  0  0  0  0  0  0  0  0  0  0  0
   -5.2500   -3.8971    0.0000 C   0  0  0  0  0  0  0  0  0  0  0  0
   -3.7500   -3.8971    0.0000 C   0  0  0  0  0  0  0  0  0  0  0  0
  1  2  1  0
  2  3  2  0
  3  4  1  0
  4  5  2  0
  5  6  1  0
  6  7  2  0
  7  8  1  0
  8  9  1  0
  8 10  2  0
 10 11  1  0
 11 12  2  0
 12 13  1  0
 13 14  1  0
 14 15  1  0
 15 16  1  0
 16 17  2  0
 16 18  1  0
 18 19  1  0
 12  2  1  0
 19 13  1  0
 11  5  1  0
M  CHG  1   4   1
M  END
>  <Compound_ID>  (166) 
C49692552

>  <Active>  (166) 
0

>  <Smiles>  (166) 
Nc1c[nH+]c2ccc(Br)cc2c1N1CCS(=O)CC1

>  <canonical_smi>  (166) 
Nc1c[nH+]c2ccc(Br)cc2c1N1CCS(=O)CC1

>  <Set>  (166) 
G2 inactive

>  <Set_type>  (166) 
Train

>  <MW>  (166) 
341.25

>  <HBD>  (166) 
1

>  <HBA>  (166) 
3

>  <NRB>  (166) 
1

>  <NR>  (166) 
3

>  <NAR>  (166) 
2

>  <PSA>  (166) 
60.47

>  <Standard Type>  (166) 
nan

>  <Standard Relation>  (166) 
nan

>  <Standard Units>  (166) 
nan

>  <Standard Value>  (166) 
nan

>  <Assay ChEMBL ID>  (166) 
nan

>  <Assay Description>  (166) 
nan

>  <BAO Label>  (166) 
nan

$$$$

     RDKit          2D

 25 29  0  0  0  0  0  0  0  0999 V2000
    2.5434    3.2335    0.0000 C   0  0  0  0  0  0  0  0  0  0  0  0
    2.5434    4.7335    0.0000 C   0  0  0  0  0  0  0  0  0  0  0  0
    3.7570    5.6152    0.0000 N   0  0  0  0  0  0  0  0  0  0  0  0
    3.2934    7.0418    0.0000 C   0  0  0  0  0  0  0  0  0  0  0  0
    4.0434    8.3408    0.0000 C   0  0  0  0  0  0  0  0  0  0  0  0
    3.2934    9.6399    0.0000 C   0  0  0  0  0  0  0  0  0  0  0  0
    1.7934    9.6399    0.0000 C   0  0  0  0  0  0  0  0  0  0  0  0
    1.0434   10.9389    0.0000 Cl  0  0  0  0  0  0  0  0  0  0  0  0
    1.0434    8.3408    0.0000 C   0  0  0  0  0  0  0  0  0  0  0  0
    1.7934    7.0418    0.0000 N   0  0  0  0  0  0  0  0  0  0  0  0
    1.3299    5.6152    0.0000 C   0  0  0  0  0  0  0  0  0  0  0  0
   -0.0967    5.1517    0.0000 C   0  0  0  0  0  0  0  0  0  0  0  0
   -1.2114    6.1554    0.0000 C   0  0  0  0  0  0  0  0  0  0  0  0
   -2.6380    5.6918    0.0000 C   0  0  0  0  0  0  0  0  0  0  0  0
   -3.7527    6.6955    0.0000 O   0  0  0  0  0  0  0  0  0  0  0  0
   -2.9499    4.2246    0.0000 N   0  0  0  0  0  0  0  0  0  0  0  0
   -1.8351    3.2209    0.0000 C   0  0  0  0  0  0  0  0  0  0  0  0
   -2.1470    1.7537    0.0000 C   0  0  0  0  0  0  0  0  0  0  0  0
   -1.0323    0.7500    0.0000 C   0  0  0  0  0  0  0  0  0  0  0  0
    0.3943    1.2135    0.0000 C   0  0  0  0  0  0  0  0  0  0  0  0
    0.7062    2.6807    0.0000 C   0  0  0  0  0  0  0  0  0  0  0  0
   -0.4086    3.6844    0.0000 C   0  0  0  0  0  0  0  0  0  0  0  0
    1.2760    0.0000    0.0000 C   0  0  0  0  0  0  0  0  0  0  0  0
    0.3943   -1.2135    0.0000 N   0  0  0  0  0  4  0  0  0  0  0  0
   -1.0323   -0.7500    0.0000 N   0  0  0  0  0  0  0  0  0  0  0  0
  2  1  1  1
  2  3  1  0
  4  3  1  6
  4  5  1  0
  5  6  2  0
  6  7  1  0
  7  8  1  0
  7  9  2  0
  9 10  1  0
 11 10  1  6
 11 12  1  0
 12 13  1  1
 13 14  1  0
 14 15  2  0
 14 16  1  0
 16 17  1  0
 17 18  2  0
 18 19  1  0
 19 20  2  0
 20 21  1  0
 21 22  2  0
 20 23  1  0
 23 24  1  0
 24 25  2  0
 11  2  1  0
 22 12  1  0
 10  4  1  0
 22 17  1  0
 25 19  1  0
M  CHG  1  24   1
M  END
>  <Compound_ID>  (167) 
C65394091

>  <Active>  (167) 
0

>  <Smiles>  (167) 
C[C@@H]1N[C@H]2C=CC(Cl)=CN2[C@H]1[C@@H]1CC(=O)Nc2cc3c(cc21)C[NH+]=N3

>  <canonical_smi>  (167) 
C[C@@H]1N[C@H]2C=CC(Cl)=CN2[C@H]1[C@@H]1CC(=O)Nc2cc3c(cc21)C[NH+]=N3

>  <Set>  (167) 
G2 inactive

>  <Set_type>  (167) 
Train

>  <MW>  (167) 
356.84

>  <HBD>  (167) 
3

>  <HBA>  (167) 
3

>  <NRB>  (167) 
1

>  <NR>  (167) 
5

>  <NAR>  (167) 
1

>  <PSA>  (167) 
70.7

>  <Standard Type>  (167) 
nan

>  <Standard Relation>  (167) 
nan

>  <Standard Units>  (167) 
nan

>  <Standard Value>  (167) 
nan

>  <Assay ChEMBL ID>  (167) 
nan

>  <Assay Description>  (167) 
nan

>  <BAO Label>  (167) 
nan

$$$$

     RDKit          2D

 24 24  0  0  0  0  0  0  0  0999 V2000
    2.7760    0.0000    0.0000 C   0  0  0  0  0  0  0  0  0  0  0  0
    1.2760    0.0000    0.0000 N   0  0  0  0  0  0  0  0  0  0  0  0
    0.3943    1.2135    0.0000 N   0  0  0  0  0  0  0  0  0  0  0  0
   -1.0323    0.7500    0.0000 C   0  0  0  0  0  0  0  0  0  0  0  0
   -2.2458    1.6317    0.0000 C   0  0  0  0  0  0  0  0  0  0  0  0
   -3.4593    2.5134    0.0000 C   0  0  0  0  0  0  0  0  0  0  0  0
   -4.6729    3.3950    0.0000 C   0  0  0  0  0  0  0  0  0  0  0  0
   -5.5545    2.1815    0.0000 C   0  0  0  0  0  0  0  0  0  0  0  0
   -3.7912    4.6086    0.0000 C   0  0  0  0  0  0  0  0  0  0  0  0
   -5.8864    4.2767    0.0000 O   0  0  0  0  0  0  0  0  0  0  0  0
   -1.0323   -0.7500    0.0000 C   0  0  0  0  0  0  0  0  0  0  0  0
   -2.2458   -1.6317    0.0000 C   0  0  0  0  0  0  0  0  0  0  0  0
   -3.4593   -2.5134    0.0000 C   0  0  0  0  0  0  0  0  0  0  0  0
   -4.6729   -3.3950    0.0000 C   0  0  0  0  0  0  0  0  0  0  0  0
   -3.7912   -4.6086    0.0000 C   0  0  0  0  0  0  0  0  0  0  0  0
   -5.5545   -2.1815    0.0000 C   0  0  0  0  0  0  0  0  0  0  0  0
   -5.8864   -4.2767    0.0000 O   0  0  0  0  0  0  0  0  0  0  0  0
    0.3943   -1.2135    0.0000 C   0  0  0  0  0  0  0  0  0  0  0  0
    0.8578   -2.6401    0.0000 C   0  0  0  0  0  0  0  0  0  0  0  0
    1.3213   -4.0667    0.0000 C   0  0  0  0  0  0  0  0  0  0  0  0
    1.7849   -5.4933    0.0000 C   0  0  0  0  0  0  0  0  0  0  0  0
    0.3583   -5.9568    0.0000 C   0  0  0  0  0  0  0  0  0  0  0  0
    3.2115   -5.0298    0.0000 C   0  0  0  0  0  0  0  0  0  0  0  0
    2.2484   -6.9199    0.0000 O   0  0  0  0  0  0  0  0  0  0  0  0
  1  2  1  0
  2  3  1  0
  3  4  2  0
  4  5  1  0
  5  6  3  0
  6  7  1  0
  7  8  1  0
  7  9  1  0
  7 10  1  0
  4 11  1  0
 11 12  1  0
 12 13  3  0
 13 14  1  0
 14 15  1  0
 14 16  1  0
 14 17  1  0
 11 18  2  0
 18 19  1  0
 19 20  3  0
 20 21  1  0
 21 22  1  0
 21 23  1  0
 21 24  1  0
 18  2  1  0
M  END
>  <Compound_ID>  (168) 
C04016857

>  <Active>  (168) 
0

>  <Smiles>  (168) 
Cn1nc(C#CC(C)(C)O)c(C#CC(C)(C)O)c1C#CC(C)(C)O

>  <canonical_smi>  (168) 
Cn1nc(C#CC(C)(C)O)c(C#CC(C)(C)O)c1C#CC(C)(C)O

>  <Set>  (168) 
G2 inactive

>  <Set_type>  (168) 
Train

>  <MW>  (168) 
328.41

>  <HBD>  (168) 
3

>  <HBA>  (168) 
4

>  <NRB>  (168) 
0

>  <NR>  (168) 
1

>  <NAR>  (168) 
1

>  <PSA>  (168) 
78.51

>  <Standard Type>  (168) 
nan

>  <Standard Relation>  (168) 
nan

>  <Standard Units>  (168) 
nan

>  <Standard Value>  (168) 
nan

>  <Assay ChEMBL ID>  (168) 
nan

>  <Assay Description>  (168) 
nan

>  <BAO Label>  (168) 
nan

$$$$

     RDKit          2D

 20 25  0  0  0  0  0  0  0  0999 V2000
   -8.2952    3.2291    0.0000 N   0  0  0  0  0  0  0  0  0  0  0  0
   -6.9249    2.6190    0.0000 C   0  0  0  0  0  0  0  0  0  0  0  0
   -6.7681    1.1272    0.0000 S   0  0  0  0  0  0  0  0  0  0  0  0
   -5.7113    3.5007    0.0000 N   0  0  0  0  0  0  0  0  0  0  0  0
   -4.3410    2.8906    0.0000 N   0  0  0  0  0  0  0  0  0  0  0  0
   -3.1275    3.7723    0.0000 C   0  0  0  0  0  0  0  0  0  0  0  0
   -3.1275    5.2723    0.0000 C   0  0  0  0  0  0  0  0  0  0  0  0
   -1.7009    5.7358    0.0000 C   0  0  0  0  0  0  0  0  0  0  0  0
   -0.2009    5.7358    0.0000 C   0  0  0  0  0  0  0  0  0  0  0  0
    1.8209    3.1771    0.0000 C   0  0  0  0  0  0  0  0  0  0  0  0
    0.3943    3.6406    0.0000 C   0  0  0  0  0  0  0  0  0  0  0  0
   -0.8192    4.5223    0.0000 C   0  0  0  0  0  0  0  0  0  0  0  0
   -1.7009    3.3087    0.0000 C   0  0  0  0  0  0  0  0  0  0  0  0
   -0.4874    2.4271    0.0000 C   0  0  0  0  0  0  0  0  0  0  0  0
    0.3943    1.2135    0.0000 C   0  0  0  0  0  0  0  0  0  0  0  0
    1.2760    0.0000    0.0000 O   0  0  0  0  0  0  0  0  0  0  0  0
    0.3943   -1.2135    0.0000 C   0  0  0  0  0  0  0  0  0  0  0  0
   -1.0323   -0.7500    0.0000 C   0  0  0  0  0  0  0  0  0  0  0  0
   -1.0323    0.7500    0.0000 O   0  0  0  0  0  0  0  0  0  0  0  0
    1.8209    1.6771    0.0000 C   0  0  0  0  0  0  0  0  0  0  0  0
  1  2  1  0
  2  3  2  0
  2  4  1  0
  4  5  1  0
  5  6  2  0
  7  6  1  6
  7  8  1  0
  8  9  1  1
 10  9  1  1
 10 11  1  0
 11 12  1  0
 12 13  1  1
 13 14  1  0
 14 15  1  1
 15 16  1  0
 16 17  1  0
 17 18  1  0
 18 19  1  0
 20 15  1  6
 13  6  1  1
 19 15  1  0
 20  7  1  0
 12  8  1  0
 20 10  1  0
 11 14  1  1
M  END
>  <Compound_ID>  (169) 
C36385541

>  <Active>  (169) 
0

>  <Smiles>  (169) 
NC(=S)N/N=C1\[C@@H]2[C@H]3C[C@@H]4[C@@H]5[C@H]3[C@H]1[C@@H]5C1(OCCO1)[C@@H]42

>  <canonical_smi>  (169) 
NC(=S)N/N=C1/[C@H]2[C@H]3[C@@H]4C[C@H]5[C@@H]([C@H]14)C1(OCCO1)[C@@H]2[C@@H]35

>  <Set>  (169) 
G2 inactive

>  <Set_type>  (169) 
Train

>  <MW>  (169) 
291.38

>  <HBD>  (169) 
2

>  <HBA>  (169) 
5

>  <NRB>  (169) 
1

>  <NR>  (169) 
6

>  <NAR>  (169) 
0

>  <PSA>  (169) 
68.87

>  <Standard Type>  (169) 
nan

>  <Standard Relation>  (169) 
nan

>  <Standard Units>  (169) 
nan

>  <Standard Value>  (169) 
nan

>  <Assay ChEMBL ID>  (169) 
nan

>  <Assay Description>  (169) 
nan

>  <BAO Label>  (169) 
nan

$$$$

     RDKit          2D

 20 22  0  0  0  0  0  0  0  0999 V2000
    3.0000   -1.5000    0.0000 C   0  0  0  0  0  0  0  0  0  0  0  0
    3.0000    0.0000    0.0000 C   0  0  0  0  0  0  0  0  0  0  0  0
    3.0000    1.5000    0.0000 C   0  0  0  0  0  0  0  0  0  0  0  0
    4.5000    0.0000    0.0000 C   0  0  0  0  0  0  0  0  0  0  0  0
    1.5000    0.0000    0.0000 C   0  0  0  0  0  0  0  0  0  0  0  0
    0.7500   -1.2990    0.0000 C   0  0  0  0  0  0  0  0  0  0  0  0
   -0.7500   -1.2990    0.0000 C   0  0  0  0  0  0  0  0  0  0  0  0
   -1.5000    0.0000    0.0000 C   0  0  0  0  0  0  0  0  0  0  0  0
   -2.9672    0.3119    0.0000 C   0  0  0  0  0  0  0  0  0  0  0  0
   -4.1807   -0.5698    0.0000 C   0  0  0  0  0  0  0  0  0  0  0  0
   -4.0240   -2.0616    0.0000 O   0  0  0  0  0  0  0  0  0  0  0  0
   -5.5511    0.0403    0.0000 N   0  0  0  0  0  0  0  0  0  0  0  0
   -5.7079    1.5321    0.0000 C   0  0  0  0  0  0  0  0  0  0  0  0
   -7.0782    2.1422    0.0000 N   0  0  0  0  0  2  0  0  0  0  0  0
   -7.2350    3.6340    0.0000 N   0  0  0  0  0  4  0  0  0  0  0  0
   -4.4943    2.4138    0.0000 N   0  0  0  0  0  0  0  0  0  0  0  0
   -3.1240    1.8037    0.0000 C   0  0  0  0  0  0  0  0  0  0  0  0
   -1.7537    2.4138    0.0000 S   0  0  0  0  0  0  0  0  0  0  0  0
   -0.7500    1.2990    0.0000 C   0  0  0  0  0  0  0  0  0  0  0  0
    0.7500    1.2990    0.0000 C   0  0  0  0  0  0  0  0  0  0  0  0
  1  2  1  0
  2  3  1  0
  2  4  1  0
  5  2  1  1
  5  6  1  0
  6  7  1  0
  7  8  1  0
  8  9  2  0
  9 10  1  0
 10 11  2  0
 10 12  1  0
 12 13  2  0
 13 14  1  0
 14 15  1  0
 13 16  1  0
 16 17  2  0
 17 18  1  0
 18 19  1  0
 19 20  1  1
 20  5  1  0
 19  8  1  0
 17  9  1  0
M  CHG  2  14  -1  15   1
M  END
>  <Compound_ID>  (170) 
C38592681

>  <Active>  (170) 
0

>  <Smiles>  (170) 
CC(C)(C)[C@H]1CCC2=C3C(=O)N=C([N-][NH3+])N=C3S[C@H]2C1

>  <canonical_smi>  (170) 
CC(C)(C)[C@H]1CCC2=C3C(=O)N=C([N-][NH3+])N=C3S[C@H]2C1

>  <Set>  (170) 
G2 inactive

>  <Set_type>  (170) 
Train

>  <MW>  (170) 
292.41

>  <HBD>  (170) 
1

>  <HBA>  (170) 
2

>  <NRB>  (170) 
0

>  <NR>  (170) 
3

>  <NAR>  (170) 
0

>  <PSA>  (170) 
83.53

>  <Standard Type>  (170) 
nan

>  <Standard Relation>  (170) 
nan

>  <Standard Units>  (170) 
nan

>  <Standard Value>  (170) 
nan

>  <Assay ChEMBL ID>  (170) 
nan

>  <Assay Description>  (170) 
nan

>  <BAO Label>  (170) 
nan

$$$$

     RDKit          2D

 20 22  0  0  0  0  0  0  0  0999 V2000
    0.8029   11.3628    0.0000 C   0  0  0  0  0  0  0  0  0  0  0  0
   -0.0788   10.1493    0.0000 C   0  0  0  0  0  0  0  0  0  0  0  0
   -0.9605    8.9357    0.0000 C   0  0  0  0  0  0  0  0  0  0  0  0
   -0.3504    7.5654    0.0000 N   0  0  0  0  0  0  0  0  0  0  0  0
   -1.1004    6.2664    0.0000 C   0  0  0  0  0  0  0  0  0  0  0  0
   -2.5922    6.1096    0.0000 N   0  0  0  0  0  4  0  0  0  0  0  0
   -0.0967    5.1517    0.0000 C   0  0  0  0  0  0  0  0  0  0  0  0
   -0.4086    3.6844    0.0000 C   0  0  0  0  0  0  0  0  0  0  0  0
   -1.8351    3.2209    0.0000 C   0  0  0  0  0  0  0  0  0  0  0  0
   -2.1470    1.7537    0.0000 C   0  0  0  0  0  0  0  0  0  0  0  0
   -3.5736    1.2902    0.0000 Cl  0  0  0  0  0  0  0  0  0  0  0  0
   -1.0323    0.7500    0.0000 C   0  0  0  0  0  0  0  0  0  0  0  0
    0.3943    1.2135    0.0000 C   0  0  0  0  0  0  0  0  0  0  0  0
    0.7062    2.6807    0.0000 C   0  0  0  0  0  0  0  0  0  0  0  0
    1.2760    0.0000    0.0000 O   0  0  0  0  0  0  0  0  0  0  0  0
    0.3943   -1.2135    0.0000 C   0  0  0  0  0  0  0  0  0  0  0  0
   -1.0323   -0.7500    0.0000 O   0  0  0  0  0  0  0  0  0  0  0  0
    1.2736    5.7618    0.0000 N   0  0  0  0  0  4  0  0  0  0  0  0
    1.1168    7.2536    0.0000 C   0  0  0  0  0  0  0  0  0  0  0  0
    2.2316    8.2572    0.0000 C   0  0  0  0  0  0  0  0  0  0  0  0
  1  2  3  0
  2  3  1  0
  3  4  1  0
  4  5  1  0
  5  6  2  0
  5  7  1  0
  7  8  1  6
  8  9  2  0
  9 10  1  0
 10 11  1  0
 10 12  2  0
 12 13  1  0
 13 14  2  0
 13 15  1  0
 15 16  1  0
 16 17  1  0
  7 18  1  0
 18 19  2  0
 19 20  1  0
 19  4  1  0
 14  8  1  0
 17 12  1  0
M  CHG  2   6   1  18   1
M  END
>  <Compound_ID>  (171) 
C50987906

>  <Active>  (171) 
0

>  <Smiles>  (171) 
C#CCN1C(=[NH2+])[C@@H](c2cc(Cl)c3c(c2)OCO3)[NH+]=C1C

>  <canonical_smi>  (171) 
C#CCN1C(=[NH2+])[C@@H](c2cc(Cl)c3c(c2)OCO3)[NH+]=C1C

>  <Set>  (171) 
G2 inactive

>  <Set_type>  (171) 
Train

>  <MW>  (171) 
291.74

>  <HBD>  (171) 
2

>  <HBA>  (171) 
3

>  <NRB>  (171) 
2

>  <NR>  (171) 
3

>  <NAR>  (171) 
1

>  <PSA>  (171) 
61.26

>  <Standard Type>  (171) 
nan

>  <Standard Relation>  (171) 
nan

>  <Standard Units>  (171) 
nan

>  <Standard Value>  (171) 
nan

>  <Assay ChEMBL ID>  (171) 
nan

>  <Assay Description>  (171) 
nan

>  <BAO Label>  (171) 
nan

$$$$

     RDKit          2D

 18 19  0  0  0  0  0  0  0  0999 V2000
   -0.5773   -4.2803    0.0000 C   0  0  0  0  0  0  0  0  0  0  0  0
    0.8899   -3.9684    0.0000 N   0  0  0  0  0  0  0  0  0  0  0  0
    2.0046   -4.9721    0.0000 N   0  0  0  0  0  0  0  0  0  0  0  0
    3.3037   -4.2221    0.0000 C   0  0  0  0  0  0  0  0  0  0  0  0
    4.6740   -4.8322    0.0000 C   0  0  0  0  0  0  0  0  0  0  0  0
    4.0639   -6.2025    0.0000 C   0  0  0  0  0  0  0  0  0  0  0  0
    5.2841   -3.4619    0.0000 C   0  0  0  0  0  0  0  0  0  0  0  0
    6.0443   -5.4423    0.0000 C   0  0  0  0  0  0  0  0  0  0  0  0
    2.9918   -2.7549    0.0000 N   0  0  0  0  0  0  0  0  0  0  0  0
    1.5000   -2.5981    0.0000 C   0  0  0  0  0  0  0  0  0  0  0  0
    0.7500   -1.2990    0.0000 C   0  0  0  0  0  0  0  0  0  0  0  0
    1.5000    0.0000    0.0000 C   0  0  0  0  0  0  0  0  0  0  0  0
    0.7500    1.2990    0.0000 C   0  0  0  0  0  0  0  0  0  0  0  0
    1.5000    2.5981    0.0000 Cl  0  0  0  0  0  0  0  0  0  0  0  0
   -0.7500    1.2990    0.0000 C   0  0  0  0  0  0  0  0  0  0  0  0
   -1.5000    0.0000    0.0000 C   0  0  0  0  0  0  0  0  0  0  0  0
   -0.7500   -1.2990    0.0000 C   0  0  0  0  0  0  0  0  0  0  0  0
   -1.5000   -2.5981    0.0000 N   0  0  0  0  0  0  0  0  0  0  0  0
  1  2  1  0
  2  3  1  0
  3  4  2  0
  4  5  1  0
  5  6  1  0
  5  7  1  0
  5  8  1  0
  4  9  1  0
  9 10  2  0
 10 11  1  0
 11 12  2  0
 12 13  1  0
 13 14  1  0
 13 15  2  0
 15 16  1  0
 16 17  2  0
 17 18  1  0
 10  2  1  0
 17 11  1  0
M  END
>  <Compound_ID>  (172) 
C54698653

>  <Active>  (172) 
0

>  <Smiles>  (172) 
Cn1nc(C(C)(C)C)nc1-c1cc(Cl)ccc1N

>  <canonical_smi>  (172) 
Cn1nc(C(C)(C)C)nc1-c1cc(Cl)ccc1N

>  <Set>  (172) 
G2 inactive

>  <Set_type>  (172) 
Train

>  <MW>  (172) 
264.76

>  <HBD>  (172) 
1

>  <HBA>  (172) 
3

>  <NRB>  (172) 
1

>  <NR>  (172) 
2

>  <NAR>  (172) 
2

>  <PSA>  (172) 
56.73

>  <Standard Type>  (172) 
nan

>  <Standard Relation>  (172) 
nan

>  <Standard Units>  (172) 
nan

>  <Standard Value>  (172) 
nan

>  <Assay ChEMBL ID>  (172) 
nan

>  <Assay Description>  (172) 
nan

>  <BAO Label>  (172) 
nan

$$$$

     RDKit          2D

 26 29  0  0  0  0  0  0  0  0999 V2000
   -2.6401   -3.1891    0.0000 O   0  0  0  0  0  0  0  0  0  0  0  0
   -1.2135   -2.7256    0.0000 C   0  0  0  0  0  0  0  0  0  0  0  0
   -0.0000   -3.6073    0.0000 O   0  0  0  0  0  0  0  0  0  0  0  0
    1.2135   -2.7256    0.0000 C   0  0  0  0  0  0  0  0  0  0  0  0
    2.6401   -3.1891    0.0000 C   0  0  0  0  0  0  0  0  0  0  0  0
    2.9520   -4.6564    0.0000 C   0  0  0  0  0  0  0  0  0  0  0  0
    1.8373   -5.6601    0.0000 O   0  0  0  0  0  1  0  0  0  0  0  0
    4.3786   -5.1199    0.0000 N   0  0  0  0  0  0  0  0  0  0  0  0
    4.6904   -6.5871    0.0000 C   0  0  0  0  0  0  0  0  0  0  0  0
    3.5757   -7.5908    0.0000 C   0  0  0  0  0  0  0  0  0  0  0  0
    3.8876   -9.0580    0.0000 C   0  0  0  0  0  0  0  0  0  0  0  0
    5.3142   -9.5216    0.0000 C   0  0  0  0  0  0  0  0  0  0  0  0
    5.6260  -10.9888    0.0000 Br  0  0  0  0  0  0  0  0  0  0  0  0
    6.4289   -8.5179    0.0000 C   0  0  0  0  0  0  0  0  0  0  0  0
    6.1170   -7.0506    0.0000 C   0  0  0  0  0  0  0  0  0  0  0  0
    5.4933   -4.1162    0.0000 C   0  0  0  0  0  0  0  0  0  0  0  0
    6.9199   -4.5797    0.0000 O   0  0  0  0  0  0  0  0  0  0  0  0
    5.1814   -2.6490    0.0000 N   0  0  0  0  0  0  0  0  0  0  0  0
    3.7548   -2.1855    0.0000 C   0  0  0  0  0  0  0  0  0  0  0  0
    3.4430   -0.7182    0.0000 O   0  0  0  0  0  0  0  0  0  0  0  0
    0.7500   -1.2990    0.0000 C   0  0  0  0  0  0  0  0  0  0  0  0
    1.5000    0.0000    0.0000 C   0  0  0  0  0  0  0  0  0  0  0  0
    0.7500    1.2990    0.0000 C   0  0  0  0  0  0  0  0  0  0  0  0
   -0.7500    1.2990    0.0000 C   0  0  0  0  0  0  0  0  0  0  0  0
   -1.5000    0.0000    0.0000 C   0  0  0  0  0  0  0  0  0  0  0  0
   -0.7500   -1.2990    0.0000 C   0  0  0  0  0  0  0  0  0  0  0  0
  1  2  2  0
  2  3  1  0
  3  4  1  0
  4  5  1  1
  5  6  2  0
  6  7  1  0
  6  8  1  0
  8  9  1  0
  9 10  2  0
 10 11  1  0
 11 12  2  0
 12 13  1  0
 12 14  1  0
 14 15  2  0
  8 16  1  0
 16 17  2  0
 16 18  1  0
 18 19  1  0
 19 20  2  0
  4 21  1  0
 21 22  2  0
 22 23  1  0
 23 24  2  0
 24 25  1  0
 25 26  2  0
 26  2  1  0
 19  5  1  0
 26 21  1  0
 15  9  1  0
M  CHG  1   7  -1
M  END
>  <Compound_ID>  (173) 
C17086539

>  <Active>  (173) 
0

>  <Smiles>  (173) 
O=C1O[C@H](c2c([O-])n(-c3ccc(Br)cc3)c(=O)[nH]c2=O)c2ccccc21

>  <canonical_smi>  (173) 
O=C1O[C@H](c2c([O-])n(-c3ccc(Br)cc3)c(=O)[nH]c2=O)c2ccccc21

>  <Set>  (173) 
G2 inactive

>  <Set_type>  (173) 
Train

>  <MW>  (173) 
414.19

>  <HBD>  (173) 
1

>  <HBA>  (173) 
5

>  <NRB>  (173) 
2

>  <NR>  (173) 
4

>  <NAR>  (173) 
3

>  <PSA>  (173) 
104.22

>  <Standard Type>  (173) 
nan

>  <Standard Relation>  (173) 
nan

>  <Standard Units>  (173) 
nan

>  <Standard Value>  (173) 
nan

>  <Assay ChEMBL ID>  (173) 
nan

>  <Assay Description>  (173) 
nan

>  <BAO Label>  (173) 
nan

$$$$

     RDKit          2D

 17 18  0  0  0  0  0  0  0  0999 V2000
   -5.2500   -6.4952    0.0000 C   0  0  0  0  0  0  0  0  0  0  0  0
   -3.7500   -6.4952    0.0000 C   0  0  0  0  0  0  0  0  0  0  0  0
   -3.0000   -5.1962    0.0000 C   0  0  0  0  0  0  0  0  0  0  0  0
   -1.5000   -5.1962    0.0000 N   0  0  0  0  0  0  0  0  0  0  0  0
   -0.7500   -3.8971    0.0000 C   0  0  0  0  0  0  0  0  0  0  0  0
    0.7500   -3.8971    0.0000 N   0  0  0  0  0  0  0  0  0  0  0  0
    1.5000   -2.5981    0.0000 S   0  0  0  0  0  0  0  0  0  0  0  0
    2.6491   -3.5623    0.0000 O   0  0  0  0  0  0  0  0  0  0  0  0
    2.6491   -1.6339    0.0000 O   0  0  0  0  0  0  0  0  0  0  0  0
    0.7500   -1.2990    0.0000 C   0  0  0  0  0  0  0  0  0  0  0  0
    1.5000    0.0000    0.0000 C   0  0  0  0  0  0  0  0  0  0  0  0
    0.7500    1.2990    0.0000 C   0  0  0  0  0  0  0  0  0  0  0  0
    1.5000    2.5981    0.0000 Br  0  0  0  0  0  0  0  0  0  0  0  0
   -0.7500    1.2990    0.0000 C   0  0  0  0  0  0  0  0  0  0  0  0
   -1.5000    0.0000    0.0000 C   0  0  0  0  0  0  0  0  0  0  0  0
   -0.7500   -1.2990    0.0000 C   0  0  0  0  0  0  0  0  0  0  0  0
   -1.5000   -2.5981    0.0000 N   0  0  0  0  0  0  0  0  0  0  0  0
  1  2  2  0
  2  3  1  0
  3  4  1  0
  4  5  1  0
  5  6  2  0
  6  7  1  0
  7  8  2  0
  7  9  2  0
  7 10  1  0
 10 11  2  0
 11 12  1  0
 12 13  1  0
 12 14  2  0
 14 15  1  0
 15 16  2  0
 16 17  1  0
 17  5  1  0
 16 10  1  0
M  END
>  <Compound_ID>  (174) 
C13524732

>  <Active>  (174) 
0

>  <Smiles>  (174) 
C=CCNC1=NS(=O)(=O)c2cc(Br)ccc2N1

>  <canonical_smi>  (174) 
C=CCNC1=NS(=O)(=O)c2cc(Br)ccc2N1

>  <Set>  (174) 
G2 inactive

>  <Set_type>  (174) 
Train

>  <MW>  (174) 
316.18

>  <HBD>  (174) 
2

>  <HBA>  (174) 
4

>  <NRB>  (174) 
2

>  <NR>  (174) 
2

>  <NAR>  (174) 
1

>  <PSA>  (174) 
70.56

>  <Standard Type>  (174) 
nan

>  <Standard Relation>  (174) 
nan

>  <Standard Units>  (174) 
nan

>  <Standard Value>  (174) 
nan

>  <Assay ChEMBL ID>  (174) 
nan

>  <Assay Description>  (174) 
nan

>  <BAO Label>  (174) 
nan

$$$$

     RDKit          2D

 22 24  0  0  0  0  0  0  0  0999 V2000
   -1.0344   -8.1310    0.0000 C   0  0  0  0  0  0  0  0  0  0  0  0
   -0.7225   -6.6638    0.0000 N   0  0  0  0  0  0  0  0  0  0  0  0
    0.7040   -6.2002    0.0000 C   0  0  0  0  0  0  0  0  0  0  0  0
   -1.8373   -5.6601    0.0000 S   0  0  0  0  0  0  0  0  0  0  0  0
   -2.8410   -6.7748    0.0000 O   0  0  0  0  0  0  0  0  0  0  0  0
   -0.8336   -4.5453    0.0000 O   0  0  0  0  0  0  0  0  0  0  0  0
   -2.9520   -4.6564    0.0000 C   0  0  0  0  0  0  0  0  0  0  0  0
   -4.3786   -5.1199    0.0000 C   0  0  0  0  0  0  0  0  0  0  0  0
   -5.4933   -4.1162    0.0000 C   0  0  0  0  0  0  0  0  0  0  0  0
   -6.9199   -4.5797    0.0000 N   0  0  0  0  0  0  0  0  0  0  0  0
   -5.1814   -2.6490    0.0000 C   0  0  0  0  0  0  0  0  0  0  0  0
   -3.7548   -2.1855    0.0000 C   0  0  0  0  0  0  0  0  0  0  0  0
   -2.6401   -3.1891    0.0000 C   0  0  0  0  0  0  0  0  0  0  0  0
   -1.2135   -2.7256    0.0000 N   0  0  0  0  0  0  0  0  0  0  0  0
   -0.0000   -3.6073    0.0000 C   0  0  0  0  0  0  0  0  0  0  0  0
    1.2135   -2.7256    0.0000 C   0  0  0  0  0  0  0  0  0  0  0  0
    0.7500   -1.2990    0.0000 C   0  0  0  0  0  0  0  0  0  0  0  0
    1.5000    0.0000    0.0000 C   0  0  0  0  0  0  0  0  0  0  0  0
    0.7500    1.2990    0.0000 C   0  0  0  0  0  0  0  0  0  0  0  0
   -0.7500    1.2990    0.0000 C   0  0  0  0  0  0  0  0  0  0  0  0
   -1.5000    0.0000    0.0000 C   0  0  0  0  0  0  0  0  0  0  0  0
   -0.7500   -1.2990    0.0000 C   0  0  0  0  0  0  0  0  0  0  0  0
  1  2  1  0
  2  3  1  0
  2  4  1  0
  4  5  2  0
  4  6  2  0
  4  7  1  0
  7  8  2  0
  8  9  1  0
  9 10  1  0
  9 11  2  0
 11 12  1  0
 12 13  2  0
 13 14  1  0
 14 15  1  0
 15 16  1  0
 16 17  1  0
 17 18  2  0
 18 19  1  0
 19 20  2  0
 20 21  1  0
 21 22  2  0
 13  7  1  0
 22 14  1  0
 22 17  1  0
M  END
>  <Compound_ID>  (175) 
C20262635

>  <Active>  (175) 
0

>  <Smiles>  (175) 
CN(C)S(=O)(=O)c1cc(N)ccc1N1CCc2ccccc21

>  <canonical_smi>  (175) 
CN(C)S(=O)(=O)c1cc(N)ccc1N1CCc2ccccc21

>  <Set>  (175) 
G2 inactive

>  <Set_type>  (175) 
Train

>  <MW>  (175) 
317.41

>  <HBD>  (175) 
1

>  <HBA>  (175) 
4

>  <NRB>  (175) 
3

>  <NR>  (175) 
3

>  <NAR>  (175) 
2

>  <PSA>  (175) 
66.64

>  <Standard Type>  (175) 
nan

>  <Standard Relation>  (175) 
nan

>  <Standard Units>  (175) 
nan

>  <Standard Value>  (175) 
nan

>  <Assay ChEMBL ID>  (175) 
nan

>  <Assay Description>  (175) 
nan

>  <BAO Label>  (175) 
nan

$$$$

     RDKit          2D

 27 30  0  0  0  0  0  0  0  0999 V2000
    1.1940  -11.2820    0.0000 C   0  0  0  0  0  0  0  0  0  0  0  0
    0.5839   -9.9117    0.0000 C   0  0  0  0  0  0  0  0  0  0  0  0
   -0.9079   -9.7549    0.0000 O   0  0  0  0  0  0  0  0  0  0  0  0
    1.4656   -8.6982    0.0000 O   0  0  0  0  0  0  0  0  0  0  0  0
    0.8555   -7.3279    0.0000 C   0  0  0  0  0  0  0  0  0  0  0  0
    1.7372   -6.1143    0.0000 C   0  0  0  0  0  0  0  0  0  0  0  0
    2.8519   -7.1180    0.0000 O   0  0  0  0  0  0  0  0  0  0  0  0
    0.4381   -5.3643    0.0000 C   0  0  0  0  0  0  0  0  0  0  0  0
    0.7500   -3.8971    0.0000 C   0  0  0  0  0  0  0  0  0  0  0  0
   -0.7500   -3.8971    0.0000 C   0  0  0  0  0  0  0  0  0  0  0  0
   -1.5000   -2.5981    0.0000 C   0  0  0  0  0  0  0  0  0  0  0  0
   -0.7500   -1.2990    0.0000 C   0  0  0  0  0  0  0  0  0  0  0  0
    0.7500   -1.2990    0.0000 C   0  0  0  0  0  0  0  0  0  0  0  0
    2.2500   -1.2990    0.0000 C   0  0  0  0  0  0  0  0  0  0  0  0
    1.5000    0.0000    0.0000 C   0  0  0  0  0  0  0  0  0  0  0  0
    0.7500    1.2990    0.0000 C   0  0  0  0  0  0  0  0  0  0  0  0
   -0.7500    1.2990    0.0000 C   0  0  0  0  0  0  0  0  0  0  0  0
   -1.5000    0.0000    0.0000 C   0  0  0  0  0  0  0  0  0  0  0  0
   -2.6491   -0.9642    0.0000 C   0  0  0  0  0  0  0  0  0  0  0  0
   -2.6491    0.9642    0.0000 C   0  0  0  0  0  0  0  0  0  0  0  0
   -4.0586    0.4512    0.0000 O   0  0  0  0  0  0  0  0  0  0  0  0
   -2.3886    2.4414    0.0000 O   0  0  0  0  0  1  0  0  0  0  0  0
    1.5000   -2.5981    0.0000 C   0  0  0  0  0  0  0  0  0  0  0  0
    3.0000   -2.5981    0.0000 C   0  0  0  0  0  0  0  0  0  0  0  0
    3.7500   -3.8971    0.0000 C   0  0  0  0  0  0  0  0  0  0  0  0
    3.0000   -5.1962    0.0000 C   0  0  0  0  0  0  0  0  0  0  0  0
    1.5000   -5.1962    0.0000 C   0  0  0  0  0  0  0  0  0  0  0  0
  1  2  1  0
  2  3  2  0
  2  4  1  0
  4  5  1  0
  5  6  1  0
  6  7  1  6
  6  8  1  0
  9  8  1  1
  9 10  1  0
 10 11  1  0
 12 11  1  1
 12 13  1  0
 13 14  1  1
 13 15  1  0
 15 16  1  0
 16 17  1  0
 17 18  1  0
 18 19  1  6
 18 20  1  0
 20 21  2  0
 20 22  1  0
 13 23  1  0
 23 24  1  6
 24 25  1  0
 26 25  1  1
 26 27  1  0
 26  6  1  0
 23  9  1  0
 27  9  1  0
 18 12  1  0
M  CHG  1  22  -1
M  END
>  <Compound_ID>  (176) 
C35458023

>  <Active>  (176) 
0

>  <Smiles>  (176) 
CC(=O)OC[C@@]1(O)C[C@@]23CC[C@@H]4[C@](C)(CCC[C@]4(C)C(=O)[O-])[C@@H]2CC[C@@H]1C3

>  <canonical_smi>  (176) 
CC(=O)OC[C@@]1(O)C[C@@]23CC[C@H]4[C@@](C)(C(=O)[O-])CCC[C@]4(C)[C@@H]2CC[C@@H]1C3

>  <Set>  (176) 
G2 inactive

>  <Set_type>  (176) 
Train

>  <MW>  (176) 
377.5

>  <HBD>  (176) 
1

>  <HBA>  (176) 
5

>  <NRB>  (176) 
3

>  <NR>  (176) 
4

>  <NAR>  (176) 
0

>  <PSA>  (176) 
86.66

>  <Standard Type>  (176) 
nan

>  <Standard Relation>  (176) 
nan

>  <Standard Units>  (176) 
nan

>  <Standard Value>  (176) 
nan

>  <Assay ChEMBL ID>  (176) 
nan

>  <Assay Description>  (176) 
nan

>  <BAO Label>  (176) 
nan

$$$$

     RDKit          2D

 18 19  0  0  0  0  0  0  0  0999 V2000
    3.0000    0.0000    0.0000 C   0  0  0  0  0  0  0  0  0  0  0  0
    1.5000    0.0000    0.0000 C   0  0  0  0  0  0  0  0  0  0  0  0
    0.7500   -1.2990    0.0000 C   0  0  0  0  0  0  0  0  0  0  0  0
   -0.7500   -1.2990    0.0000 C   0  0  0  0  0  0  0  0  0  0  0  0
   -0.4895   -2.7762    0.0000 C   0  0  0  0  0  0  0  0  0  0  0  0
   -2.1595   -1.8121    0.0000 C   0  0  0  0  0  0  0  0  0  0  0  0
   -1.5000    0.0000    0.0000 C   0  0  0  0  0  0  0  0  0  0  0  0
   -0.7500    1.2990    0.0000 C   0  0  0  0  0  0  0  0  0  0  0  0
    0.7500    1.2990    0.0000 C   0  0  0  0  0  0  0  0  0  0  0  0
   -2.2418    1.4558    0.0000 N   0  0  0  0  0  0  0  0  0  0  0  0
   -2.5537    2.9231    0.0000 C   0  0  0  0  0  0  0  0  0  0  0  0
   -3.9240    3.5332    0.0000 O   0  0  0  0  0  0  0  0  0  0  0  0
   -1.2546    3.6731    0.0000 N   0  0  0  0  0  0  0  0  0  0  0  0
   -1.0978    5.1648    0.0000 C   0  0  0  0  0  0  0  0  0  0  0  0
    0.3940    5.0080    0.0000 C   0  0  0  0  0  0  0  0  0  0  0  0
   -2.5896    5.3216    0.0000 C   0  0  0  0  0  0  0  0  0  0  0  0
   -0.9410    6.6566    0.0000 C   0  0  0  0  0  0  0  0  0  0  0  0
   -0.1399    2.6694    0.0000 N   0  0  0  0  0  0  0  0  0  0  0  0
  2  1  1  1
  2  3  1  0
  3  4  1  0
  4  5  1  0
  4  6  1  0
  4  7  1  0
  8  7  1  6
  8  9  1  0
  8 10  1  0
 10 11  1  0
 11 12  2  0
 11 13  1  0
 13 14  1  0
 14 15  1  0
 14 16  1  0
 14 17  1  0
 13 18  1  0
  9  2  1  0
 18  8  1  0
M  END
>  <Compound_ID>  (177) 
C09024269

>  <Active>  (177) 
0

>  <Smiles>  (177) 
C[C@H]1CC(C)(C)C[C@]2(C1)NC(=O)N(C(C)(C)C)N2

>  <canonical_smi>  (177) 
C[C@H]1CC(C)(C)C[C@]2(C1)NC(=O)N(C(C)(C)C)N2

>  <Set>  (177) 
G2 inactive

>  <Set_type>  (177) 
Train

>  <MW>  (177) 
253.39

>  <HBD>  (177) 
2

>  <HBA>  (177) 
2

>  <NRB>  (177) 
0

>  <NR>  (177) 
2

>  <NAR>  (177) 
0

>  <PSA>  (177) 
44.37

>  <Standard Type>  (177) 
nan

>  <Standard Relation>  (177) 
nan

>  <Standard Units>  (177) 
nan

>  <Standard Value>  (177) 
nan

>  <Assay ChEMBL ID>  (177) 
nan

>  <Assay Description>  (177) 
nan

>  <BAO Label>  (177) 
nan

$$$$

     RDKit          2D

 20 25  0  0  0  0  0  0  0  0999 V2000
   -6.6979    6.1290    0.0000 O   0  0  0  0  0  0  0  0  0  0  0  0
   -5.2307    5.8172    0.0000 N   0  0  0  0  0  0  0  0  0  0  0  0
   -4.7671    4.3906    0.0000 C   0  0  0  0  0  0  0  0  0  0  0  0
   -5.6488    3.1771    0.0000 C   0  0  0  0  0  0  0  0  0  0  0  0
   -4.7671    1.9635    0.0000 C   0  0  0  0  0  0  0  0  0  0  0  0
   -3.3405    2.4271    0.0000 C   0  0  0  0  0  0  0  0  0  0  0  0
   -3.3405    3.9271    0.0000 C   0  0  0  0  0  0  0  0  0  0  0  0
    0.3943    1.2135    0.0000 C   0  0  0  0  0  0  0  0  0  0  0  0
    1.2760    0.0000    0.0000 C   0  0  0  0  0  0  0  0  0  0  0  0
    0.3943   -1.2135    0.0000 C   0  0  0  0  0  0  0  0  0  0  0  0
   -1.0323   -0.7500    0.0000 C   0  0  0  0  0  0  0  0  0  0  0  0
   -1.0323    0.7500    0.0000 C   0  0  0  0  0  0  0  0  0  0  0  0
   -2.4589    1.2135    0.0000 C   0  0  0  0  0  0  0  0  0  0  0  0
   -3.3405   -0.0000    0.0000 C   0  0  0  0  0  0  0  0  0  0  0  0
   -4.7671    0.4635    0.0000 C   0  0  0  0  0  0  0  0  0  0  0  0
   -5.2307   -0.9631    0.0000 C   0  0  0  0  0  0  0  0  0  0  0  0
   -4.0171   -1.8447    0.0000 C   0  0  0  0  0  0  0  0  0  0  0  0
   -4.0171   -3.3447    0.0000 N   0  0  0  0  0  0  0  0  0  0  0  0
   -5.3162   -4.0947    0.0000 O   0  0  0  0  0  0  0  0  0  0  0  0
   -2.4589   -1.2135    0.0000 C   0  0  0  0  0  0  0  0  0  0  0  0
  1  2  1  0
  2  3  2  0
  3  4  1  0
  5  4  1  6
  5  6  1  0
  6  7  1  6
  8  7  1  1
  8  9  1  0
  9 10  2  0
 11 10  1  1
 11 12  1  0
 12 13  1  0
 14 13  1  1
 14 15  1  0
 15 16  1  1
 16 17  1  0
 17 18  2  0
 18 19  1  0
 20 17  1  1
  7  3  1  0
 12  8  1  0
 20 14  1  0
 15  5  1  0
 13  6  1  0
 20 11  1  0
M  END
>  <Compound_ID>  (178) 
C43762046

>  <Active>  (178) 
0

>  <Smiles>  (178) 
O/N=C1\C[C@@H]2[C@@H]3C1[C@H]1C=C[C@@H]4C1C3[C@@H]1[C@H]2C/C(=N\O)[C@@H]14

>  <canonical_smi>  (178) 
O/N=C1\C[C@@H]2[C@@H]3C1[C@H]1C=C[C@@H]4C1C3[C@@H]1[C@H]2C/C(=N\O)[C@@H]14

>  <Set>  (178) 
G2 inactive

>  <Set_type>  (178) 
Train

>  <MW>  (178) 
270.33

>  <HBD>  (178) 
2

>  <HBA>  (178) 
2

>  <NRB>  (178) 
0

>  <NR>  (178) 
6

>  <NAR>  (178) 
0

>  <PSA>  (178) 
65.18

>  <Standard Type>  (178) 
nan

>  <Standard Relation>  (178) 
nan

>  <Standard Units>  (178) 
nan

>  <Standard Value>  (178) 
nan

>  <Assay ChEMBL ID>  (178) 
nan

>  <Assay Description>  (178) 
nan

>  <BAO Label>  (178) 
nan

$$$$

     RDKit          2D

 21 25  0  0  0  0  0  0  0  0999 V2000
    3.0000    0.0000    0.0000 C   0  0  0  0  0  0  0  0  0  0  0  0
    1.5000    0.0000    0.0000 C   0  0  0  0  0  0  0  0  0  0  0  0
    0.7500   -1.2990    0.0000 C   0  0  0  0  0  0  0  0  0  0  0  0
   -0.7500   -1.2990    0.0000 C   0  0  0  0  0  0  0  0  0  0  0  0
   -2.2500   -1.2990    0.0000 C   0  0  0  0  0  0  0  0  0  0  0  0
   -3.0000    0.0000    0.0000 C   0  0  0  0  0  0  0  0  0  0  0  0
   -4.5000    0.0000    0.0000 N   0  0  0  0  0  0  0  0  0  0  0  0
   -5.2500    1.2990    0.0000 C   0  0  0  0  0  0  0  0  0  0  0  0
   -6.7172    1.6109    0.0000 O   0  0  0  0  0  0  0  0  0  0  0  0
   -6.8740    3.1027    0.0000 C   0  0  0  0  0  0  0  0  0  0  0  0
   -8.1731    3.8527    0.0000 C   0  0  0  0  0  0  0  0  0  0  0  0
   -9.6731    3.8527    0.0000 C   0  0  0  0  0  0  0  0  0  0  0  0
   -8.9231    5.1517    0.0000 C   0  0  0  0  0  0  0  0  0  0  0  0
   -5.5037    3.7128    0.0000 N   0  0  0  0  0  0  0  0  0  0  0  0
   -4.5000    2.5981    0.0000 C   0  0  0  0  0  0  0  0  0  0  0  0
   -3.0000    2.5981    0.0000 C   0  0  0  0  0  0  0  0  0  0  0  0
   -2.2500    3.8971    0.0000 N   0  0  0  0  0  0  0  0  0  0  0  0
   -2.2500    1.2990    0.0000 C   0  0  0  0  0  0  0  0  0  0  0  0
   -0.7500    1.2990    0.0000 C   0  0  0  0  0  0  0  0  0  0  0  0
    0.7500    1.2990    0.0000 C   0  0  0  0  0  0  0  0  0  0  0  0
   -1.5000    0.0000    0.0000 C   0  0  0  0  0  0  0  0  0  0  0  0
  1  2  1  0
  2  3  2  0
  3  4  1  0
  4  5  1  1
  5  6  1  0
  6  7  1  0
  7  8  2  0
  8  9  1  0
  9 10  1  0
 10 11  1  0
 11 12  1  0
 12 13  1  0
 10 14  2  0
 14 15  1  0
 15 16  2  0
 16 17  1  0
 16 18  1  0
 18 19  1  0
 19 20  1  1
 19 21  1  0
 20  2  1  0
 21  4  1  0
 18  6  2  0
 15  8  1  0
 13 11  1  0
M  END
>  <Compound_ID>  (179) 
C45285658

>  <Active>  (179) 
0

>  <Smiles>  (179) 
CC1=C[C@H]2Cc3nc4oc(C5CC5)nc4c(N)c3[C@@H](C1)C2

>  <canonical_smi>  (179) 
CC1=C[C@H]2Cc3nc4oc(C5CC5)nc4c(N)c3[C@@H](C1)C2

>  <Set>  (179) 
G2 inactive

>  <Set_type>  (179) 
Train

>  <MW>  (179) 
281.36

>  <HBD>  (179) 
1

>  <HBA>  (179) 
4

>  <NRB>  (179) 
1

>  <NR>  (179) 
5

>  <NAR>  (179) 
2

>  <PSA>  (179) 
64.94

>  <Standard Type>  (179) 
nan

>  <Standard Relation>  (179) 
nan

>  <Standard Units>  (179) 
nan

>  <Standard Value>  (179) 
nan

>  <Assay ChEMBL ID>  (179) 
nan

>  <Assay Description>  (179) 
nan

>  <BAO Label>  (179) 
nan

$$$$

     RDKit          2D

 20 22  0  0  0  0  0  0  0  0999 V2000
   -6.6232    1.2320    0.0000 H   0  0  0  0  0  0  0  0  0  0  0  0
   -5.5085    0.2283    0.0000 N   0  0  0  0  0  0  0  0  0  0  0  0
   -4.0819    0.6918    0.0000 N   0  0  0  0  0  0  0  0  0  0  0  0
   -2.9672   -0.3119    0.0000 C   0  0  0  0  0  0  0  0  0  0  0  0
   -3.1240   -1.8037    0.0000 C   0  0  0  0  0  0  0  0  0  0  0  0
   -4.4231   -2.5537    0.0000 O   0  0  0  0  0  0  0  0  0  0  0  0
   -1.7537   -2.4138    0.0000 N   0  0  0  0  0  0  0  0  0  0  0  0
   -0.7500   -1.2990    0.0000 C   0  0  0  0  0  0  0  0  0  0  0  0
    0.7500   -1.2990    0.0000 C   0  0  0  0  0  0  0  0  0  0  0  0
    1.5000    0.0000    0.0000 C   0  0  0  0  0  0  0  0  0  0  0  0
    0.7500    1.2990    0.0000 C   0  0  0  0  0  0  0  0  0  0  0  0
    1.5000    2.5981    0.0000 C   0  0  0  0  0  0  0  0  0  0  0  0
   -0.7500    1.2990    0.0000 C   0  0  0  0  0  0  0  0  0  0  0  0
   -1.5000    0.0000    0.0000 C   0  0  0  0  0  0  0  0  0  0  0  0
    1.2299   -2.7273    0.0000 C   0  0  0  0  0  0  0  0  0  0  0  0
    2.7217   -2.8841    0.0000 C   0  0  0  0  0  0  0  0  0  0  0  0
    0.3482   -3.9409    0.0000 C   0  0  0  0  0  0  0  0  0  0  0  0
   -1.1436   -3.7841    0.0000 C   0  0  0  0  0  0  0  0  0  0  0  0
   -2.5990   -4.1470    0.0000 C   0  0  0  0  0  0  0  0  0  0  0  0
   -1.0390   -5.2804    0.0000 C   0  0  0  0  0  0  0  0  0  0  0  0
  1  2  1  0
  2  3  2  0
  3  4  1  0
  4  5  2  0
  5  6  1  0
  5  7  1  0
  7  8  1  0
  8  9  2  0
  9 10  1  0
 10 11  2  0
 11 12  1  0
 11 13  1  0
 13 14  2  0
  9 15  1  0
 15 16  1  0
 15 17  2  0
 17 18  1  0
 18 19  1  0
 18 20  1  0
 14  4  1  0
 18  7  1  0
 14  8  1  0
M  END
>  <Compound_ID>  (180) 
C13687457

>  <Active>  (180) 
0

>  <Smiles>  (180) 
[H]/N=N/c1c(O)n2c3c(cc(C)cc13)C(C)=CC2(C)C

>  <canonical_smi>  (180) 
[H]/N=N/c1c(O)n2c3c(cc(C)cc13)C(C)=CC2(C)C

>  <Set>  (180) 
G2 inactive

>  <Set_type>  (180) 
Train

>  <MW>  (180) 
255.32

>  <HBD>  (180) 
2

>  <HBA>  (180) 
1

>  <NRB>  (180) 
1

>  <NR>  (180) 
3

>  <NAR>  (180) 
2

>  <PSA>  (180) 
61.37

>  <Standard Type>  (180) 
nan

>  <Standard Relation>  (180) 
nan

>  <Standard Units>  (180) 
nan

>  <Standard Value>  (180) 
nan

>  <Assay ChEMBL ID>  (180) 
nan

>  <Assay Description>  (180) 
nan

>  <BAO Label>  (180) 
nan

$$$$

     RDKit          2D

 25 27  0  0  0  0  0  0  0  0999 V2000
    8.2500   -1.2990    0.0000 O   0  0  0  0  0  0  0  0  0  0  0  0
    7.5000   -2.5981    0.0000 C   0  0  0  0  0  0  0  0  0  0  0  0
    8.2500   -3.8971    0.0000 O   0  0  0  0  0  1  0  0  0  0  0  0
    6.0000   -2.5981    0.0000 C   0  0  0  0  0  0  0  0  0  0  0  0
    5.2500   -1.2990    0.0000 C   0  0  0  0  0  0  0  0  0  0  0  0
    3.7500   -1.2990    0.0000 C   0  0  0  0  0  0  0  0  0  0  0  0
    3.0000   -2.5981    0.0000 O   0  0  0  0  0  0  0  0  0  0  0  0
    3.0000    0.0000    0.0000 N   0  0  0  0  0  0  0  0  0  0  0  0
    1.5000    0.0000    0.0000 C   0  0  0  0  0  0  0  0  0  0  0  0
    0.7500   -1.2990    0.0000 C   0  0  0  0  0  0  0  0  0  0  0  0
   -0.7500   -1.2990    0.0000 C   0  0  0  0  0  0  0  0  0  0  0  0
   -1.5000   -2.5981    0.0000 Cl  0  0  0  0  0  0  0  0  0  0  0  0
   -1.5000    0.0000    0.0000 C   0  0  0  0  0  0  0  0  0  0  0  0
   -0.7500    1.2990    0.0000 C   0  0  0  0  0  0  0  0  0  0  0  0
    0.7500    1.2990    0.0000 C   0  0  0  0  0  0  0  0  0  0  0  0
    1.2135    2.7256    0.0000 C   0  0  0  0  0  0  0  0  0  0  0  0
    2.5838    3.3357    0.0000 C   0  0  0  0  0  0  0  0  0  0  0  0
    3.7974    2.4540    0.0000 Cl  0  0  0  0  0  0  0  0  0  0  0  0
    2.7406    4.8275    0.0000 C   0  0  0  0  0  0  0  0  0  0  0  0
    1.5271    5.7092    0.0000 C   0  0  0  0  0  0  0  0  0  0  0  0
    1.6839    7.2010    0.0000 Cl  0  0  0  0  0  0  0  0  0  0  0  0
    0.1568    5.0991    0.0000 C   0  0  0  0  0  0  0  0  0  0  0  0
    0.0000    3.6073    0.0000 C   0  0  0  0  0  0  0  0  0  0  0  0
   -1.2135    2.7256    0.0000 C   0  0  0  0  0  0  0  0  0  0  0  0
   -2.6401    3.1891    0.0000 O   0  0  0  0  0  0  0  0  0  0  0  0
  1  2  2  0
  2  3  1  0
  2  4  1  0
  4  5  2  0
  5  6  1  0
  6  7  2  0
  6  8  1  0
  8  9  1  0
  9 10  2  0
 10 11  1  0
 11 12  1  0
 11 13  2  0
 13 14  1  0
 14 15  2  0
 15 16  1  0
 16 17  2  0
 17 18  1  0
 17 19  1  0
 19 20  2  0
 20 21  1  0
 20 22  1  0
 22 23  2  0
 23 24  1  0
 24 25  1  1
 15  9  1  0
 23 16  1  0
 24 14  1  0
M  CHG  1   3  -1
M  END
>  <Compound_ID>  (181) 
C01579038

>  <Active>  (181) 
0

>  <Smiles>  (181) 
O=C([O-])/C=C/C(=O)Nc1cc(Cl)cc2c1-c1c(Cl)cc(Cl)cc1[C@@H]2O

>  <canonical_smi>  (181) 
O=C([O-])/C=C/C(=O)Nc1cc(Cl)cc2c1-c1c(Cl)cc(Cl)cc1[C@@H]2O

>  <Set>  (181) 
G2 inactive

>  <Set_type>  (181) 
Train

>  <MW>  (181) 
397.62

>  <HBD>  (181) 
2

>  <HBA>  (181) 
4

>  <NRB>  (181) 
3

>  <NR>  (181) 
3

>  <NAR>  (181) 
2

>  <PSA>  (181) 
89.46

>  <Standard Type>  (181) 
nan

>  <Standard Relation>  (181) 
nan

>  <Standard Units>  (181) 
nan

>  <Standard Value>  (181) 
nan

>  <Assay ChEMBL ID>  (181) 
nan

>  <Assay Description>  (181) 
nan

>  <BAO Label>  (181) 
nan

$$$$

     RDKit          2D

 20 21  0  0  0  0  0  0  0  0999 V2000
    7.5162    3.1170    0.0000 C   0  0  0  0  0  0  0  0  0  0  0  0
    7.1534    1.6615    0.0000 C   0  0  0  0  0  0  0  0  0  0  0  0
    8.1175    0.5125    0.0000 C   0  0  0  0  0  0  0  0  0  0  0  0
    7.3227   -0.7596    0.0000 S   0  0  0  0  0  0  0  0  0  0  0  0
    5.8672   -0.3967    0.0000 C   0  0  0  0  0  0  0  0  0  0  0  0
    4.7181   -1.3609    0.0000 C   0  0  0  0  0  0  0  0  0  0  0  0
    3.3086   -0.8479    0.0000 C   0  0  0  0  0  0  0  0  0  0  0  0
    2.1595   -1.8121    0.0000 N   0  0  0  0  0  4  0  0  0  0  0  0
    0.7500   -1.2990    0.0000 C   0  0  0  0  0  0  0  0  0  0  0  0
    0.4895   -2.7762    0.0000 P   0  0  0  0  0  0  0  0  0  0  0  0
    0.2291   -4.2535    0.0000 O   0  0  0  0  0  0  0  0  0  0  0  0
    1.9667   -3.0367    0.0000 O   0  0  0  0  0  1  0  0  0  0  0  0
   -0.9877   -2.5158    0.0000 O   0  0  0  0  0  1  0  0  0  0  0  0
    1.5000    0.0000    0.0000 C   0  0  0  0  0  0  0  0  0  0  0  0
    0.7500    1.2990    0.0000 C   0  0  0  0  0  0  0  0  0  0  0  0
   -0.7500    1.2990    0.0000 C   0  0  0  0  0  0  0  0  0  0  0  0
   -1.5000    0.0000    0.0000 C   0  0  0  0  0  0  0  0  0  0  0  0
   -3.0000    0.0000    0.0000 C   0  0  0  0  0  0  0  0  0  0  0  0
   -0.7500   -1.2990    0.0000 C   0  0  0  0  0  0  0  0  0  0  0  0
    5.7626    1.0996    0.0000 N   0  0  0  0  0  0  0  0  0  0  0  0
  1  2  1  0
  2  3  2  0
  3  4  1  0
  4  5  1  0
  5  6  1  0
  6  7  1  0
  7  8  1  0
  9  8  1  6
  9 10  1  0
 10 11  2  0
 10 12  1  0
 10 13  1  0
  9 14  1  0
 14 15  1  0
 15 16  1  0
 16 17  1  0
 17 18  1  1
 17 19  1  0
  5 20  2  0
 20  2  1  0
 19  9  1  0
M  CHG  3   8   1  12  -1  13  -1
M  END
>  <Compound_ID>  (182) 
C12913986

>  <Active>  (182) 
0

>  <Smiles>  (182) 
Cc1csc(CC[NH2+][C@@]2(P(=O)([O-])[O-])CCC[C@H](C)C2)n1

>  <canonical_smi>  (182) 
Cc1csc(CC[NH2+][C@@]2(P(=O)([O-])[O-])CCC[C@H](C)C2)n1

>  <Set>  (182) 
G2 inactive

>  <Set_type>  (182) 
Train

>  <MW>  (182) 
317.37

>  <HBD>  (182) 
1

>  <HBA>  (182) 
4

>  <NRB>  (182) 
5

>  <NR>  (182) 
2

>  <NAR>  (182) 
1

>  <PSA>  (182) 
92.69

>  <Standard Type>  (182) 
nan

>  <Standard Relation>  (182) 
nan

>  <Standard Units>  (182) 
nan

>  <Standard Value>  (182) 
nan

>  <Assay ChEMBL ID>  (182) 
nan

>  <Assay Description>  (182) 
nan

>  <BAO Label>  (182) 
nan

$$$$

     RDKit          2D

 23 24  0  0  0  0  0  0  0  0999 V2000
    4.5000    0.0000    0.0000 N   0  0  0  0  0  0  0  0  0  0  0  0
    3.0000    0.0000    0.0000 C   0  0  0  0  0  0  0  0  0  0  0  0
    1.5000    0.0000    0.0000 C   0  0  0  0  0  0  0  0  0  0  0  0
    0.7500   -1.2990    0.0000 C   0  0  0  0  0  0  0  0  0  0  0  0
   -0.7500   -1.2990    0.0000 C   0  0  0  0  0  0  0  0  0  0  0  0
   -1.5000   -2.5981    0.0000 S   0  0  0  0  0  0  0  0  0  0  0  0
   -2.7990   -1.8481    0.0000 O   0  0  0  0  0  0  0  0  0  0  0  0
   -0.2010   -3.3481    0.0000 O   0  0  0  0  0  0  0  0  0  0  0  0
   -2.2500   -3.8971    0.0000 N   0  0  0  0  0  2  0  0  0  0  0  0
   -1.5000   -5.1962    0.0000 C   0  0  0  0  0  0  0  0  0  0  0  0
    0.0000   -5.1962    0.0000 C   0  0  0  0  0  0  0  0  0  0  0  0
    0.7500   -6.4952    0.0000 C   0  0  0  0  0  0  0  0  0  0  0  0
    0.0000   -7.7942    0.0000 C   0  0  0  0  0  0  0  0  0  0  0  0
    0.7500   -9.0933    0.0000 Cl  0  0  0  0  0  0  0  0  0  0  0  0
   -1.5000   -7.7942    0.0000 C   0  0  0  0  0  0  0  0  0  0  0  0
   -2.2500   -6.4952    0.0000 C   0  0  0  0  0  0  0  0  0  0  0  0
   -3.7500   -6.4952    0.0000 C   0  0  0  0  0  0  0  0  0  0  0  0
   -4.5000   -7.7942    0.0000 N   0  0  0  0  0  0  0  0  0  0  0  0
   -4.5000   -5.1962    0.0000 O   0  0  0  0  0  0  0  0  0  0  0  0
   -1.5000    0.0000    0.0000 C   0  0  0  0  0  0  0  0  0  0  0  0
   -0.7500    1.2990    0.0000 C   0  0  0  0  0  0  0  0  0  0  0  0
    0.7500    1.2990    0.0000 C   0  0  0  0  0  0  0  0  0  0  0  0
    1.5000    2.5981    0.0000 Cl  0  0  0  0  0  0  0  0  0  0  0  0
  1  2  3  0
  2  3  1  0
  3  4  2  0
  4  5  1  0
  5  6  1  0
  6  7  2  0
  6  8  2  0
  6  9  1  0
  9 10  1  0
 10 11  2  0
 11 12  1  0
 12 13  2  0
 13 14  1  0
 13 15  1  0
 15 16  2  0
 16 17  1  0
 17 18  1  0
 17 19  2  0
  5 20  2  0
 20 21  1  0
 21 22  2  0
 22 23  1  0
 22  3  1  0
 16 10  1  0
M  CHG  1   9  -1
M  END
>  <Compound_ID>  (183) 
C63182301

>  <Active>  (183) 
0

>  <Smiles>  (183) 
N#Cc1cc(S(=O)(=O)[N-]c2ccc(Cl)cc2C(N)=O)ccc1Cl

>  <canonical_smi>  (183) 
N#Cc1cc(S(=O)(=O)[N-]c2ccc(Cl)cc2C(N)=O)ccc1Cl

>  <Set>  (183) 
G2 inactive

>  <Set_type>  (183) 
Train

>  <MW>  (183) 
369.21

>  <HBD>  (183) 
1

>  <HBA>  (183) 
4

>  <NRB>  (183) 
4

>  <NR>  (183) 
2

>  <NAR>  (183) 
2

>  <PSA>  (183) 
115.12

>  <Standard Type>  (183) 
nan

>  <Standard Relation>  (183) 
nan

>  <Standard Units>  (183) 
nan

>  <Standard Value>  (183) 
nan

>  <Assay ChEMBL ID>  (183) 
nan

>  <Assay Description>  (183) 
nan

>  <BAO Label>  (183) 
nan

$$$$

     RDKit          2D

 24 28  0  0  0  0  0  0  0  0999 V2000
   -1.5000   -5.1962    0.0000 N   0  0  0  0  0  0  0  0  0  0  0  0
   -0.0000   -5.1962    0.0000 C   0  0  0  0  0  0  0  0  0  0  0  0
    0.7500   -3.8971    0.0000 N   0  0  0  0  0  0  0  0  0  0  0  0
    2.2500   -3.8971    0.0000 C   0  0  0  0  0  0  0  0  0  0  0  0
    3.0000   -2.5981    0.0000 N   0  0  0  0  0  0  0  0  0  0  0  0
    2.2500   -1.2990    0.0000 C   0  0  0  0  0  0  0  0  0  0  0  0
    0.7500   -1.2990    0.0000 C   0  0  0  0  0  0  0  0  0  0  0  0
    1.5000    0.0000    0.0000 C   0  0  0  0  0  0  0  0  0  0  0  0
    0.7500    1.2990    0.0000 C   0  0  0  0  0  0  0  0  0  0  0  0
   -0.7500    1.2990    0.0000 C   0  0  0  0  0  0  0  0  0  0  0  0
   -1.5000    0.0000    0.0000 C   0  0  0  0  0  0  0  0  0  0  0  0
   -0.7500   -1.2990    0.0000 C   0  0  0  0  0  0  0  0  0  0  0  0
    1.7010   -0.7500    0.0000 C   0  0  0  0  0  0  0  0  0  0  0  0
    3.0000   -0.0000    0.0000 C   0  0  0  0  0  0  0  0  0  0  0  0
    2.2500    1.2990    0.0000 C   0  0  0  0  0  0  0  0  0  0  0  0
    3.0000   -5.1962    0.0000 N   0  0  0  0  0  0  0  0  0  0  0  0
    2.2500   -6.4952    0.0000 C   0  0  0  0  0  0  0  0  0  0  0  0
    3.0000   -7.7942    0.0000 C   0  0  0  0  0  0  0  0  0  0  0  0
    4.4918   -7.9510    0.0000 N   0  0  0  0  0  0  0  0  0  0  0  0
    4.8037   -9.4182    0.0000 N   0  0  0  0  0  0  0  0  0  0  0  0
    3.5046  -10.1682    0.0000 C   0  0  0  0  0  0  0  0  0  0  0  0
    3.3478  -11.6600    0.0000 S   0  0  0  0  0  0  0  0  0  0  0  0
    2.3899   -9.1645    0.0000 O   0  0  0  0  0  0  0  0  0  0  0  0
    0.7500   -6.4952    0.0000 N   0  0  0  0  0  0  0  0  0  0  0  0
  1  2  1  0
  2  3  2  0
  3  4  1  0
  4  5  1  0
  5  6  1  0
  6  7  1  0
  7  8  1  0
  8  9  1  0
  9 10  1  0
 10 11  1  0
 11 12  1  0
 11 13  1  0
 13 14  1  0
 14 15  1  0
  4 16  2  0
 16 17  1  0
 17 18  1  0
 18 19  2  0
 19 20  1  0
 20 21  1  0
 21 22  2  0
 21 23  1  0
 17 24  2  0
 24  2  1  0
 14  6  1  0
 23 18  1  0
 12  7  1  0
 15  9  1  0
M  END
>  <Compound_ID>  (184) 
C17212728

>  <Active>  (184) 
0

>  <Smiles>  (184) 
Nc1nc(NC2C3CC4CC(C3)CC2C4)nc(-c2n[nH]c(=S)o2)n1

>  <canonical_smi>  (184) 
Nc1nc(NC2C3CC4CC(C3)CC2C4)nc(-c2n[nH]c(=S)o2)n1

>  <Set>  (184) 
G2 inactive

>  <Set_type>  (184) 
Train

>  <MW>  (184) 
345.43

>  <HBD>  (184) 
3

>  <HBA>  (184) 
8

>  <NRB>  (184) 
3

>  <NR>  (184) 
6

>  <NAR>  (184) 
2

>  <PSA>  (184) 
118.54

>  <Standard Type>  (184) 
nan

>  <Standard Relation>  (184) 
nan

>  <Standard Units>  (184) 
nan

>  <Standard Value>  (184) 
nan

>  <Assay ChEMBL ID>  (184) 
nan

>  <Assay Description>  (184) 
nan

>  <BAO Label>  (184) 
nan

$$$$

     RDKit          2D

 26 28  0  0  0  0  0  0  0  0999 V2000
    8.3782    2.4516    0.0000 C   0  0  0  0  0  0  0  0  0  0  0  0
    6.9739    2.9787    0.0000 C   0  0  0  0  0  0  0  0  0  0  0  0
    6.5748    4.4246    0.0000 C   0  0  0  0  0  0  0  0  0  0  0  0
    5.0763    4.4919    0.0000 C   0  0  0  0  0  0  0  0  0  0  0  0
    4.5492    3.0876    0.0000 C   0  0  0  0  0  0  0  0  0  0  0  0
    3.1033    2.6885    0.0000 C   0  0  0  0  0  0  0  0  0  0  0  0
    2.5762    1.2842    0.0000 N   0  0  0  0  0  4  0  0  0  0  0  0
    3.4026    0.0323    0.0000 O   0  0  0  0  0  1  0  0  0  0  0  0
    1.0777    1.3515    0.0000 C   0  0  0  0  0  0  0  0  0  0  0  0
    1.7286    0.0000    0.0000 C   0  0  0  0  0  0  0  0  0  0  0  0
    1.0777   -1.3515    0.0000 C   0  0  0  0  0  0  0  0  0  0  0  0
   -0.3846   -1.6852    0.0000 C   0  0  0  0  0  0  0  0  0  0  0  0
   -1.5574   -0.7500    0.0000 C   0  0  0  0  0  0  0  0  0  0  0  0
   -1.5574    0.7500    0.0000 C   0  0  0  0  0  0  0  0  0  0  0  0
   -0.3846    1.6852    0.0000 C   0  0  0  0  0  0  0  0  0  0  0  0
   -0.7184    3.1476    0.0000 N   0  0  0  0  0  0  0  0  0  0  0  0
   -2.1518    3.5898    0.0000 N   0  0  0  0  0  0  0  0  0  0  0  0
   -2.4856    5.0522    0.0000 C   0  0  0  0  0  0  0  0  0  0  0  0
   -3.9189    5.4943    0.0000 N   0  0  0  0  0  0  0  0  0  0  0  0
   -1.3860    6.0724    0.0000 S   0  0  0  0  0  0  0  0  0  0  0  0
    0.6787    2.7974    0.0000 N   0  0  0  0  0  0  0  0  0  0  0  0
    0.0223    3.2498    0.0000 O   0  0  0  0  0  0  0  0  0  0  0  0
    1.9306    3.6237    0.0000 C   0  0  0  0  0  0  0  0  0  0  0  0
    0.9779    4.7824    0.0000 C   0  0  0  0  0  0  0  0  0  0  0  0
    2.9832    4.6923    0.0000 C   0  0  0  0  0  0  0  0  0  0  0  0
    5.7220    2.1523    0.0000 O   0  0  0  0  0  0  0  0  0  0  0  0
  1  2  1  0
  2  3  2  0
  3  4  1  0
  4  5  2  0
  5  6  1  0
  6  7  2  0
  7  8  1  0
  7  9  1  0
  9 10  1  1
 10 11  1  0
 11 12  1  0
 12 13  1  0
 13 14  1  0
 14 15  1  0
 15 16  2  3
 16 17  1  0
 17 18  1  0
 18 19  1  0
 18 20  2  0
  9 21  1  0
 21 22  1  0
 21 23  1  0
 23 24  1  0
 23 25  1  0
  5 26  1  0
 26  2  1  0
 23  6  1  0
 15  9  1  0
M  CHG  2   7   1   8  -1
M  END
>  <Compound_ID>  (185) 
C13154503

>  <Active>  (185) 
0

>  <Smiles>  (185) 
Cc1ccc(C2=[N+]([O-])[C@@]3(CCCCCC3=NNC(N)=S)N(O)C2(C)C)o1

>  <canonical_smi>  (185) 
Cc1ccc(C2=[N+]([O-])[C@@]3(CCCCCC3=NNC(N)=S)N(O)C2(C)C)o1

>  <Set>  (185) 
G2 inactive

>  <Set_type>  (185) 
Train

>  <MW>  (185) 
379.49

>  <HBD>  (185) 
3

>  <HBA>  (185) 
7

>  <NRB>  (185) 
2

>  <NR>  (185) 
3

>  <NAR>  (185) 
1

>  <PSA>  (185) 
113.09

>  <Standard Type>  (185) 
nan

>  <Standard Relation>  (185) 
nan

>  <Standard Units>  (185) 
nan

>  <Standard Value>  (185) 
nan

>  <Assay ChEMBL ID>  (185) 
nan

>  <Assay Description>  (185) 
nan

>  <BAO Label>  (185) 
nan

$$$$

     RDKit          2D

 21 22  0  0  0  0  0  0  0  0999 V2000
    3.8310   -4.4646    0.0000 O   0  0  0  0  0  0  0  0  0  0  0  0
    2.8273   -5.5793    0.0000 C   0  0  0  0  0  0  0  0  0  0  0  0
    3.2909   -7.0059    0.0000 O   0  0  0  0  0  1  0  0  0  0  0  0
    1.3601   -5.2674    0.0000 C   0  0  0  0  0  0  0  0  0  0  0  0
    0.2454   -6.2711    0.0000 C   0  0  0  0  0  0  0  0  0  0  0  0
   -1.0537   -5.5211    0.0000 S   0  0  0  0  0  0  0  0  0  0  0  0
   -0.7418   -4.0539    0.0000 C   0  0  0  0  0  0  0  0  0  0  0  0
    0.7500   -3.8971    0.0000 N   0  0  0  0  0  0  0  0  0  0  0  0
    1.5000   -2.5981    0.0000 C   0  0  0  0  0  0  0  0  0  0  0  0
    3.0000   -2.5981    0.0000 O   0  0  0  0  0  0  0  0  0  0  0  0
    0.7500   -1.2990    0.0000 C   0  0  0  0  0  0  0  0  0  0  0  0
    1.5000    0.0000    0.0000 C   0  0  0  0  0  0  0  0  0  0  0  0
    0.7500    1.2990    0.0000 C   0  0  0  0  0  0  0  0  0  0  0  0
   -0.7500    1.2990    0.0000 C   0  0  0  0  0  0  0  0  0  0  0  0
   -1.5000    2.5981    0.0000 S   0  0  0  0  0  0  0  0  0  0  0  0
   -0.7500    3.8971    0.0000 C   0  0  0  0  0  0  0  0  0  0  0  0
   -2.0490    4.6471    0.0000 F   0  0  0  0  0  0  0  0  0  0  0  0
    0.5490    3.1471    0.0000 F   0  0  0  0  0  0  0  0  0  0  0  0
    0.0000    5.1962    0.0000 F   0  0  0  0  0  0  0  0  0  0  0  0
   -1.5000    0.0000    0.0000 C   0  0  0  0  0  0  0  0  0  0  0  0
   -0.7500   -1.2990    0.0000 C   0  0  0  0  0  0  0  0  0  0  0  0
  1  2  2  0
  2  3  1  0
  4  2  1  6
  4  5  1  0
  5  6  1  0
  6  7  1  0
  7  8  1  0
  8  9  1  0
  9 10  2  0
  9 11  1  0
 11 12  2  0
 12 13  1  0
 13 14  2  0
 14 15  1  0
 15 16  1  0
 16 17  1  0
 16 18  1  0
 16 19  1  0
 14 20  1  0
 20 21  2  0
  8  4  1  0
 21 11  1  0
M  CHG  1   3  -1
M  END
>  <Compound_ID>  (186) 
C37454282

>  <Active>  (186) 
0

>  <Smiles>  (186) 
O=C([O-])[C@@H]1CSCN1C(=O)c1ccc(SC(F)(F)F)cc1

>  <canonical_smi>  (186) 
O=C([O-])[C@@H]1CSCN1C(=O)c1ccc(SC(F)(F)F)cc1

>  <Set>  (186) 
G2 inactive

>  <Set_type>  (186) 
Train

>  <MW>  (186) 
336.34

>  <HBD>  (186) 
0

>  <HBA>  (186) 
5

>  <NRB>  (186) 
3

>  <NR>  (186) 
2

>  <NAR>  (186) 
1

>  <PSA>  (186) 
60.44

>  <Standard Type>  (186) 
nan

>  <Standard Relation>  (186) 
nan

>  <Standard Units>  (186) 
nan

>  <Standard Value>  (186) 
nan

>  <Assay ChEMBL ID>  (186) 
nan

>  <Assay Description>  (186) 
nan

>  <BAO Label>  (186) 
nan

$$$$

     RDKit          2D

 21 22  0  0  0  0  0  0  0  0999 V2000
    3.0000    0.0000    0.0000 C   0  0  0  0  0  0  0  0  0  0  0  0
    1.5000    0.0000    0.0000 C   0  0  0  0  0  0  0  0  0  0  0  0
    0.7500   -1.2990    0.0000 C   0  0  0  0  0  0  0  0  0  0  0  0
   -0.7500   -1.2990    0.0000 C   0  0  0  0  0  0  0  0  0  0  0  0
   -1.5000   -2.5981    0.0000 C   0  0  0  0  0  0  0  0  0  0  0  0
   -1.5000    0.0000    0.0000 N   0  0  0  0  0  0  0  0  0  0  0  0
   -3.0000    0.0000    0.0000 C   0  0  0  0  0  0  0  0  0  0  0  0
   -3.7500    1.2990    0.0000 C   0  0  0  0  0  0  0  0  0  0  0  0
   -3.0000    2.5981    0.0000 C   0  0  0  0  0  0  0  0  0  0  0  0
   -3.7500    3.8971    0.0000 C   0  0  0  0  0  0  0  0  0  0  0  0
   -5.2500    3.8971    0.0000 C   0  0  0  0  0  0  0  0  0  0  0  0
   -6.0000    5.1962    0.0000 F   0  0  0  0  0  0  0  0  0  0  0  0
   -6.0000    2.5981    0.0000 C   0  0  0  0  0  0  0  0  0  0  0  0
   -5.2500    1.2990    0.0000 C   0  0  0  0  0  0  0  0  0  0  0  0
   -6.0000    0.0000    0.0000 Br  0  0  0  0  0  0  0  0  0  0  0  0
   -0.7500    1.2990    0.0000 C   0  0  0  0  0  0  0  0  0  0  0  0
   -1.5000    2.5981    0.0000 O   0  0  0  0  0  0  0  0  0  0  0  0
    0.7500    1.2990    0.0000 C   0  0  0  0  0  0  0  0  0  0  0  0
    1.5000    2.5981    0.0000 C   0  0  0  0  0  0  0  0  0  0  0  0
    3.0000    2.5981    0.0000 O   0  0  0  0  0  0  0  0  0  0  0  0
    0.7500    3.8971    0.0000 O   0  0  0  0  0  1  0  0  0  0  0  0
  1  2  1  0
  2  3  1  0
  3  4  2  0
  4  5  1  0
  4  6  1  0
  6  7  1  0
  7  8  1  0
  8  9  2  0
  9 10  1  0
 10 11  2  0
 11 12  1  0
 11 13  1  0
 13 14  2  0
 14 15  1  0
  6 16  1  0
 16 17  2  0
 16 18  1  0
 18 19  1  0
 19 20  2  0
 19 21  1  0
 18  2  2  0
 14  8  1  0
M  CHG  1  21  -1
M  END
>  <Compound_ID>  (187) 
C61450178

>  <Active>  (187) 
0

>  <Smiles>  (187) 
Cc1cc(C)n(Cc2ccc(F)cc2Br)c(=O)c1C(=O)[O-]

>  <canonical_smi>  (187) 
Cc1cc(C)n(Cc2ccc(F)cc2Br)c(=O)c1C(=O)[O-]

>  <Set>  (187) 
G2 inactive

>  <Set_type>  (187) 
Train

>  <MW>  (187) 
353.17

>  <HBD>  (187) 
0

>  <HBA>  (187) 
3

>  <NRB>  (187) 
3

>  <NR>  (187) 
2

>  <NAR>  (187) 
2

>  <PSA>  (187) 
62.13

>  <Standard Type>  (187) 
nan

>  <Standard Relation>  (187) 
nan

>  <Standard Units>  (187) 
nan

>  <Standard Value>  (187) 
nan

>  <Assay ChEMBL ID>  (187) 
nan

>  <Assay Description>  (187) 
nan

>  <BAO Label>  (187) 
nan

$$$$

     RDKit          2D

 24 26  0  0  0  0  0  0  0  0999 V2000
    2.7760    0.0000    0.0000 C   0  0  0  0  0  0  0  0  0  0  0  0
    1.2760    0.0000    0.0000 C   0  0  0  0  0  0  0  0  0  0  0  0
    0.3943    1.2135    0.0000 C   0  0  0  0  0  0  0  0  0  0  0  0
   -1.0323    0.7500    0.0000 C   0  0  0  0  0  0  0  0  0  0  0  0
   -2.4589    1.2135    0.0000 N   0  0  0  0  0  0  0  0  0  0  0  0
   -3.3405    0.0000    0.0000 C   0  0  0  0  0  0  0  0  0  0  0  0
   -4.8405    0.0000    0.0000 C   0  0  0  0  0  0  0  0  0  0  0  0
   -5.5905   -1.2990    0.0000 O   0  0  0  0  0  1  0  0  0  0  0  0
   -5.5905    1.2990    0.0000 N   0  0  0  0  0  0  0  0  0  0  0  0
   -7.0905    1.2990    0.0000 C   0  0  0  0  0  0  0  0  0  0  0  0
   -7.8405    2.5981    0.0000 C   0  0  0  0  0  0  0  0  0  0  0  0
   -9.3405    2.5981    0.0000 C   0  0  0  0  0  0  0  0  0  0  0  0
  -10.0905    1.2990    0.0000 C   0  0  0  0  0  0  0  0  0  0  0  0
   -9.3405   -0.0000    0.0000 C   0  0  0  0  0  0  0  0  0  0  0  0
  -10.0905   -1.2990    0.0000 Cl  0  0  0  0  0  0  0  0  0  0  0  0
   -7.8405   -0.0000    0.0000 C   0  0  0  0  0  0  0  0  0  0  0  0
   -7.0905   -1.2990    0.0000 F   0  0  0  0  0  0  0  0  0  0  0  0
   -2.4589   -1.2135    0.0000 C   0  0  0  0  0  0  0  0  0  0  0  0
   -2.9224   -2.6401    0.0000 C   0  0  0  0  0  0  0  0  0  0  0  0
   -1.9187   -3.7548    0.0000 N   0  0  0  0  0  0  0  0  0  0  0  0
   -0.4515   -3.4430    0.0000 C   0  0  0  0  0  0  0  0  0  0  0  0
   -2.3822   -5.1814    0.0000 C   0  0  0  0  0  0  0  0  0  0  0  0
   -1.0323   -0.7500    0.0000 C   0  0  0  0  0  0  0  0  0  0  0  0
    0.3943   -1.2135    0.0000 S   0  0  0  0  0  0  0  0  0  0  0  0
  2  1  1  1
  2  3  1  0
  3  4  2  0
  4  5  1  0
  5  6  2  0
  6  7  1  0
  7  8  1  0
  7  9  2  0
  9 10  1  0
 10 11  2  0
 11 12  1  0
 12 13  2  0
 13 14  1  0
 14 15  1  0
 14 16  2  0
 16 17  1  0
  6 18  1  0
 18 19  1  0
 19 20  1  0
 20 21  1  0
 20 22  1  0
 18 23  2  0
 23 24  1  0
 24  2  1  0
 23  4  1  0
 16 10  1  0
M  CHG  1   8  -1
M  END
>  <Compound_ID>  (188) 
C65147743

>  <Active>  (188) 
0

>  <Smiles>  (188) 
C[C@@H]1C=C2N=C(/C([O-])=N/c3cccc(Cl)c3F)C(CN(C)C)=C2S1

>  <canonical_smi>  (188) 
C[C@@H]1C=C2N=C(/C([O-])=N/c3cccc(Cl)c3F)C(CN(C)C)=C2S1

>  <Set>  (188) 
G2 inactive

>  <Set_type>  (188) 
Train

>  <MW>  (188) 
364.85

>  <HBD>  (188) 
0

>  <HBA>  (188) 
3

>  <NRB>  (188) 
4

>  <NR>  (188) 
3

>  <NAR>  (188) 
1

>  <PSA>  (188) 
51.02

>  <Standard Type>  (188) 
nan

>  <Standard Relation>  (188) 
nan

>  <Standard Units>  (188) 
nan

>  <Standard Value>  (188) 
nan

>  <Assay ChEMBL ID>  (188) 
nan

>  <Assay Description>  (188) 
nan

>  <BAO Label>  (188) 
nan

$$$$

     RDKit          2D

 24 27  0  0  0  0  0  0  0  0999 V2000
   -7.9140    5.6597    0.0000 O   0  0  0  0  0  0  0  0  0  0  0  0
   -6.4140    5.6597    0.0000 C   0  0  0  0  0  0  0  0  0  0  0  0
   -5.6640    6.9587    0.0000 C   0  0  0  0  0  0  0  0  0  0  0  0
   -4.1640    6.9587    0.0000 C   0  0  0  0  0  0  0  0  0  0  0  0
   -3.4140    8.2578    0.0000 C   0  0  0  0  0  0  0  0  0  0  0  0
   -4.1640    9.5568    0.0000 C   0  0  0  0  0  0  0  0  0  0  0  0
   -3.4140   10.8558    0.0000 O   0  0  0  0  0  0  0  0  0  0  0  0
   -5.6640    9.5568    0.0000 C   0  0  0  0  0  0  0  0  0  0  0  0
   -6.4140    8.2578    0.0000 C   0  0  0  0  0  0  0  0  0  0  0  0
   -5.6640    4.3606    0.0000 C   0  0  0  0  0  0  0  0  0  0  0  0
   -6.4140    3.0616    0.0000 C   0  0  0  0  0  0  0  0  0  0  0  0
   -5.6640    1.7626    0.0000 C   0  0  0  0  0  0  0  0  0  0  0  0
   -4.1640    1.7626    0.0000 N   0  0  0  0  0  0  0  0  0  0  0  0
   -3.4140    0.4635    0.0000 C   0  0  0  0  0  0  0  0  0  0  0  0
   -4.1640   -0.8355    0.0000 O   0  0  0  0  0  0  0  0  0  0  0  0
   -1.9140    0.4635    0.0000 C   0  0  0  0  0  0  0  0  0  0  0  0
   -1.0323    1.6771    0.0000 C   0  0  0  0  0  0  0  0  0  0  0  0
    0.3943    1.2135    0.0000 C   0  0  0  0  0  0  0  0  0  0  0  0
    1.2760    0.0000    0.0000 C   0  0  0  0  0  0  0  0  0  0  0  0
    0.3943   -1.2135    0.0000 C   0  0  0  0  0  0  0  0  0  0  0  0
   -1.0323   -0.7500    0.0000 C   0  0  0  0  0  0  0  0  0  0  0  0
   -1.0323    0.7500    0.0000 C   0  0  0  0  0  0  0  0  0  0  0  0
   -3.4140    3.0616    0.0000 C   0  0  0  0  0  0  0  0  0  0  0  0
   -4.1640    4.3606    0.0000 C   0  0  0  0  0  0  0  0  0  0  0  0
  1  2  2  0
  2  3  1  0
  3  4  2  0
  4  5  1  0
  5  6  2  0
  6  7  1  0
  6  8  1  0
  8  9  2  0
  2 10  1  0
 10 11  1  0
 11 12  1  0
 12 13  1  0
 13 14  1  0
 14 15  2  0
 16 14  1  6
 16 17  1  0
 18 17  1  1
 18 19  1  0
 19 20  1  0
 21 20  1  1
 21 22  1  0
 13 23  1  0
 23 24  1  0
  9  3  1  0
 24 10  1  0
 21 16  1  0
 22 18  1  0
M  END
>  <Compound_ID>  (189) 
C32898950

>  <Active>  (189) 
0

>  <Smiles>  (189) 
O=C(c1ccc(O)cc1)C1CCN(C(=O)[C@@H]2C[C@H]3CC[C@@H]2C3)CC1

>  <canonical_smi>  (189) 
O=C(c1ccc(O)cc1)C1CCN(C(=O)[C@@H]2C[C@H]3CC[C@@H]2C3)CC1

>  <Set>  (189) 
G2 inactive

>  <Set_type>  (189) 
Train

>  <MW>  (189) 
327.42

>  <HBD>  (189) 
1

>  <HBA>  (189) 
3

>  <NRB>  (189) 
3

>  <NR>  (189) 
4

>  <NAR>  (189) 
1

>  <PSA>  (189) 
57.61

>  <Standard Type>  (189) 
nan

>  <Standard Relation>  (189) 
nan

>  <Standard Units>  (189) 
nan

>  <Standard Value>  (189) 
nan

>  <Assay ChEMBL ID>  (189) 
nan

>  <Assay Description>  (189) 
nan

>  <BAO Label>  (189) 
nan

$$$$

     RDKit          2D

 22 24  0  0  0  0  0  0  0  0999 V2000
    3.7500   -1.2990    0.0000 C   0  0  0  0  0  0  0  0  0  0  0  0
    3.0000    0.0000    0.0000 C   0  0  0  0  0  0  0  0  0  0  0  0
    1.5000    0.0000    0.0000 C   0  0  0  0  0  0  0  0  0  0  0  0
    0.7500   -1.2990    0.0000 C   0  0  0  0  0  0  0  0  0  0  0  0
   -0.7500   -1.2990    0.0000 C   0  0  0  0  0  0  0  0  0  0  0  0
   -1.5000    0.0000    0.0000 C   0  0  0  0  0  0  0  0  0  0  0  0
   -0.7500    1.2990    0.0000 C   0  0  0  0  0  0  0  0  0  0  0  0
   -1.2135    2.7256    0.0000 C   0  0  0  0  0  0  0  0  0  0  0  0
   -2.6401    3.1891    0.0000 C   0  0  0  0  0  0  0  0  0  0  0  0
   -2.9520    4.6564    0.0000 C   0  0  0  0  0  0  0  0  0  0  0  0
   -4.3223    5.2665    0.0000 C   0  0  0  0  0  0  0  0  0  0  0  0
   -5.6213    4.5165    0.0000 O   0  0  0  0  0  0  0  0  0  0  0  0
   -4.1655    6.7583    0.0000 N   0  0  0  0  0  0  0  0  0  0  0  0
   -5.2802    7.7620    0.0000 C   0  0  0  0  0  0  0  0  0  0  0  0
   -4.9684    9.2292    0.0000 C   0  0  0  0  0  0  0  0  0  0  0  0
   -2.6983    7.0701    0.0000 C   0  0  0  0  0  0  0  0  0  0  0  0
   -2.0882    8.4404    0.0000 S   0  0  0  0  0  0  0  0  0  0  0  0
   -1.9483    5.7711    0.0000 N   0  0  0  0  0  0  0  0  0  0  0  0
   -0.4565    5.6143    0.0000 C   0  0  0  0  0  0  0  0  0  0  0  0
    0.0000    3.6073    0.0000 C   0  0  0  0  0  0  0  0  0  0  0  0
    1.2135    2.7256    0.0000 N   0  0  0  0  0  0  0  0  0  0  0  0
    0.7500    1.2990    0.0000 C   0  0  0  0  0  0  0  0  0  0  0  0
  1  2  1  0
  2  3  1  0
  3  4  2  0
  4  5  1  0
  5  6  2  0
  6  7  1  0
  7  8  1  0
  8  9  1  0
  9 10  2  0
 10 11  1  0
 11 12  2  0
 11 13  1  0
 13 14  1  0
 14 15  1  0
 13 16  1  0
 16 17  2  0
 16 18  1  0
 18 19  1  0
  8 20  2  0
 20 21  1  0
 21 22  1  0
 22  3  1  0
 22  7  2  0
 18 10  1  0
M  END
>  <Compound_ID>  (190) 
C44598994

>  <Active>  (190) 
0

>  <Smiles>  (190) 
CCc1cccc2c(/C=C3/C(=O)N(CC)C(=S)N3C)c[nH]c12

>  <canonical_smi>  (190) 
CCc1cccc2c(/C=C3/C(=O)N(CC)C(=S)N3C)c[nH]c12

>  <Set>  (190) 
G2 inactive

>  <Set_type>  (190) 
Train

>  <MW>  (190) 
313.43

>  <HBD>  (190) 
1

>  <HBA>  (190) 
3

>  <NRB>  (190) 
3

>  <NR>  (190) 
3

>  <NAR>  (190) 
2

>  <PSA>  (190) 
39.34

>  <Standard Type>  (190) 
nan

>  <Standard Relation>  (190) 
nan

>  <Standard Units>  (190) 
nan

>  <Standard Value>  (190) 
nan

>  <Assay ChEMBL ID>  (190) 
nan

>  <Assay Description>  (190) 
nan

>  <BAO Label>  (190) 
nan

$$$$

     RDKit          2D

 18 20  0  0  0  0  0  0  0  0999 V2000
   -5.7221   -1.8037    0.0000 C   0  0  0  0  0  0  0  0  0  0  0  0
   -4.4231   -2.5537    0.0000 C   0  0  0  0  0  0  0  0  0  0  0  0
   -3.1240   -1.8037    0.0000 C   0  0  0  0  0  0  0  0  0  0  0  0
   -1.7537   -2.4138    0.0000 C   0  0  0  0  0  0  0  0  0  0  0  0
   -0.7500   -1.2990    0.0000 C   0  0  0  0  0  0  0  0  0  0  0  0
    0.7500   -1.2990    0.0000 C   0  0  0  0  0  0  0  0  0  0  0  0
    1.5000   -2.5981    0.0000 N   0  0  0  0  0  0  0  0  0  0  0  0
    2.9918   -2.7549    0.0000 C   0  0  0  0  0  0  0  0  0  0  0  0
    3.3037   -4.2221    0.0000 C   0  0  0  0  0  0  0  0  0  0  0  0
    4.6740   -4.8322    0.0000 Br  0  0  0  0  0  0  0  0  0  0  0  0
    2.0046   -4.9721    0.0000 C   0  0  0  0  0  0  0  0  0  0  0  0
    1.8478   -6.4639    0.0000 N   0  0  0  0  0  0  0  0  0  0  0  0
    0.8899   -3.9684    0.0000 N   0  0  0  0  0  0  0  0  0  0  0  0
    1.5000    0.0000    0.0000 N   0  0  0  0  0  0  0  0  0  0  0  0
    0.7500    1.2990    0.0000 C   0  0  0  0  0  0  0  0  0  0  0  0
   -0.7500    1.2990    0.0000 N   0  0  0  0  0  0  0  0  0  0  0  0
   -1.5000    0.0000    0.0000 C   0  0  0  0  0  0  0  0  0  0  0  0
   -2.9672   -0.3119    0.0000 S   0  0  0  0  0  0  0  0  0  0  0  0
  1  2  1  0
  2  3  1  0
  3  4  2  0
  4  5  1  0
  5  6  2  0
  6  7  1  0
  7  8  1  0
  8  9  2  0
  9 10  1  0
  9 11  1  0
 11 12  1  0
 11 13  2  0
  6 14  1  0
 14 15  2  0
 15 16  1  0
 16 17  2  0
 17 18  1  0
 18  3  1  0
 17  5  1  0
 13  7  1  0
M  END
>  <Compound_ID>  (191) 
C40517082

>  <Active>  (191) 
0

>  <Smiles>  (191) 
CCc1cc2c(-n3cc(Br)c(N)n3)ncnc2s1

>  <canonical_smi>  (191) 
CCc1cc2c(-n3cc(Br)c(N)n3)ncnc2s1

>  <Set>  (191) 
G2 inactive

>  <Set_type>  (191) 
Train

>  <MW>  (191) 
324.21

>  <HBD>  (191) 
1

>  <HBA>  (191) 
4

>  <NRB>  (191) 
2

>  <NR>  (191) 
3

>  <NAR>  (191) 
3

>  <PSA>  (191) 
69.62

>  <Standard Type>  (191) 
nan

>  <Standard Relation>  (191) 
nan

>  <Standard Units>  (191) 
nan

>  <Standard Value>  (191) 
nan

>  <Assay ChEMBL ID>  (191) 
nan

>  <Assay Description>  (191) 
nan

>  <BAO Label>  (191) 
nan

$$$$

     RDKit          2D

 24 26  0  0  0  0  0  0  0  0999 V2000
    1.5000   -5.1962    0.0000 C   0  0  0  0  0  0  0  0  0  0  0  0
    0.7500   -3.8971    0.0000 C   0  0  0  0  0  0  0  0  0  0  0  0
   -0.7500   -3.8971    0.0000 C   0  0  0  0  0  0  0  0  0  0  0  0
   -1.5000   -2.5981    0.0000 C   0  0  0  0  0  0  0  0  0  0  0  0
   -3.0000   -2.5981    0.0000 F   0  0  0  0  0  0  0  0  0  0  0  0
   -0.7500   -1.2990    0.0000 C   0  0  0  0  0  0  0  0  0  0  0  0
    0.7500   -1.2990    0.0000 C   0  0  0  0  0  0  0  0  0  0  0  0
    1.5000   -2.5981    0.0000 C   0  0  0  0  0  0  0  0  0  0  0  0
    1.5000    0.0000    0.0000 C   0  0  0  0  0  0  0  0  0  0  0  0
    0.7500    1.2990    0.0000 C   0  0  0  0  0  0  0  0  0  0  0  0
   -0.7500    1.2990    0.0000 C   0  0  0  0  0  0  0  0  0  0  0  0
   -1.5000    0.0000    0.0000 N   0  0  0  0  0  0  0  0  0  0  0  0
   -3.0000    0.0000    0.0000 C   0  0  0  0  0  0  0  0  0  0  0  0
   -3.7500    1.2990    0.0000 C   0  0  0  0  0  0  0  0  0  0  0  0
   -3.0000    2.5981    0.0000 O   0  0  0  0  0  0  0  0  0  0  0  0
   -5.2500    1.2990    0.0000 N   0  0  0  0  0  0  0  0  0  0  0  0
   -6.0000    2.5981    0.0000 C   0  0  0  0  0  0  0  0  0  0  0  0
   -7.4958    2.4860    0.0000 C   0  0  0  0  0  0  0  0  0  0  0  0
   -8.5161    3.5856    0.0000 C   0  0  0  0  0  0  0  0  0  0  0  0
   -8.2925    5.0688    0.0000 C   0  0  0  0  0  0  0  0  0  0  0  0
   -6.9935    5.8188    0.0000 C   0  0  0  0  0  0  0  0  0  0  0  0
   -5.5972    5.2708    0.0000 N   0  0  0  0  0  0  0  0  0  0  0  0
   -5.1550    3.8374    0.0000 C   0  0  0  0  0  0  0  0  0  0  0  0
   -3.6718    3.6139    0.0000 O   0  0  0  0  0  0  0  0  0  0  0  0
  1  2  1  0
  2  3  2  0
  3  4  1  0
  4  5  1  0
  4  6  2  0
  6  7  1  0
  7  8  2  0
  7  9  1  0
  9 10  1  0
 10 11  1  0
 11 12  1  0
 12 13  1  0
 13 14  1  0
 14 15  2  0
 14 16  1  0
 17 16  1  6
 17 18  1  0
 18 19  1  0
 19 20  1  0
 20 21  1  0
 21 22  1  0
 22 23  1  0
 23 24  2  0
  8  2  1  0
 23 17  1  0
 12  6  1  0
M  END
>  <Compound_ID>  (192) 
C52645353

>  <Active>  (192) 
0

>  <Smiles>  (192) 
Cc1cc(F)c2c(c1)CCCN2CC(=O)N[C@@H]1CCCCNC1=O

>  <canonical_smi>  (192) 
Cc1cc(F)c2c(c1)CCCN2CC(=O)N[C@@H]1CCCCNC1=O

>  <Set>  (192) 
G2 inactive

>  <Set_type>  (192) 
Train

>  <MW>  (192) 
333.41

>  <HBD>  (192) 
2

>  <HBA>  (192) 
3

>  <NRB>  (192) 
3

>  <NR>  (192) 
3

>  <NAR>  (192) 
1

>  <PSA>  (192) 
61.44

>  <Standard Type>  (192) 
nan

>  <Standard Relation>  (192) 
nan

>  <Standard Units>  (192) 
nan

>  <Standard Value>  (192) 
nan

>  <Assay ChEMBL ID>  (192) 
nan

>  <Assay Description>  (192) 
nan

>  <BAO Label>  (192) 
nan

$$$$

     RDKit          2D

 23 25  0  0  0  0  0  0  0  0999 V2000
    4.5000    0.0000    0.0000 N   0  0  0  0  0  0  0  0  0  0  0  0
    3.0000    0.0000    0.0000 C   0  0  0  0  0  0  0  0  0  0  0  0
    1.5000    0.0000    0.0000 C   0  0  0  0  0  0  0  0  0  0  0  0
    0.7500   -1.2990    0.0000 C   0  0  0  0  0  0  0  0  0  0  0  0
   -0.7500   -1.2990    0.0000 C   0  0  0  0  0  0  0  0  0  0  0  0
   -1.5000    0.0000    0.0000 C   0  0  0  0  0  0  0  0  0  0  0  0
   -3.0000    0.0000    0.0000 N   0  0  0  0  0  0  0  0  0  0  0  0
   -3.7500    1.2990    0.0000 C   0  0  0  0  0  0  0  0  0  0  0  0
   -5.2500    1.2990    0.0000 C   0  0  0  0  0  0  0  0  0  0  0  0
   -6.0000    0.0000    0.0000 C   0  0  0  0  0  0  0  0  0  0  0  0
   -7.5000    0.0000    0.0000 N   0  0  0  0  0  4  0  0  0  0  0  0
   -8.2500    1.2990    0.0000 C   0  0  0  0  0  0  0  0  0  0  0  0
   -9.7500    1.2990    0.0000 C   0  0  0  0  0  0  0  0  0  0  0  0
  -10.5000    2.5981    0.0000 C   0  0  0  0  0  0  0  0  0  0  0  0
  -12.0000    2.5981    0.0000 C   0  0  0  0  0  0  0  0  0  0  0  0
  -12.7500    1.2990    0.0000 C   0  0  0  0  0  0  0  0  0  0  0  0
  -12.0000    0.0000    0.0000 C   0  0  0  0  0  0  0  0  0  0  0  0
  -10.5000    0.0000    0.0000 C   0  0  0  0  0  0  0  0  0  0  0  0
   -9.7500   -1.2990    0.0000 O   0  0  0  0  0  0  0  0  0  0  0  0
   -5.2500   -1.2990    0.0000 C   0  0  0  0  0  0  0  0  0  0  0  0
   -3.7500   -1.2990    0.0000 C   0  0  0  0  0  0  0  0  0  0  0  0
   -0.7500    1.2990    0.0000 N   0  0  0  0  0  0  0  0  0  0  0  0
    0.7500    1.2990    0.0000 C   0  0  0  0  0  0  0  0  0  0  0  0
  1  2  3  0
  2  3  1  0
  3  4  2  0
  4  5  1  0
  5  6  2  0
  6  7  1  0
  7  8  1  0
  8  9  1  0
  9 10  1  0
 10 11  1  0
 11 12  2  0
 12 13  1  0
 13 14  2  0
 14 15  1  0
 15 16  2  0
 16 17  1  0
 17 18  2  0
 18 19  1  0
 10 20  1  0
 20 21  1  0
  6 22  1  0
 22 23  2  0
 23  3  1  0
 21  7  1  0
 18 13  1  0
M  CHG  1  11   1
M  END
>  <Compound_ID>  (193) 
C66255621

>  <Active>  (193) 
0

>  <Smiles>  (193) 
N#Cc1ccc(N2CCC(/[NH+]=C/c3ccccc3O)CC2)nc1

>  <canonical_smi>  (193) 
N#Cc1ccc(N2CCC(/[NH+]=C/c3ccccc3O)CC2)nc1

>  <Set>  (193) 
G2 inactive

>  <Set_type>  (193) 
Train

>  <MW>  (193) 
307.38

>  <HBD>  (193) 
2

>  <HBA>  (193) 
4

>  <NRB>  (193) 
3

>  <NR>  (193) 
3

>  <NAR>  (193) 
2

>  <PSA>  (193) 
74.12

>  <Standard Type>  (193) 
nan

>  <Standard Relation>  (193) 
nan

>  <Standard Units>  (193) 
nan

>  <Standard Value>  (193) 
nan

>  <Assay ChEMBL ID>  (193) 
nan

>  <Assay Description>  (193) 
nan

>  <BAO Label>  (193) 
nan

$$$$

     RDKit          2D

 25 29  0  0  0  0  0  0  0  0999 V2000
    6.1616    9.4823    0.0000 C   0  0  0  0  0  0  0  0  0  0  0  0
    4.7283    9.0402    0.0000 C   0  0  0  0  0  0  0  0  0  0  0  0
    3.6287   10.0604    0.0000 C   0  0  0  0  0  0  0  0  0  0  0  0
    2.1953    9.6183    0.0000 C   0  0  0  0  0  0  0  0  0  0  0  0
    1.8615    8.1559    0.0000 C   0  0  0  0  0  0  0  0  0  0  0  0
    2.9611    7.1357    0.0000 C   0  0  0  0  0  0  0  0  0  0  0  0
    2.6273    5.6733    0.0000 O   0  0  0  0  0  0  0  0  0  0  0  0
    1.1940    5.2311    0.0000 C   0  0  0  0  0  0  0  0  0  0  0  0
    0.8602    3.7687    0.0000 C   0  0  0  0  0  0  0  0  0  0  0  0
   -0.5191    3.1792    0.0000 N   0  0  0  0  0  0  0  0  0  0  0  0
   -0.3846    1.6852    0.0000 C   0  0  0  0  0  0  0  0  0  0  0  0
    1.0777    1.3515    0.0000 C   0  0  0  0  0  0  0  0  0  0  0  0
    1.8471    2.6391    0.0000 N   0  0  0  0  0  0  0  0  0  0  0  0
    1.7286    0.0000    0.0000 C   0  0  0  0  0  0  0  0  0  0  0  0
    1.0777   -1.3515    0.0000 C   0  0  0  0  0  0  0  0  0  0  0  0
   -0.3846   -1.6852    0.0000 C   0  0  0  0  0  0  0  0  0  0  0  0
   -1.5574   -0.7500    0.0000 N   0  0  0  0  0  0  0  0  0  0  0  0
   -1.5574    0.7500    0.0000 C   0  0  0  0  0  0  0  0  0  0  0  0
   -2.9088    1.4008    0.0000 O   0  0  0  0  0  0  0  0  0  0  0  0
    4.3945    7.5778    0.0000 C   0  0  0  0  0  0  0  0  0  0  0  0
    4.4046   10.0895    0.0000 C   0  0  0  0  0  0  0  0  0  0  0  0
    3.9625   11.5228    0.0000 C   0  0  0  0  0  0  0  0  0  0  0  0
    4.2962   12.9852    0.0000 C   0  0  0  0  0  0  0  0  0  0  0  0
    2.5291   11.0807    0.0000 C   0  0  0  0  0  0  0  0  0  0  0  0
    5.0620   10.5026    0.0000 C   0  0  0  0  0  0  0  0  0  0  0  0
  2  1  1  1
  2  3  1  0
  3  4  1  0
  4  5  1  0
  5  6  1  0
  6  7  1  0
  7  8  1  0
  8  9  1  0
  9 10  2  0
 10 11  1  0
 11 12  2  0
 12 13  1  0
 12 14  1  0
 14 15  1  0
 15 16  1  0
 16 17  1  0
 17 18  1  0
 18 19  2  0
  6 20  1  0
  6 21  1  0
 21 22  1  0
 22 23  1  6
 22 24  1  0
 22 25  1  0
 20  2  1  0
 25  2  1  0
 24  4  1  0
 13  9  1  0
 18 11  1  0
M  END
>  <Compound_ID>  (194) 
C65456112

>  <Active>  (194) 
0

>  <Smiles>  (194) 
C[C@]12CC3CC(OCc4nc5c([nH]4)CCCNC5=O)(C1)C[C@@](C)(C3)C2

>  <canonical_smi>  (194) 
C[C@@]12CC3CC(OCc4nc5c([nH]4)CCCNC5=O)(C1)C[C@](C)(C3)C2

>  <Set>  (194) 
G2 inactive

>  <Set_type>  (194) 
Train

>  <MW>  (194) 
343.47

>  <HBD>  (194) 
2

>  <HBA>  (194) 
3

>  <NRB>  (194) 
3

>  <NR>  (194) 
6

>  <NAR>  (194) 
1

>  <PSA>  (194) 
67.01

>  <Standard Type>  (194) 
nan

>  <Standard Relation>  (194) 
nan

>  <Standard Units>  (194) 
nan

>  <Standard Value>  (194) 
nan

>  <Assay ChEMBL ID>  (194) 
nan

>  <Assay Description>  (194) 
nan

>  <BAO Label>  (194) 
nan

$$$$

     RDKit          2D

 19 21  0  0  0  0  0  0  0  0999 V2000
    5.6669    8.0985    0.0000 C   0  0  0  0  0  0  0  0  0  0  0  0
    4.1751    8.2553    0.0000 C   0  0  0  0  0  0  0  0  0  0  0  0
    3.5650    9.6256    0.0000 C   0  0  0  0  0  0  0  0  0  0  0  0
    3.2934    7.0418    0.0000 C   0  0  0  0  0  0  0  0  0  0  0  0
    1.7934    7.0418    0.0000 C   0  0  0  0  0  0  0  0  0  0  0  0
    1.3299    5.6152    0.0000 C   0  0  0  0  0  0  0  0  0  0  0  0
   -0.0967    5.1517    0.0000 C   0  0  0  0  0  0  0  0  0  0  0  0
   -1.2114    6.1554    0.0000 O   0  0  0  0  0  0  0  0  0  0  0  0
   -0.4086    3.6844    0.0000 N   0  0  0  0  0  0  0  0  0  0  0  0
   -1.8351    3.2209    0.0000 C   0  0  0  0  0  0  0  0  0  0  0  0
   -2.1470    1.7537    0.0000 C   0  0  0  0  0  0  0  0  0  0  0  0
   -1.0323    0.7500    0.0000 C   0  0  0  0  0  0  0  0  0  0  0  0
    0.3943    1.2135    0.0000 C   0  0  0  0  0  0  0  0  0  0  0  0
    1.2760    0.0000    0.0000 C   0  0  0  0  0  0  0  0  0  0  0  0
    0.3943   -1.2135    0.0000 N   0  0  0  0  0  0  0  0  0  0  0  0
   -1.0323   -0.7500    0.0000 N   0  0  0  0  0  0  0  0  0  0  0  0
    0.7062    2.6807    0.0000 C   0  0  0  0  0  0  0  0  0  0  0  0
    2.5434    4.7335    0.0000 N   0  0  0  0  0  0  0  0  0  0  0  0
    3.7570    5.6152    0.0000 O   0  0  0  0  0  0  0  0  0  0  0  0
  1  2  1  0
  2  3  1  0
  2  4  1  0
  4  5  2  0
  5  6  1  0
  6  7  1  1
  7  8  2  0
  7  9  1  0
  9 10  1  0
 10 11  1  0
 11 12  1  0
 12 13  2  0
 13 14  1  0
 14 15  1  0
 15 16  2  0
 13 17  1  0
  6 18  1  0
 18 19  1  0
 19  4  1  0
 17  9  1  0
 16 12  1  0
M  END
>  <Compound_ID>  (195) 
C39413150

>  <Active>  (195) 
0

>  <Smiles>  (195) 
CC(C)C1=C[C@H](C(=O)N2CCC3=C(CN=N3)C2)NO1

>  <canonical_smi>  (195) 
CC(C)C1=C[C@H](C(=O)N2CCC3=C(CN=N3)C2)NO1

>  <Set>  (195) 
G2 inactive

>  <Set_type>  (195) 
Train

>  <MW>  (195) 
262.31

>  <HBD>  (195) 
1

>  <HBA>  (195) 
3

>  <NRB>  (195) 
2

>  <NR>  (195) 
3

>  <NAR>  (195) 
0

>  <PSA>  (195) 
66.29

>  <Standard Type>  (195) 
nan

>  <Standard Relation>  (195) 
nan

>  <Standard Units>  (195) 
nan

>  <Standard Value>  (195) 
nan

>  <Assay ChEMBL ID>  (195) 
nan

>  <Assay Description>  (195) 
nan

>  <BAO Label>  (195) 
nan

$$$$

     RDKit          2D

 17 19  0  0  0  0  0  0  0  0999 V2000
   -8.6562    2.3705    0.0000 C   0  0  0  0  0  0  0  0  0  0  0  0
   -7.2296    2.8340    0.0000 C   0  0  0  0  0  0  0  0  0  0  0  0
   -6.9177    4.3013    0.0000 C   0  0  0  0  0  0  0  0  0  0  0  0
   -5.4912    4.7648    0.0000 C   0  0  0  0  0  0  0  0  0  0  0  0
   -4.3764    3.7611    0.0000 C   0  0  0  0  0  0  0  0  0  0  0  0
   -4.6883    2.2939    0.0000 C   0  0  0  0  0  0  0  0  0  0  0  0
   -3.5736    1.2902    0.0000 N   0  0  0  0  0  0  0  0  0  0  0  0
   -2.1470    1.7537    0.0000 C   0  0  0  0  0  0  0  0  0  0  0  0
   -1.8351    3.2209    0.0000 C   0  0  0  0  0  0  0  0  0  0  0  0
   -0.4086    3.6844    0.0000 N   0  0  0  0  0  0  0  0  0  0  0  0
    0.7062    2.6807    0.0000 C   0  0  0  0  0  0  0  0  0  0  0  0
    0.3943    1.2135    0.0000 C   0  0  0  0  0  0  0  0  0  0  0  0
    1.2760    0.0000    0.0000 N   0  0  0  0  0  0  0  0  0  0  0  0
    0.3943   -1.2135    0.0000 N   0  0  0  0  0  0  0  0  0  0  0  0
   -1.0323   -0.7500    0.0000 N   0  0  0  0  0  0  0  0  0  0  0  0
   -1.0323    0.7500    0.0000 N   0  0  0  0  0  0  0  0  0  0  0  0
   -6.1149    1.8303    0.0000 C   0  0  0  0  0  0  0  0  0  0  0  0
  2  1  1  6
  2  3  1  0
  3  4  1  0
  4  5  1  0
  5  6  1  0
  6  7  1  1
  7  8  1  0
  8  9  2  0
  9 10  1  0
 10 11  2  0
 11 12  1  0
 12 13  2  0
 13 14  1  0
 14 15  2  0
 15 16  1  0
  6 17  1  0
 17  2  1  0
 16  8  1  0
 16 12  1  0
M  END
>  <Compound_ID>  (196) 
C44348631

>  <Active>  (196) 
0

>  <Smiles>  (196) 
C[C@@H]1CCC[C@@H](Nc2cncc3nnnn23)C1

>  <canonical_smi>  (196) 
C[C@@H]1CCC[C@@H](Nc2cncc3nnnn23)C1

>  <Set>  (196) 
G2 inactive

>  <Set_type>  (196) 
Train

>  <MW>  (196) 
232.29

>  <HBD>  (196) 
1

>  <HBA>  (196) 
5

>  <NRB>  (196) 
2

>  <NR>  (196) 
3

>  <NAR>  (196) 
2

>  <PSA>  (196) 
68.0

>  <Standard Type>  (196) 
nan

>  <Standard Relation>  (196) 
nan

>  <Standard Units>  (196) 
nan

>  <Standard Value>  (196) 
nan

>  <Assay ChEMBL ID>  (196) 
nan

>  <Assay Description>  (196) 
nan

>  <BAO Label>  (196) 
nan

$$$$

     RDKit          2D

 27 31  0  0  0  0  0  0  0  0999 V2000
    5.8385   16.2989    0.0000 F   0  0  0  0  0  0  0  0  0  0  0  0
    5.6817   14.8071    0.0000 C   0  0  0  0  0  0  0  0  0  0  0  0
    6.8952   13.9255    0.0000 C   0  0  0  0  0  0  0  0  0  0  0  0
    6.7384   12.4337    0.0000 C   0  0  0  0  0  0  0  0  0  0  0  0
    5.3681   11.8236    0.0000 C   0  0  0  0  0  0  0  0  0  0  0  0
    5.2113   10.3318    0.0000 O   0  0  0  0  0  0  0  0  0  0  0  0
    3.8410    9.7217    0.0000 C   0  0  0  0  0  0  0  0  0  0  0  0
    3.6842    8.2299    0.0000 C   0  0  0  0  0  0  0  0  0  0  0  0
    4.7989    7.2262    0.0000 C   0  0  0  0  0  0  0  0  0  0  0  0
    4.1888    5.8559    0.0000 C   0  0  0  0  0  0  0  0  0  0  0  0
    2.6970    6.0127    0.0000 C   0  0  0  0  0  0  0  0  0  0  0  0
    1.6933    4.8980    0.0000 C   0  0  0  0  0  0  0  0  0  0  0  0
    2.0052    3.4307    0.0000 N   0  0  0  0  0  0  0  0  0  0  0  0
    0.7062    2.6807    0.0000 C   0  0  0  0  0  0  0  0  0  0  0  0
    0.3943    1.2135    0.0000 C   0  0  0  0  0  0  0  0  0  0  0  0
    1.2760    0.0000    0.0000 C   0  0  0  0  0  0  0  0  0  0  0  0
    0.3943   -1.2135    0.0000 N   0  0  0  0  0  4  0  0  0  0  0  0
   -1.0323   -0.7500    0.0000 N   0  0  0  0  0  0  0  0  0  0  0  0
   -1.0323    0.7500    0.0000 C   0  0  0  0  0  0  0  0  0  0  0  0
   -2.1470    1.7537    0.0000 N   0  0  0  0  0  0  0  0  0  0  0  0
   -1.8351    3.2209    0.0000 C   0  0  0  0  0  0  0  0  0  0  0  0
   -0.4086    3.6844    0.0000 N   0  0  0  0  0  0  0  0  0  0  0  0
    0.2016    5.0548    0.0000 N   0  0  0  0  0  2  0  0  0  0  0  0
    2.3852    7.4799    0.0000 O   0  0  0  0  0  0  0  0  0  0  0  0
    4.1546   12.7053    0.0000 C   0  0  0  0  0  0  0  0  0  0  0  0
    2.7843   12.0952    0.0000 F   0  0  0  0  0  0  0  0  0  0  0  0
    4.3114   14.1970    0.0000 C   0  0  0  0  0  0  0  0  0  0  0  0
  1  2  1  0
  2  3  2  0
  3  4  1  0
  4  5  2  0
  5  6  1  0
  6  7  1  0
  7  8  1  0
  8  9  2  0
  9 10  1  0
 10 11  2  0
 11 12  1  0
 12 13  2  0
 13 14  1  0
 14 15  2  0
 15 16  1  0
 16 17  2  0
 17 18  1  0
 18 19  2  0
 19 20  1  0
 20 21  2  0
 21 22  1  0
 22 23  1  0
 11 24  1  0
  5 25  1  0
 25 26  1  0
 25 27  2  0
 27  2  1  0
 24  8  1  0
 23 12  1  0
 22 14  1  0
 19 15  1  0
M  CHG  2  17   1  23  -1
M  END
>  <Compound_ID>  (197) 
C17075547

>  <Active>  (197) 
0

>  <Smiles>  (197) 
Fc1ccc(OCc2ccc(-c3nc4c5c[nH+]nc-5ncn4[n-]3)o2)c(F)c1

>  <canonical_smi>  (197) 
Fc1ccc(OCc2ccc(-c3nc4c5c[nH+]nc-5ncn4[n-]3)o2)c(F)c1

>  <Set>  (197) 
G2 inactive

>  <Set_type>  (197) 
Train

>  <MW>  (197) 
368.3

>  <HBD>  (197) 
0

>  <HBA>  (197) 
6

>  <NRB>  (197) 
4

>  <NR>  (197) 
5

>  <NAR>  (197) 
5

>  <PSA>  (197) 
93.69

>  <Standard Type>  (197) 
nan

>  <Standard Relation>  (197) 
nan

>  <Standard Units>  (197) 
nan

>  <Standard Value>  (197) 
nan

>  <Assay ChEMBL ID>  (197) 
nan

>  <Assay Description>  (197) 
nan

>  <BAO Label>  (197) 
nan

$$$$

     RDKit          2D

 25 28  0  0  0  0  0  0  0  0999 V2000
   12.3296   -3.2202    0.0000 C   0  0  0  0  0  0  0  0  0  0  0  0
   10.9030   -2.7567    0.0000 C   0  0  0  0  0  0  0  0  0  0  0  0
    9.7883   -3.7603    0.0000 C   0  0  0  0  0  0  0  0  0  0  0  0
    8.3617   -3.2968    0.0000 C   0  0  0  0  0  0  0  0  0  0  0  0
    8.0498   -1.8296    0.0000 N   0  0  0  0  0  0  0  0  0  0  0  0
    6.6232   -1.3661    0.0000 C   0  0  0  0  0  0  0  0  0  0  0  0
    6.3114    0.1011    0.0000 O   0  0  0  0  0  0  0  0  0  0  0  0
    5.5085   -2.3698    0.0000 C   0  0  0  0  0  0  0  0  0  0  0  0
    4.0819   -1.9062    0.0000 S   0  0  0  0  0  0  0  0  0  0  0  0
    2.9672   -2.9099    0.0000 C   0  0  0  0  0  0  0  0  0  0  0  0
    3.1240   -4.4017    0.0000 N   0  0  0  0  0  0  0  0  0  0  0  0
    1.7537   -5.0118    0.0000 N   0  0  0  0  0  0  0  0  0  0  0  0
    0.7500   -3.8971    0.0000 C   0  0  0  0  0  0  0  0  0  0  0  0
   -0.7500   -3.8971    0.0000 N   0  0  0  0  0  0  0  0  0  0  0  0
   -1.5000   -2.5981    0.0000 C   0  0  0  0  0  0  0  0  0  0  0  0
   -3.0000   -2.5981    0.0000 O   0  0  0  0  0  0  0  0  0  0  0  0
   -0.7500   -1.2990    0.0000 C   0  0  0  0  0  0  0  0  0  0  0  0
    0.7500   -1.2990    0.0000 C   0  0  0  0  0  0  0  0  0  0  0  0
    1.5000   -2.5981    0.0000 N   0  0  0  0  0  0  0  0  0  0  0  0
    1.5000    0.0000    0.0000 C   0  0  0  0  0  0  0  0  0  0  0  0
    0.7500    1.2990    0.0000 C   0  0  0  0  0  0  0  0  0  0  0  0
   -0.7500    1.2990    0.0000 C   0  0  0  0  0  0  0  0  0  0  0  0
   -1.5000    0.0000    0.0000 C   0  0  0  0  0  0  0  0  0  0  0  0
    9.1645   -0.8259    0.0000 C   0  0  0  0  0  0  0  0  0  0  0  0
   10.5911   -1.2894    0.0000 C   0  0  0  0  0  0  0  0  0  0  0  0
  1  2  1  0
  2  3  1  0
  3  4  1  0
  4  5  1  0
  5  6  1  0
  6  7  2  0
  6  8  1  0
  8  9  1  0
  9 10  1  0
 10 11  2  0
 11 12  1  0
 12 13  2  0
 13 14  1  0
 14 15  1  0
 15 16  2  0
 15 17  1  0
 17 18  2  0
 18 19  1  0
 18 20  1  0
 20 21  1  0
 21 22  1  0
 22 23  1  0
  5 24  1  0
 24 25  1  0
 25  2  1  0
 19 10  1  0
 19 13  1  0
 23 17  1  0
M  END
>  <Compound_ID>  (198) 
C09520352

>  <Active>  (198) 
0

>  <Smiles>  (198) 
CC1CCN(C(=O)CSc2nnc3[nH]c(=O)c4c(n23)CCCC4)CC1

>  <canonical_smi>  (198) 
CC1CCN(C(=O)CSc2nnc3[nH]c(=O)c4c(n23)CCCC4)CC1

>  <Set>  (198) 
G2 inactive

>  <Set_type>  (198) 
Train

>  <MW>  (198) 
361.47

>  <HBD>  (198) 
1

>  <HBA>  (198) 
5

>  <NRB>  (198) 
3

>  <NR>  (198) 
4

>  <NAR>  (198) 
2

>  <PSA>  (198) 
83.36

>  <Standard Type>  (198) 
nan

>  <Standard Relation>  (198) 
nan

>  <Standard Units>  (198) 
nan

>  <Standard Value>  (198) 
nan

>  <Assay ChEMBL ID>  (198) 
nan

>  <Assay Description>  (198) 
nan

>  <BAO Label>  (198) 
nan

$$$$

     RDKit          2D

 22 24  0  0  0  0  0  0  0  0999 V2000
    2.7760    0.0000    0.0000 C   0  0  0  0  0  0  0  0  0  0  0  0
    1.2760    0.0000    0.0000 C   0  0  0  0  0  0  0  0  0  0  0  0
    0.3943    1.2135    0.0000 C   0  0  0  0  0  0  0  0  0  0  0  0
   -1.0323    0.7500    0.0000 C   0  0  0  0  0  0  0  0  0  0  0  0
   -1.0323   -0.7500    0.0000 C   0  0  0  0  0  0  0  0  0  0  0  0
    0.3943   -1.2135    0.0000 O   0  0  0  0  0  0  0  0  0  0  0  0
   -2.3313   -1.5000    0.0000 C   0  0  0  0  0  0  0  0  0  0  0  0
   -3.6304   -0.7500    0.0000 C   0  0  0  0  0  0  0  0  0  0  0  0
   -5.1076   -0.4895    0.0000 C   0  0  0  0  0  0  0  0  0  0  0  0
   -4.1434   -2.1595    0.0000 C   0  0  0  0  0  0  0  0  0  0  0  0
   -3.6304    0.7500    0.0000 C   0  0  0  0  0  0  0  0  0  0  0  0
   -2.3313    1.5000    0.0000 C   0  0  0  0  0  0  0  0  0  0  0  0
   -2.3313    3.0000    0.0000 N   0  0  0  0  0  4  0  0  0  0  0  0
   -3.6304    3.7500    0.0000 C   0  0  0  0  0  0  0  0  0  0  0  0
   -3.7872    5.2418    0.0000 C   0  0  0  0  0  0  0  0  0  0  0  0
   -2.6724    6.2455    0.0000 N   0  0  0  0  0  4  0  0  0  0  0  0
   -1.2459    5.7820    0.0000 O   0  0  0  0  0  0  0  0  0  0  0  0
   -2.9843    7.7127    0.0000 O   0  0  0  0  0  1  0  0  0  0  0  0
   -5.2544    5.5537    0.0000 N   0  0  0  0  0  0  0  0  0  0  0  0
   -6.0044    4.2546    0.0000 C   0  0  0  0  0  0  0  0  0  0  0  0
   -5.0007    3.1399    0.0000 N   0  0  0  0  0  0  0  0  0  0  0  0
   -5.3125    1.6727    0.0000 C   0  0  0  0  0  0  0  0  0  0  0  0
  1  2  1  0
  2  3  2  0
  3  4  1  0
  4  5  2  0
  5  6  1  0
  5  7  1  0
  7  8  1  0
  8  9  1  0
  8 10  1  0
  8 11  1  0
 11 12  1  0
 12 13  1  6
 13 14  2  0
 14 15  1  0
 15 16  1  6
 16 17  2  0
 16 18  1  0
 15 19  1  0
 19 20  2  0
 20 21  1  0
 21 22  1  0
  6  2  1  0
 21 14  1  0
 12  4  1  0
M  CHG  3  13   1  16   1  18  -1
M  END
>  <Compound_ID>  (199) 
C52324862

>  <Active>  (199) 
0

>  <Smiles>  (199) 
Cc1cc2c(o1)CC(C)(C)C[C@@H]2/[NH+]=C1/[C@@H]([N+](=O)[O-])N=CN1C

>  <canonical_smi>  (199) 
Cc1cc2c(o1)CC(C)(C)C[C@@H]2/[NH+]=C1/[C@@H]([N+](=O)[O-])N=CN1C

>  <Set>  (199) 
G2 inactive

>  <Set_type>  (199) 
Train

>  <MW>  (199) 
305.36

>  <HBD>  (199) 
1

>  <HBA>  (199) 
4

>  <NRB>  (199) 
2

>  <NR>  (199) 
3

>  <NAR>  (199) 
1

>  <PSA>  (199) 
85.85

>  <Standard Type>  (199) 
nan

>  <Standard Relation>  (199) 
nan

>  <Standard Units>  (199) 
nan

>  <Standard Value>  (199) 
nan

>  <Assay ChEMBL ID>  (199) 
nan

>  <Assay Description>  (199) 
nan

>  <BAO Label>  (199) 
nan

$$$$

     RDKit          2D

 23 25  0  0  0  0  0  0  0  0999 V2000
    4.6740   -4.8322    0.0000 O   0  0  0  0  0  0  0  0  0  0  0  0
    3.3037   -4.2221    0.0000 C   0  0  0  0  0  0  0  0  0  0  0  0
    2.9918   -2.7549    0.0000 N   0  0  0  0  0  0  0  0  0  0  0  0
    1.5000   -2.5981    0.0000 N   0  0  0  0  0  0  0  0  0  0  0  0
    0.7500   -1.2990    0.0000 C   0  0  0  0  0  0  0  0  0  0  0  0
    1.5000    0.0000    0.0000 C   0  0  0  0  0  0  0  0  0  0  0  0
    0.7500    1.2990    0.0000 C   0  0  0  0  0  0  0  0  0  0  0  0
   -0.7500    1.2990    0.0000 C   0  0  0  0  0  0  0  0  0  0  0  0
   -1.5000    0.0000    0.0000 C   0  0  0  0  0  0  0  0  0  0  0  0
   -0.7500   -1.2990    0.0000 C   0  0  0  0  0  0  0  0  0  0  0  0
    0.8899   -3.9684    0.0000 C   0  0  0  0  0  0  0  0  0  0  0  0
   -0.5773   -4.2803    0.0000 O   0  0  0  0  0  0  0  0  0  0  0  0
    2.0046   -4.9721    0.0000 C   0  0  0  0  0  0  0  0  0  0  0  0
    1.8478   -6.4639    0.0000 C   0  0  0  0  0  0  0  0  0  0  0  0
    3.0613   -7.3456    0.0000 C   0  0  0  0  0  0  0  0  0  0  0  0
    2.9046   -8.8373    0.0000 C   0  0  0  0  0  0  0  0  0  0  0  0
    4.1181   -9.7190    0.0000 C   0  0  0  0  0  0  0  0  0  0  0  0
    3.9613  -11.2108    0.0000 C   0  0  0  0  0  0  0  0  0  0  0  0
    5.1748  -12.0925    0.0000 C   0  0  0  0  0  0  0  0  0  0  0  0
    6.5451  -11.4824    0.0000 C   0  0  0  0  0  0  0  0  0  0  0  0
    6.7019   -9.9906    0.0000 C   0  0  0  0  0  0  0  0  0  0  0  0
    5.4884   -9.1089    0.0000 C   0  0  0  0  0  0  0  0  0  0  0  0
    5.6452   -7.6171    0.0000 Cl  0  0  0  0  0  0  0  0  0  0  0  0
  1  2  2  0
  2  3  1  0
  3  4  1  0
  4  5  1  0
  5  6  2  0
  6  7  1  0
  7  8  2  0
  8  9  1  0
  9 10  2  0
  4 11  1  0
 11 12  2  0
 11 13  1  0
 13 14  2  0
 14 15  1  0
 15 16  2  0
 16 17  1  0
 17 18  2  0
 18 19  1  0
 19 20  2  0
 20 21  1  0
 21 22  2  0
 22 23  1  0
 13  2  1  0
 22 17  1  0
 10  5  1  0
M  END
>  <Compound_ID>  (200) 
C00050606

>  <Active>  (200) 
0

>  <Smiles>  (200) 
O=C1NN(c2ccccc2)C(=O)/C1=C/C=C/c1ccccc1Cl

>  <canonical_smi>  (200) 
O=C1NN(c2ccccc2)C(=O)/C1=C/C=C/c1ccccc1Cl

>  <Set>  (200) 
G2 inactive

>  <Set_type>  (200) 
Train

>  <MW>  (200) 
324.77

>  <HBD>  (200) 
1

>  <HBA>  (200) 
2

>  <NRB>  (200) 
3

>  <NR>  (200) 
3

>  <NAR>  (200) 
2

>  <PSA>  (200) 
49.41

>  <Standard Type>  (200) 
nan

>  <Standard Relation>  (200) 
nan

>  <Standard Units>  (200) 
nan

>  <Standard Value>  (200) 
nan

>  <Assay ChEMBL ID>  (200) 
nan

>  <Assay Description>  (200) 
nan

>  <BAO Label>  (200) 
nan

$$$$

     RDKit          2D

 23 26  0  0  0  0  0  0  0  0999 V2000
    0.7500   -3.8971    0.0000 C   0  0  0  0  0  0  0  0  0  0  0  0
    1.5000   -2.5981    0.0000 C   0  0  0  0  0  0  0  0  0  0  0  0
    0.7500   -1.2990    0.0000 C   0  0  0  0  0  0  0  0  0  0  0  0
    1.5000    0.0000    0.0000 C   0  0  0  0  0  0  0  0  0  0  0  0
    0.7500    1.2990    0.0000 N   0  0  0  0  0  0  0  0  0  0  0  0
   -0.7500    1.2990    0.0000 C   0  0  0  0  0  0  0  0  0  0  0  0
   -1.5000    0.0000    0.0000 C   0  0  0  0  0  0  0  0  0  0  0  0
   -3.0000    0.0000    0.0000 C   0  0  0  0  0  0  0  0  0  0  0  0
   -3.7500    1.2990    0.0000 C   0  0  0  0  0  0  0  0  0  0  0  0
    1.7010   -0.7500    0.0000 C   0  0  0  0  0  0  0  0  0  0  0  0
    3.0000   -0.0000    0.0000 N   0  0  0  0  0  0  0  0  0  0  0  0
    2.2500   -1.2990    0.0000 C   0  0  0  0  0  0  0  0  0  0  0  0
    2.2500    1.2990    0.0000 C   0  0  0  0  0  0  0  0  0  0  0  0
    3.0000    2.5981    0.0000 C   0  0  0  0  0  0  0  0  0  0  0  0
    4.5000    2.5981    0.0000 C   0  0  0  0  0  0  0  0  0  0  0  0
    5.2500    3.8971    0.0000 C   0  0  0  0  0  0  0  0  0  0  0  0
    4.5000    5.1962    0.0000 O   0  0  0  0  0  0  0  0  0  0  0  0
    3.0000    5.1962    0.0000 C   0  0  0  0  0  0  0  0  0  0  0  0
    1.5905    5.7092    0.0000 C   0  0  0  0  0  0  0  0  0  0  0  0
    3.2605    6.6734    0.0000 C   0  0  0  0  0  0  0  0  0  0  0  0
    2.2500    3.8971    0.0000 C   0  0  0  0  0  0  0  0  0  0  0  0
   -0.7500   -1.2990    0.0000 C   0  0  0  0  0  0  0  0  0  0  0  0
   -1.5000   -2.5981    0.0000 O   0  0  0  0  0  0  0  0  0  0  0  0
  1  2  1  0
  2  3  1  0
  3  4  1  0
  4  5  1  0
  5  6  1  0
  6  7  1  0
  7  8  1  0
  8  9  1  0
  7 10  1  0
 10 11  1  0
 11 12  1  0
 11 13  1  0
 14 13  1  6
 14 15  1  0
 15 16  1  0
 16 17  1  0
 17 18  1  0
 18 19  1  0
 18 20  1  0
 18 21  1  0
  7 22  1  0
 22 23  1  0
 12  3  1  0
 21 14  1  0
 22  3  1  0
 13  5  1  0
M  END
>  <Compound_ID>  (201) 
C19331462

>  <Active>  (201) 
0

>  <Smiles>  (201) 
CCC12CN3CC(CC)(CN(C1)C3[C@H]1CCOC(C)(C)C1)C2O

>  <canonical_smi>  (201) 
CCC12CN3CC(CC)(CN(C1)C3[C@H]1CCOC(C)(C)C1)C2O

>  <Set>  (201) 
G2 inactive

>  <Set_type>  (201) 
Train

>  <MW>  (201) 
322.49

>  <HBD>  (201) 
1

>  <HBA>  (201) 
4

>  <NRB>  (201) 
3

>  <NR>  (201) 
5

>  <NAR>  (201) 
0

>  <PSA>  (201) 
35.94

>  <Standard Type>  (201) 
nan

>  <Standard Relation>  (201) 
nan

>  <Standard Units>  (201) 
nan

>  <Standard Value>  (201) 
nan

>  <Assay ChEMBL ID>  (201) 
nan

>  <Assay Description>  (201) 
nan

>  <BAO Label>  (201) 
nan

$$$$

     RDKit          2D

 23 26  0  0  0  0  0  0  0  0999 V2000
    3.0000   -2.5981    0.0000 O   0  0  0  0  0  1  0  0  0  0  0  0
    1.5000   -2.5981    0.0000 C   0  0  0  0  0  0  0  0  0  0  0  0
    0.7500   -1.2990    0.0000 C   0  0  0  0  0  0  0  0  0  0  0  0
    1.5000    0.0000    0.0000 C   0  0  0  0  0  0  0  0  0  0  0  0
    0.7500    1.2990    0.0000 C   0  0  0  0  0  0  0  0  0  0  0  0
   -0.7500    1.2990    0.0000 C   0  0  0  0  0  0  0  0  0  0  0  0
   -1.5000    0.0000    0.0000 C   0  0  0  0  0  0  0  0  0  0  0  0
   -0.7500   -1.2990    0.0000 C   0  0  0  0  0  0  0  0  0  0  0  0
   -1.5000   -2.5981    0.0000 C   0  0  0  0  0  0  0  0  0  0  0  0
   -3.0000   -2.5981    0.0000 C   0  0  0  0  0  0  0  0  0  0  0  0
   -3.7500   -3.8971    0.0000 S   0  0  0  0  0  0  0  0  0  0  0  0
   -3.7500   -1.2990    0.0000 N   0  0  0  0  0  0  0  0  0  0  0  0
   -5.2500   -1.2990    0.0000 C   0  0  0  0  0  0  0  0  0  0  0  0
   -6.0000   -2.5981    0.0000 C   0  0  0  0  0  0  0  0  0  0  0  0
   -7.5000   -2.5981    0.0000 C   0  0  0  0  0  0  0  0  0  0  0  0
   -8.2500   -1.2990    0.0000 C   0  0  0  0  0  0  0  0  0  0  0  0
   -7.5000   -0.0000    0.0000 C   0  0  0  0  0  0  0  0  0  0  0  0
   -6.0000   -0.0000    0.0000 N   0  0  0  0  0  0  0  0  0  0  0  0
   -0.7500   -3.8971    0.0000 C   0  0  0  0  0  0  0  0  0  0  0  0
   -1.2135   -5.3237    0.0000 N   0  0  0  0  0  4  0  0  0  0  0  0
   -0.0000   -6.2054    0.0000 C   0  0  0  0  0  0  0  0  0  0  0  0
    1.2135   -5.3237    0.0000 C   0  0  0  0  0  0  0  0  0  0  0  0
    0.7500   -3.8971    0.0000 N   0  0  0  0  0  0  0  0  0  0  0  0
  1  2  1  0
  2  3  2  0
  3  4  1  0
  4  5  2  0
  5  6  1  0
  6  7  2  0
  7  8  1  0
  8  9  2  0
  9 10  1  0
 10 11  2  0
 10 12  1  0
 12 13  2  0
 13 14  1  0
 14 15  2  0
 15 16  1  0
 16 17  2  0
 17 18  1  0
  9 19  1  0
 19 20  2  0
 20 21  1  0
 21 22  1  0
 22 23  1  0
 23  2  1  0
  8  3  1  0
 18 13  1  0
 23 19  1  0
M  CHG  2   1  -1  20   1
M  END
>  <Compound_ID>  (202) 
C40834858

>  <Active>  (202) 
0

>  <Smiles>  (202) 
[O-]C1=c2ccccc2=C(C(=S)/N=c2\cccc[nH]2)C2=[NH+]CCN21

>  <canonical_smi>  (202) 
[O-]C1=c2ccccc2=C(C(=S)/N=c2\cccc[nH]2)C2=[NH+]CCN21

>  <Set>  (202) 
G2 inactive

>  <Set_type>  (202) 
Train

>  <MW>  (202) 
322.39

>  <HBD>  (202) 
2

>  <HBA>  (202) 
3

>  <NRB>  (202) 
1

>  <NR>  (202) 
4

>  <NAR>  (202) 
2

>  <PSA>  (202) 
68.42

>  <Standard Type>  (202) 
nan

>  <Standard Relation>  (202) 
nan

>  <Standard Units>  (202) 
nan

>  <Standard Value>  (202) 
nan

>  <Assay ChEMBL ID>  (202) 
nan

>  <Assay Description>  (202) 
nan

>  <BAO Label>  (202) 
nan

$$$$

     RDKit          2D

 22 24  0  0  0  0  0  0  0  0999 V2000
    1.6386   -6.3385    0.0000 C   0  0  0  0  0  0  0  0  0  0  0  0
    0.4895   -5.3743    0.0000 C   0  0  0  0  0  0  0  0  0  0  0  0
    0.7500   -3.8971    0.0000 C   0  0  0  0  0  0  0  0  0  0  0  0
    2.1595   -4.4101    0.0000 C   0  0  0  0  0  0  0  0  0  0  0  0
    2.4200   -5.8874    0.0000 C   0  0  0  0  0  0  0  0  0  0  0  0
    1.5000   -2.5981    0.0000 O   0  0  0  0  0  0  0  0  0  0  0  0
    0.7500   -1.2990    0.0000 C   0  0  0  0  0  0  0  0  0  0  0  0
    1.5000    0.0000    0.0000 C   0  0  0  0  0  0  0  0  0  0  0  0
    0.7500    1.2990    0.0000 C   0  0  0  0  0  0  0  0  0  0  0  0
   -0.7500    1.2990    0.0000 C   0  0  0  0  0  0  0  0  0  0  0  0
   -1.5000    2.5981    0.0000 C   0  0  0  0  0  0  0  0  0  0  0  0
   -2.9918    2.7549    0.0000 C   0  0  0  0  0  0  0  0  0  0  0  0
   -3.3037    4.2221    0.0000 S   0  0  0  0  0  0  0  0  0  0  0  0
   -2.0046    4.9721    0.0000 C   0  0  0  0  0  0  0  0  0  0  0  0
   -1.8478    6.4639    0.0000 N   0  0  0  0  0  0  0  0  0  0  0  0
   -0.8899    3.9684    0.0000 N   0  0  0  0  0  0  0  0  0  0  0  0
   -1.5000    0.0000    0.0000 C   0  0  0  0  0  0  0  0  0  0  0  0
   -0.7500   -1.2990    0.0000 C   0  0  0  0  0  0  0  0  0  0  0  0
   -1.5000   -2.5981    0.0000 N   0  0  0  0  0  0  0  0  0  0  0  0
   -3.0000   -2.5981    0.0000 C   0  0  0  0  0  0  0  0  0  0  0  0
   -0.7500   -3.8971    0.0000 C   0  0  0  0  0  0  0  0  0  0  0  0
   -1.5000   -5.1962    0.0000 O   0  0  0  0  0  0  0  0  0  0  0  0
  1  2  1  0
  2  3  1  0
  3  4  1  0
  4  5  1  0
  3  6  1  0
  6  7  1  0
  7  8  2  0
  8  9  1  0
  9 10  2  0
 10 11  1  0
 11 12  2  0
 12 13  1  0
 13 14  1  0
 14 15  1  0
 14 16  2  0
 10 17  1  0
 17 18  2  0
 18 19  1  0
 19 20  1  0
 19 21  1  0
 21 22  2  0
 21  3  1  0
 18  7  1  0
 16 11  1  0
M  END
>  <Compound_ID>  (203) 
C58235534

>  <Active>  (203) 
0

>  <Smiles>  (203) 
CCC1(CC)Oc2ccc(-c3csc(N)n3)cc2N(C)C1=O

>  <canonical_smi>  (203) 
CCC1(CC)Oc2ccc(-c3csc(N)n3)cc2N(C)C1=O

>  <Set>  (203) 
G2 inactive

>  <Set_type>  (203) 
Train

>  <MW>  (203) 
317.41

>  <HBD>  (203) 
1

>  <HBA>  (203) 
4

>  <NRB>  (203) 
3

>  <NR>  (203) 
3

>  <NAR>  (203) 
2

>  <PSA>  (203) 
68.45

>  <Standard Type>  (203) 
nan

>  <Standard Relation>  (203) 
nan

>  <Standard Units>  (203) 
nan

>  <Standard Value>  (203) 
nan

>  <Assay ChEMBL ID>  (203) 
nan

>  <Assay Description>  (203) 
nan

>  <BAO Label>  (203) 
nan

$$$$

     RDKit          2D

 19 21  0  0  0  0  0  0  0  0999 V2000
   -3.7548   -2.1855    0.0000 C   0  0  0  0  0  0  0  0  0  0  0  0
   -2.6401   -3.1891    0.0000 C   0  0  0  0  0  0  0  0  0  0  0  0
   -2.9520   -4.6564    0.0000 C   0  0  0  0  0  0  0  0  0  0  0  0
   -1.2135   -2.7256    0.0000 N   0  0  0  0  0  0  0  0  0  0  0  0
   -0.0000   -3.6073    0.0000 C   0  0  0  0  0  0  0  0  0  0  0  0
   -0.0000   -5.1073    0.0000 C   0  0  0  0  0  0  0  0  0  0  0  0
    1.2135   -5.9890    0.0000 N   0  0  0  0  0  0  0  0  0  0  0  0
    0.7500   -7.4156    0.0000 N   0  0  0  0  0  0  0  0  0  0  0  0
   -0.7500   -7.4156    0.0000 C   0  0  0  0  0  0  0  0  0  0  0  0
   -1.6317   -8.6291    0.0000 N   0  0  0  0  0  0  0  0  0  0  0  0
   -1.2135   -5.9890    0.0000 N   0  0  0  0  0  0  0  0  0  0  0  0
    1.2135   -2.7256    0.0000 N   0  0  0  0  0  0  0  0  0  0  0  0
    0.7500   -1.2990    0.0000 C   0  0  0  0  0  0  0  0  0  0  0  0
    1.5000    0.0000    0.0000 C   0  0  0  0  0  0  0  0  0  0  0  0
    0.7500    1.2990    0.0000 C   0  0  0  0  0  0  0  0  0  0  0  0
    1.5000    2.5981    0.0000 Br  0  0  0  0  0  0  0  0  0  0  0  0
   -0.7500    1.2990    0.0000 C   0  0  0  0  0  0  0  0  0  0  0  0
   -1.5000    0.0000    0.0000 C   0  0  0  0  0  0  0  0  0  0  0  0
   -0.7500   -1.2990    0.0000 C   0  0  0  0  0  0  0  0  0  0  0  0
  1  2  1  0
  2  3  1  0
  2  4  1  0
  4  5  1  0
  5  6  1  0
  6  7  2  0
  7  8  1  0
  8  9  1  0
  9 10  1  0
  9 11  2  0
  5 12  2  0
 12 13  1  0
 13 14  2  0
 14 15  1  0
 15 16  1  0
 15 17  2  0
 17 18  1  0
 18 19  2  0
 19  4  1  0
 11  6  1  0
 19 13  1  0
M  END
>  <Compound_ID>  (204) 
C55163801

>  <Active>  (204) 
0

>  <Smiles>  (204) 
CC(C)n1c(-c2n[nH]c(N)n2)nc2cc(Br)ccc21

>  <canonical_smi>  (204) 
CC(C)n1c(-c2n[nH]c(N)n2)nc2cc(Br)ccc21

>  <Set>  (204) 
G2 inactive

>  <Set_type>  (204) 
Train

>  <MW>  (204) 
321.18

>  <HBD>  (204) 
2

>  <HBA>  (204) 
4

>  <NRB>  (204) 
2

>  <NR>  (204) 
3

>  <NAR>  (204) 
3

>  <PSA>  (204) 
85.41

>  <Standard Type>  (204) 
nan

>  <Standard Relation>  (204) 
nan

>  <Standard Units>  (204) 
nan

>  <Standard Value>  (204) 
nan

>  <Assay ChEMBL ID>  (204) 
nan

>  <Assay Description>  (204) 
nan

>  <BAO Label>  (204) 
nan

$$$$

     RDKit          2D

 32 36  0  0  0  0  0  0  0  0999 V2000
    3.7500   -1.2990    0.0000 C   0  0  0  0  0  0  0  0  0  0  0  0
    3.0000    0.0000    0.0000 O   0  0  0  0  0  0  0  0  0  0  0  0
    1.5000    0.0000    0.0000 C   0  0  0  0  0  0  0  0  0  0  0  0
    0.7500   -1.2990    0.0000 C   0  0  0  0  0  0  0  0  0  0  0  0
    1.5000   -2.5981    0.0000 O   0  0  0  0  0  0  0  0  0  0  0  0
   -0.7500   -1.2990    0.0000 C   0  0  0  0  0  0  0  0  0  0  0  0
   -1.5000    0.0000    0.0000 C   0  0  0  0  0  0  0  0  0  0  0  0
   -0.7500    1.2990    0.0000 C   0  0  0  0  0  0  0  0  0  0  0  0
    0.7500    1.2990    0.0000 C   0  0  0  0  0  0  0  0  0  0  0  0
    1.5000    2.5981    0.0000 C   0  0  0  0  0  0  0  0  0  0  0  0
    0.7500    3.8971    0.0000 C   0  0  0  0  0  0  0  0  0  0  0  0
   -0.7500    3.8971    0.0000 C   0  0  0  0  0  0  0  0  0  0  0  0
   -1.5000    5.1962    0.0000 C   0  0  0  0  0  0  0  0  0  0  0  0
   -3.0000    5.1962    0.0000 C   0  0  0  0  0  0  0  0  0  0  0  0
   -3.7500    6.4952    0.0000 C   0  0  0  0  0  0  0  0  0  0  0  0
   -5.2500    6.4952    0.0000 C   0  0  0  0  0  0  0  0  0  0  0  0
   -6.0000    5.1962    0.0000 C   0  0  0  0  0  0  0  0  0  0  0  0
   -5.2500    3.8971    0.0000 C   0  0  0  0  0  0  0  0  0  0  0  0
   -6.0000    2.5981    0.0000 C   0  0  0  0  0  0  0  0  0  0  0  0
   -3.7500    3.8971    0.0000 N   0  0  0  0  0  0  0  0  0  0  0  0
   -1.5000    2.5981    0.0000 O   0  0  0  0  0  0  0  0  0  0  0  0
    1.5000    5.1962    0.0000 C   0  0  0  0  0  0  0  0  0  0  0  0
    0.7500    6.4952    0.0000 C   0  0  0  0  0  0  0  0  0  0  0  0
   -0.7500    6.4952    0.0000 C   0  0  0  0  0  0  0  0  0  0  0  0
    1.5000    7.7942    0.0000 C   0  0  0  0  0  0  0  0  0  0  0  0
    3.0000    7.7942    0.0000 C   0  0  0  0  0  0  0  0  0  0  0  0
    4.4095    8.3073    0.0000 C   0  0  0  0  0  0  0  0  0  0  0  0
    2.7395    9.2714    0.0000 C   0  0  0  0  0  0  0  0  0  0  0  0
    3.7500    6.4952    0.0000 N   0  0  0  0  0  4  0  0  0  0  0  0
    3.0000    5.1962    0.0000 C   0  0  0  0  0  0  0  0  0  0  0  0
    3.7500    3.8971    0.0000 C   0  0  0  0  0  0  0  0  0  0  0  0
    3.0000    2.5981    0.0000 C   0  0  0  0  0  0  0  0  0  0  0  0
  1  2  1  0
  2  3  1  0
  3  4  2  0
  4  5  1  0
  4  6  1  0
  6  7  2  0
  7  8  1  0
  8  9  2  0
  9 10  1  0
 10 11  2  0
 11 12  1  0
 12 13  2  0
 13 14  1  0
 14 15  2  0
 15 16  1  0
 16 17  2  0
 17 18  1  0
 18 19  1  0
 18 20  2  0
 12 21  1  0
 11 22  1  0
 22 23  1  1
 23 24  1  0
 23 25  2  0
 25 26  1  0
 26 27  1  0
 26 28  1  0
 26 29  1  0
 30 29  1  1
 30 31  1  0
 31 32  2  0
  9  3  1  0
 32 10  1  0
 21  8  1  0
 30 22  1  0
 20 14  1  0
M  CHG  1  29   1
M  END
>  <Compound_ID>  (205) 
C28823565

>  <Active>  (205) 
0

>  <Smiles>  (205) 
COc1c(O)ccc2c1C1=C(/C(=C/c3cccc(C)n3)O2)[C@H]2C(C)=CC(C)(C)[NH2+][C@H]2C=C1

>  <canonical_smi>  (205) 
COc1c(O)ccc2c1C1=C(/C(=C/c3cccc(C)n3)O2)[C@H]2C(C)=CC(C)(C)[NH2+][C@H]2C=C1

>  <Set>  (205) 
G2 inactive

>  <Set_type>  (205) 
Train

>  <MW>  (205) 
429.54

>  <HBD>  (205) 
2

>  <HBA>  (205) 
4

>  <NRB>  (205) 
2

>  <NR>  (205) 
5

>  <NAR>  (205) 
2

>  <PSA>  (205) 
68.19

>  <Standard Type>  (205) 
nan

>  <Standard Relation>  (205) 
nan

>  <Standard Units>  (205) 
nan

>  <Standard Value>  (205) 
nan

>  <Assay ChEMBL ID>  (205) 
nan

>  <Assay Description>  (205) 
nan

>  <BAO Label>  (205) 
nan

$$$$

     RDKit          2D

 28 32  0  0  0  0  0  0  0  0999 V2000
   -8.3838   -0.0613    0.0000 C   0  0  0  0  0  0  0  0  0  0  0  0
   -7.3418   -1.1403    0.0000 C   0  0  0  0  0  0  0  0  0  0  0  0
   -8.5854   -1.9791    0.0000 C   0  0  0  0  0  0  0  0  0  0  0  0
   -6.7317   -2.5106    0.0000 C   0  0  0  0  0  0  0  0  0  0  0  0
   -5.2399   -2.6674    0.0000 C   0  0  0  0  0  0  0  0  0  0  0  0
   -4.3582   -1.4539    0.0000 C   0  0  0  0  0  0  0  0  0  0  0  0
   -4.9684   -0.0836    0.0000 C   0  0  0  0  0  0  0  0  0  0  0  0
   -4.0867    1.1300    0.0000 C   0  0  0  0  0  0  0  0  0  0  0  0
   -3.5980   -0.6937    0.0000 C   0  0  0  0  0  0  0  0  0  0  0  0
   -3.7548   -2.1855    0.0000 N   0  0  0  0  0  4  0  0  0  0  0  0
   -2.6401   -3.1891    0.0000 C   0  0  0  0  0  0  0  0  0  0  0  0
   -1.2135   -2.7256    0.0000 C   0  0  0  0  0  0  0  0  0  0  0  0
   -0.0000   -3.6073    0.0000 C   0  0  0  0  0  0  0  0  0  0  0  0
   -0.0000   -5.1073    0.0000 C   0  0  0  0  0  0  0  0  0  0  0  0
   -1.2990   -5.8573    0.0000 C   0  0  0  0  0  0  0  0  0  0  0  0
   -1.2990   -7.3573    0.0000 C   0  0  0  0  0  0  0  0  0  0  0  0
   -0.0000   -8.1073    0.0000 N   0  0  0  0  0  0  0  0  0  0  0  0
    1.2990   -7.3573    0.0000 C   0  0  0  0  0  0  0  0  0  0  0  0
    1.2990   -5.8573    0.0000 C   0  0  0  0  0  0  0  0  0  0  0  0
    1.2135   -2.7256    0.0000 N   0  0  0  0  0  0  0  0  0  0  0  0
    0.7500   -1.2990    0.0000 C   0  0  0  0  0  0  0  0  0  0  0  0
    1.5000    0.0000    0.0000 C   0  0  0  0  0  0  0  0  0  0  0  0
    0.7500    1.2990    0.0000 C   0  0  0  0  0  0  0  0  0  0  0  0
   -0.7500    1.2990    0.0000 C   0  0  0  0  0  0  0  0  0  0  0  0
   -1.5000    2.5981    0.0000 N   0  0  0  0  0  0  0  0  0  0  0  0
   -1.5000    0.0000    0.0000 C   0  0  0  0  0  0  0  0  0  0  0  0
   -0.7500   -1.2990    0.0000 N   0  0  0  0  0  0  0  0  0  0  0  0
   -6.4601    0.0732    0.0000 C   0  0  0  0  0  0  0  0  0  0  0  0
  1  2  1  0
  2  3  1  0
  2  4  1  0
  5  4  1  1
  5  6  1  0
  6  7  1  0
  7  8  1  6
  7  9  1  0
  9 10  1  0
 10 11  1  0
 11 12  1  0
 12 13  2  0
 13 14  1  0
 14 15  2  0
 15 16  1  0
 16 17  2  0
 17 18  1  0
 18 19  2  0
 13 20  1  0
 20 21  2  0
 21 22  1  0
 22 23  2  0
 23 24  1  0
 24 25  1  0
 24 26  2  0
 26 27  1  0
  7 28  1  0
 28  2  1  0
 10  5  1  0
 27 12  1  0
 19 14  1  0
 27 21  1  0
M  CHG  1  10   1
M  END
>  <Compound_ID>  (206) 
C36278220

>  <Active>  (206) 
0

>  <Smiles>  (206) 
CC1(C)C[C@H]2C[C@](C)(C[NH+]2Cc2c(-c3ccncc3)nc3ccc(N)cn23)C1

>  <canonical_smi>  (206) 
CC1(C)C[C@H]2C[C@](C)(C[NH+]2Cc2c(-c3ccncc3)nc3ccc(N)cn23)C1

>  <Set>  (206) 
G2 inactive

>  <Set_type>  (206) 
Train

>  <MW>  (206) 
376.53

>  <HBD>  (206) 
2

>  <HBA>  (206) 
3

>  <NRB>  (206) 
3

>  <NR>  (206) 
5

>  <NAR>  (206) 
3

>  <PSA>  (206) 
60.65

>  <Standard Type>  (206) 
nan

>  <Standard Relation>  (206) 
nan

>  <Standard Units>  (206) 
nan

>  <Standard Value>  (206) 
nan

>  <Assay ChEMBL ID>  (206) 
nan

>  <Assay Description>  (206) 
nan

>  <BAO Label>  (206) 
nan

$$$$

     RDKit          2D

 20 22  0  0  0  0  0  0  0  0999 V2000
    5.0369   -3.3768    0.0000 N   0  0  0  0  0  4  0  0  0  0  0  0
    4.6740   -4.8322    0.0000 C   0  0  0  0  0  0  0  0  0  0  0  0
    3.3037   -4.2221    0.0000 C   0  0  0  0  0  0  0  0  0  0  0  0
    2.0046   -4.9721    0.0000 N   0  0  0  0  0  0  0  0  0  0  0  0
    0.8899   -3.9684    0.0000 O   0  0  0  0  0  0  0  0  0  0  0  0
    1.5000   -2.5981    0.0000 C   0  0  0  0  0  0  0  0  0  0  0  0
    0.7500   -1.2990    0.0000 C   0  0  0  0  0  0  0  0  0  0  0  0
    1.5000    0.0000    0.0000 C   0  0  0  0  0  0  0  0  0  0  0  0
    0.7500    1.2990    0.0000 C   0  0  0  0  0  0  0  0  0  0  0  0
    1.5000    2.5981    0.0000 Br  0  0  0  0  0  0  0  0  0  0  0  0
   -0.7500    1.2990    0.0000 C   0  0  0  0  0  0  0  0  0  0  0  0
   -1.5000    0.0000    0.0000 C   0  0  0  0  0  0  0  0  0  0  0  0
   -0.7500   -1.2990    0.0000 C   0  0  0  0  0  0  0  0  0  0  0  0
   -1.5000   -2.5981    0.0000 Cl  0  0  0  0  0  0  0  0  0  0  0  0
    2.9918   -2.7549    0.0000 N   0  0  0  0  0  0  0  0  0  0  0  0
    3.8352   -6.0758    0.0000 C   0  0  0  0  0  0  0  0  0  0  0  0
    4.4927   -7.4239    0.0000 C   0  0  0  0  0  0  0  0  0  0  0  0
    5.9891   -7.5286    0.0000 C   0  0  0  0  0  0  0  0  0  0  0  0
    6.8279   -6.2850    0.0000 C   0  0  0  0  0  0  0  0  0  0  0  0
    6.1703   -4.9368    0.0000 C   0  0  0  0  0  0  0  0  0  0  0  0
  1  2  1  0
  2  3  1  0
  3  4  2  0
  4  5  1  0
  5  6  1  0
  6  7  1  0
  7  8  2  0
  8  9  1  0
  9 10  1  0
  9 11  2  0
 11 12  1  0
 12 13  2  0
 13 14  1  0
  6 15  2  0
  2 16  1  0
 16 17  1  0
 17 18  1  0
 18 19  1  0
 19 20  1  0
 20  2  1  0
 15  3  1  0
 13  7  1  0
M  CHG  1   1   1
M  END
>  <Compound_ID>  (207) 
C41153293

>  <Active>  (207) 
0

>  <Smiles>  (207) 
[NH3+]C1(c2noc(-c3cc(Br)ccc3Cl)n2)CCCCC1

>  <canonical_smi>  (207) 
[NH3+]C1(c2noc(-c3cc(Br)ccc3Cl)n2)CCCCC1

>  <Set>  (207) 
G2 inactive

>  <Set_type>  (207) 
Train

>  <MW>  (207) 
357.66

>  <HBD>  (207) 
1

>  <HBA>  (207) 
3

>  <NRB>  (207) 
2

>  <NR>  (207) 
3

>  <NAR>  (207) 
2

>  <PSA>  (207) 
66.56

>  <Standard Type>  (207) 
nan

>  <Standard Relation>  (207) 
nan

>  <Standard Units>  (207) 
nan

>  <Standard Value>  (207) 
nan

>  <Assay ChEMBL ID>  (207) 
nan

>  <Assay Description>  (207) 
nan

>  <BAO Label>  (207) 
nan

$$$$

     RDKit          2D

 26 29  0  0  0  0  0  0  0  0999 V2000
    5.2500    1.2990    0.0000 N   0  0  0  0  0  0  0  0  0  0  0  0
    6.0000   -0.0000    0.0000 C   0  0  0  0  0  0  0  0  0  0  0  0
    5.2500   -1.2990    0.0000 N   0  0  0  0  0  0  0  0  0  0  0  0
    3.7500   -1.2990    0.0000 O   0  0  0  0  0  0  0  0  0  0  0  0
    3.0000   -2.5981    0.0000 C   0  0  0  0  0  0  0  0  0  0  0  0
    3.7500   -3.8971    0.0000 O   0  0  0  0  0  0  0  0  0  0  0  0
    1.5000   -2.5981    0.0000 N   0  0  0  0  0  0  0  0  0  0  0  0
    0.7500   -1.2990    0.0000 C   0  0  0  0  0  0  0  0  0  0  0  0
    1.5000    0.0000    0.0000 C   0  0  0  0  0  0  0  0  0  0  0  0
    0.7500    1.2990    0.0000 C   0  0  0  0  0  0  0  0  0  0  0  0
   -0.7500    1.2990    0.0000 C   0  0  0  0  0  0  0  0  0  0  0  0
   -1.5000    0.0000    0.0000 C   0  0  0  0  0  0  0  0  0  0  0  0
   -0.7500   -1.2990    0.0000 C   0  0  0  0  0  0  0  0  0  0  0  0
   -1.5000   -2.5981    0.0000 S   0  0  0  0  0  0  0  0  0  0  0  0
   -0.7500   -3.8971    0.0000 C   0  0  0  0  0  0  0  0  0  0  0  0
   -1.5000   -5.1962    0.0000 C   0  0  0  0  0  0  0  0  0  0  0  0
   -0.7500   -6.4952    0.0000 C   0  0  0  0  0  0  0  0  0  0  0  0
    0.7500   -6.4952    0.0000 C   0  0  0  0  0  0  0  0  0  0  0  0
    1.5000   -5.1962    0.0000 C   0  0  0  0  0  0  0  0  0  0  0  0
    0.7500   -3.8971    0.0000 C   0  0  0  0  0  0  0  0  0  0  0  0
    7.5000   -0.0000    0.0000 C   0  0  0  0  0  0  0  0  0  0  0  0
    8.2500   -1.2990    0.0000 C   0  0  0  0  0  0  0  0  0  0  0  0
    9.7500   -1.2990    0.0000 C   0  0  0  0  0  0  0  0  0  0  0  0
   10.5000   -0.0000    0.0000 N   0  0  0  0  0  4  0  0  0  0  0  0
    9.7500    1.2990    0.0000 C   0  0  0  0  0  0  0  0  0  0  0  0
    8.2500    1.2990    0.0000 C   0  0  0  0  0  0  0  0  0  0  0  0
  1  2  1  0
  2  3  2  0
  3  4  1  0
  4  5  1  0
  5  6  2  0
  5  7  1  0
  7  8  1  0
  8  9  2  0
  9 10  1  0
 10 11  2  0
 11 12  1  0
 12 13  2  0
 13 14  1  0
 14 15  1  0
 15 16  2  0
 16 17  1  0
 17 18  2  0
 18 19  1  0
 19 20  2  0
  2 21  1  0
 21 22  2  0
 22 23  1  0
 23 24  2  0
 24 25  1  0
 25 26  2  0
 20  7  1  0
 26 21  1  0
 13  8  1  0
 20 15  1  0
M  CHG  1  24   1
M  END
>  <Compound_ID>  (208) 
C04306571

>  <Active>  (208) 
0

>  <Smiles>  (208) 
N/C(=N\OC(=O)N1c2ccccc2Sc2ccccc21)c1cc[nH+]cc1

>  <canonical_smi>  (208) 
N/C(=N\OC(=O)N1c2ccccc2Sc2ccccc21)c1cc[nH+]cc1

>  <Set>  (208) 
G2 inactive

>  <Set_type>  (208) 
Train

>  <MW>  (208) 
363.42

>  <HBD>  (208) 
1

>  <HBA>  (208) 
4

>  <NRB>  (208) 
2

>  <NR>  (208) 
4

>  <NAR>  (208) 
3

>  <PSA>  (208) 
82.06

>  <Standard Type>  (208) 
nan

>  <Standard Relation>  (208) 
nan

>  <Standard Units>  (208) 
nan

>  <Standard Value>  (208) 
nan

>  <Assay ChEMBL ID>  (208) 
nan

>  <Assay Description>  (208) 
nan

>  <BAO Label>  (208) 
nan

$$$$

     RDKit          2D

 21 24  0  0  0  0  0  0  0  0999 V2000
   -0.0000   -5.1073    0.0000 O   0  0  0  0  0  0  0  0  0  0  0  0
   -0.0000   -3.6073    0.0000 C   0  0  0  0  0  0  0  0  0  0  0  0
    1.2135   -2.7256    0.0000 N   0  0  0  0  0  0  0  0  0  0  0  0
    0.7500   -1.2990    0.0000 C   0  0  0  0  0  0  0  0  0  0  0  0
    1.5000    0.0000    0.0000 C   0  0  0  0  0  0  0  0  0  0  0  0
    0.7500    1.2990    0.0000 C   0  0  0  0  0  0  0  0  0  0  0  0
    1.5000    2.5981    0.0000 F   0  0  0  0  0  0  0  0  0  0  0  0
   -0.7500    1.2990    0.0000 C   0  0  0  0  0  0  0  0  0  0  0  0
   -1.5000    2.5981    0.0000 Br  0  0  0  0  0  0  0  0  0  0  0  0
   -1.5000    0.0000    0.0000 C   0  0  0  0  0  0  0  0  0  0  0  0
   -0.7500   -1.2990    0.0000 C   0  0  0  0  0  0  0  0  0  0  0  0
   -1.2135   -2.7256    0.0000 C   0  0  0  0  0  0  0  0  0  0  0  0
   -2.6401   -3.1891    0.0000 N   0  0  0  0  0  0  0  0  0  0  0  0
   -2.9520   -4.6564    0.0000 C   0  0  0  0  0  0  0  0  0  0  0  0
   -1.9483   -5.7711    0.0000 C   0  0  0  0  0  0  0  0  0  0  0  0
   -2.6983   -7.0701    0.0000 C   0  0  0  0  0  0  0  0  0  0  0  0
   -4.1655   -6.7583    0.0000 N   0  0  0  0  0  4  0  0  0  0  0  0
   -5.2802   -7.7620    0.0000 C   0  0  0  0  0  0  0  0  0  0  0  0
   -5.7437   -9.1885    0.0000 C   0  0  0  0  0  0  0  0  0  0  0  0
   -6.7474   -8.0738    0.0000 C   0  0  0  0  0  0  0  0  0  0  0  0
   -4.3223   -5.2665    0.0000 C   0  0  0  0  0  0  0  0  0  0  0  0
  1  2  2  0
  2  3  1  0
  3  4  1  0
  4  5  2  0
  5  6  1  0
  6  7  1  0
  6  8  2  0
  8  9  1  0
  8 10  1  0
 10 11  2  0
 11 12  1  0
 12 13  1  1
 14 13  1  6
 14 15  1  0
 15 16  1  0
 16 17  1  0
 17 18  1  0
 18 19  1  0
 19 20  1  0
 17 21  1  0
 12  2  1  0
 21 14  1  0
 11  4  1  0
 20 18  1  0
M  CHG  1  17   1
M  END
>  <Compound_ID>  (209) 
C44687814

>  <Active>  (209) 
0

>  <Smiles>  (209) 
O=C1Nc2cc(F)c(Br)cc2[C@@H]1N[C@@H]1CC[NH+](C2CC2)C1

>  <canonical_smi>  (209) 
O=C1Nc2cc(F)c(Br)cc2[C@@H]1N[C@@H]1CC[NH+](C2CC2)C1

>  <Set>  (209) 
G2 inactive

>  <Set_type>  (209) 
Train

>  <MW>  (209) 
355.23

>  <HBD>  (209) 
3

>  <HBA>  (209) 
2

>  <NRB>  (209) 
3

>  <NR>  (209) 
4

>  <NAR>  (209) 
1

>  <PSA>  (209) 
45.57

>  <Standard Type>  (209) 
nan

>  <Standard Relation>  (209) 
nan

>  <Standard Units>  (209) 
nan

>  <Standard Value>  (209) 
nan

>  <Assay ChEMBL ID>  (209) 
nan

>  <Assay Description>  (209) 
nan

>  <BAO Label>  (209) 
nan

$$$$

     RDKit          2D

 25 29  0  0  0  0  0  0  0  0999 V2000
    3.0000    0.0000    0.0000 C   0  0  0  0  0  0  0  0  0  0  0  0
    1.5000    0.0000    0.0000 C   0  0  0  0  0  0  0  0  0  0  0  0
    0.7500   -1.2990    0.0000 C   0  0  0  0  0  0  0  0  0  0  0  0
   -0.7500   -1.2990    0.0000 C   0  0  0  0  0  0  0  0  0  0  0  0
   -1.5000    0.0000    0.0000 C   0  0  0  0  0  0  0  0  0  0  0  0
   -0.7500    1.2990    0.0000 C   0  0  0  0  0  0  0  0  0  0  0  0
    0.7500    1.2990    0.0000 C   0  0  0  0  0  0  0  0  0  0  0  0
   -1.5000    2.5981    0.0000 C   0  0  0  0  0  0  0  0  0  0  0  0
   -3.0000    2.5981    0.0000 C   0  0  0  0  0  0  0  0  0  0  0  0
   -3.7500    3.8971    0.0000 C   0  0  0  0  0  0  0  0  0  0  0  0
   -3.0000    5.1962    0.0000 S   0  0  0  0  0  1  0  0  0  0  0  0
   -5.2500    3.8971    0.0000 N   0  0  0  0  0  0  0  0  0  0  0  0
   -6.0000    2.5981    0.0000 C   0  0  0  0  0  0  0  0  0  0  0  0
   -7.5000    2.5981    0.0000 C   0  0  0  0  0  0  0  0  0  0  0  0
   -8.3817    3.8116    0.0000 C   0  0  0  0  0  0  0  0  0  0  0  0
   -9.8083    3.3481    0.0000 N   0  0  0  0  0  4  0  0  0  0  0  0
   -9.8083    1.8481    0.0000 C   0  0  0  0  0  0  0  0  0  0  0  0
  -10.9230    0.8444    0.0000 C   0  0  0  0  0  0  0  0  0  0  0  0
  -10.6111   -0.6228    0.0000 C   0  0  0  0  0  0  0  0  0  0  0  0
   -9.1845   -1.0864    0.0000 C   0  0  0  0  0  0  0  0  0  0  0  0
   -8.0698   -0.0827    0.0000 C   0  0  0  0  0  0  0  0  0  0  0  0
   -8.3817    1.3846    0.0000 C   0  0  0  0  0  0  0  0  0  0  0  0
   -5.2500    1.2990    0.0000 N   0  0  0  0  0  4  0  0  0  0  0  0
   -3.7500    1.2990    0.0000 C   0  0  0  0  0  0  0  0  0  0  0  0
   -3.0000    0.0000    0.0000 O   0  0  0  0  0  0  0  0  0  0  0  0
  1  2  1  0
  2  3  2  0
  3  4  1  0
  4  5  2  0
  5  6  1  0
  6  7  2  0
  6  8  1  0
  8  9  1  0
  9 10  2  0
 10 11  1  0
 10 12  1  0
 12 13  1  0
 13 14  2  0
 14 15  1  0
 15 16  2  0
 16 17  1  0
 17 18  2  0
 18 19  1  0
 19 20  2  0
 20 21  1  0
 21 22  2  0
 13 23  1  0
 23 24  2  0
 24 25  1  0
  7  2  1  0
 24  9  1  0
 25  5  1  0
 22 14  1  0
 22 17  1  0
M  CHG  3  11  -1  16   1  23   1
M  END
>  <Compound_ID>  (210) 
C66396951

>  <Active>  (210) 
0

>  <Smiles>  (210) 
Cc1ccc2c(c1)CC1=C([S-])N/C(=C3\C=[NH+]c4ccccc43)[NH+]=C1O2

>  <canonical_smi>  (210) 
Cc1ccc2c(c1)CC1=C([S-])N/C(=C3\C=[NH+]c4ccccc43)[NH+]=C1O2

>  <Set>  (210) 
G2 inactive

>  <Set_type>  (210) 
Train

>  <MW>  (210) 
346.44

>  <HBD>  (210) 
3

>  <HBA>  (210) 
3

>  <NRB>  (210) 
0

>  <NR>  (210) 
5

>  <NAR>  (210) 
2

>  <PSA>  (210) 
49.2

>  <Standard Type>  (210) 
nan

>  <Standard Relation>  (210) 
nan

>  <Standard Units>  (210) 
nan

>  <Standard Value>  (210) 
nan

>  <Assay ChEMBL ID>  (210) 
nan

>  <Assay Description>  (210) 
nan

>  <BAO Label>  (210) 
nan

$$$$

     RDKit          2D

 35 41  0  0  0  0  0  0  0  0999 V2000
    0.7958   -7.5073    0.0000 O   0  0  0  0  0  0  0  0  0  0  0  0
    1.9105   -6.5036    0.0000 C   0  0  0  0  0  0  0  0  0  0  0  0
    1.7537   -5.0118    0.0000 C   0  0  0  0  0  0  0  0  0  0  0  0
    3.1240   -4.4017    0.0000 C   0  0  0  0  0  0  0  0  0  0  0  0
    4.1277   -5.5164    0.0000 C   0  0  0  0  0  0  0  0  0  0  0  0
    5.6195   -5.3597    0.0000 O   0  0  0  0  0  0  0  0  0  0  0  0
    3.3777   -6.8155    0.0000 N   0  0  0  0  0  0  0  0  0  0  0  0
    3.9878   -8.1858    0.0000 C   0  0  0  0  0  0  0  0  0  0  0  0
    3.1061   -9.3993    0.0000 C   0  0  0  0  0  0  0  0  0  0  0  0
    3.7162  -10.7696    0.0000 C   0  0  0  0  0  0  0  0  0  0  0  0
    5.2080  -10.9264    0.0000 C   0  0  0  0  0  0  0  0  0  0  0  0
    6.0897   -9.7129    0.0000 C   0  0  0  0  0  0  0  0  0  0  0  0
    5.4796   -8.3426    0.0000 C   0  0  0  0  0  0  0  0  0  0  0  0
    2.9672   -2.9099    0.0000 C   0  0  0  0  0  0  0  0  0  0  0  0
    4.0819   -1.9062    0.0000 C   0  0  0  0  0  0  0  0  0  0  0  0
    3.7701   -0.4390    0.0000 O   0  0  0  0  0  0  0  0  0  0  0  0
    5.5085   -2.3698    0.0000 N   0  0  0  0  0  0  0  0  0  0  0  0
    5.9720   -3.7964    0.0000 N   0  0  0  0  0  0  0  0  0  0  0  0
    7.4720   -3.7964    0.0000 N   0  0  0  0  0  0  0  0  0  0  0  0
    7.9356   -2.3698    0.0000 C   0  0  0  0  0  0  0  0  0  0  0  0
    9.3059   -1.7597    0.0000 C   0  0  0  0  0  0  0  0  0  0  0  0
    9.4627   -0.2679    0.0000 C   0  0  0  0  0  0  0  0  0  0  0  0
    8.2492    0.6138    0.0000 C   0  0  0  0  0  0  0  0  0  0  0  0
    6.8788    0.0037    0.0000 C   0  0  0  0  0  0  0  0  0  0  0  0
    6.7220   -1.4881    0.0000 C   0  0  0  0  0  0  0  0  0  0  0  0
    1.5000   -2.5981    0.0000 N   0  0  0  0  0  0  0  0  0  0  0  0
    0.7500   -1.2990    0.0000 C   0  0  0  0  0  0  0  0  0  0  0  0
    1.5000    0.0000    0.0000 C   0  0  0  0  0  0  0  0  0  0  0  0
    0.7500    1.2990    0.0000 C   0  0  0  0  0  0  0  0  0  0  0  0
   -0.7500    1.2990    0.0000 C   0  0  0  0  0  0  0  0  0  0  0  0
   -1.5000    0.0000    0.0000 C   0  0  0  0  0  0  0  0  0  0  0  0
   -0.7500   -1.2990    0.0000 C   0  0  0  0  0  0  0  0  0  0  0  0
   -1.5000   -2.5981    0.0000 C   0  0  0  0  0  0  0  0  0  0  0  0
   -0.7500   -3.8971    0.0000 C   0  0  0  0  0  0  0  0  0  0  0  0
    0.7500   -3.8971    0.0000 C   0  0  0  0  0  0  0  0  0  0  0  0
  1  2  2  0
  3  2  1  1
  3  4  1  0
  4  5  1  1
  5  6  2  0
  5  7  1  0
  7  8  1  0
  8  9  2  0
  9 10  1  0
 10 11  2  0
 11 12  1  0
 12 13  2  0
  4 14  1  0
 14 15  1  1
 15 16  2  0
 15 17  1  0
 17 18  1  0
 18 19  2  0
 19 20  1  0
 20 21  2  0
 21 22  1  0
 22 23  2  0
 23 24  1  0
 24 25  2  0
 14 26  1  0
 26 27  1  0
 27 28  2  0
 28 29  1  0
 29 30  2  0
 30 31  1  0
 31 32  2  0
 32 33  1  0
 33 34  2  0
 35 34  1  6
  7  2  1  0
 13  8  1  0
 25 17  1  0
 35 26  1  0
 35  3  1  0
 25 20  1  0
 32 27  1  0
M  END
>  <Compound_ID>  (211) 
C17861394

>  <Active>  (211) 
0

>  <Smiles>  (211) 
O=C1[C@@H]2[C@H](C(=O)N1c1ccccc1)[C@H](C(=O)n1nnc3ccccc31)N1c3ccccc3C=C[C@@H]21

>  <canonical_smi>  (211) 
O=C1[C@H]2[C@@H](C(=O)N1c1ccccc1)[C@@H]1C=Cc3ccccc3N1[C@H]2C(=O)n1nnc2ccccc21

>  <Set>  (211) 
G2 inactive

>  <Set_type>  (211) 
Train

>  <MW>  (211) 
461.48

>  <HBD>  (211) 
0

>  <HBA>  (211) 
6

>  <NRB>  (211) 
2

>  <NR>  (211) 
7

>  <NAR>  (211) 
4

>  <PSA>  (211) 
88.4

>  <Standard Type>  (211) 
nan

>  <Standard Relation>  (211) 
nan

>  <Standard Units>  (211) 
nan

>  <Standard Value>  (211) 
nan

>  <Assay ChEMBL ID>  (211) 
nan

>  <Assay Description>  (211) 
nan

>  <BAO Label>  (211) 
nan

$$$$

     RDKit          2D

 30 33  0  0  0  0  0  0  0  0999 V2000
   -0.7500   -9.0933    0.0000 C   0  0  0  0  0  0  0  0  0  0  0  0
    0.7500   -9.0933    0.0000 C   0  0  0  0  0  0  0  0  0  0  0  0
    1.5000  -10.3923    0.0000 C   0  0  0  0  0  0  0  0  0  0  0  0
    0.7500  -11.6913    0.0000 C   0  0  0  0  0  0  0  0  0  0  0  0
   -0.0000  -12.9904    0.0000 N   0  0  0  0  0  0  0  0  0  0  0  0
    3.0000  -10.3923    0.0000 C   0  0  0  0  0  0  0  0  0  0  0  0
    3.7500  -11.6913    0.0000 O   0  0  0  0  0  0  0  0  0  0  0  0
    3.7500   -9.0933    0.0000 N   0  0  0  0  0  0  0  0  0  0  0  0
    5.2500   -9.0933    0.0000 C   0  0  0  0  0  0  0  0  0  0  0  0
    3.0000   -7.7942    0.0000 C   0  0  0  0  0  0  0  0  0  0  0  0
    3.7500   -6.4952    0.0000 O   0  0  0  0  0  0  0  0  0  0  0  0
    1.5000   -7.7942    0.0000 C   0  0  0  0  0  0  0  0  0  0  0  0
    0.7500   -6.4952    0.0000 C   0  0  0  0  0  0  0  0  0  0  0  0
    1.5000   -5.1962    0.0000 N   0  0  0  0  0  0  0  0  0  0  0  0
    0.7500   -3.8971    0.0000 N   0  0  0  0  0  0  0  0  0  0  0  0
    1.5000   -2.5981    0.0000 C   0  0  0  0  0  0  0  0  0  0  0  0
    3.0000   -2.5981    0.0000 O   0  0  0  0  0  0  0  0  0  0  0  0
    0.7500   -1.2990    0.0000 C   0  0  0  0  0  0  0  0  0  0  0  0
    1.5000    0.0000    0.0000 C   0  0  0  0  0  0  0  0  0  0  0  0
    0.7500    1.2990    0.0000 C   0  0  0  0  0  0  0  0  0  0  0  0
   -0.7500    1.2990    0.0000 C   0  0  0  0  0  0  0  0  0  0  0  0
   -1.5000    0.0000    0.0000 C   0  0  0  0  0  0  0  0  0  0  0  0
   -3.0000   -0.0000    0.0000 C   0  0  0  0  0  0  0  0  0  0  0  0
   -3.7500    1.2990    0.0000 Br  0  0  0  0  0  0  0  0  0  0  0  0
   -3.7500   -1.2990    0.0000 C   0  0  0  0  0  0  0  0  0  0  0  0
   -3.0000   -2.5981    0.0000 C   0  0  0  0  0  0  0  0  0  0  0  0
   -1.5000   -2.5981    0.0000 C   0  0  0  0  0  0  0  0  0  0  0  0
   -0.7500   -1.2990    0.0000 C   0  0  0  0  0  0  0  0  0  0  0  0
   -0.7500   -3.8971    0.0000 C   0  0  0  0  0  0  0  0  0  0  0  0
   -1.5000   -5.1962    0.0000 O   0  0  0  0  0  0  0  0  0  0  0  0
  1  2  1  0
  2  3  2  0
  3  4  1  0
  4  5  3  0
  3  6  1  0
  6  7  2  0
  6  8  1  0
  8  9  1  0
  8 10  1  0
 10 11  2  0
 10 12  1  0
 12 13  2  0
 13 14  1  0
 14 15  1  0
 15 16  1  0
 16 17  2  0
 16 18  1  0
 18 19  2  0
 19 20  1  0
 20 21  2  0
 21 22  1  0
 22 23  2  0
 23 24  1  0
 23 25  1  0
 25 26  2  0
 26 27  1  0
 27 28  2  0
 27 29  1  0
 29 30  2  0
 12  2  1  0
 29 15  1  0
 28 18  1  0
 28 22  1  0
M  END
>  <Compound_ID>  (212) 
C16693824

>  <Active>  (212) 
0

>  <Smiles>  (212) 
CC1=C(C#N)C(=O)N(C)C(=O)/C1=C\NN1C(=O)c2cccc3c(Br)ccc(c23)C1=O

>  <canonical_smi>  (212) 
CC1=C(C#N)C(=O)N(C)C(=O)/C1=C\NN1C(=O)c2cccc3c(Br)ccc(c23)C1=O

>  <Set>  (212) 
G2 inactive

>  <Set_type>  (212) 
Train

>  <MW>  (212) 
465.26

>  <HBD>  (212) 
1

>  <HBA>  (212) 
6

>  <NRB>  (212) 
2

>  <NR>  (212) 
4

>  <NAR>  (212) 
2

>  <PSA>  (212) 
110.58

>  <Standard Type>  (212) 
nan

>  <Standard Relation>  (212) 
nan

>  <Standard Units>  (212) 
nan

>  <Standard Value>  (212) 
nan

>  <Assay ChEMBL ID>  (212) 
nan

>  <Assay Description>  (212) 
nan

>  <BAO Label>  (212) 
nan

$$$$

     RDKit          2D

 22 23  0  0  0  0  0  0  0  0999 V2000
    3.0000    0.0000    0.0000 C   0  0  0  0  0  0  0  0  0  0  0  0
    1.5000    0.0000    0.0000 C   0  0  0  0  0  0  0  0  0  0  0  0
    0.7500   -1.2990    0.0000 C   0  0  0  0  0  0  0  0  0  0  0  0
   -0.7500   -1.2990    0.0000 C   0  0  0  0  0  0  0  0  0  0  0  0
   -1.5000    0.0000    0.0000 C   0  0  0  0  0  0  0  0  0  0  0  0
   -3.0000    0.0000    0.0000 C   0  0  0  0  0  0  0  0  0  0  0  0
   -3.7500    1.2990    0.0000 C   0  0  0  0  0  0  0  0  0  0  0  0
   -3.0000    2.5981    0.0000 C   0  0  0  0  0  0  0  0  0  0  0  0
   -1.5000    2.5981    0.0000 O   0  0  0  0  0  0  0  0  0  0  0  0
   -3.7500    3.8971    0.0000 N   0  0  0  0  0  0  0  0  0  0  0  0
   -3.0000    5.1962    0.0000 C   0  0  0  0  0  0  0  0  0  0  0  0
   -3.7500    6.4952    0.0000 C   0  0  0  0  0  0  0  0  0  0  0  0
   -3.0000    7.7942    0.0000 C   0  0  0  0  0  0  0  0  0  0  0  0
   -1.5000    7.7942    0.0000 N   0  0  0  0  0  0  0  0  0  0  0  0
   -3.7500    9.0933    0.0000 O   0  0  0  0  0  0  0  0  0  0  0  0
   -5.2500    6.4952    0.0000 C   0  0  0  0  0  0  0  0  0  0  0  0
   -6.0000    5.1962    0.0000 C   0  0  0  0  0  0  0  0  0  0  0  0
   -5.2500    3.8971    0.0000 C   0  0  0  0  0  0  0  0  0  0  0  0
   -6.0000    2.5981    0.0000 C   0  0  0  0  0  0  0  0  0  0  0  0
   -0.7500    1.2990    0.0000 C   0  0  0  0  0  0  0  0  0  0  0  0
    0.7500    1.2990    0.0000 C   0  0  0  0  0  0  0  0  0  0  0  0
    1.5000    2.5981    0.0000 Cl  0  0  0  0  0  0  0  0  0  0  0  0
  1  2  1  0
  2  3  2  0
  3  4  1  0
  4  5  2  0
  5  6  1  0
  6  7  2  0
  7  8  1  0
  8  9  2  0
  8 10  1  0
 10 11  1  0
 11 12  1  0
 12 13  1  1
 13 14  1  0
 13 15  2  0
 12 16  1  0
 16 17  1  0
 17 18  1  0
 18 19  1  1
  5 20  1  0
 20 21  2  0
 21 22  1  0
 21  2  1  0
 18 10  1  0
M  END
>  <Compound_ID>  (213) 
C56017322

>  <Active>  (213) 
0

>  <Smiles>  (213) 
Cc1ccc(/C=C\C(=O)N2C[C@H](C(N)=O)CC[C@@H]2C)cc1Cl

>  <canonical_smi>  (213) 
Cc1ccc(/C=C\C(=O)N2C[C@H](C(N)=O)CC[C@@H]2C)cc1Cl

>  <Set>  (213) 
G2 inactive

>  <Set_type>  (213) 
Train

>  <MW>  (213) 
320.82

>  <HBD>  (213) 
1

>  <HBA>  (213) 
2

>  <NRB>  (213) 
3

>  <NR>  (213) 
2

>  <NAR>  (213) 
1

>  <PSA>  (213) 
63.4

>  <Standard Type>  (213) 
nan

>  <Standard Relation>  (213) 
nan

>  <Standard Units>  (213) 
nan

>  <Standard Value>  (213) 
nan

>  <Assay ChEMBL ID>  (213) 
nan

>  <Assay Description>  (213) 
nan

>  <BAO Label>  (213) 
nan

$$$$

     RDKit          2D

 37 42  0  0  0  0  0  0  0  0999 V2000
    3.7017   -9.4243    0.0000 N   0  0  0  0  0  0  0  0  0  0  0  0
    2.2751   -8.9607    0.0000 C   0  0  0  0  0  0  0  0  0  0  0  0
    0.8486   -8.4972    0.0000 C   0  0  0  0  0  0  0  0  0  0  0  0
   -0.2662   -9.5009    0.0000 C   0  0  0  0  0  0  0  0  0  0  0  0
    0.0457  -10.9681    0.0000 N   0  0  0  0  0  0  0  0  0  0  0  0
   -1.6927   -9.0374    0.0000 O   0  0  0  0  0  0  0  0  0  0  0  0
   -2.0046   -7.5702    0.0000 C   0  0  0  0  0  0  0  0  0  0  0  0
   -3.3037   -6.8202    0.0000 N   0  0  0  0  0  0  0  0  0  0  0  0
   -2.9918   -5.3529    0.0000 N   0  0  0  0  0  4  0  0  0  0  0  0
   -1.5000   -5.1962    0.0000 C   0  0  0  0  0  0  0  0  0  0  0  0
   -0.7500   -3.8971    0.0000 C   0  0  0  0  0  0  0  0  0  0  0  0
    0.7500   -3.8971    0.0000 C   0  0  0  0  0  0  0  0  0  0  0  0
    1.5000   -2.5981    0.0000 C   0  0  0  0  0  0  0  0  0  0  0  0
    0.7500   -1.2990    0.0000 C   0  0  0  0  0  0  0  0  0  0  0  0
    1.5000    0.0000    0.0000 C   0  0  0  0  0  0  0  0  0  0  0  0
    0.7500    1.2990    0.0000 C   0  0  0  0  0  0  0  0  0  0  0  0
   -0.7500    1.2990    0.0000 C   0  0  0  0  0  0  0  0  0  0  0  0
   -1.5000    0.0000    0.0000 C   0  0  0  0  0  0  0  0  0  0  0  0
   -0.7500   -1.2990    0.0000 C   0  0  0  0  0  0  0  0  0  0  0  0
   -1.5000   -2.5981    0.0000 C   0  0  0  0  0  0  0  0  0  0  0  0
   -0.8899   -6.5665    0.0000 C   0  0  0  0  0  0  0  0  0  0  0  0
    0.5367   -7.0300    0.0000 C   0  0  0  0  0  0  0  0  0  0  0  0
    1.6514   -6.0263    0.0000 C   0  0  0  0  0  0  0  0  0  0  0  0
    1.4946   -4.5345    0.0000 C   0  0  0  0  0  0  0  0  0  0  0  0
    2.8649   -3.9244    0.0000 N   0  0  0  0  0  0  0  0  0  0  0  0
    3.1768   -2.4572    0.0000 C   0  0  0  0  0  0  0  0  0  0  0  0
    4.6034   -1.9937    0.0000 C   0  0  0  0  0  0  0  0  0  0  0  0
    4.9153   -0.5264    0.0000 N   0  0  0  0  0  0  0  0  0  0  0  0
    5.7181   -2.9974    0.0000 O   0  0  0  0  0  0  0  0  0  0  0  0
    3.8686   -5.0391    0.0000 N   0  0  0  0  0  0  0  0  0  0  0  0
    3.1186   -6.3382    0.0000 C   0  0  0  0  0  0  0  0  0  0  0  0
    3.7287   -7.7085    0.0000 C   0  0  0  0  0  0  0  0  0  0  0  0
    5.2205   -7.8653    0.0000 C   0  0  0  0  0  0  0  0  0  0  0  0
    5.8306   -9.2356    0.0000 C   0  0  0  0  0  0  0  0  0  0  0  0
    4.9489  -10.4491    0.0000 C   0  0  0  0  0  0  0  0  0  0  0  0
    3.4572  -10.2923    0.0000 C   0  0  0  0  0  0  0  0  0  0  0  0
    2.8471   -8.9220    0.0000 C   0  0  0  0  0  0  0  0  0  0  0  0
  1  2  3  0
  2  3  1  0
  3  4  2  0
  4  5  1  0
  4  6  1  0
  7  6  1  1
  7  8  1  0
  8  9  2  0
  9 10  1  0
 10 11  1  1
 11 12  2  0
 12 13  1  0
 13 14  2  0
 14 15  1  0
 15 16  2  0
 16 17  1  0
 17 18  2  0
 18 19  1  0
 19 20  2  0
 21 10  1  6
 21 22  1  0
 22 23  1  1
 23 24  2  0
 24 25  1  0
 25 26  1  0
 26 27  1  0
 27 28  1  0
 27 29  2  0
 25 30  1  0
 30 31  2  0
 31 32  1  0
 32 33  2  0
 33 34  1  0
 34 35  2  0
 35 36  1  0
 36 37  2  0
 22  3  1  0
 31 23  1  0
 37 32  1  0
 21  7  1  0
 20 11  1  0
 19 14  1  0
M  CHG  1   9   1
M  END
>  <Compound_ID>  (214) 
C39964303

>  <Active>  (214) 
0

>  <Smiles>  (214) 
N#CC1=C(N)O[C@H]2N=[NH+][C@@H](c3ccc4ccccc4c3)[C@@H]2[C@H]1c1cn(CC(N)=O)nc1-c1ccccc1

>  <canonical_smi>  (214) 
N#CC1=C(N)O[C@H]2N=[NH+][C@@H](c3ccc4ccccc4c3)[C@@H]2[C@H]1c1cn(CC(N)=O)nc1-c1ccccc1

>  <Set>  (214) 
G2 inactive

>  <Set_type>  (214) 
Train

>  <MW>  (214) 
490.55

>  <HBD>  (214) 
3

>  <HBA>  (214) 
5

>  <NRB>  (214) 
5

>  <NR>  (214) 
6

>  <NAR>  (214) 
4

>  <PSA>  (214) 
146.28

>  <Standard Type>  (214) 
nan

>  <Standard Relation>  (214) 
nan

>  <Standard Units>  (214) 
nan

>  <Standard Value>  (214) 
nan

>  <Assay ChEMBL ID>  (214) 
nan

>  <Assay Description>  (214) 
nan

>  <BAO Label>  (214) 
nan

$$$$

     RDKit          2D

 31 36  0  0  0  0  0  0  0  0999 V2000
    0.8981   -0.4611    0.0000 C   0  0  0  0  0  0  0  0  0  0  0  0
    0.9205    1.0388    0.0000 C   0  0  0  0  0  0  0  0  0  0  0  0
    0.1576    1.2699    0.0000 C   0  0  0  0  0  0  0  0  0  0  0  0
    2.2306    1.7692    0.0000 C   0  0  0  0  0  0  0  0  0  0  0  0
    3.5183    0.9999    0.0000 C   0  0  0  0  0  0  0  0  0  0  0  0
    4.8284    1.7304    0.0000 C   0  0  0  0  0  0  0  0  0  0  0  0
    4.8508    3.2302    0.0000 C   0  0  0  0  0  0  0  0  0  0  0  0
    3.5632    3.9996    0.0000 C   0  0  0  0  0  0  0  0  0  0  0  0
    2.2531    3.2691    0.0000 C   0  0  0  0  0  0  0  0  0  0  0  0
    3.8969    5.4619    0.0000 C   0  0  0  0  0  0  0  0  0  0  0  0
    4.3818    6.8814    0.0000 N   0  0  0  0  0  0  0  0  0  0  0  0
    3.3949    8.0110    0.0000 C   0  0  0  0  0  0  0  0  0  0  0  0
    3.8797    9.4305    0.0000 N   0  0  0  0  0  0  0  0  0  0  0  0
    1.9231    7.7212    0.0000 N   0  0  0  0  0  0  0  0  0  0  0  0
    1.4383    6.3017    0.0000 C   0  0  0  0  0  0  0  0  0  0  0  0
    0.0590    5.7121    0.0000 N   0  0  0  0  0  4  0  0  0  0  0  0
    0.1935    4.2182    0.0000 C   0  0  0  0  0  0  0  0  0  0  0  0
   -0.8268    3.1186    0.0000 C   0  0  0  0  0  0  0  0  0  0  0  0
   -0.3846    1.6852    0.0000 C   0  0  0  0  0  0  0  0  0  0  0  0
    1.0777    1.3515    0.0000 C   0  0  0  0  0  0  0  0  0  0  0  0
    2.0980    2.4510    0.0000 C   0  0  0  0  0  0  0  0  0  0  0  0
    1.6559    3.8844    0.0000 C   0  0  0  0  0  0  0  0  0  0  0  0
    2.4252    5.1721    0.0000 N   0  0  0  0  0  0  0  0  0  0  0  0
    1.7286    0.0000    0.0000 O   0  0  0  0  0  0  0  0  0  0  0  0
    1.0777   -1.3515    0.0000 C   0  0  0  0  0  0  0  0  0  0  0  0
   -0.3846   -1.6852    0.0000 C   0  0  0  0  0  0  0  0  0  0  0  0
   -1.5574   -0.7500    0.0000 C   0  0  0  0  0  0  0  0  0  0  0  0
   -1.5574    0.7500    0.0000 O   0  0  0  0  0  0  0  0  0  0  0  0
    5.3909    5.5964    0.0000 C   0  0  0  0  0  0  0  0  0  0  0  0
    6.1603    6.8841    0.0000 O   0  0  0  0  0  0  0  0  0  0  0  0
    5.9804    4.2171    0.0000 N   0  0  0  0  0  0  0  0  0  0  0  0
  1  2  1  0
  2  3  1  0
  2  4  1  0
  4  5  2  0
  5  6  1  0
  6  7  2  0
  7  8  1  0
  8  9  2  0
  8 10  1  0
 10 11  1  1
 11 12  1  0
 12 13  1  0
 12 14  2  0
 14 15  1  0
 15 16  2  0
 16 17  1  0
 17 18  2  0
 18 19  1  0
 19 20  2  0
 20 21  1  0
 21 22  2  0
 22 23  1  0
 20 24  1  0
 24 25  1  0
 25 26  1  0
 26 27  1  0
 27 28  1  0
 10 29  1  0
 29 30  2  0
 29 31  1  0
  9  4  1  0
 23 10  1  0
 31  7  1  0
 23 15  1  0
 22 17  1  0
 28 19  1  0
M  CHG  1  16   1
M  END
>  <Compound_ID>  (215) 
C57944911

>  <Active>  (215) 
0

>  <Smiles>  (215) 
CC(C)c1ccc2c(c1)[C@@]1(NC(N)=Nc3[nH+]c4cc5c(cc4n31)OCCCO5)C(=O)N2

>  <canonical_smi>  (215) 
CC(C)c1ccc2c(c1)[C@@]1(NC(N)=Nc3[nH+]c4cc5c(cc4n31)OCCCO5)C(=O)N2

>  <Set>  (215) 
G2 inactive

>  <Set_type>  (215) 
Train

>  <MW>  (215) 
419.47

>  <HBD>  (215) 
3

>  <HBA>  (215) 
5

>  <NRB>  (215) 
1

>  <NR>  (215) 
6

>  <NAR>  (215) 
3

>  <PSA>  (215) 
117.04

>  <Standard Type>  (215) 
nan

>  <Standard Relation>  (215) 
nan

>  <Standard Units>  (215) 
nan

>  <Standard Value>  (215) 
nan

>  <Assay ChEMBL ID>  (215) 
nan

>  <Assay Description>  (215) 
nan

>  <BAO Label>  (215) 
nan

$$$$

     RDKit          2D

 25 28  0  0  0  0  0  0  0  0999 V2000
    3.0000    0.0000    0.0000 C   0  0  0  0  0  0  0  0  0  0  0  0
    1.5000    0.0000    0.0000 C   0  0  0  0  0  0  0  0  0  0  0  0
    0.7500   -1.2990    0.0000 C   0  0  0  0  0  0  0  0  0  0  0  0
   -0.7500   -1.2990    0.0000 C   0  0  0  0  0  0  0  0  0  0  0  0
   -1.5000    0.0000    0.0000 C   0  0  0  0  0  0  0  0  0  0  0  0
   -2.9672    0.3119    0.0000 C   0  0  0  0  0  0  0  0  0  0  0  0
   -4.0819   -0.6918    0.0000 C   0  0  0  0  0  0  0  0  0  0  0  0
   -3.1240    1.8037    0.0000 C   0  0  0  0  0  0  0  0  0  0  0  0
   -4.4231    2.5537    0.0000 C   0  0  0  0  0  0  0  0  0  0  0  0
   -5.7221    1.8037    0.0000 O   0  0  0  0  0  0  0  0  0  0  0  0
   -4.4231    4.0537    0.0000 N   0  0  0  0  0  0  0  0  0  0  0  0
   -5.7221    4.8037    0.0000 C   0  0  0  0  0  0  0  0  0  0  0  0
   -7.0924    4.1935    0.0000 O   0  0  0  0  0  0  0  0  0  0  0  0
   -8.0961    5.3083    0.0000 N   0  0  0  0  0  0  0  0  0  0  0  0
   -7.3461    6.6073    0.0000 C   0  0  0  0  0  0  0  0  0  0  0  0
   -5.8789    6.2954    0.0000 C   0  0  0  0  0  0  0  0  0  0  0  0
   -4.8752    7.4102    0.0000 C   0  0  0  0  0  0  0  0  0  0  0  0
   -5.3387    8.8367    0.0000 C   0  0  0  0  0  0  0  0  0  0  0  0
   -4.3350    9.9515    0.0000 C   0  0  0  0  0  0  0  0  0  0  0  0
   -6.8059    9.1486    0.0000 C   0  0  0  0  0  0  0  0  0  0  0  0
   -7.8096    8.0339    0.0000 C   0  0  0  0  0  0  0  0  0  0  0  0
   -1.7537    2.4138    0.0000 O   0  0  0  0  0  0  0  0  0  0  0  0
   -0.7500    1.2990    0.0000 C   0  0  0  0  0  0  0  0  0  0  0  0
    0.7500    1.2990    0.0000 C   0  0  0  0  0  0  0  0  0  0  0  0
    1.5000    2.5981    0.0000 C   0  0  0  0  0  0  0  0  0  0  0  0
  1  2  1  0
  2  3  2  0
  3  4  1  0
  4  5  2  0
  5  6  1  0
  6  7  1  0
  6  8  2  0
  8  9  1  0
  9 10  2  0
  9 11  1  0
 11 12  1  0
 12 13  1  0
 13 14  1  0
 14 15  2  0
 15 16  1  0
 16 17  1  0
 17 18  1  0
 18 19  1  1
 18 20  1  0
 20 21  1  0
  8 22  1  0
 22 23  1  0
 23 24  2  0
 24 25  1  0
 24  2  1  0
 23  5  1  0
 16 12  2  0
 21 15  1  0
M  END
>  <Compound_ID>  (216) 
C27794555

>  <Active>  (216) 
0

>  <Smiles>  (216) 
Cc1ccc2c(C)c(C(=O)Nc3onc4c3C[C@H](C)CC4)oc2c1C

>  <canonical_smi>  (216) 
Cc1ccc2c(C)c(C(=O)Nc3onc4c3C[C@H](C)CC4)oc2c1C

>  <Set>  (216) 
G2 inactive

>  <Set_type>  (216) 
Train

>  <MW>  (216) 
338.41

>  <HBD>  (216) 
1

>  <HBA>  (216) 
4

>  <NRB>  (216) 
2

>  <NR>  (216) 
4

>  <NAR>  (216) 
3

>  <PSA>  (216) 
68.27

>  <Standard Type>  (216) 
nan

>  <Standard Relation>  (216) 
nan

>  <Standard Units>  (216) 
nan

>  <Standard Value>  (216) 
nan

>  <Assay ChEMBL ID>  (216) 
nan

>  <Assay Description>  (216) 
nan

>  <BAO Label>  (216) 
nan

$$$$

     RDKit          2D

 23 26  0  0  0  0  0  0  0  0999 V2000
   -0.4019    8.1073    0.0000 C   0  0  0  0  0  0  0  0  0  0  0  0
   -1.7010    7.3573    0.0000 C   0  0  0  0  0  0  0  0  0  0  0  0
   -1.7010    5.8573    0.0000 C   0  0  0  0  0  0  0  0  0  0  0  0
   -3.0000    5.1073    0.0000 C   0  0  0  0  0  0  0  0  0  0  0  0
   -3.0000    3.6073    0.0000 C   0  0  0  0  0  0  0  0  0  0  0  0
   -1.7865    2.7256    0.0000 N   0  0  0  0  0  0  0  0  0  0  0  0
   -2.2500    1.2990    0.0000 C   0  0  0  0  0  0  0  0  0  0  0  0
   -3.7500    1.2990    0.0000 C   0  0  0  0  0  0  0  0  0  0  0  0
   -4.2135    2.7256    0.0000 O   0  0  0  0  0  0  0  0  0  0  0  0
   -4.5000    0.0000    0.0000 N   0  0  0  0  0  0  0  0  0  0  0  0
   -3.7500   -1.2990    0.0000 C   0  0  0  0  0  0  0  0  0  0  0  0
   -4.5000   -2.5981    0.0000 N   0  0  0  0  0  0  0  0  0  0  0  0
   -2.2500   -1.2990    0.0000 C   0  0  0  0  0  0  0  0  0  0  0  0
   -1.5000   -2.5981    0.0000 C   0  0  0  0  0  0  0  0  0  0  0  0
   -0.7500   -3.8971    0.0000 N   0  0  0  0  0  0  0  0  0  0  0  0
   -1.5000    0.0000    0.0000 C   0  0  0  0  0  0  0  0  0  0  0  0
   -0.7500   -1.2990    0.0000 C   0  0  0  0  0  0  0  0  0  0  0  0
    0.7500   -1.2990    0.0000 N   0  0  0  0  0  4  0  0  0  0  0  0
    1.5000    0.0000    0.0000 C   0  0  0  0  0  0  0  0  0  0  0  0
    0.7500    1.2990    0.0000 C   0  0  0  0  0  0  0  0  0  0  0  0
   -0.7500    1.2990    0.0000 C   0  0  0  0  0  0  0  0  0  0  0  0
   -0.8000    0.0000    0.0000 C   0  0  0  0  0  0  0  0  0  0  0  0
   -0.4000   -0.6928    0.0000 C   0  0  0  0  0  0  0  0  0  0  0  0
  1  2  1  0
  2  3  1  0
  3  4  1  0
  4  5  1  0
  5  6  2  0
  6  7  1  0
  7  8  2  0
  8  9  1  0
  8 10  1  0
 10 11  1  0
 11 12  1  0
 11 13  2  0
 13 14  1  0
 14 15  3  0
 16 13  1  1
 16 17  1  0
 17 18  1  0
 18 19  1  0
 19 20  1  0
 20 21  1  0
 21 22  1  0
 22 23  1  0
  9  5  1  0
 21 16  1  0
 16  7  1  0
 23 18  1  0
M  CHG  1  18   1
M  END
>  <Compound_ID>  (217) 
C12410971

>  <Active>  (217) 
0

>  <Smiles>  (217) 
CCCCc1nc2c(o1)NC(N)=C(C#N)[C@@]21C[NH+]2CCC1CC2

>  <canonical_smi>  (217) 
CCCCc1nc2c(o1)NC(N)=C(C#N)[C@@]21C[NH+]2CCC1CC2

>  <Set>  (217) 
G2 inactive

>  <Set_type>  (217) 
Train

>  <MW>  (217) 
314.41

>  <HBD>  (217) 
3

>  <HBA>  (217) 
5

>  <NRB>  (217) 
3

>  <NR>  (217) 
5

>  <NAR>  (217) 
1

>  <PSA>  (217) 
92.31

>  <Standard Type>  (217) 
nan

>  <Standard Relation>  (217) 
nan

>  <Standard Units>  (217) 
nan

>  <Standard Value>  (217) 
nan

>  <Assay ChEMBL ID>  (217) 
nan

>  <Assay Description>  (217) 
nan

>  <BAO Label>  (217) 
nan

$$$$

     RDKit          2D

 21 22  0  0  0  0  0  0  0  0999 V2000
    3.0000    0.0000    0.0000 C   0  0  0  0  0  0  0  0  0  0  0  0
    1.5000    0.0000    0.0000 C   0  0  0  0  0  0  0  0  0  0  0  0
    0.7500   -1.2990    0.0000 C   0  0  0  0  0  0  0  0  0  0  0  0
   -0.7500   -1.2990    0.0000 C   0  0  0  0  0  0  0  0  0  0  0  0
   -1.5000    0.0000    0.0000 C   0  0  0  0  0  0  0  0  0  0  0  0
   -0.7500    1.2990    0.0000 C   0  0  0  0  0  0  0  0  0  0  0  0
    0.7500    1.2990    0.0000 N   0  0  0  0  0  0  0  0  0  0  0  0
    1.5000    2.5981    0.0000 S   0  0  0  0  0  0  0  0  0  0  0  0
    2.7990    1.8481    0.0000 O   0  0  0  0  0  0  0  0  0  0  0  0
    0.2010    3.3481    0.0000 O   0  0  0  0  0  0  0  0  0  0  0  0
    2.2500    3.8971    0.0000 N   0  0  0  0  0  0  0  0  0  0  0  0
    3.7500    3.8971    0.0000 C   0  0  0  0  0  0  0  0  0  0  0  0
    3.4895    5.3743    0.0000 C   0  0  0  0  0  0  0  0  0  0  0  0
    4.6386    6.3385    0.0000 N   0  0  0  0  0  0  0  0  0  0  0  0
    2.0800    5.8874    0.0000 S   0  0  0  0  0  0  0  0  0  0  0  0
    3.4895    2.4199    0.0000 C   0  0  0  0  0  0  0  0  0  0  0  0
    4.6386    1.4557    0.0000 C   0  0  0  0  0  0  0  0  0  0  0  0
    6.0481    1.9688    0.0000 N   0  0  0  0  0  4  0  0  0  0  0  0
    7.1972    1.0046    0.0000 C   0  0  0  0  0  0  0  0  0  0  0  0
    6.3086    3.4460    0.0000 C   0  0  0  0  0  0  0  0  0  0  0  0
    5.1595    4.4101    0.0000 C   0  0  0  0  0  0  0  0  0  0  0  0
  2  1  1  1
  2  3  1  0
  3  4  1  0
  4  5  1  0
  5  6  1  0
  6  7  1  0
  7  8  1  0
  8  9  2  0
  8 10  2  0
  8 11  1  0
 11 12  1  0
 12 13  1  0
 13 14  1  0
 13 15  2  0
 12 16  1  0
 16 17  1  0
 17 18  1  0
 18 19  1  0
 18 20  1  0
 20 21  1  0
  7  2  1  0
 21 12  1  0
M  CHG  1  18   1
M  END
>  <Compound_ID>  (218) 
C40366444

>  <Active>  (218) 
0

>  <Smiles>  (218) 
C[C@H]1CCCCN1S(=O)(=O)NC1(C(N)=S)CC[NH+](C)CC1

>  <canonical_smi>  (218) 
C[C@H]1CCCCN1S(=O)(=O)NC1(C(N)=S)CC[NH+](C)CC1

>  <Set>  (218) 
G2 inactive

>  <Set_type>  (218) 
Train

>  <MW>  (218) 
335.52

>  <HBD>  (218) 
3

>  <HBA>  (218) 
4

>  <NRB>  (218) 
4

>  <NR>  (218) 
2

>  <NAR>  (218) 
0

>  <PSA>  (218) 
79.87

>  <Standard Type>  (218) 
nan

>  <Standard Relation>  (218) 
nan

>  <Standard Units>  (218) 
nan

>  <Standard Value>  (218) 
nan

>  <Assay ChEMBL ID>  (218) 
nan

>  <Assay Description>  (218) 
nan

>  <BAO Label>  (218) 
nan

$$$$

     RDKit          2D

 16 16  0  0  0  0  0  0  0  0999 V2000
    3.7500   -1.2990    0.0000 C   0  0  0  0  0  0  0  0  0  0  0  0
    3.0000    0.0000    0.0000 O   0  0  0  0  0  0  0  0  0  0  0  0
    1.5000    0.0000    0.0000 C   0  0  0  0  0  0  0  0  0  0  0  0
    0.7500   -1.2990    0.0000 C   0  0  0  0  0  0  0  0  0  0  0  0
    1.5000   -2.5981    0.0000 Br  0  0  0  0  0  0  0  0  0  0  0  0
   -0.7500   -1.2990    0.0000 C   0  0  0  0  0  0  0  0  0  0  0  0
   -1.5000    0.0000    0.0000 C   0  0  0  0  0  0  0  0  0  0  0  0
   -3.0000    0.0000    0.0000 C   0  0  0  0  0  0  0  0  0  0  0  0
   -3.7500   -1.2990    0.0000 N   0  0  0  0  0  4  0  0  0  0  0  0
   -3.7500    1.2990    0.0000 C   0  0  0  0  0  0  0  0  0  0  0  0
   -5.2500    1.2990    0.0000 C   0  0  0  0  0  0  0  0  0  0  0  0
   -6.0000    2.5981    0.0000 O   0  0  0  0  0  0  0  0  0  0  0  0
   -0.7500    1.2990    0.0000 C   0  0  0  0  0  0  0  0  0  0  0  0
   -1.5000    2.5981    0.0000 O   0  0  0  0  0  0  0  0  0  0  0  0
    0.7500    1.2990    0.0000 C   0  0  0  0  0  0  0  0  0  0  0  0
    1.5000    2.5981    0.0000 Br  0  0  0  0  0  0  0  0  0  0  0  0
  1  2  1  0
  2  3  1  0
  3  4  2  0
  4  5  1  0
  4  6  1  0
  6  7  2  0
  7  8  1  0
  8  9  1  6
  8 10  1  0
 10 11  1  0
 11 12  1  0
  7 13  1  0
 13 14  1  0
 13 15  2  0
 15 16  1  0
 15  3  1  0
M  CHG  1   9   1
M  END
>  <Compound_ID>  (219) 
C44234152

>  <Active>  (219) 
0

>  <Smiles>  (219) 
COc1c(Br)cc([C@H]([NH3+])CCO)c(O)c1Br

>  <canonical_smi>  (219) 
COc1c(Br)cc([C@H]([NH3+])CCO)c(O)c1Br

>  <Set>  (219) 
G2 inactive

>  <Set_type>  (219) 
Train

>  <MW>  (219) 
356.03

>  <HBD>  (219) 
3

>  <HBA>  (219) 
3

>  <NRB>  (219) 
4

>  <NR>  (219) 
1

>  <NAR>  (219) 
1

>  <PSA>  (219) 
77.33

>  <Standard Type>  (219) 
nan

>  <Standard Relation>  (219) 
nan

>  <Standard Units>  (219) 
nan

>  <Standard Value>  (219) 
nan

>  <Assay ChEMBL ID>  (219) 
nan

>  <Assay Description>  (219) 
nan

>  <BAO Label>  (219) 
nan

$$$$

     RDKit          2D

 18 20  0  0  0  0  0  0  0  0999 V2000
    2.6401   -3.1891    0.0000 C   0  0  0  0  0  0  0  0  0  0  0  0
    1.2135   -2.7256    0.0000 N   0  0  0  0  0  0  0  0  0  0  0  0
    0.7500   -1.2990    0.0000 C   0  0  0  0  0  0  0  0  0  0  0  0
    1.5000    0.0000    0.0000 C   0  0  0  0  0  0  0  0  0  0  0  0
    0.7500    1.2990    0.0000 C   0  0  0  0  0  0  0  0  0  0  0  0
   -0.7500    1.2990    0.0000 N   0  0  0  0  0  0  0  0  0  0  0  0
   -1.5000    0.0000    0.0000 C   0  0  0  0  0  0  0  0  0  0  0  0
   -3.0000    0.0000    0.0000 C   0  0  0  0  0  0  0  0  0  0  0  0
   -3.8817   -1.2135    0.0000 N   0  0  0  0  0  0  0  0  0  0  0  0
   -5.3083   -0.7500    0.0000 C   0  0  0  0  0  0  0  0  0  0  0  0
   -6.5218   -1.6317    0.0000 Br  0  0  0  0  0  0  0  0  0  0  0  0
   -5.3083    0.7500    0.0000 C   0  0  0  0  0  0  0  0  0  0  0  0
   -6.5218    1.6317    0.0000 Br  0  0  0  0  0  0  0  0  0  0  0  0
   -3.8817    1.2135    0.0000 C   0  0  0  0  0  0  0  0  0  0  0  0
   -0.7500   -1.2990    0.0000 C   0  0  0  0  0  0  0  0  0  0  0  0
   -1.2135   -2.7256    0.0000 N   0  0  0  0  0  0  0  0  0  0  0  0
   -0.0000   -3.6073    0.0000 C   0  0  0  0  0  0  0  0  0  0  0  0
   -0.0000   -5.1073    0.0000 N   0  0  0  0  0  4  0  0  0  0  0  0
  1  2  1  0
  2  3  1  0
  3  4  2  0
  4  5  1  0
  5  6  2  0
  6  7  1  0
  7  8  1  0
  8  9  2  0
  9 10  1  0
 10 11  1  0
 10 12  2  0
 12 13  1  0
 12 14  1  0
  7 15  2  0
 15 16  1  0
 16 17  1  0
 17 18  1  6
 17  2  1  0
 15  3  1  0
 14  8  1  0
M  CHG  1  18   1
M  END
>  <Compound_ID>  (220) 
C52634774

>  <Active>  (220) 
0

>  <Smiles>  (220) 
CN1c2ccnc(C3=NC(Br)=C(Br)C3)c2N[C@H]1[NH3+]

>  <canonical_smi>  (220) 
CN1c2ccnc(C3=NC(Br)=C(Br)C3)c2N[C@H]1[NH3+]

>  <Set>  (220) 
G2 inactive

>  <Set_type>  (220) 
Train

>  <MW>  (220) 
374.06

>  <HBD>  (220) 
2

>  <HBA>  (220) 
3

>  <NRB>  (220) 
1

>  <NR>  (220) 
3

>  <NAR>  (220) 
1

>  <PSA>  (220) 
68.16

>  <Standard Type>  (220) 
nan

>  <Standard Relation>  (220) 
nan

>  <Standard Units>  (220) 
nan

>  <Standard Value>  (220) 
nan

>  <Assay ChEMBL ID>  (220) 
nan

>  <Assay Description>  (220) 
nan

>  <BAO Label>  (220) 
nan

$$$$

     RDKit          2D

 25 25  0  0  0  0  0  0  0  0999 V2000
    2.1213    1.0607    0.0000 C   0  0  0  0  0  0  0  0  0  0  0  0
    1.0607    0.0000    0.0000 C   0  0  0  0  0  0  0  0  0  0  0  0
    2.1213   -1.0607    0.0000 C   0  0  0  0  0  0  0  0  0  0  0  0
   -0.0000   -1.0607    0.0000 C   0  0  0  0  0  0  0  0  0  0  0  0
   -0.0000   -2.5607    0.0000 C   0  0  0  0  0  0  0  0  0  0  0  0
   -1.2990   -3.3107    0.0000 C   0  0  0  0  0  0  0  0  0  0  0  0
   -2.5981   -2.5607    0.0000 O   0  0  0  0  0  0  0  0  0  0  0  0
   -1.2990   -4.8107    0.0000 N   0  0  0  0  0  0  0  0  0  0  0  0
   -2.5981   -5.5607    0.0000 C   0  0  0  0  0  0  0  0  0  0  0  0
   -3.8971   -4.8107    0.0000 O   0  0  0  0  0  0  0  0  0  0  0  0
   -2.5981   -7.0607    0.0000 C   0  0  0  0  0  0  0  0  0  0  0  0
   -2.5981   -8.5607    0.0000 Cl  0  0  0  0  0  0  0  0  0  0  0  0
   -4.0981   -7.0607    0.0000 Cl  0  0  0  0  0  0  0  0  0  0  0  0
   -1.0981   -7.0607    0.0000 Cl  0  0  0  0  0  0  0  0  0  0  0  0
   -1.0607    0.0000    0.0000 C   0  0  0  0  0  0  0  0  0  0  0  0
    0.0000    1.0607    0.0000 C   0  0  0  0  0  0  0  0  0  0  0  0
    0.0000    2.5607    0.0000 C   0  0  0  0  0  0  0  0  0  0  0  0
   -1.2990    3.3107    0.0000 O   0  0  0  0  0  0  0  0  0  0  0  0
    1.2990    3.3107    0.0000 N   0  0  0  0  0  0  0  0  0  0  0  0
    1.2990    4.8107    0.0000 C   0  0  0  0  0  0  0  0  0  0  0  0
   -0.0000    5.5607    0.0000 O   0  0  0  0  0  0  0  0  0  0  0  0
    2.5981    5.5607    0.0000 C   0  0  0  0  0  0  0  0  0  0  0  0
    3.8971    6.3107    0.0000 Cl  0  0  0  0  0  0  0  0  0  0  0  0
    1.8481    6.8597    0.0000 Cl  0  0  0  0  0  0  0  0  0  0  0  0
    3.3481    4.2616    0.0000 Cl  0  0  0  0  0  0  0  0  0  0  0  0
  1  2  1  0
  2  3  1  0
  2  4  1  0
  4  5  1  6
  5  6  1  0
  6  7  2  0
  6  8  1  0
  8  9  1  0
  9 10  1  1
  9 11  1  0
 11 12  1  0
 11 13  1  0
 11 14  1  0
  4 15  1  0
 15 16  1  0
 16 17  1  1
 17 18  2  0
 17 19  1  0
 19 20  1  0
 20 21  1  6
 20 22  1  0
 22 23  1  0
 22 24  1  0
 22 25  1  0
 16  2  1  0
M  END
>  <Compound_ID>  (221) 
C35181700

>  <Active>  (221) 
0

>  <Smiles>  (221) 
CC1(C)[C@H](CC(=O)N[C@H](O)C(Cl)(Cl)Cl)C[C@H]1C(=O)N[C@H](O)C(Cl)(Cl)Cl

>  <canonical_smi>  (221) 
CC1(C)[C@H](CC(=O)N[C@H](O)C(Cl)(Cl)Cl)C[C@H]1C(=O)N[C@H](O)C(Cl)(Cl)Cl

>  <Set>  (221) 
G2 inactive

>  <Set_type>  (221) 
Train

>  <MW>  (221) 
479.02

>  <HBD>  (221) 
4

>  <HBA>  (221) 
4

>  <NRB>  (221) 
5

>  <NR>  (221) 
1

>  <NAR>  (221) 
0

>  <PSA>  (221) 
98.66

>  <Standard Type>  (221) 
nan

>  <Standard Relation>  (221) 
nan

>  <Standard Units>  (221) 
nan

>  <Standard Value>  (221) 
nan

>  <Assay ChEMBL ID>  (221) 
nan

>  <Assay Description>  (221) 
nan

>  <BAO Label>  (221) 
nan

$$$$

     RDKit          2D

 31 35  0  0  0  0  0  0  0  0999 V2000
   -2.2990    0.0563    0.0000 C   0  0  0  0  0  0  0  0  0  0  0  0
   -3.5980   -0.6937    0.0000 C   0  0  0  0  0  0  0  0  0  0  0  0
   -4.9684   -0.0836    0.0000 N   0  0  0  0  0  0  0  0  0  0  0  0
   -5.9720   -1.1983    0.0000 N   0  0  0  0  0  0  0  0  0  0  0  0
   -5.2220   -2.4973    0.0000 C   0  0  0  0  0  0  0  0  0  0  0  0
   -5.9946   -3.7831    0.0000 O   0  0  0  0  0  0  0  0  0  0  0  0
   -3.7548   -2.1855    0.0000 C   0  0  0  0  0  0  0  0  0  0  0  0
   -2.6401   -3.1891    0.0000 C   0  0  0  0  0  0  0  0  0  0  0  0
   -2.9520   -4.6564    0.0000 C   0  0  0  0  0  0  0  0  0  0  0  0
   -4.3223   -5.2665    0.0000 C   0  0  0  0  0  0  0  0  0  0  0  0
   -5.7031   -4.6804    0.0000 O   0  0  0  0  0  0  0  0  0  0  0  0
   -4.1655   -6.7583    0.0000 N   0  0  0  0  0  0  0  0  0  0  0  0
   -2.6983   -7.0701    0.0000 N   0  0  0  0  0  0  0  0  0  0  0  0
   -1.9483   -5.7711    0.0000 C   0  0  0  0  0  0  0  0  0  0  0  0
   -0.4565   -5.6143    0.0000 C   0  0  0  0  0  0  0  0  0  0  0  0
   -1.2135   -2.7256    0.0000 C   0  0  0  0  0  0  0  0  0  0  0  0
   -0.0000   -3.6073    0.0000 C   0  0  0  0  0  0  0  0  0  0  0  0
    1.2135   -2.7256    0.0000 N   0  0  0  0  0  0  0  0  0  0  0  0
    2.6401   -3.1891    0.0000 C   0  0  0  0  0  0  0  0  0  0  0  0
    2.9520   -4.6564    0.0000 C   0  0  0  0  0  0  0  0  0  0  0  0
    1.8373   -5.6601    0.0000 C   0  0  0  0  0  0  0  0  0  0  0  0
    2.1491   -7.1273    0.0000 C   0  0  0  0  0  0  0  0  0  0  0  0
    3.5757   -7.5908    0.0000 C   0  0  0  0  0  0  0  0  0  0  0  0
    4.6904   -6.5871    0.0000 C   0  0  0  0  0  0  0  0  0  0  0  0
    4.3786   -5.1199    0.0000 C   0  0  0  0  0  0  0  0  0  0  0  0
    0.7500   -1.2990    0.0000 C   0  0  0  0  0  0  0  0  0  0  0  0
    1.5000    0.0000    0.0000 C   0  0  0  0  0  0  0  0  0  0  0  0
    0.7500    1.2990    0.0000 C   0  0  0  0  0  0  0  0  0  0  0  0
   -0.7500    1.2990    0.0000 C   0  0  0  0  0  0  0  0  0  0  0  0
   -1.5000    0.0000    0.0000 C   0  0  0  0  0  0  0  0  0  0  0  0
   -0.7500   -1.2990    0.0000 C   0  0  0  0  0  0  0  0  0  0  0  0
  1  2  1  0
  2  3  2  0
  3  4  1  0
  4  5  1  0
  5  6  1  0
  5  7  2  0
  8  7  1  6
  8  9  1  0
  9 10  1  0
 10 11  1  0
 10 12  2  0
 12 13  1  0
 13 14  1  0
 14 15  1  0
  8 16  1  0
 16 17  2  0
 17 18  1  0
 18 19  1  0
 19 20  1  0
 20 21  2  0
 21 22  1  0
 22 23  2  0
 23 24  1  0
 24 25  2  0
 18 26  1  0
 26 27  2  0
 27 28  1  0
 28 29  2  0
 29 30  1  0
 30 31  2  0
  7  2  1  0
 14  9  2  0
 31 16  1  0
 25 20  1  0
 31 26  1  0
M  END
>  <Compound_ID>  (222) 
C19812047

>  <Active>  (222) 
0

>  <Smiles>  (222) 
Cc1n[nH]c(O)c1[C@@H](c1c(O)n[nH]c1C)c1cn(Cc2ccccc2)c2ccccc12

>  <canonical_smi>  (222) 
Cc1n[nH]c(O)c1[C@@H](c1c(O)n[nH]c1C)c1cn(Cc2ccccc2)c2ccccc12

>  <Set>  (222) 
G2 inactive

>  <Set_type>  (222) 
Train

>  <MW>  (222) 
413.48

>  <HBD>  (222) 
4

>  <HBA>  (222) 
4

>  <NRB>  (222) 
5

>  <NR>  (222) 
5

>  <NAR>  (222) 
5

>  <PSA>  (222) 
102.75

>  <Standard Type>  (222) 
nan

>  <Standard Relation>  (222) 
nan

>  <Standard Units>  (222) 
nan

>  <Standard Value>  (222) 
nan

>  <Assay ChEMBL ID>  (222) 
nan

>  <Assay Description>  (222) 
nan

>  <BAO Label>  (222) 
nan

$$$$

     RDKit          2D

 28 30  0  0  0  0  0  0  0  0999 V2000
    5.2500   -1.2990    0.0000 C   0  0  0  0  0  0  0  0  0  0  0  0
    3.7500   -1.2990    0.0000 C   0  0  0  0  0  0  0  0  0  0  0  0
    3.0000   -2.5981    0.0000 C   0  0  0  0  0  0  0  0  0  0  0  0
    3.0000    0.0000    0.0000 N   0  0  0  0  0  0  0  0  0  0  0  0
    1.5000    0.0000    0.0000 C   0  0  0  0  0  0  0  0  0  0  0  0
    0.7500   -1.2990    0.0000 C   0  0  0  0  0  0  0  0  0  0  0  0
   -0.7500   -1.2990    0.0000 C   0  0  0  0  0  0  0  0  0  0  0  0
   -1.5000   -2.5981    0.0000 C   0  0  0  0  0  0  0  0  0  0  0  0
   -0.8899   -3.9684    0.0000 N   0  0  0  0  0  0  0  0  0  0  0  0
   -2.0046   -4.9721    0.0000 C   0  0  0  0  0  0  0  0  0  0  0  0
   -1.8478   -6.4639    0.0000 S   0  0  0  0  0  0  0  0  0  0  0  0
   -3.0613   -7.3456    0.0000 C   0  0  0  0  0  0  0  0  0  0  0  0
   -2.9046   -8.8373    0.0000 C   0  0  0  0  0  0  0  0  0  0  0  0
   -1.5342   -9.4474    0.0000 O   0  0  0  0  0  0  0  0  0  0  0  0
   -4.1181   -9.7190    0.0000 C   0  0  0  0  0  0  0  0  0  0  0  0
   -3.9613  -11.2108    0.0000 O   0  0  0  0  0  0  0  0  0  0  0  0
   -3.3037   -4.2221    0.0000 N   0  0  0  0  0  0  0  0  0  0  0  0
   -2.9918   -2.7549    0.0000 C   0  0  0  0  0  0  0  0  0  0  0  0
   -3.9955   -1.6402    0.0000 C   0  0  0  0  0  0  0  0  0  0  0  0
   -3.5320   -0.2136    0.0000 C   0  0  0  0  0  0  0  0  0  0  0  0
   -4.5356    0.9012    0.0000 C   0  0  0  0  0  0  0  0  0  0  0  0
   -6.0029    0.5893    0.0000 C   0  0  0  0  0  0  0  0  0  0  0  0
   -7.0066    1.7040    0.0000 F   0  0  0  0  0  0  0  0  0  0  0  0
   -6.4664   -0.8373    0.0000 C   0  0  0  0  0  0  0  0  0  0  0  0
   -5.4627   -1.9520    0.0000 C   0  0  0  0  0  0  0  0  0  0  0  0
   -1.5000    0.0000    0.0000 C   0  0  0  0  0  0  0  0  0  0  0  0
   -0.7500    1.2990    0.0000 C   0  0  0  0  0  0  0  0  0  0  0  0
    0.7500    1.2990    0.0000 N   0  0  0  0  0  0  0  0  0  0  0  0
  1  2  1  0
  2  3  1  0
  2  4  1  0
  4  5  1  0
  5  6  2  0
  6  7  1  0
  7  8  1  0
  8  9  1  0
  9 10  1  0
 10 11  1  0
 11 12  1  0
 12 13  1  0
 13 14  1  6
 13 15  1  0
 15 16  1  0
 10 17  2  0
 17 18  1  0
 18 19  1  0
 19 20  2  0
 20 21  1  0
 21 22  2  0
 22 23  1  0
 22 24  1  0
 24 25  2  0
  7 26  2  0
 26 27  1  0
 27 28  2  0
 28  5  1  0
 18  8  2  0
 25 19  1  0
M  END
>  <Compound_ID>  (223) 
C40863072

>  <Active>  (223) 
0

>  <Smiles>  (223) 
CC(C)Nc1cc(-c2[nH]c(SC[C@H](O)CO)nc2-c2ccc(F)cc2)ccn1

>  <canonical_smi>  (223) 
CC(C)Nc1cc(-c2[nH]c(SC[C@H](O)CO)nc2-c2ccc(F)cc2)ccn1

>  <Set>  (223) 
G2 inactive

>  <Set_type>  (223) 
Train

>  <MW>  (223) 
402.5

>  <HBD>  (223) 
4

>  <HBA>  (223) 
6

>  <NRB>  (223) 
8

>  <NR>  (223) 
3

>  <NAR>  (223) 
3

>  <PSA>  (223) 
94.06

>  <Standard Type>  (223) 
nan

>  <Standard Relation>  (223) 
nan

>  <Standard Units>  (223) 
nan

>  <Standard Value>  (223) 
nan

>  <Assay ChEMBL ID>  (223) 
nan

>  <Assay Description>  (223) 
nan

>  <BAO Label>  (223) 
nan

$$$$

     RDKit          2D

 28 30  0  0  0  0  0  0  0  0999 V2000
   -3.8971   -7.3573    0.0000 O   0  0  0  0  0  0  0  0  0  0  0  0
   -2.5981   -8.1073    0.0000 C   0  0  0  0  0  0  0  0  0  0  0  0
   -1.2990   -7.3573    0.0000 C   0  0  0  0  0  0  0  0  0  0  0  0
   -1.2990   -5.8573    0.0000 N   0  0  0  0  0  0  0  0  0  0  0  0
   -0.0000   -5.1073    0.0000 C   0  0  0  0  0  0  0  0  0  0  0  0
    1.2990   -5.8573    0.0000 O   0  0  0  0  0  0  0  0  0  0  0  0
   -0.0000   -3.6073    0.0000 C   0  0  0  0  0  0  0  0  0  0  0  0
    1.2135   -2.7256    0.0000 S   0  0  0  0  0  0  0  0  0  0  0  0
    0.7500   -1.2990    0.0000 C   0  0  0  0  0  0  0  0  0  0  0  0
    1.5000    0.0000    0.0000 C   0  0  0  0  0  0  0  0  0  0  0  0
    0.7500    1.2990    0.0000 C   0  0  0  0  0  0  0  0  0  0  0  0
   -0.7500    1.2990    0.0000 C   0  0  0  0  0  0  0  0  0  0  0  0
   -1.5000    0.0000    0.0000 C   0  0  0  0  0  0  0  0  0  0  0  0
   -0.7500   -1.2990    0.0000 C   0  0  0  0  0  0  0  0  0  0  0  0
   -1.2135   -2.7256    0.0000 C   0  0  0  0  0  0  0  0  0  0  0  0
   -2.6401   -3.1891    0.0000 Cl  0  0  0  0  0  0  0  0  0  0  0  0
   -2.5981   -9.6073    0.0000 N   0  0  0  0  0  0  0  0  0  0  0  0
   -3.8971  -10.3573    0.0000 N   0  0  0  0  0  0  0  0  0  0  0  0
   -3.8971  -11.8573    0.0000 C   0  0  0  0  0  0  0  0  0  0  0  0
   -2.5981  -12.6073    0.0000 S   0  0  0  0  0  0  0  0  0  0  0  0
   -5.1962  -12.6073    0.0000 N   0  0  0  0  0  0  0  0  0  0  0  0
   -5.1962  -14.1073    0.0000 C   0  0  0  0  0  0  0  0  0  0  0  0
   -6.4952  -14.8573    0.0000 C   0  0  0  0  0  0  0  0  0  0  0  0
   -7.7942  -14.1073    0.0000 C   0  0  0  0  0  0  0  0  0  0  0  0
   -9.0933  -14.8573    0.0000 C   0  0  0  0  0  0  0  0  0  0  0  0
   -9.0933  -16.3573    0.0000 C   0  0  0  0  0  0  0  0  0  0  0  0
   -7.7942  -17.1073    0.0000 C   0  0  0  0  0  0  0  0  0  0  0  0
   -6.4952  -16.3573    0.0000 C   0  0  0  0  0  0  0  0  0  0  0  0
  1  2  2  0
  2  3  1  0
  3  4  1  0
  4  5  1  0
  5  6  2  0
  5  7  1  0
  7  8  1  0
  8  9  1  0
  9 10  2  0
 10 11  1  0
 11 12  2  0
 12 13  1  0
 13 14  2  0
 14 15  1  0
 15 16  1  0
  2 17  1  0
 17 18  1  0
 18 19  1  0
 19 20  2  0
 19 21  1  0
 21 22  1  0
 22 23  1  0
 23 24  2  0
 24 25  1  0
 25 26  2  0
 26 27  1  0
 27 28  2  0
 15  7  2  0
 28 23  1  0
 14  9  1  0
M  END
>  <Compound_ID>  (224) 
C28621225

>  <Active>  (224) 
0

>  <Smiles>  (224) 
O=C(CNC(=O)c1sc2ccccc2c1Cl)NNC(=S)NCc1ccccc1

>  <canonical_smi>  (224) 
O=C(CNC(=O)c1sc2ccccc2c1Cl)NNC(=S)NCc1ccccc1

>  <Set>  (224) 
G2 inactive

>  <Set_type>  (224) 
Train

>  <MW>  (224) 
432.96

>  <HBD>  (224) 
4

>  <HBA>  (224) 
5

>  <NRB>  (224) 
5

>  <NR>  (224) 
3

>  <NAR>  (224) 
3

>  <PSA>  (224) 
82.26

>  <Standard Type>  (224) 
nan

>  <Standard Relation>  (224) 
nan

>  <Standard Units>  (224) 
nan

>  <Standard Value>  (224) 
nan

>  <Assay ChEMBL ID>  (224) 
nan

>  <Assay Description>  (224) 
nan

>  <BAO Label>  (224) 
nan

$$$$

     RDKit          2D

 30 32  0  0  0  0  0  0  0  0999 V2000
    5.2500    1.2990    0.0000 C   0  0  0  0  0  0  0  0  0  0  0  0
    4.5000    0.0000    0.0000 C   0  0  0  0  0  0  0  0  0  0  0  0
    3.0000    0.0000    0.0000 C   0  0  0  0  0  0  0  0  0  0  0  0
    3.0000   -1.5000    0.0000 C   0  0  0  0  0  0  0  0  0  0  0  0
    3.0000    1.5000    0.0000 C   0  0  0  0  0  0  0  0  0  0  0  0
    1.5000    0.0000    0.0000 C   0  0  0  0  0  0  0  0  0  0  0  0
    0.7500   -1.2990    0.0000 C   0  0  0  0  0  0  0  0  0  0  0  0
   -0.7500   -1.2990    0.0000 C   0  0  0  0  0  0  0  0  0  0  0  0
   -1.5000    0.0000    0.0000 C   0  0  0  0  0  0  0  0  0  0  0  0
   -0.7500    1.2990    0.0000 C   0  0  0  0  0  0  0  0  0  0  0  0
   -1.7537    2.4138    0.0000 S   0  0  0  0  0  0  0  0  0  0  0  0
   -3.1240    1.8037    0.0000 C   0  0  0  0  0  0  0  0  0  0  0  0
   -4.4231    2.5537    0.0000 N   0  0  0  0  0  0  0  0  0  0  0  0
   -4.4231    4.0537    0.0000 C   0  0  0  0  0  0  0  0  0  0  0  0
   -3.1240    4.8037    0.0000 O   0  0  0  0  0  0  0  0  0  0  0  0
   -5.7221    4.8037    0.0000 C   0  0  0  0  0  0  0  0  0  0  0  0
   -5.7221    6.3037    0.0000 C   0  0  0  0  0  0  0  0  0  0  0  0
   -7.0211    7.0537    0.0000 C   0  0  0  0  0  0  0  0  0  0  0  0
   -8.3202    6.3037    0.0000 C   0  0  0  0  0  0  0  0  0  0  0  0
   -9.6192    7.0537    0.0000 N   0  0  0  0  0  4  0  0  0  0  0  0
  -10.9182    6.3037    0.0000 O   0  0  0  0  0  0  0  0  0  0  0  0
   -9.6192    8.5537    0.0000 O   0  0  0  0  0  1  0  0  0  0  0  0
   -8.3202    4.8037    0.0000 C   0  0  0  0  0  0  0  0  0  0  0  0
   -9.6192    4.0537    0.0000 C   0  0  0  0  0  0  0  0  0  0  0  0
   -7.0211    4.0537    0.0000 C   0  0  0  0  0  0  0  0  0  0  0  0
   -2.9672    0.3119    0.0000 C   0  0  0  0  0  0  0  0  0  0  0  0
   -4.0819   -0.6918    0.0000 C   0  0  0  0  0  0  0  0  0  0  0  0
   -5.5085   -0.2283    0.0000 N   0  0  0  0  0  0  0  0  0  0  0  0
   -3.7701   -2.1590    0.0000 O   0  0  0  0  0  0  0  0  0  0  0  0
    0.7500    1.2990    0.0000 C   0  0  0  0  0  0  0  0  0  0  0  0
  1  2  1  0
  2  3  1  0
  3  4  1  0
  3  5  1  0
  6  3  1  6
  6  7  1  0
  7  8  1  0
  8  9  1  0
  9 10  2  0
 10 11  1  0
 11 12  1  0
 12 13  1  0
 13 14  1  0
 14 15  2  0
 14 16  1  0
 16 17  2  0
 17 18  1  0
 18 19  2  0
 19 20  1  0
 20 21  2  0
 20 22  1  0
 19 23  1  0
 23 24  1  0
 23 25  2  0
 12 26  2  0
 26 27  1  0
 27 28  1  0
 27 29  2  0
 10 30  1  0
 30  6  1  0
 26  9  1  0
 25 16  1  0
M  CHG  2  20   1  22  -1
M  END
>  <Compound_ID>  (225) 
C01217883

>  <Active>  (225) 
0

>  <Smiles>  (225) 
CCC(C)(C)[C@@H]1CCc2c(sc(NC(=O)c3ccc([N+](=O)[O-])c(C)c3)c2C(N)=O)C1

>  <canonical_smi>  (225) 
CCC(C)(C)[C@@H]1CCc2c(sc(NC(=O)c3ccc([N+](=O)[O-])c(C)c3)c2C(N)=O)C1

>  <Set>  (225) 
G2 inactive

>  <Set_type>  (225) 
Train

>  <MW>  (225) 
429.54

>  <HBD>  (225) 
2

>  <HBA>  (225) 
4

>  <NRB>  (225) 
6

>  <NR>  (225) 
3

>  <NAR>  (225) 
2

>  <PSA>  (225) 
115.33

>  <Standard Type>  (225) 
nan

>  <Standard Relation>  (225) 
nan

>  <Standard Units>  (225) 
nan

>  <Standard Value>  (225) 
nan

>  <Assay ChEMBL ID>  (225) 
nan

>  <Assay Description>  (225) 
nan

>  <BAO Label>  (225) 
nan

$$$$

     RDKit          2D

 32 35  0  0  0  0  0  0  0  0999 V2000
    2.7760    0.0000    0.0000 C   0  0  0  0  0  0  0  0  0  0  0  0
    1.2760    0.0000    0.0000 C   0  0  0  0  0  0  0  0  0  0  0  0
    0.3943    1.2135    0.0000 C   0  0  0  0  0  0  0  0  0  0  0  0
   -1.0323    0.7500    0.0000 C   0  0  0  0  0  0  0  0  0  0  0  0
   -2.2458    1.6317    0.0000 C   0  0  0  0  0  0  0  0  0  0  0  0
   -1.0323   -0.7500    0.0000 C   0  0  0  0  0  0  0  0  0  0  0  0
   -2.2458   -1.6317    0.0000 C   0  0  0  0  0  0  0  0  0  0  0  0
   -3.6161   -1.0216    0.0000 N   0  0  0  0  0  0  0  0  0  0  0  0
   -4.8297   -1.9033    0.0000 N   0  0  0  0  0  0  0  0  0  0  0  0
   -6.2000   -1.2931    0.0000 C   0  0  0  0  0  0  0  0  0  0  0  0
   -7.4135   -2.1748    0.0000 C   0  0  0  0  0  0  0  0  0  0  0  0
   -7.4135   -3.6748    0.0000 N   0  0  0  0  0  0  0  0  0  0  0  0
   -8.8401   -4.1383    0.0000 C   0  0  0  0  0  0  0  0  0  0  0  0
   -9.3036   -5.5649    0.0000 C   0  0  0  0  0  0  0  0  0  0  0  0
   -9.7218   -2.9248    0.0000 C   0  0  0  0  0  0  0  0  0  0  0  0
   -8.8401   -1.7113    0.0000 C   0  0  0  0  0  0  0  0  0  0  0  0
   -9.3036   -0.2847    0.0000 C   0  0  0  0  0  0  0  0  0  0  0  0
   -6.3568    0.1986    0.0000 C   0  0  0  0  0  0  0  0  0  0  0  0
   -7.6558    0.9486    0.0000 N   0  0  0  0  0  0  0  0  0  0  0  0
   -7.3439    2.4159    0.0000 C   0  0  0  0  0  0  0  0  0  0  0  0
   -8.3476    3.5306    0.0000 C   0  0  0  0  0  0  0  0  0  0  0  0
   -5.8522    2.5727    0.0000 C   0  0  0  0  0  0  0  0  0  0  0  0
   -5.2420    1.2023    0.0000 C   0  0  0  0  0  0  0  0  0  0  0  0
   -3.7748    0.8905    0.0000 C   0  0  0  0  0  0  0  0  0  0  0  0
   -2.0890   -3.1235    0.0000 C   0  0  0  0  0  0  0  0  0  0  0  0
   -0.7900   -3.8735    0.0000 N   0  0  0  0  0  0  0  0  0  0  0  0
   -1.1018   -5.3407    0.0000 C   0  0  0  0  0  0  0  0  0  0  0  0
   -0.0982   -6.4554    0.0000 C   0  0  0  0  0  0  0  0  0  0  0  0
   -2.5936   -5.4975    0.0000 C   0  0  0  0  0  0  0  0  0  0  0  0
   -3.2037   -4.1272    0.0000 C   0  0  0  0  0  0  0  0  0  0  0  0
   -4.6710   -3.8153    0.0000 C   0  0  0  0  0  0  0  0  0  0  0  0
    0.3943   -1.2135    0.0000 N   0  0  0  0  0  0  0  0  0  0  0  0
  1  2  1  0
  2  3  2  0
  3  4  1  0
  4  5  1  0
  4  6  2  0
  6  7  1  0
  7  8  2  0
  8  9  1  0
  9 10  2  0
 10 11  1  0
 11 12  1  0
 12 13  1  0
 13 14  1  0
 13 15  2  0
 15 16  1  0
 16 17  1  0
 10 18  1  0
 18 19  1  0
 19 20  1  0
 20 21  1  0
 20 22  2  0
 22 23  1  0
 23 24  1  0
  7 25  1  0
 25 26  1  0
 26 27  1  0
 27 28  1  0
 27 29  2  0
 29 30  1  0
 30 31  1  0
  6 32  1  0
 32  2  1  0
 16 11  2  0
 23 18  2  0
 30 25  2  0
M  END
>  <Compound_ID>  (226) 
C37624837

>  <Active>  (226) 
0

>  <Smiles>  (226) 
Cc1cc(C)c(C(=NN=C(c2[nH]c(C)cc2C)c2[nH]c(C)cc2C)c2[nH]c(C)cc2C)[nH]1

>  <canonical_smi>  (226) 
Cc1cc(C)c(C(=NN=C(c2[nH]c(C)cc2C)c2[nH]c(C)cc2C)c2[nH]c(C)cc2C)[nH]1

>  <Set>  (226) 
G2 inactive

>  <Set_type>  (226) 
Train

>  <MW>  (226) 
428.58

>  <HBD>  (226) 
4

>  <HBA>  (226) 
0

>  <NRB>  (226) 
5

>  <NR>  (226) 
4

>  <NAR>  (226) 
4

>  <PSA>  (226) 
87.88

>  <Standard Type>  (226) 
nan

>  <Standard Relation>  (226) 
nan

>  <Standard Units>  (226) 
nan

>  <Standard Value>  (226) 
nan

>  <Assay ChEMBL ID>  (226) 
nan

>  <Assay Description>  (226) 
nan

>  <BAO Label>  (226) 
nan

$$$$

     RDKit          2D

 34 37  0  0  0  0  0  0  0  0999 V2000
    2.6401   -3.1891    0.0000 C   0  0  0  0  0  0  0  0  0  0  0  0
    1.2135   -2.7256    0.0000 C   0  0  0  0  0  0  0  0  0  0  0  0
   -0.0000   -3.6073    0.0000 C   0  0  0  0  0  0  0  0  0  0  0  0
   -0.0000   -5.1073    0.0000 C   0  0  0  0  0  0  0  0  0  0  0  0
    1.2990   -5.8573    0.0000 O   0  0  0  0  0  0  0  0  0  0  0  0
   -1.2990   -5.8573    0.0000 N   0  0  0  0  0  0  0  0  0  0  0  0
   -1.2990   -7.3573    0.0000 C   0  0  0  0  0  0  0  0  0  0  0  0
   -2.5981   -8.1073    0.0000 C   0  0  0  0  0  0  0  0  0  0  0  0
   -2.5981   -9.6073    0.0000 C   0  0  0  0  0  0  0  0  0  0  0  0
   -3.8971  -10.3573    0.0000 Cl  0  0  0  0  0  0  0  0  0  0  0  0
   -1.2990  -10.3573    0.0000 C   0  0  0  0  0  0  0  0  0  0  0  0
    0.0000   -9.6073    0.0000 C   0  0  0  0  0  0  0  0  0  0  0  0
    0.0000   -8.1073    0.0000 C   0  0  0  0  0  0  0  0  0  0  0  0
    1.2990   -7.3573    0.0000 O   0  0  0  0  0  0  0  0  0  0  0  0
    2.5981   -8.1073    0.0000 C   0  0  0  0  0  0  0  0  0  0  0  0
    2.5981   -9.6073    0.0000 C   0  0  0  0  0  0  0  0  0  0  0  0
    3.8971  -10.3573    0.0000 C   0  0  0  0  0  0  0  0  0  0  0  0
    5.1962   -9.6073    0.0000 C   0  0  0  0  0  0  0  0  0  0  0  0
    5.1962   -8.1073    0.0000 C   0  0  0  0  0  0  0  0  0  0  0  0
    3.8971   -7.3573    0.0000 C   0  0  0  0  0  0  0  0  0  0  0  0
   -1.2135   -2.7256    0.0000 O   0  0  0  0  0  0  0  0  0  0  0  0
   -0.7500   -1.2990    0.0000 C   0  0  0  0  0  0  0  0  0  0  0  0
    0.7500   -1.2990    0.0000 C   0  0  0  0  0  0  0  0  0  0  0  0
    1.5000    0.0000    0.0000 C   0  0  0  0  0  0  0  0  0  0  0  0
    3.0000    0.0000    0.0000 N   0  0  0  0  0  0  0  0  0  0  0  0
    3.7500    1.2990    0.0000 N   0  0  0  0  0  0  0  0  0  0  0  0
    5.2500    1.2990    0.0000 C   0  0  0  0  0  0  0  0  0  0  0  0
    6.0000    2.5981    0.0000 N   0  0  0  0  0  0  0  0  0  0  0  0
    6.0000   -0.0000    0.0000 O   0  0  0  0  0  0  0  0  0  0  0  0
    0.7500    1.2990    0.0000 C   0  0  0  0  0  0  0  0  0  0  0  0
   -0.7500    1.2990    0.0000 C   0  0  0  0  0  0  0  0  0  0  0  0
   -2.1595    1.8121    0.0000 C   0  0  0  0  0  0  0  0  0  0  0  0
   -0.4895    2.7762    0.0000 C   0  0  0  0  0  0  0  0  0  0  0  0
   -1.5000    0.0000    0.0000 C   0  0  0  0  0  0  0  0  0  0  0  0
  1  2  1  0
  2  3  2  0
  3  4  1  0
  4  5  2  0
  4  6  1  0
  6  7  1  0
  7  8  2  0
  8  9  1  0
  9 10  1  0
  9 11  2  0
 11 12  1  0
 12 13  2  0
 13 14  1  0
 14 15  1  0
 15 16  2  0
 16 17  1  0
 17 18  2  0
 18 19  1  0
 19 20  2  0
  3 21  1  0
 21 22  1  0
 22 23  2  0
 23 24  1  0
 24 25  2  0
 25 26  1  0
 26 27  1  0
 27 28  1  0
 27 29  2  0
 24 30  1  0
 30 31  1  0
 31 32  1  0
 31 33  1  0
 31 34  1  0
 23  2  1  0
 13  7  1  0
 20 15  1  0
 34 22  1  0
M  END
>  <Compound_ID>  (227) 
C39856373

>  <Active>  (227) 
0

>  <Smiles>  (227) 
Cc1c(C(=O)Nc2cc(Cl)ccc2Oc2ccccc2)oc2c1/C(=N/NC(N)=O)CC(C)(C)C2

>  <canonical_smi>  (227) 
Cc1c(C(=O)Nc2cc(Cl)ccc2Oc2ccccc2)oc2c1/C(=N/NC(N)=O)CC(C)(C)C2

>  <Set>  (227) 
G2 inactive

>  <Set_type>  (227) 
Train

>  <MW>  (227) 
480.95

>  <HBD>  (227) 
3

>  <HBA>  (227) 
4

>  <NRB>  (227) 
5

>  <NR>  (227) 
4

>  <NAR>  (227) 
3

>  <PSA>  (227) 
118.95

>  <Standard Type>  (227) 
nan

>  <Standard Relation>  (227) 
nan

>  <Standard Units>  (227) 
nan

>  <Standard Value>  (227) 
nan

>  <Assay ChEMBL ID>  (227) 
nan

>  <Assay Description>  (227) 
nan

>  <BAO Label>  (227) 
nan

$$$$

     RDKit          2D

 33 37  0  0  0  0  0  0  0  0999 V2000
    3.0000   -5.1962    0.0000 N   0  0  0  0  0  0  0  0  0  0  0  0
    1.5000   -5.1962    0.0000 C   0  0  0  0  0  0  0  0  0  0  0  0
    0.7500   -6.4952    0.0000 C   0  0  0  0  0  0  0  0  0  0  0  0
    1.5000   -7.7942    0.0000 N   0  0  0  0  0  0  0  0  0  0  0  0
    0.7500   -9.0933    0.0000 C   0  0  0  0  0  0  0  0  0  0  0  0
    1.5000  -10.3923    0.0000 C   0  0  0  0  0  0  0  0  0  0  0  0
    3.0000  -10.3923    0.0000 N   0  0  0  0  0  0  0  0  0  0  0  0
    3.7500  -11.6913    0.0000 C   0  0  0  0  0  0  0  0  0  0  0  0
    3.0000  -12.9904    0.0000 C   0  0  0  0  0  0  0  0  0  0  0  0
    3.7500  -14.2894    0.0000 O   0  0  0  0  0  0  0  0  0  0  0  0
    3.7500   -9.0933    0.0000 C   0  0  0  0  0  0  0  0  0  0  0  0
    3.0000   -7.7942    0.0000 C   0  0  0  0  0  0  0  0  0  0  0  0
   -0.7500   -6.4952    0.0000 C   0  0  0  0  0  0  0  0  0  0  0  0
   -1.5000   -5.1962    0.0000 C   0  0  0  0  0  0  0  0  0  0  0  0
   -3.0000   -5.1962    0.0000 N   0  0  0  0  0  0  0  0  0  0  0  0
   -3.7500   -6.4952    0.0000 C   0  0  0  0  0  0  0  0  0  0  0  0
   -5.2500   -6.4952    0.0000 C   0  0  0  0  0  0  0  0  0  0  0  0
   -6.0000   -7.7942    0.0000 C   0  0  0  0  0  0  0  0  0  0  0  0
   -5.2500   -9.0933    0.0000 C   0  0  0  0  0  0  0  0  0  0  0  0
   -3.7500   -9.0933    0.0000 C   0  0  0  0  0  0  0  0  0  0  0  0
   -3.0000   -7.7942    0.0000 C   0  0  0  0  0  0  0  0  0  0  0  0
   -0.7500   -3.8971    0.0000 C   0  0  0  0  0  0  0  0  0  0  0  0
    0.7500   -3.8971    0.0000 C   0  0  0  0  0  0  0  0  0  0  0  0
    1.5000   -2.5981    0.0000 C   0  0  0  0  0  0  0  0  0  0  0  0
    3.0000   -2.5981    0.0000 O   0  0  0  0  0  0  0  0  0  0  0  0
    0.7500   -1.2990    0.0000 C   0  0  0  0  0  0  0  0  0  0  0  0
    1.5000    0.0000    0.0000 C   0  0  0  0  0  0  0  0  0  0  0  0
    0.7500    1.2990    0.0000 C   0  0  0  0  0  0  0  0  0  0  0  0
   -0.7500    1.2990    0.0000 C   0  0  0  0  0  0  0  0  0  0  0  0
   -1.5000    0.0000    0.0000 C   0  0  0  0  0  0  0  0  0  0  0  0
   -0.7500   -1.2990    0.0000 C   0  0  0  0  0  0  0  0  0  0  0  0
   -1.5000   -2.5981    0.0000 C   0  0  0  0  0  0  0  0  0  0  0  0
   -3.0000   -2.5981    0.0000 O   0  0  0  0  0  0  0  0  0  0  0  0
  1  2  1  0
  2  3  2  0
  3  4  1  0
  4  5  1  0
  5  6  1  0
  6  7  1  0
  7  8  1  0
  8  9  1  0
  9 10  1  0
  7 11  1  0
 11 12  1  0
  3 13  1  0
 13 14  2  0
 14 15  1  0
 15 16  1  0
 16 17  2  0
 17 18  1  0
 18 19  2  0
 19 20  1  0
 20 21  2  0
 14 22  1  0
 22 23  2  0
 23 24  1  0
 24 25  2  0
 24 26  1  0
 26 27  2  0
 27 28  1  0
 28 29  2  0
 29 30  1  0
 30 31  2  0
 31 32  1  0
 32 33  2  0
 23  2  1  0
 31 26  1  0
 12  4  1  0
 21 16  1  0
 32 22  1  0
M  END
>  <Compound_ID>  (228) 
C20572527

>  <Active>  (228) 
0

>  <Smiles>  (228) 
Nc1c(N2CCN(CCO)CC2)cc(Nc2ccccc2)c2c1C(=O)c1ccccc1C2=O

>  <canonical_smi>  (228) 
Nc1c(N2CCN(CCO)CC2)cc(Nc2ccccc2)c2c1C(=O)c1ccccc1C2=O

>  <Set>  (228) 
G2 inactive

>  <Set_type>  (228) 
Train

>  <MW>  (228) 
442.52

>  <HBD>  (228) 
3

>  <HBA>  (228) 
7

>  <NRB>  (228) 
5

>  <NR>  (228) 
5

>  <NAR>  (228) 
4

>  <PSA>  (228) 
98.9

>  <Standard Type>  (228) 
nan

>  <Standard Relation>  (228) 
nan

>  <Standard Units>  (228) 
nan

>  <Standard Value>  (228) 
nan

>  <Assay ChEMBL ID>  (228) 
nan

>  <Assay Description>  (228) 
nan

>  <BAO Label>  (228) 
nan

$$$$

     RDKit          2D

 28 29  0  0  0  0  0  0  0  0999 V2000
    3.0000    0.0000    0.0000 C   0  0  0  0  0  0  0  0  0  0  0  0
    1.5000    0.0000    0.0000 C   0  0  0  0  0  0  0  0  0  0  0  0
    0.7500   -1.2990    0.0000 C   0  0  0  0  0  0  0  0  0  0  0  0
   -0.7500   -1.2990    0.0000 C   0  0  0  0  0  0  0  0  0  0  0  0
   -1.5000    0.0000    0.0000 C   0  0  0  0  0  0  0  0  0  0  0  0
   -3.0000    0.0000    0.0000 N   0  0  0  0  0  0  0  0  0  0  0  0
   -3.7500   -1.2990    0.0000 N   0  0  0  0  0  0  0  0  0  0  0  0
   -5.2500   -1.2990    0.0000 N   0  0  0  0  0  0  0  0  0  0  0  0
   -6.0000   -2.5981    0.0000 C   0  0  0  0  0  0  0  0  0  0  0  0
   -7.5000   -2.5981    0.0000 C   0  0  0  0  0  0  0  0  0  0  0  0
   -8.2500   -1.2990    0.0000 O   0  0  0  0  0  0  0  0  0  0  0  0
   -8.2500   -3.8971    0.0000 C   0  0  0  0  0  0  0  0  0  0  0  0
   -7.5000   -5.1962    0.0000 O   0  0  0  0  0  0  0  0  0  0  0  0
   -9.7500   -3.8971    0.0000 C   0  0  0  0  0  0  0  0  0  0  0  0
  -10.5000   -2.5981    0.0000 O   0  0  0  0  0  0  0  0  0  0  0  0
  -10.5000   -5.1962    0.0000 C   0  0  0  0  0  0  0  0  0  0  0  0
  -12.0000   -5.1962    0.0000 O   0  0  0  0  0  0  0  0  0  0  0  0
   -6.0000    0.0000    0.0000 C   0  0  0  0  0  0  0  0  0  0  0  0
   -5.2500    1.2990    0.0000 C   0  0  0  0  0  0  0  0  0  0  0  0
   -6.0000    2.5981    0.0000 C   0  0  0  0  0  0  0  0  0  0  0  0
   -7.5000    2.5981    0.0000 C   0  0  0  0  0  0  0  0  0  0  0  0
   -8.2500    3.8971    0.0000 C   0  0  0  0  0  0  0  0  0  0  0  0
   -8.2500    1.2990    0.0000 C   0  0  0  0  0  0  0  0  0  0  0  0
   -9.7500    1.2990    0.0000 C   0  0  0  0  0  0  0  0  0  0  0  0
   -7.5000    0.0000    0.0000 C   0  0  0  0  0  0  0  0  0  0  0  0
   -0.7500    1.2990    0.0000 C   0  0  0  0  0  0  0  0  0  0  0  0
    0.7500    1.2990    0.0000 C   0  0  0  0  0  0  0  0  0  0  0  0
    1.5000    2.5981    0.0000 C   0  0  0  0  0  0  0  0  0  0  0  0
  1  2  1  0
  2  3  2  0
  3  4  1  0
  4  5  2  0
  5  6  1  0
  6  7  2  0
  7  8  1  0
  8  9  1  0
  9 10  1  0
 10 11  1  6
 10 12  1  0
 12 13  1  1
 12 14  1  0
 14 15  1  6
 14 16  1  0
 16 17  1  0
  8 18  1  0
 18 19  2  0
 19 20  1  0
 20 21  2  0
 21 22  1  0
 21 23  1  0
 23 24  1  0
 23 25  2  0
  5 26  1  0
 26 27  2  0
 27 28  1  0
 27  2  1  0
 25 18  1  0
M  END
>  <Compound_ID>  (229) 
C15938555

>  <Active>  (229) 
0

>  <Smiles>  (229) 
Cc1ccc(/N=N/N(C[C@@H](O)[C@@H](O)[C@@H](O)CO)c2ccc(C)c(C)c2)cc1C

>  <canonical_smi>  (229) 
Cc1ccc(/N=N/N(C[C@@H](O)[C@@H](O)[C@@H](O)CO)c2ccc(C)c(C)c2)cc1C

>  <Set>  (229) 
G2 inactive

>  <Set_type>  (229) 
Train

>  <MW>  (229) 
387.48

>  <HBD>  (229) 
4

>  <HBA>  (229) 
5

>  <NRB>  (229) 
8

>  <NR>  (229) 
2

>  <NAR>  (229) 
2

>  <PSA>  (229) 
108.88

>  <Standard Type>  (229) 
nan

>  <Standard Relation>  (229) 
nan

>  <Standard Units>  (229) 
nan

>  <Standard Value>  (229) 
nan

>  <Assay ChEMBL ID>  (229) 
nan

>  <Assay Description>  (229) 
nan

>  <BAO Label>  (229) 
nan

$$$$

     RDKit          2D

 31 32  0  0  0  0  0  0  0  0999 V2000
    3.9271    0.0000    0.0000 C   0  0  0  0  0  0  0  0  0  0  0  0
    2.4271    0.0000    0.0000 C   0  0  0  0  0  0  0  0  0  0  0  0
    1.9635   -1.4266    0.0000 C   0  0  0  0  0  0  0  0  0  0  0  0
    0.7500   -2.3083    0.0000 C   0  0  0  0  0  0  0  0  0  0  0  0
   -0.7500   -2.3083    0.0000 C   0  0  0  0  0  0  0  0  0  0  0  0
   -1.2135   -3.7348    0.0000 O   0  0  0  0  0  0  0  0  0  0  0  0
   -1.9635   -1.4266    0.0000 C   0  0  0  0  0  0  0  0  0  0  0  0
   -3.1771   -2.3083    0.0000 C   0  0  0  0  0  0  0  0  0  0  0  0
   -2.4271    0.0000    0.0000 C   0  0  0  0  0  0  0  0  0  0  0  0
   -1.9635    1.4266    0.0000 C   0  0  0  0  0  0  0  0  0  0  0  0
   -0.7500    2.3083    0.0000 C   0  0  0  0  0  0  0  0  0  0  0  0
   -1.2135    3.7348    0.0000 C   0  0  0  0  0  0  0  0  0  0  0  0
   -0.2098    4.8496    0.0000 C   0  0  0  0  0  0  0  0  0  0  0  0
   -2.6807    4.0467    0.0000 C   0  0  0  0  0  0  0  0  0  0  0  0
    0.7500    2.3083    0.0000 C   0  0  0  0  0  0  0  0  0  0  0  0
    1.2135    3.7348    0.0000 O   0  0  0  0  0  0  0  0  0  0  0  0
    2.6807    4.0467    0.0000 C   0  0  0  0  0  0  0  0  0  0  0  0
    3.6844    2.9320    0.0000 O   0  0  0  0  0  0  0  0  0  0  0  0
    5.1517    3.2439    0.0000 C   0  0  0  0  0  0  0  0  0  0  0  0
    6.1554    2.1291    0.0000 C   0  0  0  0  0  0  0  0  0  0  0  0
    7.6226    2.4410    0.0000 O   0  0  0  0  0  0  0  0  0  0  0  0
    8.6263    1.3263    0.0000 C   0  0  0  0  0  0  0  0  0  0  0  0
   10.0935    1.6382    0.0000 C   0  0  0  0  0  0  0  0  0  0  0  0
    8.1628   -0.1003    0.0000 O   0  0  0  0  0  0  0  0  0  0  0  0
    5.6152    4.6705    0.0000 C   0  0  0  0  0  0  0  0  0  0  0  0
    7.0824    4.9823    0.0000 O   0  0  0  0  0  0  0  0  0  0  0  0
    4.6115    5.7852    0.0000 C   0  0  0  0  0  0  0  0  0  0  0  0
    5.0750    7.2118    0.0000 O   0  0  0  0  0  0  0  0  0  0  0  0
    3.1443    5.4733    0.0000 C   0  0  0  0  0  0  0  0  0  0  0  0
    2.1406    6.5880    0.0000 O   0  0  0  0  0  0  0  0  0  0  0  0
    1.9635    1.4266    0.0000 C   0  0  0  0  0  0  0  0  0  0  0  0
  1  2  2  0
  2  3  1  0
  3  4  1  0
  4  5  1  0
  5  6  1  6
  5  7  1  0
  7  8  1  0
  7  9  2  0
  9 10  1  0
 10 11  1  0
 11 12  1  1
 12 13  1  0
 12 14  1  0
 11 15  1  0
 15 16  1  6
 17 16  1  6
 17 18  1  0
 18 19  1  0
 19 20  1  6
 20 21  1  0
 21 22  1  0
 22 23  1  0
 22 24  2  0
 19 25  1  0
 25 26  1  6
 25 27  1  0
 27 28  1  6
 27 29  1  0
 29 30  1  6
 15 31  1  0
 31  2  1  0
 29 17  1  0
M  END
>  <Compound_ID>  (230) 
C35271448

>  <Active>  (230) 
0

>  <Smiles>  (230) 
C=C1CC[C@H](O)/C(C)=C/C[C@@H](C(C)C)[C@H](O[C@H]2O[C@@H](COC(C)=O)[C@@H](O)[C@@H](O)[C@H]2O)C1

>  <canonical_smi>  (230) 
C=C1CC[C@H](O)/C(C)=C/C[C@@H](C(C)C)[C@H](O[C@H]2O[C@@H](COC(C)=O)[C@@H](O)[C@@H](O)[C@H]2O)C1

>  <Set>  (230) 
G2 inactive

>  <Set_type>  (230) 
Train

>  <MW>  (230) 
442.55

>  <HBD>  (230) 
4

>  <HBA>  (230) 
8

>  <NRB>  (230) 
5

>  <NR>  (230) 
2

>  <NAR>  (230) 
0

>  <PSA>  (230) 
125.68

>  <Standard Type>  (230) 
nan

>  <Standard Relation>  (230) 
nan

>  <Standard Units>  (230) 
nan

>  <Standard Value>  (230) 
nan

>  <Assay ChEMBL ID>  (230) 
nan

>  <Assay Description>  (230) 
nan

>  <BAO Label>  (230) 
nan

$$$$

     RDKit          2D

 33 36  0  0  0  0  0  0  0  0999 V2000
   -2.5981   -9.6073    0.0000 C   0  0  0  0  0  0  0  0  0  0  0  0
   -2.5981   -8.1073    0.0000 C   0  0  0  0  0  0  0  0  0  0  0  0
   -1.2990   -7.3573    0.0000 C   0  0  0  0  0  0  0  0  0  0  0  0
   -1.2990   -5.8573    0.0000 C   0  0  0  0  0  0  0  0  0  0  0  0
   -0.0000   -5.1073    0.0000 N   0  0  0  0  0  0  0  0  0  0  0  0
   -0.0000   -3.6073    0.0000 C   0  0  0  0  0  0  0  0  0  0  0  0
    1.2135   -2.7256    0.0000 N   0  0  0  0  0  4  0  0  0  0  0  0
    0.7500   -1.2990    0.0000 C   0  0  0  0  0  0  0  0  0  0  0  0
    1.5000    0.0000    0.0000 C   0  0  0  0  0  0  0  0  0  0  0  0
    0.7500    1.2990    0.0000 C   0  0  0  0  0  0  0  0  0  0  0  0
   -0.7500    1.2990    0.0000 C   0  0  0  0  0  0  0  0  0  0  0  0
   -1.5000    2.5981    0.0000 C   0  0  0  0  0  0  0  0  0  0  0  0
   -0.7500    3.8971    0.0000 N   0  0  0  0  0  0  0  0  0  0  0  0
   -1.5000    5.1962    0.0000 C   0  0  0  0  0  0  0  0  0  0  0  0
   -0.7500    6.4952    0.0000 C   0  0  0  0  0  0  0  0  0  0  0  0
   -1.5000    7.7942    0.0000 C   0  0  0  0  0  0  0  0  0  0  0  0
   -0.7500    9.0933    0.0000 C   0  0  0  0  0  0  0  0  0  0  0  0
   -3.0000    7.7942    0.0000 C   0  0  0  0  0  0  0  0  0  0  0  0
   -3.7500    6.4952    0.0000 C   0  0  0  0  0  0  0  0  0  0  0  0
   -5.2500    6.4952    0.0000 C   0  0  0  0  0  0  0  0  0  0  0  0
   -3.0000    5.1962    0.0000 C   0  0  0  0  0  0  0  0  0  0  0  0
   -1.5000    0.0000    0.0000 C   0  0  0  0  0  0  0  0  0  0  0  0
   -0.7500   -1.2990    0.0000 C   0  0  0  0  0  0  0  0  0  0  0  0
   -1.2135   -2.7256    0.0000 N   0  0  0  0  0  0  0  0  0  0  0  0
   -2.6401   -3.1891    0.0000 C   0  0  0  0  0  0  0  0  0  0  0  0
   -3.7548   -2.1855    0.0000 C   0  0  0  0  0  0  0  0  0  0  0  0
   -3.4430   -0.7182    0.0000 N   0  0  0  0  0  4  0  0  0  0  0  0
   -4.5577    0.2855    0.0000 C   0  0  0  0  0  0  0  0  0  0  0  0
   -4.2458    1.7527    0.0000 C   0  0  0  0  0  0  0  0  0  0  0  0
   -5.9843   -0.1781    0.0000 C   0  0  0  0  0  0  0  0  0  0  0  0
   -6.2961   -1.6453    0.0000 C   0  0  0  0  0  0  0  0  0  0  0  0
   -5.1814   -2.6490    0.0000 C   0  0  0  0  0  0  0  0  0  0  0  0
   -5.4933   -4.1162    0.0000 O   0  0  0  0  0  1  0  0  0  0  0  0
  1  2  1  0
  2  3  1  0
  3  4  1  0
  4  5  1  0
  5  6  1  0
  6  7  2  0
  7  8  1  0
  8  9  2  0
  9 10  1  0
 10 11  2  0
 11 12  1  0
 12 13  1  0
 13 14  1  0
 14 15  2  0
 15 16  1  0
 16 17  1  0
 16 18  2  0
 18 19  1  0
 19 20  1  0
 19 21  2  0
 11 22  1  0
 22 23  2  0
 23 24  1  0
 24 25  1  0
 25 26  1  0
 26 27  2  0
 27 28  1  0
 28 29  1  0
 28 30  2  0
 30 31  1  0
 31 32  2  0
 32 33  1  0
 24  6  1  0
 32 26  1  0
 23  8  1  0
 21 14  1  0
M  CHG  3   7   1  27   1  33  -1
M  END
>  <Compound_ID>  (231) 
C29134212

>  <Active>  (231) 
0

>  <Smiles>  (231) 
CCCCNc1[nH+]c2ccc(CNc3cc(C)cc(C)c3)cc2n1Cc1[nH+]c(C)ccc1[O-]

>  <canonical_smi>  (231) 
CCCCNc1[nH+]c2ccc(CNc3cc(C)cc(C)c3)cc2n1Cc1[nH+]c(C)ccc1[O-]

>  <Set>  (231) 
G2 inactive

>  <Set_type>  (231) 
Train

>  <MW>  (231) 
444.6

>  <HBD>  (231) 
2

>  <HBA>  (231) 
3

>  <NRB>  (231) 
9

>  <NR>  (231) 
4

>  <NAR>  (231) 
4

>  <PSA>  (231) 
80.33

>  <Standard Type>  (231) 
nan

>  <Standard Relation>  (231) 
nan

>  <Standard Units>  (231) 
nan

>  <Standard Value>  (231) 
nan

>  <Assay ChEMBL ID>  (231) 
nan

>  <Assay Description>  (231) 
nan

>  <BAO Label>  (231) 
nan

$$$$

     RDKit          2D

 23 25  0  0  0  0  0  0  0  0999 V2000
    3.9955   -4.2382    0.0000 N   0  0  0  0  0  0  0  0  0  0  0  0
    2.9918   -5.3529    0.0000 N   0  0  0  0  0  0  0  0  0  0  0  0
    1.5000   -5.1962    0.0000 C   0  0  0  0  0  0  0  0  0  0  0  0
    0.7500   -3.8971    0.0000 N   0  0  0  0  0  0  0  0  0  0  0  0
    1.5000   -2.5981    0.0000 N   0  0  0  0  0  0  0  0  0  0  0  0
    0.7500   -1.2990    0.0000 C   0  0  0  0  0  0  0  0  0  0  0  0
    1.5000    0.0000    0.0000 C   0  0  0  0  0  0  0  0  0  0  0  0
    0.7500    1.2990    0.0000 C   0  0  0  0  0  0  0  0  0  0  0  0
   -0.7500    1.2990    0.0000 C   0  0  0  0  0  0  0  0  0  0  0  0
   -1.5000    0.0000    0.0000 C   0  0  0  0  0  0  0  0  0  0  0  0
   -0.7500   -1.2990    0.0000 C   0  0  0  0  0  0  0  0  0  0  0  0
    0.8899   -6.5665    0.0000 N   0  0  0  0  0  0  0  0  0  0  0  0
    2.0046   -7.5702    0.0000 N   0  0  0  0  0  0  0  0  0  0  0  0
    3.3037   -6.8202    0.0000 C   0  0  0  0  0  0  0  0  0  0  0  0
    4.6740   -7.4303    0.0000 S   0  0  0  0  0  0  0  0  0  0  0  0
    4.8308   -8.9221    0.0000 C   0  0  0  0  0  0  0  0  0  0  0  0
    6.2011   -9.5322    0.0000 C   0  0  0  0  0  0  0  0  0  0  0  0
    6.3579  -11.0239    0.0000 C   0  0  0  0  0  0  0  0  0  0  0  0
    7.7282  -11.6340    0.0000 C   0  0  0  0  0  0  0  0  0  0  0  0
    8.9417  -10.7524    0.0000 C   0  0  0  0  0  0  0  0  0  0  0  0
   10.3120  -11.3625    0.0000 Cl  0  0  0  0  0  0  0  0  0  0  0  0
    8.7849   -9.2606    0.0000 C   0  0  0  0  0  0  0  0  0  0  0  0
    7.4146   -8.6505    0.0000 C   0  0  0  0  0  0  0  0  0  0  0  0
  1  2  1  0
  2  3  1  0
  3  4  1  0
  4  5  1  0
  5  6  2  0
  6  7  1  0
  7  8  1  0
  8  9  1  0
  9 10  1  0
 10 11  1  0
  3 12  2  0
 12 13  1  0
 13 14  2  0
 14 15  1  0
 15 16  1  0
 16 17  1  0
 17 18  2  0
 18 19  1  0
 19 20  2  0
 20 21  1  0
 20 22  1  0
 22 23  2  0
 14  2  1  0
 23 17  1  0
 11  6  1  0
M  END
>  <Compound_ID>  (232) 
C21327193

>  <Active>  (232) 
0

>  <Smiles>  (232) 
Nn1c(NN=C2CCCCC2)nnc1SCc1ccc(Cl)cc1

>  <canonical_smi>  (232) 
Nn1c(NN=C2CCCCC2)nnc1SCc1ccc(Cl)cc1

>  <Set>  (232) 
G2 inactive

>  <Set_type>  (232) 
Train

>  <MW>  (232) 
350.88

>  <HBD>  (232) 
2

>  <HBA>  (232) 
5

>  <NRB>  (232) 
5

>  <NR>  (232) 
3

>  <NAR>  (232) 
2

>  <PSA>  (232) 
81.12

>  <Standard Type>  (232) 
nan

>  <Standard Relation>  (232) 
nan

>  <Standard Units>  (232) 
nan

>  <Standard Value>  (232) 
nan

>  <Assay ChEMBL ID>  (232) 
nan

>  <Assay Description>  (232) 
nan

>  <BAO Label>  (232) 
nan

$$$$

     RDKit          2D

 27 29  0  0  0  0  0  0  0  0999 V2000
    3.0000    0.0000    0.0000 C   0  0  0  0  0  0  0  0  0  0  0  0
    1.5000    0.0000    0.0000 C   0  0  0  0  0  0  0  0  0  0  0  0
    0.7500   -1.2990    0.0000 C   0  0  0  0  0  0  0  0  0  0  0  0
   -0.7500   -1.2990    0.0000 C   0  0  0  0  0  0  0  0  0  0  0  0
   -1.5000   -2.5981    0.0000 C   0  0  0  0  0  0  0  0  0  0  0  0
   -1.5000    0.0000    0.0000 C   0  0  0  0  0  0  0  0  0  0  0  0
   -2.9672    0.3119    0.0000 C   0  0  0  0  0  0  0  0  0  0  0  0
   -4.0819   -0.6918    0.0000 N   0  0  0  0  0  0  0  0  0  0  0  0
   -3.1240    1.8037    0.0000 C   0  0  0  0  0  0  0  0  0  0  0  0
   -4.4231    2.5537    0.0000 C   0  0  0  0  0  0  0  0  0  0  0  0
   -5.7221    1.8037    0.0000 O   0  0  0  0  0  0  0  0  0  0  0  0
   -4.4231    4.0537    0.0000 O   0  0  0  0  0  0  0  0  0  0  0  0
   -5.7221    4.8037    0.0000 C   0  0  0  0  0  0  0  0  0  0  0  0
   -5.7221    6.3037    0.0000 C   0  0  0  0  0  0  0  0  0  0  0  0
   -7.0211    4.0537    0.0000 C   0  0  0  0  0  0  0  0  0  0  0  0
   -7.0211    2.5537    0.0000 O   0  0  0  0  0  0  0  0  0  0  0  0
   -8.3202    4.8037    0.0000 N   0  0  0  0  0  0  0  0  0  0  0  0
   -9.6192    4.0537    0.0000 C   0  0  0  0  0  0  0  0  0  0  0  0
  -10.9182    4.8037    0.0000 C   0  0  0  0  0  0  0  0  0  0  0  0
  -12.2173    4.0537    0.0000 C   0  0  0  0  0  0  0  0  0  0  0  0
  -12.2173    2.5537    0.0000 C   0  0  0  0  0  0  0  0  0  0  0  0
  -10.9182    1.8037    0.0000 C   0  0  0  0  0  0  0  0  0  0  0  0
   -9.6192    2.5537    0.0000 C   0  0  0  0  0  0  0  0  0  0  0  0
   -8.3202    1.8037    0.0000 C   0  0  0  0  0  0  0  0  0  0  0  0
   -1.7537    2.4138    0.0000 S   0  0  0  0  0  0  0  0  0  0  0  0
   -0.7500    1.2990    0.0000 C   0  0  0  0  0  0  0  0  0  0  0  0
    0.7500    1.2990    0.0000 N   0  0  0  0  0  0  0  0  0  0  0  0
  1  2  1  0
  2  3  2  0
  3  4  1  0
  4  5  1  0
  4  6  2  0
  6  7  1  0
  7  8  1  0
  7  9  2  0
  9 10  1  0
 10 11  2  0
 10 12  1  0
 12 13  1  0
 13 14  1  6
 13 15  1  0
 15 16  2  0
 15 17  1  0
 18 17  1  1
 18 19  1  0
 19 20  1  0
 20 21  1  0
 21 22  1  0
 22 23  1  0
 23 24  1  1
  9 25  1  0
 25 26  1  0
 26 27  2  0
 27  2  1  0
 26  6  1  0
 23 18  1  0
M  END
>  <Compound_ID>  (233) 
C36713183

>  <Active>  (233) 
0

>  <Smiles>  (233) 
Cc1cc(C)c2c(N)c(C(=O)O[C@@H](C)C(=O)N[C@@H]3CCCC[C@@H]3C)sc2n1

>  <canonical_smi>  (233) 
Cc1cc(C)c2c(N)c(C(=O)O[C@@H](C)C(=O)N[C@@H]3CCCC[C@@H]3C)sc2n1

>  <Set>  (233) 
G2 inactive

>  <Set_type>  (233) 
Train

>  <MW>  (233) 
389.52

>  <HBD>  (233) 
2

>  <HBA>  (233) 
5

>  <NRB>  (233) 
4

>  <NR>  (233) 
3

>  <NAR>  (233) 
2

>  <PSA>  (233) 
94.31

>  <Standard Type>  (233) 
nan

>  <Standard Relation>  (233) 
nan

>  <Standard Units>  (233) 
nan

>  <Standard Value>  (233) 
nan

>  <Assay ChEMBL ID>  (233) 
nan

>  <Assay Description>  (233) 
nan

>  <BAO Label>  (233) 
nan

$$$$

     RDKit          2D

 26 28  0  0  0  0  0  0  0  0999 V2000
    6.5490   -7.2452    0.0000 C   0  0  0  0  0  0  0  0  0  0  0  0
    5.0490   -7.2452    0.0000 C   0  0  0  0  0  0  0  0  0  0  0  0
    4.2990   -8.5442    0.0000 C   0  0  0  0  0  0  0  0  0  0  0  0
    4.2990   -5.9462    0.0000 C   0  0  0  0  0  0  0  0  0  0  0  0
    2.7990   -5.9462    0.0000 C   0  0  0  0  0  0  0  0  0  0  0  0
    1.5000   -5.1962    0.0000 C   0  0  0  0  0  0  0  0  0  0  0  0
    0.7500   -3.8971    0.0000 C   0  0  0  0  0  0  0  0  0  0  0  0
   -0.7500   -3.8971    0.0000 O   0  0  0  0  0  0  0  0  0  0  0  0
    1.5000   -2.5981    0.0000 N   0  0  0  0  0  0  0  0  0  0  0  0
    0.7500   -1.2990    0.0000 C   0  0  0  0  0  0  0  0  0  0  0  0
    1.5000    0.0000    0.0000 C   0  0  0  0  0  0  0  0  0  0  0  0
    0.7500    1.2990    0.0000 C   0  0  0  0  0  0  0  0  0  0  0  0
   -0.7500    1.2990    0.0000 C   0  0  0  0  0  0  0  0  0  0  0  0
   -1.5000    0.0000    0.0000 C   0  0  0  0  0  0  0  0  0  0  0  0
   -3.0000    0.0000    0.0000 C   0  0  0  0  0  0  0  0  0  0  0  0
   -2.8432   -1.4918    0.0000 C   0  0  0  0  0  0  0  0  0  0  0  0
   -4.4672   -0.3119    0.0000 N   0  0  0  0  0  0  0  0  0  0  0  0
   -5.2172    0.9872    0.0000 C   0  0  0  0  0  0  0  0  0  0  0  0
   -6.7090    1.1440    0.0000 O   0  0  0  0  0  0  0  0  0  0  0  0
   -4.2135    2.1019    0.0000 N   0  0  0  0  0  0  0  0  0  0  0  0
   -2.8432    1.4918    0.0000 C   0  0  0  0  0  0  0  0  0  0  0  0
   -1.5442    2.2418    0.0000 O   0  0  0  0  0  0  0  0  0  0  0  0
   -0.7500   -1.2990    0.0000 C   0  0  0  0  0  0  0  0  0  0  0  0
    1.5000   -6.6962    0.0000 C   0  0  0  0  0  0  0  0  0  0  0  0
    2.0130   -8.1057    0.0000 C   0  0  0  0  0  0  0  0  0  0  0  0
    0.0228   -6.9566    0.0000 C   0  0  0  0  0  0  0  0  0  0  0  0
  1  2  1  0
  2  3  1  0
  2  4  2  0
  5  4  1  1
  5  6  1  0
  6  7  1  6
  7  8  2  0
  7  9  1  0
  9 10  1  0
 10 11  2  0
 11 12  1  0
 12 13  2  0
 13 14  1  0
 14 15  1  0
 15 16  1  6
 15 17  1  0
 17 18  1  0
 18 19  2  0
 18 20  1  0
 20 21  1  0
 21 22  2  0
 14 23  2  0
  6 24  1  0
 24 25  1  0
 24 26  1  0
 24  5  1  0
 23 10  1  0
 21 15  1  0
M  END
>  <Compound_ID>  (234) 
C58982845

>  <Active>  (234) 
0

>  <Smiles>  (234) 
CC(C)=C[C@@H]1[C@@H](C(=O)Nc2cccc([C@@]3(C)NC(=O)NC3=O)c2)C1(C)C

>  <canonical_smi>  (234) 
CC(C)=C[C@@H]1[C@@H](C(=O)Nc2cccc([C@@]3(C)NC(=O)NC3=O)c2)C1(C)C

>  <Set>  (234) 
G2 inactive

>  <Set_type>  (234) 
Train

>  <MW>  (234) 
355.44

>  <HBD>  (234) 
3

>  <HBA>  (234) 
3

>  <NRB>  (234) 
4

>  <NR>  (234) 
3

>  <NAR>  (234) 
1

>  <PSA>  (234) 
87.3

>  <Standard Type>  (234) 
nan

>  <Standard Relation>  (234) 
nan

>  <Standard Units>  (234) 
nan

>  <Standard Value>  (234) 
nan

>  <Assay ChEMBL ID>  (234) 
nan

>  <Assay Description>  (234) 
nan

>  <BAO Label>  (234) 
nan

$$$$

     RDKit          2D

 26 29  0  0  0  0  0  0  0  0999 V2000
  -10.3946    0.4398    0.0000 C   0  0  0  0  0  0  0  0  0  0  0  0
   -8.9681    0.9033    0.0000 C   0  0  0  0  0  0  0  0  0  0  0  0
   -7.8533   -0.1004    0.0000 O   0  0  0  0  0  0  0  0  0  0  0  0
   -6.4268    0.3631    0.0000 C   0  0  0  0  0  0  0  0  0  0  0  0
   -6.1149    1.8303    0.0000 C   0  0  0  0  0  0  0  0  0  0  0  0
   -4.6883    2.2939    0.0000 C   0  0  0  0  0  0  0  0  0  0  0  0
   -3.5736    1.2902    0.0000 C   0  0  0  0  0  0  0  0  0  0  0  0
   -2.1470    1.7537    0.0000 C   0  0  0  0  0  0  0  0  0  0  0  0
   -1.8351    3.2209    0.0000 C   0  0  0  0  0  0  0  0  0  0  0  0
   -0.4086    3.6844    0.0000 C   0  0  0  0  0  0  0  0  0  0  0  0
   -0.0967    5.1517    0.0000 C   0  0  0  0  0  0  0  0  0  0  0  0
    1.3299    5.6152    0.0000 C   0  0  0  0  0  0  0  0  0  0  0  0
    1.6418    7.0824    0.0000 C   0  0  0  0  0  0  0  0  0  0  0  0
    0.5271    8.0861    0.0000 C   0  0  0  0  0  0  0  0  0  0  0  0
    0.8389    9.5533    0.0000 F   0  0  0  0  0  0  0  0  0  0  0  0
   -0.8995    7.6226    0.0000 C   0  0  0  0  0  0  0  0  0  0  0  0
   -1.2114    6.1554    0.0000 C   0  0  0  0  0  0  0  0  0  0  0  0
    0.7062    2.6807    0.0000 N   0  0  0  0  0  0  0  0  0  0  0  0
    0.3943    1.2135    0.0000 C   0  0  0  0  0  0  0  0  0  0  0  0
    1.2760    0.0000    0.0000 N   0  0  0  0  0  0  0  0  0  0  0  0
    0.3943   -1.2135    0.0000 C   0  0  0  0  0  0  0  0  0  0  0  0
    0.8578   -2.6401    0.0000 N   0  0  0  0  0  0  0  0  0  0  0  0
   -1.0323   -0.7500    0.0000 N   0  0  0  0  0  0  0  0  0  0  0  0
   -1.0323    0.7500    0.0000 N   0  0  0  0  0  0  0  0  0  0  0  0
   -3.8855   -0.1771    0.0000 C   0  0  0  0  0  0  0  0  0  0  0  0
   -5.3120   -0.6406    0.0000 C   0  0  0  0  0  0  0  0  0  0  0  0
  1  2  1  0
  2  3  1  0
  3  4  1  0
  4  5  2  0
  5  6  1  0
  6  7  2  0
  8  7  1  1
  8  9  1  0
  9 10  1  0
 10 11  1  1
 11 12  2  0
 12 13  1  0
 13 14  2  0
 14 15  1  0
 14 16  1  0
 16 17  2  0
 10 18  1  0
 18 19  1  0
 19 20  2  0
 20 21  1  0
 21 22  1  0
 21 23  2  0
 23 24  1  0
  7 25  1  0
 25 26  2  0
 26  4  1  0
 24  8  1  0
 17 11  1  0
 24 19  1  0
M  END
>  <Compound_ID>  (235) 
C13131836

>  <Active>  (235) 
0

>  <Smiles>  (235) 
CCOc1ccc([C@H]2C[C@@H](c3ccc(F)cc3)Nc3nc(N)nn32)cc1

>  <canonical_smi>  (235) 
CCOc1ccc([C@H]2C[C@@H](c3ccc(F)cc3)Nc3nc(N)nn32)cc1

>  <Set>  (235) 
G2 inactive

>  <Set_type>  (235) 
Train

>  <MW>  (235) 
353.4

>  <HBD>  (235) 
2

>  <HBA>  (235) 
5

>  <NRB>  (235) 
4

>  <NR>  (235) 
4

>  <NAR>  (235) 
3

>  <PSA>  (235) 
77.99

>  <Standard Type>  (235) 
nan

>  <Standard Relation>  (235) 
nan

>  <Standard Units>  (235) 
nan

>  <Standard Value>  (235) 
nan

>  <Assay ChEMBL ID>  (235) 
nan

>  <Assay Description>  (235) 
nan

>  <BAO Label>  (235) 
nan

$$$$

     RDKit          2D

 31 33  0  0  0  0  0  0  0  0999 V2000
    3.7500   -1.2990    0.0000 C   0  0  0  0  0  0  0  0  0  0  0  0
    3.0000    0.0000    0.0000 O   0  0  0  0  0  0  0  0  0  0  0  0
    1.5000    0.0000    0.0000 C   0  0  0  0  0  0  0  0  0  0  0  0
    0.7500   -1.2990    0.0000 C   0  0  0  0  0  0  0  0  0  0  0  0
    1.5000   -2.5981    0.0000 C   0  0  0  0  0  0  0  0  0  0  0  0
   -0.7500   -1.2990    0.0000 C   0  0  0  0  0  0  0  0  0  0  0  0
   -1.5000   -2.5981    0.0000 C   0  0  0  0  0  0  0  0  0  0  0  0
   -0.2010   -3.3481    0.0000 C   0  0  0  0  0  0  0  0  0  0  0  0
   -2.2500   -3.8971    0.0000 O   0  0  0  0  0  0  0  0  0  0  0  0
   -2.7990   -1.8481    0.0000 C   0  0  0  0  0  0  0  0  0  0  0  0
   -4.0981   -2.5981    0.0000 C   0  0  0  0  0  0  0  0  0  0  0  0
   -4.0981   -4.0981    0.0000 C   0  0  0  0  0  0  0  0  0  0  0  0
   -5.3971   -1.8481    0.0000 C   0  0  0  0  0  0  0  0  0  0  0  0
   -6.6962   -2.5981    0.0000 O   0  0  0  0  0  0  0  0  0  0  0  0
   -5.3971   -0.3481    0.0000 C   0  0  0  0  0  0  0  0  0  0  0  0
   -4.0981    0.4019    0.0000 C   0  0  0  0  0  0  0  0  0  0  0  0
   -6.6962    0.4019    0.0000 C   0  0  0  0  0  0  0  0  0  0  0  0
   -6.6962    1.9019    0.0000 C   0  0  0  0  0  0  0  0  0  0  0  0
   -5.2044    1.7451    0.0000 C   0  0  0  0  0  0  0  0  0  0  0  0
   -6.3843    3.3691    0.0000 O   0  0  0  0  0  0  0  0  0  0  0  0
   -7.6833    4.1191    0.0000 C   0  0  0  0  0  0  0  0  0  0  0  0
   -7.8401    5.6109    0.0000 C   0  0  0  0  0  0  0  0  0  0  0  0
   -8.7980    3.1154    0.0000 C   0  0  0  0  0  0  0  0  0  0  0  0
   -9.9128    4.1191    0.0000 C   0  0  0  0  0  0  0  0  0  0  0  0
   -9.6797    1.9019    0.0000 O   0  0  0  0  0  0  0  0  0  0  0  0
   -8.1879    1.7451    0.0000 C   0  0  0  0  0  0  0  0  0  0  0  0
   -1.5000    0.0000    0.0000 O   0  0  0  0  0  0  0  0  0  0  0  0
   -0.7500    1.2990    0.0000 C   0  0  0  0  0  0  0  0  0  0  0  0
   -1.5000    2.5981    0.0000 O   0  0  0  0  0  0  0  0  0  0  0  0
    0.7500    1.2990    0.0000 C   0  0  0  0  0  0  0  0  0  0  0  0
    1.5000    2.5981    0.0000 C   0  0  0  0  0  0  0  0  0  0  0  0
  1  2  1  0
  2  3  1  0
  3  4  1  0
  4  5  1  0
  4  6  2  0
  6  7  1  0
  7  8  1  1
  7  9  1  0
  7 10  1  0
 10 11  2  0
 11 12  1  0
 11 13  1  0
 13 14  1  1
 13 15  1  0
 15 16  1  0
 15 17  2  0
 17 18  1  0
 18 19  1  1
 18 20  1  0
 20 21  1  0
 21 22  1  6
 21 23  1  0
 23 24  1  6
 23 25  1  0
 26 25  1  1
  6 27  1  0
 27 28  1  0
 28 29  2  0
 28 30  1  0
 30 31  1  0
 30  3  2  0
 26 18  1  0
 26 23  1  0
M  END
>  <Compound_ID>  (236) 
C49601565

>  <Active>  (236) 
0

>  <Smiles>  (236) 
COc1c(C)c([C@](C)(O)/C=C(\C)[C@@H](O)/C(C)=C/[C@@]2(C)O[C@@H](C)[C@]3(C)O[C@@H]32)oc(=O)c1C

>  <canonical_smi>  (236) 
COc1c(C)c([C@](C)(O)/C=C(\C)[C@@H](O)/C(C)=C/[C@@]2(C)O[C@@H](C)[C@]3(C)O[C@@H]32)oc(=O)c1C

>  <Set>  (236) 
G2 inactive

>  <Set_type>  (236) 
Train

>  <MW>  (236) 
434.53

>  <HBD>  (236) 
2

>  <HBA>  (236) 
7

>  <NRB>  (236) 
6

>  <NR>  (236) 
3

>  <NAR>  (236) 
1

>  <PSA>  (236) 
101.66

>  <Standard Type>  (236) 
nan

>  <Standard Relation>  (236) 
nan

>  <Standard Units>  (236) 
nan

>  <Standard Value>  (236) 
nan

>  <Assay ChEMBL ID>  (236) 
nan

>  <Assay Description>  (236) 
nan

>  <BAO Label>  (236) 
nan

$$$$

     RDKit          2D

 27 28  0  0  0  0  0  0  0  0999 V2000
   -0.6546  -12.7344    0.0000 C   0  0  0  0  0  0  0  0  0  0  0  0
   -0.8113  -11.2427    0.0000 C   0  0  0  0  0  0  0  0  0  0  0  0
    0.4022  -10.3610    0.0000 C   0  0  0  0  0  0  0  0  0  0  0  0
    0.2454   -8.8692    0.0000 C   0  0  0  0  0  0  0  0  0  0  0  0
    1.3601   -7.8655    0.0000 C   0  0  0  0  0  0  0  0  0  0  0  0
    0.7500   -6.4952    0.0000 C   0  0  0  0  0  0  0  0  0  0  0  0
    1.5000   -5.1962    0.0000 C   0  0  0  0  0  0  0  0  0  0  0  0
    3.0000   -5.1962    0.0000 O   0  0  0  0  0  0  0  0  0  0  0  0
    0.7500   -3.8971    0.0000 N   0  0  0  0  0  0  0  0  0  0  0  0
    1.5000   -2.5981    0.0000 C   0  0  0  0  0  0  0  0  0  0  0  0
    0.7500   -1.2990    0.0000 C   0  0  0  0  0  0  0  0  0  0  0  0
    1.5000    0.0000    0.0000 O   0  0  0  0  0  0  0  0  0  0  0  0
    0.7500    1.2990    0.0000 C   0  0  0  0  0  0  0  0  0  0  0  0
    1.5000    2.5981    0.0000 S   0  0  0  0  0  0  0  0  0  0  0  0
    3.0000    2.5981    0.0000 C   0  0  0  0  0  0  0  0  0  0  0  0
   -0.7500    1.2990    0.0000 C   0  0  0  0  0  0  0  0  0  0  0  0
   -1.5000    2.5981    0.0000 O   0  0  0  0  0  0  0  0  0  0  0  0
   -1.5000    0.0000    0.0000 C   0  0  0  0  0  0  0  0  0  0  0  0
   -3.0000    0.0000    0.0000 O   0  0  0  0  0  0  0  0  0  0  0  0
   -0.7500   -1.2990    0.0000 C   0  0  0  0  0  0  0  0  0  0  0  0
   -1.5000   -2.5981    0.0000 O   0  0  0  0  0  0  0  0  0  0  0  0
    3.0000   -2.5981    0.0000 C   0  0  0  0  0  0  0  0  0  0  0  0
    3.7500   -3.8971    0.0000 C   0  0  0  0  0  0  0  0  0  0  0  0
    3.7500   -1.2990    0.0000 Cl  0  0  0  0  0  0  0  0  0  0  0  0
   -0.7418   -6.6520    0.0000 N   0  0  0  0  0  4  0  0  0  0  0  0
   -1.7455   -5.5373    0.0000 C   0  0  0  0  0  0  0  0  0  0  0  0
   -1.0537   -8.1192    0.0000 C   0  0  0  0  0  0  0  0  0  0  0  0
  1  2  1  0
  2  3  1  0
  4  3  1  6
  4  5  1  0
  5  6  1  0
  6  7  1  1
  7  8  2  0
  7  9  1  0
 10  9  1  6
 10 11  1  0
 11 12  1  1
 12 13  1  0
 13 14  1  6
 14 15  1  0
 13 16  1  0
 16 17  1  6
 16 18  1  0
 18 19  1  6
 18 20  1  0
 20 21  1  1
 10 22  1  0
 22 23  1  6
 22 24  1  0
  6 25  1  0
 25 26  1  0
 25 27  1  0
 27  4  1  0
 20 11  1  0
M  CHG  1  25   1
M  END
>  <Compound_ID>  (237) 
C08551996

>  <Active>  (237) 
0

>  <Smiles>  (237) 
CCC[C@H]1C[C@H](C(=O)N[C@H]([C@@H]2O[C@@H](SC)[C@@H](O)[C@@H](O)[C@@H]2O)[C@@H](C)Cl)[NH+](C)C1

>  <canonical_smi>  (237) 
CCC[C@H]1C[C@H](C(=O)N[C@H]([C@@H]2O[C@@H](SC)[C@@H](O)[C@@H](O)[C@@H]2O)[C@@H](C)Cl)[NH+](C)C1

>  <Set>  (237) 
G2 inactive

>  <Set_type>  (237) 
Train

>  <MW>  (237) 
426.0

>  <HBD>  (237) 
5

>  <HBA>  (237) 
6

>  <NRB>  (237) 
7

>  <NR>  (237) 
2

>  <NAR>  (237) 
0

>  <PSA>  (237) 
103.46

>  <Standard Type>  (237) 
nan

>  <Standard Relation>  (237) 
nan

>  <Standard Units>  (237) 
nan

>  <Standard Value>  (237) 
nan

>  <Assay ChEMBL ID>  (237) 
nan

>  <Assay Description>  (237) 
nan

>  <BAO Label>  (237) 
nan

$$$$

     RDKit          2D

 31 32  0  0  0  0  0  0  0  0999 V2000
   10.5000   -5.1962    0.0000 C   0  0  0  0  0  0  0  0  0  0  0  0
    9.7500   -3.8971    0.0000 C   0  0  0  0  0  0  0  0  0  0  0  0
   10.5000   -2.5981    0.0000 C   0  0  0  0  0  0  0  0  0  0  0  0
    8.2500   -3.8971    0.0000 O   0  0  0  0  0  0  0  0  0  0  0  0
    7.5000   -2.5981    0.0000 C   0  0  0  0  0  0  0  0  0  0  0  0
    6.0000   -2.5981    0.0000 C   0  0  0  0  0  0  0  0  0  0  0  0
    5.2500   -1.2990    0.0000 C   0  0  0  0  0  0  0  0  0  0  0  0
    3.7500   -1.2990    0.0000 N   0  0  0  0  0  0  0  0  0  0  0  0
    3.0000    0.0000    0.0000 C   0  0  0  0  0  0  0  0  0  0  0  0
    3.7500    1.2990    0.0000 O   0  0  0  0  0  0  0  0  0  0  0  0
    1.5000    0.0000    0.0000 C   0  0  0  0  0  0  0  0  0  0  0  0
    0.7500   -1.2990    0.0000 C   0  0  0  0  0  0  0  0  0  0  0  0
   -0.7500   -1.2990    0.0000 S   0  0  0  0  0  0  0  0  0  0  0  0
   -1.5000    0.0000    0.0000 C   0  0  0  0  0  0  0  0  0  0  0  0
   -0.7500    1.2990    0.0000 C   0  0  0  0  0  0  0  0  0  0  0  0
   -1.5000    2.5981    0.0000 C   0  0  0  0  0  0  0  0  0  0  0  0
   -0.7500    3.8971    0.0000 C   0  0  0  0  0  0  0  0  0  0  0  0
   -1.5000    5.1962    0.0000 C   0  0  0  0  0  0  0  0  0  0  0  0
   -0.7500    6.4952    0.0000 C   0  0  0  0  0  0  0  0  0  0  0  0
    0.5490    5.7452    0.0000 C   0  0  0  0  0  0  0  0  0  0  0  0
   -2.0490    7.2452    0.0000 C   0  0  0  0  0  0  0  0  0  0  0  0
    0.0000    7.7942    0.0000 C   0  0  0  0  0  0  0  0  0  0  0  0
   -3.0000    5.1962    0.0000 C   0  0  0  0  0  0  0  0  0  0  0  0
   -3.7500    6.4952    0.0000 O   0  0  0  0  0  0  0  0  0  0  0  0
   -3.7500    3.8971    0.0000 C   0  0  0  0  0  0  0  0  0  0  0  0
   -5.2500    3.8971    0.0000 C   0  0  0  0  0  0  0  0  0  0  0  0
   -5.2500    2.3971    0.0000 C   0  0  0  0  0  0  0  0  0  0  0  0
   -5.2500    5.3971    0.0000 C   0  0  0  0  0  0  0  0  0  0  0  0
   -6.7500    3.8971    0.0000 C   0  0  0  0  0  0  0  0  0  0  0  0
   -3.0000    2.5981    0.0000 C   0  0  0  0  0  0  0  0  0  0  0  0
    0.7500    1.2990    0.0000 N   0  0  0  0  0  4  0  0  0  0  0  0
  1  2  1  0
  2  3  1  0
  2  4  1  0
  4  5  1  0
  5  6  1  0
  6  7  1  0
  7  8  1  0
  8  9  1  0
  9 10  2  0
 11  9  1  6
 11 12  1  0
 12 13  1  0
 13 14  1  0
 14 15  1  0
 15 16  1  6
 16 17  2  0
 17 18  1  0
 18 19  1  0
 19 20  1  0
 19 21  1  0
 19 22  1  0
 18 23  2  0
 23 24  1  0
 23 25  1  0
 25 26  1  0
 26 27  1  0
 26 28  1  0
 26 29  1  0
 25 30  2  0
 15 31  1  0
 31 11  1  0
 30 16  1  0
M  CHG  1  31   1
M  END
>  <Compound_ID>  (238) 
C44164843

>  <Active>  (238) 
0

>  <Smiles>  (238) 
CC(C)OCCCNC(=O)[C@@H]1CSC[C@H](c2cc(C(C)(C)C)c(O)c(C(C)(C)C)c2)[NH2+]1

>  <canonical_smi>  (238) 
CC(C)OCCCNC(=O)[C@@H]1CSC[C@H](c2cc(C(C)(C)C)c(O)c(C(C)(C)C)c2)[NH2+]1

>  <Set>  (238) 
G2 inactive

>  <Set_type>  (238) 
Train

>  <MW>  (238) 
451.7

>  <HBD>  (238) 
3

>  <HBA>  (238) 
4

>  <NRB>  (238) 
7

>  <NR>  (238) 
2

>  <NAR>  (238) 
1

>  <PSA>  (238) 
75.17

>  <Standard Type>  (238) 
nan

>  <Standard Relation>  (238) 
nan

>  <Standard Units>  (238) 
nan

>  <Standard Value>  (238) 
nan

>  <Assay ChEMBL ID>  (238) 
nan

>  <Assay Description>  (238) 
nan

>  <BAO Label>  (238) 
nan

$$$$

     RDKit          2D

 21 22  0  0  0  0  0  0  0  0999 V2000
    3.0000   -7.7942    0.0000 O   0  0  0  0  0  0  0  0  0  0  0  0
    1.5000   -7.7942    0.0000 C   0  0  0  0  0  0  0  0  0  0  0  0
    0.7500   -6.4952    0.0000 C   0  0  0  0  0  0  0  0  0  0  0  0
    1.5000   -5.1962    0.0000 N   0  0  0  0  0  4  0  0  0  0  0  0
    0.7500   -3.8971    0.0000 C   0  0  0  0  0  0  0  0  0  0  0  0
    1.5000   -2.5981    0.0000 C   0  0  0  0  0  0  0  0  0  0  0  0
    0.7500   -1.2990    0.0000 C   0  0  0  0  0  0  0  0  0  0  0  0
    1.5000    0.0000    0.0000 C   0  0  0  0  0  0  0  0  0  0  0  0
    0.7500    1.2990    0.0000 C   0  0  0  0  0  0  0  0  0  0  0  0
   -0.7500    1.2990    0.0000 C   0  0  0  0  0  0  0  0  0  0  0  0
   -1.5000    2.5981    0.0000 Cl  0  0  0  0  0  0  0  0  0  0  0  0
   -1.5000    0.0000    0.0000 C   0  0  0  0  0  0  0  0  0  0  0  0
   -0.7500   -1.2990    0.0000 C   0  0  0  0  0  0  0  0  0  0  0  0
   -1.5000   -2.5981    0.0000 Cl  0  0  0  0  0  0  0  0  0  0  0  0
    0.7500   -9.0933    0.0000 C   0  0  0  0  0  0  0  0  0  0  0  0
   -0.7500   -9.0933    0.0000 C   0  0  0  0  0  0  0  0  0  0  0  0
   -1.5000  -10.3923    0.0000 C   0  0  0  0  0  0  0  0  0  0  0  0
   -0.7500  -11.6913    0.0000 C   0  0  0  0  0  0  0  0  0  0  0  0
    0.7500  -11.6913    0.0000 C   0  0  0  0  0  0  0  0  0  0  0  0
    1.5000  -12.9904    0.0000 Br  0  0  0  0  0  0  0  0  0  0  0  0
    1.5000  -10.3923    0.0000 C   0  0  0  0  0  0  0  0  0  0  0  0
  2  1  1  1
  2  3  1  0
  3  4  1  0
  4  5  1  0
  5  6  1  0
  6  7  1  0
  7  8  2  0
  8  9  1  0
  9 10  2  0
 10 11  1  0
 10 12  1  0
 12 13  2  0
 13 14  1  0
  2 15  1  0
 15 16  2  0
 16 17  1  0
 17 18  2  0
 18 19  1  0
 19 20  1  0
 19 21  2  0
 13  7  1  0
 21 15  1  0
M  CHG  1   4   1
M  END
>  <Compound_ID>  (239) 
C37860092

>  <Active>  (239) 
0

>  <Smiles>  (239) 
O[C@H](C[NH2+]CCc1ccc(Cl)cc1Cl)c1cccc(Br)c1

>  <canonical_smi>  (239) 
O[C@H](C[NH2+]CCc1ccc(Cl)cc1Cl)c1cccc(Br)c1

>  <Set>  (239) 
G2 inactive

>  <Set_type>  (239) 
Train

>  <MW>  (239) 
390.13

>  <HBD>  (239) 
2

>  <HBA>  (239) 
1

>  <NRB>  (239) 
6

>  <NR>  (239) 
2

>  <NAR>  (239) 
2

>  <PSA>  (239) 
36.84

>  <Standard Type>  (239) 
nan

>  <Standard Relation>  (239) 
nan

>  <Standard Units>  (239) 
nan

>  <Standard Value>  (239) 
nan

>  <Assay ChEMBL ID>  (239) 
nan

>  <Assay Description>  (239) 
nan

>  <BAO Label>  (239) 
nan

$$$$

     RDKit          2D

 21 23  0  0  0  0  0  0  0  0999 V2000
    4.2558    4.6904    0.0000 C   0  0  0  0  0  0  0  0  0  0  0  0
    2.7886    4.3786    0.0000 C   0  0  0  0  0  0  0  0  0  0  0  0
    2.3250    2.9520    0.0000 C   0  0  0  0  0  0  0  0  0  0  0  0
    3.3287    1.8373    0.0000 N   0  0  0  0  0  0  0  0  0  0  0  0
    0.8578    2.6401    0.0000 C   0  0  0  0  0  0  0  0  0  0  0  0
    0.3943    1.2135    0.0000 C   0  0  0  0  0  0  0  0  0  0  0  0
    1.2760    0.0000    0.0000 C   0  0  0  0  0  0  0  0  0  0  0  0
    0.3943   -1.2135    0.0000 C   0  0  0  0  0  0  0  0  0  0  0  0
   -1.0323   -0.7500    0.0000 C   0  0  0  0  0  0  0  0  0  0  0  0
   -2.2458   -1.6317    0.0000 Br  0  0  0  0  0  0  0  0  0  0  0  0
   -1.0323    0.7500    0.0000 S   0  0  0  0  0  0  0  0  0  0  0  0
   -0.1459    3.7548    0.0000 N   0  0  0  0  0  4  0  0  0  0  0  0
    0.3177    5.1814    0.0000 C   0  0  0  0  0  0  0  0  0  0  0  0
   -0.6860    6.2961    0.0000 C   0  0  0  0  0  0  0  0  0  0  0  0
   -2.1778    6.1393    0.0000 C   0  0  0  0  0  0  0  0  0  0  0  0
   -2.7879    7.5097    0.0000 C   0  0  0  0  0  0  0  0  0  0  0  0
   -1.6732    8.5134    0.0000 S   0  0  0  0  0  0  0  0  0  0  0  0
   -0.3742    7.7634    0.0000 C   0  0  0  0  0  0  0  0  0  0  0  0
   -1.6131    3.4430    0.0000 C   0  0  0  0  0  0  0  0  0  0  0  0
   -2.7278    2.4393    0.0000 C   0  0  0  0  0  0  0  0  0  0  0  0
   -3.0397    3.9065    0.0000 C   0  0  0  0  0  0  0  0  0  0  0  0
  1  2  1  0
  2  3  1  0
  3  4  1  6
  3  5  1  0
  5  6  1  0
  6  7  2  0
  7  8  1  0
  8  9  2  0
  9 10  1  0
  9 11  1  0
  5 12  1  1
 12 13  1  0
 13 14  1  0
 14 15  1  0
 15 16  2  0
 16 17  1  0
 17 18  1  0
 12 19  1  0
 19 20  1  0
 20 21  1  0
 11  6  1  0
 18 14  2  0
 21 19  1  0
M  CHG  1  12   1
M  END
>  <Compound_ID>  (240) 
C43261749

>  <Active>  (240) 
0

>  <Smiles>  (240) 
CC[C@H](N)[C@@H](c1ccc(Br)s1)[NH+](Cc1ccsc1)C1CC1

>  <canonical_smi>  (240) 
CC[C@H](N)[C@@H](c1ccc(Br)s1)[NH+](Cc1ccsc1)C1CC1

>  <Set>  (240) 
G2 inactive

>  <Set_type>  (240) 
Train

>  <MW>  (240) 
386.4

>  <HBD>  (240) 
2

>  <HBA>  (240) 
1

>  <NRB>  (240) 
7

>  <NR>  (240) 
3

>  <NAR>  (240) 
2

>  <PSA>  (240) 
30.46

>  <Standard Type>  (240) 
nan

>  <Standard Relation>  (240) 
nan

>  <Standard Units>  (240) 
nan

>  <Standard Value>  (240) 
nan

>  <Assay ChEMBL ID>  (240) 
nan

>  <Assay Description>  (240) 
nan

>  <BAO Label>  (240) 
nan

$$$$

     RDKit          2D

 20 21  0  0  0  0  0  0  0  0999 V2000
    1.5000   -5.1962    0.0000 C   0  0  0  0  0  0  0  0  0  0  0  0
    0.7500   -3.8971    0.0000 N   0  0  0  0  0  0  0  0  0  0  0  0
    1.5000   -2.5981    0.0000 C   0  0  0  0  0  0  0  0  0  0  0  0
    3.0000   -2.5981    0.0000 C   0  0  0  0  0  0  0  0  0  0  0  0
    3.7500   -1.2990    0.0000 C   0  0  0  0  0  0  0  0  0  0  0  0
    5.2500   -1.2990    0.0000 C   0  0  0  0  0  0  0  0  0  0  0  0
    6.0000   -2.5981    0.0000 C   0  0  0  0  0  0  0  0  0  0  0  0
    5.2500   -3.8971    0.0000 C   0  0  0  0  0  0  0  0  0  0  0  0
    3.7500   -3.8971    0.0000 C   0  0  0  0  0  0  0  0  0  0  0  0
    3.0000   -5.1962    0.0000 Br  0  0  0  0  0  0  0  0  0  0  0  0
   -0.7500   -3.8971    0.0000 C   0  0  0  0  0  0  0  0  0  0  0  0
   -1.5000   -2.5981    0.0000 C   0  0  0  0  0  0  0  0  0  0  0  0
   -3.0000   -2.5981    0.0000 N   0  0  0  0  0  4  0  0  0  0  0  0
   -1.5000   -5.1962    0.0000 C   0  0  0  0  0  0  0  0  0  0  0  0
   -3.0000   -5.1962    0.0000 C   0  0  0  0  0  0  0  0  0  0  0  0
   -3.7500   -6.4952    0.0000 C   0  0  0  0  0  0  0  0  0  0  0  0
   -3.0000   -7.7942    0.0000 C   0  0  0  0  0  0  0  0  0  0  0  0
   -1.5000   -7.7942    0.0000 C   0  0  0  0  0  0  0  0  0  0  0  0
   -0.7500   -6.4952    0.0000 C   0  0  0  0  0  0  0  0  0  0  0  0
    0.7500   -6.4952    0.0000 Br  0  0  0  0  0  0  0  0  0  0  0  0
  1  2  1  0
  2  3  1  0
  3  4  1  0
  4  5  2  0
  5  6  1  0
  6  7  2  0
  7  8  1  0
  8  9  2  0
  9 10  1  0
  2 11  1  0
 11 12  1  6
 12 13  1  0
 11 14  1  0
 14 15  2  0
 15 16  1  0
 16 17  2  0
 17 18  1  0
 18 19  2  0
 19 20  1  0
  9  4  1  0
 19 14  1  0
M  CHG  1  13   1
M  END
>  <Compound_ID>  (241) 
C48892233

>  <Active>  (241) 
0

>  <Smiles>  (241) 
CN(Cc1ccccc1Br)[C@@H](C[NH3+])c1ccccc1Br

>  <canonical_smi>  (241) 
CN(Cc1ccccc1Br)[C@@H](C[NH3+])c1ccccc1Br

>  <Set>  (241) 
G2 inactive

>  <Set_type>  (241) 
Train

>  <MW>  (241) 
399.15

>  <HBD>  (241) 
1

>  <HBA>  (241) 
1

>  <NRB>  (241) 
5

>  <NR>  (241) 
2

>  <NAR>  (241) 
2

>  <PSA>  (241) 
30.88

>  <Standard Type>  (241) 
nan

>  <Standard Relation>  (241) 
nan

>  <Standard Units>  (241) 
nan

>  <Standard Value>  (241) 
nan

>  <Assay ChEMBL ID>  (241) 
nan

>  <Assay Description>  (241) 
nan

>  <BAO Label>  (241) 
nan

$$$$

     RDKit          2D

 28 31  0  0  0  0  0  0  0  0999 V2000
    3.0000    0.0000    0.0000 O   0  0  0  0  0  0  0  0  0  0  0  0
    1.5000    0.0000    0.0000 C   0  0  0  0  0  0  0  0  0  0  0  0
    0.7500   -1.2990    0.0000 C   0  0  0  0  0  0  0  0  0  0  0  0
   -0.7500   -1.2990    0.0000 C   0  0  0  0  0  0  0  0  0  0  0  0
   -1.5000    0.0000    0.0000 C   0  0  0  0  0  0  0  0  0  0  0  0
   -0.7500    1.2990    0.0000 C   0  0  0  0  0  0  0  0  0  0  0  0
    0.7500    1.2990    0.0000 N   0  0  0  0  0  0  0  0  0  0  0  0
   -1.5000    2.5981    0.0000 C   0  0  0  0  0  0  0  0  0  0  0  0
   -3.0000    2.5981    0.0000 C   0  0  0  0  0  0  0  0  0  0  0  0
   -3.7500    1.2990    0.0000 C   0  0  0  0  0  0  0  0  0  0  0  0
   -3.0000    0.0000    0.0000 C   0  0  0  0  0  0  0  0  0  0  0  0
   -3.7500   -1.2990    0.0000 N   0  0  0  0  0  4  0  0  0  0  0  0
   -5.2500   -1.2990    0.0000 C   0  0  0  0  0  0  0  0  0  0  0  0
   -6.0000   -2.5981    0.0000 C   0  0  0  0  0  0  0  0  0  0  0  0
   -7.5000   -2.5981    0.0000 C   0  0  0  0  0  0  0  0  0  0  0  0
   -8.2500   -3.8971    0.0000 C   0  0  0  0  0  0  0  0  0  0  0  0
   -7.5000   -5.1962    0.0000 C   0  0  0  0  0  0  0  0  0  0  0  0
   -8.2500   -6.4952    0.0000 O   0  0  0  0  0  0  0  0  0  0  0  0
   -9.7500   -6.4952    0.0000 C   0  0  0  0  0  0  0  0  0  0  0  0
  -10.5000   -5.1962    0.0000 C   0  0  0  0  0  0  0  0  0  0  0  0
  -12.0000   -5.1962    0.0000 C   0  0  0  0  0  0  0  0  0  0  0  0
  -12.7500   -3.8971    0.0000 F   0  0  0  0  0  0  0  0  0  0  0  0
  -12.7500   -6.4952    0.0000 C   0  0  0  0  0  0  0  0  0  0  0  0
  -12.0000   -7.7942    0.0000 C   0  0  0  0  0  0  0  0  0  0  0  0
  -12.7500   -9.0933    0.0000 F   0  0  0  0  0  0  0  0  0  0  0  0
  -10.5000   -7.7942    0.0000 C   0  0  0  0  0  0  0  0  0  0  0  0
   -6.0000   -5.1962    0.0000 C   0  0  0  0  0  0  0  0  0  0  0  0
   -5.2500   -3.8971    0.0000 C   0  0  0  0  0  0  0  0  0  0  0  0
  1  2  2  0
  2  3  1  0
  3  4  2  0
  4  5  1  0
  5  6  2  0
  6  7  1  0
  6  8  1  0
  8  9  1  0
  9 10  1  0
 10 11  1  0
 11 12  1  1
 12 13  1  0
 13 14  1  0
 14 15  2  0
 15 16  1  0
 16 17  2  0
 17 18  1  0
 18 19  1  0
 19 20  2  0
 20 21  1  0
 21 22  1  0
 21 23  2  0
 23 24  1  0
 24 25  1  0
 24 26  2  0
 17 27  1  0
 27 28  2  0
  7  2  1  0
 28 14  1  0
 11  5  1  0
 26 19  1  0
M  CHG  1  12   1
M  END
>  <Compound_ID>  (242) 
C67504122

>  <Active>  (242) 
0

>  <Smiles>  (242) 
O=c1ccc2c([nH]1)CCC[C@@H]2[NH2+]Cc1ccc(Oc2cc(F)cc(F)c2)cc1

>  <canonical_smi>  (242) 
O=c1ccc2c([nH]1)CCC[C@@H]2[NH2+]Cc1ccc(Oc2cc(F)cc(F)c2)cc1

>  <Set>  (242) 
G2 inactive

>  <Set_type>  (242) 
Train

>  <MW>  (242) 
383.42

>  <HBD>  (242) 
2

>  <HBA>  (242) 
2

>  <NRB>  (242) 
5

>  <NR>  (242) 
4

>  <NAR>  (242) 
3

>  <PSA>  (242) 
58.7

>  <Standard Type>  (242) 
nan

>  <Standard Relation>  (242) 
nan

>  <Standard Units>  (242) 
nan

>  <Standard Value>  (242) 
nan

>  <Assay ChEMBL ID>  (242) 
nan

>  <Assay Description>  (242) 
nan

>  <BAO Label>  (242) 
nan

$$$$

     RDKit          2D

 27 30  0  0  0  0  0  0  0  0999 V2000
   -1.5000  -10.3923    0.0000 C   0  0  0  0  0  0  0  0  0  0  0  0
   -0.7500   -9.0933    0.0000 C   0  0  0  0  0  0  0  0  0  0  0  0
    0.7500   -9.0933    0.0000 O   0  0  0  0  0  0  0  0  0  0  0  0
    1.5000   -7.7942    0.0000 C   0  0  0  0  0  0  0  0  0  0  0  0
    0.7500   -6.4952    0.0000 C   0  0  0  0  0  0  0  0  0  0  0  0
    1.5000   -5.1962    0.0000 C   0  0  0  0  0  0  0  0  0  0  0  0
    0.7500   -3.8971    0.0000 C   0  0  0  0  0  0  0  0  0  0  0  0
    1.5000   -2.5981    0.0000 N   0  0  0  0  0  4  0  0  0  0  0  0
    0.7500   -1.2990    0.0000 C   0  0  0  0  0  0  0  0  0  0  0  0
    1.5000    0.0000    0.0000 C   0  0  0  0  0  0  0  0  0  0  0  0
    0.7500    1.2990    0.0000 C   0  0  0  0  0  0  0  0  0  0  0  0
   -0.7500    1.2990    0.0000 C   0  0  0  0  0  0  0  0  0  0  0  0
   -1.5000    0.0000    0.0000 C   0  0  0  0  0  0  0  0  0  0  0  0
    1.7010   -0.7500    0.0000 C   0  0  0  0  0  0  0  0  0  0  0  0
    3.0000   -0.0000    0.0000 C   0  0  0  0  0  0  0  0  0  0  0  0
    2.2500    1.2990    0.0000 C   0  0  0  0  0  0  0  0  0  0  0  0
    2.2500   -1.2990    0.0000 C   0  0  0  0  0  0  0  0  0  0  0  0
   -0.7500   -1.2990    0.0000 C   0  0  0  0  0  0  0  0  0  0  0  0
    3.0000   -5.1962    0.0000 C   0  0  0  0  0  0  0  0  0  0  0  0
    3.7500   -3.8971    0.0000 Br  0  0  0  0  0  0  0  0  0  0  0  0
    3.7500   -6.4952    0.0000 C   0  0  0  0  0  0  0  0  0  0  0  0
    3.0000   -7.7942    0.0000 C   0  0  0  0  0  0  0  0  0  0  0  0
    3.7500   -9.0933    0.0000 O   0  0  0  0  0  0  0  0  0  0  0  0
    5.2500   -9.0933    0.0000 C   0  0  0  0  0  0  0  0  0  0  0  0
    6.0000  -10.3923    0.0000 C   0  0  0  0  0  0  0  0  0  0  0  0
    7.5000  -10.3923    0.0000 N   0  0  0  0  0  0  0  0  0  0  0  0
    5.2500  -11.6913    0.0000 O   0  0  0  0  0  0  0  0  0  0  0  0
  1  2  1  0
  2  3  1  0
  3  4  1  0
  4  5  2  0
  5  6  1  0
  6  7  1  0
  7  8  1  0
  8  9  1  0
  9 10  1  0
 10 11  1  0
 11 12  1  0
 12 13  1  0
 13 14  1  0
 14 15  1  0
 15 16  1  0
 15 17  1  0
 13 18  1  0
  6 19  2  0
 19 20  1  0
 19 21  1  0
 21 22  2  0
 22 23  1  0
 23 24  1  0
 24 25  1  0
 25 26  1  0
 25 27  2  0
 22  4  1  0
 17  9  1  0
 18  9  1  0
 16 11  1  0
M  CHG  1   8   1
M  END
>  <Compound_ID>  (243) 
C36612887

>  <Active>  (243) 
0

>  <Smiles>  (243) 
CCOc1cc(C[NH2+]C23CC4CC(CC(C4)C2)C3)c(Br)cc1OCC(N)=O

>  <canonical_smi>  (243) 
CCOc1cc(C[NH2+]C23CC4CC(CC(C4)C2)C3)c(Br)cc1OCC(N)=O

>  <Set>  (243) 
G2 inactive

>  <Set_type>  (243) 
Train

>  <MW>  (243) 
438.39

>  <HBD>  (243) 
2

>  <HBA>  (243) 
3

>  <NRB>  (243) 
8

>  <NR>  (243) 
5

>  <NAR>  (243) 
1

>  <PSA>  (243) 
78.16

>  <Standard Type>  (243) 
nan

>  <Standard Relation>  (243) 
nan

>  <Standard Units>  (243) 
nan

>  <Standard Value>  (243) 
nan

>  <Assay ChEMBL ID>  (243) 
nan

>  <Assay Description>  (243) 
nan

>  <BAO Label>  (243) 
nan

$$$$

     RDKit          2D

 32 37  0  0  0  0  0  0  0  0999 V2000
    5.8786  -10.3160    0.0000 C   0  0  0  0  0  0  0  0  0  0  0  0
    4.4520   -9.8525    0.0000 N   0  0  0  0  0  0  0  0  0  0  0  0
    4.1401   -8.3853    0.0000 C   0  0  0  0  0  0  0  0  0  0  0  0
    5.2548   -7.3816    0.0000 O   0  0  0  0  0  0  0  0  0  0  0  0
    2.7135   -7.9218    0.0000 C   0  0  0  0  0  0  0  0  0  0  0  0
    1.5000   -8.8035    0.0000 N   0  0  0  0  0  0  0  0  0  0  0  0
    0.2865   -7.9218    0.0000 N   0  0  0  0  0  0  0  0  0  0  0  0
   -1.1401   -8.3853    0.0000 C   0  0  0  0  0  0  0  0  0  0  0  0
   -1.4520   -9.8525    0.0000 C   0  0  0  0  0  0  0  0  0  0  0  0
   -2.8786  -10.3160    0.0000 C   0  0  0  0  0  0  0  0  0  0  0  0
   -3.1904  -11.7833    0.0000 C   0  0  0  0  0  0  0  0  0  0  0  0
   -2.0757  -12.7870    0.0000 C   0  0  0  0  0  0  0  0  0  0  0  0
   -0.6491  -12.3234    0.0000 C   0  0  0  0  0  0  0  0  0  0  0  0
   -0.3373  -10.8562    0.0000 C   0  0  0  0  0  0  0  0  0  0  0  0
    0.7500   -6.4952    0.0000 C   0  0  0  0  0  0  0  0  0  0  0  0
    2.2500   -6.4952    0.0000 C   0  0  0  0  0  0  0  0  0  0  0  0
    3.0000   -5.1962    0.0000 C   0  0  0  0  0  0  0  0  0  0  0  0
    2.2500   -3.8971    0.0000 C   0  0  0  0  0  0  0  0  0  0  0  0
    3.0000   -2.5981    0.0000 N   0  0  0  0  0  4  0  0  0  0  0  0
    2.2500   -1.2990    0.0000 C   0  0  0  0  0  0  0  0  0  0  0  0
    0.7500   -1.2990    0.0000 C   0  0  0  0  0  0  0  0  0  0  0  0
    1.5000    0.0000    0.0000 C   0  0  0  0  0  0  0  0  0  0  0  0
    0.7500    1.2990    0.0000 C   0  0  0  0  0  0  0  0  0  0  0  0
    2.2500    1.2990    0.0000 C   0  0  0  0  0  0  0  0  0  0  0  0
    3.0000   -0.0000    0.0000 C   0  0  0  0  0  0  0  0  0  0  0  0
   -0.2010    0.7500    0.0000 C   0  0  0  0  0  0  0  0  0  0  0  0
   -1.5000    0.0000    0.0000 C   0  0  0  0  0  0  0  0  0  0  0  0
   -3.0000    0.0000    0.0000 O   0  0  0  0  0  0  0  0  0  0  0  0
   -0.7500    1.2990    0.0000 C   0  0  0  0  0  0  0  0  0  0  0  0
   -0.7500   -1.2990    0.0000 C   0  0  0  0  0  0  0  0  0  0  0  0
    0.7500   -3.8971    0.0000 C   0  0  0  0  0  0  0  0  0  0  0  0
   -0.0000   -5.1962    0.0000 C   0  0  0  0  0  0  0  0  0  0  0  0
  1  2  1  0
  2  3  1  0
  3  4  2  0
  3  5  1  0
  5  6  2  0
  6  7  1  0
  7  8  1  0
  8  9  1  0
  9 10  1  0
 10 11  1  0
 11 12  1  0
 12 13  1  0
 13 14  1  0
  7 15  1  0
 15 16  2  0
 16 17  1  0
 17 18  1  0
 18 19  1  1
 19 20  1  0
 20 21  1  0
 21 22  1  6
 22 23  1  0
 23 24  1  0
 25 24  1  6
 25 26  1  0
 26 27  1  0
 27 28  1  0
 27 29  1  0
 27 30  1  0
 18 31  1  0
 31 32  1  0
 16  5  1  0
 25 20  1  0
 14  9  1  0
 32 15  1  0
 30 21  1  0
 29 23  1  0
M  CHG  1  19   1
M  END
>  <Compound_ID>  (244) 
C14751746

>  <Active>  (244) 
0

>  <Smiles>  (244) 
CNC(=O)c1nn(CC2CCCCC2)c2c1C[C@H]([NH2+]C1[C@@H]3CC4C[C@H]1CC(O)(C4)C3)CC2

>  <canonical_smi>  (244) 
CNC(=O)c1nn(CC2CCCCC2)c2c1C[C@H]([NH2+]C1[C@H]3CC4C[C@@H]1CC(O)(C4)C3)CC2

>  <Set>  (244) 
G2 inactive

>  <Set_type>  (244) 
Train

>  <MW>  (244) 
441.64

>  <HBD>  (244) 
3

>  <HBA>  (244) 
3

>  <NRB>  (244) 
5

>  <NR>  (244) 
7

>  <NAR>  (244) 
1

>  <PSA>  (244) 
83.76

>  <Standard Type>  (244) 
nan

>  <Standard Relation>  (244) 
nan

>  <Standard Units>  (244) 
nan

>  <Standard Value>  (244) 
nan

>  <Assay ChEMBL ID>  (244) 
nan

>  <Assay Description>  (244) 
nan

>  <BAO Label>  (244) 
nan

$$$$

     RDKit          2D

 29 31  0  0  0  0  0  0  0  0999 V2000
    0.7500   -9.0933    0.0000 C   0  0  0  0  0  0  0  0  0  0  0  0
    1.5000   -7.7942    0.0000 C   0  0  0  0  0  0  0  0  0  0  0  0
    0.7500   -6.4952    0.0000 O   0  0  0  0  0  0  0  0  0  0  0  0
    1.5000   -5.1962    0.0000 N   0  0  0  0  0  0  0  0  0  0  0  0
    0.7500   -3.8971    0.0000 C   0  0  0  0  0  0  0  0  0  0  0  0
    1.5000   -2.5981    0.0000 C   0  0  0  0  0  0  0  0  0  0  0  0
    0.7500   -1.2990    0.0000 C   0  0  0  0  0  0  0  0  0  0  0  0
    1.5000    0.0000    0.0000 C   0  0  0  0  0  0  0  0  0  0  0  0
    0.7500    1.2990    0.0000 C   0  0  0  0  0  0  0  0  0  0  0  0
   -0.7500    1.2990    0.0000 C   0  0  0  0  0  0  0  0  0  0  0  0
   -1.5000    2.5981    0.0000 C   0  0  0  0  0  0  0  0  0  0  0  0
   -0.7500    3.8971    0.0000 C   0  0  0  0  0  0  0  0  0  0  0  0
   -1.5000    5.1962    0.0000 C   0  0  0  0  0  0  0  0  0  0  0  0
    0.7500    3.8971    0.0000 C   0  0  0  0  0  0  0  0  0  0  0  0
   -1.5000    0.0000    0.0000 C   0  0  0  0  0  0  0  0  0  0  0  0
   -0.7500   -1.2990    0.0000 C   0  0  0  0  0  0  0  0  0  0  0  0
    3.0000   -2.5981    0.0000 N   0  0  0  0  0  0  0  0  0  0  0  0
    3.7500   -3.8971    0.0000 C   0  0  0  0  0  0  0  0  0  0  0  0
    5.2500   -3.8971    0.0000 C   0  0  0  0  0  0  0  0  0  0  0  0
    6.0000   -2.5981    0.0000 N   0  0  0  0  0  4  0  0  0  0  0  0
    5.2500   -1.2990    0.0000 C   0  0  0  0  0  0  0  0  0  0  0  0
    6.0000   -0.0000    0.0000 C   0  0  0  0  0  0  0  0  0  0  0  0
    7.5000   -0.0000    0.0000 C   0  0  0  0  0  0  0  0  0  0  0  0
    8.2500    1.2990    0.0000 C   0  0  0  0  0  0  0  0  0  0  0  0
    7.5000    2.5981    0.0000 C   0  0  0  0  0  0  0  0  0  0  0  0
    6.0000    2.5981    0.0000 C   0  0  0  0  0  0  0  0  0  0  0  0
    5.2500    1.2990    0.0000 C   0  0  0  0  0  0  0  0  0  0  0  0
    3.7500    1.2990    0.0000 O   0  0  0  0  0  0  0  0  0  0  0  0
    3.7500   -1.2990    0.0000 C   0  0  0  0  0  0  0  0  0  0  0  0
  1  2  1  0
  2  3  1  0
  3  4  1  0
  4  5  1  0
  6  5  1  6
  6  7  1  0
  7  8  2  0
  8  9  1  0
  9 10  2  0
 10 11  1  0
 11 12  1  0
 12 13  1  0
 12 14  1  0
 10 15  1  0
 15 16  2  0
  6 17  1  0
 17 18  1  0
 18 19  1  0
 19 20  1  0
 20 21  1  0
 21 22  1  1
 22 23  2  0
 23 24  1  0
 24 25  2  0
 25 26  1  0
 26 27  2  0
 27 28  1  0
 21 29  1  0
 16  7  1  0
 29 17  1  0
 27 22  1  0
M  CHG  1  20   1
M  END
>  <Compound_ID>  (245) 
C39533345

>  <Active>  (245) 
0

>  <Smiles>  (245) 
CCONC[C@H](c1ccc(CC(C)C)cc1)N1CC[NH2+][C@H](c2ccccc2O)C1

>  <canonical_smi>  (245) 
CCONC[C@H](c1ccc(CC(C)C)cc1)N1CC[NH2+][C@H](c2ccccc2O)C1

>  <Set>  (245) 
G2 inactive

>  <Set_type>  (245) 
Train

>  <MW>  (245) 
398.57

>  <HBD>  (245) 
3

>  <HBA>  (245) 
4

>  <NRB>  (245) 
9

>  <NR>  (245) 
3

>  <NAR>  (245) 
2

>  <PSA>  (245) 
61.34

>  <Standard Type>  (245) 
nan

>  <Standard Relation>  (245) 
nan

>  <Standard Units>  (245) 
nan

>  <Standard Value>  (245) 
nan

>  <Assay ChEMBL ID>  (245) 
nan

>  <Assay Description>  (245) 
nan

>  <BAO Label>  (245) 
nan

$$$$

     RDKit          2D

 26 27  0  0  0  0  0  0  0  0999 V2000
   -0.0000   -5.1073    0.0000 C   0  0  0  0  0  0  0  0  0  0  0  0
   -0.0000   -3.6073    0.0000 C   0  0  0  0  0  0  0  0  0  0  0  0
    1.2135   -2.7256    0.0000 C   0  0  0  0  0  0  0  0  0  0  0  0
    0.7500   -1.2990    0.0000 C   0  0  0  0  0  0  0  0  0  0  0  0
    1.5000    0.0000    0.0000 C   0  0  0  0  0  0  0  0  0  0  0  0
    0.7500    1.2990    0.0000 C   0  0  0  0  0  0  0  0  0  0  0  0
    1.5000    2.5981    0.0000 S   0  0  0  0  0  0  0  0  0  0  0  0
    2.2500    3.8971    0.0000 N   0  0  0  0  0  0  0  0  0  0  0  0
    2.7990    1.8481    0.0000 O   0  0  0  0  0  0  0  0  0  0  0  0
    0.2010    3.3481    0.0000 O   0  0  0  0  0  0  0  0  0  0  0  0
   -0.7500    1.2990    0.0000 C   0  0  0  0  0  0  0  0  0  0  0  0
   -1.5000    0.0000    0.0000 C   0  0  0  0  0  0  0  0  0  0  0  0
   -0.7500   -1.2990    0.0000 C   0  0  0  0  0  0  0  0  0  0  0  0
   -1.2135   -2.7256    0.0000 N   0  0  0  0  0  0  0  0  0  0  0  0
   -2.6401   -3.1891    0.0000 C   0  0  0  0  0  0  0  0  0  0  0  0
   -2.9520   -4.6564    0.0000 O   0  0  0  0  0  0  0  0  0  0  0  0
   -3.7548   -2.1855    0.0000 C   0  0  0  0  0  0  0  0  0  0  0  0
   -5.1814   -2.6490    0.0000 N   0  0  0  0  0  4  0  0  0  0  0  0
   -6.2961   -1.6453    0.0000 C   0  0  0  0  0  0  0  0  0  0  0  0
   -7.2998   -2.7600    0.0000 C   0  0  0  0  0  0  0  0  0  0  0  0
   -5.2924   -0.5306    0.0000 C   0  0  0  0  0  0  0  0  0  0  0  0
   -7.4108   -0.6416    0.0000 C   0  0  0  0  0  0  0  0  0  0  0  0
   -7.0990    0.8256    0.0000 C   0  0  0  0  0  0  0  0  0  0  0  0
   -8.5662    1.1375    0.0000 C   0  0  0  0  0  0  0  0  0  0  0  0
   -5.6318    0.5138    0.0000 C   0  0  0  0  0  0  0  0  0  0  0  0
   -6.7871    2.2929    0.0000 C   0  0  0  0  0  0  0  0  0  0  0  0
  2  1  1  6
  2  3  1  0
  3  4  1  0
  4  5  2  0
  5  6  1  0
  6  7  1  0
  7  8  1  0
  7  9  2  0
  7 10  2  0
  6 11  2  0
 11 12  1  0
 12 13  2  0
 13 14  1  0
 14 15  1  0
 15 16  2  0
 15 17  1  0
 17 18  1  0
 18 19  1  0
 19 20  1  0
 19 21  1  0
 19 22  1  0
 22 23  1  0
 23 24  1  0
 23 25  1  0
 23 26  1  0
 14  2  1  0
 13  4  1  0
M  CHG  1  18   1
M  END
>  <Compound_ID>  (246) 
C53123717

>  <Active>  (246) 
0

>  <Smiles>  (246) 
C[C@H]1Cc2cc(S(N)(=O)=O)ccc2N1C(=O)C[NH2+]C(C)(C)CC(C)(C)C

>  <canonical_smi>  (246) 
C[C@H]1Cc2cc(S(N)(=O)=O)ccc2N1C(=O)C[NH2+]C(C)(C)CC(C)(C)C

>  <Set>  (246) 
G2 inactive

>  <Set_type>  (246) 
Train

>  <MW>  (246) 
382.55

>  <HBD>  (246) 
2

>  <HBA>  (246) 
3

>  <NRB>  (246) 
5

>  <NR>  (246) 
2

>  <NAR>  (246) 
1

>  <PSA>  (246) 
97.08

>  <Standard Type>  (246) 
nan

>  <Standard Relation>  (246) 
nan

>  <Standard Units>  (246) 
nan

>  <Standard Value>  (246) 
nan

>  <Assay ChEMBL ID>  (246) 
nan

>  <Assay Description>  (246) 
nan

>  <BAO Label>  (246) 
nan

$$$$

     RDKit          2D

 33 36  0  0  0  0  0  0  0  0999 V2000
    3.0000    0.0000    0.0000 C   0  0  0  0  0  0  0  0  0  0  0  0
    1.5000    0.0000    0.0000 C   0  0  0  0  0  0  0  0  0  0  0  0
    0.7500   -1.2990    0.0000 C   0  0  0  0  0  0  0  0  0  0  0  0
   -0.7500   -1.2990    0.0000 C   0  0  0  0  0  0  0  0  0  0  0  0
   -1.5000    0.0000    0.0000 C   0  0  0  0  0  0  0  0  0  0  0  0
   -0.7500    1.2990    0.0000 C   0  0  0  0  0  0  0  0  0  0  0  0
   -1.5000    2.5981    0.0000 C   0  0  0  0  0  0  0  0  0  0  0  0
    0.7500    1.2990    0.0000 C   0  0  0  0  0  0  0  0  0  0  0  0
    1.5000    2.5981    0.0000 N   0  0  0  0  0  0  0  0  0  0  0  0
    3.0000    2.5981    0.0000 C   0  0  0  0  0  0  0  0  0  0  0  0
    3.7500    3.8971    0.0000 C   0  0  0  0  0  0  0  0  0  0  0  0
    3.0000    5.1962    0.0000 N   0  0  0  0  0  0  0  0  0  0  0  0
    3.7500    6.4952    0.0000 C   0  0  0  0  0  0  0  0  0  0  0  0
    5.2500    6.4952    0.0000 N   0  0  0  0  0  0  0  0  0  0  0  0
    6.0000    7.7942    0.0000 C   0  0  0  0  0  0  0  0  0  0  0  0
    7.5000    7.7942    0.0000 O   0  0  0  0  0  0  0  0  0  0  0  0
    8.2500    6.4952    0.0000 C   0  0  0  0  0  0  0  0  0  0  0  0
    7.5000    5.1962    0.0000 C   0  0  0  0  0  0  0  0  0  0  0  0
    8.2500    3.8971    0.0000 C   0  0  0  0  0  0  0  0  0  0  0  0
    9.7500    3.8971    0.0000 C   0  0  0  0  0  0  0  0  0  0  0  0
   10.5000    5.1962    0.0000 C   0  0  0  0  0  0  0  0  0  0  0  0
   12.0000    5.1962    0.0000 C   0  0  0  0  0  0  0  0  0  0  0  0
   12.7500    3.8971    0.0000 N   0  0  0  0  0  0  0  0  0  0  0  0
   12.7500    6.4952    0.0000 N   0  0  0  0  0  4  0  0  0  0  0  0
    9.7500    6.4952    0.0000 C   0  0  0  0  0  0  0  0  0  0  0  0
    5.2500    9.0933    0.0000 C   0  0  0  0  0  0  0  0  0  0  0  0
    6.0000   10.3923    0.0000 F   0  0  0  0  0  0  0  0  0  0  0  0
    3.7500    9.0933    0.0000 C   0  0  0  0  0  0  0  0  0  0  0  0
    3.0000   10.3923    0.0000 C   0  0  0  0  0  0  0  0  0  0  0  0
    3.0000    7.7942    0.0000 C   0  0  0  0  0  0  0  0  0  0  0  0
    1.5000    7.7942    0.0000 F   0  0  0  0  0  0  0  0  0  0  0  0
    1.5000    5.1962    0.0000 C   0  0  0  0  0  0  0  0  0  0  0  0
    0.7500    3.8971    0.0000 C   0  0  0  0  0  0  0  0  0  0  0  0
  1  2  1  0
  2  3  2  0
  3  4  1  0
  4  5  2  0
  5  6  1  0
  6  7  1  0
  6  8  2  0
  8  9  1  0
  9 10  1  0
 10 11  1  0
 11 12  1  0
 12 13  1  0
 13 14  2  0
 14 15  1  0
 15 16  1  0
 16 17  1  0
 17 18  2  0
 18 19  1  0
 19 20  2  0
 20 21  1  0
 21 22  1  0
 22 23  1  0
 22 24  2  0
 21 25  2  0
 15 26  2  0
 26 27  1  0
 26 28  1  0
 28 29  1  0
 28 30  2  0
 30 31  1  0
 12 32  1  0
 32 33  1  0
  8  2  1  0
 33  9  1  0
 30 13  1  0
 25 17  1  0
M  CHG  1  24   1
M  END
>  <Compound_ID>  (247) 
C29549476

>  <Active>  (247) 
0

>  <Smiles>  (247) 
Cc1cccc(C)c1N1CCN(c2nc(Oc3cccc(C(N)=[NH2+])c3)c(F)c(C)c2F)CC1

>  <canonical_smi>  (247) 
Cc1cccc(C)c1N1CCN(c2nc(Oc3cccc(C(N)=[NH2+])c3)c(F)c(C)c2F)CC1

>  <Set>  (247) 
G2 inactive

>  <Set_type>  (247) 
Train

>  <MW>  (247) 
452.53

>  <HBD>  (247) 
2

>  <HBA>  (247) 
5

>  <NRB>  (247) 
5

>  <NR>  (247) 
4

>  <NAR>  (247) 
3

>  <PSA>  (247) 
80.21

>  <Standard Type>  (247) 
nan

>  <Standard Relation>  (247) 
nan

>  <Standard Units>  (247) 
nan

>  <Standard Value>  (247) 
nan

>  <Assay ChEMBL ID>  (247) 
nan

>  <Assay Description>  (247) 
nan

>  <BAO Label>  (247) 
nan

$$$$

     RDKit          2D

 19 20  0  0  0  0  0  0  0  0999 V2000
    3.5260   -1.2990    0.0000 C   0  0  0  0  0  0  0  0  0  0  0  0
    2.7760    0.0000    0.0000 C   0  0  0  0  0  0  0  0  0  0  0  0
    1.2760    0.0000    0.0000 C   0  0  0  0  0  0  0  0  0  0  0  0
    0.3943    1.2135    0.0000 C   0  0  0  0  0  0  0  0  0  0  0  0
    0.8578    2.6401    0.0000 C   0  0  0  0  0  0  0  0  0  0  0  0
   -1.0323    0.7500    0.0000 N   0  0  0  0  0  0  0  0  0  0  0  0
   -1.0323   -0.7500    0.0000 N   0  0  0  0  0  0  0  0  0  0  0  0
   -2.2458   -1.6317    0.0000 C   0  0  0  0  0  0  0  0  0  0  0  0
   -3.6161   -1.0216    0.0000 C   0  0  0  0  0  0  0  0  0  0  0  0
   -4.9152   -1.7716    0.0000 C   0  0  0  0  0  0  0  0  0  0  0  0
   -6.0299   -0.7679    0.0000 C   0  0  0  0  0  0  0  0  0  0  0  0
   -5.4198    0.6024    0.0000 C   0  0  0  0  0  0  0  0  0  0  0  0
   -6.1698    1.9015    0.0000 C   0  0  0  0  0  0  0  0  0  0  0  0
   -6.9198    3.2005    0.0000 C   0  0  0  0  0  0  0  0  0  0  0  0
   -7.6698    4.4996    0.0000 C   0  0  0  0  0  0  0  0  0  0  0  0
   -6.9198    5.7986    0.0000 O   0  0  0  0  0  0  0  0  0  0  0  0
   -3.9280    0.4456    0.0000 S   0  0  0  0  0  0  0  0  0  0  0  0
    0.3943   -1.2135    0.0000 C   0  0  0  0  0  0  0  0  0  0  0  0
    0.8578   -2.6401    0.0000 C   0  0  0  0  0  0  0  0  0  0  0  0
  1  2  1  0
  2  3  1  0
  3  4  1  0
  4  5  1  0
  4  6  2  0
  6  7  1  0
  7  8  1  0
  8  9  1  0
  9 10  2  0
 10 11  1  0
 11 12  2  0
 12 13  1  0
 13 14  3  0
 14 15  1  0
 15 16  1  0
 12 17  1  0
  7 18  1  0
 18 19  1  0
 18  3  2  0
 17  9  1  0
M  END
>  <Compound_ID>  (248) 
C43682368

>  <Active>  (248) 
0

>  <Smiles>  (248) 
CCc1c(C)nn(Cc2ccc(C#CCO)s2)c1C

>  <canonical_smi>  (248) 
CCc1c(C)nn(Cc2ccc(C#CCO)s2)c1C

>  <Set>  (248) 
G2 inactive

>  <Set_type>  (248) 
Train

>  <MW>  (248) 
274.39

>  <HBD>  (248) 
1

>  <HBA>  (248) 
2

>  <NRB>  (248) 
3

>  <NR>  (248) 
2

>  <NAR>  (248) 
2

>  <PSA>  (248) 
38.05

>  <Standard Type>  (248) 
nan

>  <Standard Relation>  (248) 
nan

>  <Standard Units>  (248) 
nan

>  <Standard Value>  (248) 
nan

>  <Assay ChEMBL ID>  (248) 
nan

>  <Assay Description>  (248) 
nan

>  <BAO Label>  (248) 
nan

$$$$

     RDKit          2D

 19 22  0  0  0  0  0  0  0  0999 V2000
  -10.4353    1.2152    0.0000 C   0  0  0  0  0  0  0  0  0  0  0  0
  -10.1234    2.6824    0.0000 C   0  0  0  0  0  0  0  0  0  0  0  0
   -8.6968    3.1459    0.0000 C   0  0  0  0  0  0  0  0  0  0  0  0
   -7.5821    2.1422    0.0000 C   0  0  0  0  0  0  0  0  0  0  0  0
   -6.1555    2.6057    0.0000 C   0  0  0  0  0  0  0  0  0  0  0  0
   -5.1518    3.7205    0.0000 C   0  0  0  0  0  0  0  0  0  0  0  0
   -4.6883    2.2939    0.0000 C   0  0  0  0  0  0  0  0  0  0  0  0
   -3.5736    1.2902    0.0000 N   0  0  0  0  0  0  0  0  0  0  0  0
   -2.1470    1.7537    0.0000 C   0  0  0  0  0  0  0  0  0  0  0  0
   -1.8351    3.2209    0.0000 N   0  0  0  0  0  0  0  0  0  0  0  0
   -0.4086    3.6844    0.0000 C   0  0  0  0  0  0  0  0  0  0  0  0
    0.7062    2.6807    0.0000 N   0  0  0  0  0  0  0  0  0  0  0  0
    0.3943    1.2135    0.0000 C   0  0  0  0  0  0  0  0  0  0  0  0
    1.2760    0.0000    0.0000 S   0  0  0  0  0  0  0  0  0  0  0  0
    0.3943   -1.2135    0.0000 C   0  0  0  0  0  0  0  0  0  0  0  0
   -1.0323   -0.7500    0.0000 C   0  0  0  0  0  0  0  0  0  0  0  0
   -1.0323    0.7500    0.0000 C   0  0  0  0  0  0  0  0  0  0  0  0
   -7.8940    0.6750    0.0000 C   0  0  0  0  0  0  0  0  0  0  0  0
   -9.3206    0.2115    0.0000 C   0  0  0  0  0  0  0  0  0  0  0  0
  1  2  2  0
  2  3  1  0
  3  4  2  0
  5  4  1  1
  5  6  1  0
  6  7  1  0
  7  8  1  6
  8  9  1  0
  9 10  2  0
 10 11  1  0
 11 12  2  0
 12 13  1  0
 13 14  1  0
 14 15  1  0
 15 16  2  0
 16 17  1  0
  4 18  1  0
 18 19  2  0
 19  1  1  0
  7  5  1  0
 17  9  1  0
 17 13  2  0
M  END
>  <Compound_ID>  (249) 
C44416550

>  <Active>  (249) 
0

>  <Smiles>  (249) 
c1ccc([C@H]2C[C@@H]2Nc2ncnc3sccc23)cc1

>  <canonical_smi>  (249) 
c1ccc([C@H]2C[C@@H]2Nc2ncnc3sccc23)cc1

>  <Set>  (249) 
G2 inactive

>  <Set_type>  (249) 
Train

>  <MW>  (249) 
267.36

>  <HBD>  (249) 
1

>  <HBA>  (249) 
3

>  <NRB>  (249) 
3

>  <NR>  (249) 
4

>  <NAR>  (249) 
3

>  <PSA>  (249) 
37.81

>  <Standard Type>  (249) 
nan

>  <Standard Relation>  (249) 
nan

>  <Standard Units>  (249) 
nan

>  <Standard Value>  (249) 
nan

>  <Assay ChEMBL ID>  (249) 
nan

>  <Assay Description>  (249) 
nan

>  <BAO Label>  (249) 
nan

$$$$

     RDKit          2D

 18 19  0  0  0  0  0  0  0  0999 V2000
    0.4022   -7.7629    0.0000 C   0  0  0  0  0  0  0  0  0  0  0  0
    0.2454   -6.2711    0.0000 C   0  0  0  0  0  0  0  0  0  0  0  0
   -1.0537   -5.5211    0.0000 C   0  0  0  0  0  0  0  0  0  0  0  0
   -0.7418   -4.0539    0.0000 N   0  0  0  0  0  0  0  0  0  0  0  0
    0.7500   -3.8971    0.0000 C   0  0  0  0  0  0  0  0  0  0  0  0
    1.5000   -2.5981    0.0000 N   0  0  0  0  0  0  0  0  0  0  0  0
    0.7500   -1.2990    0.0000 C   0  0  0  0  0  0  0  0  0  0  0  0
    1.5000    0.0000    0.0000 C   0  0  0  0  0  0  0  0  0  0  0  0
    0.7500    1.2990    0.0000 C   0  0  0  0  0  0  0  0  0  0  0  0
   -0.7500    1.2990    0.0000 C   0  0  0  0  0  0  0  0  0  0  0  0
   -1.5000    0.0000    0.0000 C   0  0  0  0  0  0  0  0  0  0  0  0
   -0.7500   -1.2990    0.0000 C   0  0  0  0  0  0  0  0  0  0  0  0
   -1.5000   -2.5981    0.0000 O   0  0  0  0  0  0  0  0  0  0  0  0
   -3.0000   -2.5981    0.0000 C   0  0  0  0  0  0  0  0  0  0  0  0
   -4.5000   -2.5981    0.0000 F   0  0  0  0  0  0  0  0  0  0  0  0
   -3.0000   -4.0981    0.0000 F   0  0  0  0  0  0  0  0  0  0  0  0
   -3.0000   -1.0981    0.0000 F   0  0  0  0  0  0  0  0  0  0  0  0
    1.3601   -5.2674    0.0000 S   0  0  0  0  0  0  0  0  0  0  0  0
  2  1  1  1
  2  3  1  0
  3  4  1  0
  4  5  1  0
  5  6  2  0
  6  7  1  0
  7  8  2  0
  8  9  1  0
  9 10  2  0
 10 11  1  0
 11 12  2  0
 12 13  1  0
 13 14  1  0
 14 15  1  0
 14 16  1  0
 14 17  1  0
  5 18  1  0
 18  2  1  0
 12  7  1  0
M  END
>  <Compound_ID>  (250) 
C35057429

>  <Active>  (250) 
0

>  <Smiles>  (250) 
C[C@H]1CN/C(=N\c2ccccc2OC(F)(F)F)S1

>  <canonical_smi>  (250) 
C[C@H]1CN/C(=N\c2ccccc2OC(F)(F)F)S1

>  <Set>  (250) 
G2 inactive

>  <Set_type>  (250) 
Train

>  <MW>  (250) 
276.28

>  <HBD>  (250) 
1

>  <HBA>  (250) 
3

>  <NRB>  (250) 
2

>  <NR>  (250) 
2

>  <NAR>  (250) 
1

>  <PSA>  (250) 
33.62

>  <Standard Type>  (250) 
nan

>  <Standard Relation>  (250) 
nan

>  <Standard Units>  (250) 
nan

>  <Standard Value>  (250) 
nan

>  <Assay ChEMBL ID>  (250) 
nan

>  <Assay Description>  (250) 
nan

>  <BAO Label>  (250) 
nan

$$$$

     RDKit          2D

 20 22  0  0  0  0  0  0  0  0999 V2000
   -3.7500   -9.0933    0.0000 O   0  0  0  0  0  0  0  0  0  0  0  0
   -3.0000   -7.7942    0.0000 C   0  0  0  0  0  0  0  0  0  0  0  0
   -3.7500   -6.4952    0.0000 C   0  0  0  0  0  0  0  0  0  0  0  0
   -5.2500   -6.4952    0.0000 C   0  0  0  0  0  0  0  0  0  0  0  0
   -6.0000   -5.1962    0.0000 C   0  0  0  0  0  0  0  0  0  0  0  0
   -5.2500   -3.8971    0.0000 N   0  0  0  0  0  0  0  0  0  0  0  0
   -3.7500   -3.8971    0.0000 C   0  0  0  0  0  0  0  0  0  0  0  0
   -3.0000   -2.5981    0.0000 O   0  0  0  0  0  0  0  0  0  0  0  0
   -1.5000   -2.5981    0.0000 C   0  0  0  0  0  0  0  0  0  0  0  0
   -0.7500   -3.8971    0.0000 C   0  0  0  0  0  0  0  0  0  0  0  0
    0.7500   -3.8971    0.0000 C   0  0  0  0  0  0  0  0  0  0  0  0
    1.5000   -2.5981    0.0000 C   0  0  0  0  0  0  0  0  0  0  0  0
    3.0000   -2.5981    0.0000 Cl  0  0  0  0  0  0  0  0  0  0  0  0
    0.7500   -1.2990    0.0000 C   0  0  0  0  0  0  0  0  0  0  0  0
    1.5000    0.0000    0.0000 C   0  0  0  0  0  0  0  0  0  0  0  0
    0.7500    1.2990    0.0000 C   0  0  0  0  0  0  0  0  0  0  0  0
   -0.7500    1.2990    0.0000 C   0  0  0  0  0  0  0  0  0  0  0  0
   -1.5000    0.0000    0.0000 C   0  0  0  0  0  0  0  0  0  0  0  0
   -0.7500   -1.2990    0.0000 C   0  0  0  0  0  0  0  0  0  0  0  0
   -3.0000   -5.1962    0.0000 C   0  0  0  0  0  0  0  0  0  0  0  0
  1  2  1  0
  2  3  1  0
  3  4  2  0
  4  5  1  0
  5  6  2  0
  6  7  1  0
  7  8  1  0
  8  9  1  0
  9 10  2  0
 10 11  1  0
 11 12  2  0
 12 13  1  0
 12 14  1  0
 14 15  2  0
 15 16  1  0
 16 17  2  0
 17 18  1  0
 18 19  2  0
  7 20  2  0
 20  3  1  0
 19  9  1  0
 19 14  1  0
M  END
>  <Compound_ID>  (251) 
C40882347

>  <Active>  (251) 
0

>  <Smiles>  (251) 
OCc1ccnc(Oc2ccc(Cl)c3ccccc23)c1

>  <canonical_smi>  (251) 
OCc1ccnc(Oc2ccc(Cl)c3ccccc23)c1

>  <Set>  (251) 
G2 inactive

>  <Set_type>  (251) 
Train

>  <MW>  (251) 
285.73

>  <HBD>  (251) 
1

>  <HBA>  (251) 
3

>  <NRB>  (251) 
3

>  <NR>  (251) 
3

>  <NAR>  (251) 
3

>  <PSA>  (251) 
42.35

>  <Standard Type>  (251) 
nan

>  <Standard Relation>  (251) 
nan

>  <Standard Units>  (251) 
nan

>  <Standard Value>  (251) 
nan

>  <Assay ChEMBL ID>  (251) 
nan

>  <Assay Description>  (251) 
nan

>  <BAO Label>  (251) 
nan

$$$$

     RDKit          2D

 20 22  0  0  0  0  0  0  0  0999 V2000
   -2.7990   -7.3573    0.0000 C   0  0  0  0  0  0  0  0  0  0  0  0
   -1.2990   -7.3573    0.0000 C   0  0  0  0  0  0  0  0  0  0  0  0
    0.2010   -7.3573    0.0000 C   0  0  0  0  0  0  0  0  0  0  0  0
   -1.2990   -8.8573    0.0000 C   0  0  0  0  0  0  0  0  0  0  0  0
   -1.2990   -5.8573    0.0000 C   0  0  0  0  0  0  0  0  0  0  0  0
   -2.5981   -5.1073    0.0000 O   0  0  0  0  0  0  0  0  0  0  0  0
   -0.0000   -5.1073    0.0000 C   0  0  0  0  0  0  0  0  0  0  0  0
   -0.0000   -3.6073    0.0000 N   0  0  0  0  0  0  0  0  0  0  0  0
    1.2135   -2.7256    0.0000 C   0  0  0  0  0  0  0  0  0  0  0  0
    2.6401   -3.1891    0.0000 O   0  0  0  0  0  0  0  0  0  0  0  0
    0.7500   -1.2990    0.0000 C   0  0  0  0  0  0  0  0  0  0  0  0
    1.5000    0.0000    0.0000 C   0  0  0  0  0  0  0  0  0  0  0  0
    0.7500    1.2990    0.0000 C   0  0  0  0  0  0  0  0  0  0  0  0
   -0.7500    1.2990    0.0000 C   0  0  0  0  0  0  0  0  0  0  0  0
   -1.5000    0.0000    0.0000 C   0  0  0  0  0  0  0  0  0  0  0  0
   -2.9769   -0.2986    0.0000 C   0  0  0  0  0  0  0  0  0  0  0  0
   -3.5870   -1.6689    0.0000 C   0  0  0  0  0  0  0  0  0  0  0  0
   -2.7053   -2.8824    0.0000 C   0  0  0  0  0  0  0  0  0  0  0  0
   -1.2135   -2.7256    0.0000 C   0  0  0  0  0  0  0  0  0  0  0  0
   -0.7500   -1.2990    0.0000 C   0  0  0  0  0  0  0  0  0  0  0  0
  1  2  1  0
  2  3  1  0
  2  4  1  0
  2  5  1  0
  5  6  1  6
  5  7  1  0
  7  8  1  0
  8  9  1  0
  9 10  2  0
  9 11  1  0
 11 12  2  0
 12 13  1  0
 13 14  2  0
 14 15  1  0
 15 16  2  0
 16 17  1  0
 17 18  2  0
 18 19  1  0
 19 20  2  0
 19  8  1  0
 20 11  1  0
 20 15  1  0
M  END
>  <Compound_ID>  (252) 
C44184719

>  <Active>  (252) 
0

>  <Smiles>  (252) 
CC(C)(C)[C@H](O)CN1C(=O)c2cccc3cccc1c23

>  <canonical_smi>  (252) 
CC(C)(C)[C@H](O)CN1C(=O)c2cccc3cccc1c23

>  <Set>  (252) 
G2 inactive

>  <Set_type>  (252) 
Train

>  <MW>  (252) 
269.34

>  <HBD>  (252) 
1

>  <HBA>  (252) 
2

>  <NRB>  (252) 
2

>  <NR>  (252) 
3

>  <NAR>  (252) 
2

>  <PSA>  (252) 
40.54

>  <Standard Type>  (252) 
nan

>  <Standard Relation>  (252) 
nan

>  <Standard Units>  (252) 
nan

>  <Standard Value>  (252) 
nan

>  <Assay ChEMBL ID>  (252) 
nan

>  <Assay Description>  (252) 
nan

>  <BAO Label>  (252) 
nan

$$$$

     RDKit          2D

 19 20  0  0  0  0  0  0  0  0999 V2000
    3.7500   -1.2990    0.0000 C   0  0  0  0  0  0  0  0  0  0  0  0
    3.0000    0.0000    0.0000 C   0  0  0  0  0  0  0  0  0  0  0  0
    3.7500    1.2990    0.0000 C   0  0  0  0  0  0  0  0  0  0  0  0
    1.5000    0.0000    0.0000 C   0  0  0  0  0  0  0  0  0  0  0  0
    0.7500   -1.2990    0.0000 C   0  0  0  0  0  0  0  0  0  0  0  0
   -0.7500   -1.2990    0.0000 C   0  0  0  0  0  0  0  0  0  0  0  0
   -1.5000    0.0000    0.0000 C   0  0  0  0  0  0  0  0  0  0  0  0
   -3.0000    0.0000    0.0000 O   0  0  0  0  0  0  0  0  0  0  0  0
   -0.7500    1.2990    0.0000 C   0  0  0  0  0  0  0  0  0  0  0  0
   -1.5000    2.5981    0.0000 C   0  0  0  0  0  0  0  0  0  0  0  0
   -0.7500    3.8971    0.0000 N   0  0  0  0  0  0  0  0  0  0  0  0
    0.7500    3.8971    0.0000 C   0  0  0  0  0  0  0  0  0  0  0  0
    1.5000    5.1962    0.0000 C   0  0  0  0  0  0  0  0  0  0  0  0
    3.0000    5.1962    0.0000 C   0  0  0  0  0  0  0  0  0  0  0  0
    0.7500    6.4952    0.0000 O   0  0  0  0  0  0  0  0  0  0  0  0
   -0.7500    6.4952    0.0000 C   0  0  0  0  0  0  0  0  0  0  0  0
   -1.5000    7.7942    0.0000 C   0  0  0  0  0  0  0  0  0  0  0  0
   -1.5000    5.1962    0.0000 C   0  0  0  0  0  0  0  0  0  0  0  0
    0.7500    1.2990    0.0000 C   0  0  0  0  0  0  0  0  0  0  0  0
  1  2  1  0
  2  3  1  0
  4  2  1  6
  4  5  1  0
  5  6  1  0
  6  7  1  0
  7  8  1  6
  7  9  1  0
  9 10  1  6
 10 11  1  0
 11 12  1  0
 12 13  1  0
 13 14  1  6
 13 15  1  0
 15 16  1  0
 16 17  1  6
 16 18  1  0
  9 19  1  0
 19  4  1  0
 18 11  1  0
M  END
>  <Compound_ID>  (253) 
C54560804

>  <Active>  (253) 
0

>  <Smiles>  (253) 
CC(C)[C@@H]1CC[C@H](O)[C@H](CN2C[C@@H](C)O[C@@H](C)C2)C1

>  <canonical_smi>  (253) 
CC(C)[C@@H]1CC[C@H](O)[C@H](CN2C[C@H](C)O[C@H](C)C2)C1

>  <Set>  (253) 
G2 inactive

>  <Set_type>  (253) 
Train

>  <MW>  (253) 
269.43

>  <HBD>  (253) 
1

>  <HBA>  (253) 
3

>  <NRB>  (253) 
3

>  <NR>  (253) 
2

>  <NAR>  (253) 
0

>  <PSA>  (253) 
32.7

>  <Standard Type>  (253) 
nan

>  <Standard Relation>  (253) 
nan

>  <Standard Units>  (253) 
nan

>  <Standard Value>  (253) 
nan

>  <Assay ChEMBL ID>  (253) 
nan

>  <Assay Description>  (253) 
nan

>  <BAO Label>  (253) 
nan

$$$$

     RDKit          2D

 21 23  0  0  0  0  0  0  0  0999 V2000
    2.6401   -3.1891    0.0000 C   0  0  0  0  0  0  0  0  0  0  0  0
    1.2135   -2.7256    0.0000 N   0  0  0  0  0  0  0  0  0  0  0  0
   -0.0000   -3.6073    0.0000 N   0  0  0  0  0  0  0  0  0  0  0  0
   -1.2135   -2.7256    0.0000 C   0  0  0  0  0  0  0  0  0  0  0  0
   -0.7500   -1.2990    0.0000 C   0  0  0  0  0  0  0  0  0  0  0  0
    0.7500   -1.2990    0.0000 C   0  0  0  0  0  0  0  0  0  0  0  0
    1.5000    0.0000    0.0000 C   0  0  0  0  0  0  0  0  0  0  0  0
    0.7500    1.2990    0.0000 C   0  0  0  0  0  0  0  0  0  0  0  0
   -0.7500    1.2990    0.0000 C   0  0  0  0  0  0  0  0  0  0  0  0
   -1.5000    0.0000    0.0000 C   0  0  0  0  0  0  0  0  0  0  0  0
   -3.0000    0.0000    0.0000 N   0  0  0  0  0  0  0  0  0  0  0  0
   -3.7500    1.2990    0.0000 C   0  0  0  0  0  0  0  0  0  0  0  0
   -3.0000    2.5981    0.0000 C   0  0  0  0  0  0  0  0  0  0  0  0
   -3.7500    3.8971    0.0000 C   0  0  0  0  0  0  0  0  0  0  0  0
   -5.2500    3.8971    0.0000 C   0  0  0  0  0  0  0  0  0  0  0  0
   -6.0000    2.5981    0.0000 C   0  0  0  0  0  0  0  0  0  0  0  0
   -5.2500    1.2990    0.0000 C   0  0  0  0  0  0  0  0  0  0  0  0
   -6.0000    0.0000    0.0000 C   0  0  0  0  0  0  0  0  0  0  0  0
   -7.2990    0.7500    0.0000 C   0  0  0  0  0  0  0  0  0  0  0  0
   -4.7010   -0.7500    0.0000 C   0  0  0  0  0  0  0  0  0  0  0  0
   -6.7500   -1.2990    0.0000 C   0  0  0  0  0  0  0  0  0  0  0  0
  1  2  1  0
  2  3  1  0
  3  4  2  0
  4  5  1  0
  5  6  2  0
  6  7  1  0
  7  8  1  0
  8  9  1  0
  9 10  1  0
 10 11  1  1
 11 12  1  0
 12 13  2  0
 13 14  1  0
 14 15  2  0
 15 16  1  0
 16 17  2  0
 17 18  1  0
 18 19  1  0
 18 20  1  0
 18 21  1  0
  6  2  1  0
 17 12  1  0
 10  5  1  0
M  END
>  <Compound_ID>  (254) 
C36956670

>  <Active>  (254) 
0

>  <Smiles>  (254) 
Cn1ncc2c1CCC[C@@H]2Nc1ccccc1C(C)(C)C

>  <canonical_smi>  (254) 
Cn1ncc2c1CCC[C@@H]2Nc1ccccc1C(C)(C)C

>  <Set>  (254) 
G2 inactive

>  <Set_type>  (254) 
Train

>  <MW>  (254) 
283.42

>  <HBD>  (254) 
1

>  <HBA>  (254) 
2

>  <NRB>  (254) 
2

>  <NR>  (254) 
3

>  <NAR>  (254) 
2

>  <PSA>  (254) 
29.85

>  <Standard Type>  (254) 
nan

>  <Standard Relation>  (254) 
nan

>  <Standard Units>  (254) 
nan

>  <Standard Value>  (254) 
nan

>  <Assay ChEMBL ID>  (254) 
nan

>  <Assay Description>  (254) 
nan

>  <BAO Label>  (254) 
nan

$$$$

     RDKit          2D

 19 21  0  0  0  0  0  0  0  0999 V2000
   -1.2990  -11.8573    0.0000 C   0  0  0  0  0  0  0  0  0  0  0  0
   -1.2990  -10.3573    0.0000 C   0  0  0  0  0  0  0  0  0  0  0  0
   -0.0000   -9.6073    0.0000 C   0  0  0  0  0  0  0  0  0  0  0  0
   -0.0000   -8.1073    0.0000 C   0  0  0  0  0  0  0  0  0  0  0  0
   -1.2990   -7.3573    0.0000 C   0  0  0  0  0  0  0  0  0  0  0  0
   -1.2990   -5.8573    0.0000 C   0  0  0  0  0  0  0  0  0  0  0  0
   -0.0000   -5.1073    0.0000 N   0  0  0  0  0  0  0  0  0  0  0  0
   -0.0000   -3.6073    0.0000 C   0  0  0  0  0  0  0  0  0  0  0  0
   -1.2135   -2.7256    0.0000 N   0  0  0  0  0  0  0  0  0  0  0  0
   -0.7500   -1.2990    0.0000 C   0  0  0  0  0  0  0  0  0  0  0  0
    0.7500   -1.2990    0.0000 C   0  0  0  0  0  0  0  0  0  0  0  0
    1.2135   -2.7256    0.0000 S   0  0  0  0  0  0  0  0  0  0  0  0
    1.5000    0.0000    0.0000 C   0  0  0  0  0  0  0  0  0  0  0  0
    3.0000    0.0000    0.0000 O   0  0  0  0  0  0  0  0  0  0  0  0
    0.7500    1.2990    0.0000 C   0  0  0  0  0  0  0  0  0  0  0  0
   -0.7500    1.2990    0.0000 C   0  0  0  0  0  0  0  0  0  0  0  0
   -1.5000    0.0000    0.0000 C   0  0  0  0  0  0  0  0  0  0  0  0
    1.2990   -5.8573    0.0000 C   0  0  0  0  0  0  0  0  0  0  0  0
    1.2990   -7.3573    0.0000 C   0  0  0  0  0  0  0  0  0  0  0  0
  1  2  1  0
  2  3  1  0
  3  4  1  0
  4  5  1  0
  5  6  1  0
  6  7  1  0
  7  8  1  0
  8  9  2  0
  9 10  1  0
 10 11  2  0
 11 12  1  0
 11 13  1  0
 13 14  1  1
 13 15  1  0
 15 16  1  0
 16 17  1  0
  7 18  1  0
 18 19  1  0
 19  4  1  0
 12  8  1  0
 17 10  1  0
M  END
>  <Compound_ID>  (255) 
C54911513

>  <Active>  (255) 
0

>  <Smiles>  (255) 
CCCC1CCN(c2nc3c(s2)[C@H](O)CCC3)CC1

>  <canonical_smi>  (255) 
CCCC1CCN(c2nc3c(s2)[C@H](O)CCC3)CC1

>  <Set>  (255) 
G2 inactive

>  <Set_type>  (255) 
Train

>  <MW>  (255) 
280.44

>  <HBD>  (255) 
1

>  <HBA>  (255) 
3

>  <NRB>  (255) 
3

>  <NR>  (255) 
3

>  <NAR>  (255) 
1

>  <PSA>  (255) 
36.36

>  <Standard Type>  (255) 
nan

>  <Standard Relation>  (255) 
nan

>  <Standard Units>  (255) 
nan

>  <Standard Value>  (255) 
nan

>  <Assay ChEMBL ID>  (255) 
nan

>  <Assay Description>  (255) 
nan

>  <BAO Label>  (255) 
nan

$$$$

     RDKit          2D

 26 28  0  0  0  0  0  0  0  0999 V2000
    3.0000    0.0000    0.0000 C   0  0  0  0  0  0  0  0  0  0  0  0
    1.5000    0.0000    0.0000 C   0  0  0  0  0  0  0  0  0  0  0  0
    0.7500   -1.2990    0.0000 C   0  0  0  0  0  0  0  0  0  0  0  0
   -0.7500   -1.2990    0.0000 C   0  0  0  0  0  0  0  0  0  0  0  0
   -1.5000    0.0000    0.0000 C   0  0  0  0  0  0  0  0  0  0  0  0
   -0.7500    1.2990    0.0000 N   0  0  0  0  0  4  0  0  0  0  0  0
   -1.5000    2.5981    0.0000 C   0  0  0  0  0  0  0  0  0  0  0  0
   -0.7500    3.8971    0.0000 C   0  0  0  0  0  0  0  0  0  0  0  0
    0.7500    3.8971    0.0000 C   0  0  0  0  0  0  0  0  0  0  0  0
    1.5000    5.1962    0.0000 C   0  0  0  0  0  0  0  0  0  0  0  0
    0.7500    6.4952    0.0000 C   0  0  0  0  0  0  0  0  0  0  0  0
   -0.7500    6.4952    0.0000 C   0  0  0  0  0  0  0  0  0  0  0  0
   -1.5000    5.1962    0.0000 C   0  0  0  0  0  0  0  0  0  0  0  0
   -3.0000    5.1962    0.0000 C   0  0  0  0  0  0  0  0  0  0  0  0
   -3.7500    6.4952    0.0000 N   0  0  0  0  0  0  0  0  0  0  0  0
   -5.2500    6.4952    0.0000 C   0  0  0  0  0  0  0  0  0  0  0  0
   -6.0000    5.1962    0.0000 O   0  0  0  0  0  0  0  0  0  0  0  0
   -6.0000    7.7942    0.0000 C   0  0  0  0  0  0  0  0  0  0  0  0
   -7.5000    7.7942    0.0000 S   0  0  0  0  0  0  0  0  0  0  0  0
   -8.2500    9.0933    0.0000 C   0  0  0  0  0  0  0  0  0  0  0  0
   -9.7418    9.2501    0.0000 N   0  0  0  0  0  0  0  0  0  0  0  0
  -10.0537   10.7173    0.0000 N   0  0  0  0  0  0  0  0  0  0  0  0
   -8.7546   11.4673    0.0000 C   0  0  0  0  0  0  0  0  0  0  0  0
   -8.5978   12.9591    0.0000 N   0  0  0  0  0  0  0  0  0  0  0  0
   -7.6399   10.4636    0.0000 S   0  0  0  0  0  0  0  0  0  0  0  0
    0.7500    1.2990    0.0000 C   0  0  0  0  0  0  0  0  0  0  0  0
  2  1  1  6
  2  3  1  0
  3  4  1  0
  4  5  1  0
  5  6  1  0
  6  7  1  0
  7  8  1  0
  8  9  2  0
  9 10  1  0
 10 11  2  0
 11 12  1  0
 12 13  2  0
 13 14  1  0
 14 15  1  0
 15 16  1  0
 16 17  2  0
 16 18  1  0
 18 19  1  0
 19 20  1  0
 20 21  2  0
 21 22  1  0
 22 23  2  0
 23 24  1  0
 23 25  1  0
  6 26  1  0
 26  2  1  0
 13  8  1  0
 25 20  1  0
M  CHG  1   6   1
M  END
>  <Compound_ID>  (256) 
C53350486

>  <Active>  (256) 
0

>  <Smiles>  (256) 
C[C@@H]1CCC[NH+](Cc2ccccc2CNC(=O)CSc2nnc(N)s2)C1

>  <canonical_smi>  (256) 
C[C@@H]1CCC[NH+](Cc2ccccc2CNC(=O)CSc2nnc(N)s2)C1

>  <Set>  (256) 
G2 inactive

>  <Set_type>  (256) 
Train

>  <MW>  (256) 
392.57

>  <HBD>  (256) 
3

>  <HBA>  (256) 
5

>  <NRB>  (256) 
7

>  <NR>  (256) 
3

>  <NAR>  (256) 
2

>  <PSA>  (256) 
85.34

>  <Standard Type>  (256) 
nan

>  <Standard Relation>  (256) 
nan

>  <Standard Units>  (256) 
nan

>  <Standard Value>  (256) 
nan

>  <Assay ChEMBL ID>  (256) 
nan

>  <Assay Description>  (256) 
nan

>  <BAO Label>  (256) 
nan

$$$$

     RDKit          2D

 38 42  0  0  0  0  0  0  0  0999 V2000
    6.4563   -6.0063    0.0000 C   0  0  0  0  0  0  0  0  0  0  0  0
    6.9199   -4.5797    0.0000 C   0  0  0  0  0  0  0  0  0  0  0  0
    7.3834   -3.1531    0.0000 C   0  0  0  0  0  0  0  0  0  0  0  0
    8.3464   -5.0433    0.0000 C   0  0  0  0  0  0  0  0  0  0  0  0
    5.4933   -4.1162    0.0000 C   0  0  0  0  0  0  0  0  0  0  0  0
    4.3786   -5.1199    0.0000 C   0  0  0  0  0  0  0  0  0  0  0  0
    2.9520   -4.6564    0.0000 C   0  0  0  0  0  0  0  0  0  0  0  0
    2.6401   -3.1891    0.0000 C   0  0  0  0  0  0  0  0  0  0  0  0
    1.2135   -2.7256    0.0000 N   0  0  0  0  0  0  0  0  0  0  0  0
    0.7500   -1.2990    0.0000 C   0  0  0  0  0  0  0  0  0  0  0  0
    1.5000    0.0000    0.0000 N   0  0  0  0  0  0  0  0  0  0  0  0
    0.7500    1.2990    0.0000 C   0  0  0  0  0  0  0  0  0  0  0  0
   -0.7500    1.2990    0.0000 C   0  0  0  0  0  0  0  0  0  0  0  0
   -1.5000    0.0000    0.0000 C   0  0  0  0  0  0  0  0  0  0  0  0
   -0.7500   -1.2990    0.0000 C   0  0  0  0  0  0  0  0  0  0  0  0
   -1.2135   -2.7256    0.0000 C   0  0  0  0  0  0  0  0  0  0  0  0
   -2.6401   -3.1891    0.0000 O   0  0  0  0  0  0  0  0  0  0  0  0
   -3.7548   -2.1855    0.0000 C   0  0  0  0  0  0  0  0  0  0  0  0
   -3.4430   -0.7182    0.0000 C   0  0  0  0  0  0  0  0  0  0  0  0
   -4.5577    0.2855    0.0000 C   0  0  0  0  0  0  0  0  0  0  0  0
   -5.9843   -0.1781    0.0000 C   0  0  0  0  0  0  0  0  0  0  0  0
   -7.0990    0.8256    0.0000 C   0  0  0  0  0  0  0  0  0  0  0  0
   -8.5662    0.5138    0.0000 N   0  0  0  0  0  0  0  0  0  0  0  0
   -9.3162    1.8128    0.0000 C   0  0  0  0  0  0  0  0  0  0  0  0
   -8.3125    2.9275    0.0000 C   0  0  0  0  0  0  0  0  0  0  0  0
   -8.6244    4.3947    0.0000 C   0  0  0  0  0  0  0  0  0  0  0  0
   -8.9362    5.8620    0.0000 F   0  0  0  0  0  0  0  0  0  0  0  0
   -7.1572    4.7066    0.0000 F   0  0  0  0  0  0  0  0  0  0  0  0
  -10.0916    4.0829    0.0000 F   0  0  0  0  0  0  0  0  0  0  0  0
   -6.9422    2.3174    0.0000 C   0  0  0  0  0  0  0  0  0  0  0  0
   -6.2961   -1.6453    0.0000 C   0  0  0  0  0  0  0  0  0  0  0  0
   -5.1814   -2.6490    0.0000 C   0  0  0  0  0  0  0  0  0  0  0  0
   -0.0000   -3.6073    0.0000 C   0  0  0  0  0  0  0  0  0  0  0  0
    0.0000   -5.1073    0.0000 C   0  0  0  0  0  0  0  0  0  0  0  0
    1.2990   -5.8573    0.0000 O   0  0  0  0  0  0  0  0  0  0  0  0
   -1.2990   -5.8573    0.0000 O   0  0  0  0  0  1  0  0  0  0  0  0
    3.7548   -2.1855    0.0000 C   0  0  0  0  0  0  0  0  0  0  0  0
    5.1814   -2.6490    0.0000 C   0  0  0  0  0  0  0  0  0  0  0  0
  1  2  1  0
  2  3  1  0
  2  4  1  0
  2  5  1  0
  5  6  2  0
  6  7  1  0
  7  8  2  0
  8  9  1  0
  9 10  1  0
 10 11  2  0
 11 12  1  0
 12 13  2  0
 13 14  1  0
 14 15  2  0
 15 16  1  0
 16 17  1  1
 17 18  1  0
 18 19  2  0
 19 20  1  0
 20 21  2  0
 21 22  1  0
 22 23  2  0
 23 24  1  0
 24 25  2  0
 25 26  1  0
 26 27  1  0
 26 28  1  0
 26 29  1  0
 25 30  1  0
 21 31  1  0
 31 32  2  0
 16 33  1  0
 33 34  1  6
 34 35  2  0
 34 36  1  0
  8 37  1  0
 37 38  2  0
 38  5  1  0
 33  9  1  0
 15 10  1  0
 32 18  1  0
 30 22  1  0
M  CHG  1  36  -1
M  END
>  <Compound_ID>  (257) 
C52627254

>  <Active>  (257) 
0

>  <Smiles>  (257) 
CC(C)(C)c1ccc(N2c3ncccc3[C@H](Oc3ccc(C4=NC=C(C(F)(F)F)C4)cc3)[C@H]2C(=O)[O-])cc1

>  <canonical_smi>  (257) 
CC(C)(C)c1ccc(N2c3ncccc3[C@H](Oc3ccc(C4=NC=C(C(F)(F)F)C4)cc3)[C@H]2C(=O)[O-])cc1

>  <Set>  (257) 
G2 inactive

>  <Set_type>  (257) 
Train

>  <MW>  (257) 
520.53

>  <HBD>  (257) 
0

>  <HBA>  (257) 
5

>  <NRB>  (257) 
5

>  <NR>  (257) 
5

>  <NAR>  (257) 
3

>  <PSA>  (257) 
77.85

>  <Standard Type>  (257) 
nan

>  <Standard Relation>  (257) 
nan

>  <Standard Units>  (257) 
nan

>  <Standard Value>  (257) 
nan

>  <Assay ChEMBL ID>  (257) 
nan

>  <Assay Description>  (257) 
nan

>  <BAO Label>  (257) 
nan

$$$$

     RDKit          2D

 29 32  0  0  0  0  0  0  0  0999 V2000
    2.2500   -9.0933    0.0000 C   0  0  0  0  0  0  0  0  0  0  0  0
    1.5000   -7.7942    0.0000 C   0  0  0  0  0  0  0  0  0  0  0  0
   -0.0000   -7.7942    0.0000 C   0  0  0  0  0  0  0  0  0  0  0  0
   -0.7500   -6.4952    0.0000 C   0  0  0  0  0  0  0  0  0  0  0  0
   -0.0000   -5.1962    0.0000 C   0  0  0  0  0  0  0  0  0  0  0  0
   -0.7500   -3.8971    0.0000 C   0  0  0  0  0  0  0  0  0  0  0  0
    1.5000   -5.1962    0.0000 C   0  0  0  0  0  0  0  0  0  0  0  0
    2.2500   -3.8971    0.0000 N   0  0  0  0  0  0  0  0  0  0  0  0
    1.5000   -2.5981    0.0000 S   0  0  0  0  0  0  0  0  0  0  0  0
    2.7990   -1.8481    0.0000 O   0  0  0  0  0  0  0  0  0  0  0  0
    0.2010   -3.3481    0.0000 O   0  0  0  0  0  0  0  0  0  0  0  0
    0.7500   -1.2990    0.0000 C   0  0  0  0  0  0  0  0  0  0  0  0
    1.5000    0.0000    0.0000 C   0  0  0  0  0  0  0  0  0  0  0  0
    0.7500    1.2990    0.0000 C   0  0  0  0  0  0  0  0  0  0  0  0
    1.2135    2.7256    0.0000 N   0  0  0  0  0  0  0  0  0  0  0  0
    0.0000    3.6073    0.0000 C   0  0  0  0  0  0  0  0  0  0  0  0
   -1.2135    2.7256    0.0000 C   0  0  0  0  0  0  0  0  0  0  0  0
   -0.7500    1.2990    0.0000 C   0  0  0  0  0  0  0  0  0  0  0  0
   -1.5000    0.0000    0.0000 C   0  0  0  0  0  0  0  0  0  0  0  0
   -0.7500   -1.2990    0.0000 C   0  0  0  0  0  0  0  0  0  0  0  0
   -1.5000   -2.5981    0.0000 C   0  0  0  0  0  0  0  0  0  0  0  0
   -2.5838    3.3357    0.0000 C   0  0  0  0  0  0  0  0  0  0  0  0
   -3.7974    2.4540    0.0000 O   0  0  0  0  0  0  0  0  0  0  0  0
   -2.7406    4.8275    0.0000 C   0  0  0  0  0  0  0  0  0  0  0  0
   -1.5271    5.7092    0.0000 C   0  0  0  0  0  0  0  0  0  0  0  0
   -0.6883    6.9527    0.0000 C   0  0  0  0  0  0  0  0  0  0  0  0
   -2.6061    6.7512    0.0000 C   0  0  0  0  0  0  0  0  0  0  0  0
   -0.1568    5.0991    0.0000 C   0  0  0  0  0  0  0  0  0  0  0  0
    2.2500   -6.4952    0.0000 C   0  0  0  0  0  0  0  0  0  0  0  0
  1  2  1  0
  2  3  2  0
  3  4  1  0
  4  5  2  0
  5  6  1  0
  5  7  1  0
  7  8  1  0
  8  9  1  0
  9 10  2  0
  9 11  2  0
  9 12  1  0
 12 13  2  0
 13 14  1  0
 14 15  1  0
 15 16  1  0
 16 17  2  0
 17 18  1  0
 18 19  1  0
 19 20  2  0
 20 21  1  0
 17 22  1  0
 22 23  2  0
 22 24  1  0
 24 25  1  0
 25 26  1  0
 25 27  1  0
 25 28  1  0
  7 29  2  0
 29  2  1  0
 20 12  1  0
 18 14  2  0
 28 16  1  0
M  END
>  <Compound_ID>  (258) 
C09685477

>  <Active>  (258) 
0

>  <Smiles>  (258) 
Cc1ccc(C)c(NS(=O)(=O)c2cc3[nH]c4c(c3cc2C)C(=O)CC(C)(C)C4)c1

>  <canonical_smi>  (258) 
Cc1ccc(C)c(NS(=O)(=O)c2cc3[nH]c4c(c3cc2C)C(=O)CC(C)(C)C4)c1

>  <Set>  (258) 
G2 inactive

>  <Set_type>  (258) 
Train

>  <MW>  (258) 
410.54

>  <HBD>  (258) 
2

>  <HBA>  (258) 
3

>  <NRB>  (258) 
3

>  <NR>  (258) 
4

>  <NAR>  (258) 
3

>  <PSA>  (258) 
79.03

>  <Standard Type>  (258) 
nan

>  <Standard Relation>  (258) 
nan

>  <Standard Units>  (258) 
nan

>  <Standard Value>  (258) 
nan

>  <Assay ChEMBL ID>  (258) 
nan

>  <Assay Description>  (258) 
nan

>  <BAO Label>  (258) 
nan

$$$$

     RDKit          2D

 26 28  0  0  0  0  0  0  0  0999 V2000
    3.0000   -7.7942    0.0000 C   0  0  0  0  0  0  0  0  0  0  0  0
    3.7500   -6.4952    0.0000 O   0  0  0  0  0  0  0  0  0  0  0  0
    3.0000   -5.1962    0.0000 C   0  0  0  0  0  0  0  0  0  0  0  0
    1.5000   -5.1962    0.0000 C   0  0  0  0  0  0  0  0  0  0  0  0
    0.7500   -3.8971    0.0000 C   0  0  0  0  0  0  0  0  0  0  0  0
    1.5000   -2.5981    0.0000 C   0  0  0  0  0  0  0  0  0  0  0  0
    0.7500   -1.2990    0.0000 C   0  0  0  0  0  0  0  0  0  0  0  0
    1.5000    0.0000    0.0000 C   0  0  0  0  0  0  0  0  0  0  0  0
    0.7500    1.2990    0.0000 C   0  0  0  0  0  0  0  0  0  0  0  0
    1.5000    2.5981    0.0000 O   0  0  0  0  0  0  0  0  0  0  0  0
   -0.7500    1.2990    0.0000 C   0  0  0  0  0  0  0  0  0  0  0  0
   -1.5000    0.0000    0.0000 C   0  0  0  0  0  0  0  0  0  0  0  0
   -3.0000    0.0000    0.0000 C   0  0  0  0  0  0  0  0  0  0  0  0
   -3.7500    1.2990    0.0000 C   0  0  0  0  0  0  0  0  0  0  0  0
   -5.2500    1.2990    0.0000 O   0  0  0  0  0  0  0  0  0  0  0  0
   -3.0000    2.5981    0.0000 C   0  0  0  0  0  0  0  0  0  0  0  0
   -3.7500    3.8971    0.0000 C   0  0  0  0  0  0  0  0  0  0  0  0
   -3.0000    5.1962    0.0000 C   0  0  0  0  0  0  0  0  0  0  0  0
   -3.7500    6.4952    0.0000 C   0  0  0  0  0  0  0  0  0  0  0  0
   -3.0000    7.7942    0.0000 C   0  0  0  0  0  0  0  0  0  0  0  0
   -5.2500    6.4952    0.0000 C   0  0  0  0  0  0  0  0  0  0  0  0
   -1.5000    2.5981    0.0000 C   0  0  0  0  0  0  0  0  0  0  0  0
   -0.7500    3.8971    0.0000 O   0  0  0  0  0  0  0  0  0  0  0  0
   -0.7500   -1.2990    0.0000 O   0  0  0  0  0  0  0  0  0  0  0  0
    3.0000   -2.5981    0.0000 C   0  0  0  0  0  0  0  0  0  0  0  0
    3.7500   -3.8971    0.0000 C   0  0  0  0  0  0  0  0  0  0  0  0
  1  2  1  0
  2  3  1  0
  3  4  2  0
  4  5  1  0
  5  6  2  0
  7  6  1  6
  7  8  1  0
  8  9  1  0
  9 10  2  0
  9 11  1  0
 11 12  2  0
 12 13  1  0
 13 14  2  0
 14 15  1  0
 14 16  1  0
 16 17  1  0
 17 18  1  0
 18 19  2  0
 19 20  1  0
 19 21  1  0
 16 22  2  0
 22 23  1  0
 12 24  1  0
  6 25  1  0
 25 26  2  0
 26  3  1  0
 24  7  1  0
 22 11  1  0
M  END
>  <Compound_ID>  (259) 
C28540277

>  <Active>  (259) 
0

>  <Smiles>  (259) 
COc1ccc([C@H]2CC(=O)c3c(cc(O)c(CC=C(C)C)c3O)O2)cc1

>  <canonical_smi>  (259) 
COc1ccc([C@H]2CC(=O)c3c(cc(O)c(CC=C(C)C)c3O)O2)cc1

>  <Set>  (259) 
G2 inactive

>  <Set_type>  (259) 
Train

>  <MW>  (259) 
354.4

>  <HBD>  (259) 
2

>  <HBA>  (259) 
5

>  <NRB>  (259) 
4

>  <NR>  (259) 
3

>  <NAR>  (259) 
2

>  <PSA>  (259) 
75.99

>  <Standard Type>  (259) 
nan

>  <Standard Relation>  (259) 
nan

>  <Standard Units>  (259) 
nan

>  <Standard Value>  (259) 
nan

>  <Assay ChEMBL ID>  (259) 
nan

>  <Assay Description>  (259) 
nan

>  <BAO Label>  (259) 
nan

$$$$

     RDKit          2D

 34 38  0  0  0  0  0  0  0  0999 V2000
    3.0000  -10.3923    0.0000 C   0  0  0  0  0  0  0  0  0  0  0  0
    3.7500   -9.0933    0.0000 O   0  0  0  0  0  0  0  0  0  0  0  0
    3.0000   -7.7942    0.0000 C   0  0  0  0  0  0  0  0  0  0  0  0
    3.7500   -6.4952    0.0000 C   0  0  0  0  0  0  0  0  0  0  0  0
    3.0000   -5.1962    0.0000 N   0  0  0  0  0  4  0  0  0  0  0  0
    1.5000   -5.1962    0.0000 C   0  0  0  0  0  0  0  0  0  0  0  0
    0.7500   -3.8971    0.0000 C   0  0  0  0  0  0  0  0  0  0  0  0
    1.5000   -2.5981    0.0000 N   0  0  0  0  0  0  0  0  0  0  0  0
    0.7500   -1.2990    0.0000 C   0  0  0  0  0  0  0  0  0  0  0  0
    1.5000    0.0000    0.0000 N   0  0  0  0  0  0  0  0  0  0  0  0
    0.7500    1.2990    0.0000 C   0  0  0  0  0  0  0  0  0  0  0  0
    1.5000    2.5981    0.0000 C   0  0  0  0  0  0  0  0  0  0  0  0
    3.0000    2.5981    0.0000 C   0  0  0  0  0  0  0  0  0  0  0  0
    3.7500    3.8971    0.0000 C   0  0  0  0  0  0  0  0  0  0  0  0
    3.0000    5.1962    0.0000 C   0  0  0  0  0  0  0  0  0  0  0  0
    3.7500    6.4952    0.0000 Cl  0  0  0  0  0  0  0  0  0  0  0  0
    1.5000    5.1962    0.0000 C   0  0  0  0  0  0  0  0  0  0  0  0
    0.7500    3.8971    0.0000 C   0  0  0  0  0  0  0  0  0  0  0  0
   -0.7500    1.2990    0.0000 C   0  0  0  0  0  0  0  0  0  0  0  0
   -1.7537    2.4138    0.0000 C   0  0  0  0  0  0  0  0  0  0  0  0
   -1.4418    3.8810    0.0000 N   0  0  0  0  0  0  0  0  0  0  0  0
   -3.1240    1.8037    0.0000 N   0  0  0  0  0  0  0  0  0  0  0  0
   -4.4231    2.5537    0.0000 C   0  0  0  0  0  0  0  0  0  0  0  0
   -4.4231    4.0537    0.0000 C   0  0  0  0  0  0  0  0  0  0  0  0
   -5.7221    4.8037    0.0000 C   0  0  0  0  0  0  0  0  0  0  0  0
   -7.0211    4.0537    0.0000 C   0  0  0  0  0  0  0  0  0  0  0  0
   -8.3202    4.8037    0.0000 Cl  0  0  0  0  0  0  0  0  0  0  0  0
   -7.0211    2.5537    0.0000 C   0  0  0  0  0  0  0  0  0  0  0  0
   -5.7221    1.8037    0.0000 C   0  0  0  0  0  0  0  0  0  0  0  0
   -2.9672    0.3119    0.0000 N   0  0  0  0  0  0  0  0  0  0  0  0
   -1.5000    0.0000    0.0000 C   0  0  0  0  0  0  0  0  0  0  0  0
   -0.7500   -1.2990    0.0000 N   0  0  0  0  0  0  0  0  0  0  0  0
    3.0000   -2.5981    0.0000 C   0  0  0  0  0  0  0  0  0  0  0  0
    3.7500   -3.8971    0.0000 C   0  0  0  0  0  0  0  0  0  0  0  0
  1  2  1  0
  2  3  1  0
  3  4  1  0
  4  5  1  0
  5  6  1  0
  6  7  1  0
  7  8  1  0
  8  9  1  0
  9 10  1  0
 10 11  2  0
 11 12  1  0
 12 13  2  0
 13 14  1  0
 14 15  2  0
 15 16  1  0
 15 17  1  0
 17 18  2  0
 11 19  1  0
 19 20  2  0
 20 21  1  0
 20 22  1  0
 22 23  1  0
 23 24  2  0
 24 25  1  0
 25 26  2  0
 26 27  1  0
 26 28  1  0
 28 29  2  0
 22 30  1  0
 30 31  2  0
 31 32  1  0
  8 33  1  0
 33 34  1  0
 34  5  1  0
 32  9  2  0
 18 12  1  0
 31 19  1  0
 29 23  1  0
M  CHG  1   5   1
M  END
>  <Compound_ID>  (260) 
C35577230

>  <Active>  (260) 
0

>  <Smiles>  (260) 
COCC[NH+]1CCN(c2nc(-c3ccc(Cl)cc3)c3c(N)n(-c4ccc(Cl)cc4)nc3n2)CC1

>  <canonical_smi>  (260) 
COCC[NH+]1CCN(c2nc(-c3ccc(Cl)cc3)c3c(N)n(-c4ccc(Cl)cc4)nc3n2)CC1

>  <Set>  (260) 
G2 inactive

>  <Set_type>  (260) 
Train

>  <MW>  (260) 
499.43

>  <HBD>  (260) 
2

>  <HBA>  (260) 
6

>  <NRB>  (260) 
6

>  <NR>  (260) 
5

>  <NAR>  (260) 
4

>  <PSA>  (260) 
86.53

>  <Standard Type>  (260) 
nan

>  <Standard Relation>  (260) 
nan

>  <Standard Units>  (260) 
nan

>  <Standard Value>  (260) 
nan

>  <Assay ChEMBL ID>  (260) 
nan

>  <Assay Description>  (260) 
nan

>  <BAO Label>  (260) 
nan

$$$$

     RDKit          2D

 23 26  0  0  0  0  0  0  0  0999 V2000
    8.7849   -6.6625    0.0000 C   0  0  0  0  0  0  0  0  0  0  0  0
    7.4146   -6.0524    0.0000 C   0  0  0  0  0  0  0  0  0  0  0  0
    6.2011   -6.9341    0.0000 C   0  0  0  0  0  0  0  0  0  0  0  0
    4.8308   -6.3240    0.0000 C   0  0  0  0  0  0  0  0  0  0  0  0
    4.6740   -4.8322    0.0000 C   0  0  0  0  0  0  0  0  0  0  0  0
    3.3037   -4.2221    0.0000 C   0  0  0  0  0  0  0  0  0  0  0  0
    2.0046   -4.9721    0.0000 N   0  0  0  0  0  0  0  0  0  0  0  0
    0.8899   -3.9684    0.0000 N   0  0  0  0  0  0  0  0  0  0  0  0
    1.5000   -2.5981    0.0000 C   0  0  0  0  0  0  0  0  0  0  0  0
    0.7500   -1.2990    0.0000 C   0  0  0  0  0  0  0  0  0  0  0  0
    1.5000    0.0000    0.0000 C   0  0  0  0  0  0  0  0  0  0  0  0
    0.7500    1.2990    0.0000 C   0  0  0  0  0  0  0  0  0  0  0  0
   -0.7500    1.2990    0.0000 C   0  0  0  0  0  0  0  0  0  0  0  0
   -1.5000    0.0000    0.0000 C   0  0  0  0  0  0  0  0  0  0  0  0
   -2.9672   -0.3119    0.0000 N   0  0  0  0  0  0  0  0  0  0  0  0
   -3.1240   -1.8037    0.0000 C   0  0  0  0  0  0  0  0  0  0  0  0
   -4.4231   -2.5537    0.0000 C   0  0  0  0  0  0  0  0  0  0  0  0
   -1.7537   -2.4138    0.0000 O   0  0  0  0  0  0  0  0  0  0  0  0
   -0.7500   -1.2990    0.0000 C   0  0  0  0  0  0  0  0  0  0  0  0
    2.9918   -2.7549    0.0000 C   0  0  0  0  0  0  0  0  0  0  0  0
    5.8875   -3.9505    0.0000 C   0  0  0  0  0  0  0  0  0  0  0  0
    5.7307   -2.4587    0.0000 O   0  0  0  0  0  0  0  0  0  0  0  0
    7.2578   -4.5606    0.0000 C   0  0  0  0  0  0  0  0  0  0  0  0
  1  2  1  0
  2  3  2  0
  3  4  1  0
  4  5  2  0
  5  6  1  0
  6  7  2  0
  7  8  1  0
  8  9  2  0
  9 10  1  0
 10 11  2  0
 11 12  1  0
 12 13  2  0
 13 14  1  0
 14 15  1  0
 15 16  2  0
 16 17  1  0
 16 18  1  0
 18 19  1  0
  9 20  1  0
  5 21  1  0
 21 22  1  0
 21 23  2  0
 23  2  1  0
 20  6  1  0
 19 10  1  0
 19 14  2  0
M  END
>  <Compound_ID>  (261) 
C04171287

>  <Active>  (261) 
0

>  <Smiles>  (261) 
Cc1ccc(C2=NN=C(c3cccc4nc(C)oc34)C2)c(O)c1

>  <canonical_smi>  (261) 
Cc1ccc(C2=NN=C(c3cccc4nc(C)oc34)C2)c(O)c1

>  <Set>  (261) 
G2 inactive

>  <Set_type>  (261) 
Train

>  <MW>  (261) 
305.34

>  <HBD>  (261) 
1

>  <HBA>  (261) 
3

>  <NRB>  (261) 
2

>  <NR>  (261) 
4

>  <NAR>  (261) 
3

>  <PSA>  (261) 
70.98

>  <Standard Type>  (261) 
nan

>  <Standard Relation>  (261) 
nan

>  <Standard Units>  (261) 
nan

>  <Standard Value>  (261) 
nan

>  <Assay ChEMBL ID>  (261) 
nan

>  <Assay Description>  (261) 
nan

>  <BAO Label>  (261) 
nan

$$$$

     RDKit          2D

 20 21  0  0  0  0  0  0  0  0999 V2000
    5.2500   -3.8971    0.0000 C   0  0  0  0  0  0  0  0  0  0  0  0
    3.7500   -3.8971    0.0000 C   0  0  0  0  0  0  0  0  0  0  0  0
    3.0000   -2.5981    0.0000 N   0  0  0  0  0  4  0  0  0  0  0  0
    1.5000   -2.5981    0.0000 C   0  0  0  0  0  0  0  0  0  0  0  0
    0.7500   -3.8971    0.0000 C   0  0  0  0  0  0  0  0  0  0  0  0
    1.3601   -5.2674    0.0000 C   0  0  0  0  0  0  0  0  0  0  0  0
    0.2454   -6.2711    0.0000 C   0  0  0  0  0  0  0  0  0  0  0  0
   -1.0537   -5.5211    0.0000 C   0  0  0  0  0  0  0  0  0  0  0  0
   -2.4240   -6.1312    0.0000 N   0  0  0  0  0  4  0  0  0  0  0  0
   -2.5808   -7.6230    0.0000 O   0  0  0  0  0  0  0  0  0  0  0  0
   -3.6375   -5.2496    0.0000 O   0  0  0  0  0  1  0  0  0  0  0  0
   -0.7418   -4.0539    0.0000 O   0  0  0  0  0  0  0  0  0  0  0  0
    0.7500   -1.2990    0.0000 C   0  0  0  0  0  0  0  0  0  0  0  0
    1.5000    0.0000    0.0000 C   0  0  0  0  0  0  0  0  0  0  0  0
    0.7500    1.2990    0.0000 C   0  0  0  0  0  0  0  0  0  0  0  0
    1.5000    2.5981    0.0000 Br  0  0  0  0  0  0  0  0  0  0  0  0
   -0.7500    1.2990    0.0000 C   0  0  0  0  0  0  0  0  0  0  0  0
   -1.5000    0.0000    0.0000 C   0  0  0  0  0  0  0  0  0  0  0  0
   -0.7500   -1.2990    0.0000 C   0  0  0  0  0  0  0  0  0  0  0  0
   -1.5000   -2.5981    0.0000 Br  0  0  0  0  0  0  0  0  0  0  0  0
  1  2  1  0
  2  3  1  0
  4  3  1  6
  4  5  1  0
  5  6  2  0
  6  7  1  0
  7  8  2  0
  8  9  1  0
  9 10  2  0
  9 11  1  0
  8 12  1  0
  4 13  1  0
 13 14  2  0
 14 15  1  0
 15 16  1  0
 15 17  2  0
 17 18  1  0
 18 19  2  0
 19 20  1  0
 12  5  1  0
 19 13  1  0
M  CHG  3   3   1   9   1  11  -1
M  END
>  <Compound_ID>  (262) 
C35541686

>  <Active>  (262) 
0

>  <Smiles>  (262) 
CC[NH2+][C@H](c1ccc([N+](=O)[O-])o1)c1cc(Br)ccc1Br

>  <canonical_smi>  (262) 
CC[NH2+][C@H](c1ccc([N+](=O)[O-])o1)c1cc(Br)ccc1Br

>  <Set>  (262) 
G2 inactive

>  <Set_type>  (262) 
Train

>  <MW>  (262) 
405.07

>  <HBD>  (262) 
1

>  <HBA>  (262) 
3

>  <NRB>  (262) 
5

>  <NR>  (262) 
2

>  <NAR>  (262) 
2

>  <PSA>  (262) 
72.89

>  <Standard Type>  (262) 
nan

>  <Standard Relation>  (262) 
nan

>  <Standard Units>  (262) 
nan

>  <Standard Value>  (262) 
nan

>  <Assay ChEMBL ID>  (262) 
nan

>  <Assay Description>  (262) 
nan

>  <BAO Label>  (262) 
nan

$$$$

     RDKit          2D

 28 32  0  0  0  0  0  0  0  0999 V2000
    1.2447    8.0346    0.0000 C   0  0  0  0  0  0  0  0  0  0  0  0
    2.2484    6.9199    0.0000 C   0  0  0  0  0  0  0  0  0  0  0  0
    3.7156    7.2317    0.0000 C   0  0  0  0  0  0  0  0  0  0  0  0
    4.7193    6.1170    0.0000 C   0  0  0  0  0  0  0  0  0  0  0  0
    4.2558    4.6904    0.0000 C   0  0  0  0  0  0  0  0  0  0  0  0
    2.7886    4.3786    0.0000 C   0  0  0  0  0  0  0  0  0  0  0  0
    2.3250    2.9520    0.0000 O   0  0  0  0  0  0  0  0  0  0  0  0
    0.8578    2.6401    0.0000 C   0  0  0  0  0  0  0  0  0  0  0  0
    0.3943    1.2135    0.0000 C   0  0  0  0  0  0  0  0  0  0  0  0
    1.2760    0.0000    0.0000 N   0  0  0  0  0  0  0  0  0  0  0  0
    0.3943   -1.2135    0.0000 N   0  0  0  0  0  0  0  0  0  0  0  0
   -1.0323   -0.7500    0.0000 C   0  0  0  0  0  0  0  0  0  0  0  0
   -1.0323    0.7500    0.0000 N   0  0  0  0  0  0  0  0  0  0  0  0
   -2.4589    1.2135    0.0000 N   0  0  0  0  0  0  0  0  0  0  0  0
   -3.3405    0.0000    0.0000 C   0  0  0  0  0  0  0  0  0  0  0  0
   -4.8405    0.0000    0.0000 C   0  0  0  0  0  0  0  0  0  0  0  0
   -5.7222   -1.2135    0.0000 C   0  0  0  0  0  0  0  0  0  0  0  0
   -7.1488   -0.7500    0.0000 C   0  0  0  0  0  0  0  0  0  0  0  0
   -8.3623   -1.6317    0.0000 C   0  0  0  0  0  0  0  0  0  0  0  0
   -9.7327   -1.0216    0.0000 C   0  0  0  0  0  0  0  0  0  0  0  0
  -10.9462   -1.9033    0.0000 C   0  0  0  0  0  0  0  0  0  0  0  0
  -10.7894   -3.3950    0.0000 C   0  0  0  0  0  0  0  0  0  0  0  0
   -9.4191   -4.0051    0.0000 C   0  0  0  0  0  0  0  0  0  0  0  0
   -8.2055   -3.1235    0.0000 C   0  0  0  0  0  0  0  0  0  0  0  0
   -7.1488    0.7500    0.0000 N   0  0  0  0  0  0  0  0  0  0  0  0
   -5.7222    1.2135    0.0000 N   0  0  0  0  0  0  0  0  0  0  0  0
   -2.4589   -1.2135    0.0000 S   0  0  0  0  0  0  0  0  0  0  0  0
    1.7849    5.4933    0.0000 C   0  0  0  0  0  0  0  0  0  0  0  0
  1  2  1  0
  2  3  2  0
  3  4  1  0
  4  5  2  0
  5  6  1  0
  6  7  1  0
  7  8  1  0
  8  9  1  0
  9 10  2  0
 10 11  1  0
 11 12  2  0
 12 13  1  0
 13 14  1  0
 15 14  1  6
 15 16  1  0
 16 17  1  1
 17 18  2  0
 18 19  1  0
 19 20  2  0
 20 21  1  0
 21 22  2  0
 22 23  1  0
 23 24  2  0
 18 25  1  0
 25 26  2  0
 15 27  1  0
  6 28  2  0
 28  2  1  0
 13  9  1  0
 26 16  1  0
 27 12  1  0
 24 19  1  0
M  END
>  <Compound_ID>  (263) 
C38745218

>  <Active>  (263) 
0

>  <Smiles>  (263) 
Cc1cccc(OCc2nnc3n2N[C@@H]([C@H]2C=C(c4ccccc4)N=N2)S3)c1

>  <canonical_smi>  (263) 
Cc1cccc(OCc2nnc3n2N[C@@H]([C@H]2C=C(c4ccccc4)N=N2)S3)c1

>  <Set>  (263) 
G2 inactive

>  <Set_type>  (263) 
Train

>  <MW>  (263) 
390.47

>  <HBD>  (263) 
1

>  <HBA>  (263) 
5

>  <NRB>  (263) 
5

>  <NR>  (263) 
5

>  <NAR>  (263) 
3

>  <PSA>  (263) 
76.69

>  <Standard Type>  (263) 
nan

>  <Standard Relation>  (263) 
nan

>  <Standard Units>  (263) 
nan

>  <Standard Value>  (263) 
nan

>  <Assay ChEMBL ID>  (263) 
nan

>  <Assay Description>  (263) 
nan

>  <BAO Label>  (263) 
nan

$$$$

     RDKit          2D

 27 30  0  0  0  0  0  0  0  0999 V2000
    7.2317   -6.0469    0.0000 C   0  0  0  0  0  0  0  0  0  0  0  0
    6.9199   -4.5797    0.0000 O   0  0  0  0  0  0  0  0  0  0  0  0
    5.4933   -4.1162    0.0000 C   0  0  0  0  0  0  0  0  0  0  0  0
    4.3786   -5.1199    0.0000 C   0  0  0  0  0  0  0  0  0  0  0  0
    2.9520   -4.6564    0.0000 C   0  0  0  0  0  0  0  0  0  0  0  0
    2.6401   -3.1891    0.0000 C   0  0  0  0  0  0  0  0  0  0  0  0
    1.2135   -2.7256    0.0000 N   0  0  0  0  0  0  0  0  0  0  0  0
   -0.0000   -3.6073    0.0000 N   0  0  0  0  0  0  0  0  0  0  0  0
   -1.2135   -2.7256    0.0000 C   0  0  0  0  0  0  0  0  0  0  0  0
   -2.6401   -3.1891    0.0000 C   0  0  0  0  0  0  0  0  0  0  0  0
   -0.7500   -1.2990    0.0000 C   0  0  0  0  0  0  0  0  0  0  0  0
    0.7500   -1.2990    0.0000 C   0  0  0  0  0  0  0  0  0  0  0  0
    1.5000    0.0000    0.0000 N   0  0  0  0  0  0  0  0  0  0  0  0
    0.7500    1.2990    0.0000 C   0  0  0  0  0  0  0  0  0  0  0  0
    1.5000    2.5981    0.0000 O   0  0  0  0  0  0  0  0  0  0  0  0
   -0.7500    1.2990    0.0000 C   0  0  0  0  0  0  0  0  0  0  0  0
   -1.5000    0.0000    0.0000 C   0  0  0  0  0  0  0  0  0  0  0  0
   -3.0000    0.0000    0.0000 C   0  0  0  0  0  0  0  0  0  0  0  0
   -3.7500    1.2990    0.0000 C   0  0  0  0  0  0  0  0  0  0  0  0
   -5.2500    1.2990    0.0000 C   0  0  0  0  0  0  0  0  0  0  0  0
   -6.0000    0.0000    0.0000 C   0  0  0  0  0  0  0  0  0  0  0  0
   -7.5000    0.0000    0.0000 Cl  0  0  0  0  0  0  0  0  0  0  0  0
   -5.2500   -1.2990    0.0000 C   0  0  0  0  0  0  0  0  0  0  0  0
   -6.0000   -2.5981    0.0000 Cl  0  0  0  0  0  0  0  0  0  0  0  0
   -3.7500   -1.2990    0.0000 C   0  0  0  0  0  0  0  0  0  0  0  0
    3.7548   -2.1855    0.0000 N   0  0  0  0  0  0  0  0  0  0  0  0
    5.1814   -2.6490    0.0000 N   0  0  0  0  0  0  0  0  0  0  0  0
  1  2  1  0
  2  3  1  0
  3  4  2  0
  4  5  1  0
  5  6  2  0
  6  7  1  0
  7  8  1  0
  8  9  2  0
  9 10  1  0
  9 11  1  0
 11 12  2  0
 12 13  1  0
 13 14  2  0
 14 15  1  0
 14 16  1  0
 16 17  1  0
 17 18  1  1
 18 19  2  0
 19 20  1  0
 20 21  2  0
 21 22  1  0
 21 23  1  0
 23 24  1  0
 23 25  2  0
  6 26  1  0
 26 27  2  0
 27  3  1  0
 12  7  1  0
 25 18  1  0
 17 11  1  0
M  END
>  <Compound_ID>  (264) 
C32103565

>  <Active>  (264) 
0

>  <Smiles>  (264) 
COc1ccc(-n2nc(C)c3c2N=C(O)C[C@@H]3c2ccc(Cl)c(Cl)c2)nn1

>  <canonical_smi>  (264) 
COc1ccc(-n2nc(C)c3c2N=C(O)C[C@@H]3c2ccc(Cl)c(Cl)c2)nn1

>  <Set>  (264) 
G2 inactive

>  <Set_type>  (264) 
Train

>  <MW>  (264) 
404.26

>  <HBD>  (264) 
1

>  <HBA>  (264) 
5

>  <NRB>  (264) 
3

>  <NR>  (264) 
4

>  <NAR>  (264) 
3

>  <PSA>  (264) 
85.42

>  <Standard Type>  (264) 
nan

>  <Standard Relation>  (264) 
nan

>  <Standard Units>  (264) 
nan

>  <Standard Value>  (264) 
nan

>  <Assay ChEMBL ID>  (264) 
nan

>  <Assay Description>  (264) 
nan

>  <BAO Label>  (264) 
nan

$$$$

     RDKit          2D

 28 30  0  0  0  0  0  0  0  0999 V2000
    0.7500   -6.4952    0.0000 C   0  0  0  0  0  0  0  0  0  0  0  0
    1.5000   -5.1962    0.0000 C   0  0  0  0  0  0  0  0  0  0  0  0
    0.7500   -3.8971    0.0000 N   0  0  0  0  0  0  0  0  0  0  0  0
    1.5000   -2.5981    0.0000 C   0  0  0  0  0  0  0  0  0  0  0  0
    3.0000   -2.5981    0.0000 O   0  0  0  0  0  0  0  0  0  0  0  0
    0.7500   -1.2990    0.0000 N   0  0  0  0  0  0  0  0  0  0  0  0
    1.5000    0.0000    0.0000 C   0  0  0  0  0  0  0  0  0  0  0  0
    0.7500    1.2990    0.0000 C   0  0  0  0  0  0  0  0  0  0  0  0
   -0.7500    1.2990    0.0000 O   0  0  0  0  0  0  0  0  0  0  0  0
   -1.5000    0.0000    0.0000 C   0  0  0  0  0  0  0  0  0  0  0  0
   -3.0000    0.0000    0.0000 C   0  0  0  0  0  0  0  0  0  0  0  0
   -3.7500    1.2990    0.0000 C   0  0  0  0  0  0  0  0  0  0  0  0
   -5.2500    1.2990    0.0000 C   0  0  0  0  0  0  0  0  0  0  0  0
   -6.0000    0.0000    0.0000 C   0  0  0  0  0  0  0  0  0  0  0  0
   -7.5000    0.0000    0.0000 F   0  0  0  0  0  0  0  0  0  0  0  0
   -5.2500   -1.2990    0.0000 C   0  0  0  0  0  0  0  0  0  0  0  0
   -6.0000   -2.5981    0.0000 F   0  0  0  0  0  0  0  0  0  0  0  0
   -3.7500   -1.2990    0.0000 C   0  0  0  0  0  0  0  0  0  0  0  0
   -0.7500   -1.2990    0.0000 C   0  0  0  0  0  0  0  0  0  0  0  0
    3.0000   -5.1962    0.0000 C   0  0  0  0  0  0  0  0  0  0  0  0
    3.7500   -6.4952    0.0000 C   0  0  0  0  0  0  0  0  0  0  0  0
    5.2500   -6.4952    0.0000 C   0  0  0  0  0  0  0  0  0  0  0  0
    6.0000   -5.1962    0.0000 C   0  0  0  0  0  0  0  0  0  0  0  0
    5.2500   -3.8971    0.0000 C   0  0  0  0  0  0  0  0  0  0  0  0
    6.0000   -2.5981    0.0000 N   0  0  0  0  0  4  0  0  0  0  0  0
    5.2500   -1.2990    0.0000 O   0  0  0  0  0  0  0  0  0  0  0  0
    7.5000   -2.5981    0.0000 O   0  0  0  0  0  1  0  0  0  0  0  0
    3.7500   -3.8971    0.0000 C   0  0  0  0  0  0  0  0  0  0  0  0
  2  1  1  6
  2  3  1  0
  3  4  1  0
  4  5  2  0
  4  6  1  0
  6  7  1  0
  7  8  1  0
  8  9  1  0
  9 10  1  0
 10 11  1  6
 11 12  2  0
 12 13  1  0
 13 14  2  0
 14 15  1  0
 14 16  1  0
 16 17  1  0
 16 18  2  0
 10 19  1  0
  2 20  1  0
 20 21  2  0
 21 22  1  0
 22 23  2  0
 23 24  1  0
 24 25  1  0
 25 26  2  0
 25 27  1  0
 24 28  2  0
 19  6  1  0
 28 20  1  0
 18 11  1  0
M  CHG  2  25   1  27  -1
M  END
>  <Compound_ID>  (265) 
C67064357

>  <Active>  (265) 
0

>  <Smiles>  (265) 
C[C@H](NC(=O)N1CCO[C@@H](c2ccc(F)c(F)c2)C1)c1cccc([N+](=O)[O-])c1

>  <canonical_smi>  (265) 
C[C@H](NC(=O)N1CCO[C@@H](c2ccc(F)c(F)c2)C1)c1cccc([N+](=O)[O-])c1

>  <Set>  (265) 
G2 inactive

>  <Set_type>  (265) 
Train

>  <MW>  (265) 
391.37

>  <HBD>  (265) 
1

>  <HBA>  (265) 
4

>  <NRB>  (265) 
4

>  <NR>  (265) 
3

>  <NAR>  (265) 
2

>  <PSA>  (265) 
84.71

>  <Standard Type>  (265) 
nan

>  <Standard Relation>  (265) 
nan

>  <Standard Units>  (265) 
nan

>  <Standard Value>  (265) 
nan

>  <Assay ChEMBL ID>  (265) 
nan

>  <Assay Description>  (265) 
nan

>  <BAO Label>  (265) 
nan

$$$$

     RDKit          2D

 28 31  0  0  0  0  0  0  0  0999 V2000
    3.0000    0.0000    0.0000 C   0  0  0  0  0  0  0  0  0  0  0  0
    1.5000    0.0000    0.0000 C   0  0  0  0  0  0  0  0  0  0  0  0
    0.7500   -1.2990    0.0000 C   0  0  0  0  0  0  0  0  0  0  0  0
   -0.7500   -1.2990    0.0000 C   0  0  0  0  0  0  0  0  0  0  0  0
   -1.5000   -2.5981    0.0000 O   0  0  0  0  0  1  0  0  0  0  0  0
   -1.5000    0.0000    0.0000 N   0  0  0  0  0  0  0  0  0  0  0  0
   -0.7500    1.2990    0.0000 C   0  0  0  0  0  0  0  0  0  0  0  0
   -1.5000    2.5981    0.0000 N   0  0  0  0  0  0  0  0  0  0  0  0
   -3.0000    2.5981    0.0000 C   0  0  0  0  0  0  0  0  0  0  0  0
   -3.7500    3.8971    0.0000 N   0  0  0  0  0  0  0  0  0  0  0  0
   -3.0000    5.1962    0.0000 C   0  0  0  0  0  0  0  0  0  0  0  0
   -3.7500    6.4952    0.0000 C   0  0  0  0  0  0  0  0  0  0  0  0
   -3.0000    7.7942    0.0000 C   0  0  0  0  0  0  0  0  0  0  0  0
   -3.7500    9.0933    0.0000 C   0  0  0  0  0  0  0  0  0  0  0  0
   -5.2500    9.0933    0.0000 C   0  0  0  0  0  0  0  0  0  0  0  0
   -6.0000    7.7942    0.0000 C   0  0  0  0  0  0  0  0  0  0  0  0
   -5.2500    6.4952    0.0000 N   0  0  0  0  0  0  0  0  0  0  0  0
   -3.7500    1.2990    0.0000 N   0  0  0  0  0  4  0  0  0  0  0  0
   -3.0000    0.0000    0.0000 C   0  0  0  0  0  0  0  0  0  0  0  0
   -3.7500   -1.2990    0.0000 C   0  0  0  0  0  0  0  0  0  0  0  0
   -5.2500   -1.2990    0.0000 C   0  0  0  0  0  0  0  0  0  0  0  0
   -6.0000   -2.5981    0.0000 C   0  0  0  0  0  0  0  0  0  0  0  0
   -5.2500   -3.8971    0.0000 C   0  0  0  0  0  0  0  0  0  0  0  0
   -6.0000   -5.1962    0.0000 S   0  0  0  0  0  0  0  0  0  0  0  0
   -7.5000   -5.1962    0.0000 C   0  0  0  0  0  0  0  0  0  0  0  0
   -3.7500   -3.8971    0.0000 C   0  0  0  0  0  0  0  0  0  0  0  0
   -3.0000   -2.5981    0.0000 C   0  0  0  0  0  0  0  0  0  0  0  0
    0.7500    1.2990    0.0000 N   0  0  0  0  0  0  0  0  0  0  0  0
  1  2  2  0
  2  3  1  0
  3  4  2  0
  4  5  1  0
  4  6  1  0
  6  7  1  0
  7  8  2  0
  8  9  1  0
  9 10  1  0
 10 11  1  0
 11 12  1  0
 12 13  2  0
 13 14  1  0
 14 15  2  0
 15 16  1  0
 16 17  2  0
  9 18  2  0
 18 19  1  0
 19 20  1  1
 20 21  2  0
 21 22  1  0
 22 23  2  0
 23 24  1  0
 24 25  1  0
 23 26  1  0
 26 27  2  0
  7 28  1  0
 28  2  1  0
 19  6  1  0
 27 20  1  0
 17 12  1  0
M  CHG  2   5  -1  18   1
M  END
>  <Compound_ID>  (266) 
C20374700

>  <Active>  (266) 
0

>  <Smiles>  (266) 
C=C1C=C([O-])N2C(=NC(NCc3ccccn3)=[NH+][C@@H]2c2ccc(SC)cc2)N1

>  <canonical_smi>  (266) 
C=C1C=C([O-])N2C(=NC(NCc3ccccn3)=[NH+][C@@H]2c2ccc(SC)cc2)N1

>  <Set>  (266) 
G2 inactive

>  <Set_type>  (266) 
Train

>  <MW>  (266) 
392.49

>  <HBD>  (266) 
3

>  <HBA>  (266) 
6

>  <NRB>  (266) 
4

>  <NR>  (266) 
4

>  <NAR>  (266) 
2

>  <PSA>  (266) 
89.58

>  <Standard Type>  (266) 
nan

>  <Standard Relation>  (266) 
nan

>  <Standard Units>  (266) 
nan

>  <Standard Value>  (266) 
nan

>  <Assay ChEMBL ID>  (266) 
nan

>  <Assay Description>  (266) 
nan

>  <BAO Label>  (266) 
nan

$$$$

     RDKit          2D

 24 25  0  0  0  0  0  0  0  0999 V2000
    3.7500   -1.2990    0.0000 C   0  0  0  0  0  0  0  0  0  0  0  0
    3.0000    0.0000    0.0000 S   0  0  0  0  0  0  0  0  0  0  0  0
    1.5000    0.0000    0.0000 C   0  0  0  0  0  0  0  0  0  0  0  0
    0.7500   -1.2990    0.0000 C   0  0  0  0  0  0  0  0  0  0  0  0
   -0.7500   -1.2990    0.0000 N   0  0  0  0  0  4  0  0  0  0  0  0
   -1.5000   -2.5981    0.0000 C   0  0  0  0  0  0  0  0  0  0  0  0
   -0.7500   -3.8971    0.0000 C   0  0  0  0  0  0  0  0  0  0  0  0
   -1.5000   -5.1962    0.0000 N   0  0  0  0  0  0  0  0  0  0  0  0
   -0.7500   -6.4952    0.0000 O   0  0  0  0  0  0  0  0  0  0  0  0
   -3.0000   -2.5981    0.0000 C   0  0  0  0  0  0  0  0  0  0  0  0
   -3.7500   -1.2990    0.0000 C   0  0  0  0  0  0  0  0  0  0  0  0
   -5.2500   -1.2990    0.0000 C   0  0  0  0  0  0  0  0  0  0  0  0
   -6.0000   -2.5981    0.0000 C   0  0  0  0  0  0  0  0  0  0  0  0
   -7.5000   -2.5981    0.0000 S   0  0  0  0  0  0  0  0  0  0  0  0
   -7.5000   -4.0981    0.0000 O   0  0  0  0  0  0  0  0  0  0  0  0
   -7.5000   -1.0981    0.0000 O   0  0  0  0  0  0  0  0  0  0  0  0
   -9.0000   -2.5981    0.0000 C   0  0  0  0  0  0  0  0  0  0  0  0
   -9.7500   -3.8971    0.0000 C   0  0  0  0  0  0  0  0  0  0  0  0
   -9.7500   -1.2990    0.0000 C   0  0  0  0  0  0  0  0  0  0  0  0
   -5.2500   -3.8971    0.0000 C   0  0  0  0  0  0  0  0  0  0  0  0
   -3.7500   -3.8971    0.0000 C   0  0  0  0  0  0  0  0  0  0  0  0
   -1.5000    0.0000    0.0000 C   0  0  0  0  0  0  0  0  0  0  0  0
   -0.7500    1.2990    0.0000 C   0  0  0  0  0  0  0  0  0  0  0  0
    0.7500    1.2990    0.0000 N   0  0  0  0  0  0  0  0  0  0  0  0
  1  2  1  0
  3  2  1  6
  3  4  1  0
  4  5  1  0
  5  6  1  0
  6  7  1  1
  7  8  1  0
  8  9  1  0
  6 10  1  0
 10 11  2  0
 11 12  1  0
 12 13  2  0
 13 14  1  0
 14 15  2  0
 14 16  2  0
 14 17  1  0
 17 18  1  0
 17 19  1  0
 13 20  1  0
 20 21  2  0
  5 22  1  0
 22 23  1  0
 23 24  1  0
 24  3  1  0
 21 10  1  0
M  CHG  1   5   1
M  END
>  <Compound_ID>  (267) 
C39534490

>  <Active>  (267) 
0

>  <Smiles>  (267) 
CS[C@@H]1C[NH+]([C@@H](CNO)c2ccc(S(=O)(=O)C(C)C)cc2)CCN1

>  <canonical_smi>  (267) 
CS[C@@H]1C[NH+]([C@@H](CNO)c2ccc(S(=O)(=O)C(C)C)cc2)CCN1

>  <Set>  (267) 
G2 inactive

>  <Set_type>  (267) 
Train

>  <MW>  (267) 
374.55

>  <HBD>  (267) 
4

>  <HBA>  (267) 
6

>  <NRB>  (267) 
7

>  <NR>  (267) 
2

>  <NAR>  (267) 
1

>  <PSA>  (267) 
82.87

>  <Standard Type>  (267) 
nan

>  <Standard Relation>  (267) 
nan

>  <Standard Units>  (267) 
nan

>  <Standard Value>  (267) 
nan

>  <Assay ChEMBL ID>  (267) 
nan

>  <Assay Description>  (267) 
nan

>  <BAO Label>  (267) 
nan

$$$$

     RDKit          2D

 25 27  0  0  0  0  0  0  0  0999 V2000
   10.5909    9.1136    0.0000 N   0  0  0  0  0  0  0  0  0  0  0  0
    9.6556    7.9408    0.0000 C   0  0  0  0  0  0  0  0  0  0  0  0
   10.2037    6.5445    0.0000 N   0  0  0  0  0  0  0  0  0  0  0  0
    9.2684    5.3718    0.0000 C   0  0  0  0  0  0  0  0  0  0  0  0
    9.8164    3.9754    0.0000 N   0  0  0  0  0  0  0  0  0  0  0  0
    7.7852    5.5953    0.0000 N   0  0  0  0  0  0  0  0  0  0  0  0
    7.2372    6.9916    0.0000 C   0  0  0  0  0  0  0  0  0  0  0  0
    5.7539    7.2152    0.0000 C   0  0  0  0  0  0  0  0  0  0  0  0
    4.8187    6.0424    0.0000 N   0  0  0  0  0  4  0  0  0  0  0  0
    3.3354    6.2660    0.0000 C   0  0  0  0  0  0  0  0  0  0  0  0
    2.4002    5.0933    0.0000 C   0  0  0  0  0  0  0  0  0  0  0  0
    2.9482    3.6969    0.0000 N   0  0  0  0  0  0  0  0  0  0  0  0
    2.0130    2.5242    0.0000 S   0  0  0  0  0  0  0  0  0  0  0  0
    3.1857    1.5890    0.0000 O   0  0  0  0  0  0  0  0  0  0  0  0
    0.8402    3.4594    0.0000 O   0  0  0  0  0  0  0  0  0  0  0  0
    1.0777    1.3515    0.0000 N   0  0  0  0  0  0  0  0  0  0  0  0
    1.7286    0.0000    0.0000 C   0  0  0  0  0  0  0  0  0  0  0  0
    1.0777   -1.3515    0.0000 C   0  0  0  0  0  0  0  0  0  0  0  0
   -0.3846   -1.6852    0.0000 C   0  0  0  0  0  0  0  0  0  0  0  0
   -1.5574   -0.7500    0.0000 C   0  0  0  0  0  0  0  0  0  0  0  0
   -1.5574    0.7500    0.0000 C   0  0  0  0  0  0  0  0  0  0  0  0
   -0.3846    1.6852    0.0000 C   0  0  0  0  0  0  0  0  0  0  0  0
    4.4315    3.4734    0.0000 C   0  0  0  0  0  0  0  0  0  0  0  0
    5.3667    4.6461    0.0000 C   0  0  0  0  0  0  0  0  0  0  0  0
    8.1724    8.1644    0.0000 N   0  0  0  0  0  0  0  0  0  0  0  0
  1  2  1  0
  2  3  2  0
  3  4  1  0
  4  5  1  0
  4  6  2  0
  6  7  1  0
  7  8  1  0
  8  9  1  0
  9 10  1  0
 10 11  1  0
 11 12  1  0
 12 13  1  0
 13 14  2  0
 13 15  2  0
 13 16  1  0
 16 17  1  0
 17 18  1  0
 18 19  1  0
 19 20  1  0
 20 21  1  0
 21 22  1  0
 12 23  1  0
 23 24  1  0
  7 25  2  0
 25  2  1  0
 24  9  1  0
 22 16  1  0
M  CHG  1   9   1
M  END
>  <Compound_ID>  (268) 
C10309584

>  <Active>  (268) 
0

>  <Smiles>  (268) 
Nc1nc(N)nc(C[NH+]2CCN(S(=O)(=O)N3CCCCCC3)CC2)n1

>  <canonical_smi>  (268) 
Nc1nc(N)nc(C[NH+]2CCN(S(=O)(=O)N3CCCCCC3)CC2)n1

>  <Set>  (268) 
G2 inactive

>  <Set_type>  (268) 
Train

>  <MW>  (268) 
371.49

>  <HBD>  (268) 
3

>  <HBA>  (268) 
7

>  <NRB>  (268) 
4

>  <NR>  (268) 
3

>  <NAR>  (268) 
1

>  <PSA>  (268) 
135.77

>  <Standard Type>  (268) 
nan

>  <Standard Relation>  (268) 
nan

>  <Standard Units>  (268) 
nan

>  <Standard Value>  (268) 
nan

>  <Assay ChEMBL ID>  (268) 
nan

>  <Assay Description>  (268) 
nan

>  <BAO Label>  (268) 
nan

$$$$

     RDKit          2D

 30 33  0  0  0  0  0  0  0  0999 V2000
   -6.6213  -10.6178    0.0000 C   0  0  0  0  0  0  0  0  0  0  0  0
   -5.9705   -9.2664    0.0000 N   0  0  0  0  0  4  0  0  0  0  0  0
   -4.4747   -9.1543    0.0000 C   0  0  0  0  0  0  0  0  0  0  0  0
   -3.8239   -7.8028    0.0000 C   0  0  0  0  0  0  0  0  0  0  0  0
   -4.6689   -6.5635    0.0000 O   0  0  0  0  0  0  0  0  0  0  0  0
   -2.3281   -7.6907    0.0000 N   0  0  0  0  0  0  0  0  0  0  0  0
   -1.6772   -6.3393    0.0000 C   0  0  0  0  0  0  0  0  0  0  0  0
   -0.2013   -6.0714    0.0000 C   0  0  0  0  0  0  0  0  0  0  0  0
   -0.0000   -4.5850    0.0000 C   0  0  0  0  0  0  0  0  0  0  0  0
    1.3515   -3.9342    0.0000 C   0  0  0  0  0  0  0  0  0  0  0  0
    2.5242   -4.8694    0.0000 O   0  0  0  0  0  0  0  0  0  0  0  0
    1.6852   -2.4718    0.0000 N   0  0  0  0  0  0  0  0  0  0  0  0
    0.7500   -1.2990    0.0000 C   0  0  0  0  0  0  0  0  0  0  0  0
    1.5000    0.0000    0.0000 C   0  0  0  0  0  0  0  0  0  0  0  0
    0.7500    1.2990    0.0000 C   0  0  0  0  0  0  0  0  0  0  0  0
   -0.7500    1.2990    0.0000 C   0  0  0  0  0  0  0  0  0  0  0  0
   -1.5000    2.5981    0.0000 C   0  0  0  0  0  0  0  0  0  0  0  0
   -0.7500    3.8971    0.0000 C   0  0  0  0  0  0  0  0  0  0  0  0
   -1.5000    5.1962    0.0000 C   0  0  0  0  0  0  0  0  0  0  0  0
   -3.0000    5.1962    0.0000 C   0  0  0  0  0  0  0  0  0  0  0  0
   -3.7500    3.8971    0.0000 C   0  0  0  0  0  0  0  0  0  0  0  0
   -5.2500    3.8971    0.0000 C   0  0  0  0  0  0  0  0  0  0  0  0
   -3.0000    2.5981    0.0000 C   0  0  0  0  0  0  0  0  0  0  0  0
   -3.7500    1.2990    0.0000 C   0  0  0  0  0  0  0  0  0  0  0  0
   -1.5000    0.0000    0.0000 C   0  0  0  0  0  0  0  0  0  0  0  0
   -0.7500   -1.2990    0.0000 C   0  0  0  0  0  0  0  0  0  0  0  0
   -1.6852   -2.4718    0.0000 C   0  0  0  0  0  0  0  0  0  0  0  0
   -3.1476   -2.1380    0.0000 O   0  0  0  0  0  0  0  0  0  0  0  0
   -1.3515   -3.9342    0.0000 N   0  0  0  0  0  0  0  0  0  0  0  0
   -2.3880   -5.0184    0.0000 C   0  0  0  0  0  0  0  0  0  0  0  0
  1  2  1  0
  2  3  1  0
  3  4  1  0
  4  5  2  0
  4  6  1  0
  7  6  1  6
  7  8  1  0
  9  8  1  6
  9 10  1  0
 10 11  2  0
 10 12  1  0
 12 13  1  0
 13 14  2  0
 14 15  1  0
 15 16  2  0
 16 17  1  0
 17 18  2  0
 18 19  1  0
 19 20  2  0
 20 21  1  0
 21 22  1  0
 21 23  2  0
 23 24  1  0
 16 25  1  0
 25 26  2  0
 26 27  1  0
 27 28  2  0
 27 29  1  0
 29 30  1  0
 30  7  1  0
 29  9  1  0
 26 13  1  0
 23 17  1  0
M  CHG  1   2   1
M  END
>  <Compound_ID>  (269) 
C15708905

>  <Active>  (269) 
0

>  <Smiles>  (269) 
C[NH2+]CC(=O)N[C@H]1C[C@H]2C(=O)Nc3ccc(-c4cccc(C)c4C)cc3C(=O)N2C1

>  <canonical_smi>  (269) 
C[NH2+]CC(=O)N[C@H]1C[C@H]2C(=O)Nc3ccc(-c4cccc(C)c4C)cc3C(=O)N2C1

>  <Set>  (269) 
G2 inactive

>  <Set_type>  (269) 
Train

>  <MW>  (269) 
407.49

>  <HBD>  (269) 
3

>  <HBA>  (269) 
3

>  <NRB>  (269) 
4

>  <NR>  (269) 
4

>  <NAR>  (269) 
2

>  <PSA>  (269) 
95.12

>  <Standard Type>  (269) 
nan

>  <Standard Relation>  (269) 
nan

>  <Standard Units>  (269) 
nan

>  <Standard Value>  (269) 
nan

>  <Assay ChEMBL ID>  (269) 
nan

>  <Assay Description>  (269) 
nan

>  <BAO Label>  (269) 
nan

$$$$

     RDKit          2D

 30 33  0  0  0  0  0  0  0  0999 V2000
  -11.2540   -5.9314    0.0000 C   0  0  0  0  0  0  0  0  0  0  0  0
   -9.7540   -5.9314    0.0000 O   0  0  0  0  0  0  0  0  0  0  0  0
   -9.0040   -4.6324    0.0000 C   0  0  0  0  0  0  0  0  0  0  0  0
   -9.7540   -3.3333    0.0000 O   0  0  0  0  0  0  0  0  0  0  0  0
   -7.5040   -4.6324    0.0000 C   0  0  0  0  0  0  0  0  0  0  0  0
   -6.6223   -5.8459    0.0000 C   0  0  0  0  0  0  0  0  0  0  0  0
   -5.1957   -5.3824    0.0000 C   0  0  0  0  0  0  0  0  0  0  0  0
   -5.1957   -3.8824    0.0000 S   0  0  0  0  0  0  0  0  0  0  0  0
   -6.6223   -3.4188    0.0000 C   0  0  0  0  0  0  0  0  0  0  0  0
   -7.0858   -1.9923    0.0000 N   0  0  0  0  0  0  0  0  0  0  0  0
   -6.0821   -0.8775    0.0000 C   0  0  0  0  0  0  0  0  0  0  0  0
   -4.6149   -1.1894    0.0000 O   0  0  0  0  0  0  0  0  0  0  0  0
   -6.5456    0.5490    0.0000 C   0  0  0  0  0  0  0  0  0  0  0  0
   -7.9722    1.0126    0.0000 C   0  0  0  0  0  0  0  0  0  0  0  0
   -7.9722    2.5126    0.0000 C   0  0  0  0  0  0  0  0  0  0  0  0
   -6.5456    2.9761    0.0000 S   0  0  0  0  0  0  0  0  0  0  0  0
   -5.6640    1.7626    0.0000 C   0  0  0  0  0  0  0  0  0  0  0  0
   -4.1640    1.7626    0.0000 N   0  0  0  0  0  0  0  0  0  0  0  0
   -3.4140    3.0616    0.0000 C   0  0  0  0  0  0  0  0  0  0  0  0
   -4.1640    4.3606    0.0000 O   0  0  0  0  0  0  0  0  0  0  0  0
   -1.9140    3.0616    0.0000 C   0  0  0  0  0  0  0  0  0  0  0  0
   -1.0323    1.8481    0.0000 C   0  0  0  0  0  0  0  0  0  0  0  0
   -1.4958    0.4215    0.0000 C   0  0  0  0  0  0  0  0  0  0  0  0
   -2.9630    0.1096    0.0000 O   0  0  0  0  0  0  0  0  0  0  0  0
   -0.4921   -0.6932    0.0000 O   0  0  0  0  0  1  0  0  0  0  0  0
    0.3943    2.3116    0.0000 C   0  0  0  0  0  0  0  0  0  0  0  0
    1.2760    3.5251    0.0000 C   0  0  0  0  0  0  0  0  0  0  0  0
    0.3943    4.7387    0.0000 C   0  0  0  0  0  0  0  0  0  0  0  0
   -1.0323    4.2751    0.0000 C   0  0  0  0  0  0  0  0  0  0  0  0
   -1.0323    2.7751    0.0000 O   0  0  0  0  0  0  0  0  0  0  0  0
  1  2  1  0
  2  3  1  0
  3  4  2  0
  3  5  1  0
  5  6  1  0
  6  7  2  0
  7  8  1  0
  8  9  1  0
  9 10  1  0
 10 11  1  0
 11 12  2  0
 11 13  1  0
 13 14  1  0
 14 15  2  0
 15 16  1  0
 16 17  1  0
 17 18  1  0
 18 19  1  0
 19 20  2  0
 21 19  1  6
 21 22  1  0
 22 23  1  6
 23 24  2  0
 23 25  1  0
 22 26  1  0
 26 27  1  6
 27 28  1  0
 29 28  1  6
 29 30  1  0
  9  5  2  0
 17 13  2  0
 29 21  1  0
 30 26  1  0
M  CHG  1  25  -1
M  END
>  <Compound_ID>  (270) 
C20220960

>  <Active>  (270) 
0

>  <Smiles>  (270) 
COC(=O)c1ccsc1NC(=O)c1ccsc1NC(=O)[C@H]1[C@@H](C(=O)[O-])[C@H]2CC[C@@H]1O2

>  <canonical_smi>  (270) 
COC(=O)c1ccsc1NC(=O)c1ccsc1NC(=O)[C@@H]1[C@@H]2CC[C@@H](O2)[C@@H]1C(=O)[O-]

>  <Set>  (270) 
G2 inactive

>  <Set_type>  (270) 
Train

>  <MW>  (270) 
449.49

>  <HBD>  (270) 
2

>  <HBA>  (270) 
7

>  <NRB>  (270) 
6

>  <NR>  (270) 
4

>  <NAR>  (270) 
2

>  <PSA>  (270) 
133.86

>  <Standard Type>  (270) 
nan

>  <Standard Relation>  (270) 
nan

>  <Standard Units>  (270) 
nan

>  <Standard Value>  (270) 
nan

>  <Assay ChEMBL ID>  (270) 
nan

>  <Assay Description>  (270) 
nan

>  <BAO Label>  (270) 
nan

$$$$

     RDKit          2D

 19 21  0  0  0  0  0  0  0  0999 V2000
    3.0000    0.0000    0.0000 C   0  0  0  0  0  0  0  0  0  0  0  0
    1.5000    0.0000    0.0000 C   0  0  0  0  0  0  0  0  0  0  0  0
    0.7500   -1.2990    0.0000 C   0  0  0  0  0  0  0  0  0  0  0  0
   -0.7500   -1.2990    0.0000 C   0  0  0  0  0  0  0  0  0  0  0  0
   -1.5000    0.0000    0.0000 C   0  0  0  0  0  0  0  0  0  0  0  0
   -3.0000    0.0000    0.0000 O   0  0  0  0  0  0  0  0  0  0  0  0
   -0.7500    1.2990    0.0000 C   0  0  0  0  0  0  0  0  0  0  0  0
    0.7500    1.2990    0.0000 C   0  0  0  0  0  0  0  0  0  0  0  0
    1.2135    2.7256    0.0000 C   0  0  0  0  0  0  0  0  0  0  0  0
    2.6401    3.1891    0.0000 C   0  0  0  0  0  0  0  0  0  0  0  0
    0.0000    3.6073    0.0000 C   0  0  0  0  0  0  0  0  0  0  0  0
   -1.2135    2.7256    0.0000 C   0  0  0  0  0  0  0  0  0  0  0  0
   -2.6401    3.1891    0.0000 N   0  0  0  0  0  0  0  0  0  0  0  0
   -2.9520    4.6564    0.0000 C   0  0  0  0  0  0  0  0  0  0  0  0
   -4.3223    5.2665    0.0000 C   0  0  0  0  0  0  0  0  0  0  0  0
   -4.1655    6.7583    0.0000 C   0  0  0  0  0  0  0  0  0  0  0  0
   -2.6983    7.0701    0.0000 N   0  0  0  0  0  0  0  0  0  0  0  0
   -2.0882    8.4404    0.0000 C   0  0  0  0  0  0  0  0  0  0  0  0
   -1.9483    5.7711    0.0000 N   0  0  0  0  0  0  0  0  0  0  0  0
  1  2  1  0
  2  3  2  0
  3  4  1  0
  4  5  2  0
  5  6  1  0
  5  7  1  0
  7  8  2  0
  8  9  1  0
  9 10  1  6
  9 11  1  0
 11 12  1  0
 12 13  1  1
 13 14  1  0
 14 15  1  0
 15 16  2  0
 16 17  1  0
 17 18  1  0
 17 19  1  0
  8  2  1  0
 19 14  2  0
 12  7  1  0
M  END
>  <Compound_ID>  (271) 
C37561014

>  <Active>  (271) 
0

>  <Smiles>  (271) 
Cc1ccc(O)c2c1[C@@H](C)C[C@@H]2Nc1ccn(C)n1

>  <canonical_smi>  (271) 
Cc1ccc(O)c2c1[C@@H](C)C[C@@H]2Nc1ccn(C)n1

>  <Set>  (271) 
G2 inactive

>  <Set_type>  (271) 
Train

>  <MW>  (271) 
257.34

>  <HBD>  (271) 
2

>  <HBA>  (271) 
3

>  <NRB>  (271) 
2

>  <NR>  (271) 
3

>  <NAR>  (271) 
2

>  <PSA>  (271) 
50.08

>  <Standard Type>  (271) 
nan

>  <Standard Relation>  (271) 
nan

>  <Standard Units>  (271) 
nan

>  <Standard Value>  (271) 
nan

>  <Assay ChEMBL ID>  (271) 
nan

>  <Assay Description>  (271) 
nan

>  <BAO Label>  (271) 
nan

$$$$

     RDKit          2D

 27 29  0  0  0  0  0  0  0  0999 V2000
  -10.8856    4.3779    0.0000 C   0  0  0  0  0  0  0  0  0  0  0  0
   -9.7709    3.3742    0.0000 C   0  0  0  0  0  0  0  0  0  0  0  0
   -8.6562    2.3705    0.0000 C   0  0  0  0  0  0  0  0  0  0  0  0
   -7.2296    2.8340    0.0000 N   0  0  0  0  0  0  0  0  0  0  0  0
   -6.1149    1.8303    0.0000 C   0  0  0  0  0  0  0  0  0  0  0  0
   -6.4268    0.3631    0.0000 O   0  0  0  0  0  0  0  0  0  0  0  0
   -4.6883    2.2939    0.0000 C   0  0  0  0  0  0  0  0  0  0  0  0
   -3.5736    1.2902    0.0000 C   0  0  0  0  0  0  0  0  0  0  0  0
   -2.1470    1.7537    0.0000 C   0  0  0  0  0  0  0  0  0  0  0  0
   -1.8351    3.2209    0.0000 C   0  0  0  0  0  0  0  0  0  0  0  0
   -0.4086    3.6844    0.0000 N   0  0  0  0  0  0  0  0  0  0  0  0
    0.7062    2.6807    0.0000 C   0  0  0  0  0  0  0  0  0  0  0  0
    2.1328    3.1443    0.0000 O   0  0  0  0  0  0  0  0  0  0  0  0
    0.3943    1.2135    0.0000 C   0  0  0  0  0  0  0  0  0  0  0  0
    1.2760    0.0000    0.0000 C   0  0  0  0  0  0  0  0  0  0  0  0
    0.3943   -1.2135    0.0000 C   0  0  0  0  0  0  0  0  0  0  0  0
    0.8578   -2.6401    0.0000 N   0  0  0  0  0  0  0  0  0  0  0  0
   -0.1459   -3.7548    0.0000 C   0  0  0  0  0  0  0  0  0  0  0  0
    0.3177   -5.1814    0.0000 C   0  0  0  0  0  0  0  0  0  0  0  0
    1.7442   -5.6449    0.0000 C   0  0  0  0  0  0  0  0  0  0  0  0
    1.7442   -7.1449    0.0000 C   0  0  0  0  0  0  0  0  0  0  0  0
    0.3177   -7.6085    0.0000 C   0  0  0  0  0  0  0  0  0  0  0  0
   -0.1459   -9.0350    0.0000 C   0  0  0  0  0  0  0  0  0  0  0  0
   -1.6131   -9.3469    0.0000 O   0  0  0  0  0  0  0  0  0  0  0  0
   -0.5640   -6.3949    0.0000 O   0  0  0  0  0  0  0  0  0  0  0  0
   -1.0323   -0.7500    0.0000 C   0  0  0  0  0  0  0  0  0  0  0  0
   -1.0323    0.7500    0.0000 N   0  0  0  0  0  4  0  0  0  0  0  0
  1  2  3  0
  2  3  1  0
  3  4  1  0
  4  5  1  0
  5  6  2  0
  5  7  1  0
  7  8  1  0
  9  8  1  6
  9 10  1  0
 10 11  1  0
 11 12  1  0
 12 13  2  0
 12 14  1  0
 14 15  1  6
 15 16  1  0
 16 17  1  6
 17 18  1  0
 18 19  1  0
 19 20  2  0
 20 21  1  0
 21 22  2  0
 22 23  1  0
 23 24  1  0
 22 25  1  0
 16 26  1  0
 26 27  1  0
 27  9  1  0
 27 14  1  0
 25 19  1  0
M  CHG  1  27   1
M  END
>  <Compound_ID>  (272) 
C22936916

>  <Active>  (272) 
0

>  <Smiles>  (272) 
C#CCNC(=O)CC[C@@H]1CNC(=O)[C@@H]2C[C@H](NCc3ccc(CO)o3)C[NH+]12

>  <canonical_smi>  (272) 
C#CCNC(=O)CC[C@@H]1CNC(=O)[C@@H]2C[C@H](NCc3ccc(CO)o3)C[NH+]21

>  <Set>  (272) 
G2 inactive

>  <Set_type>  (272) 
Train

>  <MW>  (272) 
375.45

>  <HBD>  (272) 
5

>  <HBA>  (272) 
5

>  <NRB>  (272) 
8

>  <NR>  (272) 
3

>  <NAR>  (272) 
1

>  <PSA>  (272) 
108.04

>  <Standard Type>  (272) 
nan

>  <Standard Relation>  (272) 
nan

>  <Standard Units>  (272) 
nan

>  <Standard Value>  (272) 
nan

>  <Assay ChEMBL ID>  (272) 
nan

>  <Assay Description>  (272) 
nan

>  <BAO Label>  (272) 
nan

$$$$

     RDKit          2D

 29 30  0  0  0  0  0  0  0  0999 V2000
    2.1328    3.1443    0.0000 C   0  0  0  0  0  0  0  0  0  0  0  0
    0.7062    2.6807    0.0000 C   0  0  0  0  0  0  0  0  0  0  0  0
   -0.4086    3.6844    0.0000 C   0  0  0  0  0  0  0  0  0  0  0  0
   -0.0967    5.1517    0.0000 C   0  0  0  0  0  0  0  0  0  0  0  0
   -1.8351    3.2209    0.0000 C   0  0  0  0  0  0  0  0  0  0  0  0
   -2.9499    4.2246    0.0000 S   0  0  0  0  0  0  0  0  0  0  0  0
   -1.9462    5.3393    0.0000 O   0  0  0  0  0  0  0  0  0  0  0  0
   -3.9535    3.1099    0.0000 O   0  0  0  0  0  0  0  0  0  0  0  0
   -4.0646    5.2283    0.0000 N   0  0  0  0  0  0  0  0  0  0  0  0
   -5.4912    4.7648    0.0000 N   0  0  0  0  0  4  0  0  0  0  0  0
   -6.6059    5.7685    0.0000 C   0  0  0  0  0  0  0  0  0  0  0  0
   -8.0325    5.3050    0.0000 N   0  0  0  0  0  0  0  0  0  0  0  0
   -9.1472    6.3086    0.0000 C   0  0  0  0  0  0  0  0  0  0  0  0
  -10.5738    5.8451    0.0000 C   0  0  0  0  0  0  0  0  0  0  0  0
  -11.6885    6.8488    0.0000 C   0  0  0  0  0  0  0  0  0  0  0  0
  -13.1151    6.3853    0.0000 C   0  0  0  0  0  0  0  0  0  0  0  0
  -13.4269    4.9181    0.0000 N   0  0  0  0  0  4  0  0  0  0  0  0
  -14.2298    7.3890    0.0000 C   0  0  0  0  0  0  0  0  0  0  0  0
  -13.9179    8.8562    0.0000 O   0  0  0  0  0  0  0  0  0  0  0  0
  -15.6564    6.9255    0.0000 O   0  0  0  0  0  1  0  0  0  0  0  0
   -2.1470    1.7537    0.0000 C   0  0  0  0  0  0  0  0  0  0  0  0
   -3.5736    1.2902    0.0000 C   0  0  0  0  0  0  0  0  0  0  0  0
   -1.0323    0.7500    0.0000 C   0  0  0  0  0  0  0  0  0  0  0  0
    0.3943    1.2135    0.0000 C   0  0  0  0  0  0  0  0  0  0  0  0
    1.2760    0.0000    0.0000 O   0  0  0  0  0  0  0  0  0  0  0  0
    0.3943   -1.2135    0.0000 C   0  0  0  0  0  0  0  0  0  0  0  0
    1.6933   -1.9635    0.0000 C   0  0  0  0  0  0  0  0  0  0  0  0
   -0.2158   -2.5838    0.0000 C   0  0  0  0  0  0  0  0  0  0  0  0
   -1.0323   -0.7500    0.0000 C   0  0  0  0  0  0  0  0  0  0  0  0
  1  2  1  0
  2  3  2  0
  3  4  1  0
  3  5  1  0
  5  6  1  0
  6  7  2  0
  6  8  2  0
  6  9  1  0
  9 10  1  0
 10 11  2  0
 11 12  1  0
 12 13  1  0
 13 14  1  0
 14 15  1  0
 15 16  1  0
 16 17  1  1
 16 18  1  0
 18 19  2  0
 18 20  1  0
  5 21  2  0
 21 22  1  0
 21 23  1  0
 23 24  2  0
 24 25  1  0
 25 26  1  0
 26 27  1  0
 26 28  1  0
 26 29  1  0
 24  2  1  0
 29 23  1  0
M  CHG  3  10   1  17   1  20  -1
M  END
>  <Compound_ID>  (273) 
C55161959

>  <Active>  (273) 
0

>  <Smiles>  (273) 
Cc1c(C)c(S(=O)(=O)N/[NH+]=C/NCCC[C@@H]([NH3+])C(=O)[O-])c(C)c2c1OC(C)(C)C2

>  <canonical_smi>  (273) 
Cc1c(C)c(S(=O)(=O)N/[NH+]=C/NCCC[C@@H]([NH3+])C(=O)[O-])c(C)c2c1OC(C)(C)C2

>  <Set>  (273) 
G2 inactive

>  <Set_type>  (273) 
Train

>  <MW>  (273) 
427.55

>  <HBD>  (273) 
4

>  <HBA>  (273) 
6

>  <NRB>  (273) 
9

>  <NR>  (273) 
2

>  <NAR>  (273) 
1

>  <PSA>  (273) 
149.17

>  <Standard Type>  (273) 
nan

>  <Standard Relation>  (273) 
nan

>  <Standard Units>  (273) 
nan

>  <Standard Value>  (273) 
nan

>  <Assay ChEMBL ID>  (273) 
nan

>  <Assay Description>  (273) 
nan

>  <BAO Label>  (273) 
nan

$$$$

     RDKit          2D

 28 31  0  0  0  0  0  0  0  0999 V2000
   -7.4546   -9.2628    0.0000 N   0  0  0  0  0  0  0  0  0  0  0  0
   -7.9182   -7.8363    0.0000 C   0  0  0  0  0  0  0  0  0  0  0  0
   -8.3817   -6.4097    0.0000 C   0  0  0  0  0  0  0  0  0  0  0  0
   -7.5000   -5.1962    0.0000 C   0  0  0  0  0  0  0  0  0  0  0  0
   -6.0000   -5.1962    0.0000 C   0  0  0  0  0  0  0  0  0  0  0  0
   -5.2500   -3.8971    0.0000 C   0  0  0  0  0  0  0  0  0  0  0  0
   -3.7500   -3.8971    0.0000 C   0  0  0  0  0  0  0  0  0  0  0  0
   -3.0000   -2.5981    0.0000 N   0  0  0  0  0  0  0  0  0  0  0  0
   -1.5000   -2.5981    0.0000 C   0  0  0  0  0  0  0  0  0  0  0  0
   -0.7500   -3.8971    0.0000 N   0  0  0  0  0  0  0  0  0  0  0  0
    0.7500   -3.8971    0.0000 C   0  0  0  0  0  0  0  0  0  0  0  0
    1.5000   -5.1962    0.0000 C   0  0  0  0  0  0  0  0  0  0  0  0
    0.7500   -6.4952    0.0000 C   0  0  0  0  0  0  0  0  0  0  0  0
    1.5000   -7.7942    0.0000 C   0  0  0  0  0  0  0  0  0  0  0  0
    3.0000   -7.7942    0.0000 N   0  0  0  0  0  0  0  0  0  0  0  0
    3.7500   -6.4952    0.0000 C   0  0  0  0  0  0  0  0  0  0  0  0
    3.0000   -5.1962    0.0000 C   0  0  0  0  0  0  0  0  0  0  0  0
    1.5000   -2.5981    0.0000 N   0  0  0  0  0  0  0  0  0  0  0  0
    0.7500   -1.2990    0.0000 C   0  0  0  0  0  0  0  0  0  0  0  0
    1.5000    0.0000    0.0000 C   0  0  0  0  0  0  0  0  0  0  0  0
    0.7500    1.2990    0.0000 C   0  0  0  0  0  0  0  0  0  0  0  0
   -0.7500    1.2990    0.0000 C   0  0  0  0  0  0  0  0  0  0  0  0
   -1.5000    0.0000    0.0000 C   0  0  0  0  0  0  0  0  0  0  0  0
   -0.7500   -1.2990    0.0000 C   0  0  0  0  0  0  0  0  0  0  0  0
   -8.3817   -3.9826    0.0000 N   0  0  0  0  0  0  0  0  0  0  0  0
   -9.8083   -4.4462    0.0000 N   0  0  0  0  0  0  0  0  0  0  0  0
   -9.8083   -5.9462    0.0000 C   0  0  0  0  0  0  0  0  0  0  0  0
  -11.0218   -6.8278    0.0000 N   0  0  0  0  0  0  0  0  0  0  0  0
  1  2  3  0
  2  3  1  0
  3  4  1  0
  4  5  1  0
  5  6  1  0
  6  7  1  0
  7  8  1  0
  8  9  1  0
  9 10  2  0
 10 11  1  0
 11 12  1  0
 12 13  2  0
 13 14  1  0
 14 15  2  0
 15 16  1  0
 16 17  2  0
 11 18  2  0
 18 19  1  0
 19 20  2  0
 20 21  1  0
 21 22  2  0
 22 23  1  0
 23 24  2  0
  4 25  2  0
 25 26  1  0
 26 27  1  0
 27 28  1  0
 27  3  2  0
 24  9  1  0
 17 12  1  0
 24 19  1  0
M  END
>  <Compound_ID>  (274) 
C12629937

>  <Active>  (274) 
0

>  <Smiles>  (274) 
N#Cc1c(CCCNc2nc(-c3ccncc3)nc3ccccc23)n[nH]c1N

>  <canonical_smi>  (274) 
N#Cc1c(CCCNc2nc(-c3ccncc3)nc3ccccc23)n[nH]c1N

>  <Set>  (274) 
G2 inactive

>  <Set_type>  (274) 
Train

>  <MW>  (274) 
370.42

>  <HBD>  (274) 
3

>  <HBA>  (274) 
7

>  <NRB>  (274) 
6

>  <NR>  (274) 
4

>  <NAR>  (274) 
4

>  <PSA>  (274) 
129.19

>  <Standard Type>  (274) 
nan

>  <Standard Relation>  (274) 
nan

>  <Standard Units>  (274) 
nan

>  <Standard Value>  (274) 
nan

>  <Assay ChEMBL ID>  (274) 
nan

>  <Assay Description>  (274) 
nan

>  <BAO Label>  (274) 
nan

$$$$

     RDKit          2D

 35 38  0  0  0  0  0  0  0  0999 V2000
    4.5000   -5.1962    0.0000 N   0  0  0  0  0  0  0  0  0  0  0  0
    3.7500   -6.4952    0.0000 C   0  0  0  0  0  0  0  0  0  0  0  0
    3.0000   -7.7942    0.0000 C   0  0  0  0  0  0  0  0  0  0  0  0
    3.7500   -9.0933    0.0000 C   0  0  0  0  0  0  0  0  0  0  0  0
    3.0000  -10.3923    0.0000 C   0  0  0  0  0  0  0  0  0  0  0  0
    1.5000  -10.3923    0.0000 C   0  0  0  0  0  0  0  0  0  0  0  0
    0.7500  -11.6913    0.0000 N   0  0  0  0  0  0  0  0  0  0  0  0
   -0.7500  -11.6913    0.0000 C   0  0  0  0  0  0  0  0  0  0  0  0
   -1.5000  -12.9904    0.0000 C   0  0  0  0  0  0  0  0  0  0  0  0
   -2.7990  -12.2404    0.0000 F   0  0  0  0  0  0  0  0  0  0  0  0
   -0.2010  -13.7404    0.0000 F   0  0  0  0  0  0  0  0  0  0  0  0
   -2.2500  -14.2894    0.0000 C   0  0  0  0  0  0  0  0  0  0  0  0
   -3.7500  -14.2894    0.0000 C   0  0  0  0  0  0  0  0  0  0  0  0
   -4.5000  -15.5885    0.0000 C   0  0  0  0  0  0  0  0  0  0  0  0
   -3.7500  -16.8875    0.0000 C   0  0  0  0  0  0  0  0  0  0  0  0
   -2.2500  -16.8875    0.0000 C   0  0  0  0  0  0  0  0  0  0  0  0
   -1.5000  -15.5885    0.0000 N   0  0  0  0  0  0  0  0  0  0  0  0
    0.7500   -9.0933    0.0000 C   0  0  0  0  0  0  0  0  0  0  0  0
   -0.7500   -9.0933    0.0000 F   0  0  0  0  0  0  0  0  0  0  0  0
    1.5000   -7.7942    0.0000 C   0  0  0  0  0  0  0  0  0  0  0  0
    0.7500   -6.4952    0.0000 C   0  0  0  0  0  0  0  0  0  0  0  0
    1.5000   -5.1962    0.0000 C   0  0  0  0  0  0  0  0  0  0  0  0
    3.0000   -5.1962    0.0000 O   0  0  0  0  0  0  0  0  0  0  0  0
    0.7500   -3.8971    0.0000 N   0  0  0  0  0  0  0  0  0  0  0  0
    1.5000   -2.5981    0.0000 C   0  0  0  0  0  0  0  0  0  0  0  0
    0.7500   -1.2990    0.0000 C   0  0  0  0  0  0  0  0  0  0  0  0
    1.5000    0.0000    0.0000 C   0  0  0  0  0  0  0  0  0  0  0  0
    0.7500    1.2990    0.0000 C   0  0  0  0  0  0  0  0  0  0  0  0
   -0.7500    1.2990    0.0000 C   0  0  0  0  0  0  0  0  0  0  0  0
   -1.7537    2.4138    0.0000 C   0  0  0  0  0  0  0  0  0  0  0  0
   -1.4418    3.8810    0.0000 N   0  0  0  0  0  0  0  0  0  0  0  0
   -3.1240    1.8037    0.0000 N   0  0  0  0  0  0  0  0  0  0  0  0
   -2.9672    0.3119    0.0000 O   0  0  0  0  0  0  0  0  0  0  0  0
   -1.5000    0.0000    0.0000 C   0  0  0  0  0  0  0  0  0  0  0  0
   -0.7500   -1.2990    0.0000 C   0  0  0  0  0  0  0  0  0  0  0  0
  1  2  3  0
  2  3  1  0
  3  4  2  0
  4  5  1  0
  5  6  2  0
  6  7  1  0
  7  8  1  0
  8  9  1  0
  9 10  1  0
  9 11  1  0
  9 12  1  0
 12 13  2  0
 13 14  1  0
 14 15  2  0
 15 16  1  0
 16 17  2  0
  6 18  1  0
 18 19  1  0
 18 20  2  0
 20 21  1  0
 21 22  1  0
 22 23  2  0
 22 24  1  0
 24 25  1  0
 25 26  1  0
 26 27  2  0
 27 28  1  0
 28 29  2  0
 29 30  1  0
 30 31  1  0
 30 32  2  0
 32 33  1  0
 33 34  1  0
 34 35  2  0
 20  3  1  0
 35 26  1  0
 17 12  1  0
 34 29  1  0
M  END
>  <Compound_ID>  (275) 
C29043378

>  <Active>  (275) 
0

>  <Smiles>  (275) 
N#Cc1ccc(NCC(F)(F)c2ccccn2)c(F)c1CC(=O)NCc1ccc2c(N)noc2c1

>  <canonical_smi>  (275) 
N#Cc1ccc(NCC(F)(F)c2ccccn2)c(F)c1CC(=O)NCc1ccc2c(N)noc2c1

>  <Set>  (275) 
G2 inactive

>  <Set_type>  (275) 
Train

>  <MW>  (275) 
480.45

>  <HBD>  (275) 
3

>  <HBA>  (275) 
7

>  <NRB>  (275) 
8

>  <NR>  (275) 
4

>  <NAR>  (275) 
4

>  <PSA>  (275) 
129.86

>  <Standard Type>  (275) 
nan

>  <Standard Relation>  (275) 
nan

>  <Standard Units>  (275) 
nan

>  <Standard Value>  (275) 
nan

>  <Assay ChEMBL ID>  (275) 
nan

>  <Assay Description>  (275) 
nan

>  <BAO Label>  (275) 
nan

$$$$

     RDKit          2D

 36 38  0  0  0  0  0  0  0  0999 V2000
   14.4110    3.9134    0.0000 C   0  0  0  0  0  0  0  0  0  0  0  0
   12.9844    4.3769    0.0000 C   0  0  0  0  0  0  0  0  0  0  0  0
   11.8697    3.3732    0.0000 C   0  0  0  0  0  0  0  0  0  0  0  0
   10.4431    3.8367    0.0000 C   0  0  0  0  0  0  0  0  0  0  0  0
    9.3284    2.8330    0.0000 C   0  0  0  0  0  0  0  0  0  0  0  0
    7.9018    3.2966    0.0000 C   0  0  0  0  0  0  0  0  0  0  0  0
    6.7871    2.2929    0.0000 C   0  0  0  0  0  0  0  0  0  0  0  0
    7.0990    0.8256    0.0000 C   0  0  0  0  0  0  0  0  0  0  0  0
    8.5256    0.3621    0.0000 O   0  0  0  0  0  0  0  0  0  0  0  0
    5.9843   -0.1781    0.0000 N   0  0  0  0  0  0  0  0  0  0  0  0
    6.2961   -1.6453    0.0000 C   0  0  0  0  0  0  0  0  0  0  0  0
    5.1814   -2.6490    0.0000 C   0  0  0  0  0  0  0  0  0  0  0  0
    5.4933   -4.1162    0.0000 O   0  0  0  0  0  0  0  0  0  0  0  0
    3.7548   -2.1855    0.0000 O   0  0  0  0  0  0  0  0  0  0  0  0
    2.6401   -3.1891    0.0000 C   0  0  0  0  0  0  0  0  0  0  0  0
    1.2135   -2.7256    0.0000 C   0  0  0  0  0  0  0  0  0  0  0  0
    0.7500   -1.2990    0.0000 C   0  0  0  0  0  0  0  0  0  0  0  0
    1.5000    0.0000    0.0000 C   0  0  0  0  0  0  0  0  0  0  0  0
    0.7500    1.2990    0.0000 C   0  0  0  0  0  0  0  0  0  0  0  0
   -0.7500    1.2990    0.0000 C   0  0  0  0  0  0  0  0  0  0  0  0
   -1.5000    2.5981    0.0000 Cl  0  0  0  0  0  0  0  0  0  0  0  0
   -1.5000    0.0000    0.0000 C   0  0  0  0  0  0  0  0  0  0  0  0
   -0.7500   -1.2990    0.0000 C   0  0  0  0  0  0  0  0  0  0  0  0
   -1.2135   -2.7256    0.0000 N   0  0  0  0  0  0  0  0  0  0  0  0
    0.0000   -3.6073    0.0000 C   0  0  0  0  0  0  0  0  0  0  0  0
    2.9520   -4.6564    0.0000 C   0  0  0  0  0  0  0  0  0  0  0  0
    4.3786   -5.1199    0.0000 N   0  0  0  0  0  0  0  0  0  0  0  0
    4.6904   -6.5871    0.0000 C   0  0  0  0  0  0  0  0  0  0  0  0
    6.1170   -7.0506    0.0000 O   0  0  0  0  0  0  0  0  0  0  0  0
    3.5757   -7.5908    0.0000 C   0  0  0  0  0  0  0  0  0  0  0  0
    2.1491   -7.1273    0.0000 N   0  0  0  0  0  0  0  0  0  0  0  0
    1.8373   -5.6601    0.0000 C   0  0  0  0  0  0  0  0  0  0  0  0
    0.4107   -5.1965    0.0000 O   0  0  0  0  0  0  0  0  0  0  0  0
    7.7227   -2.1088    0.0000 C   0  0  0  0  0  0  0  0  0  0  0  0
    8.8374   -1.1051    0.0000 C   0  0  0  0  0  0  0  0  0  0  0  0
    8.0346   -3.5760    0.0000 N   0  0  0  0  0  4  0  0  0  0  0  0
  1  2  1  0
  2  3  2  0
  3  4  1  0
  4  5  2  0
  5  6  1  0
  6  7  2  0
  7  8  1  0
  8  9  2  0
  8 10  1  0
 11 10  1  1
 11 12  1  0
 12 13  2  0
 12 14  1  0
 15 14  1  1
 15 16  1  0
 16 17  2  0
 17 18  1  0
 18 19  2  0
 19 20  1  0
 20 21  1  0
 20 22  2  0
 23 22  1  1
 23 24  1  0
 24 25  2  0
 15 26  1  0
 26 27  1  1
 27 28  1  0
 28 29  2  0
 28 30  1  0
 30 31  1  0
 31 32  1  0
 32 33  2  0
 11 34  1  0
 34 35  1  1
 34 36  1  0
 25 16  1  0
 32 26  1  0
 23 17  1  0
M  CHG  1  36   1
M  END
>  <Compound_ID>  (276) 
C39559754

>  <Active>  (276) 
0

>  <Smiles>  (276) 
C/C=C/C=C/C=C\C(=O)N[C@H](C(=O)O[C@H](C1=C2C=CC(Cl)=C[C@@H]2N=C1)[C@H]1NC(=O)CNC1=O)[C@@H](C)[NH3+]

>  <canonical_smi>  (276) 
C/C=C/C=C/C=C\C(=O)N[C@H](C(=O)O[C@H](C1=C2C=CC(Cl)=C[C@@H]2N=C1)[C@H]1NC(=O)CNC1=O)[C@@H](C)[NH3+]

>  <Set>  (276) 
G2 inactive

>  <Set_type>  (276) 
Train

>  <MW>  (276) 
514.99

>  <HBD>  (276) 
4

>  <HBA>  (276) 
5

>  <NRB>  (276) 
9

>  <NR>  (276) 
3

>  <NAR>  (276) 
0

>  <PSA>  (276) 
153.6

>  <Standard Type>  (276) 
nan

>  <Standard Relation>  (276) 
nan

>  <Standard Units>  (276) 
nan

>  <Standard Value>  (276) 
nan

>  <Assay ChEMBL ID>  (276) 
nan

>  <Assay Description>  (276) 
nan

>  <BAO Label>  (276) 
nan

$$$$

     RDKit          2D

 22 25  0  0  0  0  0  0  0  0999 V2000
   -5.8752    8.4192    0.0000 F   0  0  0  0  0  0  0  0  0  0  0  0
   -4.9936    9.6327    0.0000 C   0  0  0  0  0  0  0  0  0  0  0  0
   -5.6037   11.0030    0.0000 C   0  0  0  0  0  0  0  0  0  0  0  0
   -4.7220   12.2165    0.0000 C   0  0  0  0  0  0  0  0  0  0  0  0
   -3.2302   12.0598    0.0000 C   0  0  0  0  0  0  0  0  0  0  0  0
   -2.6201   10.6894    0.0000 C   0  0  0  0  0  0  0  0  0  0  0  0
   -3.5018    9.4759    0.0000 C   0  0  0  0  0  0  0  0  0  0  0  0
   -2.8917    8.1056    0.0000 C   0  0  0  0  0  0  0  0  0  0  0  0
   -1.4245    7.7937    0.0000 N   0  0  0  0  0  0  0  0  0  0  0  0
   -1.2677    6.3019    0.0000 N   0  0  0  0  0  0  0  0  0  0  0  0
   -2.6380    5.6918    0.0000 C   0  0  0  0  0  0  0  0  0  0  0  0
   -2.9499    4.2246    0.0000 S   0  0  0  0  0  0  0  0  0  0  0  0
   -1.8351    3.2209    0.0000 C   0  0  0  0  0  0  0  0  0  0  0  0
   -0.4086    3.6844    0.0000 C   0  0  0  0  0  0  0  0  0  0  0  0
    0.7062    2.6807    0.0000 C   0  0  0  0  0  0  0  0  0  0  0  0
    0.3943    1.2135    0.0000 C   0  0  0  0  0  0  0  0  0  0  0  0
    1.2760    0.0000    0.0000 N   0  0  0  0  0  0  0  0  0  0  0  0
    0.3943   -1.2135    0.0000 N   0  0  0  0  0  0  0  0  0  0  0  0
   -1.0323   -0.7500    0.0000 N   0  0  0  0  0  0  0  0  0  0  0  0
   -1.0323    0.7500    0.0000 N   0  0  0  0  0  0  0  0  0  0  0  0
   -2.1470    1.7537    0.0000 N   0  0  0  0  0  0  0  0  0  0  0  0
   -3.6417    6.8066    0.0000 N   0  0  0  0  0  0  0  0  0  0  0  0
  1  2  1  0
  2  3  2  0
  3  4  1  0
  4  5  2  0
  5  6  1  0
  6  7  2  0
  7  8  1  0
  8  9  2  0
  9 10  1  0
 10 11  1  0
 11 12  1  0
 12 13  1  0
 13 14  1  0
 14 15  2  0
 15 16  1  0
 16 17  2  0
 17 18  1  0
 18 19  2  0
 19 20  1  0
 20 21  1  0
 11 22  2  0
  7  2  1  0
 22  8  1  0
 21 13  2  0
 20 16  1  0
M  END
>  <Compound_ID>  (277) 
C42678126

>  <Active>  (277) 
0

>  <Smiles>  (277) 
Fc1ccccc1-c1n[nH]c(Sc2ccc3nnnn3n2)n1

>  <canonical_smi>  (277) 
Fc1ccccc1-c1n[nH]c(Sc2ccc3nnnn3n2)n1

>  <Set>  (277) 
G2 inactive

>  <Set_type>  (277) 
Train

>  <MW>  (277) 
314.31

>  <HBD>  (277) 
1

>  <HBA>  (277) 
7

>  <NRB>  (277) 
3

>  <NR>  (277) 
4

>  <NAR>  (277) 
4

>  <PSA>  (277) 
97.54

>  <Standard Type>  (277) 
nan

>  <Standard Relation>  (277) 
nan

>  <Standard Units>  (277) 
nan

>  <Standard Value>  (277) 
nan

>  <Assay ChEMBL ID>  (277) 
nan

>  <Assay Description>  (277) 
nan

>  <BAO Label>  (277) 
nan

$$$$

     RDKit          2D

 33 37  0  0  0  0  0  0  0  0999 V2000
    4.3324    0.7225    0.0000 F   0  0  0  0  0  0  0  0  0  0  0  0
    3.3287    1.8373    0.0000 C   0  0  0  0  0  0  0  0  0  0  0  0
    4.4435    2.8410    0.0000 F   0  0  0  0  0  0  0  0  0  0  0  0
    2.2140    0.8336    0.0000 F   0  0  0  0  0  0  0  0  0  0  0  0
    2.3250    2.9520    0.0000 C   0  0  0  0  0  0  0  0  0  0  0  0
    2.7886    4.3786    0.0000 C   0  0  0  0  0  0  0  0  0  0  0  0
    1.7849    5.4933    0.0000 C   0  0  0  0  0  0  0  0  0  0  0  0
    0.3177    5.1814    0.0000 C   0  0  0  0  0  0  0  0  0  0  0  0
   -0.1459    3.7548    0.0000 C   0  0  0  0  0  0  0  0  0  0  0  0
    0.8578    2.6401    0.0000 C   0  0  0  0  0  0  0  0  0  0  0  0
    0.3943    1.2135    0.0000 C   0  0  0  0  0  0  0  0  0  0  0  0
    1.2760    0.0000    0.0000 N   0  0  0  0  0  0  0  0  0  0  0  0
    0.3943   -1.2135    0.0000 N   0  0  0  0  0  0  0  0  0  0  0  0
   -1.0323   -0.7500    0.0000 C   0  0  0  0  0  0  0  0  0  0  0  0
   -2.3313   -1.5000    0.0000 N   0  0  0  0  0  0  0  0  0  0  0  0
   -3.6304   -0.7500    0.0000 C   0  0  0  0  0  0  0  0  0  0  0  0
   -4.9294   -1.5000    0.0000 N   0  0  0  0  0  2  0  0  0  0  0  0
   -6.2284   -0.7500    0.0000 C   0  0  0  0  0  0  0  0  0  0  0  0
   -6.2284    0.7500    0.0000 C   0  0  0  0  0  0  0  0  0  0  0  0
   -7.5275    1.5000    0.0000 C   0  0  0  0  0  0  0  0  0  0  0  0
   -8.8265    0.7500    0.0000 C   0  0  0  0  0  0  0  0  0  0  0  0
   -8.8265   -0.7500    0.0000 C   0  0  0  0  0  0  0  0  0  0  0  0
   -7.5275   -1.5000    0.0000 C   0  0  0  0  0  0  0  0  0  0  0  0
   -3.6304    0.7500    0.0000 N   0  0  0  0  0  0  0  0  0  0  0  0
   -2.3313    1.5000    0.0000 C   0  0  0  0  0  0  0  0  0  0  0  0
   -2.3313    3.0000    0.0000 N   0  0  0  0  0  0  0  0  0  0  0  0
   -3.6304    3.7500    0.0000 C   0  0  0  0  0  0  0  0  0  0  0  0
   -3.6304    5.2500    0.0000 C   0  0  0  0  0  0  0  0  0  0  0  0
   -4.9294    6.0000    0.0000 C   0  0  0  0  0  0  0  0  0  0  0  0
   -6.2284    5.2500    0.0000 C   0  0  0  0  0  0  0  0  0  0  0  0
   -6.2284    3.7500    0.0000 C   0  0  0  0  0  0  0  0  0  0  0  0
   -4.9294    3.0000    0.0000 C   0  0  0  0  0  0  0  0  0  0  0  0
   -1.0323    0.7500    0.0000 N   0  0  0  0  0  0  0  0  0  0  0  0
  1  2  1  0
  2  3  1  0
  2  4  1  0
  2  5  1  0
  5  6  2  0
  6  7  1  0
  7  8  2  0
  8  9  1  0
  9 10  2  0
 10 11  1  0
 11 12  2  0
 12 13  1  0
 14 13  1  1
 14 15  1  0
 15 16  1  0
 16 17  1  0
 17 18  1  0
 18 19  2  0
 19 20  1  0
 20 21  2  0
 21 22  1  0
 22 23  2  0
 16 24  2  0
 24 25  1  0
 25 26  2  0
 26 27  1  0
 27 28  2  0
 28 29  1  0
 29 30  2  0
 30 31  1  0
 31 32  2  0
 25 33  1  0
 10  5  1  0
 33 11  1  0
 33 14  1  0
 23 18  1  0
 32 27  1  0
M  CHG  1  17  -1
M  END
>  <Compound_ID>  (278) 
C59226945

>  <Active>  (278) 
0

>  <Smiles>  (278) 
FC(F)(F)c1ccccc1C1=NN[C@H]2NC([N-]c3ccccc3)=N/C(=N\c3ccccc3)N12

>  <canonical_smi>  (278) 
FC(F)(F)c1ccccc1C1=NN[C@H]2NC([N-]c3ccccc3)=N/C(=N\c3ccccc3)N12

>  <Set>  (278) 
G2 inactive

>  <Set_type>  (278) 
Train

>  <MW>  (278) 
448.43

>  <HBD>  (278) 
2

>  <HBA>  (278) 
3

>  <NRB>  (278) 
3

>  <NR>  (278) 
5

>  <NAR>  (278) 
3

>  <PSA>  (278) 
78.48

>  <Standard Type>  (278) 
nan

>  <Standard Relation>  (278) 
nan

>  <Standard Units>  (278) 
nan

>  <Standard Value>  (278) 
nan

>  <Assay ChEMBL ID>  (278) 
nan

>  <Assay Description>  (278) 
nan

>  <BAO Label>  (278) 
nan

$$$$

     RDKit          2D

 23 24  0  0  0  0  0  0  0  0999 V2000
    2.7760    0.0000    0.0000 C   0  0  0  0  0  0  0  0  0  0  0  0
    1.2760    0.0000    0.0000 C   0  0  0  0  0  0  0  0  0  0  0  0
    0.3943    1.2135    0.0000 O   0  0  0  0  0  0  0  0  0  0  0  0
   -1.0323    0.7500    0.0000 C   0  0  0  0  0  0  0  0  0  0  0  0
   -1.0323   -0.7500    0.0000 C   0  0  0  0  0  0  0  0  0  0  0  0
    0.3943   -1.2135    0.0000 C   0  0  0  0  0  0  0  0  0  0  0  0
    0.8578   -2.6401    0.0000 C   0  0  0  0  0  0  0  0  0  0  0  0
    2.3250   -2.9520    0.0000 O   0  0  0  0  0  0  0  0  0  0  0  0
   -0.1459   -3.7548    0.0000 C   0  0  0  0  0  0  0  0  0  0  0  0
   -1.6131   -3.4430    0.0000 C   0  0  0  0  0  0  0  0  0  0  0  0
   -3.0803   -3.1311    0.0000 N   0  0  0  0  0  0  0  0  0  0  0  0
    0.3177   -5.1814    0.0000 C   0  0  0  0  0  0  0  0  0  0  0  0
    1.7849   -5.4933    0.0000 O   0  0  0  0  0  1  0  0  0  0  0  0
   -0.6860   -6.2961    0.0000 C   0  0  0  0  0  0  0  0  0  0  0  0
   -0.3742   -7.7634    0.0000 C   0  0  0  0  0  0  0  0  0  0  0  0
   -1.6732   -8.5134    0.0000 C   0  0  0  0  0  0  0  0  0  0  0  0
   -1.8300  -10.0051    0.0000 C   0  0  0  0  0  0  0  0  0  0  0  0
   -2.7879   -7.5097    0.0000 N   0  0  0  0  0  0  0  0  0  0  0  0
   -4.2552   -7.8215    0.0000 C   0  0  0  0  0  0  0  0  0  0  0  0
   -5.2588   -6.7068    0.0000 C   0  0  0  0  0  0  0  0  0  0  0  0
   -4.7187   -9.2481    0.0000 C   0  0  0  0  0  0  0  0  0  0  0  0
   -2.1778   -6.1393    0.0000 C   0  0  0  0  0  0  0  0  0  0  0  0
   -2.9278   -4.8403    0.0000 C   0  0  0  0  0  0  0  0  0  0  0  0
  1  2  1  0
  2  3  1  0
  3  4  1  0
  4  5  2  0
  5  6  1  0
  6  7  1  0
  7  8  2  0
  7  9  1  0
  9 10  1  0
 10 11  3  0
  9 12  2  0
 12 13  1  0
 12 14  1  0
 14 15  1  0
 15 16  2  0
 16 17  1  0
 16 18  1  0
 18 19  1  0
 19 20  1  0
 19 21  1  0
 18 22  1  0
 22 23  1  0
  6  2  2  0
 22 14  2  0
M  CHG  1  13  -1
M  END
>  <Compound_ID>  (279) 
C49165064

>  <Active>  (279) 
0

>  <Smiles>  (279) 
Cc1occc1C(=O)/C(C#N)=C(\[O-])c1cc(C)n(C(C)C)c1C

>  <canonical_smi>  (279) 
Cc1occc1C(=O)/C(C#N)=C(\[O-])c1cc(C)n(C(C)C)c1C

>  <Set>  (279) 
G2 inactive

>  <Set_type>  (279) 
Train

>  <MW>  (279) 
311.36

>  <HBD>  (279) 
0

>  <HBA>  (279) 
4

>  <NRB>  (279) 
4

>  <NR>  (279) 
2

>  <NAR>  (279) 
2

>  <PSA>  (279) 
81.99

>  <Standard Type>  (279) 
nan

>  <Standard Relation>  (279) 
nan

>  <Standard Units>  (279) 
nan

>  <Standard Value>  (279) 
nan

>  <Assay ChEMBL ID>  (279) 
nan

>  <Assay Description>  (279) 
nan

>  <BAO Label>  (279) 
nan

$$$$

     RDKit          2D

 19 20  0  0  0  0  0  0  0  0999 V2000
    5.2500   -1.2990    0.0000 C   0  0  0  0  0  0  0  0  0  0  0  0
    3.7500   -1.2990    0.0000 C   0  0  0  0  0  0  0  0  0  0  0  0
    3.0000    0.0000    0.0000 C   0  0  0  0  0  0  0  0  0  0  0  0
    1.5000    0.0000    0.0000 C   0  0  0  0  0  0  0  0  0  0  0  0
    0.7500   -1.2990    0.0000 C   0  0  0  0  0  0  0  0  0  0  0  0
   -0.7500   -1.2990    0.0000 C   0  0  0  0  0  0  0  0  0  0  0  0
   -1.5000   -2.5981    0.0000 O   0  0  0  0  0  1  0  0  0  0  0  0
   -1.5000    0.0000    0.0000 N   0  0  0  0  0  0  0  0  0  0  0  0
   -0.7500    1.2990    0.0000 C   0  0  0  0  0  0  0  0  0  0  0  0
   -1.5000    2.5981    0.0000 S   0  0  0  0  0  0  0  0  0  0  0  0
   -0.7500    3.8971    0.0000 C   0  0  0  0  0  0  0  0  0  0  0  0
    0.7500    3.8971    0.0000 C   0  0  0  0  0  0  0  0  0  0  0  0
    1.5000    5.1962    0.0000 C   0  0  0  0  0  0  0  0  0  0  0  0
    3.0000    5.1962    0.0000 Cl  0  0  0  0  0  0  0  0  0  0  0  0
    0.7500    6.4952    0.0000 N   0  0  0  0  0  0  0  0  0  0  0  0
   -0.7500    6.4952    0.0000 C   0  0  0  0  0  0  0  0  0  0  0  0
   -1.5000    7.7942    0.0000 C   0  0  0  0  0  0  0  0  0  0  0  0
   -1.5000    5.1962    0.0000 N   0  0  0  0  0  0  0  0  0  0  0  0
    0.7500    1.2990    0.0000 N   0  0  0  0  0  0  0  0  0  0  0  0
  1  2  1  0
  2  3  1  0
  3  4  1  0
  4  5  2  0
  5  6  1  0
  6  7  1  0
  6  8  2  0
  8  9  1  0
  9 10  1  0
 10 11  1  0
 11 12  2  0
 12 13  1  0
 13 14  1  0
 13 15  2  0
 15 16  1  0
 16 17  1  0
 16 18  2  0
  9 19  2  0
 19  4  1  0
 18 11  1  0
M  CHG  1   7  -1
M  END
>  <Compound_ID>  (280) 
C52837721

>  <Active>  (280) 
0

>  <Smiles>  (280) 
CCCc1cc([O-])nc(Sc2cc(Cl)nc(C)n2)n1

>  <canonical_smi>  (280) 
CCCc1cc([O-])nc(Sc2cc(Cl)nc(C)n2)n1

>  <Set>  (280) 
G2 inactive

>  <Set_type>  (280) 
Train

>  <MW>  (280) 
295.77

>  <HBD>  (280) 
0

>  <HBA>  (280) 
6

>  <NRB>  (280) 
4

>  <NR>  (280) 
2

>  <NAR>  (280) 
2

>  <PSA>  (280) 
74.62

>  <Standard Type>  (280) 
nan

>  <Standard Relation>  (280) 
nan

>  <Standard Units>  (280) 
nan

>  <Standard Value>  (280) 
nan

>  <Assay ChEMBL ID>  (280) 
nan

>  <Assay Description>  (280) 
nan

>  <BAO Label>  (280) 
nan

$$$$

     RDKit          2D

 39 41  0  0  0  0  0  0  0  0999 V2000
    5.0490   -0.5490    0.0000 C   0  0  0  0  0  0  0  0  0  0  0  0
    3.7500   -1.2990    0.0000 C   0  0  0  0  0  0  0  0  0  0  0  0
    2.4510   -2.0490    0.0000 C   0  0  0  0  0  0  0  0  0  0  0  0
    4.5000   -2.5981    0.0000 C   0  0  0  0  0  0  0  0  0  0  0  0
    3.0000    0.0000    0.0000 O   0  0  0  0  0  0  0  0  0  0  0  0
    1.5000    0.0000    0.0000 C   0  0  0  0  0  0  0  0  0  0  0  0
    0.7500   -1.2990    0.0000 N   0  0  0  0  0  0  0  0  0  0  0  0
   -0.7500   -1.2990    0.0000 C   0  0  0  0  0  0  0  0  0  0  0  0
   -1.5000    0.0000    0.0000 C   0  0  0  0  0  0  0  0  0  0  0  0
   -3.0000    0.0000    0.0000 C   0  0  0  0  0  0  0  0  0  0  0  0
   -3.7500    1.2990    0.0000 C   0  0  0  0  0  0  0  0  0  0  0  0
   -5.2500    1.2990    0.0000 C   0  0  0  0  0  0  0  0  0  0  0  0
   -6.0000    2.5981    0.0000 F   0  0  0  0  0  0  0  0  0  0  0  0
   -6.0000    0.0000    0.0000 C   0  0  0  0  0  0  0  0  0  0  0  0
   -5.2500   -1.2990    0.0000 C   0  0  0  0  0  0  0  0  0  0  0  0
   -6.0000   -2.5981    0.0000 C   0  0  0  0  0  0  0  0  0  0  0  0
   -7.5000   -2.5981    0.0000 C   0  0  0  0  0  0  0  0  0  0  0  0
   -8.2500   -3.8971    0.0000 N   0  0  0  0  0  0  0  0  0  0  0  0
   -7.5000   -5.1962    0.0000 C   0  0  0  0  0  0  0  0  0  0  0  0
   -8.2500   -6.4952    0.0000 O   0  0  0  0  0  0  0  0  0  0  0  0
   -9.7500   -6.4952    0.0000 C   0  0  0  0  0  0  0  0  0  0  0  0
   -9.7500   -7.9952    0.0000 C   0  0  0  0  0  0  0  0  0  0  0  0
   -9.7500   -4.9952    0.0000 C   0  0  0  0  0  0  0  0  0  0  0  0
  -11.2500   -6.4952    0.0000 C   0  0  0  0  0  0  0  0  0  0  0  0
   -6.0000   -5.1962    0.0000 N   0  0  0  0  0  0  0  0  0  0  0  0
   -5.2500   -3.8971    0.0000 C   0  0  0  0  0  0  0  0  0  0  0  0
   -3.7500   -3.8971    0.0000 O   0  0  0  0  0  0  0  0  0  0  0  0
   -3.0000   -5.1962    0.0000 C   0  0  0  0  0  0  0  0  0  0  0  0
   -1.7010   -4.4462    0.0000 C   0  0  0  0  0  0  0  0  0  0  0  0
   -4.2990   -5.9462    0.0000 C   0  0  0  0  0  0  0  0  0  0  0  0
   -2.2500   -6.4952    0.0000 C   0  0  0  0  0  0  0  0  0  0  0  0
   -3.7500   -1.2990    0.0000 C   0  0  0  0  0  0  0  0  0  0  0  0
   -0.7500    1.2990    0.0000 C   0  0  0  0  0  0  0  0  0  0  0  0
   -1.5000    2.5981    0.0000 O   0  0  0  0  0  0  0  0  0  0  0  0
   -0.7500    3.8971    0.0000 C   0  0  0  0  0  0  0  0  0  0  0  0
   -2.0490    4.6471    0.0000 C   0  0  0  0  0  0  0  0  0  0  0  0
    0.5490    3.1471    0.0000 C   0  0  0  0  0  0  0  0  0  0  0  0
    0.0000    5.1962    0.0000 C   0  0  0  0  0  0  0  0  0  0  0  0
    0.7500    1.2990    0.0000 N   0  0  0  0  0  0  0  0  0  0  0  0
  1  2  1  0
  2  3  1  0
  2  4  1  0
  2  5  1  0
  5  6  1  0
  6  7  2  0
  7  8  1  0
  8  9  2  0
  9 10  1  0
 10 11  2  0
 11 12  1  0
 12 13  1  0
 12 14  2  0
 14 15  1  0
 15 16  1  0
 16 17  2  0
 17 18  1  0
 18 19  2  0
 19 20  1  0
 20 21  1  0
 21 22  1  0
 21 23  1  0
 21 24  1  0
 19 25  1  0
 25 26  2  0
 26 27  1  0
 27 28  1  0
 28 29  1  0
 28 30  1  0
 28 31  1  0
 15 32  2  0
  9 33  1  0
 33 34  1  0
 34 35  1  0
 35 36  1  0
 35 37  1  0
 35 38  1  0
 33 39  2  0
 39  6  1  0
 32 10  1  0
 26 16  1  0
M  END
>  <Compound_ID>  (281) 
C02173023

>  <Active>  (281) 
0

>  <Smiles>  (281) 
CC(C)(C)Oc1ncc(-c2cc(F)cc(-c3cnc(OC(C)(C)C)nc3OC(C)(C)C)c2)c(OC(C)(C)C)n1

>  <canonical_smi>  (281) 
CC(C)(C)Oc1ncc(-c2cc(F)cc(-c3cnc(OC(C)(C)C)nc3OC(C)(C)C)c2)c(OC(C)(C)C)n1

>  <Set>  (281) 
G2 inactive

>  <Set_type>  (281) 
Train

>  <MW>  (281) 
540.68

>  <HBD>  (281) 
0

>  <HBA>  (281) 
8

>  <NRB>  (281) 
6

>  <NR>  (281) 
3

>  <NAR>  (281) 
3

>  <PSA>  (281) 
88.48

>  <Standard Type>  (281) 
nan

>  <Standard Relation>  (281) 
nan

>  <Standard Units>  (281) 
nan

>  <Standard Value>  (281) 
nan

>  <Assay ChEMBL ID>  (281) 
nan

>  <Assay Description>  (281) 
nan

>  <BAO Label>  (281) 
nan

$$$$

     RDKit          2D

 36 38  0  0  0  0  0  0  0  0999 V2000
   -1.2990  -17.8573    0.0000 C   0  0  0  0  0  0  0  0  0  0  0  0
   -1.2990  -16.3573    0.0000 C   0  0  0  0  0  0  0  0  0  0  0  0
    0.0000  -15.6073    0.0000 C   0  0  0  0  0  0  0  0  0  0  0  0
    0.0000  -14.1073    0.0000 C   0  0  0  0  0  0  0  0  0  0  0  0
    1.2990  -13.3573    0.0000 N   0  0  0  0  0  0  0  0  0  0  0  0
    2.5981  -14.1073    0.0000 C   0  0  0  0  0  0  0  0  0  0  0  0
    2.5981  -15.6073    0.0000 C   0  0  0  0  0  0  0  0  0  0  0  0
    1.2990  -11.8573    0.0000 S   0  0  0  0  0  0  0  0  0  0  0  0
   -0.2010  -11.8573    0.0000 O   0  0  0  0  0  0  0  0  0  0  0  0
    2.7990  -11.8573    0.0000 O   0  0  0  0  0  0  0  0  0  0  0  0
    1.2990  -10.3573    0.0000 C   0  0  0  0  0  0  0  0  0  0  0  0
   -0.0000   -9.6073    0.0000 C   0  0  0  0  0  0  0  0  0  0  0  0
   -0.0000   -8.1073    0.0000 C   0  0  0  0  0  0  0  0  0  0  0  0
    1.2990   -7.3573    0.0000 C   0  0  0  0  0  0  0  0  0  0  0  0
    1.2990   -5.8573    0.0000 C   0  0  0  0  0  0  0  0  0  0  0  0
    2.5981   -5.1073    0.0000 O   0  0  0  0  0  0  0  0  0  0  0  0
   -0.0000   -5.1073    0.0000 N   0  0  0  0  0  0  0  0  0  0  0  0
   -0.0000   -3.6073    0.0000 C   0  0  0  0  0  0  0  0  0  0  0  0
    1.2135   -2.7256    0.0000 S   0  0  0  0  0  0  0  0  0  0  0  0
    0.7500   -1.2990    0.0000 C   0  0  0  0  0  0  0  0  0  0  0  0
    1.5000    0.0000    0.0000 C   0  0  0  0  0  0  0  0  0  0  0  0
    0.7500    1.2990    0.0000 C   0  0  0  0  0  0  0  0  0  0  0  0
    1.5000    2.5981    0.0000 C   0  0  0  0  0  0  0  0  0  0  0  0
   -0.7500    1.2990    0.0000 C   0  0  0  0  0  0  0  0  0  0  0  0
   -1.5000    2.5981    0.0000 C   0  0  0  0  0  0  0  0  0  0  0  0
   -1.5000    0.0000    0.0000 C   0  0  0  0  0  0  0  0  0  0  0  0
   -0.7500   -1.2990    0.0000 C   0  0  0  0  0  0  0  0  0  0  0  0
   -1.2135   -2.7256    0.0000 N   0  0  0  0  0  0  0  0  0  0  0  0
   -2.6401   -3.1891    0.0000 C   0  0  0  0  0  0  0  0  0  0  0  0
   -3.7548   -2.1855    0.0000 C   0  0  0  0  0  0  0  0  0  0  0  0
   -3.4430   -0.7182    0.0000 O   0  0  0  0  0  0  0  0  0  0  0  0
   -5.1814   -2.6490    0.0000 O   0  0  0  0  0  0  0  0  0  0  0  0
   -6.2961   -1.6453    0.0000 C   0  0  0  0  0  0  0  0  0  0  0  0
   -7.7227   -2.1088    0.0000 C   0  0  0  0  0  0  0  0  0  0  0  0
    2.5981   -8.1073    0.0000 C   0  0  0  0  0  0  0  0  0  0  0  0
    2.5981   -9.6073    0.0000 C   0  0  0  0  0  0  0  0  0  0  0  0
  1  2  1  0
  2  3  1  0
  3  4  1  0
  4  5  1  0
  5  6  1  0
  6  7  1  0
  5  8  1  0
  8  9  2  0
  8 10  2  0
  8 11  1  0
 11 12  2  0
 12 13  1  0
 13 14  2  0
 14 15  1  0
 15 16  2  0
 15 17  1  0
 17 18  2  0
 18 19  1  0
 19 20  1  0
 20 21  2  0
 21 22  1  0
 22 23  1  0
 22 24  2  0
 24 25  1  0
 24 26  1  0
 26 27  2  0
 27 28  1  0
 28 29  1  0
 29 30  1  0
 30 31  2  0
 30 32  1  0
 32 33  1  0
 33 34  1  0
 14 35  1  0
 35 36  2  0
 36 11  1  0
 28 18  1  0
 27 20  1  0
M  END
>  <Compound_ID>  (282) 
C09511080

>  <Active>  (282) 
0

>  <Smiles>  (282) 
CCCCN(CC)S(=O)(=O)c1ccc(C(=O)/N=c2\sc3cc(C)c(C)cc3n2CC(=O)OCC)cc1

>  <canonical_smi>  (282) 
CCCCN(CC)S(=O)(=O)c1ccc(C(=O)/N=c2\sc3cc(C)c(C)cc3n2CC(=O)OCC)cc1

>  <Set>  (282) 
G2 inactive

>  <Set_type>  (282) 
Train

>  <MW>  (282) 
531.7

>  <HBD>  (282) 
0

>  <HBA>  (282) 
5

>  <NRB>  (282) 
10

>  <NR>  (282) 
3

>  <NAR>  (282) 
3

>  <PSA>  (282) 
98.04

>  <Standard Type>  (282) 
nan

>  <Standard Relation>  (282) 
nan

>  <Standard Units>  (282) 
nan

>  <Standard Value>  (282) 
nan

>  <Assay ChEMBL ID>  (282) 
nan

>  <Assay Description>  (282) 
nan

>  <BAO Label>  (282) 
nan

$$$$

     RDKit          2D

 38 41  0  0  0  0  0  0  0  0999 V2000
  -10.9635  -11.8189    0.0000 C   0  0  0  0  0  0  0  0  0  0  0  0
  -10.2135  -10.5199    0.0000 C   0  0  0  0  0  0  0  0  0  0  0  0
   -8.7135  -10.5199    0.0000 O   0  0  0  0  0  0  0  0  0  0  0  0
   -7.9635   -9.2208    0.0000 C   0  0  0  0  0  0  0  0  0  0  0  0
   -8.7135   -7.9218    0.0000 O   0  0  0  0  0  0  0  0  0  0  0  0
   -6.4635   -9.2208    0.0000 N   0  0  0  0  0  0  0  0  0  0  0  0
   -5.7135   -7.9218    0.0000 N   0  0  0  0  0  0  0  0  0  0  0  0
   -4.2135   -7.9218    0.0000 C   0  0  0  0  0  0  0  0  0  0  0  0
   -3.4635   -9.2208    0.0000 C   0  0  0  0  0  0  0  0  0  0  0  0
   -3.4635   -6.6227    0.0000 C   0  0  0  0  0  0  0  0  0  0  0  0
   -4.8338   -6.0126    0.0000 O   0  0  0  0  0  0  0  0  0  0  0  0
   -6.0474   -6.8943    0.0000 C   0  0  0  0  0  0  0  0  0  0  0  0
   -2.2500   -7.5044    0.0000 C   0  0  0  0  0  0  0  0  0  0  0  0
   -2.2500   -9.0044    0.0000 O   0  0  0  0  0  0  0  0  0  0  0  0
   -0.9510   -9.7544    0.0000 C   0  0  0  0  0  0  0  0  0  0  0  0
   -0.9510  -11.2544    0.0000 C   0  0  0  0  0  0  0  0  0  0  0  0
    0.3481   -9.0044    0.0000 O   0  0  0  0  0  0  0  0  0  0  0  0
   -1.0365   -6.6227    0.0000 C   0  0  0  0  0  0  0  0  0  0  0  0
   -1.5000   -5.1962    0.0000 C   0  0  0  0  0  0  0  0  0  0  0  0
   -0.7500   -3.8971    0.0000 C   0  0  0  0  0  0  0  0  0  0  0  0
    0.7500   -3.8971    0.0000 C   0  0  0  0  0  0  0  0  0  0  0  0
    1.5000   -2.5981    0.0000 C   0  0  0  0  0  0  0  0  0  0  0  0
    0.7500   -1.2990    0.0000 C   0  0  0  0  0  0  0  0  0  0  0  0
    1.5000    0.0000    0.0000 C   0  0  0  0  0  0  0  0  0  0  0  0
    0.7500    1.2990    0.0000 C   0  0  0  0  0  0  0  0  0  0  0  0
    1.5000    2.5981    0.0000 O   0  0  0  0  0  0  0  0  0  0  0  0
    3.0000    2.5981    0.0000 C   0  0  0  0  0  0  0  0  0  0  0  0
    3.7500    3.8971    0.0000 C   0  0  0  0  0  0  0  0  0  0  0  0
    3.7500    1.2990    0.0000 O   0  0  0  0  0  0  0  0  0  0  0  0
   -0.7500    1.2990    0.0000 C   0  0  0  0  0  0  0  0  0  0  0  0
   -1.5000    0.0000    0.0000 C   0  0  0  0  0  0  0  0  0  0  0  0
   -0.7500   -1.2990    0.0000 C   0  0  0  0  0  0  0  0  0  0  0  0
   -2.2500   -1.2990    0.0000 C   0  0  0  0  0  0  0  0  0  0  0  0
   -1.5000   -2.5981    0.0000 C   0  0  0  0  0  0  0  0  0  0  0  0
   -3.0000   -2.5981    0.0000 C   0  0  0  0  0  0  0  0  0  0  0  0
   -3.7500   -3.8971    0.0000 C   0  0  0  0  0  0  0  0  0  0  0  0
   -3.0000   -5.1962    0.0000 C   0  0  0  0  0  0  0  0  0  0  0  0
   -4.4854   -4.9873    0.0000 C   0  0  0  0  0  0  0  0  0  0  0  0
  1  2  1  0
  2  3  1  0
  3  4  1  0
  4  5  2  0
  4  6  1  0
  6  7  1  0
  7  8  2  0
  8  9  1  0
  8 10  1  0
 10 11  1  6
 11 12  1  0
 10 13  1  0
 13 14  1  1
 14 15  1  0
 15 16  1  0
 15 17  2  0
 13 18  1  0
 19 18  1  1
 19 20  1  0
 20 21  1  1
 21 22  1  0
 22 23  2  0
 23 24  1  0
 24 25  1  0
 25 26  1  6
 26 27  1  0
 27 28  1  0
 27 29  2  0
 25 30  1  0
 30 31  1  0
 31 32  1  0
 32 33  1  1
 32 34  1  0
 34 35  1  1
 35 36  1  0
 36 37  1  0
 37 38  1  6
 37 10  1  0
 37 19  1  0
 34 20  1  0
 32 23  1  0
M  END
>  <Compound_ID>  (283) 
C13574518

>  <Active>  (283) 
0

>  <Smiles>  (283) 
CCOC(=O)N/N=C(\C)[C@]1(OC)[C@H](OC(C)=O)C[C@@H]2[C@@H]3CC=C4C[C@@H](OC(C)=O)CC[C@@]4(C)[C@@H]3CC[C@@]21C

>  <canonical_smi>  (283) 
CCOC(=O)N/N=C(\C)[C@]1(OC)[C@H](OC(C)=O)C[C@@H]2[C@@H]3CC=C4C[C@@H](OC(C)=O)CC[C@@]4(C)[C@@H]3CC[C@@]21C

>  <Set>  (283) 
G2 inactive

>  <Set_type>  (283) 
Train

>  <MW>  (283) 
532.68

>  <HBD>  (283) 
1

>  <HBA>  (283) 
7

>  <NRB>  (283) 
6

>  <NR>  (283) 
4

>  <NAR>  (283) 
0

>  <PSA>  (283) 
112.52

>  <Standard Type>  (283) 
nan

>  <Standard Relation>  (283) 
nan

>  <Standard Units>  (283) 
nan

>  <Standard Value>  (283) 
nan

>  <Assay ChEMBL ID>  (283) 
nan

>  <Assay Description>  (283) 
nan

>  <BAO Label>  (283) 
nan

$$$$

     RDKit          2D

 38 42  0  0  0  0  0  0  0  0999 V2000
   -2.6401   -3.1891    0.0000 C   0  0  0  0  0  0  0  0  0  0  0  0
   -1.2135   -2.7256    0.0000 C   0  0  0  0  0  0  0  0  0  0  0  0
   -0.0000   -3.6073    0.0000 N   0  0  0  0  0  0  0  0  0  0  0  0
    1.2135   -2.7256    0.0000 N   0  0  0  0  0  0  0  0  0  0  0  0
    2.6401   -3.1891    0.0000 C   0  0  0  0  0  0  0  0  0  0  0  0
    2.9520   -4.6564    0.0000 C   0  0  0  0  0  0  0  0  0  0  0  0
    4.3786   -5.1199    0.0000 C   0  0  0  0  0  0  0  0  0  0  0  0
    5.4933   -4.1162    0.0000 C   0  0  0  0  0  0  0  0  0  0  0  0
    5.1814   -2.6490    0.0000 C   0  0  0  0  0  0  0  0  0  0  0  0
    3.7548   -2.1855    0.0000 C   0  0  0  0  0  0  0  0  0  0  0  0
    0.7500   -1.2990    0.0000 C   0  0  0  0  0  0  0  0  0  0  0  0
    1.5000    0.0000    0.0000 N   0  0  0  0  0  0  0  0  0  0  0  0
    0.7500    1.2990    0.0000 C   0  0  0  0  0  0  0  0  0  0  0  0
    1.5000    2.5981    0.0000 C   0  0  0  0  0  0  0  0  0  0  0  0
    3.0000    2.5981    0.0000 C   0  0  0  0  0  0  0  0  0  0  0  0
    3.7500    3.8971    0.0000 C   0  0  0  0  0  0  0  0  0  0  0  0
    3.7500    1.2990    0.0000 C   0  0  0  0  0  0  0  0  0  0  0  0
   -0.7500    1.2990    0.0000 N   0  0  0  0  0  0  0  0  0  0  0  0
   -1.5000    0.0000    0.0000 C   0  0  0  0  0  0  0  0  0  0  0  0
   -3.0000    0.0000    0.0000 N   0  0  0  0  0  0  0  0  0  0  0  0
   -3.6508   -1.3515    0.0000 C   0  0  0  0  0  0  0  0  0  0  0  0
   -5.1132   -1.6852    0.0000 C   0  0  0  0  0  0  0  0  0  0  0  0
   -6.2860   -0.7500    0.0000 C   0  0  0  0  0  0  0  0  0  0  0  0
   -6.2860    0.7500    0.0000 N   0  0  0  0  0  0  0  0  0  0  0  0
   -7.6374    1.4008    0.0000 S   0  0  0  0  0  0  0  0  0  0  0  0
   -8.2882    0.0494    0.0000 O   0  0  0  0  0  0  0  0  0  0  0  0
   -6.9866    2.7523    0.0000 O   0  0  0  0  0  0  0  0  0  0  0  0
   -8.9889    2.0517    0.0000 C   0  0  0  0  0  0  0  0  0  0  0  0
  -10.2282    1.2067    0.0000 C   0  0  0  0  0  0  0  0  0  0  0  0
  -11.5797    1.8575    0.0000 C   0  0  0  0  0  0  0  0  0  0  0  0
  -11.6918    3.3533    0.0000 C   0  0  0  0  0  0  0  0  0  0  0  0
  -13.0432    4.0041    0.0000 C   0  0  0  0  0  0  0  0  0  0  0  0
  -14.2826    3.1591    0.0000 C   0  0  0  0  0  0  0  0  0  0  0  0
  -14.1705    1.6633    0.0000 C   0  0  0  0  0  0  0  0  0  0  0  0
  -12.8190    1.0125    0.0000 C   0  0  0  0  0  0  0  0  0  0  0  0
   -5.1132    1.6852    0.0000 C   0  0  0  0  0  0  0  0  0  0  0  0
   -3.6508    1.3515    0.0000 C   0  0  0  0  0  0  0  0  0  0  0  0
   -0.7500   -1.2990    0.0000 C   0  0  0  0  0  0  0  0  0  0  0  0
  1  2  1  0
  2  3  2  0
  3  4  1  0
  4  5  1  0
  5  6  2  0
  6  7  1  0
  7  8  2  0
  8  9  1  0
  9 10  2  0
  4 11  1  0
 11 12  2  0
 12 13  1  0
 13 14  1  0
 14 15  1  0
 15 16  1  0
 15 17  1  0
 13 18  2  0
 18 19  1  0
 19 20  1  0
 20 21  1  0
 21 22  1  0
 22 23  1  0
 23 24  1  0
 24 25  1  0
 25 26  2  0
 25 27  2  0
 25 28  1  0
 28 29  2  0
 29 30  1  0
 30 31  2  0
 31 32  1  0
 32 33  2  0
 33 34  1  0
 34 35  2  0
 24 36  1  0
 36 37  1  0
 19 38  2  0
 38  2  1  0
 10  5  1  0
 38 11  1  0
 37 20  1  0
 35 30  1  0
M  END
>  <Compound_ID>  (284) 
C35912539

>  <Active>  (284) 
0

>  <Smiles>  (284) 
Cc1nn(-c2ccccc2)c2nc(CC(C)C)nc(N3CCCN(S(=O)(=O)/C=C/c4ccccc4)CC3)c12

>  <canonical_smi>  (284) 
Cc1nn(-c2ccccc2)c2nc(CC(C)C)nc(N3CCCN(S(=O)(=O)/C=C/c4ccccc4)CC3)c12

>  <Set>  (284) 
G2 inactive

>  <Set_type>  (284) 
Train

>  <MW>  (284) 
530.7

>  <HBD>  (284) 
0

>  <HBA>  (284) 
6

>  <NRB>  (284) 
7

>  <NR>  (284) 
5

>  <NAR>  (284) 
4

>  <PSA>  (284) 
84.22

>  <Standard Type>  (284) 
nan

>  <Standard Relation>  (284) 
nan

>  <Standard Units>  (284) 
nan

>  <Standard Value>  (284) 
nan

>  <Assay ChEMBL ID>  (284) 
nan

>  <Assay Description>  (284) 
nan

>  <BAO Label>  (284) 
nan

$$$$

     RDKit          2D

 42 45  0  0  0  0  0  0  0  0999 V2000
    3.0000  -12.9904    0.0000 C   0  0  0  0  0  0  0  0  0  0  0  0
    3.7500  -11.6913    0.0000 O   0  0  0  0  0  0  0  0  0  0  0  0
    3.0000  -10.3923    0.0000 C   0  0  0  0  0  0  0  0  0  0  0  0
    1.5000  -10.3923    0.0000 C   0  0  0  0  0  0  0  0  0  0  0  0
    0.7500   -9.0933    0.0000 C   0  0  0  0  0  0  0  0  0  0  0  0
    1.5000   -7.7942    0.0000 C   0  0  0  0  0  0  0  0  0  0  0  0
    0.7500   -6.4952    0.0000 C   0  0  0  0  0  0  0  0  0  0  0  0
    1.5000   -5.1962    0.0000 C   0  0  0  0  0  0  0  0  0  0  0  0
    0.7500   -3.8971    0.0000 C   0  0  0  0  0  0  0  0  0  0  0  0
   -0.7500   -3.8971    0.0000 O   0  0  0  0  0  0  0  0  0  0  0  0
    1.5000   -2.5981    0.0000 O   0  0  0  0  0  0  0  0  0  0  0  0
    0.7500   -1.2990    0.0000 C   0  0  0  0  0  0  0  0  0  0  0  0
    1.5000    0.0000    0.0000 C   0  0  0  0  0  0  0  0  0  0  0  0
    0.7500    1.2990    0.0000 C   0  0  0  0  0  0  0  0  0  0  0  0
   -0.7500    1.2990    0.0000 C   0  0  0  0  0  0  0  0  0  0  0  0
   -1.5000    0.0000    0.0000 C   0  0  0  0  0  0  0  0  0  0  0  0
   -0.7500   -1.2990    0.0000 C   0  0  0  0  0  0  0  0  0  0  0  0
   -3.0000    0.0000    0.0000 C   0  0  0  0  0  0  0  0  0  0  0  0
   -3.7500   -1.2990    0.0000 C   0  0  0  0  0  0  0  0  0  0  0  0
   -3.7500    1.2990    0.0000 C   0  0  0  0  0  0  0  0  0  0  0  0
   -3.0000    2.5981    0.0000 C   0  0  0  0  0  0  0  0  0  0  0  0
   -2.7395    4.0753    0.0000 C   0  0  0  0  0  0  0  0  0  0  0  0
   -4.4095    3.1111    0.0000 C   0  0  0  0  0  0  0  0  0  0  0  0
   -1.5000    2.5981    0.0000 N   0  0  0  0  0  0  0  0  0  0  0  0
   -0.7500    3.8971    0.0000 C   0  0  0  0  0  0  0  0  0  0  0  0
   -1.5000    5.1962    0.0000 O   0  0  0  0  0  0  0  0  0  0  0  0
    0.7500    3.8971    0.0000 C   0  0  0  0  0  0  0  0  0  0  0  0
    1.5000    5.1962    0.0000 C   0  0  0  0  0  0  0  0  0  0  0  0
    3.0000    5.1962    0.0000 C   0  0  0  0  0  0  0  0  0  0  0  0
    3.7500    3.8971    0.0000 C   0  0  0  0  0  0  0  0  0  0  0  0
    5.2500    3.8971    0.0000 C   0  0  0  0  0  0  0  0  0  0  0  0
    6.0000    5.1962    0.0000 C   0  0  0  0  0  0  0  0  0  0  0  0
    7.5000    5.1962    0.0000 O   0  0  0  0  0  0  0  0  0  0  0  0
    8.2500    3.8971    0.0000 C   0  0  0  0  0  0  0  0  0  0  0  0
    5.2500    6.4952    0.0000 C   0  0  0  0  0  0  0  0  0  0  0  0
    6.0000    7.7942    0.0000 O   0  0  0  0  0  0  0  0  0  0  0  0
    5.2500    9.0933    0.0000 C   0  0  0  0  0  0  0  0  0  0  0  0
    3.7500    6.4952    0.0000 C   0  0  0  0  0  0  0  0  0  0  0  0
    3.0000   -7.7942    0.0000 C   0  0  0  0  0  0  0  0  0  0  0  0
    3.7500   -9.0933    0.0000 C   0  0  0  0  0  0  0  0  0  0  0  0
    5.2500   -9.0933    0.0000 O   0  0  0  0  0  0  0  0  0  0  0  0
    6.0000   -7.7942    0.0000 C   0  0  0  0  0  0  0  0  0  0  0  0
  1  2  1  0
  2  3  1  0
  3  4  2  0
  4  5  1  0
  5  6  2  0
  6  7  1  0
  7  8  2  0
  8  9  1  0
  9 10  2  0
  9 11  1  0
 11 12  1  0
 12 13  2  0
 13 14  1  0
 14 15  2  0
 15 16  1  0
 16 17  2  0
 16 18  1  0
 18 19  1  0
 18 20  2  0
 20 21  1  0
 21 22  1  0
 21 23  1  0
 21 24  1  0
 24 25  1  0
 25 26  2  0
 25 27  1  0
 27 28  2  0
 28 29  1  0
 29 30  2  0
 30 31  1  0
 31 32  2  0
 32 33  1  0
 33 34  1  0
 32 35  1  0
 35 36  1  0
 36 37  1  0
 35 38  2  0
  6 39  1  0
 39 40  2  0
 40 41  1  0
 41 42  1  0
 40  3  1  0
 17 12  1  0
 38 29  1  0
 24 15  1  0
M  END
>  <Compound_ID>  (285) 
C01875966

>  <Active>  (285) 
0

>  <Smiles>  (285) 
COc1ccc(/C=C/C(=O)Oc2ccc3c(c2)C(C)=CC(C)(C)N3C(=O)/C=C/c2ccc(OC)c(OC)c2)cc1OC

>  <canonical_smi>  (285) 
COc1ccc(/C=C/C(=O)Oc2ccc3c(c2)C(C)=CC(C)(C)N3C(=O)/C=C/c2ccc(OC)c(OC)c2)cc1OC

>  <Set>  (285) 
G2 inactive

>  <Set_type>  (285) 
Train

>  <MW>  (285) 
569.65

>  <HBD>  (285) 
0

>  <HBA>  (285) 
7

>  <NRB>  (285) 
9

>  <NR>  (285) 
4

>  <NAR>  (285) 
3

>  <PSA>  (285) 
83.53

>  <Standard Type>  (285) 
nan

>  <Standard Relation>  (285) 
nan

>  <Standard Units>  (285) 
nan

>  <Standard Value>  (285) 
nan

>  <Assay ChEMBL ID>  (285) 
nan

>  <Assay Description>  (285) 
nan

>  <BAO Label>  (285) 
nan

$$$$

     RDKit          2D

 33 38  0  0  0  0  0  0  0  0999 V2000
    9.7500   -3.8971    0.0000 C   0  0  0  0  0  0  0  0  0  0  0  0
    8.2500   -3.8971    0.0000 O   0  0  0  0  0  0  0  0  0  0  0  0
    7.5000   -2.5981    0.0000 C   0  0  0  0  0  0  0  0  0  0  0  0
    8.2500   -1.2990    0.0000 O   0  0  0  0  0  0  0  0  0  0  0  0
    6.0000   -2.5981    0.0000 C   0  0  0  0  0  0  0  0  0  0  0  0
    5.2500   -1.2990    0.0000 C   0  0  0  0  0  0  0  0  0  0  0  0
    3.7500   -1.2990    0.0000 C   0  0  0  0  0  0  0  0  0  0  0  0
    3.0000   -2.5981    0.0000 O   0  0  0  0  0  0  0  0  0  0  0  0
    3.0000    0.0000    0.0000 N   0  0  0  0  0  0  0  0  0  0  0  0
    1.5000    0.0000    0.0000 C   0  0  0  0  0  0  0  0  0  0  0  0
    0.7500   -1.2990    0.0000 C   0  0  0  0  0  0  0  0  0  0  0  0
   -0.7500   -1.2990    0.0000 C   0  0  0  0  0  0  0  0  0  0  0  0
   -1.5000    0.0000    0.0000 C   0  0  0  0  0  0  0  0  0  0  0  0
   -1.9134   -1.4419    0.0000 O   0  0  0  0  0  0  0  0  0  0  0  0
   -3.0000    0.0000    0.0000 C   0  0  0  0  0  0  0  0  0  0  0  0
   -3.7500    1.2990    0.0000 C   0  0  0  0  0  0  0  0  0  0  0  0
   -3.0000    2.5981    0.0000 C   0  0  0  0  0  0  0  0  0  0  0  0
   -3.7500    3.8971    0.0000 C   0  0  0  0  0  0  0  0  0  0  0  0
   -3.0000    5.1962    0.0000 C   0  0  0  0  0  0  0  0  0  0  0  0
   -1.5000    5.1962    0.0000 C   0  0  0  0  0  0  0  0  0  0  0  0
   -0.7500    6.4952    0.0000 O   0  0  0  0  0  0  0  0  0  0  0  0
   -0.7500    3.8971    0.0000 C   0  0  0  0  0  0  0  0  0  0  0  0
   -1.5000    2.5981    0.0000 C   0  0  0  0  0  0  0  0  0  0  0  0
   -0.7500    1.2990    0.0000 C   0  0  0  0  0  0  0  0  0  0  0  0
   -1.5846    1.4456    0.0000 C   0  0  0  0  0  0  0  0  0  0  0  0
   -1.8000    0.5196    0.0000 C   0  0  0  0  0  0  0  0  0  0  0  0
   -2.7096    0.7961    0.0000 N   0  0  0  0  0  4  0  0  0  0  0  0
   -3.0000   -2.5981    0.0000 C   0  0  0  0  0  0  0  0  0  0  0  0
   -4.5000   -2.5981    0.0000 C   0  0  0  0  0  0  0  0  0  0  0  0
   -5.7990   -3.3481    0.0000 C   0  0  0  0  0  0  0  0  0  0  0  0
   -5.7990   -1.8481    0.0000 C   0  0  0  0  0  0  0  0  0  0  0  0
    0.7500    1.2990    0.0000 C   0  0  0  0  0  0  0  0  0  0  0  0
    0.9068    2.7908    0.0000 O   0  0  0  0  0  0  0  0  0  0  0  0
  1  2  1  0
  2  3  1  0
  3  4  2  0
  3  5  1  0
  5  6  2  0
  6  7  1  0
  7  8  2  0
  7  9  1  0
 10  9  1  6
 10 11  1  0
 11 12  1  0
 12 13  1  0
 13 14  1  1
 13 15  1  0
 15 16  1  6
 16 17  1  0
 17 18  2  0
 18 19  1  0
 19 20  2  0
 20 21  1  0
 20 22  1  0
 22 23  2  0
 23 24  1  0
 24 25  1  1
 25 26  1  0
 26 27  1  0
 27 28  1  0
 28 29  1  0
 29 30  1  0
 30 31  1  0
 24 32  1  0
 32 33  1  6
 32 10  1  0
 24 13  1  0
 31 29  1  0
 27 15  1  0
 23 17  1  0
 33 22  1  0
M  CHG  1  27   1
M  END
>  <Compound_ID>  (286) 
C33740735

>  <Active>  (286) 
0

>  <Smiles>  (286) 
COC(=O)/C=C/C(=O)N[C@@H]1CC[C@]2(O)[C@@H]3Cc4ccc(O)c5c4[C@]2(CC[NH+]3CC2CC2)[C@@H]1O5

>  <canonical_smi>  (286) 
COC(=O)/C=C/C(=O)N[C@@H]1CC[C@]2(O)[C@@H]3Cc4ccc(O)c5c4[C@]2(CC[NH+]3CC2CC2)[C@@H]1O5

>  <Set>  (286) 
G2 inactive

>  <Set_type>  (286) 
Train

>  <MW>  (286) 
455.53

>  <HBD>  (286) 
4

>  <HBA>  (286) 
6

>  <NRB>  (286) 
5

>  <NR>  (286) 
6

>  <NAR>  (286) 
1

>  <PSA>  (286) 
109.53

>  <Standard Type>  (286) 
nan

>  <Standard Relation>  (286) 
nan

>  <Standard Units>  (286) 
nan

>  <Standard Value>  (286) 
nan

>  <Assay ChEMBL ID>  (286) 
nan

>  <Assay Description>  (286) 
nan

>  <BAO Label>  (286) 
nan

$$$$

     RDKit          2D

 22 25  0  0  0  0  0  0  0  0999 V2000
    2.3250    2.9520    0.0000 C   0  0  0  0  0  0  0  0  0  0  0  0
    0.8578    2.6401    0.0000 C   0  0  0  0  0  0  0  0  0  0  0  0
   -0.1459    3.7548    0.0000 C   0  0  0  0  0  0  0  0  0  0  0  0
    0.3177    5.1814    0.0000 C   0  0  0  0  0  0  0  0  0  0  0  0
   -0.6860    6.2961    0.0000 C   0  0  0  0  0  0  0  0  0  0  0  0
   -2.1533    5.9843    0.0000 C   0  0  0  0  0  0  0  0  0  0  0  0
   -2.6168    4.5577    0.0000 C   0  0  0  0  0  0  0  0  0  0  0  0
   -1.6131    3.4430    0.0000 C   0  0  0  0  0  0  0  0  0  0  0  0
    0.3943    1.2135    0.0000 N   0  0  0  0  0  0  0  0  0  0  0  0
    1.2760    0.0000    0.0000 N   0  0  0  0  0  0  0  0  0  0  0  0
    0.3943   -1.2135    0.0000 C   0  0  0  0  0  0  0  0  0  0  0  0
   -1.0323   -0.7500    0.0000 C   0  0  0  0  0  0  0  0  0  0  0  0
   -2.4589   -1.2135    0.0000 N   0  0  0  0  0  0  0  0  0  0  0  0
   -3.3405    0.0000    0.0000 C   0  0  0  0  0  0  0  0  0  0  0  0
   -4.8405    0.0000    0.0000 C   0  0  0  0  0  0  0  0  0  0  0  0
   -5.7222   -1.2135    0.0000 C   0  0  0  0  0  0  0  0  0  0  0  0
   -7.1488   -0.7500    0.0000 N   0  0  0  0  0  0  0  0  0  0  0  0
   -7.1488    0.7500    0.0000 N   0  0  0  0  0  0  0  0  0  0  0  0
   -8.3623    1.6317    0.0000 C   0  0  0  0  0  0  0  0  0  0  0  0
   -5.7222    1.2135    0.0000 C   0  0  0  0  0  0  0  0  0  0  0  0
   -2.4589    1.2135    0.0000 N   0  0  0  0  0  0  0  0  0  0  0  0
   -1.0323    0.7500    0.0000 C   0  0  0  0  0  0  0  0  0  0  0  0
  2  1  1  6
  2  3  1  0
  3  4  2  0
  4  5  1  0
  5  6  2  0
  6  7  1  0
  7  8  2  0
  2  9  1  0
  9 10  1  0
 10 11  2  0
 11 12  1  0
 12 13  2  0
 13 14  1  0
 14 15  1  6
 15 16  1  0
 16 17  2  0
 17 18  1  0
 18 19  1  0
 18 20  1  0
 14 21  1  0
 22 21  1  6
  8  3  1  0
 22  9  1  0
 22 12  1  0
 20 15  2  0
M  END
>  <Compound_ID>  (287) 
C39358245

>  <Active>  (287) 
0

>  <Smiles>  (287) 
C[C@@H](c1ccccc1)N1N=CC2=N[C@H](c3cnn(C)c3)N[C@@H]21

>  <canonical_smi>  (287) 
C[C@@H](c1ccccc1)N1N=CC2=N[C@H](c3cnn(C)c3)N[C@@H]21

>  <Set>  (287) 
G2 inactive

>  <Set_type>  (287) 
Train

>  <MW>  (287) 
294.36

>  <HBD>  (287) 
1

>  <HBA>  (287) 
3

>  <NRB>  (287) 
3

>  <NR>  (287) 
4

>  <NAR>  (287) 
2

>  <PSA>  (287) 
57.81

>  <Standard Type>  (287) 
nan

>  <Standard Relation>  (287) 
nan

>  <Standard Units>  (287) 
nan

>  <Standard Value>  (287) 
nan

>  <Assay ChEMBL ID>  (287) 
nan

>  <Assay Description>  (287) 
nan

>  <BAO Label>  (287) 
nan

$$$$

     RDKit          2D

 19 20  0  0  0  0  0  0  0  0999 V2000
    3.7500   -1.2990    0.0000 C   0  0  0  0  0  0  0  0  0  0  0  0
    3.0000    0.0000    0.0000 S   0  0  0  0  0  0  0  0  0  0  0  0
    1.5000    0.0000    0.0000 C   0  0  0  0  0  0  0  0  0  0  0  0
    0.7500   -1.2990    0.0000 N   0  0  0  0  0  0  0  0  0  0  0  0
   -0.7500   -1.2990    0.0000 C   0  0  0  0  0  0  0  0  0  0  0  0
   -1.5000    0.0000    0.0000 N   0  0  0  0  0  0  0  0  0  0  0  0
   -0.7500    1.2990    0.0000 C   0  0  0  0  0  0  0  0  0  0  0  0
   -1.5000    2.5981    0.0000 N   0  0  0  0  0  0  0  0  0  0  0  0
   -3.0000    2.5981    0.0000 C   0  0  0  0  0  0  0  0  0  0  0  0
   -3.8817    1.3846    0.0000 C   0  0  0  0  0  0  0  0  0  0  0  0
   -3.4182   -0.0420    0.0000 C   0  0  0  0  0  0  0  0  0  0  0  0
   -5.3083    1.8481    0.0000 N   0  0  0  0  0  0  0  0  0  0  0  0
   -5.3083    3.3481    0.0000 N   0  0  0  0  0  0  0  0  0  0  0  0
   -6.5218    4.2298    0.0000 C   0  0  0  0  0  0  0  0  0  0  0  0
   -3.8817    3.8116    0.0000 C   0  0  0  0  0  0  0  0  0  0  0  0
   -3.4182    5.2382    0.0000 C   0  0  0  0  0  0  0  0  0  0  0  0
    0.7500    1.2990    0.0000 C   0  0  0  0  0  0  0  0  0  0  0  0
    1.5000    2.5981    0.0000 C   0  0  0  0  0  0  0  0  0  0  0  0
    2.2500    3.8971    0.0000 N   0  0  0  0  0  0  0  0  0  0  0  0
  1  2  1  0
  2  3  1  0
  3  4  2  0
  4  5  1  0
  5  6  2  0
  6  7  1  0
  7  8  1  0
  8  9  1  0
  9 10  1  0
 10 11  1  0
 10 12  2  0
 12 13  1  0
 13 14  1  0
 13 15  1  0
 15 16  1  0
  7 17  2  0
 17 18  1  0
 18 19  3  0
 17  3  1  0
 15  9  2  0
M  END
>  <Compound_ID>  (288) 
C41527718

>  <Active>  (288) 
0

>  <Smiles>  (288) 
CSc1ncnc(Nc2c(C)nn(C)c2C)c1C#N

>  <canonical_smi>  (288) 
CSc1ncnc(Nc2c(C)nn(C)c2C)c1C#N

>  <Set>  (288) 
G2 inactive

>  <Set_type>  (288) 
Train

>  <MW>  (288) 
274.35

>  <HBD>  (288) 
1

>  <HBA>  (288) 
6

>  <NRB>  (288) 
3

>  <NR>  (288) 
2

>  <NAR>  (288) 
2

>  <PSA>  (288) 
79.42

>  <Standard Type>  (288) 
nan

>  <Standard Relation>  (288) 
nan

>  <Standard Units>  (288) 
nan

>  <Standard Value>  (288) 
nan

>  <Assay ChEMBL ID>  (288) 
nan

>  <Assay Description>  (288) 
nan

>  <BAO Label>  (288) 
nan

$$$$

     RDKit          2D

 21 25  0  0  0  0  0  0  0  0999 V2000
   -0.4635   -8.2972    0.0000 C   0  0  0  0  0  0  0  0  0  0  0  0
   -1.6771   -7.4156    0.0000 C   0  0  0  0  0  0  0  0  0  0  0  0
   -1.2135   -5.9890    0.0000 C   0  0  0  0  0  0  0  0  0  0  0  0
    0.2865   -5.9890    0.0000 C   0  0  0  0  0  0  0  0  0  0  0  0
    0.7500   -7.4156    0.0000 C   0  0  0  0  0  0  0  0  0  0  0  0
    1.2135   -5.9890    0.0000 C   0  0  0  0  0  0  0  0  0  0  0  0
   -0.0000   -5.1073    0.0000 C   0  0  0  0  0  0  0  0  0  0  0  0
   -0.0000   -3.6073    0.0000 C   0  0  0  0  0  0  0  0  0  0  0  0
    1.2135   -2.7256    0.0000 N   0  0  0  0  0  0  0  0  0  0  0  0
    0.7500   -1.2990    0.0000 C   0  0  0  0  0  0  0  0  0  0  0  0
    1.5000    0.0000    0.0000 C   0  0  0  0  0  0  0  0  0  0  0  0
    0.7500    1.2990    0.0000 C   0  0  0  0  0  0  0  0  0  0  0  0
    1.5000    2.5981    0.0000 N   0  0  0  0  0  0  0  0  0  0  0  0
    0.8899    3.9684    0.0000 C   0  0  0  0  0  0  0  0  0  0  0  0
    2.0046    4.9721    0.0000 N   0  0  0  0  0  0  0  0  0  0  0  0
    3.3037    4.2221    0.0000 N   0  0  0  0  0  0  0  0  0  0  0  0
    2.9918    2.7549    0.0000 N   0  0  0  0  0  0  0  0  0  0  0  0
   -0.7500    1.2990    0.0000 C   0  0  0  0  0  0  0  0  0  0  0  0
   -1.5000    0.0000    0.0000 C   0  0  0  0  0  0  0  0  0  0  0  0
   -0.7500   -1.2990    0.0000 C   0  0  0  0  0  0  0  0  0  0  0  0
   -1.2135   -2.7256    0.0000 N   0  0  0  0  0  0  0  0  0  0  0  0
  1  2  2  0
  3  2  1  1
  3  4  1  0
  4  5  1  0
  5  6  1  1
  6  7  1  0
  7  8  1  6
  8  9  2  0
  9 10  1  0
 10 11  2  0
 11 12  1  0
 12 13  1  0
 13 14  1  0
 14 15  2  0
 15 16  1  0
 16 17  2  0
 12 18  2  0
 18 19  1  0
 19 20  2  0
 20 21  1  0
  5  1  1  0
 21  8  1  0
  7  3  1  0
 20 10  1  0
 17 13  1  0
M  END
>  <Compound_ID>  (289) 
C55037086

>  <Active>  (289) 
0

>  <Smiles>  (289) 
C1=C[C@@H]2C[C@H]1C[C@H]2c1nc2cc(-n3cnnn3)ccc2[nH]1

>  <canonical_smi>  (289) 
C1=C[C@@H]2C[C@H]1C[C@H]2c1nc2cc(-n3cnnn3)ccc2[nH]1

>  <Set>  (289) 
G2 inactive

>  <Set_type>  (289) 
Train

>  <MW>  (289) 
278.32

>  <HBD>  (289) 
1

>  <HBA>  (289) 
4

>  <NRB>  (289) 
2

>  <NR>  (289) 
5

>  <NAR>  (289) 
3

>  <PSA>  (289) 
72.28

>  <Standard Type>  (289) 
nan

>  <Standard Relation>  (289) 
nan

>  <Standard Units>  (289) 
nan

>  <Standard Value>  (289) 
nan

>  <Assay ChEMBL ID>  (289) 
nan

>  <Assay Description>  (289) 
nan

>  <BAO Label>  (289) 
nan

$$$$

     RDKit          2D

 21 24  0  0  0  0  0  0  0  0999 V2000
   -2.9520   -4.6564    0.0000 C   0  0  0  0  0  0  0  0  0  0  0  0
   -2.6401   -3.1891    0.0000 C   0  0  0  0  0  0  0  0  0  0  0  0
   -3.7548   -2.1855    0.0000 C   0  0  0  0  0  0  0  0  0  0  0  0
   -1.2135   -2.7256    0.0000 C   0  0  0  0  0  0  0  0  0  0  0  0
   -0.0000   -3.6073    0.0000 N   0  0  0  0  0  0  0  0  0  0  0  0
    1.2135   -2.7256    0.0000 N   0  0  0  0  0  0  0  0  0  0  0  0
    0.7500   -1.2990    0.0000 C   0  0  0  0  0  0  0  0  0  0  0  0
    1.5000    0.0000    0.0000 C   0  0  0  0  0  0  0  0  0  0  0  0
    0.7500    1.2990    0.0000 C   0  0  0  0  0  0  0  0  0  0  0  0
   -0.7500    1.2990    0.0000 N   0  0  0  0  0  0  0  0  0  0  0  0
   -1.5000    2.5981    0.0000 C   0  0  0  0  0  0  0  0  0  0  0  0
   -3.0000    2.5981    0.0000 N   0  0  0  0  0  0  0  0  0  0  0  0
   -3.7500    3.8971    0.0000 C   0  0  0  0  0  0  0  0  0  0  0  0
   -3.0000    5.1962    0.0000 N   0  0  0  0  0  0  0  0  0  0  0  0
   -1.5000    5.1962    0.0000 C   0  0  0  0  0  0  0  0  0  0  0  0
   -0.4963    6.3109    0.0000 N   0  0  0  0  0  0  0  0  0  0  0  0
    0.8740    5.7008    0.0000 C   0  0  0  0  0  0  0  0  0  0  0  0
    0.7172    4.2090    0.0000 C   0  0  0  0  0  0  0  0  0  0  0  0
   -0.7500    3.8971    0.0000 C   0  0  0  0  0  0  0  0  0  0  0  0
   -1.5000    0.0000    0.0000 C   0  0  0  0  0  0  0  0  0  0  0  0
   -0.7500   -1.2990    0.0000 C   0  0  0  0  0  0  0  0  0  0  0  0
  1  2  1  0
  2  3  1  0
  4  2  1  1
  4  5  1  0
  5  6  1  0
  6  7  2  0
  7  8  1  0
  8  9  1  0
  9 10  1  0
 10 11  1  0
 11 12  2  0
 12 13  1  0
 13 14  2  0
 14 15  1  0
 15 16  2  0
 16 17  1  0
 17 18  2  0
 19 18  1  6
 10 20  1  0
 21 20  1  1
 21  4  1  0
 21  7  1  0
 19 11  1  0
 19 15  1  0
M  END
>  <Compound_ID>  (290) 
C65434926

>  <Active>  (290) 
0

>  <Smiles>  (290) 
CC(C)[C@@H]1NN=C2CCN(C3=NC=NC4=NC=C[C@@H]43)C[C@@H]21

>  <canonical_smi>  (290) 
CC(C)[C@@H]1NN=C2CCN(C3=NC=NC4=NC=C[C@@H]43)C[C@@H]21

>  <Set>  (290) 
G2 inactive

>  <Set_type>  (290) 
Train

>  <MW>  (290) 
284.37

>  <HBD>  (290) 
1

>  <HBA>  (290) 
2

>  <NRB>  (290) 
1

>  <NR>  (290) 
4

>  <NAR>  (290) 
0

>  <PSA>  (290) 
64.71

>  <Standard Type>  (290) 
nan

>  <Standard Relation>  (290) 
nan

>  <Standard Units>  (290) 
nan

>  <Standard Value>  (290) 
nan

>  <Assay ChEMBL ID>  (290) 
nan

>  <Assay Description>  (290) 
nan

>  <BAO Label>  (290) 
nan

$$$$

     RDKit          2D

 20 22  0  0  0  0  0  0  0  0999 V2000
    2.7760    0.0000    0.0000 C   0  0  0  0  0  0  0  0  0  0  0  0
    1.2760    0.0000    0.0000 C   0  0  0  0  0  0  0  0  0  0  0  0
    0.3943    1.2135    0.0000 N   0  0  0  0  0  0  0  0  0  0  0  0
   -1.0323    0.7500    0.0000 N   0  0  0  0  0  0  0  0  0  0  0  0
   -1.0323   -0.7500    0.0000 C   0  0  0  0  0  0  0  0  0  0  0  0
   -2.2458   -1.6317    0.0000 N   0  0  0  0  0  0  0  0  0  0  0  0
   -3.6161   -1.0216    0.0000 C   0  0  0  0  0  0  0  0  0  0  0  0
   -4.9152   -1.7716    0.0000 S   0  0  0  0  0  0  0  0  0  0  0  0
   -6.0299   -0.7679    0.0000 C   0  0  0  0  0  0  0  0  0  0  0  0
   -7.4971   -1.0797    0.0000 C   0  0  0  0  0  0  0  0  0  0  0  0
   -8.5008    0.0350    0.0000 C   0  0  0  0  0  0  0  0  0  0  0  0
   -9.9926   -0.1218    0.0000 C   0  0  0  0  0  0  0  0  0  0  0  0
  -10.6027    1.2485    0.0000 C   0  0  0  0  0  0  0  0  0  0  0  0
   -9.4880    2.2522    0.0000 C   0  0  0  0  0  0  0  0  0  0  0  0
   -8.1889    1.5022    0.0000 N   0  0  0  0  0  0  0  0  0  0  0  0
   -5.4198    0.6024    0.0000 C   0  0  0  0  0  0  0  0  0  0  0  0
   -6.1698    1.9015    0.0000 O   0  0  0  0  0  0  0  0  0  0  0  0
   -3.9280    0.4456    0.0000 N   0  0  0  0  0  0  0  0  0  0  0  0
   -2.9243    1.5604    0.0000 C   0  0  0  0  0  0  0  0  0  0  0  0
    0.3943   -1.2135    0.0000 S   0  0  0  0  0  0  0  0  0  0  0  0
  1  2  1  0
  2  3  2  0
  3  4  1  0
  4  5  2  0
  5  6  1  0
  6  7  2  0
  7  8  1  0
  8  9  1  0
  9 10  2  0
 10 11  1  0
 11 12  2  0
 12 13  1  0
 13 14  2  0
 14 15  1  0
  9 16  1  0
 16 17  2  0
 16 18  1  0
 18 19  1  0
  5 20  1  0
 20  2  1  0
 18  7  1  0
 15 11  1  0
M  END
>  <Compound_ID>  (291) 
C40467657

>  <Active>  (291) 
0

>  <Smiles>  (291) 
Cc1nnc(/N=C2/S/C(=C/c3ccc[nH]3)C(=O)N2C)s1

>  <canonical_smi>  (291) 
Cc1nnc(/N=C2/S/C(=C/c3ccc[nH]3)C(=O)N2C)s1

>  <Set>  (291) 
G2 inactive

>  <Set_type>  (291) 
Train

>  <MW>  (291) 
305.39

>  <HBD>  (291) 
1

>  <HBA>  (291) 
4

>  <NRB>  (291) 
2

>  <NR>  (291) 
3

>  <NAR>  (291) 
2

>  <PSA>  (291) 
74.24

>  <Standard Type>  (291) 
nan

>  <Standard Relation>  (291) 
nan

>  <Standard Units>  (291) 
nan

>  <Standard Value>  (291) 
nan

>  <Assay ChEMBL ID>  (291) 
nan

>  <Assay Description>  (291) 
nan

>  <BAO Label>  (291) 
nan

$$$$

     RDKit          2D

 23 25  0  0  0  0  0  0  0  0999 V2000
    3.0000    0.0000    0.0000 C   0  0  0  0  0  0  0  0  0  0  0  0
    1.5000    0.0000    0.0000 C   0  0  0  0  0  0  0  0  0  0  0  0
    0.7500   -1.2990    0.0000 C   0  0  0  0  0  0  0  0  0  0  0  0
   -0.7500   -1.2990    0.0000 C   0  0  0  0  0  0  0  0  0  0  0  0
   -1.5000   -2.5981    0.0000 C   0  0  0  0  0  0  0  0  0  0  0  0
   -1.5000    0.0000    0.0000 N   0  0  0  0  0  0  0  0  0  0  0  0
   -0.7500    1.2990    0.0000 C   0  0  0  0  0  0  0  0  0  0  0  0
   -1.5000    2.5981    0.0000 N   0  0  0  0  0  0  0  0  0  0  0  0
   -2.9918    2.7549    0.0000 N   0  0  0  0  0  0  0  0  0  0  0  0
   -3.3037    4.2221    0.0000 C   0  0  0  0  0  0  0  0  0  0  0  0
   -4.6740    4.8322    0.0000 C   0  0  0  0  0  0  0  0  0  0  0  0
   -2.0046    4.9721    0.0000 C   0  0  0  0  0  0  0  0  0  0  0  0
   -0.8899    3.9684    0.0000 C   0  0  0  0  0  0  0  0  0  0  0  0
    0.5773    4.2803    0.0000 N   0  0  0  0  0  0  0  0  0  0  0  0
    1.0409    5.7068    0.0000 C   0  0  0  0  0  0  0  0  0  0  0  0
    0.0372    6.8216    0.0000 O   0  0  0  0  0  0  0  0  0  0  0  0
    2.5081    6.0187    0.0000 C   0  0  0  0  0  0  0  0  0  0  0  0
    3.5118    4.9040    0.0000 C   0  0  0  0  0  0  0  0  0  0  0  0
    4.9790    5.2159    0.0000 C   0  0  0  0  0  0  0  0  0  0  0  0
    5.4425    6.6424    0.0000 C   0  0  0  0  0  0  0  0  0  0  0  0
    4.4388    7.7572    0.0000 C   0  0  0  0  0  0  0  0  0  0  0  0
    2.9716    7.4453    0.0000 C   0  0  0  0  0  0  0  0  0  0  0  0
    0.7500    1.2990    0.0000 N   0  0  0  0  0  0  0  0  0  0  0  0
  1  2  1  0
  2  3  2  0
  3  4  1  0
  4  5  1  0
  4  6  2  0
  6  7  1  0
  7  8  1  0
  8  9  1  0
  9 10  2  0
 10 11  1  0
 10 12  1  0
 12 13  2  0
 13 14  1  0
 14 15  1  0
 15 16  2  0
 17 15  1  1
 17 18  1  0
 18 19  1  0
 19 20  2  0
 20 21  1  0
 21 22  1  0
  7 23  2  0
 23  2  1  0
 13  8  1  0
 22 17  1  0
M  END
>  <Compound_ID>  (292) 
C57682337

>  <Active>  (292) 
0

>  <Smiles>  (292) 
Cc1cc(C)nc(-n2nc(C)cc2NC(=O)[C@@H]2CC=CCC2)n1

>  <canonical_smi>  (292) 
Cc1cc(C)nc(-n2nc(C)cc2NC(=O)[C@@H]2CC=CCC2)n1

>  <Set>  (292) 
G2 inactive

>  <Set_type>  (292) 
Train

>  <MW>  (292) 
311.39

>  <HBD>  (292) 
1

>  <HBA>  (292) 
4

>  <NRB>  (292) 
3

>  <NR>  (292) 
3

>  <NAR>  (292) 
2

>  <PSA>  (292) 
72.7

>  <Standard Type>  (292) 
nan

>  <Standard Relation>  (292) 
nan

>  <Standard Units>  (292) 
nan

>  <Standard Value>  (292) 
nan

>  <Assay ChEMBL ID>  (292) 
nan

>  <Assay Description>  (292) 
nan

>  <BAO Label>  (292) 
nan

$$$$

     RDKit          2D

 29 32  0  0  0  0  0  0  0  0999 V2000
    3.2475    2.1406    0.0000 C   0  0  0  0  0  0  0  0  0  0  0  0
    2.1328    3.1443    0.0000 O   0  0  0  0  0  0  0  0  0  0  0  0
    0.7062    2.6807    0.0000 C   0  0  0  0  0  0  0  0  0  0  0  0
    0.3943    1.2135    0.0000 C   0  0  0  0  0  0  0  0  0  0  0  0
    1.2760    0.0000    0.0000 C   0  0  0  0  0  0  0  0  0  0  0  0
    0.3943   -1.2135    0.0000 C   0  0  0  0  0  0  0  0  0  0  0  0
   -1.0323   -0.7500    0.0000 O   0  0  0  0  0  0  0  0  0  0  0  0
   -1.0323    0.7500    0.0000 C   0  0  0  0  0  0  0  0  0  0  0  0
   -2.1470    1.7537    0.0000 C   0  0  0  0  0  0  0  0  0  0  0  0
   -1.8351    3.2209    0.0000 C   0  0  0  0  0  0  0  0  0  0  0  0
   -2.9499    4.2246    0.0000 O   0  0  0  0  0  0  0  0  0  0  0  0
   -2.6380    5.6918    0.0000 C   0  0  0  0  0  0  0  0  0  0  0  0
   -3.7527    6.6955    0.0000 C   0  0  0  0  0  0  0  0  0  0  0  0
   -3.4408    8.1628    0.0000 O   0  0  0  0  0  0  0  0  0  0  0  0
   -4.5556    9.1664    0.0000 C   0  0  0  0  0  0  0  0  0  0  0  0
   -4.2437   10.6337    0.0000 O   0  0  0  0  0  0  0  0  0  0  0  0
   -5.3584   11.6374    0.0000 C   0  0  0  0  0  0  0  0  0  0  0  0
   -5.0465   13.1046    0.0000 C   0  0  0  0  0  0  0  0  0  0  0  0
   -3.6200   13.5681    0.0000 O   0  0  0  0  0  0  0  0  0  0  0  0
   -6.7850   11.1738    0.0000 C   0  0  0  0  0  0  0  0  0  0  0  0
   -7.8997   12.1775    0.0000 O   0  0  0  0  0  0  0  0  0  0  0  0
   -7.0969    9.7066    0.0000 C   0  0  0  0  0  0  0  0  0  0  0  0
   -8.5234    9.2431    0.0000 O   0  0  0  0  0  0  0  0  0  0  0  0
   -5.9821    8.7029    0.0000 C   0  0  0  0  0  0  0  0  0  0  0  0
   -6.2940    7.2357    0.0000 O   0  0  0  0  0  0  0  0  0  0  0  0
   -1.2114    6.1554    0.0000 C   0  0  0  0  0  0  0  0  0  0  0  0
   -0.0967    5.1517    0.0000 C   0  0  0  0  0  0  0  0  0  0  0  0
    1.3299    5.6152    0.0000 O   0  0  0  0  0  0  0  0  0  0  0  0
   -0.4086    3.6844    0.0000 C   0  0  0  0  0  0  0  0  0  0  0  0
  1  2  1  0
  2  3  1  0
  3  4  2  0
  4  5  1  0
  5  6  2  0
  6  7  1  0
  7  8  1  0
  8  9  2  0
  9 10  1  0
 10 11  1  0
 11 12  1  0
 12 13  1  0
 13 14  1  0
 15 14  1  1
 15 16  1  0
 16 17  1  0
 17 18  1  6
 18 19  1  0
 17 20  1  0
 20 21  1  6
 20 22  1  0
 22 23  1  6
 22 24  1  0
 24 25  1  1
 12 26  2  0
 26 27  1  0
 27 28  2  0
 27 29  1  0
 29  3  1  0
  8  4  1  0
 29 10  2  0
 24 15  1  0
M  END
>  <Compound_ID>  (293) 
C04897163

>  <Active>  (293) 
0

>  <Smiles>  (293) 
COc1c2ccoc2cc2oc(CO[C@@H]3O[C@@H](CO)[C@@H](O)[C@@H](O)[C@@H]3O)cc(=O)c12

>  <canonical_smi>  (293) 
COc1c2ccoc2cc2oc(CO[C@@H]3O[C@@H](CO)[C@@H](O)[C@@H](O)[C@@H]3O)cc(=O)c12

>  <Set>  (293) 
G2 inactive

>  <Set_type>  (293) 
Train

>  <MW>  (293) 
408.36

>  <HBD>  (293) 
4

>  <HBA>  (293) 
10

>  <NRB>  (293) 
5

>  <NR>  (293) 
4

>  <NAR>  (293) 
3

>  <PSA>  (293) 
151.96

>  <Standard Type>  (293) 
nan

>  <Standard Relation>  (293) 
nan

>  <Standard Units>  (293) 
nan

>  <Standard Value>  (293) 
nan

>  <Assay ChEMBL ID>  (293) 
nan

>  <Assay Description>  (293) 
nan

>  <BAO Label>  (293) 
nan

$$$$

     RDKit          2D

 25 27  0  0  0  0  0  0  0  0999 V2000
   -5.4912    4.7648    0.0000 C   0  0  0  0  0  0  0  0  0  0  0  0
   -4.3764    3.7611    0.0000 O   0  0  0  0  0  0  0  0  0  0  0  0
   -2.9499    4.2246    0.0000 C   0  0  0  0  0  0  0  0  0  0  0  0
   -2.6380    5.6918    0.0000 O   0  0  0  0  0  0  0  0  0  0  0  0
   -1.8351    3.2209    0.0000 C   0  0  0  0  0  0  0  0  0  0  0  0
   -2.1470    1.7537    0.0000 C   0  0  0  0  0  0  0  0  0  0  0  0
   -3.5736    1.2902    0.0000 O   0  0  0  0  0  0  0  0  0  0  0  0
   -1.0323    0.7500    0.0000 C   0  0  0  0  0  0  0  0  0  0  0  0
    0.3943    1.2135    0.0000 C   0  0  0  0  0  0  0  0  0  0  0  0
    1.2760    0.0000    0.0000 N   0  0  0  0  0  0  0  0  0  0  0  0
    0.3943   -1.2135    0.0000 C   0  0  0  0  0  0  0  0  0  0  0  0
    0.8578   -2.6401    0.0000 C   0  0  0  0  0  0  0  0  0  0  0  0
   -0.1459   -3.7548    0.0000 O   0  0  0  0  0  0  0  0  0  0  0  0
    2.3250   -2.9520    0.0000 O   0  0  0  0  0  0  0  0  0  0  0  0
    2.7886   -4.3786    0.0000 C   0  0  0  0  0  0  0  0  0  0  0  0
    1.7849   -5.4933    0.0000 C   0  0  0  0  0  0  0  0  0  0  0  0
    2.2484   -6.9199    0.0000 C   0  0  0  0  0  0  0  0  0  0  0  0
    3.7156   -7.2317    0.0000 C   0  0  0  0  0  0  0  0  0  0  0  0
    4.7193   -6.1170    0.0000 C   0  0  0  0  0  0  0  0  0  0  0  0
    4.2558   -4.6904    0.0000 C   0  0  0  0  0  0  0  0  0  0  0  0
   -1.0323   -0.7500    0.0000 C   0  0  0  0  0  0  0  0  0  0  0  0
   -2.2458   -1.6317    0.0000 C   0  0  0  0  0  0  0  0  0  0  0  0
    0.7062    2.6807    0.0000 C   0  0  0  0  0  0  0  0  0  0  0  0
   -0.4086    3.6844    0.0000 C   0  0  0  0  0  0  0  0  0  0  0  0
   -0.0967    5.1517    0.0000 C   0  0  0  0  0  0  0  0  0  0  0  0
  1  2  1  0
  2  3  1  0
  3  4  2  0
  5  3  1  6
  5  6  1  0
  6  7  2  0
  6  8  1  0
  8  9  2  0
  9 10  1  0
 10 11  1  0
 11 12  1  0
 12 13  2  0
 12 14  1  0
 14 15  1  0
 15 16  1  0
 16 17  1  0
 17 18  1  0
 18 19  1  0
 19 20  1  0
 11 21  2  0
 21 22  1  0
  9 23  1  0
 23 24  1  0
 24 25  1  6
 24  5  1  0
 21  8  1  0
 20 15  1  0
M  END
>  <Compound_ID>  (294) 
C04488720

>  <Active>  (294) 
0

>  <Smiles>  (294) 
COC(=O)[C@H]1C(=O)c2c([nH]c(C(=O)OC3CCCCC3)c2C)C[C@H]1C

>  <canonical_smi>  (294) 
COC(=O)[C@H]1C(=O)c2c([nH]c(C(=O)OC3CCCCC3)c2C)C[C@H]1C

>  <Set>  (294) 
G2 inactive

>  <Set_type>  (294) 
Train

>  <MW>  (294) 
347.41

>  <HBD>  (294) 
1

>  <HBA>  (294) 
5

>  <NRB>  (294) 
3

>  <NR>  (294) 
3

>  <NAR>  (294) 
1

>  <PSA>  (294) 
85.46

>  <Standard Type>  (294) 
nan

>  <Standard Relation>  (294) 
nan

>  <Standard Units>  (294) 
nan

>  <Standard Value>  (294) 
nan

>  <Assay ChEMBL ID>  (294) 
nan

>  <Assay Description>  (294) 
nan

>  <BAO Label>  (294) 
nan

$$$$

     RDKit          2D

 22 25  0  0  0  0  0  0  0  0999 V2000
   -2.3734   -4.1931    0.0000 O   0  0  0  0  0  0  0  0  0  0  0  0
   -0.9148   -4.5433    0.0000 C   0  0  0  0  0  0  0  0  0  0  0  0
    0.1177   -3.4552    0.0000 C   0  0  0  0  0  0  0  0  0  0  0  0
   -0.0000   -1.9598    0.0000 C   0  0  0  0  0  0  0  0  0  0  0  0
    1.3858   -1.3858    0.0000 C   0  0  0  0  0  0  0  0  0  0  0  0
    1.9598    0.0000    0.0000 C   0  0  0  0  0  0  0  0  0  0  0  0
    1.3858    1.3858    0.0000 C   0  0  0  0  0  0  0  0  0  0  0  0
    0.0000    1.9598    0.0000 C   0  0  0  0  0  0  0  0  0  0  0  0
   -1.3858    1.3858    0.0000 C   0  0  0  0  0  0  0  0  0  0  0  0
   -1.9598    0.0000    0.0000 C   0  0  0  0  0  0  0  0  0  0  0  0
   -1.3858   -1.3858    0.0000 C   0  0  0  0  0  0  0  0  0  0  0  0
    2.3600   -2.5264    0.0000 S   0  0  0  0  0  0  0  0  0  0  0  0
    1.5762   -3.8054    0.0000 C   0  0  0  0  0  0  0  0  0  0  0  0
    2.0023   -5.2436    0.0000 N   0  0  0  0  0  0  0  0  0  0  0  0
    0.9697   -6.3317    0.0000 C   0  0  0  0  0  0  0  0  0  0  0  0
   -0.4888   -5.9815    0.0000 N   0  0  0  0  0  0  0  0  0  0  0  0
   -1.5214   -7.0696    0.0000 C   0  0  0  0  0  0  0  0  0  0  0  0
   -1.0953   -8.5078    0.0000 C   0  0  0  0  0  0  0  0  0  0  0  0
    0.3186   -9.0085    0.0000 N   0  0  0  0  0  0  0  0  0  0  0  0
    0.2794  -10.5080    0.0000 C   0  0  0  0  0  0  0  0  0  0  0  0
   -1.1589  -10.9340    0.0000 N   0  0  0  0  0  0  0  0  0  0  0  0
   -2.0085   -9.6978    0.0000 N   0  0  0  0  0  0  0  0  0  0  0  0
  1  2  2  0
  3  2  1  6
  3  4  1  0
  4  5  2  0
  5  6  1  0
  6  7  1  0
  7  8  1  0
  8  9  1  0
  9 10  1  0
 10 11  1  0
  5 12  1  0
 12 13  1  0
 13 14  1  6
 14 15  1  0
 15 16  1  0
 16 17  1  0
 17 18  1  0
 18 19  2  0
 19 20  1  0
 20 21  2  0
 21 22  1  0
 16  2  1  0
 22 18  1  0
 13  3  1  0
 11  4  1  0
M  END
>  <Compound_ID>  (295) 
C63847123

>  <Active>  (295) 
0

>  <Smiles>  (295) 
O=C1[C@@H]2C3=C(CCCCCC3)S[C@@H]2NCN1Cc1ncn[nH]1

>  <canonical_smi>  (295) 
O=C1[C@@H]2C3=C(CCCCCC3)S[C@@H]2NCN1Cc1ncn[nH]1

>  <Set>  (295) 
G2 inactive

>  <Set_type>  (295) 
Train

>  <MW>  (295) 
319.43

>  <HBD>  (295) 
2

>  <HBA>  (295) 
5

>  <NRB>  (295) 
2

>  <NR>  (295) 
4

>  <NAR>  (295) 
1

>  <PSA>  (295) 
73.91

>  <Standard Type>  (295) 
nan

>  <Standard Relation>  (295) 
nan

>  <Standard Units>  (295) 
nan

>  <Standard Value>  (295) 
nan

>  <Assay ChEMBL ID>  (295) 
nan

>  <Assay Description>  (295) 
nan

>  <BAO Label>  (295) 
nan

$$$$

     RDKit          2D

 19 20  0  0  0  0  0  0  0  0999 V2000
    6.0000   -2.5981    0.0000 C   0  0  0  0  0  0  0  0  0  0  0  0
    5.2500   -1.2990    0.0000 C   0  0  0  0  0  0  0  0  0  0  0  0
    3.7500   -1.2990    0.0000 C   0  0  0  0  0  0  0  0  0  0  0  0
    3.0000    0.0000    0.0000 O   0  0  0  0  0  0  0  0  0  0  0  0
    1.5000    0.0000    0.0000 C   0  0  0  0  0  0  0  0  0  0  0  0
    0.7500   -1.2990    0.0000 C   0  0  0  0  0  0  0  0  0  0  0  0
   -0.7500   -1.2990    0.0000 C   0  0  0  0  0  0  0  0  0  0  0  0
   -1.5000    0.0000    0.0000 C   0  0  0  0  0  0  0  0  0  0  0  0
   -0.7500    1.2990    0.0000 C   0  0  0  0  0  0  0  0  0  0  0  0
    0.7500    1.2990    0.0000 C   0  0  0  0  0  0  0  0  0  0  0  0
    1.2135    2.7256    0.0000 O   0  0  0  0  0  0  0  0  0  0  0  0
    0.0000    3.6073    0.0000 C   0  0  0  0  0  0  0  0  0  0  0  0
    1.0037    4.7220    0.0000 C   0  0  0  0  0  0  0  0  0  0  0  0
   -1.0037    4.7220    0.0000 C   0  0  0  0  0  0  0  0  0  0  0  0
   -1.2135    2.7256    0.0000 C   0  0  0  0  0  0  0  0  0  0  0  0
    3.0000   -2.5981    0.0000 C   0  0  0  0  0  0  0  0  0  0  0  0
    1.5000   -2.5981    0.0000 N   0  0  0  0  0  0  0  0  0  0  0  0
    3.7500   -3.8971    0.0000 N   0  0  0  0  0  0  0  0  0  0  0  0
    3.0000   -5.1962    0.0000 O   0  0  0  0  0  0  0  0  0  0  0  0
  1  2  1  0
  3  2  1  6
  3  4  1  0
  4  5  1  0
  5  6  2  0
  6  7  1  0
  7  8  2  0
  8  9  1  0
  9 10  2  0
 10 11  1  0
 11 12  1  0
 12 13  1  0
 12 14  1  0
 12 15  1  0
  3 16  1  0
 16 17  1  0
 16 18  2  0
 18 19  1  0
 10  5  1  0
 15  9  1  0
M  END
>  <Compound_ID>  (296) 
C43541114

>  <Active>  (296) 
0

>  <Smiles>  (296) 
CC[C@@H](Oc1cccc2c1OC(C)(C)C2)/C(N)=N/O

>  <canonical_smi>  (296) 
CC[C@@H](Oc1cccc2c1OC(C)(C)C2)/C(N)=N/O

>  <Set>  (296) 
G2 inactive

>  <Set_type>  (296) 
Train

>  <MW>  (296) 
264.32

>  <HBD>  (296) 
2

>  <HBA>  (296) 
4

>  <NRB>  (296) 
4

>  <NR>  (296) 
2

>  <NAR>  (296) 
1

>  <PSA>  (296) 
77.07

>  <Standard Type>  (296) 
nan

>  <Standard Relation>  (296) 
nan

>  <Standard Units>  (296) 
nan

>  <Standard Value>  (296) 
nan

>  <Assay ChEMBL ID>  (296) 
nan

>  <Assay Description>  (296) 
nan

>  <BAO Label>  (296) 
nan

$$$$

     RDKit          2D

 19 20  0  0  0  0  0  0  0  0999 V2000
    3.7500   -1.2990    0.0000 C   0  0  0  0  0  0  0  0  0  0  0  0
    3.0000    0.0000    0.0000 C   0  0  0  0  0  0  0  0  0  0  0  0
    1.5000    0.0000    0.0000 C   0  0  0  0  0  0  0  0  0  0  0  0
    0.7500   -1.2990    0.0000 C   0  0  0  0  0  0  0  0  0  0  0  0
   -0.7500   -1.2990    0.0000 C   0  0  0  0  0  0  0  0  0  0  0  0
   -1.5000    0.0000    0.0000 C   0  0  0  0  0  0  0  0  0  0  0  0
   -0.7500    1.2990    0.0000 C   0  0  0  0  0  0  0  0  0  0  0  0
    0.7500    1.2990    0.0000 C   0  0  0  0  0  0  0  0  0  0  0  0
    1.5000    2.5981    0.0000 N   0  0  0  0  0  2  0  0  0  0  0  0
    0.7500    3.8971    0.0000 S   0  0  0  0  0  0  0  0  0  0  0  0
   -0.5490    3.1471    0.0000 O   0  0  0  0  0  0  0  0  0  0  0  0
    2.0490    4.6471    0.0000 O   0  0  0  0  0  0  0  0  0  0  0  0
    0.0000    5.1962    0.0000 C   0  0  0  0  0  0  0  0  0  0  0  0
    0.7500    6.4952    0.0000 C   0  0  0  0  0  0  0  0  0  0  0  0
   -0.0000    7.7942    0.0000 C   0  0  0  0  0  0  0  0  0  0  0  0
   -1.5000    7.7942    0.0000 C   0  0  0  0  0  0  0  0  0  0  0  0
   -2.2500    6.4952    0.0000 N   0  0  0  0  0  4  0  0  0  0  0  0
   -1.5000    5.1962    0.0000 C   0  0  0  0  0  0  0  0  0  0  0  0
   -2.2500    3.8971    0.0000 N   0  0  0  0  0  0  0  0  0  0  0  0
  1  2  1  0
  2  3  1  0
  3  4  2  0
  4  5  1  0
  5  6  2  0
  6  7  1  0
  7  8  2  0
  8  9  1  0
  9 10  1  0
 10 11  2  0
 10 12  2  0
 10 13  1  0
 13 14  2  0
 14 15  1  0
 15 16  2  0
 16 17  1  0
 17 18  2  0
 18 19  1  0
  8  3  1  0
 18 13  1  0
M  CHG  2   9  -1  17   1
M  END
>  <Compound_ID>  (297) 
C50648847

>  <Active>  (297) 
0

>  <Smiles>  (297) 
CCc1ccccc1[N-]S(=O)(=O)c1ccc[nH+]c1N

>  <canonical_smi>  (297) 
CCc1ccccc1[N-]S(=O)(=O)c1ccc[nH+]c1N

>  <Set>  (297) 
G2 inactive

>  <Set_type>  (297) 
Train

>  <MW>  (297) 
277.35

>  <HBD>  (297) 
1

>  <HBA>  (297) 
3

>  <NRB>  (297) 
4

>  <NR>  (297) 
2

>  <NAR>  (297) 
2

>  <PSA>  (297) 
88.4

>  <Standard Type>  (297) 
nan

>  <Standard Relation>  (297) 
nan

>  <Standard Units>  (297) 
nan

>  <Standard Value>  (297) 
nan

>  <Assay ChEMBL ID>  (297) 
nan

>  <Assay Description>  (297) 
nan

>  <BAO Label>  (297) 
nan

$$$$

     RDKit          2D

 25 28  0  0  0  0  0  0  0  0999 V2000
    4.5813   -9.9130    0.0000 C   0  0  0  0  0  0  0  0  0  0  0  0
    3.2110   -9.3029    0.0000 C   0  0  0  0  0  0  0  0  0  0  0  0
    1.9975  -10.1845    0.0000 C   0  0  0  0  0  0  0  0  0  0  0  0
    0.6272   -9.5744    0.0000 C   0  0  0  0  0  0  0  0  0  0  0  0
    0.4704   -8.0826    0.0000 C   0  0  0  0  0  0  0  0  0  0  0  0
   -0.8999   -7.4725    0.0000 O   0  0  0  0  0  0  0  0  0  0  0  0
    1.6839   -7.2010    0.0000 C   0  0  0  0  0  0  0  0  0  0  0  0
    1.5271   -5.7092    0.0000 C   0  0  0  0  0  0  0  0  0  0  0  0
    2.7406   -4.8275    0.0000 N   0  0  0  0  0  0  0  0  0  0  0  0
    2.5838   -3.3357    0.0000 C   0  0  0  0  0  0  0  0  0  0  0  0
    3.7974   -2.4540    0.0000 O   0  0  0  0  0  0  0  0  0  0  0  0
    1.2135   -2.7256    0.0000 C   0  0  0  0  0  0  0  0  0  0  0  0
   -0.0000   -3.6073    0.0000 C   0  0  0  0  0  0  0  0  0  0  0  0
   -1.2135   -2.7256    0.0000 S   0  0  0  0  0  0  0  0  0  0  0  0
   -0.7500   -1.2990    0.0000 C   0  0  0  0  0  0  0  0  0  0  0  0
    0.7500   -1.2990    0.0000 C   0  0  0  0  0  0  0  0  0  0  0  0
    1.5000    0.0000    0.0000 C   0  0  0  0  0  0  0  0  0  0  0  0
    0.7500    1.2990    0.0000 C   0  0  0  0  0  0  0  0  0  0  0  0
   -0.7500    1.2990    0.0000 N   0  0  0  0  0  4  0  0  0  0  0  0
   -1.5000    2.5981    0.0000 C   0  0  0  0  0  0  0  0  0  0  0  0
   -0.7500    3.8971    0.0000 C   0  0  0  0  0  0  0  0  0  0  0  0
   -3.0000    2.5981    0.0000 C   0  0  0  0  0  0  0  0  0  0  0  0
   -1.5000    0.0000    0.0000 C   0  0  0  0  0  0  0  0  0  0  0  0
    0.1568   -5.0991    0.0000 N   0  0  0  0  0  0  0  0  0  0  0  0
    3.0542   -7.8111    0.0000 C   0  0  0  0  0  0  0  0  0  0  0  0
  1  2  1  0
  2  3  2  0
  3  4  1  0
  4  5  2  0
  5  6  1  0
  5  7  1  0
  8  7  1  6
  8  9  1  0
  9 10  2  0
 10 11  1  0
 10 12  1  0
 12 13  2  0
 13 14  1  0
 14 15  1  0
 15 16  2  0
 16 17  1  0
 17 18  1  0
 18 19  1  0
 19 20  1  0
 20 21  1  0
 20 22  1  0
 19 23  1  0
 13 24  1  0
  7 25  2  0
 25  2  1  0
 24  8  1  0
 16 12  1  0
 23 15  1  0
M  CHG  1  19   1
M  END
>  <Compound_ID>  (298) 
C04553996

>  <Active>  (298) 
0

>  <Smiles>  (298) 
Cc1ccc(O)c([C@H]2N=C(O)c3c(sc4c3CC[NH+](C(C)C)C4)N2)c1

>  <canonical_smi>  (298) 
Cc1ccc(O)c([C@H]2N=C(O)c3c(sc4c3CC[NH+](C(C)C)C4)N2)c1

>  <Set>  (298) 
G2 inactive

>  <Set_type>  (298) 
Train

>  <MW>  (298) 
358.49

>  <HBD>  (298) 
4

>  <HBA>  (298) 
3

>  <NRB>  (298) 
2

>  <NR>  (298) 
4

>  <NAR>  (298) 
2

>  <PSA>  (298) 
69.29

>  <Standard Type>  (298) 
nan

>  <Standard Relation>  (298) 
nan

>  <Standard Units>  (298) 
nan

>  <Standard Value>  (298) 
nan

>  <Assay ChEMBL ID>  (298) 
nan

>  <Assay Description>  (298) 
nan

>  <BAO Label>  (298) 
nan

$$$$

     RDKit          2D

 24 27  0  0  0  0  0  0  0  0999 V2000
   -4.4918   -5.3529    0.0000 C   0  0  0  0  0  0  0  0  0  0  0  0
   -3.0000   -5.1962    0.0000 C   0  0  0  0  0  0  0  0  0  0  0  0
   -3.7500   -3.8971    0.0000 C   0  0  0  0  0  0  0  0  0  0  0  0
   -3.0000   -2.5981    0.0000 C   0  0  0  0  0  0  0  0  0  0  0  0
   -1.5000   -2.5981    0.0000 C   0  0  0  0  0  0  0  0  0  0  0  0
   -0.7500   -3.8971    0.0000 C   0  0  0  0  0  0  0  0  0  0  0  0
    0.7500   -3.8971    0.0000 C   0  0  0  0  0  0  0  0  0  0  0  0
    1.5000   -2.5981    0.0000 C   0  0  0  0  0  0  0  0  0  0  0  0
    0.7500   -1.2990    0.0000 C   0  0  0  0  0  0  0  0  0  0  0  0
    1.5000    0.0000    0.0000 C   0  0  0  0  0  0  0  0  0  0  0  0
    0.7500    1.2990    0.0000 C   0  0  0  0  0  0  0  0  0  0  0  0
    1.5000    2.5981    0.0000 O   0  0  0  0  0  0  0  0  0  0  0  0
   -0.7500    1.2990    0.0000 C   0  0  0  0  0  0  0  0  0  0  0  0
   -1.5000    0.0000    0.0000 C   0  0  0  0  0  0  0  0  0  0  0  0
   -0.7500   -1.2990    0.0000 C   0  0  0  0  0  0  0  0  0  0  0  0
   -2.2500   -1.2990    0.0000 C   0  0  0  0  0  0  0  0  0  0  0  0
   -1.5000   -5.1962    0.0000 C   0  0  0  0  0  0  0  0  0  0  0  0
   -1.0365   -6.6227    0.0000 C   0  0  0  0  0  0  0  0  0  0  0  0
   -2.2500   -7.5044    0.0000 C   0  0  0  0  0  0  0  0  0  0  0  0
   -3.4635   -6.6227    0.0000 C   0  0  0  0  0  0  0  0  0  0  0  0
   -4.8901   -7.0863    0.0000 N   0  0  0  0  0  4  0  0  0  0  0  0
   -5.2020   -8.5535    0.0000 C   0  0  0  0  0  0  0  0  0  0  0  0
   -6.6286   -9.0170    0.0000 C   0  0  0  0  0  0  0  0  0  0  0  0
   -6.9404  -10.4842    0.0000 O   0  0  0  0  0  0  0  0  0  0  0  0
  2  1  1  1
  2  3  1  0
  3  4  1  0
  5  4  1  6
  5  6  1  0
  6  7  1  1
  7  8  1  0
  9  8  1  1
  9 10  1  0
 10 11  1  0
 11 12  1  1
 11 13  1  0
 13 14  1  0
 14 15  1  0
 15 16  1  1
  6 17  1  0
 17 18  1  1
 18 19  1  0
 19 20  1  0
 20 21  1  6
 21 22  1  0
 22 23  1  0
 23 24  1  0
 17  2  1  0
 20  2  1  0
 15  5  1  0
 15  9  1  0
M  CHG  1  21   1
M  END
>  <Compound_ID>  (299) 
C43737406

>  <Active>  (299) 
0

>  <Smiles>  (299) 
C[C@@]12CC[C@H]3[C@@H](CC[C@@H]4C[C@H](O)CC[C@]43C)[C@H]1CC[C@@H]2[NH2+]CCO

>  <canonical_smi>  (299) 
C[C@@]12CC[C@@H](O)C[C@H]1CC[C@@H]1[C@@H]2CC[C@@]2(C)[C@@H]([NH2+]CCO)CC[C@H]12

>  <Set>  (299) 
G2 inactive

>  <Set_type>  (299) 
Train

>  <MW>  (299) 
336.54

>  <HBD>  (299) 
3

>  <HBA>  (299) 
2

>  <NRB>  (299) 
3

>  <NR>  (299) 
4

>  <NAR>  (299) 
0

>  <PSA>  (299) 
57.07

>  <Standard Type>  (299) 
nan

>  <Standard Relation>  (299) 
nan

>  <Standard Units>  (299) 
nan

>  <Standard Value>  (299) 
nan

>  <Assay ChEMBL ID>  (299) 
nan

>  <Assay Description>  (299) 
nan

>  <BAO Label>  (299) 
nan

$$$$

     RDKit          2D

 14 15  0  0  0  0  0  0  0  0999 V2000
   -0.1459    3.7548    0.0000 N   0  0  0  0  0  4  0  0  0  0  0  0
    0.8578    2.6401    0.0000 C   0  0  0  0  0  0  0  0  0  0  0  0
    0.3943    1.2135    0.0000 C   0  0  0  0  0  0  0  0  0  0  0  0
    1.2760    0.0000    0.0000 C   0  0  0  0  0  0  0  0  0  0  0  0
    0.3943   -1.2135    0.0000 C   0  0  0  0  0  0  0  0  0  0  0  0
   -1.0323   -0.7500    0.0000 N   0  0  0  0  0  0  0  0  0  0  0  0
   -1.0323    0.7500    0.0000 N   0  0  0  0  0  0  0  0  0  0  0  0
    2.3250    2.9520    0.0000 C   0  0  0  0  0  0  0  0  0  0  0  0
    2.9352    4.3223    0.0000 C   0  0  0  0  0  0  0  0  0  0  0  0
    4.4269    4.1655    0.0000 C   0  0  0  0  0  0  0  0  0  0  0  0
    5.4306    5.2802    0.0000 Br  0  0  0  0  0  0  0  0  0  0  0  0
    4.7388    2.6983    0.0000 S   0  0  0  0  0  0  0  0  0  0  0  0
    3.4398    1.9483    0.0000 C   0  0  0  0  0  0  0  0  0  0  0  0
    3.2830    0.4565    0.0000 Br  0  0  0  0  0  0  0  0  0  0  0  0
  2  1  1  6
  2  3  1  0
  3  4  1  0
  4  5  2  0
  5  6  1  0
  6  7  1  0
  2  8  1  0
  8  9  1  0
  9 10  2  0
 10 11  1  0
 10 12  1  0
 12 13  1  0
 13 14  1  0
  7  3  2  0
 13  8  2  0
M  CHG  1   1   1
M  END
>  <Compound_ID>  (300) 
C62776069

>  <Active>  (300) 
0

>  <Smiles>  (300) 
[NH3+][C@@H](c1cc[nH]n1)c1cc(Br)sc1Br

>  <canonical_smi>  (300) 
[NH3+][C@@H](c1cc[nH]n1)c1cc(Br)sc1Br

>  <Set>  (300) 
G2 inactive

>  <Set_type>  (300) 
Train

>  <MW>  (300) 
338.05

>  <HBD>  (300) 
2

>  <HBA>  (300) 
1

>  <NRB>  (300) 
2

>  <NR>  (300) 
2

>  <NAR>  (300) 
2

>  <PSA>  (300) 
56.32

>  <Standard Type>  (300) 
nan

>  <Standard Relation>  (300) 
nan

>  <Standard Units>  (300) 
nan

>  <Standard Value>  (300) 
nan

>  <Assay ChEMBL ID>  (300) 
nan

>  <Assay Description>  (300) 
nan

>  <BAO Label>  (300) 
nan

$$$$

     RDKit          2D

 17 17  0  0  0  0  0  0  0  0999 V2000
    9.0000   -2.5981    0.0000 C   0  0  0  0  0  0  0  0  0  0  0  0
    7.5000   -2.5981    0.0000 C   0  0  0  0  0  0  0  0  0  0  0  0
    7.5000   -4.0981    0.0000 N   0  0  0  0  0  4  0  0  0  0  0  0
    6.0000   -2.5981    0.0000 C   0  0  0  0  0  0  0  0  0  0  0  0
    5.2500   -1.2990    0.0000 C   0  0  0  0  0  0  0  0  0  0  0  0
    3.7500   -1.2990    0.0000 C   0  0  0  0  0  0  0  0  0  0  0  0
    3.0000    0.0000    0.0000 S   0  0  0  0  0  0  0  0  0  0  0  0
    1.5000    0.0000    0.0000 C   0  0  0  0  0  0  0  0  0  0  0  0
    0.7500   -1.2990    0.0000 C   0  0  0  0  0  0  0  0  0  0  0  0
   -0.7500   -1.2990    0.0000 C   0  0  0  0  0  0  0  0  0  0  0  0
   -1.5000    0.0000    0.0000 C   0  0  0  0  0  0  0  0  0  0  0  0
   -3.0000    0.0000    0.0000 Br  0  0  0  0  0  0  0  0  0  0  0  0
   -0.7500    1.2990    0.0000 C   0  0  0  0  0  0  0  0  0  0  0  0
    0.7500    1.2990    0.0000 C   0  0  0  0  0  0  0  0  0  0  0  0
    7.5000   -1.0981    0.0000 C   0  0  0  0  0  0  0  0  0  0  0  0
    8.7990   -0.3481    0.0000 N   0  0  0  0  0  0  0  0  0  0  0  0
    6.2010   -0.3481    0.0000 O   0  0  0  0  0  0  0  0  0  0  0  0
  2  1  1  6
  2  3  1  0
  2  4  1  0
  4  5  1  0
  5  6  1  0
  6  7  1  0
  7  8  1  0
  8  9  2  0
  9 10  1  0
 10 11  2  0
 11 12  1  0
 11 13  1  0
 13 14  2  0
  2 15  1  0
 15 16  1  0
 15 17  2  0
 14  8  1  0
M  CHG  1   3   1
M  END
>  <Compound_ID>  (301) 
C45551506

>  <Active>  (301) 
0

>  <Smiles>  (301) 
C[C@]([NH3+])(CCCSc1ccc(Br)cc1)C(N)=O

>  <canonical_smi>  (301) 
C[C@]([NH3+])(CCCSc1ccc(Br)cc1)C(N)=O

>  <Set>  (301) 
G2 inactive

>  <Set_type>  (301) 
Train

>  <MW>  (301) 
318.26

>  <HBD>  (301) 
2

>  <HBA>  (301) 
2

>  <NRB>  (301) 
6

>  <NR>  (301) 
1

>  <NAR>  (301) 
1

>  <PSA>  (301) 
70.73

>  <Standard Type>  (301) 
nan

>  <Standard Relation>  (301) 
nan

>  <Standard Units>  (301) 
nan

>  <Standard Value>  (301) 
nan

>  <Assay ChEMBL ID>  (301) 
nan

>  <Assay Description>  (301) 
nan

>  <BAO Label>  (301) 
nan

$$$$

     RDKit          2D

 18 19  0  0  0  0  0  0  0  0999 V2000
    3.7500   -1.2990    0.0000 N   0  0  0  0  0  0  0  0  0  0  0  0
    3.0000    0.0000    0.0000 C   0  0  0  0  0  0  0  0  0  0  0  0
    3.7500    1.2990    0.0000 S   0  0  0  0  0  0  0  0  0  0  0  0
    1.5000    0.0000    0.0000 C   0  0  0  0  0  0  0  0  0  0  0  0
    0.7500   -1.2990    0.0000 C   0  0  0  0  0  0  0  0  0  0  0  0
   -0.7500   -1.2990    0.0000 C   0  0  0  0  0  0  0  0  0  0  0  0
   -1.5000   -2.5981    0.0000 N   0  0  0  0  0  0  0  0  0  0  0  0
   -3.0000   -2.5981    0.0000 C   0  0  0  0  0  0  0  0  0  0  0  0
   -3.7500   -1.2990    0.0000 C   0  0  0  0  0  0  0  0  0  0  0  0
   -5.2500   -1.2990    0.0000 C   0  0  0  0  0  0  0  0  0  0  0  0
   -6.0000   -2.5981    0.0000 C   0  0  0  0  0  0  0  0  0  0  0  0
   -7.5000   -2.5981    0.0000 Br  0  0  0  0  0  0  0  0  0  0  0  0
   -5.2500   -3.8971    0.0000 C   0  0  0  0  0  0  0  0  0  0  0  0
   -3.7500   -3.8971    0.0000 C   0  0  0  0  0  0  0  0  0  0  0  0
   -3.0000   -5.1962    0.0000 F   0  0  0  0  0  0  0  0  0  0  0  0
   -1.5000    0.0000    0.0000 C   0  0  0  0  0  0  0  0  0  0  0  0
   -0.7500    1.2990    0.0000 C   0  0  0  0  0  0  0  0  0  0  0  0
    0.7500    1.2990    0.0000 N   0  0  0  0  0  4  0  0  0  0  0  0
  1  2  1  0
  2  3  2  0
  2  4  1  0
  4  5  2  0
  5  6  1  0
  6  7  1  0
  7  8  1  0
  8  9  2  0
  9 10  1  0
 10 11  2  0
 11 12  1  0
 11 13  1  0
 13 14  2  0
 14 15  1  0
  6 16  2  0
 16 17  1  0
 17 18  2  0
 18  4  1  0
 14  8  1  0
M  CHG  1  18   1
M  END
>  <Compound_ID>  (302) 
C61811990

>  <Active>  (302) 
0

>  <Smiles>  (302) 
NC(=S)c1cc(Nc2ccc(Br)cc2F)cc[nH+]1

>  <canonical_smi>  (302) 
NC(=S)c1cc(Nc2ccc(Br)cc2F)cc[nH+]1

>  <Set>  (302) 
G2 inactive

>  <Set_type>  (302) 
Train

>  <MW>  (302) 
327.2

>  <HBD>  (302) 
2

>  <HBA>  (302) 
3

>  <NRB>  (302) 
3

>  <NR>  (302) 
2

>  <NAR>  (302) 
2

>  <PSA>  (302) 
52.19

>  <Standard Type>  (302) 
nan

>  <Standard Relation>  (302) 
nan

>  <Standard Units>  (302) 
nan

>  <Standard Value>  (302) 
nan

>  <Assay ChEMBL ID>  (302) 
nan

>  <Assay Description>  (302) 
nan

>  <BAO Label>  (302) 
nan

$$$$

     RDKit          2D

 18 19  0  0  0  0  0  0  0  0999 V2000
    5.2500   -1.2990    0.0000 C   0  0  0  0  0  0  0  0  0  0  0  0
    3.7500   -1.2990    0.0000 C   0  0  0  0  0  0  0  0  0  0  0  0
    3.0000    0.0000    0.0000 C   0  0  0  0  0  0  0  0  0  0  0  0
    1.5000    0.0000    0.0000 C   0  0  0  0  0  0  0  0  0  0  0  0
    0.7500   -1.2990    0.0000 C   0  0  0  0  0  0  0  0  0  0  0  0
   -0.7500   -1.2990    0.0000 C   0  0  0  0  0  0  0  0  0  0  0  0
   -1.5000   -2.5981    0.0000 O   0  0  0  0  0  0  0  0  0  0  0  0
   -1.5000    0.0000    0.0000 O   0  0  0  0  0  0  0  0  0  0  0  0
   -0.7500    1.2990    0.0000 C   0  0  0  0  0  0  0  0  0  0  0  0
   -1.5000    2.5981    0.0000 C   0  0  0  0  0  0  0  0  0  0  0  0
   -3.0000    2.5981    0.0000 C   0  0  0  0  0  0  0  0  0  0  0  0
   -3.7500    3.8971    0.0000 O   0  0  0  0  0  0  0  0  0  0  0  0
   -0.7500    3.8971    0.0000 C   0  0  0  0  0  0  0  0  0  0  0  0
   -1.5000    5.1962    0.0000 O   0  0  0  0  0  0  0  0  0  0  0  0
    0.7500    3.8971    0.0000 C   0  0  0  0  0  0  0  0  0  0  0  0
    1.5000    2.5981    0.0000 C   0  0  0  0  0  0  0  0  0  0  0  0
    3.0000    2.5981    0.0000 O   0  0  0  0  0  0  0  0  0  0  0  0
    0.7500    1.2990    0.0000 C   0  0  0  0  0  0  0  0  0  0  0  0
  1  2  1  0
  2  3  1  0
  3  4  1  0
  4  5  1  0
  5  6  2  0
  6  7  1  0
  6  8  1  0
  8  9  1  0
  9 10  2  0
 10 11  1  0
 11 12  2  0
 10 13  1  0
 13 14  1  0
 13 15  2  0
 15 16  1  0
 16 17  2  0
 16 18  1  0
 18  4  2  0
 18  9  1  0
M  END
>  <Compound_ID>  (303) 
C05807487

>  <Active>  (303) 
0

>  <Smiles>  (303) 
CCCc1cc(O)oc2c(C=O)c(O)cc(=O)c1-2

>  <canonical_smi>  (303) 
CCCc1cc(O)oc2c(C=O)c(O)cc(=O)c1-2

>  <Set>  (303) 
G2 inactive

>  <Set_type>  (303) 
Train

>  <MW>  (303) 
248.23

>  <HBD>  (303) 
2

>  <HBA>  (303) 
5

>  <NRB>  (303) 
3

>  <NR>  (303) 
2

>  <NAR>  (303) 
2

>  <PSA>  (303) 
87.74

>  <Standard Type>  (303) 
nan

>  <Standard Relation>  (303) 
nan

>  <Standard Units>  (303) 
nan

>  <Standard Value>  (303) 
nan

>  <Assay ChEMBL ID>  (303) 
nan

>  <Assay Description>  (303) 
nan

>  <BAO Label>  (303) 
nan

$$$$

     RDKit          2D

 18 19  0  0  0  0  0  0  0  0999 V2000
    0.7500   -3.8971    0.0000 C   0  0  0  0  0  0  0  0  0  0  0  0
    1.5000   -2.5981    0.0000 C   0  0  0  0  0  0  0  0  0  0  0  0
    3.0000   -2.5981    0.0000 S   0  0  0  0  0  0  0  0  0  0  0  0
    3.7500   -3.8971    0.0000 C   0  0  0  0  0  0  0  0  0  0  0  0
    5.2418   -4.0539    0.0000 C   0  0  0  0  0  0  0  0  0  0  0  0
    5.5537   -5.5211    0.0000 C   0  0  0  0  0  0  0  0  0  0  0  0
    4.2546   -6.2711    0.0000 C   0  0  0  0  0  0  0  0  0  0  0  0
    3.1399   -5.2674    0.0000 C   0  0  0  0  0  0  0  0  0  0  0  0
    0.7500   -1.2990    0.0000 C   0  0  0  0  0  0  0  0  0  0  0  0
    1.5000    0.0000    0.0000 N   0  0  0  0  0  0  0  0  0  0  0  0
    0.7500    1.2990    0.0000 C   0  0  0  0  0  0  0  0  0  0  0  0
    1.5000    2.5981    0.0000 N   0  0  0  0  0  0  0  0  0  0  0  0
   -0.7500    1.2990    0.0000 N   0  0  0  0  0  0  0  0  0  0  0  0
   -1.5000    0.0000    0.0000 C   0  0  0  0  0  0  0  0  0  0  0  0
   -3.0000    0.0000    0.0000 N   0  0  0  0  0  0  0  0  0  0  0  0
   -3.7500    1.2990    0.0000 C   0  0  0  0  0  0  0  0  0  0  0  0
   -3.7500   -1.2990    0.0000 C   0  0  0  0  0  0  0  0  0  0  0  0
   -0.7500   -1.2990    0.0000 N   0  0  0  0  0  0  0  0  0  0  0  0
  2  1  1  1
  2  3  1  0
  3  4  1  0
  4  5  1  0
  5  6  1  0
  6  7  1  0
  7  8  1  0
  2  9  1  0
  9 10  2  0
 10 11  1  0
 11 12  1  0
 11 13  2  0
 13 14  1  0
 14 15  1  0
 15 16  1  0
 15 17  1  0
 14 18  2  0
  8  4  1  0
 18  9  1  0
M  END
>  <Compound_ID>  (304) 
C24959476

>  <Active>  (304) 
0

>  <Smiles>  (304) 
C[C@H](SC1CCCC1)c1nc(N)nc(N(C)C)n1

>  <canonical_smi>  (304) 
C[C@H](SC1CCCC1)c1nc(N)nc(N(C)C)n1

>  <Set>  (304) 
G2 inactive

>  <Set_type>  (304) 
Train

>  <MW>  (304) 
267.4

>  <HBD>  (304) 
1

>  <HBA>  (304) 
6

>  <NRB>  (304) 
4

>  <NR>  (304) 
2

>  <NAR>  (304) 
1

>  <PSA>  (304) 
67.93

>  <Standard Type>  (304) 
nan

>  <Standard Relation>  (304) 
nan

>  <Standard Units>  (304) 
nan

>  <Standard Value>  (304) 
nan

>  <Assay ChEMBL ID>  (304) 
nan

>  <Assay Description>  (304) 
nan

>  <BAO Label>  (304) 
nan

$$$$

     RDKit          2D

 18 19  0  0  0  0  0  0  0  0999 V2000
   -3.5736    1.2902    0.0000 N   0  0  0  0  0  0  0  0  0  0  0  0
   -2.1470    1.7537    0.0000 C   0  0  0  0  0  0  0  0  0  0  0  0
   -1.8351    3.2209    0.0000 C   0  0  0  0  0  0  0  0  0  0  0  0
   -0.4086    3.6844    0.0000 C   0  0  0  0  0  0  0  0  0  0  0  0
    0.7062    2.6807    0.0000 C   0  0  0  0  0  0  0  0  0  0  0  0
    2.1328    3.1443    0.0000 O   0  0  0  0  0  0  0  0  0  0  0  0
    2.4446    4.6115    0.0000 C   0  0  0  0  0  0  0  0  0  0  0  0
    3.8712    5.0750    0.0000 C   0  0  0  0  0  0  0  0  0  0  0  0
    3.4077    6.5016    0.0000 F   0  0  0  0  0  0  0  0  0  0  0  0
    4.3347    3.6484    0.0000 F   0  0  0  0  0  0  0  0  0  0  0  0
    5.2978    5.5385    0.0000 C   0  0  0  0  0  0  0  0  0  0  0  0
    6.4125    4.5348    0.0000 F   0  0  0  0  0  0  0  0  0  0  0  0
    5.6097    7.0058    0.0000 F   0  0  0  0  0  0  0  0  0  0  0  0
    0.3943    1.2135    0.0000 C   0  0  0  0  0  0  0  0  0  0  0  0
    1.2760    0.0000    0.0000 N   0  0  0  0  0  0  0  0  0  0  0  0
    0.3943   -1.2135    0.0000 O   0  0  0  0  0  0  0  0  0  0  0  0
   -1.0323   -0.7500    0.0000 N   0  0  0  0  0  0  0  0  0  0  0  0
   -1.0323    0.7500    0.0000 C   0  0  0  0  0  0  0  0  0  0  0  0
  1  2  1  0
  2  3  2  0
  3  4  1  0
  4  5  2  0
  5  6  1  0
  6  7  1  0
  7  8  1  0
  8  9  1  0
  8 10  1  0
  8 11  1  0
 11 12  1  0
 11 13  1  0
  5 14  1  0
 14 15  2  0
 15 16  1  0
 16 17  1  0
 17 18  2  0
 18  2  1  0
 18 14  1  0
M  END
>  <Compound_ID>  (305) 
C35675975

>  <Active>  (305) 
0

>  <Smiles>  (305) 
Nc1ccc(OCC(F)(F)C(F)F)c2nonc12

>  <canonical_smi>  (305) 
Nc1ccc(OCC(F)(F)C(F)F)c2nonc12

>  <Set>  (305) 
G2 inactive

>  <Set_type>  (305) 
Train

>  <MW>  (305) 
265.17

>  <HBD>  (305) 
1

>  <HBA>  (305) 
5

>  <NRB>  (305) 
4

>  <NR>  (305) 
2

>  <NAR>  (305) 
2

>  <PSA>  (305) 
74.17

>  <Standard Type>  (305) 
nan

>  <Standard Relation>  (305) 
nan

>  <Standard Units>  (305) 
nan

>  <Standard Value>  (305) 
nan

>  <Assay ChEMBL ID>  (305) 
nan

>  <Assay Description>  (305) 
nan

>  <BAO Label>  (305) 
nan

$$$$

     RDKit          2D

 20 23  0  0  0  0  0  0  0  0999 V2000
    5.2500   -3.8971    0.0000 C   0  0  0  0  0  0  0  0  0  0  0  0
    3.7500   -3.8971    0.0000 C   0  0  0  0  0  0  0  0  0  0  0  0
    3.0000   -2.5981    0.0000 N   0  0  0  0  0  4  0  0  0  0  0  0
    1.5000   -2.5981    0.0000 C   0  0  0  0  0  0  0  0  0  0  0  0
    0.7500   -3.8971    0.0000 C   0  0  0  0  0  0  0  0  0  0  0  0
    0.7500   -1.2990    0.0000 C   0  0  0  0  0  0  0  0  0  0  0  0
    1.5000    0.0000    0.0000 C   0  0  0  0  0  0  0  0  0  0  0  0
    0.7500    1.2990    0.0000 C   0  0  0  0  0  0  0  0  0  0  0  0
   -0.7500    1.2990    0.0000 C   0  0  0  0  0  0  0  0  0  0  0  0
   -1.5000    0.0000    0.0000 C   0  0  0  0  0  0  0  0  0  0  0  0
    1.7010   -0.7500    0.0000 C   0  0  0  0  0  0  0  0  0  0  0  0
    3.0000   -0.0000    0.0000 C   0  0  0  0  0  0  0  0  0  0  0  0
    2.2500    1.2990    0.0000 C   0  0  0  0  0  0  0  0  0  0  0  0
    2.2500   -1.2990    0.0000 C   0  0  0  0  0  0  0  0  0  0  0  0
   -0.7500   -1.2990    0.0000 C   0  0  0  0  0  0  0  0  0  0  0  0
    3.0000   -5.1962    0.0000 C   0  0  0  0  0  0  0  0  0  0  0  0
    3.6101   -6.5665    0.0000 N   0  0  0  0  0  0  0  0  0  0  0  0
    2.4954   -7.5702    0.0000 N   0  0  0  0  0  0  0  0  0  0  0  0
    1.1963   -6.8202    0.0000 N   0  0  0  0  0  2  0  0  0  0  0  0
    1.5082   -5.3529    0.0000 N   0  0  0  0  0  0  0  0  0  0  0  0
  2  1  1  1
  2  3  1  0
  3  4  1  0
  4  5  1  6
  4  6  1  0
  6  7  1  0
  7  8  1  0
  8  9  1  0
  9 10  1  0
 10 11  1  0
 11 12  1  0
 12 13  1  0
 12 14  1  0
 10 15  1  0
  2 16  1  0
 16 17  1  0
 17 18  2  0
 18 19  1  0
 19 20  1  0
 14  6  1  0
 20 16  2  0
 15  6  1  0
 13  8  1  0
M  CHG  2   3   1  19  -1
M  END
>  <Compound_ID>  (306) 
C44923199

>  <Active>  (306) 
0

>  <Smiles>  (306) 
C[C@H]([NH2+][C@H](C)C12CC3CC(CC(C3)C1)C2)c1nn[n-]n1

>  <canonical_smi>  (306) 
C[C@H]([NH2+][C@H](C)C12CC3CC(CC(C3)C1)C2)c1nn[n-]n1

>  <Set>  (306) 
G2 inactive

>  <Set_type>  (306) 
Train

>  <MW>  (306) 
275.4

>  <HBD>  (306) 
1

>  <HBA>  (306) 
4

>  <NRB>  (306) 
4

>  <NR>  (306) 
5

>  <NAR>  (306) 
1

>  <PSA>  (306) 
69.38

>  <Standard Type>  (306) 
nan

>  <Standard Relation>  (306) 
nan

>  <Standard Units>  (306) 
nan

>  <Standard Value>  (306) 
nan

>  <Assay ChEMBL ID>  (306) 
nan

>  <Assay Description>  (306) 
nan

>  <BAO Label>  (306) 
nan

$$$$

     RDKit          2D

 26 30  0  0  0  0  0  0  0  0999 V2000
    2.4446    4.6115    0.0000 O   0  0  0  0  0  0  0  0  0  0  0  0
    1.3299    5.6152    0.0000 C   0  0  0  0  0  0  0  0  0  0  0  0
   -0.0967    5.1517    0.0000 N   0  0  0  0  0  0  0  0  0  0  0  0
   -0.4086    3.6844    0.0000 C   0  0  0  0  0  0  0  0  0  0  0  0
    0.7062    2.6807    0.0000 C   0  0  0  0  0  0  0  0  0  0  0  0
    0.3943    1.2135    0.0000 C   0  0  0  0  0  0  0  0  0  0  0  0
    1.2760    0.0000    0.0000 C   0  0  0  0  0  0  0  0  0  0  0  0
    0.3943   -1.2135    0.0000 C   0  0  0  0  0  0  0  0  0  0  0  0
   -1.0323   -0.7500    0.0000 N   0  0  0  0  0  0  0  0  0  0  0  0
   -1.0323    0.7500    0.0000 C   0  0  0  0  0  0  0  0  0  0  0  0
   -2.1470    1.7537    0.0000 C   0  0  0  0  0  0  0  0  0  0  0  0
   -1.8351    3.2209    0.0000 C   0  0  0  0  0  0  0  0  0  0  0  0
    1.6418    7.0824    0.0000 C   0  0  0  0  0  0  0  0  0  0  0  0
    0.5271    8.0861    0.0000 C   0  0  0  0  0  0  0  0  0  0  0  0
    0.8389    9.5533    0.0000 C   0  0  0  0  0  0  0  0  0  0  0  0
    2.2655   10.0169    0.0000 C   0  0  0  0  0  0  0  0  0  0  0  0
    3.3802    9.0132    0.0000 C   0  0  0  0  0  0  0  0  0  0  0  0
    3.0684    7.5459    0.0000 C   0  0  0  0  0  0  0  0  0  0  0  0
    4.6793    9.7632    0.0000 S   0  0  0  0  0  0  0  0  0  0  0  0
    4.3674   11.2304    0.0000 C   0  0  0  0  0  0  0  0  0  0  0  0
    5.3711   12.3451    0.0000 N   0  0  0  0  0  0  0  0  0  0  0  0
    5.0592   13.8123    0.0000 C   0  0  0  0  0  0  0  0  0  0  0  0
    6.3583   14.5623    0.0000 C   0  0  0  0  0  0  0  0  0  0  0  0
    7.4730   13.5586    0.0000 C   0  0  0  0  0  0  0  0  0  0  0  0
    6.8629   12.1883    0.0000 C   0  0  0  0  0  0  0  0  0  0  0  0
    2.8756   11.3872    0.0000 N   0  0  0  0  0  0  0  0  0  0  0  0
  1  2  2  0
  2  3  1  0
  3  4  1  0
  4  5  2  0
  5  6  1  0
  6  7  2  0
  7  8  1  0
  8  9  2  0
  9 10  1  0
 10 11  1  1
 11 12  2  0
  2 13  1  0
 13 14  2  0
 14 15  1  0
 15 16  2  0
 16 17  1  0
 17 18  2  0
 17 19  1  0
 19 20  1  0
 20 21  1  1
 21 22  1  0
 22 23  2  0
 23 24  1  0
 24 25  2  0
 20 26  1  0
 12  4  1  0
 18 13  1  0
 25 21  1  0
 10  6  1  0
 26 16  1  0
M  END
>  <Compound_ID>  (307) 
C39955381

>  <Active>  (307) 
0

>  <Smiles>  (307) 
O=C(NC1=CC2=CC=N[C@H]2C=C1)c1ccc2c(c1)S[C@H](n1cccc1)N2

>  <canonical_smi>  (307) 
O=C(NC1=CC2=CC=N[C@H]2C=C1)c1ccc2c(c1)S[C@H](n1cccc1)N2

>  <Set>  (307) 
G2 inactive

>  <Set_type>  (307) 
Train

>  <MW>  (307) 
360.44

>  <HBD>  (307) 
2

>  <HBA>  (307) 
3

>  <NRB>  (307) 
3

>  <NR>  (307) 
5

>  <NAR>  (307) 
2

>  <PSA>  (307) 
58.42

>  <Standard Type>  (307) 
nan

>  <Standard Relation>  (307) 
nan

>  <Standard Units>  (307) 
nan

>  <Standard Value>  (307) 
nan

>  <Assay ChEMBL ID>  (307) 
nan

>  <Assay Description>  (307) 
nan

>  <BAO Label>  (307) 
nan

$$$$

     RDKit          2D

 24 27  0  0  0  0  0  0  0  0999 V2000
    2.1766   -4.6157    0.0000 C   0  0  0  0  0  0  0  0  0  0  0  0
    2.6401   -3.1891    0.0000 C   0  0  0  0  0  0  0  0  0  0  0  0
    3.1036   -1.7626    0.0000 C   0  0  0  0  0  0  0  0  0  0  0  0
    4.0667   -3.6527    0.0000 C   0  0  0  0  0  0  0  0  0  0  0  0
    1.2135   -2.7256    0.0000 C   0  0  0  0  0  0  0  0  0  0  0  0
   -0.0000   -3.6073    0.0000 N   0  0  0  0  0  0  0  0  0  0  0  0
   -1.2135   -2.7256    0.0000 N   0  0  0  0  0  0  0  0  0  0  0  0
   -0.7500   -1.2990    0.0000 C   0  0  0  0  0  0  0  0  0  0  0  0
    0.7500   -1.2990    0.0000 C   0  0  0  0  0  0  0  0  0  0  0  0
    1.5000    0.0000    0.0000 C   0  0  0  0  0  0  0  0  0  0  0  0
    0.7500    1.2990    0.0000 N   0  0  0  0  0  0  0  0  0  0  0  0
    1.5000    2.5981    0.0000 C   0  0  0  0  0  0  0  0  0  0  0  0
    3.0000    2.5981    0.0000 C   0  0  0  0  0  0  0  0  0  0  0  0
    3.8817    3.8116    0.0000 C   0  0  0  0  0  0  0  0  0  0  0  0
    5.3083    3.3481    0.0000 C   0  0  0  0  0  0  0  0  0  0  0  0
    5.3083    1.8481    0.0000 C   0  0  0  0  0  0  0  0  0  0  0  0
    6.5218    0.9664    0.0000 C   0  0  0  0  0  0  0  0  0  0  0  0
    7.9484    1.4299    0.0000 C   0  0  0  0  0  0  0  0  0  0  0  0
    8.8301    0.2164    0.0000 C   0  0  0  0  0  0  0  0  0  0  0  0
    7.9484   -0.9971    0.0000 N   0  0  0  0  0  0  0  0  0  0  0  0
    6.5218   -0.5336    0.0000 N   0  0  0  0  0  0  0  0  0  0  0  0
    3.8817    1.3846    0.0000 S   0  0  0  0  0  0  0  0  0  0  0  0
   -0.7500    1.2990    0.0000 C   0  0  0  0  0  0  0  0  0  0  0  0
   -1.5000    0.0000    0.0000 C   0  0  0  0  0  0  0  0  0  0  0  0
  1  2  1  0
  2  3  1  0
  2  4  1  0
  5  2  1  1
  5  6  1  0
  6  7  1  0
  7  8  1  0
  8  9  2  0
  9 10  1  0
 10 11  1  0
 11 12  1  0
 12 13  1  0
 13 14  2  0
 14 15  1  0
 15 16  2  0
 17 16  1  6
 17 18  1  0
 18 19  2  0
 19 20  1  0
 20 21  2  0
 16 22  1  0
 11 23  1  0
 23 24  1  0
  9  5  1  0
 22 13  1  0
 24  8  1  0
 21 17  1  0
M  END
>  <Compound_ID>  (308) 
C39405289

>  <Active>  (308) 
0

>  <Smiles>  (308) 
CC(C)(C)[C@H]1NNC2=C1CN(Cc1ccc([C@@H]3C=CN=N3)s1)CC2

>  <canonical_smi>  (308) 
CC(C)(C)[C@H]1NNC2=C1CN(Cc1ccc([C@@H]3C=CN=N3)s1)CC2

>  <Set>  (308) 
G2 inactive

>  <Set_type>  (308) 
Train

>  <MW>  (308) 
343.5

>  <HBD>  (308) 
2

>  <HBA>  (308) 
3

>  <NRB>  (308) 
3

>  <NR>  (308) 
4

>  <NAR>  (308) 
1

>  <PSA>  (308) 
52.02

>  <Standard Type>  (308) 
nan

>  <Standard Relation>  (308) 
nan

>  <Standard Units>  (308) 
nan

>  <Standard Value>  (308) 
nan

>  <Assay ChEMBL ID>  (308) 
nan

>  <Assay Description>  (308) 
nan

>  <BAO Label>  (308) 
nan

$$$$

     RDKit          2D

  7  7  0  0  0  0  0  0  0  0999 V2000
    2.7760    0.0000    0.0000 O   0  0  0  0  0  0  0  0  0  0  0  0
    1.2760    0.0000    0.0000 C   0  0  0  0  0  0  0  0  0  0  0  0
    0.3943    1.2135    0.0000 O   0  0  0  0  0  0  0  0  0  0  0  0
   -1.0323    0.7500    0.0000 C   0  0  0  0  0  0  0  0  0  0  0  0
   -1.0323   -0.7500    0.0000 C   0  0  0  0  0  0  0  0  0  0  0  0
   -2.2458   -1.6317    0.0000 Cl  0  0  0  0  0  0  0  0  0  0  0  0
    0.3943   -1.2135    0.0000 O   0  0  0  0  0  0  0  0  0  0  0  0
  1  2  2  0
  2  3  1  0
  3  4  1  0
  4  5  2  0
  5  6  1  0
  5  7  1  0
  7  2  1  0
M  END
>  <Compound_ID>  (309) 
C01760795

>  <Active>  (309) 
0

>  <Smiles>  (309) 
O=c1occ(Cl)o1

>  <canonical_smi>  (309) 
O=c1occ(Cl)o1

>  <Set>  (309) 
G2 inactive

>  <Set_type>  (309) 
Train

>  <MW>  (309) 
120.49

>  <HBD>  (309) 
0

>  <HBA>  (309) 
3

>  <NRB>  (309) 
0

>  <NR>  (309) 
1

>  <NAR>  (309) 
1

>  <PSA>  (309) 
43.35

>  <Standard Type>  (309) 
nan

>  <Standard Relation>  (309) 
nan

>  <Standard Units>  (309) 
nan

>  <Standard Value>  (309) 
nan

>  <Assay ChEMBL ID>  (309) 
nan

>  <Assay Description>  (309) 
nan

>  <BAO Label>  (309) 
nan

$$$$

     RDKit          2D

 10 10  0  0  0  0  0  0  0  0999 V2000
    5.0260   -1.2990    0.0000 C   0  0  0  0  0  0  0  0  0  0  0  0
    3.5260   -1.2990    0.0000 C   0  0  0  0  0  0  0  0  0  0  0  0
    2.7760    0.0000    0.0000 O   0  0  0  0  0  0  0  0  0  0  0  0
    1.2760    0.0000    0.0000 P   0  0  0  0  0  0  0  0  0  0  0  0
    0.3943    1.2135    0.0000 O   0  0  0  0  0  0  0  0  0  0  0  0
   -1.0323    0.7500    0.0000 C   0  0  0  0  0  0  0  0  0  0  0  0
   -2.2458    1.6317    0.0000 C   0  0  0  0  0  0  0  0  0  0  0  0
   -1.0323   -0.7500    0.0000 C   0  0  0  0  0  0  0  0  0  0  0  0
   -2.2458   -1.6317    0.0000 C   0  0  0  0  0  0  0  0  0  0  0  0
    0.3943   -1.2135    0.0000 O   0  0  0  0  0  0  0  0  0  0  0  0
  1  2  1  0
  2  3  1  0
  3  4  1  0
  4  5  1  0
  5  6  1  0
  6  7  1  1
  6  8  1  0
  8  9  1  6
  8 10  1  0
 10  4  1  0
M  END
>  <Compound_ID>  (310) 
C01705243

>  <Active>  (310) 
0

>  <Smiles>  (310) 
CCOP1O[C@H](C)[C@@H](C)O1

>  <canonical_smi>  (310) 
CCOP1O[C@H](C)[C@@H](C)O1

>  <Set>  (310) 
G2 inactive

>  <Set_type>  (310) 
Train

>  <MW>  (310) 
164.14

>  <HBD>  (310) 
0

>  <HBA>  (310) 
3

>  <NRB>  (310) 
2

>  <NR>  (310) 
1

>  <NAR>  (310) 
0

>  <PSA>  (310) 
27.69

>  <Standard Type>  (310) 
nan

>  <Standard Relation>  (310) 
nan

>  <Standard Units>  (310) 
nan

>  <Standard Value>  (310) 
nan

>  <Assay ChEMBL ID>  (310) 
nan

>  <Assay Description>  (310) 
nan

>  <BAO Label>  (310) 
nan

$$$$

     RDKit          2D

 11 10  0  0  0  0  0  0  0  0999 V2000
   -0.0000   -1.5000    0.0000 N   0  0  0  0  0  0  0  0  0  0  0  0
    0.0000    0.0000    0.0000 C   0  0  0  0  0  0  0  0  0  0  0  0
    0.0000    1.5000    0.0000 C   0  0  0  0  0  0  0  0  0  0  0  0
   -1.2990    2.2500    0.0000 C   0  0  0  0  0  0  0  0  0  0  0  0
   -2.5981    3.0000    0.0000 N   0  0  0  0  0  0  0  0  0  0  0  0
    1.2990    2.2500    0.0000 C   0  0  0  0  0  0  0  0  0  0  0  0
    1.2990    3.7500    0.0000 C   0  0  0  0  0  0  0  0  0  0  0  0
    2.5981    4.5000    0.0000 C   0  0  0  0  0  0  0  0  0  0  0  0
    3.8971    5.2500    0.0000 N   0  0  0  0  0  0  0  0  0  0  0  0
    0.0000    4.5000    0.0000 C   0  0  0  0  0  0  0  0  0  0  0  0
   -1.2990    5.2500    0.0000 N   0  0  0  0  0  0  0  0  0  0  0  0
  1  2  3  0
  2  3  1  0
  3  4  1  0
  4  5  3  0
  3  6  2  0
  6  7  1  0
  7  8  1  0
  8  9  3  0
  7 10  1  0
 10 11  3  0
M  END
>  <Compound_ID>  (311) 
C01578024

>  <Active>  (311) 
0

>  <Smiles>  (311) 
N#CC(C#N)=CC(C#N)C#N

>  <canonical_smi>  (311) 
N#CC(C#N)=CC(C#N)C#N

>  <Set>  (311) 
G2 inactive

>  <Set_type>  (311) 
Train

>  <MW>  (311) 
142.12

>  <HBD>  (311) 
0

>  <HBA>  (311) 
4

>  <NRB>  (311) 
1

>  <NR>  (311) 
0

>  <NAR>  (311) 
0

>  <PSA>  (311) 
95.16

>  <Standard Type>  (311) 
nan

>  <Standard Relation>  (311) 
nan

>  <Standard Units>  (311) 
nan

>  <Standard Value>  (311) 
nan

>  <Assay ChEMBL ID>  (311) 
nan

>  <Assay Description>  (311) 
nan

>  <BAO Label>  (311) 
nan

$$$$

     RDKit          2D

  7  7  0  0  0  0  0  0  0  0999 V2000
    3.5260   -1.2990    0.0000 Cl  0  0  0  0  0  0  0  0  0  0  0  0
    2.7760    0.0000    0.0000 C   0  0  0  0  0  0  0  0  0  0  0  0
    1.2760    0.0000    0.0000 C   0  0  0  0  0  0  0  0  0  0  0  0
    0.3943    1.2135    0.0000 N   0  0  0  0  0  0  0  0  0  0  0  0
   -1.0323    0.7500    0.0000 N   0  0  0  0  0  0  0  0  0  0  0  0
   -1.0323   -0.7500    0.0000 C   0  0  0  0  0  0  0  0  0  0  0  0
    0.3943   -1.2135    0.0000 O   0  0  0  0  0  0  0  0  0  0  0  0
  1  2  1  0
  2  3  1  0
  3  4  2  0
  4  5  1  0
  5  6  2  0
  6  7  1  0
  7  3  1  0
M  END
>  <Compound_ID>  (312) 
C03844434

>  <Active>  (312) 
0

>  <Smiles>  (312) 
ClCc1nnco1

>  <canonical_smi>  (312) 
ClCc1nnco1

>  <Set>  (312) 
G2 inactive

>  <Set_type>  (312) 
Train

>  <MW>  (312) 
118.52

>  <HBD>  (312) 
0

>  <HBA>  (312) 
3

>  <NRB>  (312) 
1

>  <NR>  (312) 
1

>  <NAR>  (312) 
1

>  <PSA>  (312) 
38.92

>  <Standard Type>  (312) 
nan

>  <Standard Relation>  (312) 
nan

>  <Standard Units>  (312) 
nan

>  <Standard Value>  (312) 
nan

>  <Assay ChEMBL ID>  (312) 
nan

>  <Assay Description>  (312) 
nan

>  <BAO Label>  (312) 
nan

$$$$

     RDKit          2D

  8  8  0  0  0  0  0  0  0  0999 V2000
    3.0000    0.0000    0.0000 C   0  0  0  0  0  0  0  0  0  0  0  0
    1.5000    0.0000    0.0000 C   0  0  0  0  0  0  0  0  0  0  0  0
    0.7500   -1.2990    0.0000 C   0  0  0  0  0  0  0  0  0  0  0  0
   -0.7500   -1.2990    0.0000 C   0  0  0  0  0  0  0  0  0  0  0  0
   -1.5000    0.0000    0.0000 O   0  0  0  0  0  0  0  0  0  0  0  0
   -0.7500    1.2990    0.0000 S   0  0  0  0  0  4  0  0  0  0  0  0
   -1.5000    2.5981    0.0000 O   0  0  0  0  0  0  0  0  0  0  0  0
    0.7500    1.2990    0.0000 O   0  0  0  0  0  0  0  0  0  0  0  0
  2  1  1  1
  2  3  1  0
  3  4  1  0
  4  5  1  0
  6  5  1  1
  6  7  2  0
  6  8  1  0
  8  2  1  0
M  END
>  <Compound_ID>  (313) 
C04578224

>  <Active>  (313) 
0

>  <Smiles>  (313) 
C[C@H]1CCO[S@@](=O)O1

>  <canonical_smi>  (313) 
C[C@H]1CCO[S@@](=O)O1

>  <Set>  (313) 
G2 inactive

>  <Set_type>  (313) 
Train

>  <MW>  (313) 
136.17

>  <HBD>  (313) 
0

>  <HBA>  (313) 
3

>  <NRB>  (313) 
0

>  <NR>  (313) 
1

>  <NAR>  (313) 
0

>  <PSA>  (313) 
35.53

>  <Standard Type>  (313) 
nan

>  <Standard Relation>  (313) 
nan

>  <Standard Units>  (313) 
nan

>  <Standard Value>  (313) 
nan

>  <Assay ChEMBL ID>  (313) 
nan

>  <Assay Description>  (313) 
nan

>  <BAO Label>  (313) 
nan

$$$$

     RDKit          2D

 11 11  0  0  0  0  0  0  0  0999 V2000
    2.3907    1.0037    0.0000 C   0  0  0  0  0  0  0  0  0  0  0  0
    1.2760    0.0000    0.0000 C   0  0  0  0  0  0  0  0  0  0  0  0
    2.3907   -1.0037    0.0000 C   0  0  0  0  0  0  0  0  0  0  0  0
    0.3943    1.2135    0.0000 C   0  0  0  0  0  0  0  0  0  0  0  0
   -1.0323    0.7500    0.0000 O   0  0  0  0  0  0  0  0  0  0  0  0
   -1.0323   -0.7500    0.0000 C   0  0  0  0  0  0  0  0  0  0  0  0
   -2.2458   -1.6317    0.0000 O   0  0  0  0  0  0  0  0  0  0  0  0
    0.3943   -1.2135    0.0000 C   0  0  0  0  0  0  0  0  0  0  0  0
    0.8578   -2.6401    0.0000 C   0  0  0  0  0  0  0  0  0  0  0  0
    2.3250   -2.9520    0.0000 C   0  0  0  0  0  0  0  0  0  0  0  0
    3.7923   -3.2638    0.0000 N   0  0  0  0  0  0  0  0  0  0  0  0
  1  2  1  0
  2  3  1  0
  2  4  1  0
  4  5  1  0
  5  6  1  0
  6  7  2  0
  6  8  1  0
  8  9  2  0
  9 10  1  0
 10 11  3  0
  8  2  1  0
M  END
>  <Compound_ID>  (314) 
C17109959

>  <Active>  (314) 
0

>  <Smiles>  (314) 
CC1(C)COC(=O)/C1=C/C#N

>  <canonical_smi>  (314) 
CC1(C)COC(=O)/C1=C/C#N

>  <Set>  (314) 
G2 inactive

>  <Set_type>  (314) 
Train

>  <MW>  (314) 
151.16

>  <HBD>  (314) 
0

>  <HBA>  (314) 
3

>  <NRB>  (314) 
0

>  <NR>  (314) 
1

>  <NAR>  (314) 
0

>  <PSA>  (314) 
50.09

>  <Standard Type>  (314) 
nan

>  <Standard Relation>  (314) 
nan

>  <Standard Units>  (314) 
nan

>  <Standard Value>  (314) 
nan

>  <Assay ChEMBL ID>  (314) 
nan

>  <Assay Description>  (314) 
nan

>  <BAO Label>  (314) 
nan

$$$$

     RDKit          2D

 11 12  0  0  0  0  0  0  0  0999 V2000
   -0.0967    5.1517    0.0000 C   0  0  0  0  0  0  0  0  0  0  0  0
   -0.4086    3.6844    0.0000 N   0  0  0  0  0  0  0  0  0  0  0  0
    0.7062    2.6807    0.0000 C   0  0  0  0  0  0  0  0  0  0  0  0
    0.3943    1.2135    0.0000 N   0  0  0  0  0  0  0  0  0  0  0  0
    1.2760    0.0000    0.0000 C   0  0  0  0  0  0  0  0  0  0  0  0
    0.3943   -1.2135    0.0000 C   0  0  0  0  0  0  0  0  0  0  0  0
   -1.0323   -0.7500    0.0000 C   0  0  0  0  0  0  0  0  0  0  0  0
   -1.0323    0.7500    0.0000 N   0  0  0  0  0  0  0  0  0  0  0  0
   -2.1470    1.7537    0.0000 C   0  0  0  0  0  0  0  0  0  0  0  0
   -1.8351    3.2209    0.0000 N   0  0  0  0  0  0  0  0  0  0  0  0
   -2.9499    4.2246    0.0000 C   0  0  0  0  0  0  0  0  0  0  0  0
  1  2  1  0
  2  3  1  0
  3  4  1  0
  4  5  1  0
  5  6  1  0
  6  7  1  0
  7  8  1  0
  8  9  1  0
  9 10  1  0
 10 11  1  0
 10  2  1  0
  8  4  1  0
M  END
>  <Compound_ID>  (315) 
C19168626

>  <Active>  (315) 
0

>  <Smiles>  (315) 
CN1CN2CCCN2CN1C

>  <canonical_smi>  (315) 
CN1CN2CCCN2CN1C

>  <Set>  (315) 
G2 inactive

>  <Set_type>  (315) 
Train

>  <MW>  (315) 
156.23

>  <HBD>  (315) 
0

>  <HBA>  (315) 
4

>  <NRB>  (315) 
0

>  <NR>  (315) 
2

>  <NAR>  (315) 
0

>  <PSA>  (315) 
12.96

>  <Standard Type>  (315) 
nan

>  <Standard Relation>  (315) 
nan

>  <Standard Units>  (315) 
nan

>  <Standard Value>  (315) 
nan

>  <Assay ChEMBL ID>  (315) 
nan

>  <Assay Description>  (315) 
nan

>  <BAO Label>  (315) 
nan

$$$$

     RDKit          2D

 11 11  0  0  0  0  0  0  0  0999 V2000
    6.0000   -2.5981    0.0000 C   0  0  0  0  0  0  0  0  0  0  0  0
    5.2500   -1.2990    0.0000 O   0  0  0  0  0  0  0  0  0  0  0  0
    3.7500   -1.2990    0.0000 N   0  0  0  0  0  0  0  0  0  0  0  0
    3.0000    0.0000    0.0000 C   0  0  0  0  0  0  0  0  0  0  0  0
    1.5000    0.0000    0.0000 C   0  0  0  0  0  0  0  0  0  0  0  0
    0.7500   -1.2990    0.0000 C   0  0  0  0  0  0  0  0  0  0  0  0
   -0.7500   -1.2990    0.0000 C   0  0  0  0  0  0  0  0  0  0  0  0
   -1.5000    0.0000    0.0000 C   0  0  0  0  0  0  0  0  0  0  0  0
   -0.7500    1.2990    0.0000 N   0  0  0  0  0  0  0  0  0  0  0  0
   -1.5000    2.5981    0.0000 C   0  0  0  0  0  0  0  0  0  0  0  0
    0.7500    1.2990    0.0000 C   0  0  0  0  0  0  0  0  0  0  0  0
  1  2  1  0
  2  3  1  0
  3  4  2  0
  4  5  1  0
  5  6  2  0
  6  7  1  0
  7  8  1  0
  8  9  1  0
  9 10  1  0
  9 11  1  0
 11  5  1  0
M  END
>  <Compound_ID>  (316) 
C27638049

>  <Active>  (316) 
0

>  <Smiles>  (316) 
CO/N=C/C1=CCCN(C)C1

>  <canonical_smi>  (316) 
CO/N=C/C1=CCCN(C)C1

>  <Set>  (316) 
G2 inactive

>  <Set_type>  (316) 
Train

>  <MW>  (316) 
154.21

>  <HBD>  (316) 
0

>  <HBA>  (316) 
2

>  <NRB>  (316) 
2

>  <NR>  (316) 
1

>  <NAR>  (316) 
0

>  <PSA>  (316) 
24.83

>  <Standard Type>  (316) 
nan

>  <Standard Relation>  (316) 
nan

>  <Standard Units>  (316) 
nan

>  <Standard Value>  (316) 
nan

>  <Assay ChEMBL ID>  (316) 
nan

>  <Assay Description>  (316) 
nan

>  <BAO Label>  (316) 
nan

$$$$

     RDKit          2D

  9  9  0  0  0  0  0  0  0  0999 V2000
    2.1213    1.0607    0.0000 O   0  0  0  0  0  0  0  0  0  0  0  0
    1.0607    0.0000    0.0000 S   0  0  0  0  0  0  0  0  0  0  0  0
    2.1213   -1.0607    0.0000 O   0  0  0  0  0  0  0  0  0  0  0  0
   -0.0000   -1.0607    0.0000 O   0  0  0  0  0  0  0  0  0  0  0  0
   -1.0607    0.0000    0.0000 C   0  0  0  0  0  0  0  0  0  0  0  0
   -2.5607    0.0000    0.0000 F   0  0  0  0  0  0  0  0  0  0  0  0
    0.0000    1.0607    0.0000 C   0  0  0  0  0  0  0  0  0  0  0  0
   -1.0607    2.1213    0.0000 F   0  0  0  0  0  0  0  0  0  0  0  0
    1.0607    2.1213    0.0000 F   0  0  0  0  0  0  0  0  0  0  0  0
  1  2  2  0
  2  3  2  0
  2  4  1  0
  4  5  1  0
  5  6  1  6
  5  7  1  0
  7  8  1  0
  7  9  1  0
  7  2  1  0
M  END
>  <Compound_ID>  (317) 
C38949179

>  <Active>  (317) 
0

>  <Smiles>  (317) 
O=S1(=O)O[C@H](F)C1(F)F

>  <canonical_smi>  (317) 
O=S1(=O)O[C@H](F)C1(F)F

>  <Set>  (317) 
G2 inactive

>  <Set_type>  (317) 
Train

>  <MW>  (317) 
162.09

>  <HBD>  (317) 
0

>  <HBA>  (317) 
3

>  <NRB>  (317) 
0

>  <NR>  (317) 
1

>  <NAR>  (317) 
0

>  <PSA>  (317) 
43.37

>  <Standard Type>  (317) 
nan

>  <Standard Relation>  (317) 
nan

>  <Standard Units>  (317) 
nan

>  <Standard Value>  (317) 
nan

>  <Assay ChEMBL ID>  (317) 
nan

>  <Assay Description>  (317) 
nan

>  <BAO Label>  (317) 
nan

$$$$

     RDKit          2D

 10 10  0  0  0  0  0  0  0  0999 V2000
    3.7500   -1.2990    0.0000 C   0  0  0  0  0  0  0  0  0  0  0  0
    3.0000    0.0000    0.0000 O   0  0  0  0  0  0  0  0  0  0  0  0
    1.5000    0.0000    0.0000 C   0  0  0  0  0  0  0  0  0  0  0  0
    0.7500   -1.2990    0.0000 C   0  0  0  0  0  0  0  0  0  0  0  0
   -0.7500   -1.2990    0.0000 C   0  0  0  0  0  0  0  0  0  0  0  0
   -1.5000    0.0000    0.0000 C   0  0  0  0  0  0  0  0  0  0  0  0
   -0.7500    1.2990    0.0000 C   0  0  0  0  0  0  0  0  0  0  0  0
   -1.5000    2.5981    0.0000 C   0  0  0  0  0  0  0  0  0  0  0  0
   -0.7500    3.8971    0.0000 O   0  0  0  0  0  0  0  0  0  0  0  0
    0.7500    1.2990    0.0000 O   0  0  0  0  0  0  0  0  0  0  0  0
  1  2  1  0
  3  2  1  6
  3  4  1  0
  4  5  2  0
  5  6  1  0
  6  7  1  0
  7  8  1  1
  8  9  2  0
  7 10  1  0
 10  3  1  0
M  END
>  <Compound_ID>  (318) 
C39061088

>  <Active>  (318) 
0

>  <Smiles>  (318) 
CO[C@@H]1C=CC[C@@H](C=O)O1

>  <canonical_smi>  (318) 
CO[C@@H]1C=CC[C@@H](C=O)O1

>  <Set>  (318) 
G2 inactive

>  <Set_type>  (318) 
Train

>  <MW>  (318) 
142.15

>  <HBD>  (318) 
0

>  <HBA>  (318) 
3

>  <NRB>  (318) 
2

>  <NR>  (318) 
1

>  <NAR>  (318) 
0

>  <PSA>  (318) 
35.53

>  <Standard Type>  (318) 
nan

>  <Standard Relation>  (318) 
nan

>  <Standard Units>  (318) 
nan

>  <Standard Value>  (318) 
nan

>  <Assay ChEMBL ID>  (318) 
nan

>  <Assay Description>  (318) 
nan

>  <BAO Label>  (318) 
nan

$$$$

     RDKit          2D

 10 10  0  0  0  0  0  0  0  0999 V2000
    3.5260   -1.2990    0.0000 C   0  0  0  0  0  0  0  0  0  0  0  0
    2.7760    0.0000    0.0000 C   0  0  0  0  0  0  0  0  0  0  0  0
    1.2760    0.0000    0.0000 C   0  0  0  0  0  0  0  0  0  0  0  0
    0.3943    1.2135    0.0000 C   0  0  0  0  0  0  0  0  0  0  0  0
   -1.0323    0.7500    0.0000 O   0  0  0  0  0  0  0  0  0  0  0  0
   -1.0323   -0.7500    0.0000 C   0  0  0  0  0  0  0  0  0  0  0  0
   -2.2458   -1.6317    0.0000 C   0  0  0  0  0  0  0  0  0  0  0  0
    0.3943   -1.2135    0.0000 N   0  0  0  0  0  0  0  0  0  0  0  0
    0.8578   -2.6401    0.0000 C   0  0  0  0  0  0  0  0  0  0  0  0
   -0.1459   -3.7548    0.0000 O   0  0  0  0  0  0  0  0  0  0  0  0
  1  2  1  0
  3  2  1  6
  3  4  1  0
  4  5  1  0
  5  6  1  0
  6  7  1  6
  6  8  1  0
  8  9  1  0
  9 10  2  0
  8  3  1  0
M  END
>  <Compound_ID>  (319) 
C39061278

>  <Active>  (319) 
0

>  <Smiles>  (319) 
CC[C@H]1CO[C@@H](C)N1C=O

>  <canonical_smi>  (319) 
CC[C@H]1CO[C@@H](C)N1C=O

>  <Set>  (319) 
G2 inactive

>  <Set_type>  (319) 
Train

>  <MW>  (319) 
143.19

>  <HBD>  (319) 
0

>  <HBA>  (319) 
2

>  <NRB>  (319) 
2

>  <NR>  (319) 
1

>  <NAR>  (319) 
0

>  <PSA>  (319) 
29.54

>  <Standard Type>  (319) 
nan

>  <Standard Relation>  (319) 
nan

>  <Standard Units>  (319) 
nan

>  <Standard Value>  (319) 
nan

>  <Assay ChEMBL ID>  (319) 
nan

>  <Assay Description>  (319) 
nan

>  <BAO Label>  (319) 
nan

$$$$

     RDKit          2D

 11 11  0  0  0  0  0  0  0  0999 V2000
    2.3660    2.5981    0.0000 C   0  0  0  0  0  0  0  0  0  0  0  0
    3.1160    1.2990    0.0000 C   0  0  0  0  0  0  0  0  0  0  0  0
    2.3660    0.0000    0.0000 C   0  0  0  0  0  0  0  0  0  0  0  0
    0.8660    0.0000    0.0000 C   0  0  0  0  0  0  0  0  0  0  0  0
   -0.4330    0.7500    0.0000 O   0  0  0  0  0  0  0  0  0  0  0  0
   -0.4330   -0.7500    0.0000 C   0  0  0  0  0  0  0  0  0  0  0  0
   -1.1830   -2.0490    0.0000 C   0  0  0  0  0  0  0  0  0  0  0  0
   -0.4330   -3.3481    0.0000 O   0  0  0  0  0  0  0  0  0  0  0  0
   -2.6830   -2.0490    0.0000 N   0  0  0  0  0  0  0  0  0  0  0  0
   -3.4330   -3.3481    0.0000 C   0  0  0  0  0  0  0  0  0  0  0  0
   -3.4330   -0.7500    0.0000 C   0  0  0  0  0  0  0  0  0  0  0  0
  1  2  1  0
  2  3  2  0
  4  3  1  6
  4  5  1  0
  5  6  1  0
  6  7  1  6
  7  8  2  0
  7  9  1  0
  9 10  1  0
  9 11  1  0
  6  4  1  0
M  END
>  <Compound_ID>  (320) 
C39064963

>  <Active>  (320) 
0

>  <Smiles>  (320) 
C/C=C\[C@H]1O[C@H]1C(=O)N(C)C

>  <canonical_smi>  (320) 
C/C=C\[C@H]1O[C@H]1C(=O)N(C)C

>  <Set>  (320) 
G2 inactive

>  <Set_type>  (320) 
Train

>  <MW>  (320) 
155.2

>  <HBD>  (320) 
0

>  <HBA>  (320) 
2

>  <NRB>  (320) 
2

>  <NR>  (320) 
1

>  <NAR>  (320) 
0

>  <PSA>  (320) 
32.84

>  <Standard Type>  (320) 
nan

>  <Standard Relation>  (320) 
nan

>  <Standard Units>  (320) 
nan

>  <Standard Value>  (320) 
nan

>  <Assay ChEMBL ID>  (320) 
nan

>  <Assay Description>  (320) 
nan

>  <BAO Label>  (320) 
nan

$$$$

     RDKit          2D

  9  9  0  0  0  0  0  0  0  0999 V2000
    4.6160   -1.2990    0.0000 C   0  0  0  0  0  0  0  0  0  0  0  0
    3.1160   -1.2990    0.0000 C   0  0  0  0  0  0  0  0  0  0  0  0
    2.3660    0.0000    0.0000 C   0  0  0  0  0  0  0  0  0  0  0  0
    3.1160    1.2990    0.0000 O   0  0  0  0  0  0  0  0  0  0  0  0
    0.8660    0.0000    0.0000 N   0  0  0  0  0  0  0  0  0  0  0  0
   -0.4330    0.7500    0.0000 C   0  0  0  0  0  0  0  0  0  0  0  0
   -0.4330   -0.7500    0.0000 C   0  0  0  0  0  0  0  0  0  0  0  0
   -1.1830   -2.0490    0.0000 C   0  0  0  0  0  0  0  0  0  0  0  0
   -1.9330   -3.3481    0.0000 N   0  0  0  0  0  0  0  0  0  0  0  0
  1  2  2  0
  2  3  1  0
  3  4  2  0
  3  5  1  0
  5  6  1  0
  6  7  1  0
  7  8  1  1
  8  9  3  0
  7  5  1  0
M  END
>  <Compound_ID>  (321) 
C39073594

>  <Active>  (321) 
0

>  <Smiles>  (321) 
C=CC(=O)N1C[C@@H]1C#N

>  <canonical_smi>  (321) 
C=CC(=O)N1C[C@@H]1C#N

>  <Set>  (321) 
G2 inactive

>  <Set_type>  (321) 
Train

>  <MW>  (321) 
122.13

>  <HBD>  (321) 
0

>  <HBA>  (321) 
2

>  <NRB>  (321) 
1

>  <NR>  (321) 
1

>  <NAR>  (321) 
0

>  <PSA>  (321) 
43.87

>  <Standard Type>  (321) 
nan

>  <Standard Relation>  (321) 
nan

>  <Standard Units>  (321) 
nan

>  <Standard Value>  (321) 
nan

>  <Assay ChEMBL ID>  (321) 
nan

>  <Assay Description>  (321) 
nan

>  <BAO Label>  (321) 
nan

$$$$

     RDKit          2D

 10 10  0  0  0  0  0  0  0  0999 V2000
    3.7500   -1.2990    0.0000 C   0  0  0  0  0  0  0  0  0  0  0  0
    3.0000    0.0000    0.0000 N   0  0  0  0  0  0  0  0  0  0  0  0
    3.7500    1.2990    0.0000 C   0  0  0  0  0  0  0  0  0  0  0  0
    1.5000    0.0000    0.0000 C   0  0  0  0  0  0  0  0  0  0  0  0
    0.7500   -1.2990    0.0000 C   0  0  0  0  0  0  0  0  0  0  0  0
   -0.7500   -1.2990    0.0000 C   0  0  0  0  0  0  0  0  0  0  0  0
   -1.5000    0.0000    0.0000 C   0  0  0  0  0  0  0  0  0  0  0  0
   -0.7500    1.2990    0.0000 N   0  0  0  0  0  4  0  0  0  0  0  0
   -1.5000    2.5981    0.0000 O   0  0  0  0  0  1  0  0  0  0  0  0
    0.7500    1.2990    0.0000 O   0  0  0  0  0  0  0  0  0  0  0  0
  1  2  1  0
  2  3  1  0
  4  2  1  6
  4  5  1  0
  5  6  1  0
  6  7  1  0
  7  8  2  0
  8  9  1  0
  8 10  1  0
 10  4  1  0
M  CHG  2   8   1   9  -1
M  END
>  <Compound_ID>  (322) 
C39079336

>  <Active>  (322) 
0

>  <Smiles>  (322) 
CN(C)[C@@H]1CCC=[N+]([O-])O1

>  <canonical_smi>  (322) 
CN(C)[C@@H]1CCC=[N+]([O-])O1

>  <Set>  (322) 
G2 inactive

>  <Set_type>  (322) 
Train

>  <MW>  (322) 
144.17

>  <HBD>  (322) 
0

>  <HBA>  (322) 
3

>  <NRB>  (322) 
1

>  <NR>  (322) 
1

>  <NAR>  (322) 
0

>  <PSA>  (322) 
38.54

>  <Standard Type>  (322) 
nan

>  <Standard Relation>  (322) 
nan

>  <Standard Units>  (322) 
nan

>  <Standard Value>  (322) 
nan

>  <Assay ChEMBL ID>  (322) 
nan

>  <Assay Description>  (322) 
nan

>  <BAO Label>  (322) 
nan

$$$$

     RDKit          2D

 11 12  0  0  0  0  0  0  0  0999 V2000
   -4.1640    3.2626    0.0000 C   0  0  0  0  0  0  0  0  0  0  0  0
   -3.4140    1.9635    0.0000 C   0  0  0  0  0  0  0  0  0  0  0  0
   -4.1640    0.6645    0.0000 C   0  0  0  0  0  0  0  0  0  0  0  0
   -1.9140    1.9635    0.0000 C   0  0  0  0  0  0  0  0  0  0  0  0
   -1.0323    3.1771    0.0000 O   0  0  0  0  0  0  0  0  0  0  0  0
    0.3943    2.7135    0.0000 C   0  0  0  0  0  0  0  0  0  0  0  0
    0.3943    1.2135    0.0000 C   0  0  0  0  0  0  0  0  0  0  0  0
    1.2760    0.0000    0.0000 C   0  0  0  0  0  0  0  0  0  0  0  0
    0.3943   -1.2135    0.0000 N   0  0  0  0  0  0  0  0  0  0  0  0
   -1.0323   -0.7500    0.0000 N   0  0  0  0  0  0  0  0  0  0  0  0
   -1.0323    0.7500    0.0000 N   0  0  0  0  0  0  0  0  0  0  0  0
  1  2  1  0
  2  3  1  0
  4  2  1  6
  4  5  1  0
  5  6  1  0
  7  6  1  6
  7  8  1  0
  8  9  1  0
  9 10  2  0
 10 11  1  0
 11  4  1  0
 11  7  1  0
M  END
>  <Compound_ID>  (323) 
C39103361

>  <Active>  (323) 
0

>  <Smiles>  (323) 
CC(C)[C@@H]1OC[C@@H]2CN=NN21

>  <canonical_smi>  (323) 
CC(C)[C@@H]1OC[C@@H]2CN=NN21

>  <Set>  (323) 
G2 inactive

>  <Set_type>  (323) 
Train

>  <MW>  (323) 
155.2

>  <HBD>  (323) 
0

>  <HBA>  (323) 
2

>  <NRB>  (323) 
1

>  <NR>  (323) 
2

>  <NAR>  (323) 
0

>  <PSA>  (323) 
37.19

>  <Standard Type>  (323) 
nan

>  <Standard Relation>  (323) 
nan

>  <Standard Units>  (323) 
nan

>  <Standard Value>  (323) 
nan

>  <Assay ChEMBL ID>  (323) 
nan

>  <Assay Description>  (323) 
nan

>  <BAO Label>  (323) 
nan

$$$$

     RDKit          2D

 13 14  0  0  0  0  0  0  0  0999 V2000
    2.2500   -6.4952    0.0000 N   0  0  0  0  0  0  0  0  0  0  0  0
    1.5000   -5.1962    0.0000 C   0  0  0  0  0  0  0  0  0  0  0  0
    0.7500   -3.8971    0.0000 C   0  0  0  0  0  0  0  0  0  0  0  0
    1.5000   -2.5981    0.0000 N   0  0  0  0  0  0  0  0  0  0  0  0
    0.7500   -1.2990    0.0000 C   0  0  0  0  0  0  0  0  0  0  0  0
    1.5000    0.0000    0.0000 C   0  0  0  0  0  0  0  0  0  0  0  0
    0.7500    1.2990    0.0000 C   0  0  0  0  0  0  0  0  0  0  0  0
   -0.7500    1.2990    0.0000 C   0  0  0  0  0  0  0  0  0  0  0  0
   -1.5000    0.0000    0.0000 C   0  0  0  0  0  0  0  0  0  0  0  0
   -0.7500   -1.2990    0.0000 C   0  0  0  0  0  0  0  0  0  0  0  0
   -1.5000   -2.5981    0.0000 N   0  0  0  0  0  0  0  0  0  0  0  0
   -0.7500   -3.8971    0.0000 C   0  0  0  0  0  0  0  0  0  0  0  0
   -1.5000   -5.1962    0.0000 O   0  0  0  0  0  0  0  0  0  0  0  0
  1  2  3  0
  3  2  1  1
  3  4  1  0
  4  5  2  0
  5  6  1  0
  6  7  1  0
  7  8  1  0
  8  9  1  0
  9 10  1  0
 10 11  2  0
 11 12  1  0
 12 13  2  0
 12  3  1  0
 10  5  1  0
M  END
>  <Compound_ID>  (324) 
C39113972

>  <Active>  (324) 
0

>  <Smiles>  (324) 
N#C[C@@H]1N=C2CCCCC2=NC1=O

>  <canonical_smi>  (324) 
N#C[C@@H]1N=C2CCCCC2=NC1=O

>  <Set>  (324) 
G2 inactive

>  <Set_type>  (324) 
Train

>  <MW>  (324) 
175.19

>  <HBD>  (324) 
0

>  <HBA>  (324) 
2

>  <NRB>  (324) 
0

>  <NR>  (324) 
2

>  <NAR>  (324) 
0

>  <PSA>  (324) 
65.58

>  <Standard Type>  (324) 
nan

>  <Standard Relation>  (324) 
nan

>  <Standard Units>  (324) 
nan

>  <Standard Value>  (324) 
nan

>  <Assay ChEMBL ID>  (324) 
nan

>  <Assay Description>  (324) 
nan

>  <BAO Label>  (324) 
nan

$$$$

     RDKit          2D

  9  9  0  0  0  0  0  0  0  0999 V2000
    3.5260   -1.2990    0.0000 O   0  0  0  0  0  0  0  0  0  0  0  0
    2.7760    0.0000    0.0000 C   0  0  0  0  0  0  0  0  0  0  0  0
    1.2760    0.0000    0.0000 C   0  0  0  0  0  0  0  0  0  0  0  0
    0.3943    1.2135    0.0000 N   0  0  0  0  0  0  0  0  0  0  0  0
   -1.0323    0.7500    0.0000 N   0  0  0  0  0  0  0  0  0  0  0  0
   -1.0323   -0.7500    0.0000 C   0  0  0  0  0  0  0  0  0  0  0  0
   -2.2458   -1.6317    0.0000 C   0  0  0  0  0  0  0  0  0  0  0  0
   -3.6161   -1.0216    0.0000 O   0  0  0  0  0  0  0  0  0  0  0  0
    0.3943   -1.2135    0.0000 S   0  0  0  0  0  0  0  0  0  0  0  0
  1  2  2  0
  3  2  1  6
  3  4  1  0
  4  5  2  0
  5  6  1  0
  6  7  1  1
  7  8  2  0
  6  9  1  0
  9  3  1  0
M  END
>  <Compound_ID>  (325) 
C39140545

>  <Active>  (325) 
0

>  <Smiles>  (325) 
O=C[C@H]1N=N[C@H](C=O)S1

>  <canonical_smi>  (325) 
O=C[C@H]1N=N[C@H](C=O)S1

>  <Set>  (325) 
G2 inactive

>  <Set_type>  (325) 
Train

>  <MW>  (325) 
144.16

>  <HBD>  (325) 
0

>  <HBA>  (325) 
3

>  <NRB>  (325) 
2

>  <NR>  (325) 
1

>  <NAR>  (325) 
0

>  <PSA>  (325) 
58.86

>  <Standard Type>  (325) 
nan

>  <Standard Relation>  (325) 
nan

>  <Standard Units>  (325) 
nan

>  <Standard Value>  (325) 
nan

>  <Assay ChEMBL ID>  (325) 
nan

>  <Assay Description>  (325) 
nan

>  <BAO Label>  (325) 
nan

$$$$

     RDKit          2D

 11 12  0  0  0  0  0  0  0  0999 V2000
    2.6401   -3.1891    0.0000 C   0  0  0  0  0  0  0  0  0  0  0  0
    1.2135   -2.7256    0.0000 C   0  0  0  0  0  0  0  0  0  0  0  0
    0.7500   -1.2990    0.0000 C   0  0  0  0  0  0  0  0  0  0  0  0
    1.5000    0.0000    0.0000 C   0  0  0  0  0  0  0  0  0  0  0  0
    3.0000    0.0000    0.0000 O   0  0  0  0  0  0  0  0  0  0  0  0
    0.7500    1.2990    0.0000 C   0  0  0  0  0  0  0  0  0  0  0  0
   -0.7500    1.2990    0.0000 C   0  0  0  0  0  0  0  0  0  0  0  0
   -1.5000    0.0000    0.0000 C   0  0  0  0  0  0  0  0  0  0  0  0
   -0.7500   -1.2990    0.0000 C   0  0  0  0  0  0  0  0  0  0  0  0
   -1.2135   -2.7256    0.0000 N   0  0  0  0  0  0  0  0  0  0  0  0
   -0.0000   -3.6073    0.0000 N   0  0  0  0  0  0  0  0  0  0  0  0
  1  2  1  0
  2  3  2  0
  3  4  1  0
  4  5  2  0
  4  6  1  0
  6  7  1  0
  7  8  1  0
  9  8  1  1
  9 10  1  0
 10 11  2  0
 11  2  1  0
  9  3  1  0
M  END
>  <Compound_ID>  (326) 
C39276607

>  <Active>  (326) 
0

>  <Smiles>  (326) 
CC1=C2C(=O)CCC[C@@H]2N=N1

>  <canonical_smi>  (326) 
CC1=C2C(=O)CCC[C@@H]2N=N1

>  <Set>  (326) 
G2 inactive

>  <Set_type>  (326) 
Train

>  <MW>  (326) 
150.18

>  <HBD>  (326) 
0

>  <HBA>  (326) 
1

>  <NRB>  (326) 
0

>  <NR>  (326) 
2

>  <NAR>  (326) 
0

>  <PSA>  (326) 
41.79

>  <Standard Type>  (326) 
nan

>  <Standard Relation>  (326) 
nan

>  <Standard Units>  (326) 
nan

>  <Standard Value>  (326) 
nan

>  <Assay ChEMBL ID>  (326) 
nan

>  <Assay Description>  (326) 
nan

>  <BAO Label>  (326) 
nan

$$$$

     RDKit          2D

 11 12  0  0  0  0  0  0  0  0999 V2000
    3.5260   -1.2990    0.0000 O   0  0  0  0  0  0  0  0  0  0  0  0
    2.7760    0.0000    0.0000 C   0  0  0  0  0  0  0  0  0  0  0  0
    1.2760    0.0000    0.0000 C   0  0  0  0  0  0  0  0  0  0  0  0
    0.3943    1.2135    0.0000 C   0  0  0  0  0  0  0  0  0  0  0  0
   -1.0323    0.7500    0.0000 C   0  0  0  0  0  0  0  0  0  0  0  0
   -1.0323   -0.7500    0.0000 C   0  0  0  0  0  0  0  0  0  0  0  0
   -1.9140   -1.9635    0.0000 O   0  0  0  0  0  0  0  0  0  0  0  0
   -1.0323   -3.1771    0.0000 C   0  0  0  0  0  0  0  0  0  0  0  0
   -1.4958   -4.6036    0.0000 O   0  0  0  0  0  0  0  0  0  0  0  0
    0.3943   -2.7135    0.0000 C   0  0  0  0  0  0  0  0  0  0  0  0
    0.3943   -1.2135    0.0000 C   0  0  0  0  0  0  0  0  0  0  0  0
  1  2  2  0
  3  2  1  1
  3  4  1  0
  4  5  1  0
  6  5  1  6
  6  7  1  0
  7  8  1  0
  8  9  2  0
  8 10  1  0
 11 10  1  1
 11  3  1  0
 11  6  1  0
M  END
>  <Compound_ID>  (327) 
C39330392

>  <Active>  (327) 
0

>  <Smiles>  (327) 
O=C[C@@H]1CC[C@H]2OC(=O)C[C@H]12

>  <canonical_smi>  (327) 
O=C[C@@H]1CC[C@H]2OC(=O)C[C@H]12

>  <Set>  (327) 
G2 inactive

>  <Set_type>  (327) 
Train

>  <MW>  (327) 
154.16

>  <HBD>  (327) 
0

>  <HBA>  (327) 
3

>  <NRB>  (327) 
1

>  <NR>  (327) 
2

>  <NAR>  (327) 
0

>  <PSA>  (327) 
43.37

>  <Standard Type>  (327) 
nan

>  <Standard Relation>  (327) 
nan

>  <Standard Units>  (327) 
nan

>  <Standard Value>  (327) 
nan

>  <Assay ChEMBL ID>  (327) 
nan

>  <Assay Description>  (327) 
nan

>  <BAO Label>  (327) 
nan

$$$$

     RDKit          2D

 11 11  0  0  0  0  0  0  0  0999 V2000
    3.5260   -1.2990    0.0000 C   0  0  0  0  0  0  0  0  0  0  0  0
    2.7760    0.0000    0.0000 O   0  0  0  0  0  0  0  0  0  0  0  0
    1.2760    0.0000    0.0000 C   0  0  0  0  0  0  0  0  0  0  0  0
    0.3943    1.2135    0.0000 C   0  0  0  0  0  0  0  0  0  0  0  0
    0.8578    2.6401    0.0000 C   0  0  0  0  0  0  0  0  0  0  0  0
   -1.0323    0.7500    0.0000 N   0  0  0  0  0  4  0  0  0  0  0  0
   -2.2458    1.6317    0.0000 O   0  0  0  0  0  1  0  0  0  0  0  0
   -1.0323   -0.7500    0.0000 N   0  0  0  0  0  0  0  0  0  0  0  0
    0.3943   -1.2135    0.0000 C   0  0  0  0  0  0  0  0  0  0  0  0
    1.6933   -1.9635    0.0000 C   0  0  0  0  0  0  0  0  0  0  0  0
   -0.2158   -2.5838    0.0000 C   0  0  0  0  0  0  0  0  0  0  0  0
  1  2  1  0
  2  3  1  0
  3  4  2  0
  4  5  1  0
  4  6  1  0
  6  7  1  0
  6  8  2  0
  8  9  1  0
  9 10  1  0
  9 11  1  0
  9  3  1  0
M  CHG  2   6   1   7  -1
M  END
>  <Compound_ID>  (328) 
C45821474

>  <Active>  (328) 
0

>  <Smiles>  (328) 
COC1=C(C)[N+]([O-])=NC1(C)C

>  <canonical_smi>  (328) 
COC1=C(C)[N+]([O-])=NC1(C)C

>  <Set>  (328) 
G2 inactive

>  <Set_type>  (328) 
Train

>  <MW>  (328) 
156.19

>  <HBD>  (328) 
0

>  <HBA>  (328) 
2

>  <NRB>  (328) 
1

>  <NR>  (328) 
1

>  <NAR>  (328) 
0

>  <PSA>  (328) 
47.66

>  <Standard Type>  (328) 
nan

>  <Standard Relation>  (328) 
nan

>  <Standard Units>  (328) 
nan

>  <Standard Value>  (328) 
nan

>  <Assay ChEMBL ID>  (328) 
nan

>  <Assay Description>  (328) 
nan

>  <BAO Label>  (328) 
nan

$$$$

     RDKit          2D

  7  7  0  0  0  0  0  0  0  0999 V2000
    2.7760    0.0000    0.0000 C   0  0  0  0  0  0  0  0  0  0  0  0
    1.2760    0.0000    0.0000 C   0  0  0  0  0  0  0  0  0  0  0  0
    0.3943    1.2135    0.0000 N   0  0  0  0  0  0  0  0  0  0  0  0
   -1.0323    0.7500    0.0000 N   0  0  0  0  0  0  0  0  0  0  0  0
   -1.0323   -0.7500    0.0000 C   0  0  0  0  0  0  0  0  0  0  0  0
   -2.2458   -1.6317    0.0000 S   0  0  0  0  0  0  0  0  0  0  0  0
    0.3943   -1.2135    0.0000 O   0  0  0  0  0  0  0  0  0  0  0  0
  2  1  1  6
  2  3  1  0
  3  4  2  0
  4  5  1  0
  5  6  2  0
  5  7  1  0
  7  2  1  0
M  END
>  <Compound_ID>  (329) 
C39944151

>  <Active>  (329) 
0

>  <Smiles>  (329) 
C[C@H]1N=NC(=S)O1

>  <canonical_smi>  (329) 
C[C@H]1N=NC(=S)O1

>  <Set>  (329) 
G2 inactive

>  <Set_type>  (329) 
Train

>  <MW>  (329) 
116.14

>  <HBD>  (329) 
0

>  <HBA>  (329) 
2

>  <NRB>  (329) 
0

>  <NR>  (329) 
1

>  <NAR>  (329) 
0

>  <PSA>  (329) 
33.95

>  <Standard Type>  (329) 
nan

>  <Standard Relation>  (329) 
nan

>  <Standard Units>  (329) 
nan

>  <Standard Value>  (329) 
nan

>  <Assay ChEMBL ID>  (329) 
nan

>  <Assay Description>  (329) 
nan

>  <BAO Label>  (329) 
nan

$$$$

     RDKit          2D

 10 11  0  0  0  0  0  0  0  0999 V2000
   -3.5736    1.2902    0.0000 Cl  0  0  0  0  0  0  0  0  0  0  0  0
   -2.1470    1.7537    0.0000 C   0  0  0  0  0  0  0  0  0  0  0  0
   -1.8351    3.2209    0.0000 C   0  0  0  0  0  0  0  0  0  0  0  0
   -0.4086    3.6844    0.0000 C   0  0  0  0  0  0  0  0  0  0  0  0
    0.7062    2.6807    0.0000 N   0  0  0  0  0  0  0  0  0  0  0  0
    0.3943    1.2135    0.0000 C   0  0  0  0  0  0  0  0  0  0  0  0
    1.2760    0.0000    0.0000 N   0  0  0  0  0  0  0  0  0  0  0  0
    0.3943   -1.2135    0.0000 C   0  0  0  0  0  0  0  0  0  0  0  0
   -1.0323   -0.7500    0.0000 N   0  0  0  0  0  0  0  0  0  0  0  0
   -1.0323    0.7500    0.0000 C   0  0  0  0  0  0  0  0  0  0  0  0
  2  1  1  6
  2  3  1  0
  3  4  2  0
  4  5  1  0
  5  6  2  0
  6  7  1  0
  7  8  2  0
  8  9  1  0
  9 10  2  0
 10  2  1  0
 10  6  1  0
M  END
>  <Compound_ID>  (330) 
C64033246

>  <Active>  (330) 
0

>  <Smiles>  (330) 
Cl[C@@H]1C=CN=C2N=CN=C21

>  <canonical_smi>  (330) 
Cl[C@@H]1C=CN=C2N=CN=C21

>  <Set>  (330) 
G2 inactive

>  <Set_type>  (330) 
Train

>  <MW>  (330) 
153.57

>  <HBD>  (330) 
0

>  <HBA>  (330) 
0

>  <NRB>  (330) 
0

>  <NR>  (330) 
2

>  <NAR>  (330) 
0

>  <PSA>  (330) 
37.08

>  <Standard Type>  (330) 
nan

>  <Standard Relation>  (330) 
nan

>  <Standard Units>  (330) 
nan

>  <Standard Value>  (330) 
nan

>  <Assay ChEMBL ID>  (330) 
nan

>  <Assay Description>  (330) 
nan

>  <BAO Label>  (330) 
nan

$$$$

     RDKit          2D

 13 14  0  0  0  0  0  0  0  0999 V2000
   -2.6401   -3.1891    0.0000 C   0  0  0  0  0  0  0  0  0  0  0  0
   -1.2135   -2.7256    0.0000 C   0  0  0  0  0  0  0  0  0  0  0  0
   -0.0000   -3.6073    0.0000 N   0  0  0  0  0  0  0  0  0  0  0  0
    1.2135   -2.7256    0.0000 C   0  0  0  0  0  0  0  0  0  0  0  0
    2.6401   -3.1891    0.0000 C   0  0  0  0  0  0  0  0  0  0  0  0
    0.7500   -1.2990    0.0000 C   0  0  0  0  0  0  0  0  0  0  0  0
    1.5000    0.0000    0.0000 C   0  0  0  0  0  0  0  0  0  0  0  0
    3.0000    0.0000    0.0000 O   0  0  0  0  0  0  0  0  0  0  0  0
    0.7500    1.2990    0.0000 N   0  0  0  0  0  0  0  0  0  0  0  0
   -0.7500    1.2990    0.0000 N   0  0  0  0  0  0  0  0  0  0  0  0
   -1.5000    0.0000    0.0000 C   0  0  0  0  0  0  0  0  0  0  0  0
   -3.0000    0.0000    0.0000 C   0  0  0  0  0  0  0  0  0  0  0  0
   -0.7500   -1.2990    0.0000 C   0  0  0  0  0  0  0  0  0  0  0  0
  1  2  1  0
  2  3  2  0
  3  4  1  0
  4  5  1  0
  4  6  2  0
  6  7  1  0
  7  8  2  0
  7  9  1  0
  9 10  2  0
 10 11  1  0
 11 12  1  0
 11 13  2  0
 13  2  1  0
 13  6  1  0
M  END
>  <Compound_ID>  (331) 
C65335532

>  <Active>  (331) 
0

>  <Smiles>  (331) 
CC1=NC(C)=C2C(=O)N=NC(C)=C12

>  <canonical_smi>  (331) 
CC1=NC(C)=C2C(=O)N=NC(C)=C12

>  <Set>  (331) 
G2 inactive

>  <Set_type>  (331) 
Train

>  <MW>  (331) 
175.19

>  <HBD>  (331) 
0

>  <HBA>  (331) 
1

>  <NRB>  (331) 
0

>  <NR>  (331) 
2

>  <NAR>  (331) 
0

>  <PSA>  (331) 
54.15

>  <Standard Type>  (331) 
nan

>  <Standard Relation>  (331) 
nan

>  <Standard Units>  (331) 
nan

>  <Standard Value>  (331) 
nan

>  <Assay ChEMBL ID>  (331) 
nan

>  <Assay Description>  (331) 
nan

>  <BAO Label>  (331) 
nan

$$$$

     RDKit          2D

 16 18  0  0  0  0  0  0  0  0999 V2000
    1.5000   -5.1962    0.0000 N   0  0  0  0  0  0  0  0  0  0  0  0
    0.7500   -3.8971    0.0000 N   0  0  0  0  0  0  0  0  0  0  0  0
    1.5000   -2.5981    0.0000 C   0  0  0  0  0  0  0  0  0  0  0  0
    3.0000   -2.5981    0.0000 O   0  0  0  0  0  0  0  0  0  0  0  0
    0.7500   -1.2990    0.0000 C   0  0  0  0  0  0  0  0  0  0  0  0
    1.5000    0.0000    0.0000 C   0  0  0  0  0  0  0  0  0  0  0  0
    0.7500    1.2990    0.0000 C   0  0  0  0  0  0  0  0  0  0  0  0
   -0.7500    1.2990    0.0000 C   0  0  0  0  0  0  0  0  0  0  0  0
   -1.5000    0.0000    0.0000 C   0  0  0  0  0  0  0  0  0  0  0  0
   -3.0000   -0.0000    0.0000 C   0  0  0  0  0  0  0  0  0  0  0  0
   -3.7500   -1.2990    0.0000 C   0  0  0  0  0  0  0  0  0  0  0  0
   -3.0000   -2.5981    0.0000 C   0  0  0  0  0  0  0  0  0  0  0  0
   -1.5000   -2.5981    0.0000 C   0  0  0  0  0  0  0  0  0  0  0  0
   -0.7500   -3.8971    0.0000 C   0  0  0  0  0  0  0  0  0  0  0  0
   -1.5000   -5.1962    0.0000 O   0  0  0  0  0  0  0  0  0  0  0  0
   -0.7500   -1.2990    0.0000 C   0  0  0  0  0  0  0  0  0  0  0  0
  1  2  1  0
  2  3  1  0
  3  4  2  0
  3  5  1  0
  5  6  2  0
  6  7  1  0
  7  8  2  0
  8  9  1  0
  9 10  2  0
 10 11  1  0
 11 12  2  0
 13 12  1  6
 13 14  1  0
 14 15  2  0
 13 16  1  0
 14  2  1  0
 16  5  1  1
 16  9  1  0
M  END
>  <Compound_ID>  (332) 
C04984854

>  <Active>  (332) 
0

>  <Smiles>  (332) 
NN1C(=O)C2=CC=CC3=CC=C[C@@H](C1=O)[C@@H]32

>  <canonical_smi>  (332) 
NN1C(=O)C2=CC=CC3=CC=C[C@@H](C1=O)[C@@H]32

>  <Set>  (332) 
G2 inactive

>  <Set_type>  (332) 
Train

>  <MW>  (332) 
214.22

>  <HBD>  (332) 
1

>  <HBA>  (332) 
3

>  <NRB>  (332) 
0

>  <NR>  (332) 
3

>  <NAR>  (332) 
0

>  <PSA>  (332) 
63.4

>  <Standard Type>  (332) 
nan

>  <Standard Relation>  (332) 
nan

>  <Standard Units>  (332) 
nan

>  <Standard Value>  (332) 
nan

>  <Assay ChEMBL ID>  (332) 
nan

>  <Assay Description>  (332) 
nan

>  <BAO Label>  (332) 
nan

$$$$

     RDKit          2D

 12 13  0  0  0  0  0  0  0  0999 V2000
    3.0000    0.0000    0.0000 O   0  0  0  0  0  0  0  0  0  0  0  0
    1.5000    0.0000    0.0000 C   0  0  0  0  0  0  0  0  0  0  0  0
    0.7500   -1.2990    0.0000 N   0  0  0  0  0  0  0  0  0  0  0  0
   -0.7500   -1.2990    0.0000 C   0  0  0  0  0  0  0  0  0  0  0  0
   -1.5000    0.0000    0.0000 C   0  0  0  0  0  0  0  0  0  0  0  0
   -3.0000    0.0000    0.0000 C   0  0  0  0  0  0  0  0  0  0  0  0
   -3.7500    1.2990    0.0000 C   0  0  0  0  0  0  0  0  0  0  0  0
   -3.0000    2.5981    0.0000 C   0  0  0  0  0  0  0  0  0  0  0  0
   -3.7500    3.8971    0.0000 Cl  0  0  0  0  0  0  0  0  0  0  0  0
   -1.5000    2.5981    0.0000 C   0  0  0  0  0  0  0  0  0  0  0  0
   -0.7500    1.2990    0.0000 C   0  0  0  0  0  0  0  0  0  0  0  0
    0.7500    1.2990    0.0000 N   0  0  0  0  0  0  0  0  0  0  0  0
  1  2  2  0
  2  3  1  0
  3  4  1  0
  4  5  2  0
  5  6  1  0
  6  7  2  0
  7  8  1  0
  8  9  1  0
  8 10  2  0
 10 11  1  0
 11 12  1  6
 12  2  1  0
 11  5  1  0
M  END
>  <Compound_ID>  (333) 
C22009909

>  <Active>  (333) 
0

>  <Smiles>  (333) 
O=C1NC=C2C=CC(Cl)=C[C@@H]2N1

>  <canonical_smi>  (333) 
O=C1NC=C2C=CC(Cl)=C[C@@H]2N1

>  <Set>  (333) 
G2 inactive

>  <Set_type>  (333) 
Train

>  <MW>  (333) 
182.61

>  <HBD>  (333) 
2

>  <HBA>  (333) 
1

>  <NRB>  (333) 
0

>  <NR>  (333) 
2

>  <NAR>  (333) 
0

>  <PSA>  (333) 
41.13

>  <Standard Type>  (333) 
nan

>  <Standard Relation>  (333) 
nan

>  <Standard Units>  (333) 
nan

>  <Standard Value>  (333) 
nan

>  <Assay ChEMBL ID>  (333) 
nan

>  <Assay Description>  (333) 
nan

>  <BAO Label>  (333) 
nan

$$$$

     RDKit          2D

 11 12  0  0  0  0  0  0  0  0999 V2000
   -3.5736    1.2902    0.0000 N   0  0  0  0  0  0  0  0  0  0  0  0
   -2.1470    1.7537    0.0000 C   0  0  0  0  0  0  0  0  0  0  0  0
   -1.8351    3.2209    0.0000 C   0  0  0  0  0  0  0  0  0  0  0  0
   -0.4086    3.6844    0.0000 C   0  0  0  0  0  0  0  0  0  0  0  0
   -0.0967    5.1517    0.0000 Br  0  0  0  0  0  0  0  0  0  0  0  0
    0.7062    2.6807    0.0000 C   0  0  0  0  0  0  0  0  0  0  0  0
    0.3943    1.2135    0.0000 N   0  0  0  0  0  0  0  0  0  0  0  0
    1.2760    0.0000    0.0000 C   0  0  0  0  0  0  0  0  0  0  0  0
    0.3943   -1.2135    0.0000 N   0  0  0  0  0  0  0  0  0  0  0  0
   -1.0323   -0.7500    0.0000 N   0  0  0  0  0  0  0  0  0  0  0  0
   -1.0323    0.7500    0.0000 C   0  0  0  0  0  0  0  0  0  0  0  0
  1  2  1  0
  2  3  2  0
  3  4  1  0
  4  5  1  0
  4  6  2  0
  6  7  1  0
  7  8  1  0
  8  9  2  0
  9 10  1  0
 10 11  2  0
 11  2  1  0
 11  7  1  0
M  END
>  <Compound_ID>  (334) 
C36242501

>  <Active>  (334) 
0

>  <Smiles>  (334) 
Nc1cc(Br)cn2cnnc12

>  <canonical_smi>  (334) 
Nc1cc(Br)cn2cnnc12

>  <Set>  (334) 
G2 inactive

>  <Set_type>  (334) 
Train

>  <MW>  (334) 
213.04

>  <HBD>  (334) 
1

>  <HBA>  (334) 
3

>  <NRB>  (334) 
0

>  <NR>  (334) 
2

>  <NAR>  (334) 
2

>  <PSA>  (334) 
56.21

>  <Standard Type>  (334) 
nan

>  <Standard Relation>  (334) 
nan

>  <Standard Units>  (334) 
nan

>  <Standard Value>  (334) 
nan

>  <Assay ChEMBL ID>  (334) 
nan

>  <Assay Description>  (334) 
nan

>  <BAO Label>  (334) 
nan

$$$$

     RDKit          2D

 14 14  0  0  0  0  0  0  0  0999 V2000
    3.7500   -1.2990    0.0000 C   0  0  0  0  0  0  0  0  0  0  0  0
    3.0000    0.0000    0.0000 N   0  0  0  0  0  0  0  0  0  0  0  0
    3.7500    1.2990    0.0000 C   0  0  0  0  0  0  0  0  0  0  0  0
    5.2500    1.2990    0.0000 C   0  0  0  0  0  0  0  0  0  0  0  0
    6.0000    2.5981    0.0000 C   0  0  0  0  0  0  0  0  0  0  0  0
    6.7500    3.8971    0.0000 N   0  0  0  0  0  0  0  0  0  0  0  0
    1.5000    0.0000    0.0000 C   0  0  0  0  0  0  0  0  0  0  0  0
    0.7500   -1.2990    0.0000 C   0  0  0  0  0  0  0  0  0  0  0  0
   -0.7500   -1.2990    0.0000 C   0  0  0  0  0  0  0  0  0  0  0  0
   -1.5000   -2.5981    0.0000 N   0  0  0  0  0  0  0  0  0  0  0  0
   -1.5000    0.0000    0.0000 C   0  0  0  0  0  0  0  0  0  0  0  0
   -0.7500    1.2990    0.0000 C   0  0  0  0  0  0  0  0  0  0  0  0
   -1.5000    2.5981    0.0000 F   0  0  0  0  0  0  0  0  0  0  0  0
    0.7500    1.2990    0.0000 C   0  0  0  0  0  0  0  0  0  0  0  0
  1  2  1  0
  2  3  1  0
  3  4  1  0
  4  5  1  0
  5  6  3  0
  2  7  1  0
  7  8  2  0
  8  9  1  0
  9 10  1  0
  9 11  2  0
 11 12  1  0
 12 13  1  0
 12 14  2  0
 14  7  1  0
M  END
>  <Compound_ID>  (335) 
C37666624

>  <Active>  (335) 
0

>  <Smiles>  (335) 
CN(CCC#N)c1cc(N)cc(F)c1

>  <canonical_smi>  (335) 
CN(CCC#N)c1cc(N)cc(F)c1

>  <Set>  (335) 
G2 inactive

>  <Set_type>  (335) 
Train

>  <MW>  (335) 
193.22

>  <HBD>  (335) 
1

>  <HBA>  (335) 
3

>  <NRB>  (335) 
3

>  <NR>  (335) 
1

>  <NAR>  (335) 
1

>  <PSA>  (335) 
53.05

>  <Standard Type>  (335) 
nan

>  <Standard Relation>  (335) 
nan

>  <Standard Units>  (335) 
nan

>  <Standard Value>  (335) 
nan

>  <Assay ChEMBL ID>  (335) 
nan

>  <Assay Description>  (335) 
nan

>  <BAO Label>  (335) 
nan

$$$$

     RDKit          2D

 12 13  0  0  0  0  0  0  0  0999 V2000
   -1.4958    4.6036    0.0000 O   0  0  0  0  0  0  0  0  0  0  0  0
   -1.0323    3.1771    0.0000 C   0  0  0  0  0  0  0  0  0  0  0  0
    0.3943    2.7135    0.0000 C   0  0  0  0  0  0  0  0  0  0  0  0
    0.3943    1.2135    0.0000 C   0  0  0  0  0  0  0  0  0  0  0  0
    1.2760    0.0000    0.0000 C   0  0  0  0  0  0  0  0  0  0  0  0
    0.3943   -1.2135    0.0000 C   0  0  0  0  0  0  0  0  0  0  0  0
    0.8578   -2.6401    0.0000 O   0  0  0  0  0  0  0  0  0  0  0  0
   -1.0323   -0.7500    0.0000 O   0  0  0  0  0  0  0  0  0  0  0  0
   -1.0323    0.7500    0.0000 C   0  0  0  0  0  0  0  0  0  0  0  0
   -1.9140    1.9635    0.0000 C   0  0  0  0  0  0  0  0  0  0  0  0
   -3.0287    2.9672    0.0000 F   0  0  0  0  0  0  0  0  0  0  0  0
   -3.0287    0.9598    0.0000 F   0  0  0  0  0  0  0  0  0  0  0  0
  2  1  1  6
  2  3  1  0
  4  3  1  6
  4  5  1  0
  5  6  1  0
  6  7  1  6
  6  8  1  0
  9  8  1  6
  9 10  1  0
 10 11  1  0
 10 12  1  0
 10  2  1  0
  9  4  1  0
M  END
>  <Compound_ID>  (336) 
C39111962

>  <Active>  (336) 
0

>  <Smiles>  (336) 
O[C@@H]1C[C@@H]2C[C@H](O)O[C@@H]2C1(F)F

>  <canonical_smi>  (336) 
O[C@H]1C[C@H]2C[C@@H](O)C(F)(F)[C@H]2O1

>  <Set>  (336) 
G2 inactive

>  <Set_type>  (336) 
Train

>  <MW>  (336) 
180.15

>  <HBD>  (336) 
2

>  <HBA>  (336) 
3

>  <NRB>  (336) 
0

>  <NR>  (336) 
2

>  <NAR>  (336) 
0

>  <PSA>  (336) 
49.69

>  <Standard Type>  (336) 
nan

>  <Standard Relation>  (336) 
nan

>  <Standard Units>  (336) 
nan

>  <Standard Value>  (336) 
nan

>  <Assay ChEMBL ID>  (336) 
nan

>  <Assay Description>  (336) 
nan

>  <BAO Label>  (336) 
nan

$$$$

     RDKit          2D

 14 15  0  0  0  0  0  0  0  0999 V2000
    3.0000    0.0000    0.0000 O   0  0  0  0  0  0  0  0  0  0  0  0
    1.5000    0.0000    0.0000 C   0  0  0  0  0  0  0  0  0  0  0  0
    0.7500   -1.2990    0.0000 C   0  0  0  0  0  0  0  0  0  0  0  0
   -0.7500   -1.2990    0.0000 C   0  0  0  0  0  0  0  0  0  0  0  0
   -1.5000    0.0000    0.0000 C   0  0  0  0  0  0  0  0  0  0  0  0
   -0.7500    1.2990    0.0000 C   0  0  0  0  0  0  0  0  0  0  0  0
    0.0000    2.5981    0.0000 C   0  0  0  0  0  0  0  0  0  0  0  0
   -0.7500    3.8971    0.0000 C   0  0  0  0  0  0  0  0  0  0  0  0
   -2.2500    3.8971    0.0000 C   0  0  0  0  0  0  0  0  0  0  0  0
   -3.0000    2.5981    0.0000 C   0  0  0  0  0  0  0  0  0  0  0  0
   -4.5000    2.5981    0.0000 O   0  0  0  0  0  0  0  0  0  0  0  0
   -2.2500    1.2990    0.0000 N   0  0  0  0  0  0  0  0  0  0  0  0
   -3.0000    0.0000    0.0000 F   0  0  0  0  0  0  0  0  0  0  0  0
    0.7500    1.2990    0.0000 C   0  0  0  0  0  0  0  0  0  0  0  0
  2  1  1  6
  2  3  1  0
  3  4  1  0
  4  5  1  0
  6  5  1  1
  6  7  1  0
  7  8  1  0
  8  9  1  0
  9 10  1  0
 10 11  1  1
 10 12  1  0
 12 13  1  0
  6 14  1  0
 14  2  1  0
 12  6  1  0
M  END
>  <Compound_ID>  (337) 
C39523721

>  <Active>  (337) 
0

>  <Smiles>  (337) 
O[C@@H]1CCC[C@@]2(CCC[C@H](O)N2F)C1

>  <canonical_smi>  (337) 
O[C@H]1CCC[C@@]2(CCC[C@@H](O)C2)N1F

>  <Set>  (337) 
G2 inactive

>  <Set_type>  (337) 
Train

>  <MW>  (337) 
203.26

>  <HBD>  (337) 
2

>  <HBA>  (337) 
3

>  <NRB>  (337) 
0

>  <NR>  (337) 
2

>  <NAR>  (337) 
0

>  <PSA>  (337) 
43.7

>  <Standard Type>  (337) 
nan

>  <Standard Relation>  (337) 
nan

>  <Standard Units>  (337) 
nan

>  <Standard Value>  (337) 
nan

>  <Assay ChEMBL ID>  (337) 
nan

>  <Assay Description>  (337) 
nan

>  <BAO Label>  (337) 
nan

$$$$

     RDKit          2D

 10  9  0  0  0  0  0  0  0  0999 V2000
    0.0000    0.0000    0.0000 C   0  0  0  0  0  0  0  0  0  0  0  0
    1.2990    0.7500    0.0000 C   0  0  0  0  0  0  0  0  0  0  0  0
    1.2990    2.2500    0.0000 O   0  0  0  0  0  0  0  0  0  0  0  0
    2.5981   -0.0000    0.0000 C   0  0  0  0  0  0  0  0  0  0  0  0
    3.8971    0.7500    0.0000 N   0  0  0  0  0  0  0  0  0  0  0  0
    5.1962   -0.0000    0.0000 C   0  0  0  0  0  0  0  0  0  0  0  0
    5.1962   -1.5000    0.0000 O   0  0  0  0  0  0  0  0  0  0  0  0
    6.4952    0.7500    0.0000 C   0  0  0  0  0  0  0  0  0  0  0  0
    7.7942   -0.0000    0.0000 C   0  0  0  0  0  0  0  0  0  0  0  0
    6.4952    2.2500    0.0000 Br  0  0  0  0  0  0  0  0  0  0  0  0
  2  1  1  6
  2  3  1  0
  2  4  1  0
  4  5  1  0
  5  6  1  0
  6  7  2  0
  6  8  1  0
  8  9  1  1
  8 10  1  0
M  END
>  <Compound_ID>  (338) 
C41727620

>  <Active>  (338) 
0

>  <Smiles>  (338) 
C[C@H](O)CNC(=O)[C@H](C)Br

>  <canonical_smi>  (338) 
C[C@H](O)CNC(=O)[C@H](C)Br

>  <Set>  (338) 
G2 inactive

>  <Set_type>  (338) 
Train

>  <MW>  (338) 
210.07

>  <HBD>  (338) 
2

>  <HBA>  (338) 
2

>  <NRB>  (338) 
3

>  <NR>  (338) 
0

>  <NAR>  (338) 
0

>  <PSA>  (338) 
49.33

>  <Standard Type>  (338) 
nan

>  <Standard Relation>  (338) 
nan

>  <Standard Units>  (338) 
nan

>  <Standard Value>  (338) 
nan

>  <Assay ChEMBL ID>  (338) 
nan

>  <Assay Description>  (338) 
nan

>  <BAO Label>  (338) 
nan

$$$$

     RDKit          2D

 13 12  0  0  0  0  0  0  0  0999 V2000
    0.0000    0.0000    0.0000 C   0  0  0  0  0  0  0  0  0  0  0  0
    1.2990    0.7500    0.0000 C   0  0  0  0  0  0  0  0  0  0  0  0
    2.5981   -0.0000    0.0000 C   0  0  0  0  0  0  0  0  0  0  0  0
    1.2990    2.2500    0.0000 N   0  0  0  0  0  0  0  0  0  0  0  0
    2.5981    3.0000    0.0000 C   0  0  0  0  0  0  0  0  0  0  0  0
   -0.0000    3.0000    0.0000 C   0  0  0  0  0  0  0  0  0  0  0  0
   -1.2990    2.2500    0.0000 O   0  0  0  0  0  0  0  0  0  0  0  0
   -0.0000    4.5000    0.0000 C   0  0  0  0  0  0  0  0  0  0  0  0
    1.5000    4.5000    0.0000 C   0  0  0  0  0  0  0  0  0  0  0  0
   -1.5000    4.5000    0.0000 C   0  0  0  0  0  0  0  0  0  0  0  0
   -0.0000    6.0000    0.0000 C   0  0  0  0  0  0  0  0  0  0  0  0
    1.2990    6.7500    0.0000 N   0  0  0  0  0  0  0  0  0  0  0  0
   -1.2990    6.7500    0.0000 S   0  0  0  0  0  0  0  0  0  0  0  0
  1  2  1  0
  2  3  1  0
  2  4  1  0
  4  5  1  0
  4  6  1  0
  6  7  2  0
  6  8  1  0
  8  9  1  0
  8 10  1  0
  8 11  1  0
 11 12  1  0
 11 13  2  0
M  END
>  <Compound_ID>  (339) 
C44768211

>  <Active>  (339) 
0

>  <Smiles>  (339) 
CC(C)N(C)C(=O)C(C)(C)C(N)=S

>  <canonical_smi>  (339) 
CC(C)N(C)C(=O)C(C)(C)C(N)=S

>  <Set>  (339) 
G2 inactive

>  <Set_type>  (339) 
Train

>  <MW>  (339) 
202.32

>  <HBD>  (339) 
1

>  <HBA>  (339) 
3

>  <NRB>  (339) 
3

>  <NR>  (339) 
0

>  <NAR>  (339) 
0

>  <PSA>  (339) 
46.33

>  <Standard Type>  (339) 
nan

>  <Standard Relation>  (339) 
nan

>  <Standard Units>  (339) 
nan

>  <Standard Value>  (339) 
nan

>  <Assay ChEMBL ID>  (339) 
nan

>  <Assay Description>  (339) 
nan

>  <BAO Label>  (339) 
nan

$$$$

     RDKit          2D

 12 13  0  0  0  0  0  0  0  0999 V2000
    1.3299    5.6152    0.0000 N   0  0  0  0  0  0  0  0  0  0  0  0
   -0.0967    5.1517    0.0000 C   0  0  0  0  0  0  0  0  0  0  0  0
   -0.4086    3.6844    0.0000 C   0  0  0  0  0  0  0  0  0  0  0  0
    0.7062    2.6807    0.0000 C   0  0  0  0  0  0  0  0  0  0  0  0
    0.3943    1.2135    0.0000 C   0  0  0  0  0  0  0  0  0  0  0  0
    1.2760    0.0000    0.0000 O   0  0  0  0  0  0  0  0  0  0  0  0
    0.3943   -1.2135    0.0000 C   0  0  0  0  0  0  0  0  0  0  0  0
   -1.0323   -0.7500    0.0000 O   0  0  0  0  0  0  0  0  0  0  0  0
   -1.0323    0.7500    0.0000 C   0  0  0  0  0  0  0  0  0  0  0  0
   -2.1470    1.7537    0.0000 C   0  0  0  0  0  0  0  0  0  0  0  0
   -1.8351    3.2209    0.0000 C   0  0  0  0  0  0  0  0  0  0  0  0
   -2.9499    4.2246    0.0000 Cl  0  0  0  0  0  0  0  0  0  0  0  0
  1  2  1  0
  2  3  1  0
  3  4  2  0
  4  5  1  0
  5  6  1  1
  6  7  1  0
  7  8  1  0
  9  8  1  1
  9 10  1  0
 10 11  2  0
 11 12  1  0
 11  3  1  0
  9  5  1  0
M  END
>  <Compound_ID>  (340) 
C67173047

>  <Active>  (340) 
0

>  <Smiles>  (340) 
NCC1=C[C@H]2OCO[C@H]2C=C1Cl

>  <canonical_smi>  (340) 
NCC1=C[C@H]2OCO[C@H]2C=C1Cl

>  <Set>  (340) 
G2 inactive

>  <Set_type>  (340) 
Train

>  <MW>  (340) 
187.63

>  <HBD>  (340) 
1

>  <HBA>  (340) 
3

>  <NRB>  (340) 
1

>  <NR>  (340) 
2

>  <NAR>  (340) 
0

>  <PSA>  (340) 
44.48

>  <Standard Type>  (340) 
nan

>  <Standard Relation>  (340) 
nan

>  <Standard Units>  (340) 
nan

>  <Standard Value>  (340) 
nan

>  <Assay ChEMBL ID>  (340) 
nan

>  <Assay Description>  (340) 
nan

>  <BAO Label>  (340) 
nan

$$$$

     RDKit          2D

 34 38  0  0  0  0  0  0  0  0999 V2000
    2.2500    6.4952    0.0000 C   0  0  0  0  0  0  0  0  0  0  0  0
    0.7500    6.4952    0.0000 O   0  0  0  0  0  0  0  0  0  0  0  0
    0.0000    5.1962    0.0000 C   0  0  0  0  0  0  0  0  0  0  0  0
    0.7500    3.8971    0.0000 O   0  0  0  0  0  0  0  0  0  0  0  0
   -1.5000    5.1962    0.0000 C   0  0  0  0  0  0  0  0  0  0  0  0
   -2.2500    3.8971    0.0000 C   0  0  0  0  0  0  0  0  0  0  0  0
   -3.7500    3.8971    0.0000 C   0  0  0  0  0  0  0  0  0  0  0  0
   -3.4895    5.3743    0.0000 C   0  0  0  0  0  0  0  0  0  0  0  0
   -5.1595    4.4101    0.0000 C   0  0  0  0  0  0  0  0  0  0  0  0
   -4.5000    2.5981    0.0000 C   0  0  0  0  0  0  0  0  0  0  0  0
   -6.0000    2.5981    0.0000 O   0  0  0  0  0  0  0  0  0  0  0  0
   -3.7500    1.2990    0.0000 C   0  0  0  0  0  0  0  0  0  0  0  0
   -3.0000    0.0000    0.0000 C   0  0  0  0  0  0  0  0  0  0  0  0
   -1.5000    0.0000    0.0000 C   0  0  0  0  0  0  0  0  0  0  0  0
   -0.7500   -1.2990    0.0000 C   0  0  0  0  0  0  0  0  0  0  0  0
   -1.5000   -2.5981    0.0000 C   0  0  0  0  0  0  0  0  0  0  0  0
   -0.7500   -3.8971    0.0000 C   0  0  0  0  0  0  0  0  0  0  0  0
   -1.5000   -5.1962    0.0000 O   0  0  0  0  0  0  0  0  0  0  0  0
    0.7500   -3.8971    0.0000 O   0  0  0  0  0  0  0  0  0  0  0  0
    1.5000   -2.5981    0.0000 C   0  0  0  0  0  0  0  0  0  0  0  0
    3.0000   -2.5981    0.0000 C   0  0  0  0  0  0  0  0  0  0  0  0
    3.8817   -1.3846    0.0000 C   0  0  0  0  0  0  0  0  0  0  0  0
    5.3083   -1.8481    0.0000 C   0  0  0  0  0  0  0  0  0  0  0  0
    5.3083   -3.3481    0.0000 O   0  0  0  0  0  0  0  0  0  0  0  0
    3.8817   -3.8116    0.0000 C   0  0  0  0  0  0  0  0  0  0  0  0
    0.7500   -1.2990    0.0000 C   0  0  0  0  0  0  0  0  0  0  0  0
    2.2500   -1.2990    0.0000 C   0  0  0  0  0  0  0  0  0  0  0  0
    1.5000    0.0000    0.0000 C   0  0  0  0  0  0  0  0  0  0  0  0
    0.7500    1.2990    0.0000 C   0  0  0  0  0  0  0  0  0  0  0  0
   -0.7500    1.2990    0.0000 C   0  0  0  0  0  0  0  0  0  0  0  0
   -1.5000    2.5981    0.0000 C   0  0  0  0  0  0  0  0  0  0  0  0
   -0.7500    3.8971    0.0000 C   0  0  0  0  0  0  0  0  0  0  0  0
   -3.0000    2.5981    0.0000 C   0  0  0  0  0  0  0  0  0  0  0  0
   -3.5538    3.1715    0.0000 O   0  0  0  0  0  0  0  0  0  0  0  0
  1  2  1  0
  2  3  1  0
  3  4  2  0
  3  5  1  0
  6  5  1  6
  6  7  1  0
  7  8  1  0
  7  9  1  0
  7 10  1  0
 10 11  1  1
 10 12  1  0
 12 13  1  1
 13 14  1  0
 14 15  2  0
 15 16  1  0
 16 17  1  0
 17 18  1  6
 17 19  1  0
 19 20  1  0
 20 21  1  6
 21 22  1  0
 22 23  2  0
 23 24  1  0
 24 25  1  0
 20 26  1  0
 26 27  1  6
 26 28  1  0
 28 29  1  0
 30 29  1  6
 30 31  1  0
 31 32  1  6
 31 33  1  0
 33 34  2  0
 31  6  1  0
 33 12  1  0
 30 14  1  0
 26 15  1  0
 25 21  2  0
M  END
>  <Compound_ID>  (341) 
C03978301

>  <Active>  (341) 
0

>  <Smiles>  (341) 
COC(=O)C[C@H]1C(C)(C)[C@H](O)[C@@H]2CC3=C4C[C@@H](O)O[C@@H](c5ccoc5)[C@]4(C)CC[C@H]3[C@@]1(C)C2=O

>  <canonical_smi>  (341) 
COC(=O)C[C@H]1C(C)(C)[C@H](O)[C@@H]2CC3=C4C[C@@H](O)O[C@@H](c5ccoc5)[C@]4(C)CC[C@H]3[C@@]1(C)C2=O

>  <Set>  (341) 
G2 inactive

>  <Set_type>  (341) 
Train

>  <MW>  (341) 
472.58

>  <HBD>  (341) 
2

>  <HBA>  (341) 
7

>  <NRB>  (341) 
3

>  <NR>  (341) 
5

>  <NAR>  (341) 
1

>  <PSA>  (341) 
106.2

>  <Standard Type>  (341) 
nan

>  <Standard Relation>  (341) 
nan

>  <Standard Units>  (341) 
nan

>  <Standard Value>  (341) 
nan

>  <Assay ChEMBL ID>  (341) 
nan

>  <Assay Description>  (341) 
nan

>  <BAO Label>  (341) 
nan

$$$$

     RDKit          2D

 31 33  0  0  0  0  0  0  0  0999 V2000
    3.0000   -5.1962    0.0000 H   0  0  0  0  0  0  0  0  0  0  0  0
    1.5000   -5.1962    0.0000 N   0  0  0  0  0  0  0  0  0  0  0  0
    0.7500   -3.8971    0.0000 C   0  0  0  0  0  0  0  0  0  0  0  0
    1.5000   -2.5981    0.0000 C   0  0  0  0  0  0  0  0  0  0  0  0
    3.0000   -2.5981    0.0000 C   0  0  0  0  0  0  0  0  0  0  0  0
    4.5000   -2.5981    0.0000 N   0  0  0  0  0  0  0  0  0  0  0  0
    0.7500   -1.2990    0.0000 C   0  0  0  0  0  0  0  0  0  0  0  0
    1.5000    0.0000    0.0000 C   0  0  0  0  0  0  0  0  0  0  0  0
    0.7500    1.2990    0.0000 C   0  0  0  0  0  0  0  0  0  0  0  0
   -0.7500    1.2990    0.0000 N   0  0  0  0  0  4  0  0  0  0  0  0
   -1.5000    2.5981    0.0000 C   0  0  0  0  0  0  0  0  0  0  0  0
   -0.7500    3.8971    0.0000 C   0  0  0  0  0  0  0  0  0  0  0  0
   -1.5000    5.1962    0.0000 C   0  0  0  0  0  0  0  0  0  0  0  0
   -1.5000    0.0000    0.0000 C   0  0  0  0  0  0  0  0  0  0  0  0
   -0.7500   -1.2990    0.0000 C   0  0  0  0  0  0  0  0  0  0  0  0
   -1.5000   -2.5981    0.0000 C   0  0  0  0  0  0  0  0  0  0  0  0
   -3.0000   -2.5981    0.0000 C   0  0  0  0  0  0  0  0  0  0  0  0
   -3.7500   -1.2990    0.0000 C   0  0  0  0  0  0  0  0  0  0  0  0
   -5.2500   -1.2990    0.0000 C   0  0  0  0  0  0  0  0  0  0  0  0
   -6.0000   -2.5981    0.0000 C   0  0  0  0  0  0  0  0  0  0  0  0
   -7.5000   -2.5981    0.0000 Cl  0  0  0  0  0  0  0  0  0  0  0  0
   -5.2500   -3.8971    0.0000 C   0  0  0  0  0  0  0  0  0  0  0  0
   -3.7500   -3.8971    0.0000 C   0  0  0  0  0  0  0  0  0  0  0  0
   -3.0000   -5.1962    0.0000 N   0  0  0  0  0  4  0  0  0  0  0  0
   -1.5000   -5.1962    0.0000 O   0  0  0  0  0  0  0  0  0  0  0  0
   -3.7500   -6.4952    0.0000 O   0  0  0  0  0  1  0  0  0  0  0  0
   -0.7500   -3.8971    0.0000 C   0  0  0  0  0  0  0  0  0  0  0  0
   -2.1595   -4.4101    0.0000 C   0  0  0  0  0  0  0  0  0  0  0  0
   -2.8204   -4.8559    0.0000 N   0  0  0  0  0  0  0  0  0  0  0  0
   -0.4895   -5.3743    0.0000 C   0  0  0  0  0  0  0  0  0  0  0  0
   -0.2291   -6.8515    0.0000 N   0  0  0  0  0  0  0  0  0  0  0  0
  1  2  1  0
  2  3  2  0
  3  4  1  0
  4  5  1  0
  5  6  3  0
  4  7  1  0
  7  8  2  0
  8  9  1  0
  9 10  1  0
 10 11  1  0
 11 12  1  0
 12 13  1  0
 10 14  1  0
 15 14  1  1
 15 16  1  0
 16 17  1  6
 17 18  2  0
 18 19  1  0
 19 20  2  0
 20 21  1  0
 20 22  1  0
 22 23  2  0
 23 24  1  0
 24 25  2  0
 24 26  1  0
 16 27  1  0
 27 28  1  0
 28 29  3  0
 27 30  1  0
 30 31  3  0
 27  3  1  0
 15  7  1  0
 23 17  1  0
M  CHG  3  10   1  24   1  26  -1
M  END
>  <Compound_ID>  (342) 
C04391521

>  <Active>  (342) 
0

>  <Smiles>  (342) 
[H]/N=C1\C(C#N)C2=CC[NH+](CCC)C[C@@H]2[C@@H](c2ccc(Cl)cc2[N+](=O)[O-])C1(C#N)C#N

>  <canonical_smi>  (342) 
[H]/N=C1\C(C#N)C2=CC[NH+](CCC)C[C@@H]2[C@@H](c2ccc(Cl)cc2[N+](=O)[O-])C1(C#N)C#N

>  <Set>  (342) 
G2 inactive

>  <Set_type>  (342) 
Train

>  <MW>  (342) 
423.88

>  <HBD>  (342) 
2

>  <HBA>  (342) 
5

>  <NRB>  (342) 
4

>  <NR>  (342) 
3

>  <NAR>  (342) 
1

>  <PSA>  (342) 
142.8

>  <Standard Type>  (342) 
nan

>  <Standard Relation>  (342) 
nan

>  <Standard Units>  (342) 
nan

>  <Standard Value>  (342) 
nan

>  <Assay ChEMBL ID>  (342) 
nan

>  <Assay Description>  (342) 
nan

>  <BAO Label>  (342) 
nan

$$$$

     RDKit          2D

 32 36  0  0  0  0  0  0  0  0999 V2000
    3.2286   -0.0000    0.0000 O   0  0  0  0  0  0  0  0  0  0  0  0
    1.7286    0.0000    0.0000 C   0  0  0  0  0  0  0  0  0  0  0  0
    1.0777    1.3515    0.0000 C   0  0  0  0  0  0  0  0  0  0  0  0
   -0.3846    1.6852    0.0000 C   0  0  0  0  0  0  0  0  0  0  0  0
   -1.5574    0.7500    0.0000 S   0  0  0  0  0  0  0  0  0  0  0  0
   -1.5574   -0.7500    0.0000 C   0  0  0  0  0  0  0  0  0  0  0  0
   -2.9537   -1.2980    0.0000 C   0  0  0  0  0  0  0  0  0  0  0  0
   -3.1773   -2.7813    0.0000 C   0  0  0  0  0  0  0  0  0  0  0  0
   -2.0045   -3.7165    0.0000 C   0  0  0  0  0  0  0  0  0  0  0  0
   -2.2281   -5.1997    0.0000 S   0  0  0  0  0  0  0  0  0  0  0  0
   -3.7113   -4.9762    0.0000 O   0  0  0  0  0  0  0  0  0  0  0  0
   -0.7448   -5.4233    0.0000 O   0  0  0  0  0  0  0  0  0  0  0  0
   -2.4516   -6.6830    0.0000 N   0  0  0  0  0  0  0  0  0  0  0  0
   -3.8480   -7.2310    0.0000 C   0  0  0  0  0  0  0  0  0  0  0  0
   -4.0715   -8.7142    0.0000 C   0  0  0  0  0  0  0  0  0  0  0  0
   -2.8988   -9.6495    0.0000 C   0  0  0  0  0  0  0  0  0  0  0  0
   -3.1223  -11.1327    0.0000 C   0  0  0  0  0  0  0  0  0  0  0  0
   -4.5186  -11.6807    0.0000 N   0  0  0  0  0  4  0  0  0  0  0  0
   -5.6914  -10.7455    0.0000 C   0  0  0  0  0  0  0  0  0  0  0  0
   -7.0877  -11.2935    0.0000 C   0  0  0  0  0  0  0  0  0  0  0  0
   -7.3113  -12.7768    0.0000 C   0  0  0  0  0  0  0  0  0  0  0  0
   -8.7076  -13.3248    0.0000 C   0  0  0  0  0  0  0  0  0  0  0  0
   -8.9311  -14.8080    0.0000 C   0  0  0  0  0  0  0  0  0  0  0  0
   -7.7584  -15.7433    0.0000 C   0  0  0  0  0  0  0  0  0  0  0  0
   -6.3621  -15.1952    0.0000 C   0  0  0  0  0  0  0  0  0  0  0  0
   -6.1385  -13.7120    0.0000 C   0  0  0  0  0  0  0  0  0  0  0  0
   -4.7422  -13.1640    0.0000 C   0  0  0  0  0  0  0  0  0  0  0  0
   -1.5025   -9.1015    0.0000 C   0  0  0  0  0  0  0  0  0  0  0  0
   -1.2789   -7.6182    0.0000 C   0  0  0  0  0  0  0  0  0  0  0  0
   -0.6082   -3.1685    0.0000 C   0  0  0  0  0  0  0  0  0  0  0  0
   -0.3846   -1.6852    0.0000 C   0  0  0  0  0  0  0  0  0  0  0  0
    1.0777   -1.3515    0.0000 N   0  0  0  0  0  0  0  0  0  0  0  0
  1  2  2  0
  2  3  1  0
  3  4  1  0
  4  5  1  0
  5  6  1  0
  6  7  2  0
  7  8  1  0
  8  9  2  0
  9 10  1  0
 10 11  2  0
 10 12  2  0
 10 13  1  0
 13 14  1  0
 14 15  1  0
 15 16  1  0
 16 17  1  0
 17 18  1  0
 18 19  1  0
 19 20  1  0
 20 21  1  0
 21 22  2  0
 22 23  1  0
 23 24  2  0
 24 25  1  0
 25 26  2  0
 26 27  1  0
 16 28  1  0
 28 29  1  0
  9 30  1  0
 30 31  2  0
 31 32  1  0
 32  2  1  0
 31  6  1  0
 29 13  1  0
 27 18  1  0
 26 21  1  0
M  CHG  1  18   1
M  END
>  <Compound_ID>  (343) 
C15731067

>  <Active>  (343) 
0

>  <Smiles>  (343) 
O=C1CCSc2ccc(S(=O)(=O)N3CCC(C[NH+]4CCc5ccccc5C4)CC3)cc2N1

>  <canonical_smi>  (343) 
O=C1CCSc2ccc(S(=O)(=O)N3CCC(C[NH+]4CCc5ccccc5C4)CC3)cc2N1

>  <Set>  (343) 
G2 inactive

>  <Set_type>  (343) 
Train

>  <MW>  (343) 
472.66

>  <HBD>  (343) 
2

>  <HBA>  (343) 
4

>  <NRB>  (343) 
4

>  <NR>  (343) 
5

>  <NAR>  (343) 
2

>  <PSA>  (343) 
70.92

>  <Standard Type>  (343) 
nan

>  <Standard Relation>  (343) 
nan

>  <Standard Units>  (343) 
nan

>  <Standard Value>  (343) 
nan

>  <Assay ChEMBL ID>  (343) 
nan

>  <Assay Description>  (343) 
nan

>  <BAO Label>  (343) 
nan

$$$$

     RDKit          2D

 26 29  0  0  0  0  0  0  0  0999 V2000
   -1.9679   -3.6517    0.0000 F   0  0  0  0  0  0  0  0  0  0  0  0
   -3.0826   -2.6480    0.0000 C   0  0  0  0  0  0  0  0  0  0  0  0
   -4.5092   -3.1115    0.0000 F   0  0  0  0  0  0  0  0  0  0  0  0
   -2.7707   -1.1807    0.0000 O   0  0  0  0  0  0  0  0  0  0  0  0
   -3.8855   -0.1771    0.0000 C   0  0  0  0  0  0  0  0  0  0  0  0
   -5.3120   -0.6406    0.0000 C   0  0  0  0  0  0  0  0  0  0  0  0
   -6.4268    0.3631    0.0000 C   0  0  0  0  0  0  0  0  0  0  0  0
   -6.1149    1.8303    0.0000 C   0  0  0  0  0  0  0  0  0  0  0  0
   -4.6883    2.2939    0.0000 C   0  0  0  0  0  0  0  0  0  0  0  0
   -3.5736    1.2902    0.0000 C   0  0  0  0  0  0  0  0  0  0  0  0
   -2.1470    1.7537    0.0000 C   0  0  0  0  0  0  0  0  0  0  0  0
   -1.8351    3.2209    0.0000 C   0  0  0  0  0  0  0  0  0  0  0  0
   -0.4086    3.6844    0.0000 C   0  0  0  0  0  0  0  0  0  0  0  0
   -0.0967    5.1517    0.0000 C   0  0  0  0  0  0  0  0  0  0  0  0
    1.3299    5.6152    0.0000 C   0  0  0  0  0  0  0  0  0  0  0  0
    1.6418    7.0824    0.0000 C   0  0  0  0  0  0  0  0  0  0  0  0
    0.5271    8.0861    0.0000 C   0  0  0  0  0  0  0  0  0  0  0  0
    0.8389    9.5533    0.0000 I   0  0  0  0  0  0  0  0  0  0  0  0
   -0.8995    7.6226    0.0000 C   0  0  0  0  0  0  0  0  0  0  0  0
   -1.2114    6.1554    0.0000 C   0  0  0  0  0  0  0  0  0  0  0  0
    0.7062    2.6807    0.0000 N   0  0  0  0  0  4  0  0  0  0  0  0
    0.3943    1.2135    0.0000 C   0  0  0  0  0  0  0  0  0  0  0  0
    1.2760    0.0000    0.0000 N   0  0  0  0  0  0  0  0  0  0  0  0
    0.3943   -1.2135    0.0000 N   0  0  0  0  0  0  0  0  0  0  0  0
   -1.0323   -0.7500    0.0000 N   0  0  0  0  0  0  0  0  0  0  0  0
   -1.0323    0.7500    0.0000 N   0  0  0  0  0  0  0  0  0  0  0  0
  1  2  1  0
  2  3  1  0
  2  4  1  0
  4  5  1  0
  5  6  2  0
  6  7  1  0
  7  8  2  0
  8  9  1  0
  9 10  2  0
 11 10  1  1
 11 12  1  0
 12 13  1  0
 13 14  1  6
 14 15  2  0
 15 16  1  0
 16 17  2  0
 17 18  1  0
 17 19  1  0
 19 20  2  0
 13 21  1  0
 21 22  2  0
 22 23  1  0
 23 24  2  0
 24 25  1  0
 25 26  1  0
 10  5  1  0
 26 11  1  0
 20 14  1  0
 26 22  1  0
M  CHG  1  21   1
M  END
>  <Compound_ID>  (344) 
C02918613

>  <Active>  (344) 
0

>  <Smiles>  (344) 
FC(F)Oc1ccccc1[C@H]1C[C@H](c2ccc(I)cc2)[NH+]=C2N=NNN21

>  <canonical_smi>  (344) 
FC(F)Oc1ccccc1[C@H]1C[C@H](c2ccc(I)cc2)[NH+]=C2N=NNN21

>  <Set>  (344) 
G2 inactive

>  <Set_type>  (344) 
Train

>  <MW>  (344) 
470.24

>  <HBD>  (344) 
2

>  <HBA>  (344) 
3

>  <NRB>  (344) 
4

>  <NR>  (344) 
4

>  <NAR>  (344) 
2

>  <PSA>  (344) 
63.19

>  <Standard Type>  (344) 
nan

>  <Standard Relation>  (344) 
nan

>  <Standard Units>  (344) 
nan

>  <Standard Value>  (344) 
nan

>  <Assay ChEMBL ID>  (344) 
nan

>  <Assay Description>  (344) 
nan

>  <BAO Label>  (344) 
nan

$$$$

     RDKit          2D

 25 28  0  0  0  0  0  0  0  0999 V2000
    3.5260    1.2990    0.0000 C   0  0  0  0  0  0  0  0  0  0  0  0
    2.7760    0.0000    0.0000 C   0  0  0  0  0  0  0  0  0  0  0  0
    3.5260   -1.2990    0.0000 C   0  0  0  0  0  0  0  0  0  0  0  0
    1.2760    0.0000    0.0000 C   0  0  0  0  0  0  0  0  0  0  0  0
    0.3943    1.2135    0.0000 C   0  0  0  0  0  0  0  0  0  0  0  0
   -1.0323    0.7500    0.0000 N   0  0  0  0  0  0  0  0  0  0  0  0
   -1.0323   -0.7500    0.0000 N   0  0  0  0  0  0  0  0  0  0  0  0
   -2.1470   -1.7537    0.0000 C   0  0  0  0  0  0  0  0  0  0  0  0
   -3.5736   -1.2902    0.0000 O   0  0  0  0  0  0  0  0  0  0  0  0
   -1.8351   -3.2209    0.0000 C   0  0  0  0  0  0  0  0  0  0  0  0
   -0.4086   -3.6844    0.0000 C   0  0  0  0  0  0  0  0  0  0  0  0
   -0.0967   -5.1517    0.0000 C   0  0  0  0  0  0  0  0  0  0  0  0
    1.2736   -5.7618    0.0000 C   0  0  0  0  0  0  0  0  0  0  0  0
    1.1168   -7.2536    0.0000 C   0  0  0  0  0  0  0  0  0  0  0  0
   -0.3504   -7.5654    0.0000 C   0  0  0  0  0  0  0  0  0  0  0  0
   -1.1004   -6.2664    0.0000 N   0  0  0  0  0  4  0  0  0  0  0  0
    0.7062   -2.6807    0.0000 N   0  0  0  0  0  0  0  0  0  0  0  0
    0.3943   -1.2135    0.0000 C   0  0  0  0  0  0  0  0  0  0  0  0
    1.8615   -1.5254    0.0000 C   0  0  0  0  0  0  0  0  0  0  0  0
    2.3250   -2.9520    0.0000 C   0  0  0  0  0  0  0  0  0  0  0  0
    1.3213   -4.0667    0.0000 C   0  0  0  0  0  0  0  0  0  0  0  0
    1.7849   -5.4933    0.0000 C   0  0  0  0  0  0  0  0  0  0  0  0
    3.2521   -5.8051    0.0000 C   0  0  0  0  0  0  0  0  0  0  0  0
    4.2558   -4.6904    0.0000 C   0  0  0  0  0  0  0  0  0  0  0  0
    3.7923   -3.2638    0.0000 C   0  0  0  0  0  0  0  0  0  0  0  0
  1  2  1  0
  2  3  1  0
  2  4  1  0
  4  5  2  0
  5  6  1  0
  6  7  1  0
  7  8  1  0
  8  9  2  0
  8 10  1  0
 10 11  2  0
 12 11  1  6
 12 13  1  0
 13 14  1  0
 14 15  1  0
 15 16  1  0
 11 17  1  0
 17 18  1  0
 18 19  1  6
 19 20  1  0
 20 21  2  0
 21 22  1  0
 22 23  2  0
 23 24  1  0
 24 25  2  0
 18  4  1  0
 25 20  1  0
 18  7  1  0
 16 12  1  0
M  CHG  1  16   1
M  END
>  <Compound_ID>  (345) 
C39955816

>  <Active>  (345) 
0

>  <Smiles>  (345) 
CC(C)C1=CNN2C(=O)C=C([C@@H]3CCC[NH2+]3)N[C@]12Cc1ccccc1

>  <canonical_smi>  (345) 
CC(C)C1=CNN2C(=O)C=C([C@@H]3CCC[NH2+]3)N[C@]12Cc1ccccc1

>  <Set>  (345) 
G2 inactive

>  <Set_type>  (345) 
Train

>  <MW>  (345) 
339.46

>  <HBD>  (345) 
3

>  <HBA>  (345) 
3

>  <NRB>  (345) 
4

>  <NR>  (345) 
4

>  <NAR>  (345) 
1

>  <PSA>  (345) 
60.98

>  <Standard Type>  (345) 
nan

>  <Standard Relation>  (345) 
nan

>  <Standard Units>  (345) 
nan

>  <Standard Value>  (345) 
nan

>  <Assay ChEMBL ID>  (345) 
nan

>  <Assay Description>  (345) 
nan

>  <BAO Label>  (345) 
nan

$$$$

     RDKit          2D

 21 23  0  0  0  0  0  0  0  0999 V2000
   -8.5658   -5.4280    0.0000 N   0  0  0  0  0  4  0  0  0  0  0  0
   -7.0740   -5.5848    0.0000 C   0  0  0  0  0  0  0  0  0  0  0  0
   -6.4639   -6.9551    0.0000 C   0  0  0  0  0  0  0  0  0  0  0  0
   -4.9721   -7.1119    0.0000 C   0  0  0  0  0  0  0  0  0  0  0  0
   -4.2221   -8.4110    0.0000 C   0  0  0  0  0  0  0  0  0  0  0  0
   -2.7549   -8.0991    0.0000 C   0  0  0  0  0  0  0  0  0  0  0  0
   -2.5981   -6.6073    0.0000 C   0  0  0  0  0  0  0  0  0  0  0  0
   -1.2990   -5.8573    0.0000 S   0  0  0  0  0  0  0  0  0  0  0  0
   -2.0490   -4.5583    0.0000 O   0  0  0  0  0  0  0  0  0  0  0  0
   -0.5490   -7.1563    0.0000 O   0  0  0  0  0  0  0  0  0  0  0  0
   -0.0000   -5.1073    0.0000 N   0  0  0  0  0  0  0  0  0  0  0  0
   -0.0000   -3.6073    0.0000 C   0  0  0  0  0  0  0  0  0  0  0  0
   -1.2135   -2.7256    0.0000 N   0  0  0  0  0  0  0  0  0  0  0  0
   -0.7500   -1.2990    0.0000 C   0  0  0  0  0  0  0  0  0  0  0  0
    0.7500   -1.2990    0.0000 C   0  0  0  0  0  0  0  0  0  0  0  0
    1.2135   -2.7256    0.0000 S   0  0  0  0  0  0  0  0  0  0  0  0
    1.5000    0.0000    0.0000 C   0  0  0  0  0  0  0  0  0  0  0  0
    0.7500    1.2990    0.0000 C   0  0  0  0  0  0  0  0  0  0  0  0
   -0.7500    1.2990    0.0000 C   0  0  0  0  0  0  0  0  0  0  0  0
   -1.5000    0.0000    0.0000 C   0  0  0  0  0  0  0  0  0  0  0  0
   -3.9684   -5.9972    0.0000 S   0  0  0  0  0  0  0  0  0  0  0  0
  1  2  1  0
  2  3  1  0
  3  4  1  0
  4  5  2  0
  5  6  1  0
  6  7  2  0
  7  8  1  0
  8  9  2  0
  8 10  2  0
  8 11  1  0
 11 12  2  0
 12 13  1  0
 13 14  1  0
 14 15  2  0
 15 16  1  0
 15 17  1  0
 17 18  1  0
 18 19  1  0
 19 20  1  0
  7 21  1  0
 21  4  1  0
 16 12  1  0
 20 14  1  0
M  CHG  1   1   1
M  END
>  <Compound_ID>  (346) 
C49560680

>  <Active>  (346) 
0

>  <Smiles>  (346) 
[NH3+]CCc1ccc(S(=O)(=O)/N=c2\[nH]c3c(s2)CCCC3)s1

>  <canonical_smi>  (346) 
[NH3+]CCc1ccc(S(=O)(=O)/N=c2\[nH]c3c(s2)CCCC3)s1

>  <Set>  (346) 
G2 inactive

>  <Set_type>  (346) 
Train

>  <MW>  (346) 
344.51

>  <HBD>  (346) 
2

>  <HBA>  (346) 
2

>  <NRB>  (346) 
4

>  <NR>  (346) 
3

>  <NAR>  (346) 
2

>  <PSA>  (346) 
89.93

>  <Standard Type>  (346) 
nan

>  <Standard Relation>  (346) 
nan

>  <Standard Units>  (346) 
nan

>  <Standard Value>  (346) 
nan

>  <Assay ChEMBL ID>  (346) 
nan

>  <Assay Description>  (346) 
nan

>  <BAO Label>  (346) 
nan

$$$$

     RDKit          2D

 23 23  0  0  0  0  0  0  0  0999 V2000
    7.5000   -0.0000    0.0000 N   0  0  0  0  0  4  0  0  0  0  0  0
    6.7500    1.2990    0.0000 C   0  0  0  0  0  0  0  0  0  0  0  0
    5.2500    1.2990    0.0000 N   0  0  0  0  0  0  0  0  0  0  0  0
    4.5000    0.0000    0.0000 N   0  0  0  0  0  0  0  0  0  0  0  0
    3.0000    0.0000    0.0000 S   0  0  0  0  0  0  0  0  0  0  0  0
    3.0000   -1.5000    0.0000 O   0  0  0  0  0  0  0  0  0  0  0  0
    3.0000    1.5000    0.0000 O   0  0  0  0  0  0  0  0  0  0  0  0
    1.5000    0.0000    0.0000 C   0  0  0  0  0  0  0  0  0  0  0  0
    0.7500   -1.2990    0.0000 C   0  0  0  0  0  0  0  0  0  0  0  0
   -0.7500   -1.2990    0.0000 C   0  0  0  0  0  0  0  0  0  0  0  0
   -1.5000    0.0000    0.0000 C   0  0  0  0  0  0  0  0  0  0  0  0
   -0.7500    1.2990    0.0000 C   0  0  0  0  0  0  0  0  0  0  0  0
    0.7500    1.2990    0.0000 C   0  0  0  0  0  0  0  0  0  0  0  0
    7.5000    2.5981    0.0000 C   0  0  0  0  0  0  0  0  0  0  0  0
    8.7990    1.8481    0.0000 F   0  0  0  0  0  0  0  0  0  0  0  0
    6.2010    3.3481    0.0000 F   0  0  0  0  0  0  0  0  0  0  0  0
    8.2500    3.8971    0.0000 C   0  0  0  0  0  0  0  0  0  0  0  0
    6.9510    4.6471    0.0000 F   0  0  0  0  0  0  0  0  0  0  0  0
    9.5490    3.1471    0.0000 F   0  0  0  0  0  0  0  0  0  0  0  0
    9.0000    5.1962    0.0000 C   0  0  0  0  0  0  0  0  0  0  0  0
    9.7500    6.4952    0.0000 F   0  0  0  0  0  0  0  0  0  0  0  0
   10.2990    4.4462    0.0000 F   0  0  0  0  0  0  0  0  0  0  0  0
    7.7010    5.9462    0.0000 F   0  0  0  0  0  0  0  0  0  0  0  0
  1  2  2  0
  2  3  1  0
  3  4  1  0
  4  5  1  0
  5  6  2  0
  5  7  2  0
  5  8  1  0
  8  9  2  0
  9 10  1  0
 10 11  2  0
 11 12  1  0
 12 13  2  0
  2 14  1  0
 14 15  1  0
 14 16  1  0
 14 17  1  0
 17 18  1  0
 17 19  1  0
 17 20  1  0
 20 21  1  0
 20 22  1  0
 20 23  1  0
 13  8  1  0
M  CHG  1   1   1
M  END
>  <Compound_ID>  (347) 
C01697252

>  <Active>  (347) 
0

>  <Smiles>  (347) 
[NH2+]=C(NNS(=O)(=O)c1ccccc1)C(F)(F)C(F)(F)C(F)(F)F

>  <canonical_smi>  (347) 
[NH2+]=C(NNS(=O)(=O)c1ccccc1)C(F)(F)C(F)(F)C(F)(F)F

>  <Set>  (347) 
G2 inactive

>  <Set_type>  (347) 
Train

>  <MW>  (347) 
368.25

>  <HBD>  (347) 
3

>  <HBA>  (347) 
3

>  <NRB>  (347) 
5

>  <NR>  (347) 
1

>  <NAR>  (347) 
1

>  <PSA>  (347) 
83.79

>  <Standard Type>  (347) 
nan

>  <Standard Relation>  (347) 
nan

>  <Standard Units>  (347) 
nan

>  <Standard Value>  (347) 
nan

>  <Assay ChEMBL ID>  (347) 
nan

>  <Assay Description>  (347) 
nan

>  <BAO Label>  (347) 
nan

$$$$

     RDKit          2D

 21 22  0  0  0  0  0  0  0  0999 V2000
    1.5000   -7.7942    0.0000 C   0  0  0  0  0  0  0  0  0  0  0  0
    0.7500   -6.4952    0.0000 N   0  0  0  0  0  0  0  0  0  0  0  0
    1.5000   -5.1962    0.0000 C   0  0  0  0  0  0  0  0  0  0  0  0
    0.7500   -3.8971    0.0000 C   0  0  0  0  0  0  0  0  0  0  0  0
    1.5000   -2.5981    0.0000 O   0  0  0  0  0  0  0  0  0  0  0  0
    0.7500   -1.2990    0.0000 C   0  0  0  0  0  0  0  0  0  0  0  0
    1.5000    0.0000    0.0000 C   0  0  0  0  0  0  0  0  0  0  0  0
    0.7500    1.2990    0.0000 C   0  0  0  0  0  0  0  0  0  0  0  0
   -0.7500    1.2990    0.0000 C   0  0  0  0  0  0  0  0  0  0  0  0
   -1.5000    2.5981    0.0000 C   0  0  0  0  0  0  0  0  0  0  0  0
   -0.7500    3.8971    0.0000 N   0  0  0  0  0  0  0  0  0  0  0  0
   -3.0000    2.5981    0.0000 N   0  0  0  0  0  4  0  0  0  0  0  0
   -1.5000    0.0000    0.0000 C   0  0  0  0  0  0  0  0  0  0  0  0
   -0.7500   -1.2990    0.0000 C   0  0  0  0  0  0  0  0  0  0  0  0
   -0.7500   -6.4952    0.0000 C   0  0  0  0  0  0  0  0  0  0  0  0
   -1.5000   -7.7942    0.0000 C   0  0  0  0  0  0  0  0  0  0  0  0
   -0.8899   -9.1645    0.0000 C   0  0  0  0  0  0  0  0  0  0  0  0
   -2.0046  -10.1682    0.0000 C   0  0  0  0  0  0  0  0  0  0  0  0
   -1.8478  -11.6600    0.0000 Br  0  0  0  0  0  0  0  0  0  0  0  0
   -3.3037   -9.4182    0.0000 C   0  0  0  0  0  0  0  0  0  0  0  0
   -2.9918   -7.9510    0.0000 S   0  0  0  0  0  0  0  0  0  0  0  0
  1  2  1  0
  2  3  1  0
  3  4  1  0
  4  5  1  0
  5  6  1  0
  6  7  2  0
  7  8  1  0
  8  9  2  0
  9 10  1  0
 10 11  1  0
 10 12  2  0
  9 13  1  0
 13 14  2  0
  2 15  1  0
 15 16  1  0
 16 17  2  0
 17 18  1  0
 18 19  1  0
 18 20  2  0
 20 21  1  0
 14  6  1  0
 21 16  1  0
M  CHG  1  12   1
M  END
>  <Compound_ID>  (348) 
C42399573

>  <Active>  (348) 
0

>  <Smiles>  (348) 
CN(CCOc1ccc(C(N)=[NH2+])cc1)Cc1cc(Br)cs1

>  <canonical_smi>  (348) 
CN(CCOc1ccc(C(N)=[NH2+])cc1)Cc1cc(Br)cs1

>  <Set>  (348) 
G2 inactive

>  <Set_type>  (348) 
Train

>  <MW>  (348) 
369.31

>  <HBD>  (348) 
2

>  <HBA>  (348) 
3

>  <NRB>  (348) 
7

>  <NR>  (348) 
2

>  <NAR>  (348) 
2

>  <PSA>  (348) 
64.08

>  <Standard Type>  (348) 
nan

>  <Standard Relation>  (348) 
nan

>  <Standard Units>  (348) 
nan

>  <Standard Value>  (348) 
nan

>  <Assay ChEMBL ID>  (348) 
nan

>  <Assay Description>  (348) 
nan

>  <BAO Label>  (348) 
nan

$$$$

     RDKit          2D

 28 30  0  0  0  0  0  0  0  0999 V2000
   -1.5000   -5.1962    0.0000 C   0  0  0  0  0  0  0  0  0  0  0  0
   -0.7500   -3.8971    0.0000 C   0  0  0  0  0  0  0  0  0  0  0  0
    0.7500   -3.8971    0.0000 C   0  0  0  0  0  0  0  0  0  0  0  0
    1.5000   -2.5981    0.0000 C   0  0  0  0  0  0  0  0  0  0  0  0
    3.0000   -2.5981    0.0000 C   0  0  0  0  0  0  0  0  0  0  0  0
    3.7500   -1.2990    0.0000 O   0  0  0  0  0  0  0  0  0  0  0  0
    3.7500   -3.8971    0.0000 O   0  0  0  0  0  0  0  0  0  0  0  0
    5.2500   -3.8971    0.0000 C   0  0  0  0  0  0  0  0  0  0  0  0
    6.0000   -5.1962    0.0000 C   0  0  0  0  0  0  0  0  0  0  0  0
    5.2500   -6.4952    0.0000 O   0  0  0  0  0  0  0  0  0  0  0  0
    7.5000   -5.1962    0.0000 N   0  0  0  0  0  0  0  0  0  0  0  0
    8.2500   -6.4952    0.0000 C   0  0  0  0  0  0  0  0  0  0  0  0
    7.5000   -7.7942    0.0000 C   0  0  0  0  0  0  0  0  0  0  0  0
    8.2500   -9.0933    0.0000 C   0  0  0  0  0  0  0  0  0  0  0  0
    7.5000  -10.3923    0.0000 N   0  0  0  0  0  4  0  0  0  0  0  0
    8.2500  -11.6913    0.0000 O   0  0  0  0  0  0  0  0  0  0  0  0
    6.0000  -10.3923    0.0000 O   0  0  0  0  0  1  0  0  0  0  0  0
    9.7500   -9.0933    0.0000 C   0  0  0  0  0  0  0  0  0  0  0  0
   10.5000   -7.7942    0.0000 C   0  0  0  0  0  0  0  0  0  0  0  0
    9.7500   -6.4952    0.0000 C   0  0  0  0  0  0  0  0  0  0  0  0
   10.5000   -5.1962    0.0000 C   0  0  0  0  0  0  0  0  0  0  0  0
    0.7500   -1.2990    0.0000 C   0  0  0  0  0  0  0  0  0  0  0  0
    1.5000    0.0000    0.0000 C   0  0  0  0  0  0  0  0  0  0  0  0
    0.7500    1.2990    0.0000 C   0  0  0  0  0  0  0  0  0  0  0  0
   -0.7500    1.2990    0.0000 C   0  0  0  0  0  0  0  0  0  0  0  0
   -1.5000    0.0000    0.0000 C   0  0  0  0  0  0  0  0  0  0  0  0
   -0.7500   -1.2990    0.0000 C   0  0  0  0  0  0  0  0  0  0  0  0
   -1.5000   -2.5981    0.0000 N   0  0  0  0  0  0  0  0  0  0  0  0
  1  2  1  0
  2  3  2  0
  3  4  1  0
  4  5  1  0
  5  6  2  0
  5  7  1  0
  7  8  1  0
  8  9  1  0
  9 10  2  0
  9 11  1  0
 11 12  1  0
 12 13  2  0
 13 14  1  0
 14 15  1  0
 15 16  2  0
 15 17  1  0
 14 18  2  0
 18 19  1  0
 19 20  2  0
 20 21  1  0
  4 22  2  0
 22 23  1  0
 23 24  2  0
 24 25  1  0
 25 26  2  0
 26 27  1  0
 27 28  2  0
 28  2  1  0
 20 12  1  0
 27 22  1  0
M  CHG  2  15   1  17  -1
M  END
>  <Compound_ID>  (349) 
C04766260

>  <Active>  (349) 
0

>  <Smiles>  (349) 
Cc1cc(C(=O)OCC(=O)Nc2cc([N+](=O)[O-])ccc2C)c2ccccc2n1

>  <canonical_smi>  (349) 
Cc1cc(C(=O)OCC(=O)Nc2cc([N+](=O)[O-])ccc2C)c2ccccc2n1

>  <Set>  (349) 
G2 inactive

>  <Set_type>  (349) 
Train

>  <MW>  (349) 
379.37

>  <HBD>  (349) 
1

>  <HBA>  (349) 
6

>  <NRB>  (349) 
5

>  <NR>  (349) 
3

>  <NAR>  (349) 
3

>  <PSA>  (349) 
111.43

>  <Standard Type>  (349) 
nan

>  <Standard Relation>  (349) 
nan

>  <Standard Units>  (349) 
nan

>  <Standard Value>  (349) 
nan

>  <Assay ChEMBL ID>  (349) 
nan

>  <Assay Description>  (349) 
nan

>  <BAO Label>  (349) 
nan

$$$$

     RDKit          2D

 30 33  0  0  0  0  0  0  0  0999 V2000
    7.5785   -6.6032    0.0000 C   0  0  0  0  0  0  0  0  0  0  0  0
    6.3650   -5.7215    0.0000 C   0  0  0  0  0  0  0  0  0  0  0  0
    4.9947   -6.3316    0.0000 C   0  0  0  0  0  0  0  0  0  0  0  0
    6.5218   -4.2298    0.0000 S   0  0  0  0  0  0  0  0  0  0  0  0
    5.3083   -3.3481    0.0000 C   0  0  0  0  0  0  0  0  0  0  0  0
    5.3083   -1.8481    0.0000 N   0  0  0  0  0  0  0  0  0  0  0  0
    3.8817   -1.3846    0.0000 N   0  0  0  0  0  0  0  0  0  0  0  0
    3.0000   -2.5981    0.0000 C   0  0  0  0  0  0  0  0  0  0  0  0
    1.5000   -2.5981    0.0000 N   0  0  0  0  0  0  0  0  0  0  0  0
    0.7500   -3.8971    0.0000 C   0  0  0  0  0  0  0  0  0  0  0  0
    1.5000   -5.1962    0.0000 N   0  0  0  0  0  0  0  0  0  0  0  0
   -0.7500   -3.8971    0.0000 C   0  0  0  0  0  0  0  0  0  0  0  0
   -1.5000   -5.1962    0.0000 C   0  0  0  0  0  0  0  0  0  0  0  0
   -2.2500   -6.4952    0.0000 N   0  0  0  0  0  0  0  0  0  0  0  0
   -1.5000   -2.5981    0.0000 C   0  0  0  0  0  0  0  0  0  0  0  0
   -3.0000   -2.5981    0.0000 C   0  0  0  0  0  0  0  0  0  0  0  0
   -3.8817   -3.8116    0.0000 C   0  0  0  0  0  0  0  0  0  0  0  0
   -5.3083   -3.3481    0.0000 C   0  0  0  0  0  0  0  0  0  0  0  0
   -5.3083   -1.8481    0.0000 S   0  0  0  0  0  0  0  0  0  0  0  0
   -3.8817   -1.3846    0.0000 C   0  0  0  0  0  0  0  0  0  0  0  0
   -0.7500   -1.2990    0.0000 C   0  0  0  0  0  0  0  0  0  0  0  0
    0.7500   -1.2990    0.0000 C   0  0  0  0  0  0  0  0  0  0  0  0
    1.5000    0.0000    0.0000 C   0  0  0  0  0  0  0  0  0  0  0  0
    0.7500    1.2990    0.0000 C   0  0  0  0  0  0  0  0  0  0  0  0
    0.4895    2.7762    0.0000 C   0  0  0  0  0  0  0  0  0  0  0  0
    2.1595    1.8121    0.0000 C   0  0  0  0  0  0  0  0  0  0  0  0
   -0.7500    1.2990    0.0000 C   0  0  0  0  0  0  0  0  0  0  0  0
   -1.5000    0.0000    0.0000 C   0  0  0  0  0  0  0  0  0  0  0  0
   -3.0000    0.0000    0.0000 O   0  0  0  0  0  0  0  0  0  0  0  0
    3.8817   -3.8116    0.0000 S   0  0  0  0  0  0  0  0  0  0  0  0
  1  2  1  0
  2  3  1  0
  2  4  1  0
  4  5  1  0
  5  6  2  0
  6  7  1  0
  7  8  2  0
  8  9  1  0
  9 10  1  0
 10 11  1  0
 10 12  2  0
 12 13  1  0
 13 14  3  0
 12 15  1  0
 15 16  1  6
 16 17  1  0
 17 18  2  0
 18 19  1  0
 19 20  1  0
 15 21  1  0
 21 22  2  0
 22 23  1  0
 23 24  1  0
 24 25  1  0
 24 26  1  0
 24 27  1  0
 27 28  1  0
 28 29  2  0
  8 30  1  0
 30  5  1  0
 22  9  1  0
 20 16  2  0
 28 21  1  0
M  END
>  <Compound_ID>  (350) 
C12401694

>  <Active>  (350) 
0

>  <Smiles>  (350) 
CC(C)Sc1nnc(N2C(N)=C(C#N)[C@H](c3ccsc3)C3=C2CC(C)(C)CC3=O)s1

>  <canonical_smi>  (350) 
CC(C)Sc1nnc(N2C(N)=C(C#N)[C@H](c3ccsc3)C3=C2CC(C)(C)CC3=O)s1

>  <Set>  (350) 
G2 inactive

>  <Set_type>  (350) 
Train

>  <MW>  (350) 
457.65

>  <HBD>  (350) 
1

>  <HBA>  (350) 
7

>  <NRB>  (350) 
4

>  <NR>  (350) 
4

>  <NAR>  (350) 
2

>  <PSA>  (350) 
95.9

>  <Standard Type>  (350) 
nan

>  <Standard Relation>  (350) 
nan

>  <Standard Units>  (350) 
nan

>  <Standard Value>  (350) 
nan

>  <Assay ChEMBL ID>  (350) 
nan

>  <Assay Description>  (350) 
nan

>  <BAO Label>  (350) 
nan

$$$$

     RDKit          2D

 32 37  0  0  0  0  0  0  0  0999 V2000
    4.7779    9.2179    0.0000 C   0  0  0  0  0  0  0  0  0  0  0  0
    4.1678   10.5882    0.0000 C   0  0  0  0  0  0  0  0  0  0  0  0
    2.8687    9.8382    0.0000 C   0  0  0  0  0  0  0  0  0  0  0  0
    1.4984   10.4483    0.0000 C   0  0  0  0  0  0  0  0  0  0  0  0
    0.4947    9.3336    0.0000 C   0  0  0  0  0  0  0  0  0  0  0  0
    1.2447    8.0346    0.0000 C   0  0  0  0  0  0  0  0  0  0  0  0
    0.7812    6.6080    0.0000 C   0  0  0  0  0  0  0  0  0  0  0  0
   -0.6860    6.2961    0.0000 C   0  0  0  0  0  0  0  0  0  0  0  0
   -1.1496    4.8695    0.0000 C   0  0  0  0  0  0  0  0  0  0  0  0
   -0.1459    3.7548    0.0000 C   0  0  0  0  0  0  0  0  0  0  0  0
   -0.6094    2.3282    0.0000 C   0  0  0  0  0  0  0  0  0  0  0  0
    0.3943    1.2135    0.0000 C   0  0  0  0  0  0  0  0  0  0  0  0
    1.8615    1.5254    0.0000 C   0  0  0  0  0  0  0  0  0  0  0  0
    2.3250    2.9520    0.0000 C   0  0  0  0  0  0  0  0  0  0  0  0
    1.3213    4.0667    0.0000 C   0  0  0  0  0  0  0  0  0  0  0  0
    2.7886    4.3786    0.0000 C   0  0  0  0  0  0  0  0  0  0  0  0
    1.7849    5.4933    0.0000 C   0  0  0  0  0  0  0  0  0  0  0  0
    3.2521    5.8051    0.0000 C   0  0  0  0  0  0  0  0  0  0  0  0
    4.2558    4.6904    0.0000 O   0  0  0  0  0  0  0  0  0  0  0  0
    3.7156    7.2317    0.0000 C   0  0  0  0  0  0  0  0  0  0  0  0
    2.7119    8.3464    0.0000 C   0  0  0  0  0  0  0  0  0  0  0  0
    4.1385    8.8100    0.0000 C   0  0  0  0  0  0  0  0  0  0  0  0
    5.2532    7.8063    0.0000 N   0  0  0  0  0  0  0  0  0  0  0  0
    6.6798    8.2698    0.0000 O   0  0  0  0  0  0  0  0  0  0  0  0
    1.2760    0.0000    0.0000 O   0  0  0  0  0  0  0  0  0  0  0  0
    0.3943   -1.2135    0.0000 C   0  0  0  0  0  0  0  0  0  0  0  0
   -1.0323   -0.7500    0.0000 C   0  0  0  0  0  0  0  0  0  0  0  0
   -1.0323    0.7500    0.0000 O   0  0  0  0  0  0  0  0  0  0  0  0
    5.5943   11.0518    0.0000 O   0  0  0  0  0  0  0  0  0  0  0  0
    5.5943   12.5518    0.0000 C   0  0  0  0  0  0  0  0  0  0  0  0
    4.1678   13.0153    0.0000 C   0  0  0  0  0  0  0  0  0  0  0  0
    3.2861   11.8018    0.0000 O   0  0  0  0  0  0  0  0  0  0  0  0
  1  2  1  0
  3  2  1  6
  3  4  1  0
  4  5  1  0
  6  5  1  6
  6  7  1  0
  7  8  1  1
  8  9  1  0
 10  9  1  1
 10 11  1  0
 11 12  1  0
 12 13  1  0
 13 14  1  0
 14 15  1  0
 15 16  1  6
 15 17  1  0
 17 18  1  1
 18 19  1  6
 18 20  1  0
 20 21  1  0
 21 22  1  6
 22 23  2  0
 23 24  1  0
 12 25  1  0
 25 26  1  0
 26 27  1  0
 27 28  1  0
  2 29  1  0
 29 30  1  0
 30 31  1  0
 31 32  1  0
 32  2  1  0
 21  3  1  0
 21  6  1  0
 17  7  1  0
 15 10  1  0
 28 12  1  0
M  END
>  <Compound_ID>  (351) 
C12661278

>  <Active>  (351) 
0

>  <Smiles>  (351) 
CC1([C@H]2CC[C@H]3[C@@H]4CC[C@@H]5CC6(CC[C@]5(C)[C@@H]4[C@@H](O)C[C@]23/C=N/O)OCCO6)OCCO1

>  <canonical_smi>  (351) 
CC1([C@H]2CC[C@H]3[C@@H]4CC[C@@H]5CC6(CC[C@]5(C)[C@@H]4[C@@H](O)C[C@@]32/C=N/O)OCCO6)OCCO1

>  <Set>  (351) 
G2 inactive

>  <Set_type>  (351) 
Train

>  <MW>  (351) 
449.59

>  <HBD>  (351) 
2

>  <HBA>  (351) 
6

>  <NRB>  (351) 
2

>  <NR>  (351) 
6

>  <NAR>  (351) 
0

>  <PSA>  (351) 
89.74

>  <Standard Type>  (351) 
nan

>  <Standard Relation>  (351) 
nan

>  <Standard Units>  (351) 
nan

>  <Standard Value>  (351) 
nan

>  <Assay ChEMBL ID>  (351) 
nan

>  <Assay Description>  (351) 
nan

>  <BAO Label>  (351) 
nan

$$$$

     RDKit          2D

 32 36  0  0  0  0  0  0  0  0999 V2000
    0.8050    6.0661    0.0000 O   0  0  0  0  0  0  0  0  0  0  0  0
   -0.4086    5.1844    0.0000 C   0  0  0  0  0  0  0  0  0  0  0  0
   -0.4086    3.6844    0.0000 C   0  0  0  0  0  0  0  0  0  0  0  0
    0.7062    2.6807    0.0000 C   0  0  0  0  0  0  0  0  0  0  0  0
    2.1328    3.1443    0.0000 C   0  0  0  0  0  0  0  0  0  0  0  0
    2.4446    4.6115    0.0000 C   0  0  0  0  0  0  0  0  0  0  0  0
    3.8712    5.0750    0.0000 C   0  0  0  0  0  0  0  0  0  0  0  0
    4.9859    4.0713    0.0000 C   0  0  0  0  0  0  0  0  0  0  0  0
    4.6741    2.6041    0.0000 C   0  0  0  0  0  0  0  0  0  0  0  0
    3.2475    2.1406    0.0000 C   0  0  0  0  0  0  0  0  0  0  0  0
    2.9356    0.6734    0.0000 O   0  0  0  0  0  0  0  0  0  0  0  0
    0.3943    1.2135    0.0000 C   0  0  0  0  0  0  0  0  0  0  0  0
    1.2760    0.0000    0.0000 S   0  0  0  0  0  0  0  0  0  0  0  0
    0.3943   -1.2135    0.0000 C   0  0  0  0  0  0  0  0  0  0  0  0
    0.8578   -2.6401    0.0000 O   0  0  0  0  0  0  0  0  0  0  0  0
   -1.0323   -0.7500    0.0000 N   0  0  0  0  0  0  0  0  0  0  0  0
   -1.0323    0.7500    0.0000 C   0  0  0  0  0  0  0  0  0  0  0  0
   -2.1470    1.7537    0.0000 S   0  0  0  0  0  0  0  0  0  0  0  0
   -1.8351    3.2209    0.0000 C   0  0  0  0  0  0  0  0  0  0  0  0
   -2.7168    4.4344    0.0000 C   0  0  0  0  0  0  0  0  0  0  0  0
   -4.2168    4.4344    0.0000 O   0  0  0  0  0  0  0  0  0  0  0  0
   -1.8351    5.6480    0.0000 N   0  0  0  0  0  0  0  0  0  0  0  0
   -2.2987    7.0746    0.0000 C   0  0  0  0  0  0  0  0  0  0  0  0
   -1.2950    8.1893    0.0000 C   0  0  0  0  0  0  0  0  0  0  0  0
   -1.7585    9.6159    0.0000 C   0  0  0  0  0  0  0  0  0  0  0  0
   -3.2257    9.9277    0.0000 C   0  0  0  0  0  0  0  0  0  0  0  0
   -4.2294    8.8130    0.0000 C   0  0  0  0  0  0  0  0  0  0  0  0
   -3.7659    7.3864    0.0000 C   0  0  0  0  0  0  0  0  0  0  0  0
   -4.7696    6.2717    0.0000 C   0  0  0  0  0  0  0  0  0  0  0  0
   -5.7733    5.1570    0.0000 F   0  0  0  0  0  0  0  0  0  0  0  0
   -5.8843    7.2754    0.0000 F   0  0  0  0  0  0  0  0  0  0  0  0
   -3.6549    5.2680    0.0000 F   0  0  0  0  0  0  0  0  0  0  0  0
  1  2  2  0
  3  2  1  1
  3  4  1  0
  4  5  1  1
  5  6  2  0
  6  7  1  0
  7  8  2  0
  8  9  1  0
  9 10  2  0
 10 11  1  0
  4 12  1  0
 12 13  1  0
 13 14  1  0
 14 15  2  0
 14 16  1  0
 16 17  1  0
 17 18  1  0
 19 18  1  1
 19 20  1  0
 20 21  2  0
 20 22  1  0
 22 23  1  0
 23 24  2  0
 24 25  1  0
 25 26  2  0
 26 27  1  0
 27 28  2  0
 28 29  1  0
 29 30  1  0
 29 31  1  0
 29 32  1  0
 22  2  1  0
 28 23  1  0
 19  3  1  0
 10  5  1  0
 17 12  2  0
M  END
>  <Compound_ID>  (352) 
C47147111

>  <Active>  (352) 
0

>  <Smiles>  (352) 
O=C1[C@H]2[C@@H](c3ccccc3O)c3sc(=O)[nH]c3S[C@H]2C(=O)N1c1ccccc1C(F)(F)F

>  <canonical_smi>  (352) 
O=C1[C@@H]2Sc3[nH]c(=O)sc3[C@H](c3ccccc3O)[C@@H]2C(=O)N1c1ccccc1C(F)(F)F

>  <Set>  (352) 
G2 inactive

>  <Set_type>  (352) 
Train

>  <MW>  (352) 
478.47

>  <HBD>  (352) 
2

>  <HBA>  (352) 
5

>  <NRB>  (352) 
2

>  <NR>  (352) 
5

>  <NAR>  (352) 
3

>  <PSA>  (352) 
90.47

>  <Standard Type>  (352) 
nan

>  <Standard Relation>  (352) 
nan

>  <Standard Units>  (352) 
nan

>  <Standard Value>  (352) 
nan

>  <Assay ChEMBL ID>  (352) 
nan

>  <Assay Description>  (352) 
nan

>  <BAO Label>  (352) 
nan

$$$$

     RDKit          2D

 27 31  0  0  0  0  0  0  0  0999 V2000
    2.7760    0.0000    0.0000 O   0  0  0  0  0  0  0  0  0  0  0  0
    1.2760    0.0000    0.0000 C   0  0  0  0  0  0  0  0  0  0  0  0
    0.3943    1.2135    0.0000 C   0  0  0  0  0  0  0  0  0  0  0  0
   -1.0323    0.7500    0.0000 C   0  0  0  0  0  0  0  0  0  0  0  0
   -1.0323   -0.7500    0.0000 C   0  0  0  0  0  0  0  0  0  0  0  0
   -2.4026   -0.1399    0.0000 C   0  0  0  0  0  0  0  0  0  0  0  0
   -3.6161   -1.0216    0.0000 C   0  0  0  0  0  0  0  0  0  0  0  0
   -4.9864   -0.4115    0.0000 O   0  0  0  0  0  0  0  0  0  0  0  0
   -3.4593   -2.5134    0.0000 O   0  0  0  0  0  0  0  0  0  0  0  0
   -2.0890   -3.1235    0.0000 C   0  0  0  0  0  0  0  0  0  0  0  0
   -0.8755   -2.2418    0.0000 C   0  0  0  0  0  0  0  0  0  0  0  0
    0.4948   -2.8519    0.0000 C   0  0  0  0  0  0  0  0  0  0  0  0
    1.7083   -1.9702    0.0000 O   0  0  0  0  0  0  0  0  0  0  0  0
    0.6516   -4.3437    0.0000 C   0  0  0  0  0  0  0  0  0  0  0  0
    1.8651   -5.2253    0.0000 O   0  0  0  0  0  0  0  0  0  0  0  0
    1.4016   -6.6519    0.0000 C   0  0  0  0  0  0  0  0  0  0  0  0
   -0.0984   -6.6519    0.0000 C   0  0  0  0  0  0  0  0  0  0  0  0
   -0.5619   -5.2253    0.0000 C   0  0  0  0  0  0  0  0  0  0  0  0
   -1.9322   -4.6152    0.0000 C   0  0  0  0  0  0  0  0  0  0  0  0
   -3.1458   -5.4969    0.0000 O   0  0  0  0  0  0  0  0  0  0  0  0
   -0.8484   -7.9510    0.0000 C   0  0  0  0  0  0  0  0  0  0  0  0
   -0.0984   -9.2500    0.0000 C   0  0  0  0  0  0  0  0  0  0  0  0
   -0.8484  -10.5490    0.0000 O   0  0  0  0  0  0  0  0  0  0  0  0
    1.4016   -9.2500    0.0000 C   0  0  0  0  0  0  0  0  0  0  0  0
    2.1516  -10.5490    0.0000 O   0  0  0  0  0  0  0  0  0  0  0  0
    2.1516   -7.9510    0.0000 C   0  0  0  0  0  0  0  0  0  0  0  0
    0.3943   -1.2135    0.0000 O   0  0  0  0  0  0  0  0  0  0  0  0
  1  2  2  0
  2  3  1  0
  3  4  2  0
  4  5  1  0
  5  6  1  6
  6  7  1  0
  7  8  1  1
  7  9  1  0
  9 10  1  0
 10 11  2  0
 11 12  1  0
 12 13  1  0
 12 14  2  0
 14 15  1  0
 15 16  1  0
 16 17  1  0
 17 18  1  0
 18 19  2  0
 19 20  1  0
 17 21  2  0
 21 22  1  0
 22 23  2  0
 22 24  1  0
 24 25  2  0
 24 26  1  0
  5 27  1  0
 27  2  1  0
 11  5  1  0
 18 14  1  0
 19 10  1  0
 26 16  2  0
M  END
>  <Compound_ID>  (353) 
C05600620

>  <Active>  (353) 
0

>  <Smiles>  (353) 
O=C1C=C[C@@]2(C[C@H](O)Oc3c2c(O)c2oc4c(c2c3O)=CC(=O)C(=O)C=4)O1

>  <canonical_smi>  (353) 
O=C1C=C[C@@]2(C[C@H](O)Oc3c2c(O)c2oc4c(c2c3O)=CC(=O)C(=O)C=4)O1

>  <Set>  (353) 
G2 inactive

>  <Set_type>  (353) 
Train

>  <MW>  (353) 
370.27

>  <HBD>  (353) 
3

>  <HBA>  (353) 
9

>  <NRB>  (353) 
0

>  <NR>  (353) 
5

>  <NAR>  (353) 
2

>  <PSA>  (353) 
143.5

>  <Standard Type>  (353) 
nan

>  <Standard Relation>  (353) 
nan

>  <Standard Units>  (353) 
nan

>  <Standard Value>  (353) 
nan

>  <Assay ChEMBL ID>  (353) 
nan

>  <Assay Description>  (353) 
nan

>  <BAO Label>  (353) 
nan

$$$$

     RDKit          2D

 27 30  0  0  0  0  0  0  0  0999 V2000
    9.4036    0.4036    0.0000 H   0  0  0  0  0  0  0  0  0  0  0  0
    9.2468   -1.0882    0.0000 N   0  0  0  0  0  0  0  0  0  0  0  0
    7.8765   -1.6983    0.0000 C   0  0  0  0  0  0  0  0  0  0  0  0
    6.5774   -0.9483    0.0000 S   0  0  0  0  0  0  0  0  0  0  0  0
    5.4627   -1.9520    0.0000 C   0  0  0  0  0  0  0  0  0  0  0  0
    3.9955   -1.6402    0.0000 C   0  0  0  0  0  0  0  0  0  0  0  0
    2.9918   -2.7549    0.0000 C   0  0  0  0  0  0  0  0  0  0  0  0
    3.3037   -4.2221    0.0000 C   0  0  0  0  0  0  0  0  0  0  0  0
    2.0046   -4.9721    0.0000 N   0  0  0  0  0  0  0  0  0  0  0  0
    0.8899   -3.9684    0.0000 N   0  0  0  0  0  0  0  0  0  0  0  0
    1.5000   -2.5981    0.0000 C   0  0  0  0  0  0  0  0  0  0  0  0
    0.7500   -1.2990    0.0000 C   0  0  0  0  0  0  0  0  0  0  0  0
    1.5000    0.0000    0.0000 C   0  0  0  0  0  0  0  0  0  0  0  0
    0.7500    1.2990    0.0000 C   0  0  0  0  0  0  0  0  0  0  0  0
   -0.7500    1.2990    0.0000 C   0  0  0  0  0  0  0  0  0  0  0  0
   -1.5000    2.5981    0.0000 F   0  0  0  0  0  0  0  0  0  0  0  0
   -1.5000    0.0000    0.0000 C   0  0  0  0  0  0  0  0  0  0  0  0
   -0.7500   -1.2990    0.0000 C   0  0  0  0  0  0  0  0  0  0  0  0
    6.0728   -3.3223    0.0000 C   0  0  0  0  0  0  0  0  0  0  0  0
    5.3228   -4.6214    0.0000 O   0  0  0  0  0  0  0  0  0  0  0  0
    7.5646   -3.1655    0.0000 N   0  0  0  0  0  0  0  0  0  0  0  0
    8.5683   -4.2803    0.0000 C   0  0  0  0  0  0  0  0  0  0  0  0
   10.0601   -4.1235    0.0000 N   0  0  0  0  0  0  0  0  0  0  0  0
   10.6702   -5.4938    0.0000 O   0  0  0  0  0  0  0  0  0  0  0  0
    9.5555   -6.4975    0.0000 N   0  0  0  0  0  0  0  0  0  0  0  0
    8.2564   -5.7475    0.0000 C   0  0  0  0  0  0  0  0  0  0  0  0
    6.8861   -6.3576    0.0000 N   0  0  0  0  0  0  0  0  0  0  0  0
  1  2  1  0
  2  3  2  0
  3  4  1  0
  4  5  1  0
  5  6  2  0
  7  6  1  6
  7  8  1  0
  8  9  2  0
  9 10  1  0
 10 11  2  0
 11 12  1  0
 12 13  2  0
 13 14  1  0
 14 15  2  0
 15 16  1  0
 15 17  1  0
 17 18  2  0
  5 19  1  0
 19 20  2  0
 19 21  1  0
 21 22  1  0
 22 23  2  0
 23 24  1  0
 24 25  1  0
 25 26  2  0
 26 27  1  0
 21  3  1  0
 26 22  1  0
 11  7  1  0
 18 12  1  0
M  END
>  <Compound_ID>  (354) 
C63972390

>  <Active>  (354) 
0

>  <Smiles>  (354) 
[H]/N=C1\S/C(=C/[C@@H]2C=NN=C2c2ccc(F)cc2)C(=O)N1c1nonc1N

>  <canonical_smi>  (354) 
[H]/N=C1\S/C(=C/[C@@H]2C=NN=C2c2ccc(F)cc2)C(=O)N1c1nonc1N

>  <Set>  (354) 
G2 inactive

>  <Set_type>  (354) 
Train

>  <MW>  (354) 
371.36

>  <HBD>  (354) 
2

>  <HBA>  (354) 
6

>  <NRB>  (354) 
3

>  <NR>  (354) 
4

>  <NAR>  (354) 
2

>  <PSA>  (354) 
133.82

>  <Standard Type>  (354) 
nan

>  <Standard Relation>  (354) 
nan

>  <Standard Units>  (354) 
nan

>  <Standard Value>  (354) 
nan

>  <Assay ChEMBL ID>  (354) 
nan

>  <Assay Description>  (354) 
nan

>  <BAO Label>  (354) 
nan

$$$$

     RDKit          2D

 22 25  0  0  0  0  0  0  0  0999 V2000
    6.6375   -2.6515    0.0000 N   0  0  0  0  0  0  0  0  0  0  0  0
    5.4240   -3.5332    0.0000 C   0  0  0  0  0  0  0  0  0  0  0  0
    5.5268   -4.5119    0.0000 S   0  0  0  0  0  0  0  0  0  0  0  0
    4.0537   -2.9231    0.0000 N   0  0  0  0  0  0  0  0  0  0  0  0
    3.7418   -1.4558    0.0000 N   0  0  0  0  0  0  0  0  0  0  0  0
    2.2500   -1.2990    0.0000 C   0  0  0  0  0  0  0  0  0  0  0  0
    1.6399   -2.6694    0.0000 C   0  0  0  0  0  0  0  0  0  0  0  0
    2.7546   -3.6731    0.0000 C   0  0  0  0  0  0  0  0  0  0  0  0
    1.6399   -4.6767    0.0000 O   0  0  0  0  0  0  0  0  0  0  0  0
    3.6363   -4.8866    0.0000 C   0  0  0  0  0  0  0  0  0  0  0  0
    4.5180   -6.1001    0.0000 F   0  0  0  0  0  0  0  0  0  0  0  0
    4.5488   -4.5180    0.0000 F   0  0  0  0  0  0  0  0  0  0  0  0
    2.4228   -5.7683    0.0000 F   0  0  0  0  0  0  0  0  0  0  0  0
    0.7500   -1.2990    0.0000 C   0  0  0  0  0  0  0  0  0  0  0  0
    1.5000    0.0000    0.0000 C   0  0  0  0  0  0  0  0  0  0  0  0
    0.7500    1.2990    0.0000 C   0  0  0  0  0  0  0  0  0  0  0  0
   -0.7500    1.2990    0.0000 C   0  0  0  0  0  0  0  0  0  0  0  0
   -1.5000    0.0000    0.0000 C   0  0  0  0  0  0  0  0  0  0  0  0
   -0.7500   -1.2990    0.0000 C   0  0  0  0  0  0  0  0  0  0  0  0
    1.7010   -0.7500    0.0000 C   0  0  0  0  0  0  0  0  0  0  0  0
    3.0000   -0.0000    0.0000 C   0  0  0  0  0  0  0  0  0  0  0  0
    2.2500    1.2990    0.0000 C   0  0  0  0  0  0  0  0  0  0  0  0
  1  2  1  0
  2  3  2  0
  2  4  1  0
  4  5  1  0
  5  6  1  0
  6  7  1  0
  7  8  1  0
  8  9  1  6
  8 10  1  0
 10 11  1  0
 10 12  1  0
 10 13  1  0
  6 14  1  0
 14 15  1  0
 15 16  1  0
 16 17  1  0
 17 18  1  0
 18 19  1  0
 18 20  1  0
 20 21  1  0
 21 22  1  0
  8  4  1  0
 19 14  1  0
 21  6  1  0
 22 16  1  0
M  END
>  <Compound_ID>  (355) 
C04084651

>  <Active>  (355) 
0

>  <Smiles>  (355) 
NC(=S)N1NC2(C[C@]1(O)C(F)(F)F)C1CC3CC(C1)CC2C3

>  <canonical_smi>  (355) 
NC(=S)N1NC2(C[C@]1(O)C(F)(F)F)C1CC3CC(C1)CC2C3

>  <Set>  (355) 
G2 inactive

>  <Set_type>  (355) 
Train

>  <MW>  (355) 
335.39

>  <HBD>  (355) 
3

>  <HBA>  (355) 
5

>  <NRB>  (355) 
0

>  <NR>  (355) 
5

>  <NAR>  (355) 
0

>  <PSA>  (355) 
61.52

>  <Standard Type>  (355) 
nan

>  <Standard Relation>  (355) 
nan

>  <Standard Units>  (355) 
nan

>  <Standard Value>  (355) 
nan

>  <Assay ChEMBL ID>  (355) 
nan

>  <Assay Description>  (355) 
nan

>  <BAO Label>  (355) 
nan

$$$$

     RDKit          2D

 17 18  0  0  0  0  0  0  0  0999 V2000
    3.0000    0.0000    0.0000 C   0  0  0  0  0  0  0  0  0  0  0  0
    1.5000    0.0000    0.0000 C   0  0  0  0  0  0  0  0  0  0  0  0
    0.7500   -1.2990    0.0000 C   0  0  0  0  0  0  0  0  0  0  0  0
   -0.7500   -1.2990    0.0000 C   0  0  0  0  0  0  0  0  0  0  0  0
   -1.5000   -2.5981    0.0000 N   0  0  0  0  0  0  0  0  0  0  0  0
   -3.0000   -2.5981    0.0000 N   0  0  0  0  0  0  0  0  0  0  0  0
   -3.7500   -3.8971    0.0000 C   0  0  0  0  0  0  0  0  0  0  0  0
   -5.2500   -3.8971    0.0000 C   0  0  0  0  0  0  0  0  0  0  0  0
   -6.0000   -5.1962    0.0000 C   0  0  0  0  0  0  0  0  0  0  0  0
   -5.2500   -6.4952    0.0000 C   0  0  0  0  0  0  0  0  0  0  0  0
   -6.0000   -7.7942    0.0000 Br  0  0  0  0  0  0  0  0  0  0  0  0
   -3.7500   -6.4952    0.0000 C   0  0  0  0  0  0  0  0  0  0  0  0
   -3.0000   -5.1962    0.0000 C   0  0  0  0  0  0  0  0  0  0  0  0
   -1.5000    0.0000    0.0000 N   0  0  0  0  0  0  0  0  0  0  0  0
   -0.7500    1.2990    0.0000 C   0  0  0  0  0  0  0  0  0  0  0  0
   -1.5000    2.5981    0.0000 S   0  0  0  0  0  0  0  0  0  0  0  0
    0.7500    1.2990    0.0000 N   0  0  0  0  0  0  0  0  0  0  0  0
  2  1  1  6
  2  3  1  0
  3  4  1  0
  4  5  1  1
  5  6  1  0
  6  7  1  0
  7  8  2  0
  8  9  1  0
  9 10  2  0
 10 11  1  0
 10 12  1  0
 12 13  2  0
  4 14  1  0
 14 15  1  0
 15 16  2  0
 15 17  1  0
 17  2  1  0
 13  7  1  0
M  END
>  <Compound_ID>  (356) 
C00321108

>  <Active>  (356) 
0

>  <Smiles>  (356) 
C[C@@H]1C[C@@H](NNc2ccc(Br)cc2)NC(=S)N1

>  <canonical_smi>  (356) 
C[C@@H]1C[C@@H](NNc2ccc(Br)cc2)NC(=S)N1

>  <Set>  (356) 
G2 inactive

>  <Set_type>  (356) 
Train

>  <MW>  (356) 
315.24

>  <HBD>  (356) 
4

>  <HBA>  (356) 
5

>  <NRB>  (356) 
3

>  <NR>  (356) 
2

>  <NAR>  (356) 
1

>  <PSA>  (356) 
48.12

>  <Standard Type>  (356) 
nan

>  <Standard Relation>  (356) 
nan

>  <Standard Units>  (356) 
nan

>  <Standard Value>  (356) 
nan

>  <Assay ChEMBL ID>  (356) 
nan

>  <Assay Description>  (356) 
nan

>  <BAO Label>  (356) 
nan

$$$$

     RDKit          2D

 16 17  0  0  0  0  0  0  0  0999 V2000
   -2.9499    4.2246    0.0000 C   0  0  0  0  0  0  0  0  0  0  0  0
   -1.8351    3.2209    0.0000 C   0  0  0  0  0  0  0  0  0  0  0  0
   -0.4086    3.6844    0.0000 C   0  0  0  0  0  0  0  0  0  0  0  0
    0.7062    2.6807    0.0000 C   0  0  0  0  0  0  0  0  0  0  0  0
    2.1328    3.1443    0.0000 C   0  0  0  0  0  0  0  0  0  0  0  0
    0.3943    1.2135    0.0000 C   0  0  0  0  0  0  0  0  0  0  0  0
    1.2760    0.0000    0.0000 N   0  0  0  0  0  0  0  0  0  0  0  0
    0.3943   -1.2135    0.0000 C   0  0  0  0  0  0  0  0  0  0  0  0
    0.8578   -2.6401    0.0000 N   0  0  0  0  0  0  0  0  0  0  0  0
   -0.1459   -3.7548    0.0000 N   0  0  0  0  0  0  0  0  0  0  0  0
    0.3177   -5.1814    0.0000 C   0  0  0  0  0  0  0  0  0  0  0  0
   -0.6860   -6.2961    0.0000 N   0  0  0  0  0  0  0  0  0  0  0  0
    1.7849   -5.4933    0.0000 S   0  0  0  0  0  0  0  0  0  0  0  0
   -1.0323   -0.7500    0.0000 S   0  0  0  0  0  0  0  0  0  0  0  0
   -1.0323    0.7500    0.0000 C   0  0  0  0  0  0  0  0  0  0  0  0
   -2.1470    1.7537    0.0000 C   0  0  0  0  0  0  0  0  0  0  0  0
  1  2  1  0
  2  3  2  0
  3  4  1  0
  4  5  1  0
  4  6  2  0
  6  7  1  0
  7  8  2  0
  8  9  1  0
  9 10  1  0
 10 11  1  0
 11 12  1  0
 11 13  2  0
  8 14  1  0
 14 15  1  0
 15 16  2  0
 16  2  1  0
 15  6  1  0
M  END
>  <Compound_ID>  (357) 
C22124836

>  <Active>  (357) 
0

>  <Smiles>  (357) 
Cc1cc(C)c2nc(NNC(N)=S)sc2c1

>  <canonical_smi>  (357) 
Cc1cc(C)c2nc(NNC(N)=S)sc2c1

>  <Set>  (357) 
G2 inactive

>  <Set_type>  (357) 
Train

>  <MW>  (357) 
252.37

>  <HBD>  (357) 
3

>  <HBA>  (357) 
5

>  <NRB>  (357) 
2

>  <NR>  (357) 
2

>  <NAR>  (357) 
2

>  <PSA>  (357) 
62.97

>  <Standard Type>  (357) 
nan

>  <Standard Relation>  (357) 
nan

>  <Standard Units>  (357) 
nan

>  <Standard Value>  (357) 
nan

>  <Assay ChEMBL ID>  (357) 
nan

>  <Assay Description>  (357) 
nan

>  <BAO Label>  (357) 
nan

$$$$

     RDKit          2D

 19 20  0  0  0  0  0  0  0  0999 V2000
    3.0000   -2.5981    0.0000 C   0  0  0  0  0  0  0  0  0  0  0  0
    1.5000   -2.5981    0.0000 C   0  0  0  0  0  0  0  0  0  0  0  0
    0.7500   -1.2990    0.0000 C   0  0  0  0  0  0  0  0  0  0  0  0
    1.5000    0.0000    0.0000 C   0  0  0  0  0  0  0  0  0  0  0  0
    3.0000    0.0000    0.0000 O   0  0  0  0  0  0  0  0  0  0  0  0
    0.7500    1.2990    0.0000 C   0  0  0  0  0  0  0  0  0  0  0  0
    1.5000    2.5981    0.0000 C   0  0  0  0  0  0  0  0  0  0  0  0
    0.2010    3.3481    0.0000 C   0  0  0  0  0  0  0  0  0  0  0  0
    2.7990    1.8481    0.0000 C   0  0  0  0  0  0  0  0  0  0  0  0
    2.2500    3.8971    0.0000 O   0  0  0  0  0  0  0  0  0  0  0  0
   -0.7500    1.2990    0.0000 C   0  0  0  0  0  0  0  0  0  0  0  0
   -1.5000    0.0000    0.0000 C   0  0  0  0  0  0  0  0  0  0  0  0
   -0.7500   -1.2990    0.0000 C   0  0  0  0  0  0  0  0  0  0  0  0
   -2.2500   -1.2990    0.0000 C   0  0  0  0  0  0  0  0  0  0  0  0
   -1.5000   -2.5981    0.0000 C   0  0  0  0  0  0  0  0  0  0  0  0
   -3.0000   -2.5981    0.0000 O   0  0  0  0  0  0  0  0  0  0  0  0
   -0.7500   -3.8971    0.0000 C   0  0  0  0  0  0  0  0  0  0  0  0
    0.7500   -3.8971    0.0000 C   0  0  0  0  0  0  0  0  0  0  0  0
    1.5000   -5.1962    0.0000 O   0  0  0  0  0  0  0  0  0  0  0  0
  2  1  1  6
  3  2  1  6
  3  4  1  0
  4  5  1  1
  4  6  1  0
  6  7  1  1
  7  8  1  0
  7  9  1  0
  7 10  1  0
  6 11  1  0
 11 12  1  0
 12 13  1  0
 13 14  1  6
 13 15  1  0
 15 16  1  6
 15 17  1  0
 17 18  1  0
 18 19  1  1
 18  2  1  0
 13  3  1  0
M  END
>  <Compound_ID>  (358) 
C35465385

>  <Active>  (358) 
0

>  <Smiles>  (358) 
C[C@H]1[C@H]2[C@H](O)[C@H](C(C)(C)O)CC[C@]2(C)[C@@H](O)C[C@@H]1O

>  <canonical_smi>  (358) 
C[C@@H]1[C@@H](O)C[C@H](O)[C@@]2(C)CC[C@@H](C(C)(C)O)[C@@H](O)[C@H]12

>  <Set>  (358) 
G2 inactive

>  <Set_type>  (358) 
Train

>  <MW>  (358) 
272.38

>  <HBD>  (358) 
4

>  <HBA>  (358) 
4

>  <NRB>  (358) 
1

>  <NR>  (358) 
2

>  <NAR>  (358) 
0

>  <PSA>  (358) 
80.92

>  <Standard Type>  (358) 
nan

>  <Standard Relation>  (358) 
nan

>  <Standard Units>  (358) 
nan

>  <Standard Value>  (358) 
nan

>  <Assay ChEMBL ID>  (358) 
nan

>  <Assay Description>  (358) 
nan

>  <BAO Label>  (358) 
nan

$$$$

     RDKit          2D

 20 21  0  0  0  0  0  0  0  0999 V2000
    3.7500   -1.2990    0.0000 N   0  0  0  0  0  0  0  0  0  0  0  0
    3.0000    0.0000    0.0000 C   0  0  0  0  0  0  0  0  0  0  0  0
    3.7500    1.2990    0.0000 O   0  0  0  0  0  0  0  0  0  0  0  0
    1.5000    0.0000    0.0000 C   0  0  0  0  0  0  0  0  0  0  0  0
    0.7500   -1.2990    0.0000 C   0  0  0  0  0  0  0  0  0  0  0  0
   -0.7500   -1.2990    0.0000 C   0  0  0  0  0  0  0  0  0  0  0  0
   -1.5000   -2.5981    0.0000 O   0  0  0  0  0  0  0  0  0  0  0  0
   -3.0000   -2.5981    0.0000 C   0  0  0  0  0  0  0  0  0  0  0  0
   -3.7500   -1.2990    0.0000 C   0  0  0  0  0  0  0  0  0  0  0  0
   -5.2500   -1.2990    0.0000 C   0  0  0  0  0  0  0  0  0  0  0  0
   -6.0000   -2.5981    0.0000 C   0  0  0  0  0  0  0  0  0  0  0  0
   -7.5000   -2.5981    0.0000 F   0  0  0  0  0  0  0  0  0  0  0  0
   -5.2500   -3.8971    0.0000 C   0  0  0  0  0  0  0  0  0  0  0  0
   -6.0000   -5.1962    0.0000 F   0  0  0  0  0  0  0  0  0  0  0  0
   -3.7500   -3.8971    0.0000 C   0  0  0  0  0  0  0  0  0  0  0  0
   -1.5000    0.0000    0.0000 C   0  0  0  0  0  0  0  0  0  0  0  0
   -3.0000    0.0000    0.0000 F   0  0  0  0  0  0  0  0  0  0  0  0
   -0.7500    1.2990    0.0000 C   0  0  0  0  0  0  0  0  0  0  0  0
    0.7500    1.2990    0.0000 C   0  0  0  0  0  0  0  0  0  0  0  0
    1.5000    2.5981    0.0000 N   0  0  0  0  0  0  0  0  0  0  0  0
  1  2  1  0
  2  3  2  0
  2  4  1  0
  4  5  2  0
  5  6  1  0
  6  7  1  0
  7  8  1  0
  8  9  2  0
  9 10  1  0
 10 11  2  0
 11 12  1  0
 11 13  1  0
 13 14  1  0
 13 15  2  0
  6 16  2  0
 16 17  1  0
 16 18  1  0
 18 19  2  0
 19 20  1  0
 19  4  1  0
 15  8  1  0
M  END
>  <Compound_ID>  (359) 
C50035274

>  <Active>  (359) 
0

>  <Smiles>  (359) 
NC(=O)c1cc(Oc2ccc(F)c(F)c2)c(F)cc1N

>  <canonical_smi>  (359) 
NC(=O)c1cc(Oc2ccc(F)c(F)c2)c(F)cc1N

>  <Set>  (359) 
G2 inactive

>  <Set_type>  (359) 
Train

>  <MW>  (359) 
282.22

>  <HBD>  (359) 
2

>  <HBA>  (359) 
3

>  <NRB>  (359) 
3

>  <NR>  (359) 
2

>  <NAR>  (359) 
2

>  <PSA>  (359) 
78.34

>  <Standard Type>  (359) 
nan

>  <Standard Relation>  (359) 
nan

>  <Standard Units>  (359) 
nan

>  <Standard Value>  (359) 
nan

>  <Assay ChEMBL ID>  (359) 
nan

>  <Assay Description>  (359) 
nan

>  <BAO Label>  (359) 
nan

$$$$

     RDKit          2D

 27 30  0  0  0  0  0  0  0  0999 V2000
   -1.5000   -7.7942    0.0000 O   0  0  0  0  0  0  0  0  0  0  0  0
   -0.7500   -6.4952    0.0000 C   0  0  0  0  0  0  0  0  0  0  0  0
   -1.5000   -5.1962    0.0000 N   0  0  0  0  0  0  0  0  0  0  0  0
   -0.7500   -3.8971    0.0000 C   0  0  0  0  0  0  0  0  0  0  0  0
   -1.5000   -2.5981    0.0000 N   0  0  0  0  0  0  0  0  0  0  0  0
   -0.7500   -1.2990    0.0000 C   0  0  0  0  0  0  0  0  0  0  0  0
    0.7500   -1.2990    0.0000 C   0  0  0  0  0  0  0  0  0  0  0  0
    1.5000    0.0000    0.0000 C   0  0  0  0  0  0  0  0  0  0  0  0
    3.0000    0.0000    0.0000 O   0  0  0  0  0  0  0  0  0  0  0  0
    0.7500    1.2990    0.0000 C   0  0  0  0  0  0  0  0  0  0  0  0
   -0.7500    1.2990    0.0000 C   0  0  0  0  0  0  0  0  0  0  0  0
   -1.5000    0.0000    0.0000 C   0  0  0  0  0  0  0  0  0  0  0  0
    1.5000   -2.5981    0.0000 C   0  0  0  0  0  0  0  0  0  0  0  0
    3.0000   -2.5981    0.0000 C   0  0  0  0  0  0  0  0  0  0  0  0
    3.7500   -3.8971    0.0000 C   0  0  0  0  0  0  0  0  0  0  0  0
    5.2500   -3.8971    0.0000 C   0  0  0  0  0  0  0  0  0  0  0  0
    6.0000   -2.5981    0.0000 C   0  0  0  0  0  0  0  0  0  0  0  0
    7.5000   -2.5981    0.0000 O   0  0  0  0  0  0  0  0  0  0  0  0
    8.2500   -3.8971    0.0000 C   0  0  0  0  0  0  0  0  0  0  0  0
    9.7500   -3.8971    0.0000 F   0  0  0  0  0  0  0  0  0  0  0  0
    7.5000   -5.1962    0.0000 F   0  0  0  0  0  0  0  0  0  0  0  0
    5.2500   -1.2990    0.0000 C   0  0  0  0  0  0  0  0  0  0  0  0
    3.7500   -1.2990    0.0000 C   0  0  0  0  0  0  0  0  0  0  0  0
    0.7500   -3.8971    0.0000 C   0  0  0  0  0  0  0  0  0  0  0  0
    1.5000   -5.1962    0.0000 C   0  0  0  0  0  0  0  0  0  0  0  0
    3.0000   -5.1962    0.0000 O   0  0  0  0  0  0  0  0  0  0  0  0
    0.7500   -6.4952    0.0000 N   0  0  0  0  0  0  0  0  0  0  0  0
  1  2  2  0
  2  3  1  0
  3  4  2  0
  4  5  1  0
  5  6  1  0
  6  7  2  0
  7  8  1  0
  8  9  2  0
  8 10  1  0
 10 11  1  0
 11 12  1  0
  7 13  1  0
 13 14  1  1
 14 15  2  0
 15 16  1  0
 16 17  2  0
 17 18  1  0
 18 19  1  0
 19 20  1  0
 19 21  1  0
 17 22  1  0
 22 23  2  0
 13 24  1  0
 24 25  1  6
 25 26  2  0
 25 27  1  0
 27  2  1  0
 24  4  1  0
 12  6  1  0
 23 14  1  0
M  END
>  <Compound_ID>  (360) 
C63067997

>  <Active>  (360) 
0

>  <Smiles>  (360) 
O=C1N=C2NC3=C(C(=O)CCC3)[C@@H](c3ccc(OC(F)F)cc3)[C@@H]2C(=O)N1

>  <canonical_smi>  (360) 
O=C1N=C2NC3=C(C(=O)CCC3)[C@@H](c3ccc(OC(F)F)cc3)[C@@H]2C(=O)N1

>  <Set>  (360) 
G2 inactive

>  <Set_type>  (360) 
Train

>  <MW>  (360) 
375.33

>  <HBD>  (360) 
2

>  <HBA>  (360) 
5

>  <NRB>  (360) 
3

>  <NR>  (360) 
4

>  <NAR>  (360) 
1

>  <PSA>  (360) 
96.86

>  <Standard Type>  (360) 
nan

>  <Standard Relation>  (360) 
nan

>  <Standard Units>  (360) 
nan

>  <Standard Value>  (360) 
nan

>  <Assay ChEMBL ID>  (360) 
nan

>  <Assay Description>  (360) 
nan

>  <BAO Label>  (360) 
nan

$$$$

     RDKit          2D

 34 37  0  0  0  0  0  0  0  0999 V2000
   -5.2500  -11.6913    0.0000 C   0  0  0  0  0  0  0  0  0  0  0  0
   -3.7500  -11.6913    0.0000 C   0  0  0  0  0  0  0  0  0  0  0  0
   -3.0000  -12.9904    0.0000 C   0  0  0  0  0  0  0  0  0  0  0  0
   -3.7500  -14.2894    0.0000 C   0  0  0  0  0  0  0  0  0  0  0  0
   -3.0000  -15.5885    0.0000 C   0  0  0  0  0  0  0  0  0  0  0  0
   -3.7500  -16.8875    0.0000 C   0  0  0  0  0  0  0  0  0  0  0  0
   -3.0000  -18.1865    0.0000 C   0  0  0  0  0  0  0  0  0  0  0  0
   -1.5000  -18.1865    0.0000 C   0  0  0  0  0  0  0  0  0  0  0  0
   -0.7500  -16.8875    0.0000 C   0  0  0  0  0  0  0  0  0  0  0  0
   -1.5000  -15.5885    0.0000 C   0  0  0  0  0  0  0  0  0  0  0  0
   -3.0000  -10.3923    0.0000 N   0  0  0  0  0  4  0  0  0  0  0  0
   -1.5000  -10.3923    0.0000 C   0  0  0  0  0  0  0  0  0  0  0  0
   -0.7500   -9.0933    0.0000 C   0  0  0  0  0  0  0  0  0  0  0  0
    0.7500   -9.0933    0.0000 C   0  0  0  0  0  0  0  0  0  0  0  0
    1.5000   -7.7942    0.0000 C   0  0  0  0  0  0  0  0  0  0  0  0
    0.7500   -6.4952    0.0000 C   0  0  0  0  0  0  0  0  0  0  0  0
    1.5000   -5.1962    0.0000 O   0  0  0  0  0  0  0  0  0  0  0  0
    0.7500   -3.8971    0.0000 C   0  0  0  0  0  0  0  0  0  0  0  0
    1.5000   -2.5981    0.0000 C   0  0  0  0  0  0  0  0  0  0  0  0
    3.0000   -2.5981    0.0000 O   0  0  0  0  0  0  0  0  0  0  0  0
    0.7500   -1.2990    0.0000 C   0  0  0  0  0  0  0  0  0  0  0  0
    1.5000    0.0000    0.0000 C   0  0  0  0  0  0  0  0  0  0  0  0
    0.7500    1.2990    0.0000 C   0  0  0  0  0  0  0  0  0  0  0  0
   -0.7500    1.2990    0.0000 C   0  0  0  0  0  0  0  0  0  0  0  0
   -1.5000    0.0000    0.0000 C   0  0  0  0  0  0  0  0  0  0  0  0
   -0.7500   -1.2990    0.0000 C   0  0  0  0  0  0  0  0  0  0  0  0
   -2.9672    0.3119    0.0000 N   0  0  0  0  0  0  0  0  0  0  0  0
   -4.0819   -0.6918    0.0000 C   0  0  0  0  0  0  0  0  0  0  0  0
   -3.1240    1.8037    0.0000 C   0  0  0  0  0  0  0  0  0  0  0  0
   -4.4231    2.5537    0.0000 O   0  0  0  0  0  0  0  0  0  0  0  0
   -1.7537    2.4138    0.0000 N   0  0  0  0  0  0  0  0  0  0  0  0
   -1.4418    3.8810    0.0000 C   0  0  0  0  0  0  0  0  0  0  0  0
   -0.7500   -6.4952    0.0000 C   0  0  0  0  0  0  0  0  0  0  0  0
   -1.5000   -7.7942    0.0000 C   0  0  0  0  0  0  0  0  0  0  0  0
  2  1  1  1
  2  3  1  0
  3  4  1  0
  4  5  1  0
  5  6  2  0
  6  7  1  0
  7  8  2  0
  8  9  1  0
  9 10  2  0
  2 11  1  0
 11 12  1  0
 12 13  1  0
 13 14  2  0
 14 15  1  0
 15 16  2  0
 16 17  1  0
 17 18  1  0
 18 19  1  0
 19 20  1  6
 19 21  1  0
 21 22  2  0
 22 23  1  0
 23 24  2  0
 24 25  1  0
 25 26  2  0
 25 27  1  0
 27 28  1  0
 27 29  1  0
 29 30  2  0
 29 31  1  0
 31 32  1  0
 16 33  1  0
 33 34  2  0
 10  5  1  0
 34 13  1  0
 26 21  1  0
 31 24  1  0
M  CHG  1  11   1
M  END
>  <Compound_ID>  (361) 
C13726464

>  <Active>  (361) 
0

>  <Smiles>  (361) 
C[C@H](CCc1ccccc1)[NH2+]Cc1ccc(OC[C@@H](O)c2ccc3c(c2)n(C)c(=O)n3C)cc1

>  <canonical_smi>  (361) 
C[C@H](CCc1ccccc1)[NH2+]Cc1ccc(OC[C@@H](O)c2ccc3c(c2)n(C)c(=O)n3C)cc1

>  <Set>  (361) 
G2 inactive

>  <Set_type>  (361) 
Train

>  <MW>  (361) 
460.6

>  <HBD>  (361) 
2

>  <HBA>  (361) 
3

>  <NRB>  (361) 
10

>  <NR>  (361) 
4

>  <NAR>  (361) 
4

>  <PSA>  (361) 
73.0

>  <Standard Type>  (361) 
nan

>  <Standard Relation>  (361) 
nan

>  <Standard Units>  (361) 
nan

>  <Standard Value>  (361) 
nan

>  <Assay ChEMBL ID>  (361) 
nan

>  <Assay Description>  (361) 
nan

>  <BAO Label>  (361) 
nan

$$$$

     RDKit          2D

 27 30  0  0  0  0  0  0  0  0999 V2000
   -8.9503   -5.6686    0.0000 C   0  0  0  0  0  0  0  0  0  0  0  0
   -7.5169   -6.1107    0.0000 C   0  0  0  0  0  0  0  0  0  0  0  0
   -6.4173   -5.0904    0.0000 C   0  0  0  0  0  0  0  0  0  0  0  0
   -4.9840   -5.5326    0.0000 S   0  0  0  0  0  0  0  0  0  0  0  0
   -3.8844   -4.5123    0.0000 C   0  0  0  0  0  0  0  0  0  0  0  0
   -4.2182   -3.0499    0.0000 N   0  0  0  0  0  0  0  0  0  0  0  0
   -3.1186   -2.0297    0.0000 N   0  0  0  0  0  0  0  0  0  0  0  0
   -1.6852   -2.4718    0.0000 C   0  0  0  0  0  0  0  0  0  0  0  0
   -1.3515   -3.9342    0.0000 C   0  0  0  0  0  0  0  0  0  0  0  0
   -2.4510   -4.9544    0.0000 N   0  0  0  0  0  0  0  0  0  0  0  0
   -0.0000   -4.5850    0.0000 O   0  0  0  0  0  0  0  0  0  0  0  0
    1.3515   -3.9342    0.0000 C   0  0  0  0  0  0  0  0  0  0  0  0
    2.5242   -4.8694    0.0000 C   0  0  0  0  0  0  0  0  0  0  0  0
    2.3006   -6.3527    0.0000 C   0  0  0  0  0  0  0  0  0  0  0  0
    3.4734   -7.2879    0.0000 C   0  0  0  0  0  0  0  0  0  0  0  0
    4.8697   -6.7399    0.0000 C   0  0  0  0  0  0  0  0  0  0  0  0
    6.0424   -7.6751    0.0000 O   0  0  0  0  0  0  0  0  0  0  0  0
    5.0933   -5.2566    0.0000 C   0  0  0  0  0  0  0  0  0  0  0  0
    6.4896   -4.7086    0.0000 O   0  0  0  0  0  0  0  0  0  0  0  0
    3.9205   -4.3214    0.0000 C   0  0  0  0  0  0  0  0  0  0  0  0
    1.6852   -2.4718    0.0000 N   0  0  0  0  0  0  0  0  0  0  0  0
    0.7500   -1.2990    0.0000 C   0  0  0  0  0  0  0  0  0  0  0  0
    1.5000    0.0000    0.0000 C   0  0  0  0  0  0  0  0  0  0  0  0
    0.7500    1.2990    0.0000 C   0  0  0  0  0  0  0  0  0  0  0  0
   -0.7500    1.2990    0.0000 C   0  0  0  0  0  0  0  0  0  0  0  0
   -1.5000    0.0000    0.0000 C   0  0  0  0  0  0  0  0  0  0  0  0
   -0.7500   -1.2990    0.0000 C   0  0  0  0  0  0  0  0  0  0  0  0
  1  2  2  0
  2  3  1  0
  3  4  1  0
  4  5  1  0
  5  6  2  0
  6  7  1  0
  7  8  2  0
  8  9  1  0
  9 10  2  0
  9 11  1  0
 11 12  1  0
 12 13  1  1
 13 14  2  0
 14 15  1  0
 15 16  2  0
 16 17  1  0
 16 18  1  0
 18 19  1  0
 18 20  2  0
 12 21  1  0
 21 22  1  0
 22 23  2  0
 23 24  1  0
 24 25  2  0
 25 26  1  0
 26 27  2  0
 10  5  1  0
 20 13  1  0
 27 22  1  0
 27  8  1  0
M  END
>  <Compound_ID>  (362) 
C02977480

>  <Active>  (362) 
0

>  <Smiles>  (362) 
C=CCSc1nnc2c(n1)O[C@H](c1ccc(O)c(O)c1)Nc1ccccc1-2

>  <canonical_smi>  (362) 
C=CCSc1nnc2c(n1)O[C@H](c1ccc(O)c(O)c1)Nc1ccccc1-2

>  <Set>  (362) 
G2 inactive

>  <Set_type>  (362) 
Train

>  <MW>  (362) 
380.43

>  <HBD>  (362) 
3

>  <HBA>  (362) 
8

>  <NRB>  (362) 
4

>  <NR>  (362) 
4

>  <NAR>  (362) 
3

>  <PSA>  (362) 
100.39

>  <Standard Type>  (362) 
nan

>  <Standard Relation>  (362) 
nan

>  <Standard Units>  (362) 
nan

>  <Standard Value>  (362) 
nan

>  <Assay ChEMBL ID>  (362) 
nan

>  <Assay Description>  (362) 
nan

>  <BAO Label>  (362) 
nan

$$$$

     RDKit          2D

 28 31  0  0  0  0  0  0  0  0999 V2000
    3.7500   -9.0933    0.0000 N   0  0  0  0  0  0  0  0  0  0  0  0
    3.0000  -10.3923    0.0000 C   0  0  0  0  0  0  0  0  0  0  0  0
    3.7500  -11.6913    0.0000 C   0  0  0  0  0  0  0  0  0  0  0  0
    3.0000  -12.9904    0.0000 C   0  0  0  0  0  0  0  0  0  0  0  0
    1.5000  -12.9904    0.0000 C   0  0  0  0  0  0  0  0  0  0  0  0
    0.7500  -11.6913    0.0000 C   0  0  0  0  0  0  0  0  0  0  0  0
    1.5000  -10.3923    0.0000 C   0  0  0  0  0  0  0  0  0  0  0  0
    0.7500   -9.0933    0.0000 C   0  0  0  0  0  0  0  0  0  0  0  0
   -0.7500   -9.0933    0.0000 O   0  0  0  0  0  0  0  0  0  0  0  0
    1.5000   -7.7942    0.0000 N   0  0  0  0  0  0  0  0  0  0  0  0
    0.7500   -6.4952    0.0000 N   0  0  0  0  0  0  0  0  0  0  0  0
    1.5000   -5.1962    0.0000 C   0  0  0  0  0  0  0  0  0  0  0  0
    0.7500   -3.8971    0.0000 C   0  0  0  0  0  0  0  0  0  0  0  0
    1.5000   -2.5981    0.0000 N   0  0  0  0  0  0  0  0  0  0  0  0
    0.7500   -1.2990    0.0000 C   0  0  0  0  0  0  0  0  0  0  0  0
    1.5000    0.0000    0.0000 C   0  0  0  0  0  0  0  0  0  0  0  0
    0.7500    1.2990    0.0000 C   0  0  0  0  0  0  0  0  0  0  0  0
   -0.7500    1.2990    0.0000 C   0  0  0  0  0  0  0  0  0  0  0  0
   -1.5000    0.0000    0.0000 C   0  0  0  0  0  0  0  0  0  0  0  0
   -0.7500   -1.2990    0.0000 C   0  0  0  0  0  0  0  0  0  0  0  0
   -1.5000   -2.5981    0.0000 C   0  0  0  0  0  0  0  0  0  0  0  0
   -0.7500   -3.8971    0.0000 N   0  0  0  0  0  0  0  0  0  0  0  0
    3.0000   -5.1962    0.0000 C   0  0  0  0  0  0  0  0  0  0  0  0
    3.7500   -6.4952    0.0000 C   0  0  0  0  0  0  0  0  0  0  0  0
    5.2500   -6.4952    0.0000 C   0  0  0  0  0  0  0  0  0  0  0  0
    6.0000   -5.1962    0.0000 C   0  0  0  0  0  0  0  0  0  0  0  0
    5.2500   -3.8971    0.0000 C   0  0  0  0  0  0  0  0  0  0  0  0
    3.7500   -3.8971    0.0000 C   0  0  0  0  0  0  0  0  0  0  0  0
  1  2  1  0
  2  3  2  0
  3  4  1  0
  4  5  2  0
  5  6  1  0
  6  7  2  0
  7  8  1  0
  8  9  2  0
  8 10  1  0
 10 11  1  0
 11 12  2  0
 12 13  1  0
 13 14  2  0
 14 15  1  0
 15 16  2  0
 16 17  1  0
 17 18  2  0
 18 19  1  0
 19 20  2  0
 20 21  1  0
 21 22  1  0
 12 23  1  0
 23 24  2  0
 24 25  1  0
 25 26  2  0
 26 27  1  0
 27 28  2  0
  7  2  1  0
 22 13  1  0
 28 23  1  0
 20 15  1  0
M  END
>  <Compound_ID>  (363) 
C27753440

>  <Active>  (363) 
0

>  <Smiles>  (363) 
Nc1ccccc1C(=O)N/N=C(/C1=Nc2ccccc2CN1)c1ccccc1

>  <canonical_smi>  (363) 
Nc1ccccc1C(=O)N/N=C(/C1=Nc2ccccc2CN1)c1ccccc1

>  <Set>  (363) 
G2 inactive

>  <Set_type>  (363) 
Train

>  <MW>  (363) 
369.43

>  <HBD>  (363) 
3

>  <HBA>  (363) 
3

>  <NRB>  (363) 
4

>  <NR>  (363) 
4

>  <NAR>  (363) 
3

>  <PSA>  (363) 
91.87

>  <Standard Type>  (363) 
nan

>  <Standard Relation>  (363) 
nan

>  <Standard Units>  (363) 
nan

>  <Standard Value>  (363) 
nan

>  <Assay ChEMBL ID>  (363) 
nan

>  <Assay Description>  (363) 
nan

>  <BAO Label>  (363) 
nan

$$$$

     RDKit          2D

 26 29  0  0  0  0  0  0  0  0999 V2000
    5.2500    0.2010    0.0000 C   0  0  0  0  0  0  0  0  0  0  0  0
    5.2500   -1.2990    0.0000 C   0  0  0  0  0  0  0  0  0  0  0  0
    5.2500   -2.7990    0.0000 C   0  0  0  0  0  0  0  0  0  0  0  0
    6.7500   -1.2990    0.0000 O   0  0  0  0  0  0  0  0  0  0  0  0
    3.7500   -1.2990    0.0000 C   0  0  0  0  0  0  0  0  0  0  0  0
    3.0000    0.0000    0.0000 C   0  0  0  0  0  0  0  0  0  0  0  0
    1.5000    0.0000    0.0000 C   0  0  0  0  0  0  0  0  0  0  0  0
    0.7500   -1.2990    0.0000 C   0  0  0  0  0  0  0  0  0  0  0  0
   -0.7500   -1.2990    0.0000 C   0  0  0  0  0  0  0  0  0  0  0  0
   -1.5000    0.0000    0.0000 C   0  0  0  0  0  0  0  0  0  0  0  0
   -0.7500    1.2990    0.0000 C   0  0  0  0  0  0  0  0  0  0  0  0
    0.7500    1.2990    0.0000 C   0  0  0  0  0  0  0  0  0  0  0  0
    1.5000    2.5981    0.0000 O   0  0  0  0  0  0  0  0  0  0  0  0
   -2.9672   -0.3119    0.0000 O   0  0  0  0  0  0  0  0  0  0  0  0
   -3.1240   -1.8037    0.0000 C   0  0  0  0  0  0  0  0  0  0  0  0
   -4.3375   -2.6853    0.0000 C   0  0  0  0  0  0  0  0  0  0  0  0
   -5.7079   -2.0752    0.0000 C   0  0  0  0  0  0  0  0  0  0  0  0
   -6.9214   -2.9569    0.0000 C   0  0  0  0  0  0  0  0  0  0  0  0
   -6.7646   -4.4487    0.0000 C   0  0  0  0  0  0  0  0  0  0  0  0
   -7.9781   -5.3304    0.0000 O   0  0  0  0  0  0  0  0  0  0  0  0
   -5.3943   -5.0588    0.0000 C   0  0  0  0  0  0  0  0  0  0  0  0
   -5.2375   -6.5506    0.0000 O   0  0  0  0  0  0  0  0  0  0  0  0
   -4.1807   -4.1771    0.0000 C   0  0  0  0  0  0  0  0  0  0  0  0
   -2.8104   -4.7872    0.0000 O   0  0  0  0  0  0  0  0  0  0  0  0
   -1.5969   -3.9055    0.0000 C   0  0  0  0  0  0  0  0  0  0  0  0
   -1.7537   -2.4138    0.0000 C   0  0  0  0  0  0  0  0  0  0  0  0
  1  2  1  0
  2  3  1  0
  2  4  1  0
  2  5  1  0
  5  6  1  0
  6  7  1  0
  7  8  2  0
  8  9  1  0
  9 10  2  0
 10 11  1  0
 11 12  2  0
 12 13  1  0
 10 14  1  0
 15 14  1  6
 15 16  1  0
 16 17  2  0
 17 18  1  0
 18 19  2  0
 19 20  1  0
 19 21  1  0
 21 22  1  0
 21 23  2  0
 23 24  1  0
 24 25  1  0
 26 25  1  1
 12  7  1  0
 26 15  1  0
 26  9  1  0
 23 16  1  0
M  END
>  <Compound_ID>  (364) 
C31161239

>  <Active>  (364) 
0

>  <Smiles>  (364) 
CC(C)(O)CCc1cc2c(cc1O)O[C@H]1c3ccc(O)c(O)c3OC[C@H]21

>  <canonical_smi>  (364) 
CC(C)(O)CCc1cc2c(cc1O)O[C@H]1c3ccc(O)c(O)c3OC[C@H]21

>  <Set>  (364) 
G2 inactive

>  <Set_type>  (364) 
Train

>  <MW>  (364) 
358.39

>  <HBD>  (364) 
4

>  <HBA>  (364) 
6

>  <NRB>  (364) 
3

>  <NR>  (364) 
4

>  <NAR>  (364) 
2

>  <PSA>  (364) 
99.38

>  <Standard Type>  (364) 
nan

>  <Standard Relation>  (364) 
nan

>  <Standard Units>  (364) 
nan

>  <Standard Value>  (364) 
nan

>  <Assay ChEMBL ID>  (364) 
nan

>  <Assay Description>  (364) 
nan

>  <BAO Label>  (364) 
nan

$$$$

     RDKit          2D

 21 21  0  0  0  0  0  0  0  0999 V2000
    7.8705    2.5981    0.0000 C   0  0  0  0  0  0  0  0  0  0  0  0
    7.1205    1.2990    0.0000 O   0  0  0  0  0  0  0  0  0  0  0  0
    5.6205    1.2990    0.0000 C   0  0  0  0  0  0  0  0  0  0  0  0
    5.0930    2.5417    0.0000 O   0  0  0  0  0  0  0  0  0  0  0  0
    4.8705    0.0000    0.0000 C   0  0  0  0  0  0  0  0  0  0  0  0
    3.3705    0.0000    0.0000 C   0  0  0  0  0  0  0  0  0  0  0  0
    3.0367   -1.4624    0.0000 C   0  0  0  0  0  0  0  0  0  0  0  0
    4.3881   -2.1132    0.0000 O   0  0  0  0  0  0  0  0  0  0  0  0
    2.1015   -2.6351    0.0000 C   0  0  0  0  0  0  0  0  0  0  0  0
    0.7500   -3.2860    0.0000 C   0  0  0  0  0  0  0  0  0  0  0  0
   -0.7500   -3.2860    0.0000 C   0  0  0  0  0  0  0  0  0  0  0  0
   -2.1015   -2.6351    0.0000 C   0  0  0  0  0  0  0  0  0  0  0  0
   -3.0367   -1.4624    0.0000 C   0  0  0  0  0  0  0  0  0  0  0  0
   -3.3705    0.0000    0.0000 C   0  0  0  0  0  0  0  0  0  0  0  0
   -3.0367    1.4624    0.0000 C   0  0  0  0  0  0  0  0  0  0  0  0
   -2.1015    2.6351    0.0000 C   0  0  0  0  0  0  0  0  0  0  0  0
   -0.7500    3.2860    0.0000 C   0  0  0  0  0  0  0  0  0  0  0  0
    0.7500    3.2860    0.0000 C   0  0  0  0  0  0  0  0  0  0  0  0
    2.1015    2.6351    0.0000 C   0  0  0  0  0  0  0  0  0  0  0  0
    3.0367    1.4624    0.0000 C   0  0  0  0  0  0  0  0  0  0  0  0
    4.1725    2.1920    0.0000 O   0  0  0  0  0  0  0  0  0  0  0  0
  1  2  1  0
  2  3  1  0
  3  4  2  0
  3  5  1  0
  5  6  1  0
  6  7  2  0
  7  8  1  0
  7  9  1  0
  9 10  1  0
 10 11  1  0
 11 12  1  0
 12 13  1  0
 13 14  1  0
 14 15  1  0
 15 16  1  0
 16 17  1  0
 17 18  1  0
 18 19  1  0
 19 20  1  0
 20 21  2  0
 20  6  1  0
M  END
>  <Compound_ID>  (365) 
C04552350

>  <Active>  (365) 
0

>  <Smiles>  (365) 
COC(=O)C/C1=C(\O)CCCCCCCCCCCC1=O

>  <canonical_smi>  (365) 
COC(=O)C/C1=C(\O)CCCCCCCCCCCC1=O

>  <Set>  (365) 
G2 inactive

>  <Set_type>  (365) 
Train

>  <MW>  (365) 
296.41

>  <HBD>  (365) 
1

>  <HBA>  (365) 
4

>  <NRB>  (365) 
2

>  <NR>  (365) 
1

>  <NAR>  (365) 
0

>  <PSA>  (365) 
63.6

>  <Standard Type>  (365) 
nan

>  <Standard Relation>  (365) 
nan

>  <Standard Units>  (365) 
nan

>  <Standard Value>  (365) 
nan

>  <Assay ChEMBL ID>  (365) 
nan

>  <Assay Description>  (365) 
nan

>  <BAO Label>  (365) 
nan

$$$$

     RDKit          2D

 22 24  0  0  0  0  0  0  0  0999 V2000
    3.0000    0.0000    0.0000 C   0  0  0  0  0  0  0  0  0  0  0  0
    1.5000    0.0000    0.0000 C   0  0  0  0  0  0  0  0  0  0  0  0
    0.7500   -1.2990    0.0000 C   0  0  0  0  0  0  0  0  0  0  0  0
   -0.7500   -1.2990    0.0000 C   0  0  0  0  0  0  0  0  0  0  0  0
   -1.5000    0.0000    0.0000 C   0  0  0  0  0  0  0  0  0  0  0  0
   -3.0000    0.0000    0.0000 C   0  0  0  0  0  0  0  0  0  0  0  0
   -3.7500    1.2990    0.0000 C   0  0  0  0  0  0  0  0  0  0  0  0
   -5.2500    1.2990    0.0000 C   0  0  0  0  0  0  0  0  0  0  0  0
   -6.0000    2.5981    0.0000 O   0  0  0  0  0  0  0  0  0  0  0  0
   -6.0000    0.0000    0.0000 N   0  0  0  0  0  0  0  0  0  0  0  0
   -5.2500   -1.2990    0.0000 C   0  0  0  0  0  0  0  0  0  0  0  0
   -6.0000   -2.5981    0.0000 N   0  0  0  0  0  0  0  0  0  0  0  0
   -7.5000   -2.5981    0.0000 C   0  0  0  0  0  0  0  0  0  0  0  0
   -8.2500   -1.2990    0.0000 C   0  0  0  0  0  0  0  0  0  0  0  0
   -8.2500   -3.8971    0.0000 C   0  0  0  0  0  0  0  0  0  0  0  0
   -7.5000   -5.1962    0.0000 C   0  0  0  0  0  0  0  0  0  0  0  0
   -6.0000   -5.1962    0.0000 C   0  0  0  0  0  0  0  0  0  0  0  0
   -5.2500   -3.8971    0.0000 C   0  0  0  0  0  0  0  0  0  0  0  0
   -3.7500   -3.8971    0.0000 C   0  0  0  0  0  0  0  0  0  0  0  0
   -3.7500   -1.2990    0.0000 N   0  0  0  0  0  0  0  0  0  0  0  0
   -0.7500    1.2990    0.0000 C   0  0  0  0  0  0  0  0  0  0  0  0
    0.7500    1.2990    0.0000 C   0  0  0  0  0  0  0  0  0  0  0  0
  1  2  1  0
  2  3  2  0
  3  4  1  0
  4  5  2  0
  5  6  1  0
  6  7  2  0
  7  8  1  0
  8  9  2  0
  8 10  1  0
 10 11  1  0
 11 12  1  0
 12 13  1  0
 13 14  1  1
 13 15  1  0
 15 16  1  0
 16 17  1  0
 17 18  1  0
 18 19  1  6
 11 20  2  0
  5 21  1  0
 21 22  2  0
 22  2  1  0
 20  6  1  0
 18 12  1  0
M  END
>  <Compound_ID>  (366) 
C22453503

>  <Active>  (366) 
0

>  <Smiles>  (366) 
Cc1ccc(-c2cc(=O)[nH]c(N3[C@H](C)CCC[C@H]3C)n2)cc1

>  <canonical_smi>  (366) 
Cc1ccc(-c2cc(=O)[nH]c(N3[C@H](C)CCC[C@H]3C)n2)cc1

>  <Set>  (366) 
G2 inactive

>  <Set_type>  (366) 
Train

>  <MW>  (366) 
297.4

>  <HBD>  (366) 
1

>  <HBA>  (366) 
3

>  <NRB>  (366) 
2

>  <NR>  (366) 
3

>  <NAR>  (366) 
2

>  <PSA>  (366) 
48.99

>  <Standard Type>  (366) 
nan

>  <Standard Relation>  (366) 
nan

>  <Standard Units>  (366) 
nan

>  <Standard Value>  (366) 
nan

>  <Assay ChEMBL ID>  (366) 
nan

>  <Assay Description>  (366) 
nan

>  <BAO Label>  (366) 
nan

$$$$

     RDKit          2D

 20 22  0  0  0  0  0  0  0  0999 V2000
    3.7500   -6.4952    0.0000 C   0  0  0  0  0  0  0  0  0  0  0  0
    3.0000   -5.1962    0.0000 O   0  0  0  0  0  0  0  0  0  0  0  0
    1.5000   -5.1962    0.0000 C   0  0  0  0  0  0  0  0  0  0  0  0
    0.7500   -6.4952    0.0000 C   0  0  0  0  0  0  0  0  0  0  0  0
   -0.7500   -6.4952    0.0000 C   0  0  0  0  0  0  0  0  0  0  0  0
   -1.5000   -5.1962    0.0000 C   0  0  0  0  0  0  0  0  0  0  0  0
   -0.7500   -3.8971    0.0000 C   0  0  0  0  0  0  0  0  0  0  0  0
    0.7500   -3.8971    0.0000 C   0  0  0  0  0  0  0  0  0  0  0  0
    1.5000   -2.5981    0.0000 N   0  0  0  0  0  0  0  0  0  0  0  0
    0.7500   -1.2990    0.0000 C   0  0  0  0  0  0  0  0  0  0  0  0
    1.5000    0.0000    0.0000 C   0  0  0  0  0  0  0  0  0  0  0  0
    0.7500    1.2990    0.0000 C   0  0  0  0  0  0  0  0  0  0  0  0
   -0.7500    1.2990    0.0000 C   0  0  0  0  0  0  0  0  0  0  0  0
   -1.5000    0.0000    0.0000 C   0  0  0  0  0  0  0  0  0  0  0  0
   -0.7500   -1.2990    0.0000 C   0  0  0  0  0  0  0  0  0  0  0  0
   -2.9672    0.3119    0.0000 O   0  0  0  0  0  0  0  0  0  0  0  0
   -3.1240    1.8037    0.0000 C   0  0  0  0  0  0  0  0  0  0  0  0
   -4.5912    1.4918    0.0000 F   0  0  0  0  0  0  0  0  0  0  0  0
   -3.5875    3.2302    0.0000 F   0  0  0  0  0  0  0  0  0  0  0  0
   -1.7537    2.4138    0.0000 O   0  0  0  0  0  0  0  0  0  0  0  0
  1  2  1  0
  3  2  1  6
  3  4  1  0
  4  5  1  0
  5  6  1  0
  6  7  1  0
  7  8  1  0
  8  9  1  6
  9 10  1  0
 10 11  2  0
 11 12  1  0
 12 13  2  0
 13 14  1  0
 14 15  2  0
 14 16  1  0
 16 17  1  0
 17 18  1  0
 17 19  1  0
 17 20  1  0
  8  3  1  0
 15 10  1  0
 20 13  1  0
M  END
>  <Compound_ID>  (367) 
C37200276

>  <Active>  (367) 
0

>  <Smiles>  (367) 
CO[C@@H]1CCCC[C@@H]1Nc1ccc2c(c1)OC(F)(F)O2

>  <canonical_smi>  (367) 
CO[C@@H]1CCCC[C@@H]1Nc1ccc2c(c1)OC(F)(F)O2

>  <Set>  (367) 
G2 inactive

>  <Set_type>  (367) 
Train

>  <MW>  (367) 
285.29

>  <HBD>  (367) 
1

>  <HBA>  (367) 
4

>  <NRB>  (367) 
3

>  <NR>  (367) 
3

>  <NAR>  (367) 
1

>  <PSA>  (367) 
39.72

>  <Standard Type>  (367) 
nan

>  <Standard Relation>  (367) 
nan

>  <Standard Units>  (367) 
nan

>  <Standard Value>  (367) 
nan

>  <Assay ChEMBL ID>  (367) 
nan

>  <Assay Description>  (367) 
nan

>  <BAO Label>  (367) 
nan

$$$$

     RDKit          2D

 35 39  0  0  0  0  0  0  0  0999 V2000
   -1.1232   13.2662    0.0000 C   0  0  0  0  0  0  0  0  0  0  0  0
   -1.7333   11.8959    0.0000 O   0  0  0  0  0  0  0  0  0  0  0  0
   -0.8516   10.6824    0.0000 C   0  0  0  0  0  0  0  0  0  0  0  0
    0.6402   10.8391    0.0000 C   0  0  0  0  0  0  0  0  0  0  0  0
    1.5219    9.6256    0.0000 C   0  0  0  0  0  0  0  0  0  0  0  0
    0.9117    8.2553    0.0000 C   0  0  0  0  0  0  0  0  0  0  0  0
    1.7934    7.0418    0.0000 N   0  0  0  0  0  0  0  0  0  0  0  0
    3.2934    7.0418    0.0000 C   0  0  0  0  0  0  0  0  0  0  0  0
    3.7570    5.6152    0.0000 C   0  0  0  0  0  0  0  0  0  0  0  0
    2.5434    4.7335    0.0000 C   0  0  0  0  0  0  0  0  0  0  0  0
    1.3299    5.6152    0.0000 C   0  0  0  0  0  0  0  0  0  0  0  0
   -0.0967    5.1517    0.0000 C   0  0  0  0  0  0  0  0  0  0  0  0
   -0.4086    3.6844    0.0000 C   0  0  0  0  0  0  0  0  0  0  0  0
    0.7062    2.6807    0.0000 C   0  0  0  0  0  0  0  0  0  0  0  0
    2.1328    3.1443    0.0000 N   0  0  0  0  0  4  0  0  0  0  0  0
    0.3943    1.2135    0.0000 N   0  0  0  0  0  0  0  0  0  0  0  0
    1.2760    0.0000    0.0000 N   0  0  0  0  0  0  0  0  0  0  0  0
    0.3943   -1.2135    0.0000 C   0  0  0  0  0  0  0  0  0  0  0  0
    0.8578   -2.6401    0.0000 C   0  0  0  0  0  0  0  0  0  0  0  0
   -0.1459   -3.7548    0.0000 O   0  0  0  0  0  0  0  0  0  0  0  0
    0.3177   -5.1814    0.0000 C   0  0  0  0  0  0  0  0  0  0  0  0
   -0.6860   -6.2961    0.0000 C   0  0  0  0  0  0  0  0  0  0  0  0
   -0.2225   -7.7227    0.0000 C   0  0  0  0  0  0  0  0  0  0  0  0
    1.2447   -8.0346    0.0000 C   0  0  0  0  0  0  0  0  0  0  0  0
    2.2484   -6.9199    0.0000 C   0  0  0  0  0  0  0  0  0  0  0  0
    1.7849   -5.4933    0.0000 C   0  0  0  0  0  0  0  0  0  0  0  0
    2.7886   -4.3786    0.0000 C   0  0  0  0  0  0  0  0  0  0  0  0
   -1.0323   -0.7500    0.0000 S   0  0  0  0  0  0  0  0  0  0  0  0
   -1.0323    0.7500    0.0000 C   0  0  0  0  0  0  0  0  0  0  0  0
   -2.1470    1.7537    0.0000 N   0  0  0  0  0  0  0  0  0  0  0  0
   -1.8351    3.2209    0.0000 C   0  0  0  0  0  0  0  0  0  0  0  0
   -2.9499    4.2246    0.0000 O   0  0  0  0  0  0  0  0  0  0  0  0
   -0.5800    8.0985    0.0000 C   0  0  0  0  0  0  0  0  0  0  0  0
   -1.4617    9.3120    0.0000 C   0  0  0  0  0  0  0  0  0  0  0  0
   -2.9535    9.1552    0.0000 Cl  0  0  0  0  0  0  0  0  0  0  0  0
  1  2  1  0
  2  3  1  0
  3  4  2  0
  4  5  1  0
  5  6  2  0
  6  7  1  0
  7  8  1  0
  8  9  2  0
  9 10  1  0
 10 11  2  0
 11 12  1  0
 12 13  2  0
 13 14  1  0
 14 15  2  0
 14 16  1  0
 16 17  1  0
 17 18  2  0
 18 19  1  0
 19 20  1  0
 20 21  1  0
 21 22  2  0
 22 23  1  0
 23 24  2  0
 24 25  1  0
 25 26  2  0
 26 27  1  0
 18 28  1  0
 28 29  1  0
 29 30  2  0
 30 31  1  0
 31 32  2  0
  6 33  1  0
 33 34  2  0
 34 35  1  0
 34  3  1  0
 11  7  1  0
 31 13  1  0
 29 16  1  0
 26 21  1  0
M  CHG  1  15   1
M  END
>  <Compound_ID>  (368) 
C32964323

>  <Active>  (368) 
0

>  <Smiles>  (368) 
COc1ccc(-n2cccc2/C=C2\C(=[NH2+])N3N=C(COc4ccccc4C)SC3=NC2=O)cc1Cl

>  <canonical_smi>  (368) 
COc1ccc(-n2cccc2/C=C2\C(=[NH2+])N3N=C(COc4ccccc4C)SC3=NC2=O)cc1Cl

>  <Set>  (368) 
G2 inactive

>  <Set_type>  (368) 
Train

>  <MW>  (368) 
507.0

>  <HBD>  (368) 
1

>  <HBA>  (368) 
5

>  <NRB>  (368) 
6

>  <NR>  (368) 
5

>  <NAR>  (368) 
3

>  <PSA>  (368) 
94.01

>  <Standard Type>  (368) 
nan

>  <Standard Relation>  (368) 
nan

>  <Standard Units>  (368) 
nan

>  <Standard Value>  (368) 
nan

>  <Assay ChEMBL ID>  (368) 
nan

>  <Assay Description>  (368) 
nan

>  <BAO Label>  (368) 
nan

$$$$

     RDKit          2D

 24 26  0  0  0  0  0  0  0  0999 V2000
    4.5000    0.0000    0.0000 N   0  0  0  0  0  0  0  0  0  0  0  0
    3.0000    0.0000    0.0000 S   0  0  0  0  0  0  0  0  0  0  0  0
    3.0000   -1.5000    0.0000 O   0  0  0  0  0  0  0  0  0  0  0  0
    3.0000    1.5000    0.0000 O   0  0  0  0  0  0  0  0  0  0  0  0
    1.5000    0.0000    0.0000 C   0  0  0  0  0  0  0  0  0  0  0  0
    0.7500   -1.2990    0.0000 C   0  0  0  0  0  0  0  0  0  0  0  0
   -0.7500   -1.2990    0.0000 C   0  0  0  0  0  0  0  0  0  0  0  0
   -1.5000    0.0000    0.0000 C   0  0  0  0  0  0  0  0  0  0  0  0
   -0.7500    1.2990    0.0000 C   0  0  0  0  0  0  0  0  0  0  0  0
    0.7500    1.2990    0.0000 C   0  0  0  0  0  0  0  0  0  0  0  0
    1.5000    2.5981    0.0000 Cl  0  0  0  0  0  0  0  0  0  0  0  0
   -3.0000    0.0000    0.0000 N   0  0  0  0  0  0  0  0  0  0  0  0
   -3.7500   -1.2990    0.0000 C   0  0  0  0  0  0  0  0  0  0  0  0
   -5.2500   -1.2990    0.0000 C   0  0  0  0  0  0  0  0  0  0  0  0
   -6.0000    0.0000    0.0000 C   0  0  0  0  0  0  0  0  0  0  0  0
   -7.5000    0.0000    0.0000 C   0  0  0  0  0  0  0  0  0  0  0  0
   -8.2500   -1.2990    0.0000 C   0  0  0  0  0  0  0  0  0  0  0  0
   -7.5000   -2.5981    0.0000 C   0  0  0  0  0  0  0  0  0  0  0  0
   -8.2500   -3.8971    0.0000 Cl  0  0  0  0  0  0  0  0  0  0  0  0
   -6.0000   -2.5981    0.0000 C   0  0  0  0  0  0  0  0  0  0  0  0
   -3.0000   -2.5981    0.0000 N   0  0  0  0  0  0  0  0  0  0  0  0
   -1.5000   -2.5981    0.0000 S   0  0  0  0  0  0  0  0  0  0  0  0
   -0.0905   -3.1111    0.0000 O   0  0  0  0  0  0  0  0  0  0  0  0
   -1.7605   -4.0753    0.0000 O   0  0  0  0  0  0  0  0  0  0  0  0
  1  2  1  0
  2  3  2  0
  2  4  2  0
  2  5  1  0
  5  6  2  0
  6  7  1  0
  7  8  2  0
  8  9  1  0
  9 10  2  0
 10 11  1  0
  8 12  1  0
 12 13  1  0
 13 14  1  1
 14 15  2  0
 15 16  1  0
 16 17  2  0
 17 18  1  0
 18 19  1  0
 18 20  2  0
 13 21  1  0
 21 22  1  0
 22 23  2  0
 22 24  2  0
 10  5  1  0
 20 14  1  0
 22  7  1  0
M  END
>  <Compound_ID>  (369) 
C53898998

>  <Active>  (369) 
0

>  <Smiles>  (369) 
NS(=O)(=O)c1cc2c(cc1Cl)N[C@H](c1cccc(Cl)c1)NS2(=O)=O

>  <canonical_smi>  (369) 
NS(=O)(=O)c1cc2c(cc1Cl)N[C@H](c1cccc(Cl)c1)NS2(=O)=O

>  <Set>  (369) 
G2 inactive

>  <Set_type>  (369) 
Train

>  <MW>  (369) 
408.29

>  <HBD>  (369) 
3

>  <HBA>  (369) 
5

>  <NRB>  (369) 
2

>  <NR>  (369) 
3

>  <NAR>  (369) 
2

>  <PSA>  (369) 
118.36

>  <Standard Type>  (369) 
nan

>  <Standard Relation>  (369) 
nan

>  <Standard Units>  (369) 
nan

>  <Standard Value>  (369) 
nan

>  <Assay ChEMBL ID>  (369) 
nan

>  <Assay Description>  (369) 
nan

>  <BAO Label>  (369) 
nan

$$$$

     RDKit          2D

 24 25  0  0  0  0  0  0  0  0999 V2000
    7.2990   -1.8481    0.0000 C   0  0  0  0  0  0  0  0  0  0  0  0
    6.0000   -2.5981    0.0000 C   0  0  0  0  0  0  0  0  0  0  0  0
    4.7010   -3.3481    0.0000 C   0  0  0  0  0  0  0  0  0  0  0  0
    6.7500   -3.8971    0.0000 C   0  0  0  0  0  0  0  0  0  0  0  0
    5.2500   -1.2990    0.0000 O   0  0  0  0  0  0  0  0  0  0  0  0
    3.7500   -1.2990    0.0000 C   0  0  0  0  0  0  0  0  0  0  0  0
    3.0000   -2.5981    0.0000 O   0  0  0  0  0  0  0  0  0  0  0  0
    3.0000    0.0000    0.0000 N   0  0  0  0  0  0  0  0  0  0  0  0
    1.5000    0.0000    0.0000 C   0  0  0  0  0  0  0  0  0  0  0  0
    0.7500   -1.2990    0.0000 C   0  0  0  0  0  0  0  0  0  0  0  0
   -0.7500   -1.2990    0.0000 C   0  0  0  0  0  0  0  0  0  0  0  0
   -1.5000    0.0000    0.0000 C   0  0  0  0  0  0  0  0  0  0  0  0
   -3.0000    0.0000    0.0000 C   0  0  0  0  0  0  0  0  0  0  0  0
   -3.7500    1.2990    0.0000 C   0  0  0  0  0  0  0  0  0  0  0  0
   -5.2500    1.2990    0.0000 C   0  0  0  0  0  0  0  0  0  0  0  0
   -6.0000    0.0000    0.0000 C   0  0  0  0  0  0  0  0  0  0  0  0
   -7.5000    0.0000    0.0000 N   0  0  0  0  0  0  0  0  0  0  0  0
   -5.2500   -1.2990    0.0000 N   0  0  0  0  0  4  0  0  0  0  0  0
   -3.7500   -1.2990    0.0000 C   0  0  0  0  0  0  0  0  0  0  0  0
   -3.0000   -2.5981    0.0000 C   0  0  0  0  0  0  0  0  0  0  0  0
   -1.5000   -2.5981    0.0000 O   0  0  0  0  0  0  0  0  0  0  0  0
   -3.7500   -3.8971    0.0000 O   0  0  0  0  0  1  0  0  0  0  0  0
   -0.7500    1.2990    0.0000 C   0  0  0  0  0  0  0  0  0  0  0  0
    0.7500    1.2990    0.0000 C   0  0  0  0  0  0  0  0  0  0  0  0
  1  2  1  0
  2  3  1  0
  2  4  1  0
  2  5  1  0
  5  6  1  0
  6  7  2  0
  6  8  1  0
  8  9  1  0
  9 10  2  0
 10 11  1  0
 11 12  2  0
 12 13  1  0
 13 14  2  0
 14 15  1  0
 15 16  2  0
 16 17  1  0
 16 18  1  0
 18 19  2  0
 19 20  1  0
 20 21  2  0
 20 22  1  0
 12 23  1  0
 23 24  2  0
 24  9  1  0
 19 13  1  0
M  CHG  2  18   1  22  -1
M  END
>  <Compound_ID>  (370) 
C65356161

>  <Active>  (370) 
0

>  <Smiles>  (370) 
CC(C)(C)OC(=O)Nc1ccc(-c2ccc(N)[nH+]c2C(=O)[O-])cc1

>  <canonical_smi>  (370) 
CC(C)(C)OC(=O)Nc1ccc(-c2ccc(N)[nH+]c2C(=O)[O-])cc1

>  <Set>  (370) 
G2 inactive

>  <Set_type>  (370) 
Train

>  <MW>  (370) 
329.36

>  <HBD>  (370) 
2

>  <HBA>  (370) 
5

>  <NRB>  (370) 
3

>  <NR>  (370) 
2

>  <NAR>  (370) 
2

>  <PSA>  (370) 
118.62

>  <Standard Type>  (370) 
nan

>  <Standard Relation>  (370) 
nan

>  <Standard Units>  (370) 
nan

>  <Standard Value>  (370) 
nan

>  <Assay ChEMBL ID>  (370) 
nan

>  <Assay Description>  (370) 
nan

>  <BAO Label>  (370) 
nan

$$$$

     RDKit          2D

 33 37  0  0  0  0  0  0  0  0999 V2000
   -4.6883    2.2939    0.0000 C   0  0  0  0  0  0  0  0  0  0  0  0
   -4.3764    3.7611    0.0000 C   0  0  0  0  0  0  0  0  0  0  0  0
   -5.4912    4.7648    0.0000 C   0  0  0  0  0  0  0  0  0  0  0  0
   -5.1793    6.2320    0.0000 C   0  0  0  0  0  0  0  0  0  0  0  0
   -3.7527    6.6955    0.0000 C   0  0  0  0  0  0  0  0  0  0  0  0
   -2.6380    5.6918    0.0000 C   0  0  0  0  0  0  0  0  0  0  0  0
   -2.9499    4.2246    0.0000 C   0  0  0  0  0  0  0  0  0  0  0  0
   -1.8351    3.2209    0.0000 N   0  0  0  0  0  0  0  0  0  0  0  0
   -0.4086    3.6844    0.0000 C   0  0  0  0  0  0  0  0  0  0  0  0
   -0.0967    5.1517    0.0000 S   0  0  0  0  0  0  0  0  0  0  0  0
    1.3299    5.6152    0.0000 C   0  0  0  0  0  0  0  0  0  0  0  0
    1.6418    7.0824    0.0000 C   0  0  0  0  0  0  0  0  0  0  0  0
    3.0684    7.5459    0.0000 N   0  0  0  0  0  0  0  0  0  0  0  0
    3.3802    9.0132    0.0000 C   0  0  0  0  0  0  0  0  0  0  0  0
    4.8068    9.4767    0.0000 N   0  0  0  0  0  0  0  0  0  0  0  0
    2.2655   10.0169    0.0000 N   0  0  0  0  0  0  0  0  0  0  0  0
    0.8389    9.5533    0.0000 C   0  0  0  0  0  0  0  0  0  0  0  0
   -0.2758   10.5570    0.0000 N   0  0  0  0  0  0  0  0  0  0  0  0
    0.5271    8.0861    0.0000 N   0  0  0  0  0  0  0  0  0  0  0  0
    0.7062    2.6807    0.0000 N   0  0  0  0  0  0  0  0  0  0  0  0
    0.3943    1.2135    0.0000 C   0  0  0  0  0  0  0  0  0  0  0  0
    1.2760    0.0000    0.0000 S   0  0  0  0  0  0  0  0  0  0  0  0
    0.3943   -1.2135    0.0000 C   0  0  0  0  0  0  0  0  0  0  0  0
    0.8578   -2.6401    0.0000 C   0  0  0  0  0  0  0  0  0  0  0  0
   -0.1459   -3.7548    0.0000 C   0  0  0  0  0  0  0  0  0  0  0  0
    0.3177   -5.1814    0.0000 C   0  0  0  0  0  0  0  0  0  0  0  0
    1.7849   -5.4933    0.0000 C   0  0  0  0  0  0  0  0  0  0  0  0
    2.7886   -4.3786    0.0000 C   0  0  0  0  0  0  0  0  0  0  0  0
    2.3250   -2.9520    0.0000 C   0  0  0  0  0  0  0  0  0  0  0  0
   -1.0323   -0.7500    0.0000 C   0  0  0  0  0  0  0  0  0  0  0  0
   -1.0323    0.7500    0.0000 C   0  0  0  0  0  0  0  0  0  0  0  0
   -2.1470    1.7537    0.0000 C   0  0  0  0  0  0  0  0  0  0  0  0
   -3.5736    1.2902    0.0000 O   0  0  0  0  0  0  0  0  0  0  0  0
  1  2  1  0
  2  3  2  0
  3  4  1  0
  4  5  2  0
  5  6  1  0
  6  7  2  0
  7  8  1  0
  8  9  1  0
  9 10  1  0
 10 11  1  0
 11 12  1  0
 12 13  2  0
 13 14  1  0
 14 15  1  0
 14 16  2  0
 16 17  1  0
 17 18  1  0
 17 19  2  0
  9 20  2  0
 20 21  1  0
 21 22  1  0
 22 23  1  0
 23 24  1  0
 24 25  2  0
 25 26  1  0
 26 27  2  0
 27 28  1  0
 28 29  2  0
 23 30  2  0
 30 31  1  0
 31 32  1  0
 32 33  2  0
  7  2  1  0
 32  8  1  0
 19 12  1  0
 31 21  2  0
 29 24  1  0
M  END
>  <Compound_ID>  (371) 
C19296798

>  <Active>  (371) 
0

>  <Smiles>  (371) 
Cc1ccccc1-n1c(SCc2nc(N)nc(N)n2)nc2sc(-c3ccccc3)cc2c1=O

>  <canonical_smi>  (371) 
Cc1ccccc1-n1c(SCc2nc(N)nc(N)n2)nc2sc(-c3ccccc3)cc2c1=O

>  <Set>  (371) 
G2 inactive

>  <Set_type>  (371) 
Train

>  <MW>  (371) 
473.59

>  <HBD>  (371) 
2

>  <HBA>  (371) 
8

>  <NRB>  (371) 
5

>  <NR>  (371) 
5

>  <NAR>  (371) 
5

>  <PSA>  (371) 
125.6

>  <Standard Type>  (371) 
nan

>  <Standard Relation>  (371) 
nan

>  <Standard Units>  (371) 
nan

>  <Standard Value>  (371) 
nan

>  <Assay ChEMBL ID>  (371) 
nan

>  <Assay Description>  (371) 
nan

>  <BAO Label>  (371) 
nan

$$$$

     RDKit          2D

 34 37  0  0  0  0  0  0  0  0999 V2000
  -10.4431    3.8367    0.0000 C   0  0  0  0  0  0  0  0  0  0  0  0
   -9.3284    2.8330    0.0000 C   0  0  0  0  0  0  0  0  0  0  0  0
   -9.6403    1.3658    0.0000 N   0  0  0  0  0  4  0  0  0  0  0  0
  -11.0669    0.9023    0.0000 C   0  0  0  0  0  0  0  0  0  0  0  0
  -12.1816    1.9060    0.0000 C   0  0  0  0  0  0  0  0  0  0  0  0
   -8.5256    0.3621    0.0000 C   0  0  0  0  0  0  0  0  0  0  0  0
   -7.0990    0.8256    0.0000 C   0  0  0  0  0  0  0  0  0  0  0  0
   -5.9843   -0.1781    0.0000 C   0  0  0  0  0  0  0  0  0  0  0  0
   -6.2961   -1.6453    0.0000 C   0  0  0  0  0  0  0  0  0  0  0  0
   -5.1814   -2.6490    0.0000 N   0  0  0  0  0  0  0  0  0  0  0  0
   -3.7548   -2.1855    0.0000 C   0  0  0  0  0  0  0  0  0  0  0  0
   -3.4430   -0.7182    0.0000 O   0  0  0  0  0  0  0  0  0  0  0  0
   -2.6401   -3.1891    0.0000 C   0  0  0  0  0  0  0  0  0  0  0  0
   -1.2135   -2.7256    0.0000 C   0  0  0  0  0  0  0  0  0  0  0  0
   -0.0000   -3.6073    0.0000 C   0  0  0  0  0  0  0  0  0  0  0  0
   -0.0000   -5.1073    0.0000 C   0  0  0  0  0  0  0  0  0  0  0  0
   -1.2990   -5.8573    0.0000 C   0  0  0  0  0  0  0  0  0  0  0  0
   -1.2990   -7.3573    0.0000 C   0  0  0  0  0  0  0  0  0  0  0  0
   -0.0000   -8.1073    0.0000 C   0  0  0  0  0  0  0  0  0  0  0  0
    0.0000   -9.6073    0.0000 C   0  0  0  0  0  0  0  0  0  0  0  0
    1.2990   -7.3573    0.0000 C   0  0  0  0  0  0  0  0  0  0  0  0
    2.5981   -8.1073    0.0000 C   0  0  0  0  0  0  0  0  0  0  0  0
    1.2990   -5.8573    0.0000 C   0  0  0  0  0  0  0  0  0  0  0  0
    1.2135   -2.7256    0.0000 N   0  0  0  0  0  4  0  0  0  0  0  0
    0.7500   -1.2990    0.0000 C   0  0  0  0  0  0  0  0  0  0  0  0
    1.5000    0.0000    0.0000 C   0  0  0  0  0  0  0  0  0  0  0  0
    3.0000    0.0000    0.0000 C   0  0  0  0  0  0  0  0  0  0  0  0
    0.7500    1.2990    0.0000 C   0  0  0  0  0  0  0  0  0  0  0  0
   -0.7500    1.2990    0.0000 C   0  0  0  0  0  0  0  0  0  0  0  0
   -1.5000    0.0000    0.0000 C   0  0  0  0  0  0  0  0  0  0  0  0
   -0.7500   -1.2990    0.0000 N   0  0  0  0  0  0  0  0  0  0  0  0
   -7.7227   -2.1088    0.0000 C   0  0  0  0  0  0  0  0  0  0  0  0
   -8.0346   -3.5760    0.0000 C   0  0  0  0  0  0  0  0  0  0  0  0
   -8.8374   -1.1051    0.0000 C   0  0  0  0  0  0  0  0  0  0  0  0
  1  2  1  0
  2  3  1  0
  3  4  1  0
  4  5  1  0
  3  6  1  0
  6  7  2  0
  7  8  1  0
  8  9  2  0
  9 10  1  0
 10 11  1  0
 11 12  2  0
 11 13  1  0
 13 14  1  0
 14 15  2  0
 15 16  1  0
 16 17  2  0
 17 18  1  0
 18 19  2  0
 19 20  1  0
 19 21  1  0
 21 22  1  0
 21 23  2  0
 15 24  1  0
 24 25  2  0
 25 26  1  0
 26 27  1  0
 26 28  2  0
 28 29  1  0
 29 30  2  0
 30 31  1  0
  9 32  1  0
 32 33  1  0
 32 34  2  0
 34  6  1  0
 31 14  1  0
 23 16  1  0
 31 25  1  0
M  CHG  2   3   1  24   1
M  END
>  <Compound_ID>  (372) 
C62042002

>  <Active>  (372) 
0

>  <Smiles>  (372) 
CC[NH+](CC)c1ccc(NC(=O)Cc2c(-c3ccc(C)c(C)c3)[nH+]c3c(C)cccn23)c(C)c1

>  <canonical_smi>  (372) 
CC[NH+](CC)c1ccc(NC(=O)Cc2c(-c3ccc(C)c(C)c3)[nH+]c3c(C)cccn23)c(C)c1

>  <Set>  (372) 
G2 inactive

>  <Set_type>  (372) 
Train

>  <MW>  (372) 
456.63

>  <HBD>  (372) 
2

>  <HBA>  (372) 
1

>  <NRB>  (372) 
7

>  <NR>  (372) 
4

>  <NAR>  (372) 
4

>  <PSA>  (372) 
52.09

>  <Standard Type>  (372) 
nan

>  <Standard Relation>  (372) 
nan

>  <Standard Units>  (372) 
nan

>  <Standard Value>  (372) 
nan

>  <Assay ChEMBL ID>  (372) 
nan

>  <Assay Description>  (372) 
nan

>  <BAO Label>  (372) 
nan

$$$$

     RDKit          2D

 24 26  0  0  0  0  0  0  0  0999 V2000
    8.2500   -3.8971    0.0000 N   0  0  0  0  0  0  0  0  0  0  0  0
    7.5000   -2.5981    0.0000 C   0  0  0  0  0  0  0  0  0  0  0  0
    8.2500   -1.2990    0.0000 O   0  0  0  0  0  0  0  0  0  0  0  0
    6.0000   -2.5981    0.0000 N   0  0  0  0  0  0  0  0  0  0  0  0
    5.2500   -1.2990    0.0000 C   0  0  0  0  0  0  0  0  0  0  0  0
    6.0000    0.0000    0.0000 O   0  0  0  0  0  0  0  0  0  0  0  0
    3.7500   -1.2990    0.0000 C   0  0  0  0  0  0  0  0  0  0  0  0
    3.0000    0.0000    0.0000 O   0  0  0  0  0  0  0  0  0  0  0  0
    1.5000    0.0000    0.0000 C   0  0  0  0  0  0  0  0  0  0  0  0
    0.7500   -1.2990    0.0000 N   0  0  0  0  0  0  0  0  0  0  0  0
   -0.7500   -1.2990    0.0000 C   0  0  0  0  0  0  0  0  0  0  0  0
   -1.5000    0.0000    0.0000 N   0  0  0  0  0  0  0  0  0  0  0  0
   -0.7500    1.2990    0.0000 C   0  0  0  0  0  0  0  0  0  0  0  0
   -1.2135    2.7256    0.0000 S   0  0  0  0  0  0  0  0  0  0  0  0
   -0.0000    3.6073    0.0000 C   0  0  0  0  0  0  0  0  0  0  0  0
    1.2135    2.7256    0.0000 C   0  0  0  0  0  0  0  0  0  0  0  0
    2.6401    3.1891    0.0000 C   0  0  0  0  0  0  0  0  0  0  0  0
    3.7548    2.1855    0.0000 C   0  0  0  0  0  0  0  0  0  0  0  0
    5.1814    2.6490    0.0000 C   0  0  0  0  0  0  0  0  0  0  0  0
    5.4933    4.1162    0.0000 C   0  0  0  0  0  0  0  0  0  0  0  0
    6.9199    4.5797    0.0000 Cl  0  0  0  0  0  0  0  0  0  0  0  0
    4.3786    5.1199    0.0000 C   0  0  0  0  0  0  0  0  0  0  0  0
    2.9520    4.6564    0.0000 C   0  0  0  0  0  0  0  0  0  0  0  0
    0.7500    1.2990    0.0000 C   0  0  0  0  0  0  0  0  0  0  0  0
  1  2  1  0
  2  3  2  0
  2  4  1  0
  4  5  1  0
  5  6  2  0
  5  7  1  0
  7  8  1  0
  8  9  1  0
  9 10  2  0
 10 11  1  0
 11 12  2  0
 12 13  1  0
 13 14  1  0
 14 15  1  0
 15 16  2  0
 16 17  1  0
 17 18  2  0
 18 19  1  0
 19 20  2  0
 20 21  1  0
 20 22  1  0
 22 23  2  0
 16 24  1  0
 24  9  1  0
 24 13  2  0
 23 17  1  0
M  END
>  <Compound_ID>  (373) 
C02616580

>  <Active>  (373) 
0

>  <Smiles>  (373) 
NC(=O)NC(=O)COc1ncnc2scc(-c3ccc(Cl)cc3)c12

>  <canonical_smi>  (373) 
NC(=O)NC(=O)COc1ncnc2scc(-c3ccc(Cl)cc3)c12

>  <Set>  (373) 
G2 inactive

>  <Set_type>  (373) 
Train

>  <MW>  (373) 
362.8

>  <HBD>  (373) 
2

>  <HBA>  (373) 
5

>  <NRB>  (373) 
4

>  <NR>  (373) 
3

>  <NAR>  (373) 
3

>  <PSA>  (373) 
107.2

>  <Standard Type>  (373) 
nan

>  <Standard Relation>  (373) 
nan

>  <Standard Units>  (373) 
nan

>  <Standard Value>  (373) 
nan

>  <Assay ChEMBL ID>  (373) 
nan

>  <Assay Description>  (373) 
nan

>  <BAO Label>  (373) 
nan

$$$$

     RDKit          2D

 24 28  0  0  0  0  0  0  0  0999 V2000
    2.7760    0.0000    0.0000 O   0  0  0  0  0  0  0  0  0  0  0  0
    1.2760    0.0000    0.0000 C   0  0  0  0  0  0  0  0  0  0  0  0
    0.3943    1.2135    0.0000 N   0  0  0  0  0  0  0  0  0  0  0  0
   -1.0323    0.7500    0.0000 C   0  0  0  0  0  0  0  0  0  0  0  0
   -2.3313    1.5000    0.0000 C   0  0  0  0  0  0  0  0  0  0  0  0
   -3.6304    0.7500    0.0000 C   0  0  0  0  0  0  0  0  0  0  0  0
   -5.0569    1.2135    0.0000 N   0  0  0  0  0  0  0  0  0  0  0  0
   -5.9386    0.0000    0.0000 C   0  0  0  0  0  0  0  0  0  0  0  0
   -7.4386    0.0000    0.0000 C   0  0  0  0  0  0  0  0  0  0  0  0
   -8.3203   -1.2135    0.0000 C   0  0  0  0  0  0  0  0  0  0  0  0
   -9.7469   -0.7500    0.0000 C   0  0  0  0  0  0  0  0  0  0  0  0
   -9.7469    0.7500    0.0000 C   0  0  0  0  0  0  0  0  0  0  0  0
  -10.9604    1.6317    0.0000 C   0  0  0  0  0  0  0  0  0  0  0  0
  -10.8036    3.1235    0.0000 C   0  0  0  0  0  0  0  0  0  0  0  0
  -12.0171    4.0051    0.0000 C   0  0  0  0  0  0  0  0  0  0  0  0
  -13.3875    3.3950    0.0000 C   0  0  0  0  0  0  0  0  0  0  0  0
  -13.5443    1.9033    0.0000 C   0  0  0  0  0  0  0  0  0  0  0  0
  -12.3307    1.0216    0.0000 O   0  0  0  0  0  0  0  0  0  0  0  0
   -8.3203    1.2135    0.0000 O   0  0  0  0  0  0  0  0  0  0  0  0
   -5.0569   -1.2135    0.0000 N   0  0  0  0  0  0  0  0  0  0  0  0
   -3.6304   -0.7500    0.0000 C   0  0  0  0  0  0  0  0  0  0  0  0
   -2.3313   -1.5000    0.0000 C   0  0  0  0  0  0  0  0  0  0  0  0
   -1.0323   -0.7500    0.0000 C   0  0  0  0  0  0  0  0  0  0  0  0
    0.3943   -1.2135    0.0000 N   0  0  0  0  0  0  0  0  0  0  0  0
  1  2  2  0
  2  3  1  0
  3  4  1  0
  4  5  2  0
  5  6  1  0
  6  7  1  0
  7  8  2  0
  8  9  1  0
  9 10  2  0
 10 11  1  0
 11 12  2  0
 13 12  1  6
 13 14  1  0
 14 15  1  0
 15 16  1  0
 16 17  1  0
 17 18  1  0
 12 19  1  0
  8 20  1  0
 20 21  1  0
 21 22  1  0
 22 23  2  0
 23 24  1  0
 24  2  1  0
 23  4  1  0
 21  6  2  0
 19  9  1  0
 18 13  1  0
M  END
>  <Compound_ID>  (374) 
C55386521

>  <Active>  (374) 
0

>  <Smiles>  (374) 
O=c1[nH]c2cc3nc(-c4ccc([C@H]5CCCCO5)o4)[nH]c3cc2[nH]1

>  <canonical_smi>  (374) 
O=c1[nH]c2cc3nc(-c4ccc([C@H]5CCCCO5)o4)[nH]c3cc2[nH]1

>  <Set>  (374) 
G2 inactive

>  <Set_type>  (374) 
Train

>  <MW>  (374) 
324.34

>  <HBD>  (374) 
3

>  <HBA>  (374) 
4

>  <NRB>  (374) 
2

>  <NR>  (374) 
5

>  <NAR>  (374) 
4

>  <PSA>  (374) 
99.7

>  <Standard Type>  (374) 
nan

>  <Standard Relation>  (374) 
nan

>  <Standard Units>  (374) 
nan

>  <Standard Value>  (374) 
nan

>  <Assay ChEMBL ID>  (374) 
nan

>  <Assay Description>  (374) 
nan

>  <BAO Label>  (374) 
nan

$$$$

     RDKit          2D

 22 25  0  0  0  0  0  0  0  0999 V2000
   -8.1517  -11.1192    0.0000 Cl  0  0  0  0  0  0  0  0  0  0  0  0
   -6.8527  -10.3692    0.0000 C   0  0  0  0  0  0  0  0  0  0  0  0
   -6.8527   -8.8692    0.0000 C   0  0  0  0  0  0  0  0  0  0  0  0
   -5.5537   -8.1192    0.0000 C   0  0  0  0  0  0  0  0  0  0  0  0
   -5.2418   -6.6520    0.0000 C   0  0  0  0  0  0  0  0  0  0  0  0
   -3.7500   -6.4952    0.0000 C   0  0  0  0  0  0  0  0  0  0  0  0
   -3.0000   -5.1962    0.0000 C   0  0  0  0  0  0  0  0  0  0  0  0
   -1.5000   -5.1962    0.0000 S   0  0  0  0  0  0  0  0  0  0  0  0
   -0.7500   -3.8971    0.0000 C   0  0  0  0  0  0  0  0  0  0  0  0
    0.7500   -3.8971    0.0000 N   0  0  0  0  0  0  0  0  0  0  0  0
    1.5000   -2.5981    0.0000 N   0  0  0  0  0  0  0  0  0  0  0  0
    0.7500   -1.2990    0.0000 C   0  0  0  0  0  0  0  0  0  0  0  0
    1.5000    0.0000    0.0000 C   0  0  0  0  0  0  0  0  0  0  0  0
    0.7500    1.2990    0.0000 C   0  0  0  0  0  0  0  0  0  0  0  0
   -0.7500    1.2990    0.0000 C   0  0  0  0  0  0  0  0  0  0  0  0
   -1.5000    0.0000    0.0000 C   0  0  0  0  0  0  0  0  0  0  0  0
   -0.7500   -1.2990    0.0000 C   0  0  0  0  0  0  0  0  0  0  0  0
   -1.5000   -2.5981    0.0000 N   0  0  0  0  0  0  0  0  0  0  0  0
   -3.1399   -7.8655    0.0000 N   0  0  0  0  0  0  0  0  0  0  0  0
   -4.2546   -8.8692    0.0000 C   0  0  0  0  0  0  0  0  0  0  0  0
   -4.2546  -10.3692    0.0000 C   0  0  0  0  0  0  0  0  0  0  0  0
   -5.5537  -11.1192    0.0000 C   0  0  0  0  0  0  0  0  0  0  0  0
  1  2  1  0
  2  3  2  0
  4  3  1  6
  4  5  1  0
  5  6  2  0
  6  7  1  0
  7  8  1  0
  8  9  1  0
  9 10  2  0
 10 11  1  0
 11 12  2  0
 12 13  1  0
 13 14  2  0
 14 15  1  0
 15 16  2  0
 16 17  1  0
 17 18  1  1
  6 19  1  0
 19 20  2  0
 20 21  1  0
 21 22  2  0
 22  2  1  0
 20  4  1  0
 18  9  1  0
 17 12  1  0
M  END
>  <Compound_ID>  (375) 
C26511728

>  <Active>  (375) 
0

>  <Smiles>  (375) 
ClC1=C[C@@H]2C=C(CSC3=NN=C4C=CC=C[C@@H]4N3)N=C2C=C1

>  <canonical_smi>  (375) 
ClC1=C[C@@H]2C=C(CSC3=NN=C4C=CC=C[C@@H]4N3)N=C2C=C1

>  <Set>  (375) 
G2 inactive

>  <Set_type>  (375) 
Train

>  <MW>  (375) 
328.83

>  <HBD>  (375) 
1

>  <HBA>  (375) 
2

>  <NRB>  (375) 
2

>  <NR>  (375) 
4

>  <NAR>  (375) 
0

>  <PSA>  (375) 
49.11

>  <Standard Type>  (375) 
nan

>  <Standard Relation>  (375) 
nan

>  <Standard Units>  (375) 
nan

>  <Standard Value>  (375) 
nan

>  <Assay ChEMBL ID>  (375) 
nan

>  <Assay Description>  (375) 
nan

>  <BAO Label>  (375) 
nan

$$$$

     RDKit          2D

 24 26  0  0  0  0  0  0  0  0999 V2000
    3.0000    0.0000    0.0000 C   0  0  0  0  0  0  0  0  0  0  0  0
    1.5000    0.0000    0.0000 C   0  0  0  0  0  0  0  0  0  0  0  0
    0.7500   -1.2990    0.0000 C   0  0  0  0  0  0  0  0  0  0  0  0
   -0.7500   -1.2990    0.0000 C   0  0  0  0  0  0  0  0  0  0  0  0
   -1.5000   -2.5981    0.0000 C   0  0  0  0  0  0  0  0  0  0  0  0
   -3.0000   -2.5981    0.0000 C   0  0  0  0  0  0  0  0  0  0  0  0
   -3.7500   -1.2990    0.0000 C   0  0  0  0  0  0  0  0  0  0  0  0
   -4.5000    0.0000    0.0000 N   0  0  0  0  0  0  0  0  0  0  0  0
   -3.7500   -3.8971    0.0000 C   0  0  0  0  0  0  0  0  0  0  0  0
   -3.1399   -5.2674    0.0000 N   0  0  0  0  0  0  0  0  0  0  0  0
   -4.2546   -6.2711    0.0000 C   0  0  0  0  0  0  0  0  0  0  0  0
   -4.0978   -7.7629    0.0000 C   0  0  0  0  0  0  0  0  0  0  0  0
   -5.3113   -8.6446    0.0000 C   0  0  0  0  0  0  0  0  0  0  0  0
   -5.1546  -10.1364    0.0000 C   0  0  0  0  0  0  0  0  0  0  0  0
   -3.7842  -10.7465    0.0000 N   0  0  0  0  0  0  0  0  0  0  0  0
   -2.5707   -9.8648    0.0000 C   0  0  0  0  0  0  0  0  0  0  0  0
   -2.7275   -8.3730    0.0000 C   0  0  0  0  0  0  0  0  0  0  0  0
   -5.5537   -5.5211    0.0000 C   0  0  0  0  0  0  0  0  0  0  0  0
   -5.2418   -4.0539    0.0000 S   0  0  0  0  0  0  0  0  0  0  0  0
   -1.5000    0.0000    0.0000 C   0  0  0  0  0  0  0  0  0  0  0  0
   -0.7500    1.2990    0.0000 C   0  0  0  0  0  0  0  0  0  0  0  0
   -1.5000    2.5981    0.0000 C   0  0  0  0  0  0  0  0  0  0  0  0
    0.7500    1.2990    0.0000 C   0  0  0  0  0  0  0  0  0  0  0  0
    1.5000    2.5981    0.0000 O   0  0  0  0  0  0  0  0  0  0  0  0
  1  2  1  0
  2  3  2  0
  3  4  1  0
  4  5  1  0
  5  6  2  0
  6  7  1  0
  7  8  3  0
  6  9  1  0
  9 10  2  0
 10 11  1  0
 11 12  1  0
 12 13  2  0
 13 14  1  0
 14 15  2  0
 15 16  1  0
 16 17  2  0
 11 18  2  0
 18 19  1  0
  4 20  2  0
 20 21  1  0
 21 22  1  0
 21 23  2  0
 23 24  1  0
 23  2  1  0
 19  9  1  0
 17 12  1  0
M  END
>  <Compound_ID>  (376) 
C63412617

>  <Active>  (376) 
0

>  <Smiles>  (376) 
Cc1cc(/C=C(\C#N)c2nc(-c3ccncc3)cs2)cc(C)c1O

>  <canonical_smi>  (376) 
Cc1cc(/C=C(\C#N)c2nc(-c3ccncc3)cs2)cc(C)c1O

>  <Set>  (376) 
G2 inactive

>  <Set_type>  (376) 
Train

>  <MW>  (376) 
333.42

>  <HBD>  (376) 
1

>  <HBA>  (376) 
4

>  <NRB>  (376) 
3

>  <NR>  (376) 
3

>  <NAR>  (376) 
3

>  <PSA>  (376) 
69.8

>  <Standard Type>  (376) 
nan

>  <Standard Relation>  (376) 
nan

>  <Standard Units>  (376) 
nan

>  <Standard Value>  (376) 
nan

>  <Assay ChEMBL ID>  (376) 
nan

>  <Assay Description>  (376) 
nan

>  <BAO Label>  (376) 
nan

$$$$

     RDKit          2D

 32 36  0  0  0  0  0  0  0  0999 V2000
    6.0000   -2.5981    0.0000 C   0  0  0  0  0  0  0  0  0  0  0  0
    5.2500   -1.2990    0.0000 O   0  0  0  0  0  0  0  0  0  0  0  0
    3.7500   -1.2990    0.0000 C   0  0  0  0  0  0  0  0  0  0  0  0
    3.0000    0.0000    0.0000 C   0  0  0  0  0  0  0  0  0  0  0  0
    1.5000    0.0000    0.0000 N   0  0  0  0  0  0  0  0  0  0  0  0
    0.7500   -1.2990    0.0000 C   0  0  0  0  0  0  0  0  0  0  0  0
   -0.7500   -1.2990    0.0000 C   0  0  0  0  0  0  0  0  0  0  0  0
   -1.5000    0.0000    0.0000 N   0  0  0  0  0  0  0  0  0  0  0  0
   -0.7500    1.2990    0.0000 C   0  0  0  0  0  0  0  0  0  0  0  0
   -1.7537    2.4138    0.0000 N   0  0  0  0  0  4  0  0  0  0  0  0
   -3.1240    1.8037    0.0000 C   0  0  0  0  0  0  0  0  0  0  0  0
   -4.4943    2.4138    0.0000 C   0  0  0  0  0  0  0  0  0  0  0  0
   -5.7079    1.5321    0.0000 C   0  0  0  0  0  0  0  0  0  0  0  0
   -7.0782    2.1422    0.0000 N   0  0  0  0  0  0  0  0  0  0  0  0
   -7.2350    3.6340    0.0000 C   0  0  0  0  0  0  0  0  0  0  0  0
   -6.1203    4.6377    0.0000 O   0  0  0  0  0  0  0  0  0  0  0  0
   -6.7304    6.0080    0.0000 C   0  0  0  0  0  0  0  0  0  0  0  0
   -5.9804    7.3070    0.0000 O   0  0  0  0  0  0  0  0  0  0  0  0
   -8.2221    5.8512    0.0000 C   0  0  0  0  0  0  0  0  0  0  0  0
   -8.5340    4.3840    0.0000 C   0  0  0  0  0  0  0  0  0  0  0  0
   -9.9606    3.9204    0.0000 C   0  0  0  0  0  0  0  0  0  0  0  0
  -11.0753    4.9241    0.0000 C   0  0  0  0  0  0  0  0  0  0  0  0
  -10.7634    6.3914    0.0000 C   0  0  0  0  0  0  0  0  0  0  0  0
  -11.8782    7.3951    0.0000 O   0  0  0  0  0  0  0  0  0  0  0  0
  -11.5663    8.8623    0.0000 C   0  0  0  0  0  0  0  0  0  0  0  0
   -9.3369    6.8549    0.0000 C   0  0  0  0  0  0  0  0  0  0  0  0
   -9.0250    8.3221    0.0000 O   0  0  0  0  0  0  0  0  0  0  0  0
  -10.1397    9.3258    0.0000 C   0  0  0  0  0  0  0  0  0  0  0  0
   -5.5511    0.0403    0.0000 C   0  0  0  0  0  0  0  0  0  0  0  0
   -4.1807   -0.5698    0.0000 C   0  0  0  0  0  0  0  0  0  0  0  0
   -2.9672    0.3119    0.0000 C   0  0  0  0  0  0  0  0  0  0  0  0
    0.7500    1.2990    0.0000 C   0  0  0  0  0  0  0  0  0  0  0  0
  1  2  1  0
  2  3  1  0
  3  4  1  0
  4  5  1  0
  5  6  1  0
  6  7  1  0
  7  8  1  0
  8  9  1  0
  9 10  2  0
 10 11  1  0
 11 12  2  0
 12 13  1  0
 13 14  1  0
 15 14  1  1
 15 16  1  0
 16 17  1  0
 17 18  2  0
 17 19  1  0
 19 20  2  0
 20 21  1  0
 21 22  2  0
 22 23  1  0
 23 24  1  0
 24 25  1  0
 23 26  2  0
 26 27  1  0
 27 28  1  0
 13 29  2  0
 29 30  1  0
 30 31  2  0
  9 32  1  0
 32  5  1  0
 31  8  1  0
 31 11  1  0
 20 15  1  0
 26 19  1  0
M  CHG  1  10   1
M  END
>  <Compound_ID>  (377) 
C36370002

>  <Active>  (377) 
0

>  <Smiles>  (377) 
COCCN1CCn2c([nH+]c3cc(N[C@@H]4OC(=O)c5c4ccc(OC)c5OC)ccc32)C1

>  <canonical_smi>  (377) 
COCCN1CCn2c([nH+]c3cc(N[C@@H]4OC(=O)c5c4ccc(OC)c5OC)ccc32)C1

>  <Set>  (377) 
G2 inactive

>  <Set_type>  (377) 
Train

>  <MW>  (377) 
439.49

>  <HBD>  (377) 
1

>  <HBA>  (377) 
7

>  <NRB>  (377) 
7

>  <NR>  (377) 
5

>  <NAR>  (377) 
3

>  <PSA>  (377) 
88.33

>  <Standard Type>  (377) 
nan

>  <Standard Relation>  (377) 
nan

>  <Standard Units>  (377) 
nan

>  <Standard Value>  (377) 
nan

>  <Assay ChEMBL ID>  (377) 
nan

>  <Assay Description>  (377) 
nan

>  <BAO Label>  (377) 
nan

$$$$

     RDKit          2D

 27 28  0  0  0  0  0  0  0  0999 V2000
    7.5000   -2.5981    0.0000 C   0  0  0  0  0  0  0  0  0  0  0  0
    6.0000   -2.5981    0.0000 C   0  0  0  0  0  0  0  0  0  0  0  0
    5.2500   -1.2990    0.0000 N   0  0  0  0  0  0  0  0  0  0  0  0
    3.7500   -1.2990    0.0000 C   0  0  0  0  0  0  0  0  0  0  0  0
    3.0000   -2.5981    0.0000 O   0  0  0  0  0  0  0  0  0  0  0  0
    3.0000    0.0000    0.0000 C   0  0  0  0  0  0  0  0  0  0  0  0
    1.5000    0.0000    0.0000 N   0  0  0  0  0  0  0  0  0  0  0  0
    0.7500   -1.2990    0.0000 C   0  0  0  0  0  0  0  0  0  0  0  0
   -0.7500   -1.2990    0.0000 C   0  0  0  0  0  0  0  0  0  0  0  0
   -1.5000    0.0000    0.0000 N   0  0  0  0  0  0  0  0  0  0  0  0
   -3.0000    0.0000    0.0000 C   0  0  0  0  0  0  0  0  0  0  0  0
   -3.7500   -1.2990    0.0000 O   0  0  0  0  0  0  0  0  0  0  0  0
   -3.7500    1.2990    0.0000 N   0  0  0  0  0  0  0  0  0  0  0  0
   -5.2500    1.2990    0.0000 C   0  0  0  0  0  0  0  0  0  0  0  0
   -6.0000    2.5981    0.0000 C   0  0  0  0  0  0  0  0  0  0  0  0
   -4.7010    3.3481    0.0000 C   0  0  0  0  0  0  0  0  0  0  0  0
   -7.2990    1.8481    0.0000 C   0  0  0  0  0  0  0  0  0  0  0  0
   -6.7500    3.8971    0.0000 N   0  0  0  0  0  4  0  0  0  0  0  0
   -6.0000    5.1962    0.0000 C   0  0  0  0  0  0  0  0  0  0  0  0
   -6.7500    6.4952    0.0000 C   0  0  0  0  0  0  0  0  0  0  0  0
   -6.0000    7.7942    0.0000 C   0  0  0  0  0  0  0  0  0  0  0  0
   -8.2500    6.4952    0.0000 C   0  0  0  0  0  0  0  0  0  0  0  0
   -9.0000    5.1962    0.0000 C   0  0  0  0  0  0  0  0  0  0  0  0
  -10.5000    5.1962    0.0000 C   0  0  0  0  0  0  0  0  0  0  0  0
   -8.2500    3.8971    0.0000 C   0  0  0  0  0  0  0  0  0  0  0  0
   -0.7500    1.2990    0.0000 C   0  0  0  0  0  0  0  0  0  0  0  0
    0.7500    1.2990    0.0000 C   0  0  0  0  0  0  0  0  0  0  0  0
  1  2  1  0
  2  3  1  0
  3  4  1  0
  4  5  2  0
  4  6  1  0
  6  7  1  0
  7  8  1  0
  8  9  1  0
  9 10  1  0
 10 11  1  0
 11 12  2  0
 11 13  1  0
 13 14  1  0
 14 15  1  0
 15 16  1  0
 15 17  1  0
 15 18  1  0
 18 19  1  0
 19 20  1  0
 20 21  1  6
 20 22  1  0
 22 23  1  0
 23 24  1  1
 23 25  1  0
 10 26  1  0
 26 27  1  0
 27  7  1  0
 25 18  1  0
M  CHG  1  18   1
M  END
>  <Compound_ID>  (378) 
C54727961

>  <Active>  (378) 
0

>  <Smiles>  (378) 
CCNC(=O)CN1CCN(C(=O)NCC(C)(C)[NH+]2C[C@@H](C)C[C@H](C)C2)CC1

>  <canonical_smi>  (378) 
CCNC(=O)CN1CCN(C(=O)NCC(C)(C)[NH+]2C[C@@H](C)C[C@H](C)C2)CC1

>  <Set>  (378) 
G2 inactive

>  <Set_type>  (378) 
Train

>  <MW>  (378) 
382.57

>  <HBD>  (378) 
3

>  <HBA>  (378) 
3

>  <NRB>  (378) 
6

>  <NR>  (378) 
2

>  <NAR>  (378) 
0

>  <PSA>  (378) 
69.12

>  <Standard Type>  (378) 
nan

>  <Standard Relation>  (378) 
nan

>  <Standard Units>  (378) 
nan

>  <Standard Value>  (378) 
nan

>  <Assay ChEMBL ID>  (378) 
nan

>  <Assay Description>  (378) 
nan

>  <BAO Label>  (378) 
nan

$$$$

     RDKit          2D

 33 37  0  0  0  0  0  0  0  0999 V2000
    2.3250    2.9520    0.0000 C   0  0  0  0  0  0  0  0  0  0  0  0
    0.8578    2.6401    0.0000 N   0  0  0  0  0  0  0  0  0  0  0  0
   -0.1459    3.7548    0.0000 C   0  0  0  0  0  0  0  0  0  0  0  0
    0.3177    5.1814    0.0000 C   0  0  0  0  0  0  0  0  0  0  0  0
    1.7849    5.4933    0.0000 C   0  0  0  0  0  0  0  0  0  0  0  0
    2.2484    6.9199    0.0000 C   0  0  0  0  0  0  0  0  0  0  0  0
    1.2447    8.0346    0.0000 C   0  0  0  0  0  0  0  0  0  0  0  0
   -0.2225    7.7227    0.0000 C   0  0  0  0  0  0  0  0  0  0  0  0
   -0.6860    6.2961    0.0000 C   0  0  0  0  0  0  0  0  0  0  0  0
    0.3943    1.2135    0.0000 C   0  0  0  0  0  0  0  0  0  0  0  0
    1.2760    0.0000    0.0000 N   0  0  0  0  0  4  0  0  0  0  0  0
    0.3943   -1.2135    0.0000 C   0  0  0  0  0  0  0  0  0  0  0  0
   -1.0323   -0.7500    0.0000 C   0  0  0  0  0  0  0  0  0  0  0  0
   -2.1470   -1.7537    0.0000 C   0  0  0  0  0  0  0  0  0  0  0  0
   -3.5736   -1.2902    0.0000 O   0  0  0  0  0  0  0  0  0  0  0  0
   -1.8351   -3.2209    0.0000 N   0  0  0  0  0  0  0  0  0  0  0  0
   -0.4086   -3.6844    0.0000 C   0  0  0  0  0  0  0  0  0  0  0  0
   -0.0967   -5.1517    0.0000 O   0  0  0  0  0  1  0  0  0  0  0  0
    0.7062   -2.6807    0.0000 N   0  0  0  0  0  0  0  0  0  0  0  0
    2.1328   -3.1443    0.0000 C   0  0  0  0  0  0  0  0  0  0  0  0
   -1.0323    0.7500    0.0000 N   0  0  0  0  0  0  0  0  0  0  0  0
   -2.2458    1.6317    0.0000 C   0  0  0  0  0  0  0  0  0  0  0  0
   -2.0890    3.1235    0.0000 C   0  0  0  0  0  0  0  0  0  0  0  0
   -3.3025    4.0051    0.0000 S   0  0  0  0  0  0  0  0  0  0  0  0
   -3.1458    5.4969    0.0000 C   0  0  0  0  0  0  0  0  0  0  0  0
   -1.8467    6.2469    0.0000 N   0  0  0  0  0  4  0  0  0  0  0  0
   -2.1586    7.7141    0.0000 C   0  0  0  0  0  0  0  0  0  0  0  0
   -1.2769    8.9277    0.0000 C   0  0  0  0  0  0  0  0  0  0  0  0
   -1.8870   10.2980    0.0000 C   0  0  0  0  0  0  0  0  0  0  0  0
   -3.3788   10.4548    0.0000 C   0  0  0  0  0  0  0  0  0  0  0  0
   -4.2605    9.2413    0.0000 C   0  0  0  0  0  0  0  0  0  0  0  0
   -3.6504    7.8709    0.0000 C   0  0  0  0  0  0  0  0  0  0  0  0
   -4.2605    6.5006    0.0000 N   0  0  0  0  0  4  0  0  0  0  0  0
  1  2  1  0
  2  3  1  0
  3  4  1  0
  4  5  2  0
  5  6  1  0
  6  7  2  0
  7  8  1  0
  8  9  2  0
  2 10  1  0
 10 11  2  0
 11 12  1  0
 12 13  1  0
 13 14  1  0
 14 15  2  0
 14 16  1  0
 16 17  2  0
 17 18  1  0
 17 19  1  0
 19 20  1  0
 13 21  1  6
 21 22  1  0
 22 23  1  0
 23 24  1  0
 24 25  1  0
 25 26  1  0
 26 27  2  0
 27 28  1  0
 28 29  2  0
 29 30  1  0
 30 31  2  0
 31 32  1  0
 32 33  2  0
  9  4  1  0
 21 10  1  0
 33 25  1  0
 12 19  1  6
 32 27  1  0
M  CHG  4  11   1  18  -1  26   1  33   1
M  END
>  <Compound_ID>  (379) 
C63426794

>  <Active>  (379) 
0

>  <Smiles>  (379) 
CN(Cc1ccccc1)C1=[NH+][C@H]2[C@H](C(=O)N=C([O-])N2C)N1CCSC1[NH+]=c2ccccc2=[NH+]1

>  <canonical_smi>  (379) 
CN(Cc1ccccc1)C1=[NH+][C@H]2[C@H](C(=O)N=C([O-])N2C)N1CCSC1[NH+]=c2ccccc2=[NH+]1

>  <Set>  (379) 
G2 inactive

>  <Set_type>  (379) 
Train

>  <MW>  (379) 
465.58

>  <HBD>  (379) 
3

>  <HBA>  (379) 
6

>  <NRB>  (379) 
6

>  <NR>  (379) 
5

>  <NAR>  (379) 
2

>  <PSA>  (379) 
104.12

>  <Standard Type>  (379) 
nan

>  <Standard Relation>  (379) 
nan

>  <Standard Units>  (379) 
nan

>  <Standard Value>  (379) 
nan

>  <Assay ChEMBL ID>  (379) 
nan

>  <Assay Description>  (379) 
nan

>  <BAO Label>  (379) 
nan

$$$$

     RDKit          2D

 28 32  0  0  0  0  0  0  0  0999 V2000
   -7.9925    5.9687    0.0000 C   0  0  0  0  0  0  0  0  0  0  0  0
   -6.7790    5.0870    0.0000 C   0  0  0  0  0  0  0  0  0  0  0  0
   -6.9358    3.5952    0.0000 C   0  0  0  0  0  0  0  0  0  0  0  0
   -5.7222    2.7135    0.0000 N   0  0  0  0  0  0  0  0  0  0  0  0
   -5.7222    1.2135    0.0000 N   0  0  0  0  0  0  0  0  0  0  0  0
   -4.2956    0.7500    0.0000 C   0  0  0  0  0  0  0  0  0  0  0  0
   -3.4140    1.9635    0.0000 C   0  0  0  0  0  0  0  0  0  0  0  0
   -1.9140    1.9635    0.0000 C   0  0  0  0  0  0  0  0  0  0  0  0
   -1.0323    3.1771    0.0000 C   0  0  0  0  0  0  0  0  0  0  0  0
    0.3943    2.7135    0.0000 C   0  0  0  0  0  0  0  0  0  0  0  0
    1.8209    3.1771    0.0000 C   0  0  0  0  0  0  0  0  0  0  0  0
    2.7026    1.9635    0.0000 N   0  0  0  0  0  0  0  0  0  0  0  0
    4.2026    1.9635    0.0000 C   0  0  0  0  0  0  0  0  0  0  0  0
    4.9526    0.6645    0.0000 C   0  0  0  0  0  0  0  0  0  0  0  0
    6.4526    0.6645    0.0000 C   0  0  0  0  0  0  0  0  0  0  0  0
    7.2026    1.9635    0.0000 N   0  0  0  0  0  4  0  0  0  0  0  0
    8.7026    1.9635    0.0000 C   0  0  0  0  0  0  0  0  0  0  0  0
    6.4526    3.2626    0.0000 C   0  0  0  0  0  0  0  0  0  0  0  0
    4.9526    3.2626    0.0000 C   0  0  0  0  0  0  0  0  0  0  0  0
    1.8209    0.7500    0.0000 C   0  0  0  0  0  0  0  0  0  0  0  0
    2.2844   -0.6766    0.0000 O   0  0  0  0  0  0  0  0  0  0  0  0
    0.3943    1.2135    0.0000 C   0  0  0  0  0  0  0  0  0  0  0  0
    1.2760    0.0000    0.0000 C   0  0  0  0  0  0  0  0  0  0  0  0
    0.3943   -1.2135    0.0000 C   0  0  0  0  0  0  0  0  0  0  0  0
   -1.0323   -0.7500    0.0000 C   0  0  0  0  0  0  0  0  0  0  0  0
   -1.0323    0.7500    0.0000 N   0  0  0  0  0  4  0  0  0  0  0  0
   -4.2956    3.1771    0.0000 C   0  0  0  0  0  0  0  0  0  0  0  0
   -3.8321    4.6036    0.0000 C   0  0  0  0  0  0  0  0  0  0  0  0
  1  2  1  0
  2  3  1  0
  3  4  1  0
  4  5  1  0
  5  6  2  0
  6  7  1  0
  8  7  1  6
  8  9  1  0
 10  9  1  6
 10 11  1  0
 11 12  1  0
 12 13  1  0
 13 14  1  0
 14 15  1  0
 15 16  1  0
 16 17  1  0
 16 18  1  0
 18 19  1  0
 12 20  1  0
 20 21  2  0
 20 22  1  0
 22 23  1  1
 23 24  1  0
 24 25  1  0
 25 26  1  0
  7 27  2  0
 27 28  1  0
 27  4  1  0
 26  8  1  0
 22 10  1  0
 19 13  1  0
 26 22  1  0
M  CHG  2  16   1  26   1
M  END
>  <Compound_ID>  (380) 
C43631298

>  <Active>  (380) 
0

>  <Smiles>  (380) 
CCCn1ncc([C@@H]2C[C@@H]3CN(C4CC[NH+](C)CC4)C(=O)[C@@]34CCC[NH+]24)c1C

>  <canonical_smi>  (380) 
CCCn1ncc([C@@H]2C[C@@H]3CN(C4CC[NH+](C)CC4)C(=O)[C@@]34CCC[NH+]24)c1C

>  <Set>  (380) 
G2 inactive

>  <Set_type>  (380) 
Train

>  <MW>  (380) 
387.57

>  <HBD>  (380) 
2

>  <HBA>  (380) 
2

>  <NRB>  (380) 
4

>  <NR>  (380) 
5

>  <NAR>  (380) 
1

>  <PSA>  (380) 
47.01

>  <Standard Type>  (380) 
nan

>  <Standard Relation>  (380) 
nan

>  <Standard Units>  (380) 
nan

>  <Standard Value>  (380) 
nan

>  <Assay ChEMBL ID>  (380) 
nan

>  <Assay Description>  (380) 
nan

>  <BAO Label>  (380) 
nan

$$$$

     RDKit          2D

 26 28  0  0  0  0  0  0  0  0999 V2000
    2.2500   -6.4952    0.0000 C   0  0  0  0  0  0  0  0  0  0  0  0
    1.5000   -5.1962    0.0000 C   0  0  0  0  0  0  0  0  0  0  0  0
    2.2500   -3.8971    0.0000 N   0  0  0  0  0  0  0  0  0  0  0  0
    3.7500   -3.8971    0.0000 C   0  0  0  0  0  0  0  0  0  0  0  0
    4.5000   -5.1962    0.0000 C   0  0  0  0  0  0  0  0  0  0  0  0
    6.0000   -5.1962    0.0000 C   0  0  0  0  0  0  0  0  0  0  0  0
    6.7500   -3.8971    0.0000 C   0  0  0  0  0  0  0  0  0  0  0  0
    6.0000   -2.5981    0.0000 C   0  0  0  0  0  0  0  0  0  0  0  0
    6.7500   -1.2990    0.0000 C   0  0  0  0  0  0  0  0  0  0  0  0
    4.5000   -2.5981    0.0000 C   0  0  0  0  0  0  0  0  0  0  0  0
    1.5000   -2.5981    0.0000 S   0  0  0  0  0  0  0  0  0  0  0  0
    2.7990   -1.8481    0.0000 O   0  0  0  0  0  0  0  0  0  0  0  0
    0.2010   -3.3481    0.0000 O   0  0  0  0  0  0  0  0  0  0  0  0
    0.7500   -1.2990    0.0000 C   0  0  0  0  0  0  0  0  0  0  0  0
    1.5000    0.0000    0.0000 C   0  0  0  0  0  0  0  0  0  0  0  0
    0.7500    1.2990    0.0000 C   0  0  0  0  0  0  0  0  0  0  0  0
   -0.7500    1.2990    0.0000 C   0  0  0  0  0  0  0  0  0  0  0  0
   -1.5000    0.0000    0.0000 C   0  0  0  0  0  0  0  0  0  0  0  0
   -0.7500   -1.2990    0.0000 C   0  0  0  0  0  0  0  0  0  0  0  0
   -1.5000   -2.5981    0.0000 C   0  0  0  0  0  0  0  0  0  0  0  0
   -1.5000    2.5981    0.0000 N   0  0  0  0  0  4  0  0  0  0  0  0
   -0.7500    3.8971    0.0000 C   0  0  0  0  0  0  0  0  0  0  0  0
   -1.5000    5.1962    0.0000 O   0  0  0  0  0  0  0  0  0  0  0  0
    0.7500    3.8971    0.0000 C   0  0  0  0  0  0  0  0  0  0  0  0
    1.5000    5.1962    0.0000 O   0  0  0  0  0  0  0  0  0  0  0  0
    1.5000    2.5981    0.0000 N   0  0  0  0  0  4  0  0  0  0  0  0
  1  2  1  0
  2  3  1  0
  3  4  1  0
  4  5  2  0
  5  6  1  0
  6  7  2  0
  7  8  1  0
  8  9  1  0
  8 10  2  0
  3 11  1  0
 11 12  2  0
 11 13  2  0
 11 14  1  0
 14 15  2  0
 15 16  1  0
 16 17  1  0
 17 18  1  0
 18 19  2  0
 19 20  1  0
 17 21  2  0
 21 22  1  0
 22 23  2  0
 22 24  1  0
 24 25  2  0
 24 26  1  0
 10  4  1  0
 19 14  1  0
 26 16  2  0
M  CHG  2  21   1  26   1
M  END
>  <Compound_ID>  (381) 
C06938582

>  <Active>  (381) 
0

>  <Smiles>  (381) 
CCN(c1cccc(C)c1)S(=O)(=O)c1cc2c(cc1C)=[NH+]C(=O)C(=O)[NH+]=2

>  <canonical_smi>  (381) 
CCN(c1cccc(C)c1)S(=O)(=O)c1cc2c(cc1C)=[NH+]C(=O)C(=O)[NH+]=2

>  <Set>  (381) 
G2 inactive

>  <Set_type>  (381) 
Train

>  <MW>  (381) 
373.43

>  <HBD>  (381) 
2

>  <HBA>  (381) 
4

>  <NRB>  (381) 
4

>  <NR>  (381) 
3

>  <NAR>  (381) 
2

>  <PSA>  (381) 
99.46

>  <Standard Type>  (381) 
nan

>  <Standard Relation>  (381) 
nan

>  <Standard Units>  (381) 
nan

>  <Standard Value>  (381) 
nan

>  <Assay ChEMBL ID>  (381) 
nan

>  <Assay Description>  (381) 
nan

>  <BAO Label>  (381) 
nan

$$$$

     RDKit          2D

 25 27  0  0  0  0  0  0  0  0999 V2000
   -1.2114    6.1554    0.0000 O   0  0  0  0  0  0  0  0  0  0  0  0
   -2.6380    5.6918    0.0000 C   0  0  0  0  0  0  0  0  0  0  0  0
   -2.9499    4.2246    0.0000 C   0  0  0  0  0  0  0  0  0  0  0  0
   -1.8351    3.2209    0.0000 N   0  0  0  0  0  4  0  0  0  0  0  0
   -0.4086    3.6844    0.0000 C   0  0  0  0  0  0  0  0  0  0  0  0
    0.7062    2.6807    0.0000 C   0  0  0  0  0  0  0  0  0  0  0  0
    0.3943    1.2135    0.0000 C   0  0  0  0  0  0  0  0  0  0  0  0
    1.2760    0.0000    0.0000 S   0  0  0  0  0  0  0  0  0  0  0  0
    0.3943   -1.2135    0.0000 C   0  0  0  0  0  0  0  0  0  0  0  0
   -1.0323   -0.7500    0.0000 C   0  0  0  0  0  0  0  0  0  0  0  0
   -1.0323    0.7500    0.0000 C   0  0  0  0  0  0  0  0  0  0  0  0
   -2.1470    1.7537    0.0000 C   0  0  0  0  0  0  0  0  0  0  0  0
   -3.7527    6.6955    0.0000 N   0  0  0  0  0  0  0  0  0  0  0  0
   -3.4408    8.1628    0.0000 C   0  0  0  0  0  0  0  0  0  0  0  0
   -4.5556    9.1664    0.0000 C   0  0  0  0  0  0  0  0  0  0  0  0
   -4.2437   10.6337    0.0000 N   0  0  0  0  0  0  0  0  0  0  0  0
   -5.3584   11.6374    0.0000 C   0  0  0  0  0  0  0  0  0  0  0  0
   -5.0465   13.1046    0.0000 C   0  0  0  0  0  0  0  0  0  0  0  0
   -6.1613   14.1083    0.0000 C   0  0  0  0  0  0  0  0  0  0  0  0
   -7.5878   13.6448    0.0000 C   0  0  0  0  0  0  0  0  0  0  0  0
   -8.7026   14.6485    0.0000 N   0  0  0  0  0  4  0  0  0  0  0  0
  -10.1291   14.1849    0.0000 O   0  0  0  0  0  0  0  0  0  0  0  0
   -8.3907   16.1157    0.0000 O   0  0  0  0  0  1  0  0  0  0  0  0
   -7.8997   12.1775    0.0000 C   0  0  0  0  0  0  0  0  0  0  0  0
   -6.7850   11.1738    0.0000 C   0  0  0  0  0  0  0  0  0  0  0  0
  1  2  2  0
  2  3  1  0
  3  4  1  0
  4  5  1  0
  5  6  1  0
  6  7  1  0
  7  8  1  0
  8  9  1  0
  9 10  2  0
 10 11  1  0
 11 12  1  0
  2 13  1  0
 13 14  1  0
 14 15  1  0
 15 16  1  0
 16 17  1  0
 17 18  2  0
 18 19  1  0
 19 20  2  0
 20 21  1  0
 21 22  2  0
 21 23  1  0
 20 24  1  0
 24 25  2  0
 12  4  1  0
 25 17  1  0
 11  7  2  0
M  CHG  3   4   1  21   1  23  -1
M  END
>  <Compound_ID>  (382) 
C54670629

>  <Active>  (382) 
0

>  <Smiles>  (382) 
O=C(C[NH+]1CCc2sccc2C1)NCCNc1ccc([N+](=O)[O-])cc1

>  <canonical_smi>  (382) 
O=C(C[NH+]1CCc2sccc2C1)NCCNc1ccc([N+](=O)[O-])cc1

>  <Set>  (382) 
G2 inactive

>  <Set_type>  (382) 
Train

>  <MW>  (382) 
361.45

>  <HBD>  (382) 
3

>  <HBA>  (382) 
4

>  <NRB>  (382) 
7

>  <NR>  (382) 
3

>  <NAR>  (382) 
2

>  <PSA>  (382) 
88.71

>  <Standard Type>  (382) 
nan

>  <Standard Relation>  (382) 
nan

>  <Standard Units>  (382) 
nan

>  <Standard Value>  (382) 
nan

>  <Assay ChEMBL ID>  (382) 
nan

>  <Assay Description>  (382) 
nan

>  <BAO Label>  (382) 
nan

$$$$

     RDKit          2D

 33 37  0  0  0  0  0  0  0  0999 V2000
    2.9554   -2.2351    0.0000 C   0  0  0  0  0  0  0  0  0  0  0  0
    1.5000   -2.5981    0.0000 C   0  0  0  0  0  0  0  0  0  0  0  0
    0.7500   -1.2990    0.0000 C   0  0  0  0  0  0  0  0  0  0  0  0
    1.5000    0.0000    0.0000 C   0  0  0  0  0  0  0  0  0  0  0  0
    0.7500    1.2990    0.0000 C   0  0  0  0  0  0  0  0  0  0  0  0
   -0.7500    1.2990    0.0000 C   0  0  0  0  0  0  0  0  0  0  0  0
   -1.5000    0.0000    0.0000 N   0  0  0  0  0  4  0  0  0  0  0  0
   -2.9672   -0.3119    0.0000 C   0  0  0  0  0  0  0  0  0  0  0  0
   -3.1240   -1.8037    0.0000 C   0  0  0  0  0  0  0  0  0  0  0  0
   -1.7537   -2.4138    0.0000 C   0  0  0  0  0  0  0  0  0  0  0  0
   -3.2240   -2.7110    0.0000 C   0  0  0  0  0  0  0  0  0  0  0  0
   -4.4286   -1.8173    0.0000 C   0  0  0  0  0  0  0  0  0  0  0  0
   -5.8050   -2.4137    0.0000 C   0  0  0  0  0  0  0  0  0  0  0  0
   -5.9766   -3.9038    0.0000 C   0  0  0  0  0  0  0  0  0  0  0  0
   -7.3529   -4.5002    0.0000 O   0  0  0  0  0  0  0  0  0  0  0  0
   -8.5576   -3.6065    0.0000 C   0  0  0  0  0  0  0  0  0  0  0  0
   -4.7719   -4.7976    0.0000 C   0  0  0  0  0  0  0  0  0  0  0  0
   -3.3956   -4.2011    0.0000 C   0  0  0  0  0  0  0  0  0  0  0  0
   -2.0314   -4.8249    0.0000 N   0  0  0  0  0  0  0  0  0  0  0  0
   -1.7342   -6.2951    0.0000 C   0  0  0  0  0  0  0  0  0  0  0  0
   -1.0134   -3.7261    0.0000 C   0  0  0  0  0  0  0  0  0  0  0  0
    0.4784   -3.8829    0.0000 C   0  0  0  0  0  0  0  0  0  0  0  0
    0.0650   -5.3248    0.0000 O   0  0  0  0  0  0  0  0  0  0  0  0
    1.8266   -4.5404    0.0000 C   0  0  0  0  0  0  0  0  0  0  0  0
    3.2362   -4.0275    0.0000 O   0  0  0  0  0  0  0  0  0  0  0  0
    1.9313   -6.0368    0.0000 O   0  0  0  0  0  0  0  0  0  0  0  0
    3.2794   -6.6943    0.0000 C   0  0  0  0  0  0  0  0  0  0  0  0
    1.3601   -2.6694    0.0000 C   0  0  0  0  0  0  0  0  0  0  0  0
    2.8519   -2.8261    0.0000 C   0  0  0  0  0  0  0  0  0  0  0  0
    3.7336   -1.6126    0.0000 O   0  0  0  0  0  0  0  0  0  0  0  0
    3.4620   -4.1965    0.0000 O   0  0  0  0  0  0  0  0  0  0  0  0
    4.9538   -4.3533    0.0000 C   0  0  0  0  0  0  0  0  0  0  0  0
   -0.7500   -1.2990    0.0000 C   0  0  0  0  0  0  0  0  0  0  0  0
  1  2  1  0
  3  2  1  6
  3  4  1  0
  4  5  2  0
  5  6  1  0
  6  7  1  0
  7  8  1  0
  8  9  1  0
 10  9  1  1
 10 11  1  0
 11 12  2  0
 12 13  1  0
 13 14  2  0
 14 15  1  0
 15 16  1  0
 14 17  1  0
 17 18  2  0
 18 19  1  0
 19 20  1  0
 21 19  1  6
 21 22  1  0
 22 23  1  1
 22 24  1  0
 24 25  2  0
 24 26  1  0
 26 27  1  0
 22 28  1  0
 28 29  1  1
 29 30  2  0
 29 31  1  0
 31 32  1  0
 10 33  1  0
 28  3  1  0
 33  3  1  0
 33  7  1  1
 21 10  1  0
 18 11  1  0
M  CHG  1   7   1
M  END
>  <Compound_ID>  (383) 
C19864844

>  <Active>  (383) 
0

>  <Smiles>  (383) 
CC[C@]12C=CC[NH+]3CC[C@@]4(c5ccc(OC)cc5N(C)[C@H]4[C@@](O)(C(=O)OC)[C@@H]1C(=O)OC)[C@@H]32

>  <canonical_smi>  (383) 
CC[C@]12C=CC[NH+]3CC[C@@]4(c5ccc(OC)cc5N(C)[C@H]4[C@@](O)(C(=O)OC)[C@@H]1C(=O)OC)[C@@H]32

>  <Set>  (383) 
G2 inactive

>  <Set_type>  (383) 
Train

>  <MW>  (383) 
457.55

>  <HBD>  (383) 
2

>  <HBA>  (383) 
7

>  <NRB>  (383) 
4

>  <NR>  (383) 
5

>  <NAR>  (383) 
1

>  <PSA>  (383) 
89.74

>  <Standard Type>  (383) 
nan

>  <Standard Relation>  (383) 
nan

>  <Standard Units>  (383) 
nan

>  <Standard Value>  (383) 
nan

>  <Assay ChEMBL ID>  (383) 
nan

>  <Assay Description>  (383) 
nan

>  <BAO Label>  (383) 
nan

$$$$

     RDKit          2D

 31 35  0  0  0  0  0  0  0  0999 V2000
    3.5757   -7.5908    0.0000 O   0  0  0  0  0  0  0  0  0  0  0  0
    4.6904   -6.5871    0.0000 C   0  0  0  0  0  0  0  0  0  0  0  0
    4.3786   -5.1199    0.0000 N   0  0  0  0  0  0  0  0  0  0  0  0
    2.9520   -4.6564    0.0000 C   0  0  0  0  0  0  0  0  0  0  0  0
    2.6401   -3.1891    0.0000 C   0  0  0  0  0  0  0  0  0  0  0  0
    1.2135   -2.7256    0.0000 C   0  0  0  0  0  0  0  0  0  0  0  0
    0.7500   -1.2990    0.0000 C   0  0  0  0  0  0  0  0  0  0  0  0
    1.5000    0.0000    0.0000 C   0  0  0  0  0  0  0  0  0  0  0  0
    0.7500    1.2990    0.0000 C   0  0  0  0  0  0  0  0  0  0  0  0
    1.5000    2.5981    0.0000 Cl  0  0  0  0  0  0  0  0  0  0  0  0
   -0.7500    1.2990    0.0000 C   0  0  0  0  0  0  0  0  0  0  0  0
   -1.5000    0.0000    0.0000 C   0  0  0  0  0  0  0  0  0  0  0  0
   -0.7500   -1.2990    0.0000 C   0  0  0  0  0  0  0  0  0  0  0  0
   -1.2135   -2.7256    0.0000 N   0  0  0  0  0  4  0  0  0  0  0  0
    0.0000   -3.6073    0.0000 C   0  0  0  0  0  0  0  0  0  0  0  0
    6.1170   -7.0506    0.0000 C   0  0  0  0  0  0  0  0  0  0  0  0
    6.4289   -8.5179    0.0000 C   0  0  0  0  0  0  0  0  0  0  0  0
    7.8555   -8.9814    0.0000 C   0  0  0  0  0  0  0  0  0  0  0  0
    8.9702   -7.9777    0.0000 N   0  0  0  0  0  0  0  0  0  0  0  0
   10.3968   -8.4412    0.0000 C   0  0  0  0  0  0  0  0  0  0  0  0
   11.5115   -7.4375    0.0000 N   0  0  0  0  0  0  0  0  0  0  0  0
   12.9381   -7.9010    0.0000 C   0  0  0  0  0  0  0  0  0  0  0  0
   14.0528   -6.8974    0.0000 Cl  0  0  0  0  0  0  0  0  0  0  0  0
   13.2499   -9.3683    0.0000 N   0  0  0  0  0  0  0  0  0  0  0  0
   12.1352  -10.3720    0.0000 C   0  0  0  0  0  0  0  0  0  0  0  0
   12.1352  -11.8720    0.0000 N   0  0  0  0  0  0  0  0  0  0  0  0
   10.7086  -12.3355    0.0000 C   0  0  0  0  0  0  0  0  0  0  0  0
    9.8270  -11.1220    0.0000 N   0  0  0  0  0  0  0  0  0  0  0  0
   10.7086   -9.9084    0.0000 C   0  0  0  0  0  0  0  0  0  0  0  0
    8.6583   -6.5105    0.0000 C   0  0  0  0  0  0  0  0  0  0  0  0
    7.2317   -6.0469    0.0000 C   0  0  0  0  0  0  0  0  0  0  0  0
  1  2  2  0
  2  3  1  0
  3  4  1  0
  4  5  1  0
  5  6  1  0
  6  7  2  0
  7  8  1  0
  8  9  2  0
  9 10  1  0
  9 11  1  0
 11 12  2  0
 12 13  1  0
 13 14  2  0
 14 15  1  0
  2 16  1  0
 16 17  1  0
 17 18  1  0
 18 19  1  0
 19 20  1  0
 20 21  2  0
 21 22  1  0
 22 23  1  0
 22 24  2  0
 24 25  1  0
 25 26  2  0
 26 27  1  0
 27 28  2  0
 29 28  1  1
 19 30  1  0
 30 31  1  0
 15  6  1  0
 31 16  1  0
 13  7  1  0
 29 20  1  0
 29 25  1  0
M  CHG  1  14   1
M  END
>  <Compound_ID>  (384) 
C64480026

>  <Active>  (384) 
0

>  <Smiles>  (384) 
O=C(NCCC1=c2cc(Cl)ccc2=[NH+]C1)C1CCN(C2=NC(Cl)=NC3=NC=N[C@H]32)CC1

>  <canonical_smi>  (384) 
O=C(NCCC1=c2cc(Cl)ccc2=[NH+]C1)C1CCN(C2=NC(Cl)=NC3=NC=N[C@H]32)CC1

>  <Set>  (384) 
G2 inactive

>  <Set_type>  (384) 
Train

>  <MW>  (384) 
459.36

>  <HBD>  (384) 
2

>  <HBA>  (384) 
2

>  <NRB>  (384) 
4

>  <NR>  (384) 
5

>  <NAR>  (384) 
1

>  <PSA>  (384) 
95.75

>  <Standard Type>  (384) 
nan

>  <Standard Relation>  (384) 
nan

>  <Standard Units>  (384) 
nan

>  <Standard Value>  (384) 
nan

>  <Assay ChEMBL ID>  (384) 
nan

>  <Assay Description>  (384) 
nan

>  <BAO Label>  (384) 
nan

$$$$

     RDKit          2D

 26 29  0  0  0  0  0  0  0  0999 V2000
    3.7500   -3.8971    0.0000 O   0  0  0  0  0  0  0  0  0  0  0  0
    3.0000   -5.1962    0.0000 N   0  0  0  0  0  4  0  0  0  0  0  0
    3.7500   -6.4952    0.0000 O   0  0  0  0  0  1  0  0  0  0  0  0
    1.5000   -5.1962    0.0000 C   0  0  0  0  0  0  0  0  0  0  0  0
    0.7500   -6.4952    0.0000 C   0  0  0  0  0  0  0  0  0  0  0  0
   -0.7500   -6.4952    0.0000 C   0  0  0  0  0  0  0  0  0  0  0  0
   -1.5000   -7.7942    0.0000 Cl  0  0  0  0  0  0  0  0  0  0  0  0
   -1.5000   -5.1962    0.0000 C   0  0  0  0  0  0  0  0  0  0  0  0
   -0.7500   -3.8971    0.0000 C   0  0  0  0  0  0  0  0  0  0  0  0
    0.7500   -3.8971    0.0000 C   0  0  0  0  0  0  0  0  0  0  0  0
    1.5000   -2.5981    0.0000 N   0  0  0  0  0  4  0  0  0  0  0  0
    0.7500   -1.2990    0.0000 C   0  0  0  0  0  0  0  0  0  0  0  0
    1.5000    0.0000    0.0000 C   0  0  0  0  0  0  0  0  0  0  0  0
    0.7500    1.2990    0.0000 C   0  0  0  0  0  0  0  0  0  0  0  0
   -0.7500    1.2990    0.0000 C   0  0  0  0  0  0  0  0  0  0  0  0
   -1.5000    0.0000    0.0000 C   0  0  0  0  0  0  0  0  0  0  0  0
   -0.7500   -1.2990    0.0000 C   0  0  0  0  0  0  0  0  0  0  0  0
   -2.9672    0.3119    0.0000 N   0  0  0  0  0  0  0  0  0  0  0  0
   -3.1240    1.8037    0.0000 N   0  0  0  0  0  0  0  0  0  0  0  0
   -1.7537    2.4138    0.0000 N   0  0  0  0  0  0  0  0  0  0  0  0
   -1.4418    3.8810    0.0000 C   0  0  0  0  0  0  0  0  0  0  0  0
   -0.0152    4.3445    0.0000 C   0  0  0  0  0  0  0  0  0  0  0  0
    0.2966    5.8117    0.0000 C   0  0  0  0  0  0  0  0  0  0  0  0
   -0.8181    6.8154    0.0000 C   0  0  0  0  0  0  0  0  0  0  0  0
   -2.2447    6.3519    0.0000 C   0  0  0  0  0  0  0  0  0  0  0  0
   -2.5565    4.8847    0.0000 C   0  0  0  0  0  0  0  0  0  0  0  0
  1  2  2  0
  2  3  1  0
  4  2  1  1
  4  5  1  0
  5  6  1  0
  6  7  1  1
  6  8  1  0
  8  9  1  0
  9 10  1  0
 10 11  1  1
 12 11  1  1
 12 13  1  0
 13 14  1  0
 15 14  1  6
 15 16  1  0
 16 17  1  6
 16 18  1  0
 18 19  2  0
 19 20  1  0
 20 21  1  0
 21 22  1  0
 22 23  1  0
 23 24  1  0
 24 25  1  0
 25 26  1  0
 10  4  1  0
 17 12  1  0
 26 21  1  0
 20 15  1  0
M  CHG  3   2   1   3  -1  11   1
M  END
>  <Compound_ID>  (385) 
C05282809

>  <Active>  (385) 
0

>  <Smiles>  (385) 
O=[N+]([O-])[C@H]1C[C@@H](Cl)CC[C@H]1[NH2+][C@@H]1CC[C@@H]2[C@H](C1)N=NN2C1CCCCC1

>  <canonical_smi>  (385) 
O=[N+]([O-])[C@H]1C[C@@H](Cl)CC[C@H]1[NH2+][C@@H]1CC[C@@H]2[C@H](C1)N=NN2C1CCCCC1

>  <Set>  (385) 
G2 inactive

>  <Set_type>  (385) 
Train

>  <MW>  (385) 
384.93

>  <HBD>  (385) 
1

>  <HBA>  (385) 
3

>  <NRB>  (385) 
4

>  <NR>  (385) 
4

>  <NAR>  (385) 
0

>  <PSA>  (385) 
87.71

>  <Standard Type>  (385) 
nan

>  <Standard Relation>  (385) 
nan

>  <Standard Units>  (385) 
nan

>  <Standard Value>  (385) 
nan

>  <Assay ChEMBL ID>  (385) 
nan

>  <Assay Description>  (385) 
nan

>  <BAO Label>  (385) 
nan

$$$$

     RDKit          2D

 30 32  0  0  0  0  0  0  0  0999 V2000
    5.2500   -1.2990    0.0000 C   0  0  0  0  0  0  0  0  0  0  0  0
    3.7500   -1.2990    0.0000 C   0  0  0  0  0  0  0  0  0  0  0  0
    3.0000    0.0000    0.0000 O   0  0  0  0  0  0  0  0  0  0  0  0
    1.5000    0.0000    0.0000 C   0  0  0  0  0  0  0  0  0  0  0  0
    0.7500   -1.2990    0.0000 C   0  0  0  0  0  0  0  0  0  0  0  0
    1.5000   -2.5981    0.0000 C   0  0  0  0  0  0  0  0  0  0  0  0
   -0.7500   -1.2990    0.0000 C   0  0  0  0  0  0  0  0  0  0  0  0
   -1.5000    0.0000    0.0000 C   0  0  0  0  0  0  0  0  0  0  0  0
   -3.0000    0.0000    0.0000 S   0  0  0  0  0  0  0  0  0  0  0  0
   -3.0000    1.5000    0.0000 O   0  0  0  0  0  0  0  0  0  0  0  0
   -3.0000   -1.5000    0.0000 O   0  0  0  0  0  0  0  0  0  0  0  0
   -4.5000    0.0000    0.0000 N   0  0  0  0  0  0  0  0  0  0  0  0
   -5.2500   -1.2990    0.0000 C   0  0  0  0  0  0  0  0  0  0  0  0
   -6.7500   -1.2990    0.0000 C   0  0  0  0  0  0  0  0  0  0  0  0
   -7.5000   -2.5981    0.0000 C   0  0  0  0  0  0  0  0  0  0  0  0
   -6.8899   -3.9684    0.0000 C   0  0  0  0  0  0  0  0  0  0  0  0
   -8.0046   -4.9721    0.0000 C   0  0  0  0  0  0  0  0  0  0  0  0
   -9.3037   -4.2221    0.0000 C   0  0  0  0  0  0  0  0  0  0  0  0
   -8.9918   -2.7549    0.0000 N   0  0  0  0  0  0  0  0  0  0  0  0
   -9.9955   -1.6402    0.0000 C   0  0  0  0  0  0  0  0  0  0  0  0
   -7.5000    0.0000    0.0000 N   0  0  0  0  0  0  0  0  0  0  0  0
   -6.7500    1.2990    0.0000 C   0  0  0  0  0  0  0  0  0  0  0  0
   -7.5000    2.5981    0.0000 C   0  0  0  0  0  0  0  0  0  0  0  0
   -9.0000    2.5981    0.0000 N   0  0  0  0  0  4  0  0  0  0  0  0
   -9.7500    3.8971    0.0000 C   0  0  0  0  0  0  0  0  0  0  0  0
   -9.7500    1.2990    0.0000 C   0  0  0  0  0  0  0  0  0  0  0  0
   -9.0000    0.0000    0.0000 C   0  0  0  0  0  0  0  0  0  0  0  0
   -0.7500    1.2990    0.0000 C   0  0  0  0  0  0  0  0  0  0  0  0
    0.7500    1.2990    0.0000 C   0  0  0  0  0  0  0  0  0  0  0  0
    1.5000    2.5981    0.0000 C   0  0  0  0  0  0  0  0  0  0  0  0
  1  2  1  0
  2  3  1  0
  3  4  1  0
  4  5  2  0
  5  6  1  0
  5  7  1  0
  7  8  2  0
  8  9  1  0
  9 10  2  0
  9 11  2  0
  9 12  1  0
 12 13  1  0
 14 13  1  6
 14 15  1  0
 15 16  2  0
 16 17  1  0
 17 18  2  0
 18 19  1  0
 19 20  1  0
 14 21  1  0
 21 22  1  0
 22 23  1  0
 23 24  1  0
 24 25  1  0
 24 26  1  0
 26 27  1  0
  8 28  1  0
 28 29  2  0
 29 30  1  0
 29  4  1  0
 19 15  1  0
 27 21  1  0
M  CHG  1  24   1
M  END
>  <Compound_ID>  (386) 
C21155300

>  <Active>  (386) 
0

>  <Smiles>  (386) 
CCOc1c(C)cc(S(=O)(=O)NC[C@H](c2cccn2C)N2CC[NH+](C)CC2)cc1C

>  <canonical_smi>  (386) 
CCOc1c(C)cc(S(=O)(=O)NC[C@H](c2cccn2C)N2CC[NH+](C)CC2)cc1C

>  <Set>  (386) 
G2 inactive

>  <Set_type>  (386) 
Train

>  <MW>  (386) 
435.61

>  <HBD>  (386) 
2

>  <HBA>  (386) 
4

>  <NRB>  (386) 
8

>  <NR>  (386) 
3

>  <NAR>  (386) 
2

>  <PSA>  (386) 
68.01

>  <Standard Type>  (386) 
nan

>  <Standard Relation>  (386) 
nan

>  <Standard Units>  (386) 
nan

>  <Standard Value>  (386) 
nan

>  <Assay ChEMBL ID>  (386) 
nan

>  <Assay Description>  (386) 
nan

>  <BAO Label>  (386) 
nan

$$$$

     RDKit          2D

 31 34  0  0  0  0  0  0  0  0999 V2000
    3.0000    0.0000    0.0000 C   0  0  0  0  0  0  0  0  0  0  0  0
    1.5000    0.0000    0.0000 C   0  0  0  0  0  0  0  0  0  0  0  0
    0.7500   -1.2990    0.0000 C   0  0  0  0  0  0  0  0  0  0  0  0
   -0.7500   -1.2990    0.0000 C   0  0  0  0  0  0  0  0  0  0  0  0
   -1.5000    0.0000    0.0000 C   0  0  0  0  0  0  0  0  0  0  0  0
   -3.0000    0.0000    0.0000 N   0  0  0  0  0  0  0  0  0  0  0  0
   -3.7500    1.2990    0.0000 C   0  0  0  0  0  0  0  0  0  0  0  0
   -5.2418    1.4558    0.0000 N   0  0  0  0  0  0  0  0  0  0  0  0
   -5.5537    2.9231    0.0000 C   0  0  0  0  0  0  0  0  0  0  0  0
   -6.9240    3.5332    0.0000 C   0  0  0  0  0  0  0  0  0  0  0  0
   -7.0808    5.0249    0.0000 N   0  0  0  0  0  4  0  0  0  0  0  0
   -8.4511    5.6350    0.0000 C   0  0  0  0  0  0  0  0  0  0  0  0
   -5.8672    5.9066    0.0000 C   0  0  0  0  0  0  0  0  0  0  0  0
   -6.0240    7.3984    0.0000 C   0  0  0  0  0  0  0  0  0  0  0  0
   -7.3231    8.1484    0.0000 C   0  0  0  0  0  0  0  0  0  0  0  0
   -8.6934    7.5383    0.0000 C   0  0  0  0  0  0  0  0  0  0  0  0
   -7.0112    9.6156    0.0000 N   0  0  0  0  0  0  0  0  0  0  0  0
   -5.5194    9.7724    0.0000 N   0  0  0  0  0  0  0  0  0  0  0  0
   -4.7694   11.0715    0.0000 C   0  0  0  0  0  0  0  0  0  0  0  0
   -5.3795   12.4418    0.0000 C   0  0  0  0  0  0  0  0  0  0  0  0
   -4.2648   13.4455    0.0000 C   0  0  0  0  0  0  0  0  0  0  0  0
   -2.9658   12.6955    0.0000 S   0  0  0  0  0  0  0  0  0  0  0  0
   -2.3557   14.0658    0.0000 O   0  0  0  0  0  0  0  0  0  0  0  0
   -1.5392   12.2319    0.0000 O   0  0  0  0  0  0  0  0  0  0  0  0
   -3.2776   11.2282    0.0000 C   0  0  0  0  0  0  0  0  0  0  0  0
   -4.9093    8.4021    0.0000 C   0  0  0  0  0  0  0  0  0  0  0  0
   -3.4421    8.0902    0.0000 C   0  0  0  0  0  0  0  0  0  0  0  0
   -4.2546    3.6731    0.0000 C   0  0  0  0  0  0  0  0  0  0  0  0
   -3.1399    2.6694    0.0000 S   0  0  0  0  0  0  0  0  0  0  0  0
   -0.7500    1.2990    0.0000 C   0  0  0  0  0  0  0  0  0  0  0  0
    0.7500    1.2990    0.0000 C   0  0  0  0  0  0  0  0  0  0  0  0
  1  2  1  0
  2  3  2  0
  3  4  1  0
  4  5  2  0
  5  6  1  0
  6  7  1  0
  7  8  2  0
  8  9  1  0
  9 10  1  0
 10 11  1  0
 11 12  1  0
 11 13  1  0
 13 14  1  0
 14 15  1  0
 15 16  1  0
 15 17  2  0
 17 18  1  0
 19 18  1  1
 19 20  1  0
 20 21  1  0
 21 22  1  0
 22 23  2  0
 22 24  2  0
 22 25  1  0
 18 26  1  0
 26 27  1  0
  9 28  2  0
 28 29  1  0
  5 30  1  0
 30 31  2  0
 31  2  1  0
 29  7  1  0
 26 14  2  0
 25 19  1  0
M  CHG  1  11   1
M  END
>  <Compound_ID>  (387) 
C24757361

>  <Active>  (387) 
0

>  <Smiles>  (387) 
Cc1ccc(Nc2nc(C[NH+](C)Cc3c(C)nn([C@H]4CCS(=O)(=O)C4)c3C)cs2)cc1

>  <canonical_smi>  (387) 
Cc1ccc(Nc2nc(C[NH+](C)Cc3c(C)nn([C@H]4CCS(=O)(=O)C4)c3C)cs2)cc1

>  <Set>  (387) 
G2 inactive

>  <Set_type>  (387) 
Train

>  <MW>  (387) 
460.65

>  <HBD>  (387) 
2

>  <HBA>  (387) 
5

>  <NRB>  (387) 
7

>  <NR>  (387) 
4

>  <NAR>  (387) 
3

>  <PSA>  (387) 
81.32

>  <Standard Type>  (387) 
nan

>  <Standard Relation>  (387) 
nan

>  <Standard Units>  (387) 
nan

>  <Standard Value>  (387) 
nan

>  <Assay ChEMBL ID>  (387) 
nan

>  <Assay Description>  (387) 
nan

>  <BAO Label>  (387) 
nan

$$$$

     RDKit          2D

 33 37  0  0  0  0  0  0  0  0999 V2000
    4.6904   -6.5871    0.0000 C   0  0  0  0  0  0  0  0  0  0  0  0
    4.3786   -5.1199    0.0000 C   0  0  0  0  0  0  0  0  0  0  0  0
    5.4933   -4.1162    0.0000 C   0  0  0  0  0  0  0  0  0  0  0  0
    2.9520   -4.6564    0.0000 C   0  0  0  0  0  0  0  0  0  0  0  0
    2.6401   -3.1891    0.0000 C   0  0  0  0  0  0  0  0  0  0  0  0
    1.2135   -2.7256    0.0000 C   0  0  0  0  0  0  0  0  0  0  0  0
   -0.0000   -3.6073    0.0000 N   0  0  0  0  0  4  0  0  0  0  0  0
   -1.2135   -2.7256    0.0000 C   0  0  0  0  0  0  0  0  0  0  0  0
   -2.6401   -3.1891    0.0000 C   0  0  0  0  0  0  0  0  0  0  0  0
   -3.1036   -4.6157    0.0000 C   0  0  0  0  0  0  0  0  0  0  0  0
   -4.6036   -4.6157    0.0000 C   0  0  0  0  0  0  0  0  0  0  0  0
   -5.0672   -3.1891    0.0000 O   0  0  0  0  0  0  0  0  0  0  0  0
   -3.8536   -2.3075    0.0000 C   0  0  0  0  0  0  0  0  0  0  0  0
   -0.7500   -1.2990    0.0000 N   0  0  0  0  0  0  0  0  0  0  0  0
    0.7500   -1.2990    0.0000 C   0  0  0  0  0  0  0  0  0  0  0  0
    1.5000    0.0000    0.0000 C   0  0  0  0  0  0  0  0  0  0  0  0
    0.7500    1.2990    0.0000 N   0  0  0  0  0  0  0  0  0  0  0  0
    1.5000    2.5981    0.0000 C   0  0  0  0  0  0  0  0  0  0  0  0
    0.7500    3.8971    0.0000 O   0  0  0  0  0  0  0  0  0  0  0  0
    3.0000    2.5981    0.0000 C   0  0  0  0  0  0  0  0  0  0  0  0
    3.7500    3.8971    0.0000 C   0  0  0  0  0  0  0  0  0  0  0  0
    5.2500    3.8971    0.0000 C   0  0  0  0  0  0  0  0  0  0  0  0
    6.1317    2.6836    0.0000 N   0  0  0  0  0  0  0  0  0  0  0  0
    7.5583    3.1471    0.0000 C   0  0  0  0  0  0  0  0  0  0  0  0
    8.8573    2.3971    0.0000 C   0  0  0  0  0  0  0  0  0  0  0  0
   10.1563    3.1471    0.0000 C   0  0  0  0  0  0  0  0  0  0  0  0
   10.1563    4.6471    0.0000 C   0  0  0  0  0  0  0  0  0  0  0  0
   11.4554    5.3971    0.0000 F   0  0  0  0  0  0  0  0  0  0  0  0
    8.8573    5.3971    0.0000 C   0  0  0  0  0  0  0  0  0  0  0  0
    7.5583    4.6471    0.0000 C   0  0  0  0  0  0  0  0  0  0  0  0
    6.1317    5.1106    0.0000 N   0  0  0  0  0  0  0  0  0  0  0  0
   -0.7500    1.2990    0.0000 C   0  0  0  0  0  0  0  0  0  0  0  0
   -1.5000    0.0000    0.0000 C   0  0  0  0  0  0  0  0  0  0  0  0
  1  2  1  0
  2  3  1  0
  2  4  1  0
  4  5  1  0
  5  6  1  0
  6  7  1  0
  7  8  2  0
  9  8  1  6
  9 10  1  0
 10 11  1  0
 11 12  1  0
 12 13  1  0
  8 14  1  0
 14 15  1  0
 15 16  1  0
 16 17  1  0
 17 18  1  0
 18 19  2  0
 18 20  1  0
 20 21  1  0
 21 22  1  0
 22 23  2  0
 23 24  1  0
 24 25  2  0
 25 26  1  0
 26 27  2  0
 27 28  1  0
 27 29  1  0
 29 30  2  0
 30 31  1  0
 17 32  1  0
 32 33  1  0
 15  6  2  0
 31 22  1  0
 13  9  1  0
 33 14  1  0
 30 24  1  0
M  CHG  1   7   1
M  END
>  <Compound_ID>  (388) 
C14531482

>  <Active>  (388) 
0

>  <Smiles>  (388) 
CC(C)CCc1[nH+]c([C@@H]2CCOC2)n2c1CN(C(=O)CCc1nc3ccc(F)cc3[nH]1)CC2

>  <canonical_smi>  (388) 
CC(C)CCc1[nH+]c([C@@H]2CCOC2)n2c1CN(C(=O)CCc1nc3ccc(F)cc3[nH]1)CC2

>  <Set>  (388) 
G2 inactive

>  <Set_type>  (388) 
Train

>  <MW>  (388) 
454.57

>  <HBD>  (388) 
1

>  <HBA>  (388) 
3

>  <NRB>  (388) 
7

>  <NR>  (388) 
5

>  <NAR>  (388) 
3

>  <PSA>  (388) 
77.29

>  <Standard Type>  (388) 
nan

>  <Standard Relation>  (388) 
nan

>  <Standard Units>  (388) 
nan

>  <Standard Value>  (388) 
nan

>  <Assay ChEMBL ID>  (388) 
nan

>  <Assay Description>  (388) 
nan

>  <BAO Label>  (388) 
nan

$$$$

     RDKit          2D

 32 35  0  0  0  0  0  0  0  0999 V2000
    3.0000   -7.7942    0.0000 O   0  0  0  0  0  0  0  0  0  0  0  0
    1.5000   -7.7942    0.0000 C   0  0  0  0  0  0  0  0  0  0  0  0
    0.7500   -6.4952    0.0000 N   0  0  0  0  0  0  0  0  0  0  0  0
    1.5000   -5.1962    0.0000 C   0  0  0  0  0  0  0  0  0  0  0  0
    0.7500   -3.8971    0.0000 C   0  0  0  0  0  0  0  0  0  0  0  0
    1.5000   -2.5981    0.0000 O   0  0  0  0  0  0  0  0  0  0  0  0
    0.7500   -1.2990    0.0000 C   0  0  0  0  0  0  0  0  0  0  0  0
    1.5000    0.0000    0.0000 C   0  0  0  0  0  0  0  0  0  0  0  0
    0.7500    1.2990    0.0000 C   0  0  0  0  0  0  0  0  0  0  0  0
   -0.7500    1.2990    0.0000 C   0  0  0  0  0  0  0  0  0  0  0  0
   -1.5000    0.0000    0.0000 C   0  0  0  0  0  0  0  0  0  0  0  0
   -0.7500   -1.2990    0.0000 C   0  0  0  0  0  0  0  0  0  0  0  0
    0.7500   -9.0933    0.0000 C   0  0  0  0  0  0  0  0  0  0  0  0
   -0.7500   -9.0933    0.0000 C   0  0  0  0  0  0  0  0  0  0  0  0
   -1.5000  -10.3923    0.0000 C   0  0  0  0  0  0  0  0  0  0  0  0
   -0.7500  -11.6913    0.0000 C   0  0  0  0  0  0  0  0  0  0  0  0
    0.7500  -11.6913    0.0000 C   0  0  0  0  0  0  0  0  0  0  0  0
    1.5000  -10.3923    0.0000 C   0  0  0  0  0  0  0  0  0  0  0  0
    3.0000  -10.3923    0.0000 C   0  0  0  0  0  0  0  0  0  0  0  0
    3.7500   -9.0933    0.0000 O   0  0  0  0  0  0  0  0  0  0  0  0
    3.7500  -11.6913    0.0000 N   0  0  0  0  0  0  0  0  0  0  0  0
    3.0000  -12.9904    0.0000 C   0  0  0  0  0  0  0  0  0  0  0  0
    3.7500  -14.2894    0.0000 C   0  0  0  0  0  0  0  0  0  0  0  0
    5.2500  -14.2894    0.0000 N   0  0  0  0  0  0  0  0  0  0  0  0
    6.0000  -15.5885    0.0000 C   0  0  0  0  0  0  0  0  0  0  0  0
    5.2500  -16.8875    0.0000 C   0  0  0  0  0  0  0  0  0  0  0  0
    6.0000  -18.1865    0.0000 C   0  0  0  0  0  0  0  0  0  0  0  0
    7.5000  -18.1865    0.0000 C   0  0  0  0  0  0  0  0  0  0  0  0
    8.2500  -16.8875    0.0000 C   0  0  0  0  0  0  0  0  0  0  0  0
    7.5000  -15.5885    0.0000 N   0  0  0  0  0  4  0  0  0  0  0  0
    6.0000  -12.9904    0.0000 C   0  0  0  0  0  0  0  0  0  0  0  0
    5.2500  -11.6913    0.0000 C   0  0  0  0  0  0  0  0  0  0  0  0
  1  2  2  0
  2  3  1  0
  3  4  1  0
  4  5  1  0
  5  6  1  0
  6  7  1  0
  7  8  2  0
  8  9  1  0
  9 10  2  0
 10 11  1  0
 11 12  2  0
 13  2  1  6
 13 14  1  0
 14 15  1  0
 15 16  2  0
 16 17  1  0
 17 18  1  0
 18 19  1  1
 19 20  2  0
 19 21  1  0
 21 22  1  0
 22 23  1  0
 23 24  1  0
 24 25  1  0
 25 26  2  0
 26 27  1  0
 27 28  2  0
 28 29  1  0
 29 30  2  0
 24 31  1  0
 31 32  1  0
 12  7  1  0
 18 13  1  0
 32 21  1  0
 30 25  1  0
M  CHG  1  30   1
M  END
>  <Compound_ID>  (389) 
C38740782

>  <Active>  (389) 
0

>  <Smiles>  (389) 
O=C(NCCOc1ccccc1)[C@H]1CC=CC[C@@H]1C(=O)N1CCN(c2cccc[nH+]2)CC1

>  <canonical_smi>  (389) 
O=C(NCCOc1ccccc1)[C@H]1CC=CC[C@@H]1C(=O)N1CCN(c2cccc[nH+]2)CC1

>  <Set>  (389) 
G2 inactive

>  <Set_type>  (389) 
Train

>  <MW>  (389) 
435.55

>  <HBD>  (389) 
1

>  <HBA>  (389) 
4

>  <NRB>  (389) 
7

>  <NR>  (389) 
4

>  <NAR>  (389) 
2

>  <PSA>  (389) 
76.02

>  <Standard Type>  (389) 
nan

>  <Standard Relation>  (389) 
nan

>  <Standard Units>  (389) 
nan

>  <Standard Value>  (389) 
nan

>  <Assay ChEMBL ID>  (389) 
nan

>  <Assay Description>  (389) 
nan

>  <BAO Label>  (389) 
nan

$$$$

     RDKit          2D

 32 35  0  0  0  0  0  0  0  0999 V2000
    3.7500   -1.2990    0.0000 C   0  0  0  0  0  0  0  0  0  0  0  0
    3.0000    0.0000    0.0000 O   0  0  0  0  0  0  0  0  0  0  0  0
    1.5000    0.0000    0.0000 C   0  0  0  0  0  0  0  0  0  0  0  0
    0.7500   -1.2990    0.0000 C   0  0  0  0  0  0  0  0  0  0  0  0
   -0.7500   -1.2990    0.0000 C   0  0  0  0  0  0  0  0  0  0  0  0
   -1.5000   -2.5981    0.0000 C   0  0  0  0  0  0  0  0  0  0  0  0
   -3.0000   -2.5981    0.0000 N   0  0  0  0  0  4  0  0  0  0  0  0
   -3.7500   -3.8971    0.0000 C   0  0  0  0  0  0  0  0  0  0  0  0
   -3.7500   -1.2990    0.0000 C   0  0  0  0  0  0  0  0  0  0  0  0
   -5.2500   -1.2990    0.0000 C   0  0  0  0  0  0  0  0  0  0  0  0
   -6.1317   -2.5126    0.0000 N   0  0  0  0  0  0  0  0  0  0  0  0
   -7.5583   -2.0490    0.0000 N   0  0  0  0  0  0  0  0  0  0  0  0
   -7.5583   -0.5490    0.0000 C   0  0  0  0  0  0  0  0  0  0  0  0
   -8.7718    0.3326    0.0000 S   0  0  0  0  0  0  0  0  0  0  0  0
   -8.6150    1.8244    0.0000 C   0  0  0  0  0  0  0  0  0  0  0  0
   -9.8285    2.7061    0.0000 C   0  0  0  0  0  0  0  0  0  0  0  0
   -9.6717    4.1979    0.0000 C   0  0  0  0  0  0  0  0  0  0  0  0
  -10.8853    5.0796    0.0000 C   0  0  0  0  0  0  0  0  0  0  0  0
  -12.2556    4.4695    0.0000 C   0  0  0  0  0  0  0  0  0  0  0  0
  -12.4124    2.9777    0.0000 C   0  0  0  0  0  0  0  0  0  0  0  0
  -11.1988    2.0960    0.0000 N   0  0  0  0  0  0  0  0  0  0  0  0
   -6.1317   -0.0855    0.0000 N   0  0  0  0  0  0  0  0  0  0  0  0
   -5.6682    1.3411    0.0000 C   0  0  0  0  0  0  0  0  0  0  0  0
   -4.2009    1.6529    0.0000 C   0  0  0  0  0  0  0  0  0  0  0  0
   -3.5908    3.0233    0.0000 C   0  0  0  0  0  0  0  0  0  0  0  0
   -2.0990    2.8665    0.0000 C   0  0  0  0  0  0  0  0  0  0  0  0
   -1.7872    1.3992    0.0000 C   0  0  0  0  0  0  0  0  0  0  0  0
   -3.0862    0.6492    0.0000 O   0  0  0  0  0  0  0  0  0  0  0  0
   -1.5000    0.0000    0.0000 C   0  0  0  0  0  0  0  0  0  0  0  0
   -0.7500    1.2990    0.0000 C   0  0  0  0  0  0  0  0  0  0  0  0
    0.7500    1.2990    0.0000 C   0  0  0  0  0  0  0  0  0  0  0  0
    1.5000    2.5981    0.0000 O   0  0  0  0  0  0  0  0  0  0  0  0
  1  2  1  0
  2  3  1  0
  3  4  2  0
  4  5  1  0
  5  6  1  0
  6  7  1  0
  7  8  1  0
  7  9  1  0
  9 10  1  0
 10 11  2  0
 11 12  1  0
 12 13  2  0
 13 14  1  0
 14 15  1  0
 15 16  1  0
 16 17  2  0
 17 18  1  0
 18 19  2  0
 19 20  1  0
 20 21  2  0
 13 22  1  0
 22 23  1  0
 24 23  1  1
 24 25  1  0
 25 26  1  0
 26 27  1  0
 27 28  1  0
  5 29  2  0
 29 30  1  0
 30 31  2  0
 31 32  1  0
 31  3  1  0
 22 10  1  0
 28 24  1  0
 21 16  1  0
M  CHG  1   7   1
M  END
>  <Compound_ID>  (390) 
C11913570

>  <Active>  (390) 
0

>  <Smiles>  (390) 
COc1cc(C[NH+](C)Cc2nnc(SCc3ccccn3)n2C[C@H]2CCCO2)ccc1O

>  <canonical_smi>  (390) 
COc1cc(C[NH+](C)Cc2nnc(SCc3ccccn3)n2C[C@H]2CCCO2)ccc1O

>  <Set>  (390) 
G2 inactive

>  <Set_type>  (390) 
Train

>  <MW>  (390) 
456.59

>  <HBD>  (390) 
2

>  <HBA>  (390) 
7

>  <NRB>  (390) 
10

>  <NR>  (390) 
4

>  <NAR>  (390) 
3

>  <PSA>  (390) 
86.73

>  <Standard Type>  (390) 
nan

>  <Standard Relation>  (390) 
nan

>  <Standard Units>  (390) 
nan

>  <Standard Value>  (390) 
nan

>  <Assay ChEMBL ID>  (390) 
nan

>  <Assay Description>  (390) 
nan

>  <BAO Label>  (390) 
nan

$$$$

     RDKit          2D

 34 38  0  0  0  0  0  0  0  0999 V2000
   -6.3018   12.3603    0.0000 O   0  0  0  0  0  0  0  0  0  0  0  0
   -5.7691   11.2683    0.0000 C   0  0  0  0  0  0  0  0  0  0  0  0
   -6.7728   10.1536    0.0000 C   0  0  0  0  0  0  0  0  0  0  0  0
   -6.0228    8.8546    0.0000 C   0  0  0  0  0  0  0  0  0  0  0  0
   -4.5556    9.1664    0.0000 C   0  0  0  0  0  0  0  0  0  0  0  0
   -3.4408    8.1628    0.0000 C   0  0  0  0  0  0  0  0  0  0  0  0
   -3.7527    6.6955    0.0000 C   0  0  0  0  0  0  0  0  0  0  0  0
   -2.6380    5.6918    0.0000 N   0  0  0  0  0  4  0  0  0  0  0  0
   -2.9499    4.2246    0.0000 C   0  0  0  0  0  0  0  0  0  0  0  0
   -1.8351    3.2209    0.0000 C   0  0  0  0  0  0  0  0  0  0  0  0
   -2.1470    1.7537    0.0000 C   0  0  0  0  0  0  0  0  0  0  0  0
   -1.0323    0.7500    0.0000 C   0  0  0  0  0  0  0  0  0  0  0  0
    0.3943    1.2135    0.0000 C   0  0  0  0  0  0  0  0  0  0  0  0
    0.7062    2.6807    0.0000 C   0  0  0  0  0  0  0  0  0  0  0  0
   -0.4086    3.6844    0.0000 C   0  0  0  0  0  0  0  0  0  0  0  0
   -0.0967    5.1517    0.0000 Cl  0  0  0  0  0  0  0  0  0  0  0  0
    1.2760    0.0000    0.0000 O   0  0  0  0  0  0  0  0  0  0  0  0
    0.3943   -1.2135    0.0000 C   0  0  0  0  0  0  0  0  0  0  0  0
   -1.0323   -0.7500    0.0000 O   0  0  0  0  0  0  0  0  0  0  0  0
   -4.3988   10.6582    0.0000 N   0  0  0  0  0  0  0  0  0  0  0  0
   -3.0997   11.4082    0.0000 C   0  0  0  0  0  0  0  0  0  0  0  0
   -3.0997   12.9082    0.0000 C   0  0  0  0  0  0  0  0  0  0  0  0
   -4.3988   13.6582    0.0000 C   0  0  0  0  0  0  0  0  0  0  0  0
   -5.6978   12.9082    0.0000 C   0  0  0  0  0  0  0  0  0  0  0  0
   -6.9968   13.6582    0.0000 C   0  0  0  0  0  0  0  0  0  0  0  0
   -6.9968   15.1582    0.0000 N   0  0  0  0  0  0  0  0  0  0  0  0
   -5.6978   15.9082    0.0000 C   0  0  0  0  0  0  0  0  0  0  0  0
   -4.3988   15.1582    0.0000 C   0  0  0  0  0  0  0  0  0  0  0  0
   -1.8007   13.6582    0.0000 N   0  0  0  0  0  0  0  0  0  0  0  0
   -0.5016   12.9082    0.0000 C   0  0  0  0  0  0  0  0  0  0  0  0
    0.7974   13.6582    0.0000 C   0  0  0  0  0  0  0  0  0  0  0  0
    0.7974   15.1582    0.0000 O   0  0  0  0  0  0  0  0  0  0  0  0
   -0.5016   15.9082    0.0000 C   0  0  0  0  0  0  0  0  0  0  0  0
   -1.8007   15.1582    0.0000 C   0  0  0  0  0  0  0  0  0  0  0  0
  1  2  2  0
  2  3  1  0
  3  4  1  0
  4  5  1  0
  5  6  1  6
  6  7  1  0
  7  8  1  0
  8  9  1  0
  9 10  1  0
 10 11  2  0
 11 12  1  0
 12 13  2  0
 13 14  1  0
 14 15  2  0
 15 16  1  0
 13 17  1  0
 17 18  1  0
 18 19  1  0
  5 20  1  0
 20 21  1  0
 22 21  1  1
 22 23  1  0
 23 24  2  0
 24 25  1  0
 25 26  2  0
 26 27  1  0
 27 28  2  0
 22 29  1  0
 29 30  1  0
 30 31  1  0
 31 32  1  0
 32 33  1  0
 33 34  1  0
 20  2  1  0
 28 23  1  0
 34 29  1  0
 15 10  1  0
 19 12  1  0
M  CHG  1   8   1
M  END
>  <Compound_ID>  (391) 
C14994761

>  <Active>  (391) 
0

>  <Smiles>  (391) 
O=C1CC[C@@H](CC[NH2+]Cc2cc3c(cc2Cl)OCO3)N1C[C@@H](c1ccncc1)N1CCOCC1

>  <canonical_smi>  (391) 
O=C1CC[C@@H](CC[NH2+]Cc2cc3c(cc2Cl)OCO3)N1C[C@@H](c1ccncc1)N1CCOCC1

>  <Set>  (391) 
G2 inactive

>  <Set_type>  (391) 
Train

>  <MW>  (391) 
488.01

>  <HBD>  (391) 
1

>  <HBA>  (391) 
6

>  <NRB>  (391) 
9

>  <NR>  (391) 
5

>  <NAR>  (391) 
2

>  <PSA>  (391) 
80.74

>  <Standard Type>  (391) 
nan

>  <Standard Relation>  (391) 
nan

>  <Standard Units>  (391) 
nan

>  <Standard Value>  (391) 
nan

>  <Assay ChEMBL ID>  (391) 
nan

>  <Assay Description>  (391) 
nan

>  <BAO Label>  (391) 
nan

$$$$

     RDKit          2D

 35 39  0  0  0  0  0  0  0  0999 V2000
    4.2820   -4.1107    0.0000 O   0  0  0  0  0  0  0  0  0  0  0  0
    4.7455   -5.5373    0.0000 C   0  0  0  0  0  0  0  0  0  0  0  0
    6.2127   -5.8491    0.0000 N   0  0  0  0  0  0  0  0  0  0  0  0
    7.2164   -4.7344    0.0000 C   0  0  0  0  0  0  0  0  0  0  0  0
    8.6836   -5.0463    0.0000 C   0  0  0  0  0  0  0  0  0  0  0  0
    9.1471   -6.4729    0.0000 C   0  0  0  0  0  0  0  0  0  0  0  0
   10.6144   -6.7847    0.0000 C   0  0  0  0  0  0  0  0  0  0  0  0
   11.6181   -5.6700    0.0000 C   0  0  0  0  0  0  0  0  0  0  0  0
   13.0853   -5.9819    0.0000 C   0  0  0  0  0  0  0  0  0  0  0  0
   13.5488   -7.4085    0.0000 N   0  0  0  0  0  4  0  0  0  0  0  0
   12.5451   -8.5232    0.0000 C   0  0  0  0  0  0  0  0  0  0  0  0
   13.0086   -9.9498    0.0000 C   0  0  0  0  0  0  0  0  0  0  0  0
   14.4759  -10.2616    0.0000 C   0  0  0  0  0  0  0  0  0  0  0  0
   15.4796   -9.1469    0.0000 C   0  0  0  0  0  0  0  0  0  0  0  0
   15.0160   -7.7203    0.0000 C   0  0  0  0  0  0  0  0  0  0  0  0
   11.1545   -4.2434    0.0000 C   0  0  0  0  0  0  0  0  0  0  0  0
    9.6873   -3.9316    0.0000 C   0  0  0  0  0  0  0  0  0  0  0  0
    3.7418   -6.6520    0.0000 C   0  0  0  0  0  0  0  0  0  0  0  0
    4.0537   -8.1192    0.0000 C   0  0  0  0  0  0  0  0  0  0  0  0
    2.7546   -8.8692    0.0000 C   0  0  0  0  0  0  0  0  0  0  0  0
    1.6399   -7.8655    0.0000 C   0  0  0  0  0  0  0  0  0  0  0  0
    2.2500   -6.4952    0.0000 N   0  0  0  0  0  0  0  0  0  0  0  0
    1.5000   -5.1962    0.0000 S   0  0  0  0  0  0  0  0  0  0  0  0
    0.2010   -5.9462    0.0000 O   0  0  0  0  0  0  0  0  0  0  0  0
    2.7990   -4.4462    0.0000 O   0  0  0  0  0  0  0  0  0  0  0  0
    0.7500   -3.8971    0.0000 C   0  0  0  0  0  0  0  0  0  0  0  0
   -0.7500   -3.8971    0.0000 C   0  0  0  0  0  0  0  0  0  0  0  0
   -1.5000   -2.5981    0.0000 C   0  0  0  0  0  0  0  0  0  0  0  0
   -0.7500   -1.2990    0.0000 C   0  0  0  0  0  0  0  0  0  0  0  0
    0.7500   -1.2990    0.0000 C   0  0  0  0  0  0  0  0  0  0  0  0
    1.5000   -2.5981    0.0000 C   0  0  0  0  0  0  0  0  0  0  0  0
    1.5000    0.0000    0.0000 O   0  0  0  0  0  0  0  0  0  0  0  0
    0.7500    1.2990    0.0000 C   0  0  0  0  0  0  0  0  0  0  0  0
   -0.7500    1.2990    0.0000 C   0  0  0  0  0  0  0  0  0  0  0  0
   -1.5000    0.0000    0.0000 O   0  0  0  0  0  0  0  0  0  0  0  0
  1  2  2  0
  2  3  1  0
  3  4  1  0
  4  5  1  0
  5  6  2  0
  6  7  1  0
  7  8  2  0
  8  9  1  0
  9 10  1  0
 10 11  1  0
 11 12  1  0
 12 13  1  0
 13 14  1  0
 14 15  1  0
  8 16  1  0
 16 17  2  0
 18  2  1  1
 18 19  1  0
 19 20  1  0
 20 21  1  0
 21 22  1  0
 22 23  1  0
 23 24  2  0
 23 25  2  0
 23 26  1  0
 26 27  2  0
 27 28  1  0
 28 29  2  0
 29 30  1  0
 30 31  2  0
 30 32  1  0
 32 33  1  0
 33 34  1  0
 34 35  1  0
 17  5  1  0
 22 18  1  0
 31 26  1  0
 15 10  1  0
 35 29  1  0
M  CHG  1  10   1
M  END
>  <Compound_ID>  (392) 
C22382534

>  <Active>  (392) 
0

>  <Smiles>  (392) 
O=C(NCc1ccc(C[NH+]2CCCCC2)cc1)[C@H]1CCCN1S(=O)(=O)c1ccc2c(c1)OCCO2

>  <canonical_smi>  (392) 
O=C(NCc1ccc(C[NH+]2CCCCC2)cc1)[C@H]1CCCN1S(=O)(=O)c1ccc2c(c1)OCCO2

>  <Set>  (392) 
G2 inactive

>  <Set_type>  (392) 
Train

>  <MW>  (392) 
500.64

>  <HBD>  (392) 
2

>  <HBA>  (392) 
5

>  <NRB>  (392) 
7

>  <NR>  (392) 
5

>  <NAR>  (392) 
2

>  <PSA>  (392) 
89.38

>  <Standard Type>  (392) 
nan

>  <Standard Relation>  (392) 
nan

>  <Standard Units>  (392) 
nan

>  <Standard Value>  (392) 
nan

>  <Assay ChEMBL ID>  (392) 
nan

>  <Assay Description>  (392) 
nan

>  <BAO Label>  (392) 
nan

$$$$

     RDKit          2D

 16 18  0  0  0  0  0  0  0  0999 V2000
   -1.2135   -4.4890    0.0000 C   0  0  0  0  0  0  0  0  0  0  0  0
    0.0000   -3.6073    0.0000 C   0  0  0  0  0  0  0  0  0  0  0  0
    0.4635   -5.0339    0.0000 C   0  0  0  0  0  0  0  0  0  0  0  0
    1.9635   -5.0339    0.0000 C   0  0  0  0  0  0  0  0  0  0  0  0
    1.8067   -6.5257    0.0000 C   0  0  0  0  0  0  0  0  0  0  0  0
    3.4307   -5.3458    0.0000 O   0  0  0  0  0  0  0  0  0  0  0  0
    2.4271   -3.6073    0.0000 O   0  0  0  0  0  0  0  0  0  0  0  0
    1.2135   -2.7256    0.0000 N   0  0  0  0  0  0  0  0  0  0  0  0
    0.7500   -1.2990    0.0000 C   0  0  0  0  0  0  0  0  0  0  0  0
    1.5000    0.0000    0.0000 C   0  0  0  0  0  0  0  0  0  0  0  0
    0.7500    1.2990    0.0000 C   0  0  0  0  0  0  0  0  0  0  0  0
   -0.7500    1.2990    0.0000 C   0  0  0  0  0  0  0  0  0  0  0  0
   -1.5000    0.0000    0.0000 C   0  0  0  0  0  0  0  0  0  0  0  0
   -0.7500   -1.2990    0.0000 C   0  0  0  0  0  0  0  0  0  0  0  0
   -1.2135   -2.7256    0.0000 N   0  0  0  0  0  0  0  0  0  0  0  0
   -2.6401   -3.1891    0.0000 O   0  0  0  0  0  0  0  0  0  0  0  0
  2  1  1  6
  2  3  1  0
  3  4  1  0
  4  5  1  6
  4  6  1  0
  4  7  1  0
  7  8  1  0
  8  9  1  0
  9 10  1  1
 10 11  1  0
 11 12  1  0
 12 13  1  0
 14 13  1  1
 14 15  1  0
 15 16  1  0
  8  2  1  0
 14  9  1  0
 15  2  1  0
M  END
>  <Compound_ID>  (393) 
C00507381

>  <Active>  (393) 
0

>  <Smiles>  (393) 
C[C@@]12C[C@](C)(O)ON1[C@@H]1CCCC[C@@H]1N2O

>  <canonical_smi>  (393) 
C[C@@]12C[C@](C)(O)ON1[C@@H]1CCCC[C@@H]1N2O

>  <Set>  (393) 
G2 inactive

>  <Set_type>  (393) 
Train

>  <MW>  (393) 
228.29

>  <HBD>  (393) 
2

>  <HBA>  (393) 
5

>  <NRB>  (393) 
0

>  <NR>  (393) 
3

>  <NAR>  (393) 
0

>  <PSA>  (393) 
56.17

>  <Standard Type>  (393) 
nan

>  <Standard Relation>  (393) 
nan

>  <Standard Units>  (393) 
nan

>  <Standard Value>  (393) 
nan

>  <Assay ChEMBL ID>  (393) 
nan

>  <Assay Description>  (393) 
nan

>  <BAO Label>  (393) 
nan

$$$$

     RDKit          2D

 16 17  0  0  0  0  0  0  0  0999 V2000
    2.7760    0.0000    0.0000 C   0  0  0  0  0  0  0  0  0  0  0  0
    1.2760    0.0000    0.0000 C   0  0  0  0  0  0  0  0  0  0  0  0
    0.3943    1.2135    0.0000 C   0  0  0  0  0  0  0  0  0  0  0  0
   -1.0323    0.7500    0.0000 C   0  0  0  0  0  0  0  0  0  0  0  0
   -1.0323   -0.7500    0.0000 C   0  0  0  0  0  0  0  0  0  0  0  0
   -1.9140    0.4635    0.0000 C   0  0  0  0  0  0  0  0  0  0  0  0
   -3.4140    0.4635    0.0000 S   0  0  0  0  0  0  0  0  0  0  0  0
   -3.4140   -1.0365    0.0000 O   0  0  0  0  0  0  0  0  0  0  0  0
   -3.4140    1.9635    0.0000 O   0  0  0  0  0  0  0  0  0  0  0  0
   -4.9140    0.4635    0.0000 O   0  0  0  0  0  0  0  0  0  0  0  0
   -5.6640    1.7626    0.0000 N   0  0  0  0  0  0  0  0  0  0  0  0
   -1.0323    1.6771    0.0000 C   0  0  0  0  0  0  0  0  0  0  0  0
   -1.4958    3.1036    0.0000 O   0  0  0  0  0  0  0  0  0  0  0  0
    0.3943   -1.2135    0.0000 C   0  0  0  0  0  0  0  0  0  0  0  0
    1.6933   -1.9635    0.0000 C   0  0  0  0  0  0  0  0  0  0  0  0
   -0.2158   -2.5838    0.0000 C   0  0  0  0  0  0  0  0  0  0  0  0
  2  1  1  1
  2  3  1  0
  3  4  1  0
  4  5  1  0
  5  6  1  0
  6  7  1  6
  7  8  2  0
  7  9  2  0
  7 10  1  0
 10 11  1  0
  6 12  1  0
 12 13  2  0
  5 14  1  1
 14 15  1  0
 14 16  1  0
 14  2  1  0
  3 12  1  1
M  END
>  <Compound_ID>  (394) 
C19877653

>  <Active>  (394) 
0

>  <Smiles>  (394) 
C[C@@H]1[C@H]2C[C@H]([C@H](S(=O)(=O)ON)C2=O)C1(C)C

>  <canonical_smi>  (394) 
C[C@@H]1[C@H]2C[C@H]([C@H](S(=O)(=O)ON)C2=O)C1(C)C

>  <Set>  (394) 
G2 inactive

>  <Set_type>  (394) 
Train

>  <MW>  (394) 
247.32

>  <HBD>  (394) 
1

>  <HBA>  (394) 
5

>  <NRB>  (394) 
2

>  <NR>  (394) 
2

>  <NAR>  (394) 
0

>  <PSA>  (394) 
86.46

>  <Standard Type>  (394) 
nan

>  <Standard Relation>  (394) 
nan

>  <Standard Units>  (394) 
nan

>  <Standard Value>  (394) 
nan

>  <Assay ChEMBL ID>  (394) 
nan

>  <Assay Description>  (394) 
nan

>  <BAO Label>  (394) 
nan

$$$$

     RDKit          2D

 16 17  0  0  0  0  0  0  0  0999 V2000
    3.0000    0.0000    0.0000 C   0  0  0  0  0  0  0  0  0  0  0  0
    1.5000    0.0000    0.0000 C   0  0  0  0  0  0  0  0  0  0  0  0
    0.7500   -1.2990    0.0000 C   0  0  0  0  0  0  0  0  0  0  0  0
   -0.7500   -1.2990    0.0000 C   0  0  0  0  0  0  0  0  0  0  0  0
   -1.5000    0.0000    0.0000 C   0  0  0  0  0  0  0  0  0  0  0  0
   -0.7500    1.2990    0.0000 C   0  0  0  0  0  0  0  0  0  0  0  0
    0.7500    1.2990    0.0000 C   0  0  0  0  0  0  0  0  0  0  0  0
    1.5000    2.5981    0.0000 N   0  0  0  0  0  0  0  0  0  0  0  0
    3.0000    2.5981    0.0000 C   0  0  0  0  0  0  0  0  0  0  0  0
    3.7500    3.8971    0.0000 N   0  0  0  0  0  0  0  0  0  0  0  0
    3.0000    5.1962    0.0000 C   0  0  0  0  0  0  0  0  0  0  0  0
    3.7500    6.4952    0.0000 N   0  0  0  0  0  0  0  0  0  0  0  0
    5.2500    6.4952    0.0000 C   0  0  0  0  0  0  0  0  0  0  0  0
    6.7500    6.4952    0.0000 N   0  0  0  0  0  0  0  0  0  0  0  0
    1.5000    5.1962    0.0000 N   0  0  0  0  0  0  0  0  0  0  0  0
    0.7500    3.8971    0.0000 C   0  0  0  0  0  0  0  0  0  0  0  0
  2  1  1  1
  2  3  1  0
  3  4  1  0
  4  5  1  0
  5  6  1  0
  6  7  1  0
  7  8  1  6
  8  9  1  0
  9 10  1  0
 10 11  2  0
 11 12  1  0
 12 13  1  0
 13 14  3  0
 11 15  1  0
 15 16  1  0
  7  2  1  0
 16  8  1  0
M  END
>  <Compound_ID>  (395) 
C19330790

>  <Active>  (395) 
0

>  <Smiles>  (395) 
C[C@H]1CCCC[C@@H]1N1CN=C(NC#N)NC1

>  <canonical_smi>  (395) 
C[C@H]1CCCC[C@@H]1N1CN=C(NC#N)NC1

>  <Set>  (395) 
G2 inactive

>  <Set_type>  (395) 
Train

>  <MW>  (395) 
221.31

>  <HBD>  (395) 
2

>  <HBA>  (395) 
4

>  <NRB>  (395) 
1

>  <NR>  (395) 
2

>  <NAR>  (395) 
0

>  <PSA>  (395) 
63.45

>  <Standard Type>  (395) 
nan

>  <Standard Relation>  (395) 
nan

>  <Standard Units>  (395) 
nan

>  <Standard Value>  (395) 
nan

>  <Assay ChEMBL ID>  (395) 
nan

>  <Assay Description>  (395) 
nan

>  <BAO Label>  (395) 
nan

$$$$

     RDKit          2D

 16 17  0  0  0  0  0  0  0  0999 V2000
    4.8308   -6.3240    0.0000 C   0  0  0  0  0  0  0  0  0  0  0  0
    4.6740   -4.8322    0.0000 C   0  0  0  0  0  0  0  0  0  0  0  0
    3.3037   -4.2221    0.0000 C   0  0  0  0  0  0  0  0  0  0  0  0
    2.9918   -2.7549    0.0000 C   0  0  0  0  0  0  0  0  0  0  0  0
    3.9955   -1.6402    0.0000 O   0  0  0  0  0  0  0  0  0  0  0  0
    1.5000   -2.5981    0.0000 N   0  0  0  0  0  0  0  0  0  0  0  0
    0.7500   -1.2990    0.0000 C   0  0  0  0  0  0  0  0  0  0  0  0
    1.5000    0.0000    0.0000 C   0  0  0  0  0  0  0  0  0  0  0  0
    0.7500    1.2990    0.0000 C   0  0  0  0  0  0  0  0  0  0  0  0
   -0.7500    1.2990    0.0000 C   0  0  0  0  0  0  0  0  0  0  0  0
   -1.5000    2.5981    0.0000 N   0  0  0  0  0  0  0  0  0  0  0  0
   -1.5000    0.0000    0.0000 C   0  0  0  0  0  0  0  0  0  0  0  0
   -0.7500   -1.2990    0.0000 N   0  0  0  0  0  0  0  0  0  0  0  0
    0.8899   -3.9684    0.0000 N   0  0  0  0  0  0  0  0  0  0  0  0
    2.0046   -4.9721    0.0000 C   0  0  0  0  0  0  0  0  0  0  0  0
    1.8478   -6.4639    0.0000 C   0  0  0  0  0  0  0  0  0  0  0  0
  1  2  1  0
  3  2  1  6
  3  4  1  0
  4  5  2  0
  4  6  1  0
  6  7  1  0
  7  8  2  0
  8  9  1  0
  9 10  2  0
 10 11  1  0
 10 12  1  0
 12 13  2  0
  6 14  1  0
 14 15  2  0
 15 16  1  0
 15  3  1  0
 13  7  1  0
M  END
>  <Compound_ID>  (396) 
C38004134

>  <Active>  (396) 
0

>  <Smiles>  (396) 
CC[C@H]1C(=O)N(c2ccc(N)cn2)N=C1C

>  <canonical_smi>  (396) 
CC[C@H]1C(=O)N(c2ccc(N)cn2)N=C1C

>  <Set>  (396) 
G2 inactive

>  <Set_type>  (396) 
Train

>  <MW>  (396) 
218.26

>  <HBD>  (396) 
1

>  <HBA>  (396) 
3

>  <NRB>  (396) 
2

>  <NR>  (396) 
2

>  <NAR>  (396) 
1

>  <PSA>  (396) 
71.58

>  <Standard Type>  (396) 
nan

>  <Standard Relation>  (396) 
nan

>  <Standard Units>  (396) 
nan

>  <Standard Value>  (396) 
nan

>  <Assay ChEMBL ID>  (396) 
nan

>  <Assay Description>  (396) 
nan

>  <BAO Label>  (396) 
nan

$$$$

     RDKit          2D

 15 16  0  0  0  0  0  0  0  0999 V2000
    5.7760   -2.5981    0.0000 C   0  0  0  0  0  0  0  0  0  0  0  0
    5.0260   -1.2990    0.0000 C   0  0  0  0  0  0  0  0  0  0  0  0
    5.7760    0.0000    0.0000 O   0  0  0  0  0  0  0  0  0  0  0  0
    3.5260   -1.2990    0.0000 N   0  0  0  0  0  0  0  0  0  0  0  0
    2.7760    0.0000    0.0000 N   0  0  0  0  0  0  0  0  0  0  0  0
    1.2760    0.0000    0.0000 C   0  0  0  0  0  0  0  0  0  0  0  0
    0.3943    1.2135    0.0000 N   0  0  0  0  0  0  0  0  0  0  0  0
   -1.0323    0.7500    0.0000 C   0  0  0  0  0  0  0  0  0  0  0  0
   -2.4589    1.2135    0.0000 C   0  0  0  0  0  0  0  0  0  0  0  0
   -3.3405    0.0000    0.0000 S   0  0  0  0  0  0  0  0  0  0  0  0
   -4.4553    1.0037    0.0000 O   0  0  0  0  0  0  0  0  0  0  0  0
   -4.4553   -1.0037    0.0000 O   0  0  0  0  0  0  0  0  0  0  0  0
   -2.4589   -1.2135    0.0000 C   0  0  0  0  0  0  0  0  0  0  0  0
   -1.0323   -0.7500    0.0000 C   0  0  0  0  0  0  0  0  0  0  0  0
    0.3943   -1.2135    0.0000 S   0  0  0  0  0  0  0  0  0  0  0  0
  1  2  1  0
  2  3  2  0
  2  4  1  0
  4  5  1  0
  5  6  1  0
  6  7  2  0
  7  8  1  0
  8  9  1  6
  9 10  1  0
 10 11  2  0
 10 12  2  0
 10 13  1  0
 14 13  1  6
 14 15  1  0
 15  6  1  0
 14  8  1  0
M  END
>  <Compound_ID>  (397) 
C05226402

>  <Active>  (397) 
0

>  <Smiles>  (397) 
CC(=O)NNC1=N[C@H]2CS(=O)(=O)C[C@H]2S1

>  <canonical_smi>  (397) 
CC(=O)NNC1=N[C@H]2CS(=O)(=O)C[C@H]2S1

>  <Set>  (397) 
G2 inactive

>  <Set_type>  (397) 
Train

>  <MW>  (397) 
249.32

>  <HBD>  (397) 
2

>  <HBA>  (397) 
5

>  <NRB>  (397) 
0

>  <NR>  (397) 
2

>  <NAR>  (397) 
0

>  <PSA>  (397) 
87.63

>  <Standard Type>  (397) 
nan

>  <Standard Relation>  (397) 
nan

>  <Standard Units>  (397) 
nan

>  <Standard Value>  (397) 
nan

>  <Assay ChEMBL ID>  (397) 
nan

>  <Assay Description>  (397) 
nan

>  <BAO Label>  (397) 
nan

$$$$

     RDKit          2D

 16 17  0  0  0  0  0  0  0  0999 V2000
    3.0000    0.0000    0.0000 C   0  0  0  0  0  0  0  0  0  0  0  0
    1.5000    0.0000    0.0000 N   0  0  0  0  0  0  0  0  0  0  0  0
    0.7500   -1.2990    0.0000 C   0  0  0  0  0  0  0  0  0  0  0  0
   -0.7500   -1.2990    0.0000 C   0  0  0  0  0  0  0  0  0  0  0  0
   -1.5000    0.0000    0.0000 N   0  0  0  0  0  0  0  0  0  0  0  0
   -0.7500    1.2990    0.0000 C   0  0  0  0  0  0  0  0  0  0  0  0
   -1.5000    2.5981    0.0000 N   0  0  0  0  0  0  0  0  0  0  0  0
   -2.9918    2.7549    0.0000 C   0  0  0  0  0  0  0  0  0  0  0  0
   -3.3037    4.2221    0.0000 N   0  0  0  0  0  0  0  0  0  0  0  0
   -2.0046    4.9721    0.0000 C   0  0  0  0  0  0  0  0  0  0  0  0
   -1.8478    6.4639    0.0000 C   0  0  0  0  0  0  0  0  0  0  0  0
   -0.4775    7.0740    0.0000 N   0  0  0  0  0  0  0  0  0  0  0  0
   -3.0613    7.3456    0.0000 S   0  0  0  0  0  0  0  0  0  0  0  0
   -0.8899    3.9684    0.0000 N   0  0  0  0  0  0  0  0  0  0  0  0
    0.7500    1.2990    0.0000 C   0  0  0  0  0  0  0  0  0  0  0  0
    1.5000    2.5981    0.0000 O   0  0  0  0  0  0  0  0  0  0  0  0
  1  2  1  0
  2  3  1  0
  3  4  2  0
  4  5  1  0
  5  6  2  0
  6  7  1  0
  7  8  1  0
  8  9  2  0
  9 10  1  0
 10 11  1  0
 11 12  1  0
 11 13  2  0
 10 14  2  0
  6 15  1  0
 15 16  2  0
 15  2  1  0
 14  7  1  0
M  END
>  <Compound_ID>  (398) 
C61843580

>  <Active>  (398) 
0

>  <Smiles>  (398) 
Cn1ccnc(-n2cnc(C(N)=S)n2)c1=O

>  <canonical_smi>  (398) 
Cn1ccnc(-n2cnc(C(N)=S)n2)c1=O

>  <Set>  (398) 
G2 inactive

>  <Set_type>  (398) 
Train

>  <MW>  (398) 
236.26

>  <HBD>  (398) 
1

>  <HBA>  (398) 
6

>  <NRB>  (398) 
2

>  <NR>  (398) 
2

>  <NAR>  (398) 
2

>  <PSA>  (398) 
91.62

>  <Standard Type>  (398) 
nan

>  <Standard Relation>  (398) 
nan

>  <Standard Units>  (398) 
nan

>  <Standard Value>  (398) 
nan

>  <Assay ChEMBL ID>  (398) 
nan

>  <Assay Description>  (398) 
nan

>  <BAO Label>  (398) 
nan

$$$$

     RDKit          2D

 32 36  0  0  0  0  0  0  0  0999 V2000
    3.9713   -6.1256    0.0000 C   0  0  0  0  0  0  0  0  0  0  0  0
    2.4787   -6.2750    0.0000 C   0  0  0  0  0  0  0  0  0  0  0  0
    2.8850   -7.7189    0.0000 C   0  0  0  0  0  0  0  0  0  0  0  0
    1.1273   -6.9258    0.0000 C   0  0  0  0  0  0  0  0  0  0  0  0
   -0.1121   -6.0808    0.0000 C   0  0  0  0  0  0  0  0  0  0  0  0
   -1.4635   -6.7316    0.0000 O   0  0  0  0  0  0  0  0  0  0  0  0
    0.0000   -4.5850    0.0000 C   0  0  0  0  0  0  0  0  0  0  0  0
    1.3515   -3.9342    0.0000 C   0  0  0  0  0  0  0  0  0  0  0  0
    2.5908   -4.7792    0.0000 C   0  0  0  0  0  0  0  0  0  0  0  0
    1.6852   -2.4718    0.0000 N   0  0  0  0  0  0  0  0  0  0  0  0
    0.7500   -1.2990    0.0000 C   0  0  0  0  0  0  0  0  0  0  0  0
    1.5000    0.0000    0.0000 C   0  0  0  0  0  0  0  0  0  0  0  0
    0.7500    1.2990    0.0000 C   0  0  0  0  0  0  0  0  0  0  0  0
   -0.7500    1.2990    0.0000 C   0  0  0  0  0  0  0  0  0  0  0  0
   -1.5000    0.0000    0.0000 C   0  0  0  0  0  0  0  0  0  0  0  0
   -0.7500   -1.2990    0.0000 C   0  0  0  0  0  0  0  0  0  0  0  0
   -1.6852   -2.4718    0.0000 N   0  0  0  0  0  0  0  0  0  0  0  0
   -3.1476   -2.1380    0.0000 S   0  0  0  0  0  0  0  0  0  0  0  0
   -3.4814   -3.6004    0.0000 O   0  0  0  0  0  0  0  0  0  0  0  0
   -2.8138   -0.6756    0.0000 O   0  0  0  0  0  0  0  0  0  0  0  0
   -4.6100   -1.8042    0.0000 C   0  0  0  0  0  0  0  0  0  0  0  0
   -5.0522   -0.3709    0.0000 C   0  0  0  0  0  0  0  0  0  0  0  0
   -6.5145   -0.0371    0.0000 C   0  0  0  0  0  0  0  0  0  0  0  0
   -7.5348   -1.1367    0.0000 C   0  0  0  0  0  0  0  0  0  0  0  0
   -7.0927   -2.5700    0.0000 C   0  0  0  0  0  0  0  0  0  0  0  0
   -5.6303   -2.9038    0.0000 C   0  0  0  0  0  0  0  0  0  0  0  0
   -1.3515   -3.9342    0.0000 C   0  0  0  0  0  0  0  0  0  0  0  0
   -2.5242   -4.8694    0.0000 C   0  0  0  0  0  0  0  0  0  0  0  0
   -2.4569   -6.3679    0.0000 C   0  0  0  0  0  0  0  0  0  0  0  0
   -3.8613   -6.8950    0.0000 C   0  0  0  0  0  0  0  0  0  0  0  0
   -4.7965   -5.7222    0.0000 C   0  0  0  0  0  0  0  0  0  0  0  0
   -3.9701   -4.4704    0.0000 O   0  0  0  0  0  0  0  0  0  0  0  0
  1  2  1  0
  2  3  1  0
  2  4  1  0
  4  5  1  0
  5  6  2  0
  5  7  1  0
  7  8  2  0
  8  9  1  0
  8 10  1  0
 10 11  1  0
 11 12  2  0
 12 13  1  0
 13 14  2  0
 14 15  1  0
 15 16  2  0
 16 17  1  0
 17 18  1  0
 18 19  2  0
 18 20  2  0
 18 21  1  0
 21 22  2  0
 22 23  1  0
 23 24  2  0
 24 25  1  0
 25 26  2  0
 17 27  1  0
 27 28  1  1
 28 29  2  0
 29 30  1  0
 30 31  2  0
 31 32  1  0
  9  2  1  0
 16 11  1  0
 26 21  1  0
 32 28  1  0
 27  7  1  0
M  END
>  <Compound_ID>  (399) 
C21722795

>  <Active>  (399) 
0

>  <Smiles>  (399) 
CC1(C)CC(=O)C2=C(C1)Nc1ccccc1N(S(=O)(=O)c1ccccc1)[C@@H]2c1ccco1

>  <canonical_smi>  (399) 
CC1(C)CC(=O)C2=C(C1)Nc1ccccc1N(S(=O)(=O)c1ccccc1)[C@@H]2c1ccco1

>  <Set>  (399) 
G2 inactive

>  <Set_type>  (399) 
Train

>  <MW>  (399) 
448.54

>  <HBD>  (399) 
1

>  <HBA>  (399) 
5

>  <NRB>  (399) 
3

>  <NR>  (399) 
5

>  <NAR>  (399) 
3

>  <PSA>  (399) 
79.62

>  <Standard Type>  (399) 
nan

>  <Standard Relation>  (399) 
nan

>  <Standard Units>  (399) 
nan

>  <Standard Value>  (399) 
nan

>  <Assay ChEMBL ID>  (399) 
nan

>  <Assay Description>  (399) 
nan

>  <BAO Label>  (399) 
nan

$$$$

     RDKit          2D

 25 27  0  0  0  0  0  0  0  0999 V2000
    6.0818    5.7569    0.0000 C   0  0  0  0  0  0  0  0  0  0  0  0
    4.8683    4.8752    0.0000 C   0  0  0  0  0  0  0  0  0  0  0  0
    3.4979    5.4853    0.0000 S   0  0  0  0  0  0  0  0  0  0  0  0
    2.2844    4.6036    0.0000 C   0  0  0  0  0  0  0  0  0  0  0  0
    0.8578    5.0672    0.0000 N   0  0  0  0  0  0  0  0  0  0  0  0
   -0.0239    3.8536    0.0000 N   0  0  0  0  0  0  0  0  0  0  0  0
    0.8578    2.6401    0.0000 C   0  0  0  0  0  0  0  0  0  0  0  0
    0.3943    1.2135    0.0000 N   0  0  0  0  0  0  0  0  0  0  0  0
    1.2760    0.0000    0.0000 C   0  0  0  0  0  0  0  0  0  0  0  0
    2.7760    0.0000    0.0000 O   0  0  0  0  0  0  0  0  0  0  0  0
    0.3943   -1.2135    0.0000 C   0  0  0  0  0  0  0  0  0  0  0  0
    0.7062   -2.6807    0.0000 C   0  0  0  0  0  0  0  0  0  0  0  0
    2.1328   -3.1443    0.0000 Cl  0  0  0  0  0  0  0  0  0  0  0  0
   -0.4086   -3.6844    0.0000 C   0  0  0  0  0  0  0  0  0  0  0  0
   -0.0967   -5.1517    0.0000 Cl  0  0  0  0  0  0  0  0  0  0  0  0
   -1.8351   -3.2209    0.0000 C   0  0  0  0  0  0  0  0  0  0  0  0
   -2.9499   -4.2246    0.0000 Cl  0  0  0  0  0  0  0  0  0  0  0  0
   -2.1470   -1.7537    0.0000 C   0  0  0  0  0  0  0  0  0  0  0  0
   -3.5736   -1.2902    0.0000 Cl  0  0  0  0  0  0  0  0  0  0  0  0
   -1.0323   -0.7500    0.0000 C   0  0  0  0  0  0  0  0  0  0  0  0
   -1.0323    0.7500    0.0000 C   0  0  0  0  0  0  0  0  0  0  0  0
   -2.2458    1.6317    0.0000 O   0  0  0  0  0  0  0  0  0  0  0  0
    2.2844    3.1036    0.0000 C   0  0  0  0  0  0  0  0  0  0  0  0
    3.4979    2.2220    0.0000 C   0  0  0  0  0  0  0  0  0  0  0  0
    4.7115    1.3403    0.0000 N   0  0  0  0  0  0  0  0  0  0  0  0
  1  2  1  0
  2  3  1  0
  3  4  1  0
  4  5  2  0
  5  6  1  0
  6  7  1  0
  7  8  1  0
  8  9  1  0
  9 10  2  0
  9 11  1  0
 11 12  2  0
 12 13  1  0
 12 14  1  0
 14 15  1  0
 14 16  2  0
 16 17  1  0
 16 18  1  0
 18 19  1  0
 18 20  2  0
 20 21  1  0
 21 22  2  0
  7 23  2  0
 23 24  1  0
 24 25  3  0
 23  4  1  0
 21  8  1  0
 20 11  1  0
M  END
>  <Compound_ID>  (400) 
C08847609

>  <Active>  (400) 
0

>  <Smiles>  (400) 
CCSc1n[nH]c(N2C(=O)c3c(Cl)c(Cl)c(Cl)c(Cl)c3C2=O)c1C#N

>  <canonical_smi>  (400) 
CCSc1n[nH]c(N2C(=O)c3c(Cl)c(Cl)c(Cl)c(Cl)c3C2=O)c1C#N

>  <Set>  (400) 
G2 inactive

>  <Set_type>  (400) 
Train

>  <MW>  (400) 
436.11

>  <HBD>  (400) 
1

>  <HBA>  (400) 
5

>  <NRB>  (400) 
3

>  <NR>  (400) 
3

>  <NAR>  (400) 
2

>  <PSA>  (400) 
89.85

>  <Standard Type>  (400) 
nan

>  <Standard Relation>  (400) 
nan

>  <Standard Units>  (400) 
nan

>  <Standard Value>  (400) 
nan

>  <Assay ChEMBL ID>  (400) 
nan

>  <Assay Description>  (400) 
nan

>  <BAO Label>  (400) 
nan

$$$$

     RDKit          2D

 31 36  0  0  0  0  0  0  0  0999 V2000
    5.3507   -2.2911    0.0000 N   0  0  0  0  0  0  0  0  0  0  0  0
    3.8554   -2.4087    0.0000 C   0  0  0  0  0  0  0  0  0  0  0  0
    2.3600   -2.5264    0.0000 C   0  0  0  0  0  0  0  0  0  0  0  0
    1.5762   -3.8054    0.0000 C   0  0  0  0  0  0  0  0  0  0  0  0
    2.1503   -5.1912    0.0000 N   0  0  0  0  0  0  0  0  0  0  0  0
    1.2371   -6.3812    0.0000 C   0  0  0  0  0  0  0  0  0  0  0  0
   -0.2500   -6.1854    0.0000 O   0  0  0  0  0  0  0  0  0  0  0  0
    1.8112   -7.7671    0.0000 C   0  0  0  0  0  0  0  0  0  0  0  0
    0.8980   -8.9571    0.0000 C   0  0  0  0  0  0  0  0  0  0  0  0
    1.4720  -10.3429    0.0000 C   0  0  0  0  0  0  0  0  0  0  0  0
    2.9592  -10.5387    0.0000 C   0  0  0  0  0  0  0  0  0  0  0  0
    3.8723   -9.3487    0.0000 C   0  0  0  0  0  0  0  0  0  0  0  0
    3.2983   -7.9628    0.0000 C   0  0  0  0  0  0  0  0  0  0  0  0
    0.7967   -8.1873    0.0000 C   0  0  0  0  0  0  0  0  0  0  0  0
   -0.5892   -8.7613    0.0000 C   0  0  0  0  0  0  0  0  0  0  0  0
   -2.0763   -8.5655    0.0000 N   0  0  0  0  0  0  0  0  0  0  0  0
   -3.1089   -9.6536    0.0000 C   0  0  0  0  0  0  0  0  0  0  0  0
   -4.4627   -9.0078    0.0000 N   0  0  0  0  0  0  0  0  0  0  0  0
   -4.2669   -7.5206    0.0000 C   0  0  0  0  0  0  0  0  0  0  0  0
   -2.7921   -7.2473    0.0000 N   0  0  0  0  0  0  0  0  0  0  0  0
   -0.0151  -10.1471    0.0000 C   0  0  0  0  0  0  0  0  0  0  0  0
    0.3240   -7.5713    0.0000 C   0  0  0  0  0  0  0  0  0  0  0  0
    0.1177   -3.4552    0.0000 S   0  0  0  0  0  0  0  0  0  0  0  0
   -0.0000   -1.9598    0.0000 C   0  0  0  0  0  0  0  0  0  0  0  0
    1.3858   -1.3858    0.0000 C   0  0  0  0  0  0  0  0  0  0  0  0
    1.9598    0.0000    0.0000 C   0  0  0  0  0  0  0  0  0  0  0  0
    1.3858    1.3858    0.0000 C   0  0  0  0  0  0  0  0  0  0  0  0
    0.0000    1.9598    0.0000 C   0  0  0  0  0  0  0  0  0  0  0  0
   -1.3858    1.3858    0.0000 C   0  0  0  0  0  0  0  0  0  0  0  0
   -1.9598    0.0000    0.0000 C   0  0  0  0  0  0  0  0  0  0  0  0
   -1.3858   -1.3858    0.0000 C   0  0  0  0  0  0  0  0  0  0  0  0
  1  2  3  0
  2  3  1  0
  3  4  2  0
  4  5  1  0
  5  6  1  0
  6  7  2  0
  6  8  1  0
  8  9  1  0
 10  9  1  6
 10 11  1  0
 12 11  1  6
 12 13  1  0
 12 14  1  0
 14 15  1  0
 15 16  1  0
 16 17  1  0
 17 18  2  0
 18 19  1  0
 19 20  2  0
 15 21  1  0
 15 22  1  0
  4 23  1  0
 23 24  1  0
 24 25  2  0
 25 26  1  0
 26 27  1  0
 27 28  1  0
 28 29  1  0
 29 30  1  0
 30 31  1  0
 25  3  1  0
 13  8  1  0
 20 16  1  0
 31 24  1  0
 22  8  1  0
 21 10  1  0
M  END
>  <Compound_ID>  (401) 
C27489340

>  <Active>  (401) 
0

>  <Smiles>  (401) 
N#Cc1c(NC(=O)C23C[C@H]4C[C@@H](C2)CC(n2cncn2)(C4)C3)sc2c1CCCCCC2

>  <canonical_smi>  (401) 
N#Cc1c(NC(=O)C23C[C@@H]4C[C@H](C2)CC(n2cncn2)(C4)C3)sc2c1CCCCCC2

>  <Set>  (401) 
G2 inactive

>  <Set_type>  (401) 
Train

>  <MW>  (401) 
435.6

>  <HBD>  (401) 
1

>  <HBA>  (401) 
4

>  <NRB>  (401) 
3

>  <NR>  (401) 
7

>  <NAR>  (401) 
2

>  <PSA>  (401) 
83.6

>  <Standard Type>  (401) 
nan

>  <Standard Relation>  (401) 
nan

>  <Standard Units>  (401) 
nan

>  <Standard Value>  (401) 
nan

>  <Assay ChEMBL ID>  (401) 
nan

>  <Assay Description>  (401) 
nan

>  <BAO Label>  (401) 
nan

$$$$

     RDKit          2D

 32 37  0  0  0  0  0  0  0  0999 V2000
    3.0000  -10.3923    0.0000 C   0  0  0  0  0  0  0  0  0  0  0  0
    3.7500   -9.0933    0.0000 C   0  0  0  0  0  0  0  0  0  0  0  0
    5.2500   -9.0933    0.0000 C   0  0  0  0  0  0  0  0  0  0  0  0
    3.0000   -7.7942    0.0000 C   0  0  0  0  0  0  0  0  0  0  0  0
    3.7500   -6.4952    0.0000 C   0  0  0  0  0  0  0  0  0  0  0  0
    3.0000   -5.1962    0.0000 C   0  0  0  0  0  0  0  0  0  0  0  0
    1.5000   -5.1962    0.0000 C   0  0  0  0  0  0  0  0  0  0  0  0
    0.7500   -3.8971    0.0000 C   0  0  0  0  0  0  0  0  0  0  0  0
    1.5000   -2.5981    0.0000 O   0  0  0  0  0  0  0  0  0  0  0  0
    0.7500   -1.2990    0.0000 C   0  0  0  0  0  0  0  0  0  0  0  0
    1.5000    0.0000    0.0000 C   0  0  0  0  0  0  0  0  0  0  0  0
    0.7500    1.2990    0.0000 C   0  0  0  0  0  0  0  0  0  0  0  0
   -0.7500    1.2990    0.0000 C   0  0  0  0  0  0  0  0  0  0  0  0
   -1.5000    0.0000    0.0000 C   0  0  0  0  0  0  0  0  0  0  0  0
   -0.7500   -1.2990    0.0000 C   0  0  0  0  0  0  0  0  0  0  0  0
   -1.5000   -2.5981    0.0000 C   0  0  0  0  0  0  0  0  0  0  0  0
   -0.7500   -3.8971    0.0000 C   0  0  0  0  0  0  0  0  0  0  0  0
   -1.5000   -5.1962    0.0000 C   0  0  0  0  0  0  0  0  0  0  0  0
   -0.7500   -6.4952    0.0000 C   0  0  0  0  0  0  0  0  0  0  0  0
   -1.5000   -7.7942    0.0000 C   0  0  0  0  0  0  0  0  0  0  0  0
   -0.7500   -9.0933    0.0000 C   0  0  0  0  0  0  0  0  0  0  0  0
    0.7500   -9.0933    0.0000 C   0  0  0  0  0  0  0  0  0  0  0  0
    1.5000   -7.7942    0.0000 N   0  0  0  0  0  0  0  0  0  0  0  0
    0.7500   -6.4952    0.0000 C   0  0  0  0  0  0  0  0  0  0  0  0
   -3.0000   -5.1962    0.0000 N   0  0  0  0  0  0  0  0  0  0  0  0
   -4.0037   -6.3109    0.0000 N   0  0  0  0  0  0  0  0  0  0  0  0
   -5.3740   -5.7008    0.0000 C   0  0  0  0  0  0  0  0  0  0  0  0
   -5.2172   -4.2090    0.0000 N   0  0  0  0  0  0  0  0  0  0  0  0
   -3.7500   -3.8971    0.0000 C   0  0  0  0  0  0  0  0  0  0  0  0
   -3.0000   -2.5981    0.0000 N   0  0  0  0  0  0  0  0  0  0  0  0
    0.7500   -6.4952    0.0000 C   0  0  0  0  0  0  0  0  0  0  0  0
    1.5000   -7.7942    0.0000 C   0  0  0  0  0  0  0  0  0  0  0  0
  1  2  1  0
  2  3  1  0
  2  4  1  0
  4  5  2  0
  5  6  1  0
  6  7  2  0
  8  7  1  6
  8  9  1  0
  9 10  1  0
 10 11  2  0
 11 12  1  0
 12 13  2  0
 13 14  1  0
 14 15  2  0
 15 16  1  0
 16 17  2  0
 17 18  1  0
 18 19  1  6
 19 20  2  0
 20 21  1  0
 21 22  2  0
 22 23  1  0
 23 24  2  0
 18 25  1  0
 25 26  1  0
 26 27  2  0
 27 28  1  0
 28 29  1  0
 29 30  2  0
  7 31  1  0
 31 32  2  0
 32  4  1  0
 17  8  1  0
 24 19  1  0
 29 25  1  0
 15 10  1  0
 30 16  1  0
M  END
>  <Compound_ID>  (402) 
C13213824

>  <Active>  (402) 
0

>  <Smiles>  (402) 
CC(C)c1ccc([C@H]2Oc3ccccc3C3=C2[C@H](c2cccnc2)N2N=CNC2=N3)cc1

>  <canonical_smi>  (402) 
CC(C)c1ccc([C@H]2Oc3ccccc3C3=C2[C@H](c2cccnc2)N2N=CNC2=N3)cc1

>  <Set>  (402) 
G2 inactive

>  <Set_type>  (402) 
Train

>  <MW>  (402) 
421.5

>  <HBD>  (402) 
1

>  <HBA>  (402) 
4

>  <NRB>  (402) 
3

>  <NR>  (402) 
6

>  <NAR>  (402) 
3

>  <PSA>  (402) 
62.11

>  <Standard Type>  (402) 
nan

>  <Standard Relation>  (402) 
nan

>  <Standard Units>  (402) 
nan

>  <Standard Value>  (402) 
nan

>  <Assay ChEMBL ID>  (402) 
nan

>  <Assay Description>  (402) 
nan

>  <BAO Label>  (402) 
nan

$$$$

     RDKit          2D

 25 28  0  0  0  0  0  0  0  0999 V2000
   -3.0000   -2.5981    0.0000 O   0  0  0  0  0  0  0  0  0  0  0  0
   -1.5000   -2.5981    0.0000 C   0  0  0  0  0  0  0  0  0  0  0  0
   -0.7500   -3.8971    0.0000 C   0  0  0  0  0  0  0  0  0  0  0  0
    0.7500   -3.8971    0.0000 C   0  0  0  0  0  0  0  0  0  0  0  0
    1.5000   -5.1962    0.0000 N   0  0  0  0  0  0  0  0  0  0  0  0
    0.7500   -6.4952    0.0000 C   0  0  0  0  0  0  0  0  0  0  0  0
    1.5000   -7.7942    0.0000 C   0  0  0  0  0  0  0  0  0  0  0  0
    2.9918   -7.9510    0.0000 C   0  0  0  0  0  0  0  0  0  0  0  0
    3.3037   -9.4182    0.0000 C   0  0  0  0  0  0  0  0  0  0  0  0
    2.0046  -10.1682    0.0000 C   0  0  0  0  0  0  0  0  0  0  0  0
    1.8478  -11.6600    0.0000 C   0  0  0  0  0  0  0  0  0  0  0  0
    0.4775  -12.2701    0.0000 C   0  0  0  0  0  0  0  0  0  0  0  0
    0.3207  -13.7619    0.0000 C   0  0  0  0  0  0  0  0  0  0  0  0
    1.5342  -14.6436    0.0000 C   0  0  0  0  0  0  0  0  0  0  0  0
    1.3774  -16.1354    0.0000 Cl  0  0  0  0  0  0  0  0  0  0  0  0
    2.9046  -14.0335    0.0000 C   0  0  0  0  0  0  0  0  0  0  0  0
    3.0613  -12.5417    0.0000 C   0  0  0  0  0  0  0  0  0  0  0  0
    0.8899   -9.1645    0.0000 O   0  0  0  0  0  0  0  0  0  0  0  0
    1.5000   -2.5981    0.0000 N   0  0  0  0  0  0  0  0  0  0  0  0
    0.7500   -1.2990    0.0000 C   0  0  0  0  0  0  0  0  0  0  0  0
    1.5000    0.0000    0.0000 C   0  0  0  0  0  0  0  0  0  0  0  0
    0.7500    1.2990    0.0000 C   0  0  0  0  0  0  0  0  0  0  0  0
   -0.7500    1.2990    0.0000 C   0  0  0  0  0  0  0  0  0  0  0  0
   -1.5000    0.0000    0.0000 C   0  0  0  0  0  0  0  0  0  0  0  0
   -0.7500   -1.2990    0.0000 N   0  0  0  0  0  0  0  0  0  0  0  0
  1  2  2  0
  2  3  1  0
  3  4  2  0
  4  5  1  0
  5  6  1  0
  6  7  1  0
  7  8  2  0
  8  9  1  0
  9 10  2  0
 10 11  1  0
 11 12  2  0
 12 13  1  0
 13 14  2  0
 14 15  1  0
 14 16  1  0
 16 17  2  0
 10 18  1  0
  4 19  1  0
 19 20  2  0
 20 21  1  0
 21 22  2  0
 22 23  1  0
 23 24  2  0
 24 25  1  0
 25  2  1  0
 18  7  1  0
 25 20  1  0
 17 11  1  0
M  END
>  <Compound_ID>  (403) 
C10993562

>  <Active>  (403) 
0

>  <Smiles>  (403) 
O=c1cc(NCc2ccc(-c3ccc(Cl)cc3)o2)nc2ccccn12

>  <canonical_smi>  (403) 
O=c1cc(NCc2ccc(-c3ccc(Cl)cc3)o2)nc2ccccn12

>  <Set>  (403) 
G2 inactive

>  <Set_type>  (403) 
Train

>  <MW>  (403) 
351.79

>  <HBD>  (403) 
1

>  <HBA>  (403) 
4

>  <NRB>  (403) 
4

>  <NR>  (403) 
4

>  <NAR>  (403) 
4

>  <PSA>  (403) 
59.54

>  <Standard Type>  (403) 
nan

>  <Standard Relation>  (403) 
nan

>  <Standard Units>  (403) 
nan

>  <Standard Value>  (403) 
nan

>  <Assay ChEMBL ID>  (403) 
nan

>  <Assay Description>  (403) 
nan

>  <BAO Label>  (403) 
nan

$$$$

     RDKit          2D

 25 28  0  0  0  0  0  0  0  0999 V2000
   -3.7527    6.6955    0.0000 C   0  0  0  0  0  0  0  0  0  0  0  0
   -2.6380    5.6918    0.0000 O   0  0  0  0  0  0  0  0  0  0  0  0
   -2.9499    4.2246    0.0000 C   0  0  0  0  0  0  0  0  0  0  0  0
   -4.3764    3.7611    0.0000 C   0  0  0  0  0  0  0  0  0  0  0  0
   -4.6883    2.2939    0.0000 C   0  0  0  0  0  0  0  0  0  0  0  0
   -3.5736    1.2902    0.0000 C   0  0  0  0  0  0  0  0  0  0  0  0
   -3.8855   -0.1771    0.0000 N   0  0  0  0  0  4  0  0  0  0  0  0
   -2.7707   -1.1807    0.0000 O   0  0  0  0  0  0  0  0  0  0  0  0
   -5.3120   -0.6406    0.0000 O   0  0  0  0  0  1  0  0  0  0  0  0
   -2.1470    1.7537    0.0000 C   0  0  0  0  0  0  0  0  0  0  0  0
   -1.8351    3.2209    0.0000 C   0  0  0  0  0  0  0  0  0  0  0  0
   -0.4086    3.6844    0.0000 N   0  0  0  0  0  0  0  0  0  0  0  0
    0.7062    2.6807    0.0000 C   0  0  0  0  0  0  0  0  0  0  0  0
    2.1328    3.1443    0.0000 C   0  0  0  0  0  0  0  0  0  0  0  0
    3.2475    2.1406    0.0000 C   0  0  0  0  0  0  0  0  0  0  0  0
    4.6741    2.6041    0.0000 C   0  0  0  0  0  0  0  0  0  0  0  0
    4.9859    4.0713    0.0000 C   0  0  0  0  0  0  0  0  0  0  0  0
    3.8712    5.0750    0.0000 C   0  0  0  0  0  0  0  0  0  0  0  0
    2.4446    4.6115    0.0000 C   0  0  0  0  0  0  0  0  0  0  0  0
    1.3299    5.6152    0.0000 Cl  0  0  0  0  0  0  0  0  0  0  0  0
    0.3943    1.2135    0.0000 C   0  0  0  0  0  0  0  0  0  0  0  0
    1.2760    0.0000    0.0000 C   0  0  0  0  0  0  0  0  0  0  0  0
    0.3943   -1.2135    0.0000 C   0  0  0  0  0  0  0  0  0  0  0  0
   -1.0323   -0.7500    0.0000 C   0  0  0  0  0  0  0  0  0  0  0  0
   -1.0323    0.7500    0.0000 C   0  0  0  0  0  0  0  0  0  0  0  0
  1  2  1  0
  2  3  1  0
  3  4  2  0
  4  5  1  0
  5  6  2  0
  6  7  1  0
  7  8  2  0
  7  9  1  0
  6 10  1  0
 10 11  2  0
 11 12  1  0
 12 13  1  0
 13 14  1  6
 14 15  2  0
 15 16  1  0
 16 17  2  0
 17 18  1  0
 18 19  2  0
 19 20  1  0
 13 21  1  0
 21 22  1  1
 22 23  1  0
 23 24  2  0
 25 24  1  1
 11  3  1  0
 19 14  1  0
 25 21  1  0
 25 10  1  0
M  CHG  2   7   1   9  -1
M  END
>  <Compound_ID>  (404) 
C20700215

>  <Active>  (404) 
0

>  <Smiles>  (404) 
COc1ccc([N+](=O)[O-])c2c1N[C@H](c1ccccc1Cl)[C@H]1CC=C[C@@H]21

>  <canonical_smi>  (404) 
COc1ccc([N+](=O)[O-])c2c1N[C@H](c1ccccc1Cl)[C@H]1CC=C[C@@H]21

>  <Set>  (404) 
G2 inactive

>  <Set_type>  (404) 
Train

>  <MW>  (404) 
356.81

>  <HBD>  (404) 
1

>  <HBA>  (404) 
4

>  <NRB>  (404) 
3

>  <NR>  (404) 
4

>  <NAR>  (404) 
2

>  <PSA>  (404) 
64.4

>  <Standard Type>  (404) 
nan

>  <Standard Relation>  (404) 
nan

>  <Standard Units>  (404) 
nan

>  <Standard Value>  (404) 
nan

>  <Assay ChEMBL ID>  (404) 
nan

>  <Assay Description>  (404) 
nan

>  <BAO Label>  (404) 
nan

$$$$

     RDKit          2D

 24 26  0  0  0  0  0  0  0  0999 V2000
    5.2500   -1.2990    0.0000 C   0  0  0  0  0  0  0  0  0  0  0  0
    3.7500   -1.2990    0.0000 C   0  0  0  0  0  0  0  0  0  0  0  0
    3.0000    0.0000    0.0000 C   0  0  0  0  0  0  0  0  0  0  0  0
    1.5000    0.0000    0.0000 C   0  0  0  0  0  0  0  0  0  0  0  0
    0.7500   -1.2990    0.0000 C   0  0  0  0  0  0  0  0  0  0  0  0
   -0.7500   -1.2990    0.0000 C   0  0  0  0  0  0  0  0  0  0  0  0
   -1.5000    0.0000    0.0000 C   0  0  0  0  0  0  0  0  0  0  0  0
   -0.7500    1.2990    0.0000 C   0  0  0  0  0  0  0  0  0  0  0  0
   -1.5000    2.5981    0.0000 C   0  0  0  0  0  0  0  0  0  0  0  0
    0.7500    1.2990    0.0000 N   0  0  0  0  0  0  0  0  0  0  0  0
    1.5000    2.5981    0.0000 C   0  0  0  0  0  0  0  0  0  0  0  0
    0.7500    3.8971    0.0000 O   0  0  0  0  0  0  0  0  0  0  0  0
    3.0000    2.5981    0.0000 C   0  0  0  0  0  0  0  0  0  0  0  0
    3.8817    3.8116    0.0000 C   0  0  0  0  0  0  0  0  0  0  0  0
    5.3083    3.3481    0.0000 C   0  0  0  0  0  0  0  0  0  0  0  0
    5.3083    1.8481    0.0000 C   0  0  0  0  0  0  0  0  0  0  0  0
    6.5218    0.9664    0.0000 C   0  0  0  0  0  0  0  0  0  0  0  0
    7.8921    1.5765    0.0000 S   0  0  0  0  0  0  0  0  0  0  0  0
    9.1056    0.6948    0.0000 C   0  0  0  0  0  0  0  0  0  0  0  0
   10.5322    1.1584    0.0000 N   0  0  0  0  0  0  0  0  0  0  0  0
   11.4139   -0.0552    0.0000 C   0  0  0  0  0  0  0  0  0  0  0  0
   10.5322   -1.2687    0.0000 N   0  0  0  0  0  0  0  0  0  0  0  0
    9.1056   -0.8052    0.0000 N   0  0  0  0  0  0  0  0  0  0  0  0
    3.8817    1.3846    0.0000 O   0  0  0  0  0  0  0  0  0  0  0  0
  1  2  2  0
  2  3  1  0
  4  3  1  6
  4  5  1  0
  5  6  1  0
  6  7  2  0
  7  8  1  0
  8  9  1  1
  8 10  1  0
 10 11  1  0
 11 12  2  0
 11 13  1  0
 13 14  2  0
 14 15  1  0
 15 16  2  0
 16 17  1  0
 17 18  1  0
 18 19  1  0
 19 20  2  0
 20 21  1  0
 21 22  2  0
 22 23  1  0
 16 24  1  0
 10  4  1  0
 24 13  1  0
 23 19  1  0
M  END
>  <Compound_ID>  (405) 
C55183113

>  <Active>  (405) 
0

>  <Smiles>  (405) 
C=CC[C@@H]1CC=C[C@@H](C)N1C(=O)c1ccc(CSc2ncn[nH]2)o1

>  <canonical_smi>  (405) 
C=CC[C@@H]1CC=C[C@@H](C)N1C(=O)c1ccc(CSc2ncn[nH]2)o1

>  <Set>  (405) 
G2 inactive

>  <Set_type>  (405) 
Train

>  <MW>  (405) 
344.44

>  <HBD>  (405) 
1

>  <HBA>  (405) 
5

>  <NRB>  (405) 
6

>  <NR>  (405) 
3

>  <NAR>  (405) 
2

>  <PSA>  (405) 
75.02

>  <Standard Type>  (405) 
nan

>  <Standard Relation>  (405) 
nan

>  <Standard Units>  (405) 
nan

>  <Standard Value>  (405) 
nan

>  <Assay ChEMBL ID>  (405) 
nan

>  <Assay Description>  (405) 
nan

>  <BAO Label>  (405) 
nan

$$$$

     RDKit          2D

 25 27  0  0  0  0  0  0  0  0999 V2000
    3.7500   -1.2990    0.0000 C   0  0  0  0  0  0  0  0  0  0  0  0
    3.0000    0.0000    0.0000 N   0  0  0  0  0  0  0  0  0  0  0  0
    3.7500    1.2990    0.0000 C   0  0  0  0  0  0  0  0  0  0  0  0
    1.5000    0.0000    0.0000 C   0  0  0  0  0  0  0  0  0  0  0  0
    0.7500   -1.2990    0.0000 C   0  0  0  0  0  0  0  0  0  0  0  0
   -0.7500   -1.2990    0.0000 C   0  0  0  0  0  0  0  0  0  0  0  0
   -1.5000    0.0000    0.0000 C   0  0  0  0  0  0  0  0  0  0  0  0
   -3.0000    0.0000    0.0000 C   0  0  0  0  0  0  0  0  0  0  0  0
   -3.7500    1.2990    0.0000 N   0  0  0  0  0  0  0  0  0  0  0  0
   -5.2418    1.4558    0.0000 N   0  0  0  0  0  0  0  0  0  0  0  0
   -5.5537    2.9231    0.0000 C   0  0  0  0  0  0  0  0  0  0  0  0
   -4.2546    3.6731    0.0000 C   0  0  0  0  0  0  0  0  0  0  0  0
   -3.1399    2.6694    0.0000 C   0  0  0  0  0  0  0  0  0  0  0  0
   -1.6727    2.9812    0.0000 N   0  0  0  0  0  0  0  0  0  0  0  0
   -1.2091    4.4078    0.0000 C   0  0  0  0  0  0  0  0  0  0  0  0
   -2.2128    5.5225    0.0000 O   0  0  0  0  0  0  0  0  0  0  0  0
    0.2581    4.7197    0.0000 C   0  0  0  0  0  0  0  0  0  0  0  0
    0.7216    6.1463    0.0000 C   0  0  0  0  0  0  0  0  0  0  0  0
    2.1888    6.4581    0.0000 C   0  0  0  0  0  0  0  0  0  0  0  0
    2.7989    7.8284    0.0000 N   0  0  0  0  0  0  0  0  0  0  0  0
    4.2907    7.6717    0.0000 C   0  0  0  0  0  0  0  0  0  0  0  0
    4.6026    6.2044    0.0000 C   0  0  0  0  0  0  0  0  0  0  0  0
    3.3035    5.4544    0.0000 S   0  0  0  0  0  0  0  0  0  0  0  0
   -0.7500    1.2990    0.0000 C   0  0  0  0  0  0  0  0  0  0  0  0
    0.7500    1.2990    0.0000 C   0  0  0  0  0  0  0  0  0  0  0  0
  1  2  1  0
  2  3  1  0
  2  4  1  0
  4  5  2  0
  5  6  1  0
  6  7  2  0
  7  8  1  0
  8  9  1  0
  9 10  1  0
 10 11  2  0
 11 12  1  0
 12 13  2  0
 13 14  1  0
 14 15  1  0
 15 16  2  0
 15 17  1  0
 17 18  2  0
 18 19  1  0
 19 20  2  0
 20 21  1  0
 21 22  2  0
 22 23  1  0
  7 24  1  0
 24 25  2  0
 25  4  1  0
 13  9  1  0
 23 19  1  0
M  END
>  <Compound_ID>  (406) 
C66662007

>  <Active>  (406) 
0

>  <Smiles>  (406) 
CN(C)c1ccc(Cn2nccc2NC(=O)/C=C/c2nccs2)cc1

>  <canonical_smi>  (406) 
CN(C)c1ccc(Cn2nccc2NC(=O)/C=C/c2nccs2)cc1

>  <Set>  (406) 
G2 inactive

>  <Set_type>  (406) 
Train

>  <MW>  (406) 
353.45

>  <HBD>  (406) 
1

>  <HBA>  (406) 
4

>  <NRB>  (406) 
6

>  <NR>  (406) 
3

>  <NAR>  (406) 
3

>  <PSA>  (406) 
63.05

>  <Standard Type>  (406) 
nan

>  <Standard Relation>  (406) 
nan

>  <Standard Units>  (406) 
nan

>  <Standard Value>  (406) 
nan

>  <Assay ChEMBL ID>  (406) 
nan

>  <Assay Description>  (406) 
nan

>  <BAO Label>  (406) 
nan

$$$$

     RDKit          2D

 30 33  0  0  0  0  0  0  0  0999 V2000
   -9.7500   -3.8971    0.0000 C   0  0  0  0  0  0  0  0  0  0  0  0
   -8.2500   -3.8971    0.0000 C   0  0  0  0  0  0  0  0  0  0  0  0
   -7.5000   -5.1962    0.0000 O   0  0  0  0  0  0  0  0  0  0  0  0
   -6.0000   -5.1962    0.0000 C   0  0  0  0  0  0  0  0  0  0  0  0
   -5.2500   -3.8971    0.0000 C   0  0  0  0  0  0  0  0  0  0  0  0
   -3.7500   -3.8971    0.0000 C   0  0  0  0  0  0  0  0  0  0  0  0
   -3.0000   -5.1962    0.0000 C   0  0  0  0  0  0  0  0  0  0  0  0
   -1.5000   -5.1962    0.0000 C   0  0  0  0  0  0  0  0  0  0  0  0
   -0.7500   -6.4952    0.0000 N   0  0  0  0  0  0  0  0  0  0  0  0
   -1.5000   -7.7942    0.0000 C   0  0  0  0  0  0  0  0  0  0  0  0
   -3.0000   -7.7942    0.0000 C   0  0  0  0  0  0  0  0  0  0  0  0
   -3.7500   -9.0933    0.0000 C   0  0  0  0  0  0  0  0  0  0  0  0
   -3.0000  -10.3923    0.0000 C   0  0  0  0  0  0  0  0  0  0  0  0
   -1.5000  -10.3923    0.0000 C   0  0  0  0  0  0  0  0  0  0  0  0
   -0.7500   -9.0933    0.0000 N   0  0  0  0  0  4  0  0  0  0  0  0
   -0.7500   -3.8971    0.0000 C   0  0  0  0  0  0  0  0  0  0  0  0
    0.7500   -3.8971    0.0000 C   0  0  0  0  0  0  0  0  0  0  0  0
    1.5000   -2.5981    0.0000 C   0  0  0  0  0  0  0  0  0  0  0  0
    0.7500   -1.2990    0.0000 C   0  0  0  0  0  0  0  0  0  0  0  0
    1.5000    0.0000    0.0000 C   0  0  0  0  0  0  0  0  0  0  0  0
    0.7500    1.2990    0.0000 C   0  0  0  0  0  0  0  0  0  0  0  0
   -0.7500    1.2990    0.0000 C   0  0  0  0  0  0  0  0  0  0  0  0
   -1.5000    2.5981    0.0000 C   0  0  0  0  0  0  0  0  0  0  0  0
   -1.5000    0.0000    0.0000 N   0  0  0  0  0  0  0  0  0  0  0  0
   -0.7500   -1.2990    0.0000 C   0  0  0  0  0  0  0  0  0  0  0  0
   -1.5000   -2.5981    0.0000 C   0  0  0  0  0  0  0  0  0  0  0  0
   -3.0000   -2.5981    0.0000 O   0  0  0  0  0  0  0  0  0  0  0  0
   -3.7500   -6.4952    0.0000 C   0  0  0  0  0  0  0  0  0  0  0  0
   -5.2500   -6.4952    0.0000 C   0  0  0  0  0  0  0  0  0  0  0  0
   -6.0000   -7.7942    0.0000 C   0  0  0  0  0  0  0  0  0  0  0  0
  1  2  1  0
  2  3  1  0
  3  4  1  0
  4  5  2  0
  5  6  1  0
  6  7  2  0
  7  8  1  0
  8  9  1  6
  9 10  1  0
 10 11  2  0
 11 12  1  0
 12 13  2  0
 13 14  1  0
 14 15  2  0
  8 16  1  0
 16 17  2  0
 17 18  1  0
 18 19  2  0
 19 20  1  0
 20 21  2  0
 21 22  1  0
 22 23  1  0
 22 24  2  0
 24 25  1  0
 25 26  2  0
 26 27  1  0
  7 28  1  0
 28 29  2  0
 29 30  1  0
 29  4  1  0
 15 10  1  0
 26 16  1  0
 25 19  1  0
M  CHG  1  15   1
M  END
>  <Compound_ID>  (407) 
C02470410

>  <Active>  (407) 
0

>  <Smiles>  (407) 
CCOc1ccc([C@@H](Nc2cccc[nH+]2)c2ccc3ccc(C)nc3c2O)cc1C

>  <canonical_smi>  (407) 
CCOc1ccc([C@@H](Nc2cccc[nH+]2)c2ccc3ccc(C)nc3c2O)cc1C

>  <Set>  (407) 
G2 inactive

>  <Set_type>  (407) 
Train

>  <MW>  (407) 
400.5

>  <HBD>  (407) 
2

>  <HBA>  (407) 
4

>  <NRB>  (407) 
6

>  <NR>  (407) 
4

>  <NAR>  (407) 
4

>  <PSA>  (407) 
68.52

>  <Standard Type>  (407) 
nan

>  <Standard Relation>  (407) 
nan

>  <Standard Units>  (407) 
nan

>  <Standard Value>  (407) 
nan

>  <Assay ChEMBL ID>  (407) 
nan

>  <Assay Description>  (407) 
nan

>  <BAO Label>  (407) 
nan

$$$$

     RDKit          2D

 25 27  0  0  0  0  0  0  0  0999 V2000
   -2.4936   -4.0713    0.0000 N   0  0  0  0  0  0  0  0  0  0  0  0
   -3.9934   -4.0938    0.0000 C   0  0  0  0  0  0  0  0  0  0  0  0
   -5.4933   -4.1162    0.0000 C   0  0  0  0  0  0  0  0  0  0  0  0
   -5.1814   -2.6490    0.0000 N   0  0  0  0  0  0  0  0  0  0  0  0
   -3.7548   -2.1855    0.0000 C   0  0  0  0  0  0  0  0  0  0  0  0
   -3.4430   -0.7182    0.0000 O   0  0  0  0  0  0  0  0  0  0  0  0
   -2.6401   -3.1891    0.0000 C   0  0  0  0  0  0  0  0  0  0  0  0
   -1.2135   -2.7256    0.0000 N   0  0  0  0  0  4  0  0  0  0  0  0
   -0.0000   -3.6073    0.0000 C   0  0  0  0  0  0  0  0  0  0  0  0
    0.0000   -5.1073    0.0000 C   0  0  0  0  0  0  0  0  0  0  0  0
   -1.2990   -5.8573    0.0000 N   0  0  0  0  0  0  0  0  0  0  0  0
    1.2990   -5.8573    0.0000 O   0  0  0  0  0  0  0  0  0  0  0  0
    1.2135   -2.7256    0.0000 C   0  0  0  0  0  0  0  0  0  0  0  0
    0.7500   -1.2990    0.0000 C   0  0  0  0  0  0  0  0  0  0  0  0
    1.5000    0.0000    0.0000 C   0  0  0  0  0  0  0  0  0  0  0  0
    0.7500    1.2990    0.0000 C   0  0  0  0  0  0  0  0  0  0  0  0
   -0.7500    1.2990    0.0000 C   0  0  0  0  0  0  0  0  0  0  0  0
   -1.5000    0.0000    0.0000 C   0  0  0  0  0  0  0  0  0  0  0  0
   -0.7500   -1.2990    0.0000 C   0  0  0  0  0  0  0  0  0  0  0  0
   -5.1377   -5.5734    0.0000 C   0  0  0  0  0  0  0  0  0  0  0  0
   -6.0552   -6.7600    0.0000 C   0  0  0  0  0  0  0  0  0  0  0  0
   -7.5551   -6.7825    0.0000 C   0  0  0  0  0  0  0  0  0  0  0  0
   -8.5078   -5.6239    0.0000 C   0  0  0  0  0  0  0  0  0  0  0  0
   -8.1959   -4.1566    0.0000 C   0  0  0  0  0  0  0  0  0  0  0  0
   -6.8543   -3.4857    0.0000 C   0  0  0  0  0  0  0  0  0  0  0  0
  1  2  3  0
  2  3  1  0
  3  4  1  0
  4  5  1  0
  5  6  2  0
  5  7  1  0
  7  8  1  0
  8  9  1  0
  9 10  1  6
 10 11  1  0
 10 12  2  0
  9 13  1  0
 14 13  1  6
 14 15  1  0
 15 16  1  0
 16 17  1  0
 17 18  1  0
 19 18  1  6
  3 20  1  0
 20 21  1  0
 21 22  1  0
 22 23  1  0
 23 24  1  0
 24 25  1  0
 25  3  1  0
 19  8  1  0
 19 14  1  0
M  CHG  1   8   1
M  END
>  <Compound_ID>  (408) 
C65577727

>  <Active>  (408) 
0

>  <Smiles>  (408) 
N#CC1(NC(=O)C[NH+]2[C@@H](C(N)=O)C[C@H]3CCCC[C@H]32)CCCCCC1

>  <canonical_smi>  (408) 
N#CC1(NC(=O)C[NH+]2[C@@H](C(N)=O)C[C@H]3CCCC[C@H]32)CCCCCC1

>  <Set>  (408) 
G2 inactive

>  <Set_type>  (408) 
Train

>  <MW>  (408) 
347.48

>  <HBD>  (408) 
3

>  <HBA>  (408) 
3

>  <NRB>  (408) 
4

>  <NR>  (408) 
3

>  <NAR>  (408) 
0

>  <PSA>  (408) 
100.42

>  <Standard Type>  (408) 
nan

>  <Standard Relation>  (408) 
nan

>  <Standard Units>  (408) 
nan

>  <Standard Value>  (408) 
nan

>  <Assay ChEMBL ID>  (408) 
nan

>  <Assay Description>  (408) 
nan

>  <BAO Label>  (408) 
nan

$$$$

     RDKit          2D

 29 32  0  0  0  0  0  0  0  0999 V2000
   -3.0000    2.5981    0.0000 C   0  0  0  0  0  0  0  0  0  0  0  0
   -1.5000    2.5981    0.0000 O   0  0  0  0  0  0  0  0  0  0  0  0
   -0.7500    1.2990    0.0000 C   0  0  0  0  0  0  0  0  0  0  0  0
   -1.5000    0.0000    0.0000 C   0  0  0  0  0  0  0  0  0  0  0  0
   -0.7500   -1.2990    0.0000 C   0  0  0  0  0  0  0  0  0  0  0  0
    0.7500   -1.2990    0.0000 C   0  0  0  0  0  0  0  0  0  0  0  0
    1.5000    0.0000    0.0000 C   0  0  0  0  0  0  0  0  0  0  0  0
    0.7500    1.2990    0.0000 C   0  0  0  0  0  0  0  0  0  0  0  0
    1.5000    2.5981    0.0000 C   0  0  0  0  0  0  0  0  0  0  0  0
    0.8899    3.9684    0.0000 C   0  0  0  0  0  0  0  0  0  0  0  0
    2.0046    4.9721    0.0000 N   0  0  0  0  0  0  0  0  0  0  0  0
    3.3037    4.2221    0.0000 O   0  0  0  0  0  0  0  0  0  0  0  0
    2.9918    2.7549    0.0000 C   0  0  0  0  0  0  0  0  0  0  0  0
    3.9955    1.6402    0.0000 C   0  0  0  0  0  0  0  0  0  0  0  0
    3.5320    0.2136    0.0000 C   0  0  0  0  0  0  0  0  0  0  0  0
    4.5356   -0.9012    0.0000 C   0  0  0  0  0  0  0  0  0  0  0  0
    6.0029   -0.5893    0.0000 C   0  0  0  0  0  0  0  0  0  0  0  0
    7.0066   -1.7040    0.0000 O   0  0  0  0  0  0  0  0  0  0  0  0
    6.5430   -3.1306    0.0000 C   0  0  0  0  0  0  0  0  0  0  0  0
    7.5467   -4.2453    0.0000 C   0  0  0  0  0  0  0  0  0  0  0  0
    7.0832   -5.6719    0.0000 C   0  0  0  0  0  0  0  0  0  0  0  0
    8.0869   -6.7866    0.0000 C   0  0  0  0  0  0  0  0  0  0  0  0
    9.5541   -6.4747    0.0000 C   0  0  0  0  0  0  0  0  0  0  0  0
   10.0177   -5.0482    0.0000 C   0  0  0  0  0  0  0  0  0  0  0  0
    9.0140   -3.9334    0.0000 C   0  0  0  0  0  0  0  0  0  0  0  0
    9.4775   -2.5068    0.0000 F   0  0  0  0  0  0  0  0  0  0  0  0
    6.4664    0.8373    0.0000 C   0  0  0  0  0  0  0  0  0  0  0  0
    5.4627    1.9520    0.0000 C   0  0  0  0  0  0  0  0  0  0  0  0
    5.9262    3.3786    0.0000 O   0  0  0  0  0  0  0  0  0  0  0  0
  1  2  1  0
  2  3  1  0
  3  4  2  0
  4  5  1  0
  5  6  2  0
  6  7  1  0
  7  8  2  0
  8  9  1  0
  9 10  1  0
 10 11  2  0
 11 12  1  0
 12 13  1  0
 13 14  1  0
 14 15  2  0
 15 16  1  0
 16 17  2  0
 17 18  1  0
 18 19  1  0
 19 20  1  0
 20 21  2  0
 21 22  1  0
 22 23  2  0
 23 24  1  0
 24 25  2  0
 25 26  1  0
 17 27  1  0
 27 28  2  0
 28 29  1  0
  8  3  1  0
 13  9  2  0
 28 14  1  0
 25 20  1  0
M  END
>  <Compound_ID>  (409) 
C05353452

>  <Active>  (409) 
0

>  <Smiles>  (409) 
COc1ccccc1-c1cnoc1-c1ccc(OCc2ccccc2F)cc1O

>  <canonical_smi>  (409) 
COc1ccccc1-c1cnoc1-c1ccc(OCc2ccccc2F)cc1O

>  <Set>  (409) 
G2 inactive

>  <Set_type>  (409) 
Train

>  <MW>  (409) 
391.4

>  <HBD>  (409) 
1

>  <HBA>  (409) 
5

>  <NRB>  (409) 
6

>  <NR>  (409) 
4

>  <NAR>  (409) 
4

>  <PSA>  (409) 
64.72

>  <Standard Type>  (409) 
nan

>  <Standard Relation>  (409) 
nan

>  <Standard Units>  (409) 
nan

>  <Standard Value>  (409) 
nan

>  <Assay ChEMBL ID>  (409) 
nan

>  <Assay Description>  (409) 
nan

>  <BAO Label>  (409) 
nan

$$$$

     RDKit          2D

 19 21  0  0  0  0  0  0  0  0999 V2000
    3.0000  -10.3923    0.0000 C   0  0  0  0  0  0  0  0  0  0  0  0
    3.7500   -9.0933    0.0000 C   0  0  0  0  0  0  0  0  0  0  0  0
    3.0000   -7.7942    0.0000 C   0  0  0  0  0  0  0  0  0  0  0  0
    1.5000   -7.7942    0.0000 C   0  0  0  0  0  0  0  0  0  0  0  0
    0.7500   -6.4952    0.0000 C   0  0  0  0  0  0  0  0  0  0  0  0
    1.5000   -5.1962    0.0000 C   0  0  0  0  0  0  0  0  0  0  0  0
    0.7500   -3.8971    0.0000 C   0  0  0  0  0  0  0  0  0  0  0  0
   -0.7500   -3.8971    0.0000 N   0  0  0  0  0  0  0  0  0  0  0  0
   -1.5000   -2.5981    0.0000 C   0  0  0  0  0  0  0  0  0  0  0  0
   -3.0000   -2.5981    0.0000 N   0  0  0  0  0  0  0  0  0  0  0  0
   -0.7500   -1.2990    0.0000 C   0  0  0  0  0  0  0  0  0  0  0  0
    0.7500   -1.2990    0.0000 C   0  0  0  0  0  0  0  0  0  0  0  0
    1.5000   -2.5981    0.0000 N   0  0  0  0  0  0  0  0  0  0  0  0
    1.5000    0.0000    0.0000 C   0  0  0  0  0  0  0  0  0  0  0  0
    0.7500    1.2990    0.0000 C   0  0  0  0  0  0  0  0  0  0  0  0
   -0.7500    1.2990    0.0000 C   0  0  0  0  0  0  0  0  0  0  0  0
   -1.5000    0.0000    0.0000 C   0  0  0  0  0  0  0  0  0  0  0  0
    3.0000   -5.1962    0.0000 C   0  0  0  0  0  0  0  0  0  0  0  0
    3.7500   -6.4952    0.0000 C   0  0  0  0  0  0  0  0  0  0  0  0
  1  2  1  0
  2  3  1  0
  3  4  2  0
  4  5  1  0
  5  6  2  0
  6  7  1  0
  7  8  2  0
  8  9  1  0
  9 10  1  0
  9 11  2  0
 11 12  1  0
 12 13  2  0
 12 14  1  0
 14 15  1  0
 15 16  1  0
 16 17  1  0
  6 18  1  0
 18 19  2  0
 19  3  1  0
 13  7  1  0
 17 11  1  0
M  END
>  <Compound_ID>  (410) 
C50846835

>  <Active>  (410) 
0

>  <Smiles>  (410) 
CCc1ccc(-c2nc(N)c3c(n2)CCCC3)cc1

>  <canonical_smi>  (410) 
CCc1ccc(-c2nc(N)c3c(n2)CCCC3)cc1

>  <Set>  (410) 
G2 inactive

>  <Set_type>  (410) 
Train

>  <MW>  (410) 
253.35

>  <HBD>  (410) 
1

>  <HBA>  (410) 
3

>  <NRB>  (410) 
2

>  <NR>  (410) 
3

>  <NAR>  (410) 
2

>  <PSA>  (410) 
51.8

>  <Standard Type>  (410) 
nan

>  <Standard Relation>  (410) 
nan

>  <Standard Units>  (410) 
nan

>  <Standard Value>  (410) 
nan

>  <Assay ChEMBL ID>  (410) 
nan

>  <Assay Description>  (410) 
nan

>  <BAO Label>  (410) 
nan

$$$$

     RDKit          2D

 19 20  0  0  0  0  0  0  0  0999 V2000
    2.7760    0.0000    0.0000 C   0  0  0  0  0  0  0  0  0  0  0  0
    1.2760    0.0000    0.0000 C   0  0  0  0  0  0  0  0  0  0  0  0
    0.3943    1.2135    0.0000 C   0  0  0  0  0  0  0  0  0  0  0  0
    0.8578    2.6401    0.0000 C   0  0  0  0  0  0  0  0  0  0  0  0
   -0.1459    3.7548    0.0000 O   0  0  0  0  0  0  0  0  0  0  0  0
   -1.0323    0.7500    0.0000 N   0  0  0  0  0  0  0  0  0  0  0  0
   -1.0323   -0.7500    0.0000 C   0  0  0  0  0  0  0  0  0  0  0  0
   -2.2458   -1.6317    0.0000 C   0  0  0  0  0  0  0  0  0  0  0  0
   -3.6161   -1.0216    0.0000 C   0  0  0  0  0  0  0  0  0  0  0  0
   -4.9152   -1.7716    0.0000 N   0  0  0  0  0  0  0  0  0  0  0  0
   -6.0299   -0.7679    0.0000 C   0  0  0  0  0  0  0  0  0  0  0  0
   -7.4971   -1.0797    0.0000 C   0  0  0  0  0  0  0  0  0  0  0  0
   -8.5008    0.0350    0.0000 O   0  0  0  0  0  0  0  0  0  0  0  0
   -5.4198    0.6024    0.0000 C   0  0  0  0  0  0  0  0  0  0  0  0
   -6.1698    1.9015    0.0000 C   0  0  0  0  0  0  0  0  0  0  0  0
   -3.9280    0.4456    0.0000 C   0  0  0  0  0  0  0  0  0  0  0  0
   -2.9243    1.5604    0.0000 C   0  0  0  0  0  0  0  0  0  0  0  0
    0.3943   -1.2135    0.0000 C   0  0  0  0  0  0  0  0  0  0  0  0
    0.8578   -2.6401    0.0000 C   0  0  0  0  0  0  0  0  0  0  0  0
  1  2  1  0
  2  3  2  0
  3  4  1  0
  4  5  2  0
  3  6  1  0
  6  7  1  0
  7  8  1  0
  8  9  1  0
  9 10  1  0
 10 11  1  0
 11 12  1  0
 12 13  2  0
 11 14  2  0
 14 15  1  0
 14 16  1  0
 16 17  1  0
  7 18  2  0
 18 19  1  0
 18  2  1  0
 16  9  2  0
M  END
>  <Compound_ID>  (411) 
C02519585

>  <Active>  (411) 
0

>  <Smiles>  (411) 
Cc1c(C=O)[nH]c(Cc2[nH]c(C=O)c(C)c2C)c1C

>  <canonical_smi>  (411) 
Cc1c(C=O)[nH]c(Cc2[nH]c(C=O)c(C)c2C)c1C

>  <Set>  (411) 
G2 inactive

>  <Set_type>  (411) 
Train

>  <MW>  (411) 
258.32

>  <HBD>  (411) 
2

>  <HBA>  (411) 
2

>  <NRB>  (411) 
4

>  <NR>  (411) 
2

>  <NAR>  (411) 
2

>  <PSA>  (411) 
65.72

>  <Standard Type>  (411) 
nan

>  <Standard Relation>  (411) 
nan

>  <Standard Units>  (411) 
nan

>  <Standard Value>  (411) 
nan

>  <Assay ChEMBL ID>  (411) 
nan

>  <Assay Description>  (411) 
nan

>  <BAO Label>  (411) 
nan

$$$$

     RDKit          2D

 20 21  0  0  0  0  0  0  0  0999 V2000
    5.2500   -1.2990    0.0000 C   0  0  0  0  0  0  0  0  0  0  0  0
    3.7500   -1.2990    0.0000 C   0  0  0  0  0  0  0  0  0  0  0  0
    3.0000    0.0000    0.0000 C   0  0  0  0  0  0  0  0  0  0  0  0
    1.5000    0.0000    0.0000 C   0  0  0  0  0  0  0  0  0  0  0  0
    0.7500   -1.2990    0.0000 C   0  0  0  0  0  0  0  0  0  0  0  0
    1.5000   -2.5981    0.0000 O   0  0  0  0  0  0  0  0  0  0  0  0
   -0.7500   -1.2990    0.0000 N   0  0  0  0  0  0  0  0  0  0  0  0
   -1.5000    0.0000    0.0000 C   0  0  0  0  0  0  0  0  0  0  0  0
   -3.0000    0.0000    0.0000 C   0  0  0  0  0  0  0  0  0  0  0  0
   -0.7500    1.2990    0.0000 N   0  0  0  0  0  0  0  0  0  0  0  0
    0.7500    1.2990    0.0000 C   0  0  0  0  0  0  0  0  0  0  0  0
    1.5000    2.5981    0.0000 C   0  0  0  0  0  0  0  0  0  0  0  0
    0.7500    3.8971    0.0000 C   0  0  0  0  0  0  0  0  0  0  0  0
    1.5000    5.1962    0.0000 C   0  0  0  0  0  0  0  0  0  0  0  0
    3.0000    5.1962    0.0000 C   0  0  0  0  0  0  0  0  0  0  0  0
    3.7500    6.4952    0.0000 C   0  0  0  0  0  0  0  0  0  0  0  0
    3.0000    7.7942    0.0000 C   0  0  0  0  0  0  0  0  0  0  0  0
    3.7500    9.0933    0.0000 O   0  0  0  0  0  0  0  0  0  0  0  0
    1.5000    7.7942    0.0000 C   0  0  0  0  0  0  0  0  0  0  0  0
    0.7500    6.4952    0.0000 C   0  0  0  0  0  0  0  0  0  0  0  0
  1  2  2  0
  2  3  1  0
  3  4  1  0
  4  5  2  0
  5  6  1  0
  5  7  1  0
  7  8  2  0
  8  9  1  0
  8 10  1  0
 10 11  2  0
 11 12  1  0
 12 13  2  0
 13 14  1  0
 14 15  2  0
 15 16  1  0
 16 17  2  0
 17 18  1  0
 17 19  1  0
 19 20  2  0
 11  4  1  0
 20 14  1  0
M  END
>  <Compound_ID>  (412) 
C16853068

>  <Active>  (412) 
0

>  <Smiles>  (412) 
C=CCc1c(O)nc(C)nc1/C=C/c1ccc(O)cc1

>  <canonical_smi>  (412) 
C=CCc1c(O)nc(C)nc1/C=C/c1ccc(O)cc1

>  <Set>  (412) 
G2 inactive

>  <Set_type>  (412) 
Train

>  <MW>  (412) 
268.32

>  <HBD>  (412) 
2

>  <HBA>  (412) 
4

>  <NRB>  (412) 
4

>  <NR>  (412) 
2

>  <NAR>  (412) 
2

>  <PSA>  (412) 
66.24

>  <Standard Type>  (412) 
nan

>  <Standard Relation>  (412) 
nan

>  <Standard Units>  (412) 
nan

>  <Standard Value>  (412) 
nan

>  <Assay ChEMBL ID>  (412) 
nan

>  <Assay Description>  (412) 
nan

>  <BAO Label>  (412) 
nan

$$$$

     RDKit          2D

 19 21  0  0  0  0  0  0  0  0999 V2000
   -2.9046  -11.4354    0.0000 C   0  0  0  0  0  0  0  0  0  0  0  0
   -3.0613   -9.9436    0.0000 C   0  0  0  0  0  0  0  0  0  0  0  0
   -4.4317   -9.3335    0.0000 C   0  0  0  0  0  0  0  0  0  0  0  0
   -1.8478   -9.0619    0.0000 N   0  0  0  0  0  0  0  0  0  0  0  0
   -2.0046   -7.5702    0.0000 C   0  0  0  0  0  0  0  0  0  0  0  0
   -0.8899   -6.5665    0.0000 N   0  0  0  0  0  0  0  0  0  0  0  0
   -1.5000   -5.1962    0.0000 C   0  0  0  0  0  0  0  0  0  0  0  0
   -0.7500   -3.8971    0.0000 C   0  0  0  0  0  0  0  0  0  0  0  0
    0.7500   -3.8971    0.0000 C   0  0  0  0  0  0  0  0  0  0  0  0
    1.5000   -2.5981    0.0000 C   0  0  0  0  0  0  0  0  0  0  0  0
    0.7500   -1.2990    0.0000 C   0  0  0  0  0  0  0  0  0  0  0  0
    1.5000    0.0000    0.0000 C   0  0  0  0  0  0  0  0  0  0  0  0
    0.7500    1.2990    0.0000 C   0  0  0  0  0  0  0  0  0  0  0  0
   -0.7500    1.2990    0.0000 C   0  0  0  0  0  0  0  0  0  0  0  0
   -1.5000    0.0000    0.0000 C   0  0  0  0  0  0  0  0  0  0  0  0
   -0.7500   -1.2990    0.0000 C   0  0  0  0  0  0  0  0  0  0  0  0
   -1.5000   -2.5981    0.0000 C   0  0  0  0  0  0  0  0  0  0  0  0
   -2.9918   -5.3529    0.0000 N   0  0  0  0  0  0  0  0  0  0  0  0
   -3.3037   -6.8202    0.0000 O   0  0  0  0  0  0  0  0  0  0  0  0
  1  2  1  0
  2  3  1  0
  2  4  1  0
  4  5  1  0
  5  6  2  0
  6  7  1  0
  7  8  1  0
  8  9  2  0
  9 10  1  0
 10 11  2  0
 11 12  1  0
 12 13  2  0
 13 14  1  0
 14 15  2  0
 15 16  1  0
 16 17  2  0
  7 18  2  0
 18 19  1  0
 19  5  1  0
 17  8  1  0
 16 11  1  0
M  END
>  <Compound_ID>  (413) 
C54441429

>  <Active>  (413) 
0

>  <Smiles>  (413) 
CC(C)Nc1nc(-c2ccc3ccccc3c2)no1

>  <canonical_smi>  (413) 
CC(C)Nc1nc(-c2ccc3ccccc3c2)no1

>  <Set>  (413) 
G2 inactive

>  <Set_type>  (413) 
Train

>  <MW>  (413) 
253.31

>  <HBD>  (413) 
1

>  <HBA>  (413) 
4

>  <NRB>  (413) 
3

>  <NR>  (413) 
3

>  <NAR>  (413) 
3

>  <PSA>  (413) 
50.95

>  <Standard Type>  (413) 
nan

>  <Standard Relation>  (413) 
nan

>  <Standard Units>  (413) 
nan

>  <Standard Value>  (413) 
nan

>  <Assay ChEMBL ID>  (413) 
nan

>  <Assay Description>  (413) 
nan

>  <BAO Label>  (413) 
nan

$$$$

     RDKit          2D

 18 18  0  0  0  0  0  0  0  0999 V2000
    5.2500   -6.4952    0.0000 C   0  0  0  0  0  0  0  0  0  0  0  0
    6.0000   -5.1962    0.0000 C   0  0  0  0  0  0  0  0  0  0  0  0
    5.2500   -3.8971    0.0000 C   0  0  0  0  0  0  0  0  0  0  0  0
    6.0000   -2.5981    0.0000 C   0  0  0  0  0  0  0  0  0  0  0  0
    7.5000   -2.5981    0.0000 C   0  0  0  0  0  0  0  0  0  0  0  0
    5.2500   -1.2990    0.0000 N   0  0  0  0  0  0  0  0  0  0  0  0
    3.7500   -1.2990    0.0000 C   0  0  0  0  0  0  0  0  0  0  0  0
    3.0000   -2.5981    0.0000 O   0  0  0  0  0  0  0  0  0  0  0  0
    3.0000    0.0000    0.0000 N   0  0  0  0  0  0  0  0  0  0  0  0
    1.5000    0.0000    0.0000 C   0  0  0  0  0  0  0  0  0  0  0  0
    0.7500   -1.2990    0.0000 C   0  0  0  0  0  0  0  0  0  0  0  0
   -0.7500   -1.2990    0.0000 C   0  0  0  0  0  0  0  0  0  0  0  0
   -1.5000    0.0000    0.0000 C   0  0  0  0  0  0  0  0  0  0  0  0
   -3.0000    0.0000    0.0000 C   0  0  0  0  0  0  0  0  0  0  0  0
   -0.7500    1.2990    0.0000 C   0  0  0  0  0  0  0  0  0  0  0  0
    0.7500    1.2990    0.0000 C   0  0  0  0  0  0  0  0  0  0  0  0
    1.5000    2.5981    0.0000 O   0  0  0  0  0  0  0  0  0  0  0  0
    0.7500    3.8971    0.0000 C   0  0  0  0  0  0  0  0  0  0  0  0
  1  2  1  0
  2  3  1  0
  3  4  1  0
  4  5  1  6
  4  6  1  0
  6  7  1  0
  7  8  2  0
  7  9  1  0
  9 10  1  0
 10 11  2  0
 11 12  1  0
 12 13  2  0
 13 14  1  0
 13 15  1  0
 15 16  2  0
 16 17  1  0
 17 18  1  0
 16 10  1  0
M  END
>  <Compound_ID>  (414) 
C49359082

>  <Active>  (414) 
0

>  <Smiles>  (414) 
CCC[C@@H](C)NC(=O)Nc1ccc(C)cc1OC

>  <canonical_smi>  (414) 
CCC[C@@H](C)NC(=O)Nc1ccc(C)cc1OC

>  <Set>  (414) 
G2 inactive

>  <Set_type>  (414) 
Train

>  <MW>  (414) 
250.34

>  <HBD>  (414) 
2

>  <HBA>  (414) 
2

>  <NRB>  (414) 
5

>  <NR>  (414) 
1

>  <NAR>  (414) 
1

>  <PSA>  (414) 
50.36

>  <Standard Type>  (414) 
nan

>  <Standard Relation>  (414) 
nan

>  <Standard Units>  (414) 
nan

>  <Standard Value>  (414) 
nan

>  <Assay ChEMBL ID>  (414) 
nan

>  <Assay Description>  (414) 
nan

>  <BAO Label>  (414) 
nan

$$$$

     RDKit          2D

 21 23  0  0  0  0  0  0  0  0999 V2000
    5.6464    8.9702    0.0000 C   0  0  0  0  0  0  0  0  0  0  0  0
    4.1791    8.6583    0.0000 C   0  0  0  0  0  0  0  0  0  0  0  0
    3.7156    7.2317    0.0000 C   0  0  0  0  0  0  0  0  0  0  0  0
    2.2484    6.9199    0.0000 C   0  0  0  0  0  0  0  0  0  0  0  0
    1.7849    5.4933    0.0000 C   0  0  0  0  0  0  0  0  0  0  0  0
    2.7886    4.3786    0.0000 C   0  0  0  0  0  0  0  0  0  0  0  0
    2.3250    2.9520    0.0000 C   0  0  0  0  0  0  0  0  0  0  0  0
    0.8578    2.6401    0.0000 C   0  0  0  0  0  0  0  0  0  0  0  0
    0.3943    1.2135    0.0000 C   0  0  0  0  0  0  0  0  0  0  0  0
    1.2760    0.0000    0.0000 N   0  0  0  0  0  0  0  0  0  0  0  0
    0.3943   -1.2135    0.0000 N   0  0  0  0  0  0  0  0  0  0  0  0
   -1.0323   -0.7500    0.0000 C   0  0  0  0  0  0  0  0  0  0  0  0
   -2.3313   -1.5000    0.0000 C   0  0  0  0  0  0  0  0  0  0  0  0
   -2.3313   -3.0000    0.0000 N   0  0  0  0  0  0  0  0  0  0  0  0
   -3.6304   -0.7500    0.0000 C   0  0  0  0  0  0  0  0  0  0  0  0
   -4.9294   -1.5000    0.0000 C   0  0  0  0  0  0  0  0  0  0  0  0
   -3.6304    0.7500    0.0000 C   0  0  0  0  0  0  0  0  0  0  0  0
   -2.3313    1.5000    0.0000 C   0  0  0  0  0  0  0  0  0  0  0  0
   -1.0323    0.7500    0.0000 N   0  0  0  0  0  0  0  0  0  0  0  0
   -0.1459    3.7548    0.0000 C   0  0  0  0  0  0  0  0  0  0  0  0
    0.3177    5.1814    0.0000 C   0  0  0  0  0  0  0  0  0  0  0  0
  1  2  1  0
  2  3  1  0
  3  4  1  0
  4  5  1  0
  5  6  1  0
  6  7  1  0
  7  8  1  0
  8  9  1  0
  9 10  2  0
 10 11  1  0
 11 12  2  0
 12 13  1  0
 13 14  1  0
 13 15  2  0
 15 16  1  0
 15 17  1  0
 17 18  2  0
 18 19  1  0
  8 20  1  0
 20 21  1  0
 21  5  1  0
 19  9  1  0
 19 12  1  0
M  END
>  <Compound_ID>  (415) 
C49771001

>  <Active>  (415) 
0

>  <Smiles>  (415) 
CCCCC1CCC(c2nnc3c(N)c(C)ccn23)CC1

>  <canonical_smi>  (415) 
CCCCC1CCC(c2nnc3c(N)c(C)ccn23)CC1

>  <Set>  (415) 
G2 inactive

>  <Set_type>  (415) 
Train

>  <MW>  (415) 
286.42

>  <HBD>  (415) 
1

>  <HBA>  (415) 
3

>  <NRB>  (415) 
4

>  <NR>  (415) 
3

>  <NAR>  (415) 
2

>  <PSA>  (415) 
56.21

>  <Standard Type>  (415) 
nan

>  <Standard Relation>  (415) 
nan

>  <Standard Units>  (415) 
nan

>  <Standard Value>  (415) 
nan

>  <Assay ChEMBL ID>  (415) 
nan

>  <Assay Description>  (415) 
nan

>  <BAO Label>  (415) 
nan

$$$$

     RDKit          2D

 27 29  0  0  0  0  0  0  0  0999 V2000
    7.7127   -1.9451    0.0000 H   0  0  0  0  0  0  0  0  0  0  0  0
    6.2455   -2.2570    0.0000 N   0  0  0  0  0  0  0  0  0  0  0  0
    5.2418   -1.1422    0.0000 C   0  0  0  0  0  0  0  0  0  0  0  0
    5.5537    0.3250    0.0000 C   0  0  0  0  0  0  0  0  0  0  0  0
    4.2546    1.0750    0.0000 C   0  0  0  0  0  0  0  0  0  0  0  0
    4.0978    2.5668    0.0000 C   0  0  0  0  0  0  0  0  0  0  0  0
    3.1399    0.0713    0.0000 S   0  0  0  0  0  0  0  0  0  0  0  0
    3.7500   -1.2990    0.0000 N   0  0  0  0  0  0  0  0  0  0  0  0
    3.0000   -2.5981    0.0000 C   0  0  0  0  0  0  0  0  0  0  0  0
    1.5000   -2.5981    0.0000 N   0  0  0  0  0  0  0  0  0  0  0  0
    0.7500   -1.2990    0.0000 C   0  0  0  0  0  0  0  0  0  0  0  0
    1.5000    0.0000    0.0000 C   0  0  0  0  0  0  0  0  0  0  0  0
    0.7500    1.2990    0.0000 C   0  0  0  0  0  0  0  0  0  0  0  0
   -0.7500    1.2990    0.0000 C   0  0  0  0  0  0  0  0  0  0  0  0
   -1.5000    0.0000    0.0000 C   0  0  0  0  0  0  0  0  0  0  0  0
   -3.0000    0.0000    0.0000 O   0  0  0  0  0  0  0  0  0  0  0  0
   -3.7500    1.2990    0.0000 C   0  0  0  0  0  0  0  0  0  0  0  0
   -0.7500   -1.2990    0.0000 C   0  0  0  0  0  0  0  0  0  0  0  0
    3.7500   -3.8971    0.0000 N   0  0  0  0  0  0  0  0  0  0  0  0
    3.0000   -5.1962    0.0000 C   0  0  0  0  0  0  0  0  0  0  0  0
    1.5000   -5.1962    0.0000 C   0  0  0  0  0  0  0  0  0  0  0  0
    0.7500   -6.4952    0.0000 C   0  0  0  0  0  0  0  0  0  0  0  0
   -0.7500   -6.4952    0.0000 C   0  0  0  0  0  0  0  0  0  0  0  0
    1.5000   -7.7942    0.0000 C   0  0  0  0  0  0  0  0  0  0  0  0
    3.0000   -7.7942    0.0000 C   0  0  0  0  0  0  0  0  0  0  0  0
    3.7500   -9.0933    0.0000 C   0  0  0  0  0  0  0  0  0  0  0  0
    3.7500   -6.4952    0.0000 C   0  0  0  0  0  0  0  0  0  0  0  0
  1  2  1  0
  2  3  2  0
  3  4  1  0
  4  5  2  0
  5  6  1  0
  5  7  1  0
  7  8  1  0
  8  9  1  0
  9 10  2  0
 10 11  1  0
 11 12  2  0
 12 13  1  0
 13 14  2  0
 14 15  1  0
 15 16  1  0
 16 17  1  0
 15 18  2  0
  9 19  1  0
 19 20  1  0
 20 21  2  0
 21 22  1  0
 22 23  1  0
 22 24  2  0
 24 25  1  0
 25 26  1  0
 25 27  2  0
  8  3  1  0
 18 11  1  0
 27 20  1  0
M  END
>  <Compound_ID>  (416) 
C20345281

>  <Active>  (416) 
0

>  <Smiles>  (416) 
[H]/N=c1\cc(C)sn1/C(=N\c1cccc(OC)c1)Nc1cc(C)cc(C)c1

>  <canonical_smi>  (416) 
[H]/N=c1\cc(C)sn1/C(=N\c1cccc(OC)c1)Nc1cc(C)cc(C)c1

>  <Set>  (416) 
G2 inactive

>  <Set_type>  (416) 
Train

>  <MW>  (416) 
366.49

>  <HBD>  (416) 
2

>  <HBA>  (416) 
2

>  <NRB>  (416) 
3

>  <NR>  (416) 
3

>  <NAR>  (416) 
3

>  <PSA>  (416) 
62.4

>  <Standard Type>  (416) 
nan

>  <Standard Relation>  (416) 
nan

>  <Standard Units>  (416) 
nan

>  <Standard Value>  (416) 
nan

>  <Assay ChEMBL ID>  (416) 
nan

>  <Assay Description>  (416) 
nan

>  <BAO Label>  (416) 
nan

$$$$

     RDKit          2D

 33 35  0  0  0  0  0  0  0  0999 V2000
   -1.8681  -13.6161    0.0000 C   0  0  0  0  0  0  0  0  0  0  0  0
   -0.6546  -12.7344    0.0000 C   0  0  0  0  0  0  0  0  0  0  0  0
   -0.8113  -11.2427    0.0000 N   0  0  0  0  0  0  0  0  0  0  0  0
    0.4022  -10.3610    0.0000 N   0  0  0  0  0  0  0  0  0  0  0  0
    0.2454   -8.8692    0.0000 C   0  0  0  0  0  0  0  0  0  0  0  0
   -1.0537   -8.1192    0.0000 N   0  0  0  0  0  0  0  0  0  0  0  0
   -0.7418   -6.6520    0.0000 C   0  0  0  0  0  0  0  0  0  0  0  0
   -1.7455   -5.5373    0.0000 O   0  0  0  0  0  0  0  0  0  0  0  0
    0.7500   -6.4952    0.0000 C   0  0  0  0  0  0  0  0  0  0  0  0
    1.5000   -5.1962    0.0000 C   0  0  0  0  0  0  0  0  0  0  0  0
    0.7500   -3.8971    0.0000 C   0  0  0  0  0  0  0  0  0  0  0  0
   -0.7500   -3.8971    0.0000 O   0  0  0  0  0  0  0  0  0  0  0  0
    1.5000   -2.5981    0.0000 N   0  0  0  0  0  0  0  0  0  0  0  0
    0.7500   -1.2990    0.0000 C   0  0  0  0  0  0  0  0  0  0  0  0
    1.5000    0.0000    0.0000 C   0  0  0  0  0  0  0  0  0  0  0  0
    0.7500    1.2990    0.0000 C   0  0  0  0  0  0  0  0  0  0  0  0
   -0.7500    1.2990    0.0000 C   0  0  0  0  0  0  0  0  0  0  0  0
   -1.5000    2.5981    0.0000 Cl  0  0  0  0  0  0  0  0  0  0  0  0
   -1.5000    0.0000    0.0000 C   0  0  0  0  0  0  0  0  0  0  0  0
   -3.0000    0.0000    0.0000 C   0  0  0  0  0  0  0  0  0  0  0  0
   -4.5000    0.0000    0.0000 F   0  0  0  0  0  0  0  0  0  0  0  0
   -3.0000    1.5000    0.0000 F   0  0  0  0  0  0  0  0  0  0  0  0
   -3.0000   -1.5000    0.0000 F   0  0  0  0  0  0  0  0  0  0  0  0
   -0.7500   -1.2990    0.0000 C   0  0  0  0  0  0  0  0  0  0  0  0
    1.3601   -7.8655    0.0000 S   0  0  0  0  0  0  0  0  0  0  0  0
    0.7158  -13.3446    0.0000 C   0  0  0  0  0  0  0  0  0  0  0  0
    0.8726  -14.8363    0.0000 C   0  0  0  0  0  0  0  0  0  0  0  0
    2.2429  -15.4464    0.0000 C   0  0  0  0  0  0  0  0  0  0  0  0
    3.4564  -14.5648    0.0000 C   0  0  0  0  0  0  0  0  0  0  0  0
    4.8267  -15.1749    0.0000 O   0  0  0  0  0  0  0  0  0  0  0  0
    4.9835  -16.6667    0.0000 C   0  0  0  0  0  0  0  0  0  0  0  0
    3.2996  -13.0730    0.0000 C   0  0  0  0  0  0  0  0  0  0  0  0
    1.9293  -12.4629    0.0000 C   0  0  0  0  0  0  0  0  0  0  0  0
  1  2  2  0
  2  3  1  0
  3  4  1  0
  4  5  2  0
  5  6  1  0
  6  7  1  0
  7  8  2  0
  7  9  1  0
  9 10  1  6
 10 11  1  0
 11 12  2  0
 11 13  1  0
 13 14  1  0
 14 15  2  0
 15 16  1  0
 16 17  2  0
 17 18  1  0
 17 19  1  0
 19 20  1  0
 20 21  1  0
 20 22  1  0
 20 23  1  0
 19 24  2  0
  9 25  1  0
  2 26  1  0
 26 27  2  0
 27 28  1  0
 28 29  2  0
 29 30  1  0
 30 31  1  0
 29 32  1  0
 32 33  2  0
 25  5  1  0
 33 26  1  0
 24 14  1  0
M  END
>  <Compound_ID>  (417) 
C02654088

>  <Active>  (417) 
0

>  <Smiles>  (417) 
C=C(N/N=C1\NC(=O)[C@H](CC(=O)Nc2ccc(Cl)c(C(F)(F)F)c2)S1)c1ccc(OC)cc1

>  <canonical_smi>  (417) 
C=C(N/N=C1\NC(=O)[C@H](CC(=O)Nc2ccc(Cl)c(C(F)(F)F)c2)S1)c1ccc(OC)cc1

>  <Set>  (417) 
G2 inactive

>  <Set_type>  (417) 
Train

>  <MW>  (417) 
498.91

>  <HBD>  (417) 
3

>  <HBA>  (417) 
5

>  <NRB>  (417) 
7

>  <NR>  (417) 
3

>  <NAR>  (417) 
2

>  <PSA>  (417) 
91.82

>  <Standard Type>  (417) 
nan

>  <Standard Relation>  (417) 
nan

>  <Standard Units>  (417) 
nan

>  <Standard Value>  (417) 
nan

>  <Assay ChEMBL ID>  (417) 
nan

>  <Assay Description>  (417) 
nan

>  <BAO Label>  (417) 
nan

$$$$

     RDKit          2D

 22 24  0  0  0  0  0  0  0  0999 V2000
   -5.0078   -5.8597    0.0000 C   0  0  0  0  0  0  0  0  0  0  0  0
   -3.6375   -5.2496    0.0000 N   0  0  0  0  0  4  0  0  0  0  0  0
   -2.4240   -6.1312    0.0000 C   0  0  0  0  0  0  0  0  0  0  0  0
   -1.0537   -5.5211    0.0000 N   0  0  0  0  0  0  0  0  0  0  0  0
   -0.7418   -4.0539    0.0000 N   0  0  0  0  0  0  0  0  0  0  0  0
    0.7500   -3.8971    0.0000 C   0  0  0  0  0  0  0  0  0  0  0  0
    1.5000   -2.5981    0.0000 N   0  0  0  0  0  0  0  0  0  0  0  0
    0.7500   -1.2990    0.0000 C   0  0  0  0  0  0  0  0  0  0  0  0
    1.5000    0.0000    0.0000 C   0  0  0  0  0  0  0  0  0  0  0  0
    0.7500    1.2990    0.0000 C   0  0  0  0  0  0  0  0  0  0  0  0
   -0.7500    1.2990    0.0000 C   0  0  0  0  0  0  0  0  0  0  0  0
   -1.5000    0.0000    0.0000 C   0  0  0  0  0  0  0  0  0  0  0  0
   -0.7500   -1.2990    0.0000 C   0  0  0  0  0  0  0  0  0  0  0  0
    1.3601   -5.2674    0.0000 S   0  0  0  0  0  0  0  0  0  0  0  0
    0.2454   -6.2711    0.0000 C   0  0  0  0  0  0  0  0  0  0  0  0
    0.4022   -7.7629    0.0000 S   0  0  0  0  0  0  0  0  0  0  0  0
   -3.4807   -3.7578    0.0000 C   0  0  0  0  0  0  0  0  0  0  0  0
   -2.1104   -3.1477    0.0000 C   0  0  0  0  0  0  0  0  0  0  0  0
   -1.9536   -1.6559    0.0000 C   0  0  0  0  0  0  0  0  0  0  0  0
   -3.1671   -0.7742    0.0000 C   0  0  0  0  0  0  0  0  0  0  0  0
   -4.5374   -1.3843    0.0000 C   0  0  0  0  0  0  0  0  0  0  0  0
   -4.6942   -2.8761    0.0000 C   0  0  0  0  0  0  0  0  0  0  0  0
  1  2  1  0
  2  3  1  0
  3  4  1  0
  4  5  1  0
  5  6  2  0
  6  7  1  0
  7  8  1  0
  8  9  1  0
  9 10  1  0
 10 11  1  0
 11 12  1  0
 12 13  1  0
  6 14  1  0
 14 15  1  0
 15 16  2  0
  2 17  1  0
 17 18  1  0
 18 19  1  0
 19 20  1  0
 20 21  1  0
 21 22  1  0
 15  4  1  0
 22 17  1  0
 13  8  1  0
M  CHG  1   2   1
M  END
>  <Compound_ID>  (418) 
C28705180

>  <Active>  (418) 
0

>  <Smiles>  (418) 
C[NH+](Cn1nc(NC2CCCCC2)sc1=S)C1CCCCC1

>  <canonical_smi>  (418) 
C[NH+](Cn1nc(NC2CCCCC2)sc1=S)C1CCCCC1

>  <Set>  (418) 
G2 inactive

>  <Set_type>  (418) 
Train

>  <MW>  (418) 
341.57

>  <HBD>  (418) 
2

>  <HBA>  (418) 
3

>  <NRB>  (418) 
5

>  <NR>  (418) 
3

>  <NAR>  (418) 
1

>  <PSA>  (418) 
34.29

>  <Standard Type>  (418) 
nan

>  <Standard Relation>  (418) 
nan

>  <Standard Units>  (418) 
nan

>  <Standard Value>  (418) 
nan

>  <Assay ChEMBL ID>  (418) 
nan

>  <Assay Description>  (418) 
nan

>  <BAO Label>  (418) 
nan

$$$$

     RDKit          2D

 26 28  0  0  0  0  0  0  0  0999 V2000
    8.2500   -9.0933    0.0000 C   0  0  0  0  0  0  0  0  0  0  0  0
    7.5000   -7.7942    0.0000 C   0  0  0  0  0  0  0  0  0  0  0  0
    6.0000   -7.7942    0.0000 C   0  0  0  0  0  0  0  0  0  0  0  0
    5.2500   -9.0933    0.0000 C   0  0  0  0  0  0  0  0  0  0  0  0
    3.7500   -9.0933    0.0000 C   0  0  0  0  0  0  0  0  0  0  0  0
    3.0000   -7.7942    0.0000 C   0  0  0  0  0  0  0  0  0  0  0  0
    1.5000   -7.7942    0.0000 C   0  0  0  0  0  0  0  0  0  0  0  0
    0.7500   -6.4952    0.0000 N   0  0  0  0  0  0  0  0  0  0  0  0
    1.5000   -5.1962    0.0000 C   0  0  0  0  0  0  0  0  0  0  0  0
    3.0000   -5.1962    0.0000 O   0  0  0  0  0  0  0  0  0  0  0  0
    0.7500   -3.8971    0.0000 C   0  0  0  0  0  0  0  0  0  0  0  0
    1.5000   -2.5981    0.0000 C   0  0  0  0  0  0  0  0  0  0  0  0
    0.7500   -1.2990    0.0000 C   0  0  0  0  0  0  0  0  0  0  0  0
    1.5000    0.0000    0.0000 C   0  0  0  0  0  0  0  0  0  0  0  0
    0.7500    1.2990    0.0000 C   0  0  0  0  0  0  0  0  0  0  0  0
   -0.7500    1.2990    0.0000 C   0  0  0  0  0  0  0  0  0  0  0  0
   -1.5000    0.0000    0.0000 C   0  0  0  0  0  0  0  0  0  0  0  0
   -0.7500   -1.2990    0.0000 C   0  0  0  0  0  0  0  0  0  0  0  0
   -1.5000   -2.5981    0.0000 N   0  0  0  0  0  4  0  0  0  0  0  0
   -0.7500   -3.8971    0.0000 C   0  0  0  0  0  0  0  0  0  0  0  0
   -1.5000   -5.1962    0.0000 O   0  0  0  0  0  0  0  0  0  0  0  0
    0.7500   -9.0933    0.0000 C   0  0  0  0  0  0  0  0  0  0  0  0
    1.5000  -10.3923    0.0000 C   0  0  0  0  0  0  0  0  0  0  0  0
   -0.7500   -9.0933    0.0000 C   0  0  0  0  0  0  0  0  0  0  0  0
    3.7500   -6.4952    0.0000 C   0  0  0  0  0  0  0  0  0  0  0  0
    5.2500   -6.4952    0.0000 C   0  0  0  0  0  0  0  0  0  0  0  0
  1  2  1  0
  2  3  1  0
  3  4  2  0
  4  5  1  0
  5  6  2  0
  6  7  1  0
  7  8  1  1
  8  9  1  0
  9 10  2  0
 11  9  1  1
 11 12  1  0
 12 13  2  0
 13 14  1  0
 14 15  2  0
 15 16  1  0
 16 17  2  0
 17 18  1  0
 18 19  2  0
 19 20  1  0
 20 21  2  0
  7 22  1  0
 22 23  1  0
 22 24  1  0
  6 25  1  0
 25 26  2  0
 26  3  1  0
 20 11  1  0
 18 13  1  0
M  CHG  1  19   1
M  END
>  <Compound_ID>  (419) 
C39796137

>  <Active>  (419) 
0

>  <Smiles>  (419) 
CCc1ccc([C@H](NC(=O)[C@@H]2C=c3ccccc3=[NH+]C2=O)C(C)C)cc1

>  <canonical_smi>  (419) 
CCc1ccc([C@H](NC(=O)[C@@H]2C=c3ccccc3=[NH+]C2=O)C(C)C)cc1

>  <Set>  (419) 
G2 inactive

>  <Set_type>  (419) 
Train

>  <MW>  (419) 
349.45

>  <HBD>  (419) 
2

>  <HBA>  (419) 
2

>  <NRB>  (419) 
5

>  <NR>  (419) 
3

>  <NAR>  (419) 
2

>  <PSA>  (419) 
60.14

>  <Standard Type>  (419) 
nan

>  <Standard Relation>  (419) 
nan

>  <Standard Units>  (419) 
nan

>  <Standard Value>  (419) 
nan

>  <Assay ChEMBL ID>  (419) 
nan

>  <Assay Description>  (419) 
nan

>  <BAO Label>  (419) 
nan

$$$$

     RDKit          2D

 26 28  0  0  0  0  0  0  0  0999 V2000
   12.4255   -4.0175    0.0000 C   0  0  0  0  0  0  0  0  0  0  0  0
   11.0552   -3.4074    0.0000 C   0  0  0  0  0  0  0  0  0  0  0  0
    9.8417   -4.2890    0.0000 C   0  0  0  0  0  0  0  0  0  0  0  0
    8.4713   -3.6789    0.0000 N   0  0  0  0  0  4  0  0  0  0  0  0
    7.2578   -4.5606    0.0000 C   0  0  0  0  0  0  0  0  0  0  0  0
    5.8875   -3.9505    0.0000 C   0  0  0  0  0  0  0  0  0  0  0  0
    5.7307   -2.4587    0.0000 O   0  0  0  0  0  0  0  0  0  0  0  0
    4.6740   -4.8322    0.0000 N   0  0  0  0  0  0  0  0  0  0  0  0
    3.3037   -4.2221    0.0000 C   0  0  0  0  0  0  0  0  0  0  0  0
    2.9918   -2.7549    0.0000 N   0  0  0  0  0  0  0  0  0  0  0  0
    1.5000   -2.5981    0.0000 C   0  0  0  0  0  0  0  0  0  0  0  0
    0.7500   -1.2990    0.0000 C   0  0  0  0  0  0  0  0  0  0  0  0
    1.5000    0.0000    0.0000 C   0  0  0  0  0  0  0  0  0  0  0  0
    0.7500    1.2990    0.0000 C   0  0  0  0  0  0  0  0  0  0  0  0
   -0.7500    1.2990    0.0000 C   0  0  0  0  0  0  0  0  0  0  0  0
   -1.5000    0.0000    0.0000 C   0  0  0  0  0  0  0  0  0  0  0  0
   -0.7500   -1.2990    0.0000 C   0  0  0  0  0  0  0  0  0  0  0  0
    0.8899   -3.9684    0.0000 C   0  0  0  0  0  0  0  0  0  0  0  0
    2.0046   -4.9721    0.0000 N   0  0  0  0  0  0  0  0  0  0  0  0
    1.8478   -6.4639    0.0000 C   0  0  0  0  0  0  0  0  0  0  0  0
    0.4775   -7.0740    0.0000 C   0  0  0  0  0  0  0  0  0  0  0  0
    0.3207   -8.5658    0.0000 C   0  0  0  0  0  0  0  0  0  0  0  0
    1.5342   -9.4474    0.0000 C   0  0  0  0  0  0  0  0  0  0  0  0
    1.3774  -10.9392    0.0000 C   0  0  0  0  0  0  0  0  0  0  0  0
    2.9046   -8.8373    0.0000 C   0  0  0  0  0  0  0  0  0  0  0  0
    3.0613   -7.3456    0.0000 C   0  0  0  0  0  0  0  0  0  0  0  0
  1  2  2  0
  2  3  1  0
  3  4  1  0
  4  5  1  0
  5  6  1  0
  6  7  2  0
  6  8  1  0
  8  9  2  0
  9 10  1  0
 10 11  1  0
 11 12  1  0
 12 13  2  0
 13 14  1  0
 14 15  2  0
 15 16  1  0
 16 17  2  0
 11 18  2  0
 18 19  1  0
 19 20  1  0
 20 21  2  0
 21 22  1  0
 22 23  2  0
 23 24  1  0
 23 25  1  0
 25 26  2  0
 19  9  1  0
 26 20  1  0
 17 12  1  0
M  CHG  1   4   1
M  END
>  <Compound_ID>  (420) 
C36039440

>  <Active>  (420) 
0

>  <Smiles>  (420) 
C=CC[NH2+]CC(=O)/N=c1\[nH]c(-c2ccccc2)cn1-c1ccc(C)cc1

>  <canonical_smi>  (420) 
C=CC[NH2+]CC(=O)/N=c1\[nH]c(-c2ccccc2)cn1-c1ccc(C)cc1

>  <Set>  (420) 
G2 inactive

>  <Set_type>  (420) 
Train

>  <MW>  (420) 
347.44

>  <HBD>  (420) 
2

>  <HBA>  (420) 
1

>  <NRB>  (420) 
6

>  <NR>  (420) 
3

>  <NAR>  (420) 
3

>  <PSA>  (420) 
66.76

>  <Standard Type>  (420) 
nan

>  <Standard Relation>  (420) 
nan

>  <Standard Units>  (420) 
nan

>  <Standard Value>  (420) 
nan

>  <Assay ChEMBL ID>  (420) 
nan

>  <Assay Description>  (420) 
nan

>  <BAO Label>  (420) 
nan

$$$$

     RDKit          2D

 21 23  0  0  0  0  0  0  0  0999 V2000
    4.2558    4.6904    0.0000 C   0  0  0  0  0  0  0  0  0  0  0  0
    2.7886    4.3786    0.0000 C   0  0  0  0  0  0  0  0  0  0  0  0
    1.7849    5.4933    0.0000 N   0  0  0  0  0  4  0  0  0  0  0  0
    2.3250    2.9520    0.0000 C   0  0  0  0  0  0  0  0  0  0  0  0
    0.8578    2.6401    0.0000 S   0  0  0  0  0  0  0  0  0  0  0  0
    0.3943    1.2135    0.0000 C   0  0  0  0  0  0  0  0  0  0  0  0
    1.2760    0.0000    0.0000 N   0  0  0  0  0  0  0  0  0  0  0  0
    0.3943   -1.2135    0.0000 N   0  0  0  0  0  0  0  0  0  0  0  0
   -1.0323   -0.7500    0.0000 N   0  0  0  0  0  0  0  0  0  0  0  0
   -1.0323    0.7500    0.0000 N   0  0  0  0  0  0  0  0  0  0  0  0
   -2.2458    1.6317    0.0000 C   0  0  0  0  0  0  0  0  0  0  0  0
   -3.6724    1.1682    0.0000 C   0  0  0  0  0  0  0  0  0  0  0  0
   -4.5541    2.3817    0.0000 C   0  0  0  0  0  0  0  0  0  0  0  0
   -3.6724    3.5952    0.0000 C   0  0  0  0  0  0  0  0  0  0  0  0
   -2.2458    3.1317    0.0000 C   0  0  0  0  0  0  0  0  0  0  0  0
    3.3287    1.8373    0.0000 C   0  0  0  0  0  0  0  0  0  0  0  0
    4.8205    1.9941    0.0000 C   0  0  0  0  0  0  0  0  0  0  0  0
    5.4306    0.6237    0.0000 C   0  0  0  0  0  0  0  0  0  0  0  0
    4.3159   -0.3800    0.0000 C   0  0  0  0  0  0  0  0  0  0  0  0
    4.4727   -1.8717    0.0000 Cl  0  0  0  0  0  0  0  0  0  0  0  0
    3.0169    0.3700    0.0000 S   0  0  0  0  0  0  0  0  0  0  0  0
  2  1  1  6
  2  3  1  0
  2  4  1  0
  4  5  1  6
  5  6  1  0
  6  7  2  0
  7  8  1  0
  8  9  2  0
  9 10  1  0
 10 11  1  0
 11 12  1  0
 12 13  1  0
 13 14  1  0
 14 15  1  0
  4 16  1  0
 16 17  2  0
 17 18  1  0
 18 19  2  0
 19 20  1  0
 19 21  1  0
 10  6  1  0
 15 11  1  0
 21 16  1  0
M  CHG  1   3   1
M  END
>  <Compound_ID>  (421) 
C43257233

>  <Active>  (421) 
0

>  <Smiles>  (421) 
C[C@@H]([NH3+])[C@@H](Sc1nnnn1C1CCCC1)c1ccc(Cl)s1

>  <canonical_smi>  (421) 
C[C@@H]([NH3+])[C@@H](Sc1nnnn1C1CCCC1)c1ccc(Cl)s1

>  <Set>  (421) 
G2 inactive

>  <Set_type>  (421) 
Train

>  <MW>  (421) 
344.92

>  <HBD>  (421) 
1

>  <HBA>  (421) 
4

>  <NRB>  (421) 
5

>  <NR>  (421) 
3

>  <NAR>  (421) 
2

>  <PSA>  (421) 
71.24

>  <Standard Type>  (421) 
nan

>  <Standard Relation>  (421) 
nan

>  <Standard Units>  (421) 
nan

>  <Standard Value>  (421) 
nan

>  <Assay ChEMBL ID>  (421) 
nan

>  <Assay Description>  (421) 
nan

>  <BAO Label>  (421) 
nan

$$$$

     RDKit          2D

 24 25  0  0  0  0  0  0  0  0999 V2000
    3.7500   -1.2990    0.0000 C   0  0  0  0  0  0  0  0  0  0  0  0
    3.0000    0.0000    0.0000 C   0  0  0  0  0  0  0  0  0  0  0  0
    3.7500    1.2990    0.0000 C   0  0  0  0  0  0  0  0  0  0  0  0
    1.5000    0.0000    0.0000 C   0  0  0  0  0  0  0  0  0  0  0  0
    0.7500   -1.2990    0.0000 C   0  0  0  0  0  0  0  0  0  0  0  0
   -0.7500   -1.2990    0.0000 C   0  0  0  0  0  0  0  0  0  0  0  0
   -1.5000    0.0000    0.0000 C   0  0  0  0  0  0  0  0  0  0  0  0
   -3.0000    0.0000    0.0000 C   0  0  0  0  0  0  0  0  0  0  0  0
   -0.7500    1.2990    0.0000 C   0  0  0  0  0  0  0  0  0  0  0  0
    0.7500    1.2990    0.0000 C   0  0  0  0  0  0  0  0  0  0  0  0
    1.5000    2.5981    0.0000 O   0  0  0  0  0  0  0  0  0  0  0  0
    0.7500    3.8971    0.0000 C   0  0  0  0  0  0  0  0  0  0  0  0
   -0.7500    3.8971    0.0000 O   0  0  0  0  0  0  0  0  0  0  0  0
    1.5000    5.1962    0.0000 C   0  0  0  0  0  0  0  0  0  0  0  0
    0.7500    6.4952    0.0000 N   0  0  0  0  0  4  0  0  0  0  0  0
    1.5000    7.7942    0.0000 C   0  0  0  0  0  0  0  0  0  0  0  0
    0.7500    9.0933    0.0000 C   0  0  0  0  0  0  0  0  0  0  0  0
   -0.7500    9.0933    0.0000 C   0  0  0  0  0  0  0  0  0  0  0  0
   -1.5000   10.3923    0.0000 C   0  0  0  0  0  0  0  0  0  0  0  0
   -0.7500   11.6913    0.0000 C   0  0  0  0  0  0  0  0  0  0  0  0
   -1.5000   12.9904    0.0000 N   0  0  0  0  0  0  0  0  0  0  0  0
    0.7500   11.6913    0.0000 O   0  0  0  0  0  0  0  0  0  0  0  0
   -1.5000    7.7942    0.0000 C   0  0  0  0  0  0  0  0  0  0  0  0
   -0.7500    6.4952    0.0000 C   0  0  0  0  0  0  0  0  0  0  0  0
  1  2  1  0
  2  3  1  0
  4  2  1  6
  4  5  1  0
  5  6  1  0
  6  7  1  0
  7  8  1  6
  7  9  1  0
  9 10  1  0
 10 11  1  1
 11 12  1  0
 12 13  2  0
 12 14  1  0
 14 15  1  0
 15 16  1  0
 16 17  1  0
 17 18  1  0
 18 19  1  0
 19 20  1  0
 20 21  1  0
 20 22  2  0
 18 23  1  0
 23 24  1  0
 10  4  1  0
 24 15  1  0
M  CHG  1  15   1
M  END
>  <Compound_ID>  (422) 
C48024988

>  <Active>  (422) 
0

>  <Smiles>  (422) 
CC(C)[C@@H]1CC[C@H](C)C[C@H]1OC(=O)C[NH+]1CCC(CC(N)=O)CC1

>  <canonical_smi>  (422) 
CC(C)[C@@H]1CC[C@H](C)C[C@H]1OC(=O)C[NH+]1CCC(CC(N)=O)CC1

>  <Set>  (422) 
G2 inactive

>  <Set_type>  (422) 
Train

>  <MW>  (422) 
339.5

>  <HBD>  (422) 
2

>  <HBA>  (422) 
3

>  <NRB>  (422) 
6

>  <NR>  (422) 
2

>  <NAR>  (422) 
0

>  <PSA>  (422) 
73.83

>  <Standard Type>  (422) 
nan

>  <Standard Relation>  (422) 
nan

>  <Standard Units>  (422) 
nan

>  <Standard Value>  (422) 
nan

>  <Assay ChEMBL ID>  (422) 
nan

>  <Assay Description>  (422) 
nan

>  <BAO Label>  (422) 
nan

$$$$

     RDKit          2D

 26 28  0  0  0  0  0  0  0  0999 V2000
    5.2500   -1.2990    0.0000 C   0  0  0  0  0  0  0  0  0  0  0  0
    3.7500   -1.2990    0.0000 C   0  0  0  0  0  0  0  0  0  0  0  0
    3.0000    0.0000    0.0000 N   0  0  0  0  0  0  0  0  0  0  0  0
    3.7500    1.2990    0.0000 C   0  0  0  0  0  0  0  0  0  0  0  0
    5.2500    1.2990    0.0000 C   0  0  0  0  0  0  0  0  0  0  0  0
    1.5000    0.0000    0.0000 C   0  0  0  0  0  0  0  0  0  0  0  0
    0.7500   -1.2990    0.0000 N   0  0  0  0  0  0  0  0  0  0  0  0
   -0.7500   -1.2990    0.0000 P   0  0  0  0  0  5  0  0  0  0  0  0
   -2.1595   -1.8121    0.0000 O   0  0  0  0  0  0  0  0  0  0  0  0
   -0.4895   -2.7762    0.0000 C   0  0  0  0  0  0  0  0  0  0  0  0
   -1.6386   -3.7404    0.0000 C   0  0  0  0  0  0  0  0  0  0  0  0
   -1.3781   -5.2176    0.0000 C   0  0  0  0  0  0  0  0  0  0  0  0
    0.0314   -5.7307    0.0000 C   0  0  0  0  0  0  0  0  0  0  0  0
    1.1805   -4.7665    0.0000 C   0  0  0  0  0  0  0  0  0  0  0  0
    0.9200   -3.2893    0.0000 C   0  0  0  0  0  0  0  0  0  0  0  0
   -1.5000    0.0000    0.0000 N   0  0  0  0  0  0  0  0  0  0  0  0
   -0.7500    1.2990    0.0000 C   0  0  0  0  0  0  0  0  0  0  0  0
   -1.5000    2.5981    0.0000 C   0  0  0  0  0  0  0  0  0  0  0  0
   -0.7500    3.8971    0.0000 C   0  0  0  0  0  0  0  0  0  0  0  0
   -1.5000    5.1962    0.0000 C   0  0  0  0  0  0  0  0  0  0  0  0
   -3.0000    5.1962    0.0000 C   0  0  0  0  0  0  0  0  0  0  0  0
   -3.7500    3.8971    0.0000 C   0  0  0  0  0  0  0  0  0  0  0  0
   -3.0000    2.5981    0.0000 C   0  0  0  0  0  0  0  0  0  0  0  0
    0.7500    1.2990    0.0000 C   0  0  0  0  0  0  0  0  0  0  0  0
    1.5000    2.5981    0.0000 C   0  0  0  0  0  0  0  0  0  0  0  0
    2.2500    3.8971    0.0000 N   0  0  0  0  0  0  0  0  0  0  0  0
  1  2  1  0
  2  3  1  0
  3  4  1  0
  4  5  1  0
  3  6  1  0
  6  7  2  0
  7  8  1  0
  8  9  2  0
  8 10  1  1
 10 11  2  0
 11 12  1  0
 12 13  2  0
 13 14  1  0
 14 15  2  0
  8 16  1  0
 16 17  1  0
 17 18  1  0
 18 19  2  0
 19 20  1  0
 20 21  2  0
 21 22  1  0
 22 23  2  0
 17 24  2  0
 24 25  1  0
 25 26  3  0
 24  6  1  0
 15 10  1  0
 23 18  1  0
M  END
>  <Compound_ID>  (423) 
C03188701

>  <Active>  (423) 
0

>  <Smiles>  (423) 
CCN(CC)C1=N[P@@](=O)(c2ccccc2)NC(c2ccccc2)=C1C#N

>  <canonical_smi>  (423) 
CCN(CC)C1=N[P@@](=O)(c2ccccc2)NC(c2ccccc2)=C1C#N

>  <Set>  (423) 
G2 inactive

>  <Set_type>  (423) 
Train

>  <MW>  (423) 
364.39

>  <HBD>  (423) 
1

>  <HBA>  (423) 
4

>  <NRB>  (423) 
4

>  <NR>  (423) 
3

>  <NAR>  (423) 
2

>  <PSA>  (423) 
68.49

>  <Standard Type>  (423) 
nan

>  <Standard Relation>  (423) 
nan

>  <Standard Units>  (423) 
nan

>  <Standard Value>  (423) 
nan

>  <Assay ChEMBL ID>  (423) 
nan

>  <Assay Description>  (423) 
nan

>  <BAO Label>  (423) 
nan

$$$$

     RDKit          2D

 30 30  0  0  0  0  0  0  0  0999 V2000
    3.0000    0.0000    0.0000 C   0  0  0  0  0  0  0  0  0  0  0  0
    1.5000    0.0000    0.0000 C   0  0  0  0  0  0  0  0  0  0  0  0
    0.7500   -1.2990    0.0000 C   0  0  0  0  0  0  0  0  0  0  0  0
   -0.7500   -1.2990    0.0000 C   0  0  0  0  0  0  0  0  0  0  0  0
   -1.5000    0.0000    0.0000 C   0  0  0  0  0  0  0  0  0  0  0  0
   -0.7500    1.2990    0.0000 C   0  0  0  0  0  0  0  0  0  0  0  0
   -1.5000    2.5981    0.0000 C   0  0  0  0  0  0  0  0  0  0  0  0
    0.7500    1.2990    0.0000 C   0  0  0  0  0  0  0  0  0  0  0  0
    0.4895    2.7762    0.0000 C   0  0  0  0  0  0  0  0  0  0  0  0
    2.1595    1.8121    0.0000 C   0  0  0  0  0  0  0  0  0  0  0  0
    3.3086    0.8479    0.0000 C   0  0  0  0  0  0  0  0  0  0  0  0
    4.7181    1.3609    0.0000 C   0  0  0  0  0  0  0  0  0  0  0  0
    4.9786    2.8381    0.0000 C   0  0  0  0  0  0  0  0  0  0  0  0
    5.8672    0.3967    0.0000 C   0  0  0  0  0  0  0  0  0  0  0  0
    7.2768    0.9098    0.0000 C   0  0  0  0  0  0  0  0  0  0  0  0
    8.4258   -0.0544    0.0000 C   0  0  0  0  0  0  0  0  0  0  0  0
    9.8354    0.4586    0.0000 C   0  0  0  0  0  0  0  0  0  0  0  0
   10.9844   -0.5056    0.0000 C   0  0  0  0  0  0  0  0  0  0  0  0
   10.7240   -1.9828    0.0000 C   0  0  0  0  0  0  0  0  0  0  0  0
   11.8730   -2.9470    0.0000 S   0  0  0  0  0  0  0  0  0  0  0  0
   10.9088   -4.0960    0.0000 O   0  0  0  0  0  0  0  0  0  0  0  0
   12.8372   -1.7979    0.0000 O   0  0  0  0  0  0  0  0  0  0  0  0
   13.0221   -3.9111    0.0000 C   0  0  0  0  0  0  0  0  0  0  0  0
   14.4316   -3.3981    0.0000 C   0  0  0  0  0  0  0  0  0  0  0  0
   15.5807   -4.3623    0.0000 N   0  0  0  0  0  4  0  0  0  0  0  0
   16.9902   -3.8493    0.0000 C   0  0  0  0  0  0  0  0  0  0  0  0
   18.1393   -4.8134    0.0000 N   0  0  0  0  0  0  0  0  0  0  0  0
   17.2507   -2.3721    0.0000 N   0  0  0  0  0  0  0  0  0  0  0  0
   10.0958    1.9358    0.0000 C   0  0  0  0  0  0  0  0  0  0  0  0
   11.5054    2.4489    0.0000 O   0  0  0  0  0  0  0  0  0  0  0  0
  1  2  1  0
  2  3  2  0
  3  4  1  0
  4  5  1  0
  5  6  1  0
  6  7  1  1
  6  8  1  0
  8  9  1  1
  8 10  1  0
 10 11  1  0
 11 12  1  0
 12 13  1  0
 12 14  2  0
 14 15  1  0
 15 16  1  0
 16 17  1  0
 17 18  2  0
 18 19  1  0
 19 20  1  0
 20 21  2  0
 20 22  2  0
 20 23  1  0
 23 24  1  0
 24 25  1  0
 25 26  2  0
 26 27  1  0
 26 28  1  0
 17 29  1  0
 29 30  1  0
  8  2  1  0
M  CHG  1  25   1
M  END
>  <Compound_ID>  (424) 
C17218656

>  <Active>  (424) 
0

>  <Smiles>  (424) 
CC1=CCC[C@@H](C)[C@]1(C)CC/C(C)=C/CC/C(=C\CS(=O)(=O)CC[NH+]=C(N)N)CO

>  <canonical_smi>  (424) 
CC1=CCC[C@@H](C)[C@]1(C)CC/C(C)=C/CC/C(=C\CS(=O)(=O)CC[NH+]=C(N)N)CO

>  <Set>  (424) 
G2 inactive

>  <Set_type>  (424) 
Train

>  <MW>  (424) 
440.67

>  <HBD>  (424) 
4

>  <HBA>  (424) 
5

>  <NRB>  (424) 
12

>  <NR>  (424) 
1

>  <NAR>  (424) 
0

>  <PSA>  (424) 
120.38

>  <Standard Type>  (424) 
nan

>  <Standard Relation>  (424) 
nan

>  <Standard Units>  (424) 
nan

>  <Standard Value>  (424) 
nan

>  <Assay ChEMBL ID>  (424) 
nan

>  <Assay Description>  (424) 
nan

>  <BAO Label>  (424) 
nan

$$$$

     RDKit          2D

 29 31  0  0  0  0  0  0  0  0999 V2000
   10.5419   -9.1660    0.0000 C   0  0  0  0  0  0  0  0  0  0  0  0
    9.4272   -8.1623    0.0000 C   0  0  0  0  0  0  0  0  0  0  0  0
    8.3125   -7.1586    0.0000 C   0  0  0  0  0  0  0  0  0  0  0  0
    7.1978   -6.1549    0.0000 C   0  0  0  0  0  0  0  0  0  0  0  0
    7.5097   -4.6876    0.0000 C   0  0  0  0  0  0  0  0  0  0  0  0
    8.9362   -4.2241    0.0000 C   0  0  0  0  0  0  0  0  0  0  0  0
    6.3949   -3.6839    0.0000 C   0  0  0  0  0  0  0  0  0  0  0  0
    6.7068   -2.2167    0.0000 O   0  0  0  0  0  0  0  0  0  0  0  0
    4.9684   -4.1475    0.0000 C   0  0  0  0  0  0  0  0  0  0  0  0
    3.8536   -3.1438    0.0000 C   0  0  0  0  0  0  0  0  0  0  0  0
    2.4271   -3.6073    0.0000 C   0  0  0  0  0  0  0  0  0  0  0  0
    1.2135   -2.7256    0.0000 C   0  0  0  0  0  0  0  0  0  0  0  0
    0.7500   -1.2990    0.0000 C   0  0  0  0  0  0  0  0  0  0  0  0
    1.5000    0.0000    0.0000 C   0  0  0  0  0  0  0  0  0  0  0  0
    0.7500    1.2990    0.0000 C   0  0  0  0  0  0  0  0  0  0  0  0
   -0.7500    1.2990    0.0000 C   0  0  0  0  0  0  0  0  0  0  0  0
   -1.5000    0.0000    0.0000 C   0  0  0  0  0  0  0  0  0  0  0  0
   -3.0000    0.0000    0.0000 C   0  0  0  0  0  0  0  0  0  0  0  0
   -3.7500    1.2990    0.0000 C   0  0  0  0  0  0  0  0  0  0  0  0
   -5.2500    1.2990    0.0000 C   0  0  0  0  0  0  0  0  0  0  0  0
   -6.0000    2.5981    0.0000 C   0  0  0  0  0  0  0  0  0  0  0  0
   -5.2500    3.8971    0.0000 O   0  0  0  0  0  0  0  0  0  0  0  0
   -7.5000    2.5981    0.0000 O   0  0  0  0  0  1  0  0  0  0  0  0
   -0.7500   -1.2990    0.0000 C   0  0  0  0  0  0  0  0  0  0  0  0
   -1.2135   -2.7256    0.0000 O   0  0  0  0  0  0  0  0  0  0  0  0
    0.0000   -3.6073    0.0000 C   0  0  0  0  0  0  0  0  0  0  0  0
    0.4635   -5.0339    0.0000 C   0  0  0  0  0  0  0  0  0  0  0  0
    1.9635   -5.0339    0.0000 C   0  0  0  0  0  0  0  0  0  0  0  0
    2.8452   -6.2474    0.0000 O   0  0  0  0  0  0  0  0  0  0  0  0
  1  2  1  0
  2  3  3  0
  3  4  1  0
  4  5  1  0
  5  6  1  6
  5  7  1  0
  7  8  1  1
  7  9  1  0
  9 10  2  0
 11 10  1  6
 11 12  1  0
 12 13  1  6
 13 14  2  0
 14 15  1  0
 15 16  2  0
 16 17  1  0
 17 18  1  0
 18 19  1  0
 19 20  1  0
 20 21  1  0
 21 22  2  0
 21 23  1  0
 17 24  2  0
 24 25  1  0
 25 26  1  0
 26 27  1  6
 27 28  1  0
 28 29  1  6
 28 11  1  0
 26 12  1  0
 24 13  1  0
M  CHG  1  23  -1
M  END
>  <Compound_ID>  (425) 
C27642591

>  <Active>  (425) 
0

>  <Smiles>  (425) 
CC#CC[C@@H](C)[C@H](O)/C=C/[C@H]1[C@H]2c3cccc(CCCC(=O)[O-])c3O[C@H]2C[C@H]1O

>  <canonical_smi>  (425) 
CC#CC[C@@H](C)[C@H](O)/C=C/[C@H]1[C@H]2c3cccc(CCCC(=O)[O-])c3O[C@H]2C[C@H]1O

>  <Set>  (425) 
G2 inactive

>  <Set_type>  (425) 
Train

>  <MW>  (425) 
397.49

>  <HBD>  (425) 
2

>  <HBA>  (425) 
5

>  <NRB>  (425) 
8

>  <NR>  (425) 
3

>  <NAR>  (425) 
1

>  <PSA>  (425) 
89.82

>  <Standard Type>  (425) 
nan

>  <Standard Relation>  (425) 
nan

>  <Standard Units>  (425) 
nan

>  <Standard Value>  (425) 
nan

>  <Assay ChEMBL ID>  (425) 
nan

>  <Assay Description>  (425) 
nan

>  <BAO Label>  (425) 
nan

$$$$

     RDKit          2D

 25 26  0  0  0  0  0  0  0  0999 V2000
    3.0000    0.0000    0.0000 C   0  0  0  0  0  0  0  0  0  0  0  0
    1.5000    0.0000    0.0000 C   0  0  0  0  0  0  0  0  0  0  0  0
    0.7500   -1.2990    0.0000 C   0  0  0  0  0  0  0  0  0  0  0  0
   -0.7500   -1.2990    0.0000 C   0  0  0  0  0  0  0  0  0  0  0  0
   -1.5000    0.0000    0.0000 C   0  0  0  0  0  0  0  0  0  0  0  0
   -3.0000    0.0000    0.0000 C   0  0  0  0  0  0  0  0  0  0  0  0
   -3.8817   -1.2135    0.0000 N   0  0  0  0  0  0  0  0  0  0  0  0
   -5.3083   -0.7500    0.0000 C   0  0  0  0  0  0  0  0  0  0  0  0
   -5.3083    0.7500    0.0000 C   0  0  0  0  0  0  0  0  0  0  0  0
   -6.5218    1.6317    0.0000 C   0  0  0  0  0  0  0  0  0  0  0  0
   -7.8921    1.0216    0.0000 O   0  0  0  0  0  0  0  0  0  0  0  0
   -6.3650    3.1235    0.0000 N   0  0  0  0  0  0  0  0  0  0  0  0
   -7.5785    4.0051    0.0000 N   0  0  0  0  0  0  0  0  0  0  0  0
   -7.4217    5.4969    0.0000 C   0  0  0  0  0  0  0  0  0  0  0  0
   -8.6353    6.3786    0.0000 S   0  0  0  0  0  1  0  0  0  0  0  0
   -6.0514    6.1070    0.0000 N   0  0  0  0  0  0  0  0  0  0  0  0
   -5.8946    7.5988    0.0000 C   0  0  0  0  0  0  0  0  0  0  0  0
   -4.5243    8.2089    0.0000 C   0  0  0  0  0  0  0  0  0  0  0  0
   -3.1540    8.8190    0.0000 F   0  0  0  0  0  0  0  0  0  0  0  0
   -5.1344    9.5792    0.0000 F   0  0  0  0  0  0  0  0  0  0  0  0
   -3.9142    6.8386    0.0000 F   0  0  0  0  0  0  0  0  0  0  0  0
   -3.8817    1.2135    0.0000 S   0  0  0  0  0  0  0  0  0  0  0  0
   -0.7500    1.2990    0.0000 C   0  0  0  0  0  0  0  0  0  0  0  0
   -1.5000    2.5981    0.0000 C   0  0  0  0  0  0  0  0  0  0  0  0
    0.7500    1.2990    0.0000 C   0  0  0  0  0  0  0  0  0  0  0  0
  1  2  1  0
  2  3  2  0
  3  4  1  0
  4  5  2  0
  5  6  1  0
  6  7  2  0
  7  8  1  0
  8  9  2  0
  9 10  1  0
 10 11  2  0
 10 12  1  0
 12 13  1  0
 13 14  2  0
 14 15  1  0
 14 16  1  0
 16 17  1  0
 17 18  1  0
 18 19  1  0
 18 20  1  0
 18 21  1  0
  9 22  1  0
  5 23  1  0
 23 24  1  0
 23 25  2  0
 25  2  1  0
 22  6  1  0
M  CHG  1  15  -1
M  END
>  <Compound_ID>  (426) 
C61626862

>  <Active>  (426) 
0

>  <Smiles>  (426) 
Cc1ccc(-c2ncc(C(=O)N/N=C(/[S-])NCC(F)(F)F)s2)c(C)c1

>  <canonical_smi>  (426) 
Cc1ccc(-c2ncc(C(=O)N/N=C(/[S-])NCC(F)(F)F)s2)c(C)c1

>  <Set>  (426) 
G2 inactive

>  <Set_type>  (426) 
Train

>  <MW>  (426) 
387.43

>  <HBD>  (426) 
2

>  <HBA>  (426) 
4

>  <NRB>  (426) 
4

>  <NR>  (426) 
2

>  <NAR>  (426) 
2

>  <PSA>  (426) 
66.38

>  <Standard Type>  (426) 
nan

>  <Standard Relation>  (426) 
nan

>  <Standard Units>  (426) 
nan

>  <Standard Value>  (426) 
nan

>  <Assay ChEMBL ID>  (426) 
nan

>  <Assay Description>  (426) 
nan

>  <BAO Label>  (426) 
nan

$$$$

     RDKit          2D

 21 22  0  0  0  0  0  0  0  0999 V2000
    3.0000    0.0000    0.0000 O   0  0  0  0  0  0  0  0  0  0  0  0
    1.5000    0.0000    0.0000 C   0  0  0  0  0  0  0  0  0  0  0  0
    0.7500   -1.2990    0.0000 C   0  0  0  0  0  0  0  0  0  0  0  0
   -0.7500   -1.2990    0.0000 C   0  0  0  0  0  0  0  0  0  0  0  0
   -1.5000    0.0000    0.0000 C   0  0  0  0  0  0  0  0  0  0  0  0
   -3.0000    0.0000    0.0000 C   0  0  0  0  0  0  0  0  0  0  0  0
   -3.7500    1.2990    0.0000 N   0  0  0  0  0  0  0  0  0  0  0  0
   -5.2500    1.2990    0.0000 C   0  0  0  0  0  0  0  0  0  0  0  0
   -6.0000    2.5981    0.0000 C   0  0  0  0  0  0  0  0  0  0  0  0
   -7.5000    2.5981    0.0000 C   0  0  0  0  0  0  0  0  0  0  0  0
   -8.2500    1.2990    0.0000 C   0  0  0  0  0  0  0  0  0  0  0  0
   -9.7500    1.2990    0.0000 Br  0  0  0  0  0  0  0  0  0  0  0  0
   -7.5000    0.0000    0.0000 C   0  0  0  0  0  0  0  0  0  0  0  0
   -8.2500   -1.2990    0.0000 C   0  0  0  0  0  0  0  0  0  0  0  0
   -9.0000   -2.5981    0.0000 F   0  0  0  0  0  0  0  0  0  0  0  0
   -6.9510   -2.0490    0.0000 F   0  0  0  0  0  0  0  0  0  0  0  0
   -9.5490   -0.5490    0.0000 F   0  0  0  0  0  0  0  0  0  0  0  0
   -6.0000    0.0000    0.0000 C   0  0  0  0  0  0  0  0  0  0  0  0
   -0.7500    1.2990    0.0000 C   0  0  0  0  0  0  0  0  0  0  0  0
   -1.5000    2.5981    0.0000 O   0  0  0  0  0  0  0  0  0  0  0  0
    0.7500    1.2990    0.0000 C   0  0  0  0  0  0  0  0  0  0  0  0
  1  2  1  0
  2  3  2  0
  3  4  1  0
  4  5  2  0
  5  6  1  0
  6  7  1  0
  7  8  1  0
  8  9  2  0
  9 10  1  0
 10 11  2  0
 11 12  1  0
 11 13  1  0
 13 14  1  0
 14 15  1  0
 14 16  1  0
 14 17  1  0
 13 18  2  0
  5 19  1  0
 19 20  1  0
 19 21  2  0
 21  2  1  0
 18  8  1  0
M  END
>  <Compound_ID>  (427) 
C36952175

>  <Active>  (427) 
0

>  <Smiles>  (427) 
Oc1ccc(CNc2ccc(Br)c(C(F)(F)F)c2)c(O)c1

>  <canonical_smi>  (427) 
Oc1ccc(CNc2ccc(Br)c(C(F)(F)F)c2)c(O)c1

>  <Set>  (427) 
G2 inactive

>  <Set_type>  (427) 
Train

>  <MW>  (427) 
362.14

>  <HBD>  (427) 
3

>  <HBA>  (427) 
3

>  <NRB>  (427) 
3

>  <NR>  (427) 
2

>  <NAR>  (427) 
2

>  <PSA>  (427) 
52.49

>  <Standard Type>  (427) 
nan

>  <Standard Relation>  (427) 
nan

>  <Standard Units>  (427) 
nan

>  <Standard Value>  (427) 
nan

>  <Assay ChEMBL ID>  (427) 
nan

>  <Assay Description>  (427) 
nan

>  <BAO Label>  (427) 
nan

$$$$

     RDKit          2D

 22 23  0  0  0  0  0  0  0  0999 V2000
    0.7500   -6.4952    0.0000 C   0  0  0  0  0  0  0  0  0  0  0  0
    1.5000   -5.1962    0.0000 N   0  0  0  0  0  0  0  0  0  0  0  0
    3.0000   -5.1962    0.0000 C   0  0  0  0  0  0  0  0  0  0  0  0
    3.7500   -6.4952    0.0000 C   0  0  0  0  0  0  0  0  0  0  0  0
    5.2418   -6.6520    0.0000 C   0  0  0  0  0  0  0  0  0  0  0  0
    5.5537   -8.1192    0.0000 C   0  0  0  0  0  0  0  0  0  0  0  0
    4.2546   -8.8692    0.0000 C   0  0  0  0  0  0  0  0  0  0  0  0
    4.0978  -10.3610    0.0000 Cl  0  0  0  0  0  0  0  0  0  0  0  0
    3.1399   -7.8655    0.0000 S   0  0  0  0  0  0  0  0  0  0  0  0
    0.7500   -3.8971    0.0000 C   0  0  0  0  0  0  0  0  0  0  0  0
   -0.7500   -3.8971    0.0000 O   0  0  0  0  0  0  0  0  0  0  0  0
    1.5000   -2.5981    0.0000 N   0  0  0  0  0  0  0  0  0  0  0  0
    0.7500   -1.2990    0.0000 C   0  0  0  0  0  0  0  0  0  0  0  0
    1.5000    0.0000    0.0000 C   0  0  0  0  0  0  0  0  0  0  0  0
    0.7500    1.2990    0.0000 C   0  0  0  0  0  0  0  0  0  0  0  0
   -0.7500    1.2990    0.0000 C   0  0  0  0  0  0  0  0  0  0  0  0
   -1.5000    0.0000    0.0000 C   0  0  0  0  0  0  0  0  0  0  0  0
   -3.0000    0.0000    0.0000 C   0  0  0  0  0  0  0  0  0  0  0  0
   -4.5000    0.0000    0.0000 F   0  0  0  0  0  0  0  0  0  0  0  0
   -3.0000    1.5000    0.0000 F   0  0  0  0  0  0  0  0  0  0  0  0
   -3.0000   -1.5000    0.0000 F   0  0  0  0  0  0  0  0  0  0  0  0
   -0.7500   -1.2990    0.0000 C   0  0  0  0  0  0  0  0  0  0  0  0
  1  2  1  0
  2  3  1  0
  3  4  1  0
  4  5  2  0
  5  6  1  0
  6  7  2  0
  7  8  1  0
  7  9  1  0
  2 10  1  0
 10 11  2  0
 10 12  1  0
 13 12  1  6
 13 14  1  0
 14 15  1  0
 15 16  1  0
 16 17  1  0
 17 18  1  1
 18 19  1  0
 18 20  1  0
 18 21  1  0
 17 22  1  0
  9  4  1  0
 22 13  1  0
M  END
>  <Compound_ID>  (428) 
C26295086

>  <Active>  (428) 
0

>  <Smiles>  (428) 
CN(Cc1ccc(Cl)s1)C(=O)N[C@H]1CCC[C@H](C(F)(F)F)C1

>  <canonical_smi>  (428) 
CN(Cc1ccc(Cl)s1)C(=O)N[C@H]1CCC[C@H](C(F)(F)F)C1

>  <Set>  (428) 
G2 inactive

>  <Set_type>  (428) 
Train

>  <MW>  (428) 
354.83

>  <HBD>  (428) 
1

>  <HBA>  (428) 
1

>  <NRB>  (428) 
3

>  <NR>  (428) 
2

>  <NAR>  (428) 
1

>  <PSA>  (428) 
32.34

>  <Standard Type>  (428) 
nan

>  <Standard Relation>  (428) 
nan

>  <Standard Units>  (428) 
nan

>  <Standard Value>  (428) 
nan

>  <Assay ChEMBL ID>  (428) 
nan

>  <Assay Description>  (428) 
nan

>  <BAO Label>  (428) 
nan

$$$$

     RDKit          2D

 25 28  0  0  0  0  0  0  0  0999 V2000
   -1.5000   -5.1962    0.0000 O   0  0  0  0  0  0  0  0  0  0  0  0
   -0.7500   -3.8971    0.0000 C   0  0  0  0  0  0  0  0  0  0  0  0
    0.7500   -3.8971    0.0000 C   0  0  0  0  0  0  0  0  0  0  0  0
    1.5000   -2.5981    0.0000 C   0  0  0  0  0  0  0  0  0  0  0  0
    0.7500   -1.2990    0.0000 C   0  0  0  0  0  0  0  0  0  0  0  0
    1.5000    0.0000    0.0000 C   0  0  0  0  0  0  0  0  0  0  0  0
    0.7500    1.2990    0.0000 C   0  0  0  0  0  0  0  0  0  0  0  0
   -0.7500    1.2990    0.0000 C   0  0  0  0  0  0  0  0  0  0  0  0
   -1.5000    0.0000    0.0000 C   0  0  0  0  0  0  0  0  0  0  0  0
   -0.7500   -1.2990    0.0000 C   0  0  0  0  0  0  0  0  0  0  0  0
   -1.5000   -2.5981    0.0000 C   0  0  0  0  0  0  0  0  0  0  0  0
   -3.0000   -2.5981    0.0000 C   0  0  0  0  0  0  0  0  0  0  0  0
   -3.7500   -3.8971    0.0000 N   0  0  0  0  0  0  0  0  0  0  0  0
   -5.2500   -3.8971    0.0000 C   0  0  0  0  0  0  0  0  0  0  0  0
   -6.0000   -5.1962    0.0000 C   0  0  0  0  0  0  0  0  0  0  0  0
   -5.2500   -6.4952    0.0000 N   0  0  0  0  0  0  0  0  0  0  0  0
   -6.0000   -7.7942    0.0000 C   0  0  0  0  0  0  0  0  0  0  0  0
   -7.5000   -7.7942    0.0000 C   0  0  0  0  0  0  0  0  0  0  0  0
   -8.2500   -9.0933    0.0000 C   0  0  0  0  0  0  0  0  0  0  0  0
   -7.5000  -10.3923    0.0000 C   0  0  0  0  0  0  0  0  0  0  0  0
   -8.2500  -11.6913    0.0000 F   0  0  0  0  0  0  0  0  0  0  0  0
   -6.0000  -10.3923    0.0000 C   0  0  0  0  0  0  0  0  0  0  0  0
   -5.2500   -9.0933    0.0000 C   0  0  0  0  0  0  0  0  0  0  0  0
   -3.7500   -6.4952    0.0000 C   0  0  0  0  0  0  0  0  0  0  0  0
   -3.0000   -5.1962    0.0000 C   0  0  0  0  0  0  0  0  0  0  0  0
  1  2  1  0
  2  3  2  0
  3  4  1  0
  4  5  2  0
  5  6  1  0
  6  7  2  0
  7  8  1  0
  8  9  2  0
  9 10  1  0
 10 11  2  0
 11 12  1  0
 12 13  1  0
 13 14  1  0
 14 15  1  0
 15 16  1  0
 16 17  1  0
 17 18  2  0
 18 19  1  0
 19 20  2  0
 20 21  1  0
 20 22  1  0
 22 23  2  0
 16 24  1  0
 24 25  1  0
 11  2  1  0
 25 13  1  0
 10  5  1  0
 23 17  1  0
M  END
>  <Compound_ID>  (429) 
C23295819

>  <Active>  (429) 
0

>  <Smiles>  (429) 
Oc1ccc2ccccc2c1CN1CCN(c2ccc(F)cc2)CC1

>  <canonical_smi>  (429) 
Oc1ccc2ccccc2c1CN1CCN(c2ccc(F)cc2)CC1

>  <Set>  (429) 
G2 inactive

>  <Set_type>  (429) 
Train

>  <MW>  (429) 
336.41

>  <HBD>  (429) 
1

>  <HBA>  (429) 
3

>  <NRB>  (429) 
3

>  <NR>  (429) 
4

>  <NAR>  (429) 
3

>  <PSA>  (429) 
26.71

>  <Standard Type>  (429) 
nan

>  <Standard Relation>  (429) 
nan

>  <Standard Units>  (429) 
nan

>  <Standard Value>  (429) 
nan

>  <Assay ChEMBL ID>  (429) 
nan

>  <Assay Description>  (429) 
nan

>  <BAO Label>  (429) 
nan

$$$$

     RDKit          2D

 32 34  0  0  0  0  0  0  0  0999 V2000
    5.7888    1.6004    0.0000 C   0  0  0  0  0  0  0  0  0  0  0  0
    4.6741    2.6041    0.0000 C   0  0  0  0  0  0  0  0  0  0  0  0
    3.2475    2.1406    0.0000 C   0  0  0  0  0  0  0  0  0  0  0  0
    2.1328    3.1443    0.0000 C   0  0  0  0  0  0  0  0  0  0  0  0
    0.7062    2.6807    0.0000 N   0  0  0  0  0  0  0  0  0  0  0  0
   -0.4086    3.6844    0.0000 C   0  0  0  0  0  0  0  0  0  0  0  0
   -0.0967    5.1517    0.0000 O   0  0  0  0  0  0  0  0  0  0  0  0
   -1.8351    3.2209    0.0000 N   0  0  0  0  0  0  0  0  0  0  0  0
   -2.1470    1.7537    0.0000 C   0  0  0  0  0  0  0  0  0  0  0  0
   -3.5736    1.2902    0.0000 O   0  0  0  0  0  0  0  0  0  0  0  0
   -1.0323    0.7500    0.0000 C   0  0  0  0  0  0  0  0  0  0  0  0
    0.3943    1.2135    0.0000 C   0  0  0  0  0  0  0  0  0  0  0  0
    1.2760    0.0000    0.0000 N   0  0  0  0  0  0  0  0  0  0  0  0
    0.3943   -1.2135    0.0000 C   0  0  0  0  0  0  0  0  0  0  0  0
    0.8578   -2.6401    0.0000 C   0  0  0  0  0  0  0  0  0  0  0  0
   -0.1459   -3.7548    0.0000 C   0  0  0  0  0  0  0  0  0  0  0  0
    0.3177   -5.1814    0.0000 C   0  0  0  0  0  0  0  0  0  0  0  0
    1.7849   -5.4933    0.0000 O   0  0  0  0  0  0  0  0  0  0  0  0
   -0.6860   -6.2961    0.0000 N   0  0  0  0  0  0  0  0  0  0  0  0
   -0.2225   -7.7227    0.0000 C   0  0  0  0  0  0  0  0  0  0  0  0
    1.2041   -8.1862    0.0000 N   0  0  0  0  0  0  0  0  0  0  0  0
    1.2041   -9.6862    0.0000 C   0  0  0  0  0  0  0  0  0  0  0  0
    2.4176  -10.5679    0.0000 C   0  0  0  0  0  0  0  0  0  0  0  0
    2.2608  -12.0597    0.0000 C   0  0  0  0  0  0  0  0  0  0  0  0
    3.7879   -9.9578    0.0000 C   0  0  0  0  0  0  0  0  0  0  0  0
   -0.2225  -10.1498    0.0000 C   0  0  0  0  0  0  0  0  0  0  0  0
   -1.1042   -8.9362    0.0000 S   0  0  0  0  0  0  0  0  0  0  0  0
   -1.0323   -0.7500    0.0000 N   0  0  0  0  0  0  0  0  0  0  0  0
   -2.2458   -1.6317    0.0000 C   0  0  0  0  0  0  0  0  0  0  0  0
   -3.6161   -1.0216    0.0000 C   0  0  0  0  0  0  0  0  0  0  0  0
   -3.7729    0.4702    0.0000 C   0  0  0  0  0  0  0  0  0  0  0  0
   -4.8297   -1.9033    0.0000 C   0  0  0  0  0  0  0  0  0  0  0  0
  1  2  1  0
  2  3  1  0
  3  4  1  0
  4  5  1  0
  5  6  1  0
  6  7  2  0
  6  8  1  0
  8  9  1  0
  9 10  2  0
  9 11  1  0
 11 12  2  0
 12 13  1  0
 13 14  2  0
 14 15  1  0
 15 16  1  0
 16 17  1  0
 17 18  2  0
 17 19  1  0
 19 20  1  0
 20 21  2  0
 21 22  1  0
 22 23  1  0
 23 24  1  0
 23 25  1  0
 22 26  2  0
 26 27  1  0
 14 28  1  0
 28 29  1  0
 29 30  1  0
 30 31  1  0
 30 32  1  0
 12  5  1  0
 27 20  1  0
 28 11  1  0
M  END
>  <Compound_ID>  (430) 
C10556415

>  <Active>  (430) 
0

>  <Smiles>  (430) 
CCCCn1c(=O)[nH]c(=O)c2c1nc(CCC(=O)Nc1nc(C(C)C)cs1)n2CC(C)C

>  <canonical_smi>  (430) 
CCCCn1c(=O)[nH]c(=O)c2c1nc(CCC(=O)Nc1nc(C(C)C)cs1)n2CC(C)C

>  <Set>  (430) 
G2 inactive

>  <Set_type>  (430) 
Train

>  <MW>  (430) 
460.6

>  <HBD>  (430) 
2

>  <HBA>  (430) 
5

>  <NRB>  (430) 
10

>  <NR>  (430) 
3

>  <NAR>  (430) 
3

>  <PSA>  (430) 
114.67

>  <Standard Type>  (430) 
nan

>  <Standard Relation>  (430) 
nan

>  <Standard Units>  (430) 
nan

>  <Standard Value>  (430) 
nan

>  <Assay ChEMBL ID>  (430) 
nan

>  <Assay Description>  (430) 
nan

>  <BAO Label>  (430) 
nan

$$$$

     RDKit          2D

 26 27  0  0  0  0  0  0  0  0999 V2000
    9.7500    1.2990    0.0000 C   0  0  0  0  0  0  0  0  0  0  0  0
    9.0000   -0.0000    0.0000 N   0  0  0  0  0  0  0  0  0  0  0  0
    7.5000    0.0000    0.0000 C   0  0  0  0  0  0  0  0  0  0  0  0
    6.7500    1.2990    0.0000 O   0  0  0  0  0  0  0  0  0  0  0  0
    6.7500   -1.2990    0.0000 N   0  0  0  0  0  0  0  0  0  0  0  0
    5.2500   -1.2990    0.0000 C   0  0  0  0  0  0  0  0  0  0  0  0
    5.2500    0.2010    0.0000 C   0  0  0  0  0  0  0  0  0  0  0  0
    5.2500   -2.7990    0.0000 C   0  0  0  0  0  0  0  0  0  0  0  0
    3.7500   -1.2990    0.0000 C   0  0  0  0  0  0  0  0  0  0  0  0
    3.0000   -2.5981    0.0000 O   0  0  0  0  0  0  0  0  0  0  0  0
    3.0000    0.0000    0.0000 N   0  0  0  0  0  0  0  0  0  0  0  0
    1.5000    0.0000    0.0000 C   0  0  0  0  0  0  0  0  0  0  0  0
    0.7500   -1.2990    0.0000 C   0  0  0  0  0  0  0  0  0  0  0  0
   -0.7500   -1.2990    0.0000 C   0  0  0  0  0  0  0  0  0  0  0  0
   -1.5000    0.0000    0.0000 C   0  0  0  0  0  0  0  0  0  0  0  0
   -0.7500    1.2990    0.0000 C   0  0  0  0  0  0  0  0  0  0  0  0
   -1.5000    2.5981    0.0000 O   0  0  0  0  0  0  0  0  0  0  0  0
   -0.7500    3.8971    0.0000 C   0  0  0  0  0  0  0  0  0  0  0  0
   -1.5000    5.1962    0.0000 C   0  0  0  0  0  0  0  0  0  0  0  0
   -0.7500    6.4952    0.0000 C   0  0  0  0  0  0  0  0  0  0  0  0
   -1.5000    7.7942    0.0000 C   0  0  0  0  0  0  0  0  0  0  0  0
   -3.0000    7.7942    0.0000 C   0  0  0  0  0  0  0  0  0  0  0  0
   -3.7500    9.0933    0.0000 F   0  0  0  0  0  0  0  0  0  0  0  0
   -3.7500    6.4952    0.0000 C   0  0  0  0  0  0  0  0  0  0  0  0
   -3.0000    5.1962    0.0000 C   0  0  0  0  0  0  0  0  0  0  0  0
    0.7500    1.2990    0.0000 C   0  0  0  0  0  0  0  0  0  0  0  0
  1  2  1  0
  2  3  1  0
  3  4  2  0
  3  5  1  0
  5  6  1  0
  6  7  1  0
  6  8  1  0
  6  9  1  0
  9 10  2  0
  9 11  1  0
 11 12  1  0
 12 13  2  0
 13 14  1  0
 14 15  2  0
 15 16  1  0
 16 17  1  0
 17 18  1  0
 18 19  1  0
 19 20  2  0
 20 21  1  0
 21 22  2  0
 22 23  1  0
 22 24  1  0
 24 25  2  0
 16 26  2  0
 26 12  1  0
 25 19  1  0
M  END
>  <Compound_ID>  (431) 
C53447087

>  <Active>  (431) 
0

>  <Smiles>  (431) 
CNC(=O)NC(C)(C)C(=O)Nc1cccc(OCc2ccc(F)cc2)c1

>  <canonical_smi>  (431) 
CNC(=O)NC(C)(C)C(=O)Nc1cccc(OCc2ccc(F)cc2)c1

>  <Set>  (431) 
G2 inactive

>  <Set_type>  (431) 
Train

>  <MW>  (431) 
359.4

>  <HBD>  (431) 
3

>  <HBA>  (431) 
3

>  <NRB>  (431) 
6

>  <NR>  (431) 
2

>  <NAR>  (431) 
2

>  <PSA>  (431) 
79.46

>  <Standard Type>  (431) 
nan

>  <Standard Relation>  (431) 
nan

>  <Standard Units>  (431) 
nan

>  <Standard Value>  (431) 
nan

>  <Assay ChEMBL ID>  (431) 
nan

>  <Assay Description>  (431) 
nan

>  <BAO Label>  (431) 
nan

$$$$

     RDKit          2D

 26 29  0  0  0  0  0  0  0  0999 V2000
    2.4558   -8.7791    0.0000 C   0  0  0  0  0  0  0  0  0  0  0  0
    1.3411   -7.7755    0.0000 C   0  0  0  0  0  0  0  0  0  0  0  0
   -0.0855   -8.2390    0.0000 N   0  0  0  0  0  0  0  0  0  0  0  0
   -1.2990   -7.3573    0.0000 C   0  0  0  0  0  0  0  0  0  0  0  0
   -1.2990   -5.8573    0.0000 S   0  0  0  0  0  0  0  0  0  0  0  0
   -0.0000   -5.1073    0.0000 C   0  0  0  0  0  0  0  0  0  0  0  0
   -0.0000   -3.6073    0.0000 C   0  0  0  0  0  0  0  0  0  0  0  0
    1.2135   -2.7256    0.0000 N   0  0  0  0  0  0  0  0  0  0  0  0
    0.7500   -1.2990    0.0000 C   0  0  0  0  0  0  0  0  0  0  0  0
    1.5000    0.0000    0.0000 C   0  0  0  0  0  0  0  0  0  0  0  0
    0.7500    1.2990    0.0000 C   0  0  0  0  0  0  0  0  0  0  0  0
   -0.7500    1.2990    0.0000 C   0  0  0  0  0  0  0  0  0  0  0  0
   -1.5000    0.0000    0.0000 C   0  0  0  0  0  0  0  0  0  0  0  0
   -0.7500   -1.2990    0.0000 C   0  0  0  0  0  0  0  0  0  0  0  0
   -1.2135   -2.7256    0.0000 N   0  0  0  0  0  0  0  0  0  0  0  0
   -2.5126   -8.2390    0.0000 N   0  0  0  0  0  0  0  0  0  0  0  0
   -2.0490   -9.6656    0.0000 N   0  0  0  0  0  0  0  0  0  0  0  0
   -0.5490   -9.6656    0.0000 C   0  0  0  0  0  0  0  0  0  0  0  0
    0.3326  -10.8791    0.0000 C   0  0  0  0  0  0  0  0  0  0  0  0
   -0.2775  -12.2494    0.0000 C   0  0  0  0  0  0  0  0  0  0  0  0
    0.6042  -13.4629    0.0000 C   0  0  0  0  0  0  0  0  0  0  0  0
    2.0960  -13.3061    0.0000 C   0  0  0  0  0  0  0  0  0  0  0  0
    2.9777  -14.5197    0.0000 O   0  0  0  0  0  0  0  0  0  0  0  0
    2.3676  -15.8900    0.0000 C   0  0  0  0  0  0  0  0  0  0  0  0
    2.7061  -11.9358    0.0000 C   0  0  0  0  0  0  0  0  0  0  0  0
    1.8244  -10.7223    0.0000 C   0  0  0  0  0  0  0  0  0  0  0  0
  1  2  1  0
  2  3  1  0
  3  4  1  0
  4  5  1  6
  5  6  1  0
  6  7  1  0
  7  8  2  0
  8  9  1  0
  9 10  2  0
 10 11  1  0
 11 12  2  0
 12 13  1  0
 13 14  2  0
 14 15  1  0
  4 16  1  0
 16 17  1  0
 17 18  1  0
 18 19  1  1
 19 20  2  0
 20 21  1  0
 21 22  2  0
 22 23  1  0
 23 24  1  0
 22 25  1  0
 25 26  2  0
 18  3  1  0
 26 19  1  0
 15  7  1  0
 14  9  1  0
M  END
>  <Compound_ID>  (432) 
C39583691

>  <Active>  (432) 
0

>  <Smiles>  (432) 
CCN1[C@@H](SCc2nc3ccccc3[nH]2)NN[C@@H]1c1ccc(OC)cc1

>  <canonical_smi>  (432) 
CCN1[C@@H](SCc2nc3ccccc3[nH]2)NN[C@@H]1c1ccc(OC)cc1

>  <Set>  (432) 
G2 inactive

>  <Set_type>  (432) 
Train

>  <MW>  (432) 
369.49

>  <HBD>  (432) 
3

>  <HBA>  (432) 
6

>  <NRB>  (432) 
6

>  <NR>  (432) 
4

>  <NAR>  (432) 
3

>  <PSA>  (432) 
65.21

>  <Standard Type>  (432) 
nan

>  <Standard Relation>  (432) 
nan

>  <Standard Units>  (432) 
nan

>  <Standard Value>  (432) 
nan

>  <Assay ChEMBL ID>  (432) 
nan

>  <Assay Description>  (432) 
nan

>  <BAO Label>  (432) 
nan

$$$$

     RDKit          2D

 26 29  0  0  0  0  0  0  0  0999 V2000
    0.4022   -7.7629    0.0000 O   0  0  0  0  0  0  0  0  0  0  0  0
    0.2454   -6.2711    0.0000 C   0  0  0  0  0  0  0  0  0  0  0  0
    1.3601   -5.2674    0.0000 N   0  0  0  0  0  0  0  0  0  0  0  0
    0.7500   -3.8971    0.0000 C   0  0  0  0  0  0  0  0  0  0  0  0
    1.5000   -2.5981    0.0000 C   0  0  0  0  0  0  0  0  0  0  0  0
    0.7500   -1.2990    0.0000 C   0  0  0  0  0  0  0  0  0  0  0  0
    1.5000    0.0000    0.0000 C   0  0  0  0  0  0  0  0  0  0  0  0
    0.7500    1.2990    0.0000 C   0  0  0  0  0  0  0  0  0  0  0  0
   -0.7500    1.2990    0.0000 C   0  0  0  0  0  0  0  0  0  0  0  0
   -1.5000    0.0000    0.0000 C   0  0  0  0  0  0  0  0  0  0  0  0
   -0.7500   -1.2990    0.0000 C   0  0  0  0  0  0  0  0  0  0  0  0
   -0.7418   -4.0539    0.0000 C   0  0  0  0  0  0  0  0  0  0  0  0
   -1.7455   -2.9392    0.0000 O   0  0  0  0  0  0  0  0  0  0  0  0
   -1.0537   -5.5211    0.0000 N   0  0  0  0  0  0  0  0  0  0  0  0
   -2.4240   -6.1312    0.0000 C   0  0  0  0  0  0  0  0  0  0  0  0
   -3.6375   -5.2496    0.0000 C   0  0  0  0  0  0  0  0  0  0  0  0
   -5.0641   -5.7131    0.0000 C   0  0  0  0  0  0  0  0  0  0  0  0
   -5.9458   -4.4996    0.0000 O   0  0  0  0  0  0  0  0  0  0  0  0
   -5.0641   -3.2860    0.0000 C   0  0  0  0  0  0  0  0  0  0  0  0
   -5.5276   -1.8594    0.0000 C   0  0  0  0  0  0  0  0  0  0  0  0
   -4.5239   -0.7447    0.0000 C   0  0  0  0  0  0  0  0  0  0  0  0
   -4.9874    0.6819    0.0000 C   0  0  0  0  0  0  0  0  0  0  0  0
   -6.4547    0.9937    0.0000 C   0  0  0  0  0  0  0  0  0  0  0  0
   -7.4584   -0.1210    0.0000 C   0  0  0  0  0  0  0  0  0  0  0  0
   -6.9948   -1.5476    0.0000 C   0  0  0  0  0  0  0  0  0  0  0  0
   -3.6375   -3.7496    0.0000 N   0  0  0  0  0  0  0  0  0  0  0  0
  1  2  2  0
  2  3  1  0
  3  4  1  0
  4  5  1  1
  5  6  1  0
  6  7  2  0
  7  8  1  0
  8  9  2  0
  9 10  1  0
 10 11  2  0
  4 12  1  0
 12 13  2  0
 12 14  1  0
 14 15  1  0
 15 16  1  0
 16 17  2  0
 17 18  1  0
 18 19  1  0
 19 20  1  0
 20 21  2  0
 21 22  1  0
 22 23  2  0
 23 24  1  0
 24 25  2  0
 19 26  2  0
 14  2  1  0
 26 16  1  0
 11  6  1  0
 25 20  1  0
M  END
>  <Compound_ID>  (433) 
C21209963

>  <Active>  (433) 
0

>  <Smiles>  (433) 
O=C1N[C@H](Cc2ccccc2)C(=O)N1Cc1coc(-c2ccccc2)n1

>  <canonical_smi>  (433) 
O=C1N[C@H](Cc2ccccc2)C(=O)N1Cc1coc(-c2ccccc2)n1

>  <Set>  (433) 
G2 inactive

>  <Set_type>  (433) 
Train

>  <MW>  (433) 
347.37

>  <HBD>  (433) 
1

>  <HBA>  (433) 
4

>  <NRB>  (433) 
5

>  <NR>  (433) 
4

>  <NAR>  (433) 
3

>  <PSA>  (433) 
75.44

>  <Standard Type>  (433) 
nan

>  <Standard Relation>  (433) 
nan

>  <Standard Units>  (433) 
nan

>  <Standard Value>  (433) 
nan

>  <Assay ChEMBL ID>  (433) 
nan

>  <Assay Description>  (433) 
nan

>  <BAO Label>  (433) 
nan

$$$$

     RDKit          2D

 27 30  0  0  0  0  0  0  0  0999 V2000
    3.0000    0.0000    0.0000 C   0  0  0  0  0  0  0  0  0  0  0  0
    1.5000    0.0000    0.0000 C   0  0  0  0  0  0  0  0  0  0  0  0
    0.7500   -1.2990    0.0000 C   0  0  0  0  0  0  0  0  0  0  0  0
   -0.7500   -1.2990    0.0000 C   0  0  0  0  0  0  0  0  0  0  0  0
   -1.5000   -2.5981    0.0000 C   0  0  0  0  0  0  0  0  0  0  0  0
   -3.0000   -2.5981    0.0000 C   0  0  0  0  0  0  0  0  0  0  0  0
   -3.7500   -1.2990    0.0000 O   0  0  0  0  0  0  0  0  0  0  0  0
   -3.7500   -3.8971    0.0000 N   0  0  0  0  0  0  0  0  0  0  0  0
   -5.2500   -3.8971    0.0000 C   0  0  0  0  0  0  0  0  0  0  0  0
   -6.1317   -5.1106    0.0000 C   0  0  0  0  0  0  0  0  0  0  0  0
   -5.6682   -6.5372    0.0000 C   0  0  0  0  0  0  0  0  0  0  0  0
   -4.2416   -7.0008    0.0000 N   0  0  0  0  0  0  0  0  0  0  0  0
   -4.2416   -8.5008    0.0000 C   0  0  0  0  0  0  0  0  0  0  0  0
   -3.0280   -9.3824    0.0000 C   0  0  0  0  0  0  0  0  0  0  0  0
   -1.5363   -9.5392    0.0000 C   0  0  0  0  0  0  0  0  0  0  0  0
   -2.4179  -10.7527    0.0000 C   0  0  0  0  0  0  0  0  0  0  0  0
   -5.6682   -8.9643    0.0000 N   0  0  0  0  0  0  0  0  0  0  0  0
   -6.5498   -7.7508    0.0000 O   0  0  0  0  0  0  0  0  0  0  0  0
   -7.5583   -4.6471    0.0000 C   0  0  0  0  0  0  0  0  0  0  0  0
   -7.5583   -3.1471    0.0000 N   0  0  0  0  0  0  0  0  0  0  0  0
   -6.1317   -2.6836    0.0000 N   0  0  0  0  0  0  0  0  0  0  0  0
   -5.6682   -1.2570    0.0000 C   0  0  0  0  0  0  0  0  0  0  0  0
   -1.5000    0.0000    0.0000 C   0  0  0  0  0  0  0  0  0  0  0  0
   -0.7500    1.2990    0.0000 C   0  0  0  0  0  0  0  0  0  0  0  0
   -2.1595    1.8121    0.0000 C   0  0  0  0  0  0  0  0  0  0  0  0
   -0.4895    2.7762    0.0000 C   0  0  0  0  0  0  0  0  0  0  0  0
    0.7500    1.2990    0.0000 C   0  0  0  0  0  0  0  0  0  0  0  0
  2  1  1  1
  2  3  1  0
  3  4  1  0
  4  5  1  1
  5  6  1  0
  6  7  2  0
  6  8  1  0
  8  9  1  0
  9 10  2  0
 10 11  1  0
 11 12  2  0
 12 13  1  0
 13 14  1  0
 14 15  1  0
 15 16  1  0
 13 17  2  0
 17 18  1  0
 10 19  1  0
 19 20  2  0
 20 21  1  0
 21 22  1  0
  4 23  1  0
 23 24  1  0
 24 25  1  0
 24 26  1  0
 24 27  1  0
 27  2  1  0
 21  9  1  0
 18 11  1  0
 16 14  1  0
M  END
>  <Compound_ID>  (434) 
C66358670

>  <Active>  (434) 
0

>  <Smiles>  (434) 
C[C@H]1C[C@@H](CC(=O)Nc2c(-c3nc(C4CC4)no3)cnn2C)CC(C)(C)C1

>  <canonical_smi>  (434) 
C[C@H]1C[C@@H](CC(=O)Nc2c(-c3nc(C4CC4)no3)cnn2C)CC(C)(C)C1

>  <Set>  (434) 
G2 inactive

>  <Set_type>  (434) 
Train

>  <MW>  (434) 
371.49

>  <HBD>  (434) 
1

>  <HBA>  (434) 
5

>  <NRB>  (434) 
5

>  <NR>  (434) 
4

>  <NAR>  (434) 
2

>  <PSA>  (434) 
85.84

>  <Standard Type>  (434) 
nan

>  <Standard Relation>  (434) 
nan

>  <Standard Units>  (434) 
nan

>  <Standard Value>  (434) 
nan

>  <Assay ChEMBL ID>  (434) 
nan

>  <Assay Description>  (434) 
nan

>  <BAO Label>  (434) 
nan

$$$$

     RDKit          2D

 29 31  0  0  0  0  0  0  0  0999 V2000
   -3.2384  -13.0060    0.0000 O   0  0  0  0  0  0  0  0  0  0  0  0
   -1.8681  -13.6161    0.0000 C   0  0  0  0  0  0  0  0  0  0  0  0
   -0.6546  -12.7344    0.0000 C   0  0  0  0  0  0  0  0  0  0  0  0
   -0.8113  -11.2427    0.0000 C   0  0  0  0  0  0  0  0  0  0  0  0
    0.4022  -10.3610    0.0000 S   0  0  0  0  0  0  0  0  0  0  0  0
    0.2454   -8.8692    0.0000 C   0  0  0  0  0  0  0  0  0  0  0  0
   -1.0537   -8.1192    0.0000 N   0  0  0  0  0  0  0  0  0  0  0  0
   -0.7418   -6.6520    0.0000 N   0  0  0  0  0  0  0  0  0  0  0  0
    0.7500   -6.4952    0.0000 C   0  0  0  0  0  0  0  0  0  0  0  0
    1.5000   -5.1962    0.0000 N   0  0  0  0  0  0  0  0  0  0  0  0
    0.7500   -3.8971    0.0000 N   0  0  0  0  0  0  0  0  0  0  0  0
    1.5000   -2.5981    0.0000 C   0  0  0  0  0  0  0  0  0  0  0  0
    0.7500   -1.2990    0.0000 C   0  0  0  0  0  0  0  0  0  0  0  0
    1.5000    0.0000    0.0000 C   0  0  0  0  0  0  0  0  0  0  0  0
    0.7500    1.2990    0.0000 C   0  0  0  0  0  0  0  0  0  0  0  0
   -0.7500    1.2990    0.0000 C   0  0  0  0  0  0  0  0  0  0  0  0
   -1.5000    0.0000    0.0000 C   0  0  0  0  0  0  0  0  0  0  0  0
   -0.7500   -1.2990    0.0000 C   0  0  0  0  0  0  0  0  0  0  0  0
   -1.5000   -2.5981    0.0000 F   0  0  0  0  0  0  0  0  0  0  0  0
    1.3601   -7.8655    0.0000 N   0  0  0  0  0  0  0  0  0  0  0  0
   -1.7113  -15.1079    0.0000 N   0  0  0  0  0  0  0  0  0  0  0  0
   -2.9248  -15.9896    0.0000 C   0  0  0  0  0  0  0  0  0  0  0  0
   -4.2951  -15.3795    0.0000 C   0  0  0  0  0  0  0  0  0  0  0  0
   -5.5087  -16.2612    0.0000 C   0  0  0  0  0  0  0  0  0  0  0  0
   -5.3519  -17.7529    0.0000 C   0  0  0  0  0  0  0  0  0  0  0  0
   -6.5654  -18.6346    0.0000 Cl  0  0  0  0  0  0  0  0  0  0  0  0
   -3.9815  -18.3630    0.0000 C   0  0  0  0  0  0  0  0  0  0  0  0
   -2.7680  -17.4814    0.0000 C   0  0  0  0  0  0  0  0  0  0  0  0
   -1.3977  -18.0915    0.0000 Cl  0  0  0  0  0  0  0  0  0  0  0  0
  1  2  2  0
  2  3  1  0
  3  4  1  0
  4  5  1  0
  5  6  1  0
  6  7  2  0
  7  8  1  0
  8  9  1  0
  9 10  1  0
 10 11  1  0
 11 12  2  0
 12 13  1  0
 13 14  2  0
 14 15  1  0
 15 16  2  0
 16 17  1  0
 17 18  2  0
 18 19  1  0
  9 20  2  0
  2 21  1  0
 21 22  1  0
 22 23  2  0
 23 24  1  0
 24 25  2  0
 25 26  1  0
 25 27  1  0
 27 28  2  0
 28 29  1  0
 20  6  1  0
 28 22  1  0
 18 13  1  0
M  END
>  <Compound_ID>  (435) 
C21077545

>  <Active>  (435) 
0

>  <Smiles>  (435) 
O=C(CCSc1n[nH]c(N/N=C/c2ccccc2F)n1)Nc1ccc(Cl)cc1Cl

>  <canonical_smi>  (435) 
O=C(CCSc1n[nH]c(N/N=C/c2ccccc2F)n1)Nc1ccc(Cl)cc1Cl

>  <Set>  (435) 
G2 inactive

>  <Set_type>  (435) 
Train

>  <MW>  (435) 
453.33

>  <HBD>  (435) 
3

>  <HBA>  (435) 
5

>  <NRB>  (435) 
8

>  <NR>  (435) 
3

>  <NAR>  (435) 
3

>  <PSA>  (435) 
95.06

>  <Standard Type>  (435) 
nan

>  <Standard Relation>  (435) 
nan

>  <Standard Units>  (435) 
nan

>  <Standard Value>  (435) 
nan

>  <Assay ChEMBL ID>  (435) 
nan

>  <Assay Description>  (435) 
nan

>  <BAO Label>  (435) 
nan

$$$$

     RDKit          2D

 28 31  0  0  0  0  0  0  0  0999 V2000
   12.9129    2.6475    0.0000 C   0  0  0  0  0  0  0  0  0  0  0  0
   11.4505    2.9813    0.0000 C   0  0  0  0  0  0  0  0  0  0  0  0
   10.4302    1.8817    0.0000 O   0  0  0  0  0  0  0  0  0  0  0  0
   11.0084    4.4146    0.0000 N   0  0  0  0  0  4  0  0  0  0  0  0
    9.5460    4.7484    0.0000 C   0  0  0  0  0  0  0  0  0  0  0  0
    8.5257    3.6488    0.0000 C   0  0  0  0  0  0  0  0  0  0  0  0
    7.0633    3.9826    0.0000 C   0  0  0  0  0  0  0  0  0  0  0  0
    6.6212    5.4160    0.0000 C   0  0  0  0  0  0  0  0  0  0  0  0
    5.1588    5.7498    0.0000 C   0  0  0  0  0  0  0  0  0  0  0  0
    4.1385    4.6502    0.0000 C   0  0  0  0  0  0  0  0  0  0  0  0
    2.6761    4.9840    0.0000 S   0  0  0  0  0  0  0  0  0  0  0  0
    1.6559    3.8844    0.0000 C   0  0  0  0  0  0  0  0  0  0  0  0
    0.1935    4.2182    0.0000 C   0  0  0  0  0  0  0  0  0  0  0  0
   -0.8268    3.1186    0.0000 C   0  0  0  0  0  0  0  0  0  0  0  0
   -0.3846    1.6852    0.0000 C   0  0  0  0  0  0  0  0  0  0  0  0
    1.0777    1.3515    0.0000 C   0  0  0  0  0  0  0  0  0  0  0  0
    2.0980    2.4510    0.0000 C   0  0  0  0  0  0  0  0  0  0  0  0
    1.7286    0.0000    0.0000 O   0  0  0  0  0  0  0  0  0  0  0  0
    1.0777   -1.3515    0.0000 C   0  0  0  0  0  0  0  0  0  0  0  0
   -0.3846   -1.6852    0.0000 C   0  0  0  0  0  0  0  0  0  0  0  0
   -1.5574   -0.7500    0.0000 C   0  0  0  0  0  0  0  0  0  0  0  0
   -1.5574    0.7500    0.0000 O   0  0  0  0  0  0  0  0  0  0  0  0
    4.7167    7.1831    0.0000 C   0  0  0  0  0  0  0  0  0  0  0  0
    5.7369    8.2827    0.0000 C   0  0  0  0  0  0  0  0  0  0  0  0
    5.2948    9.7161    0.0000 O   0  0  0  0  0  0  0  0  0  0  0  0
    7.1993    7.9489    0.0000 O   0  0  0  0  0  0  0  0  0  0  0  0
    7.6414    6.5156    0.0000 C   0  0  0  0  0  0  0  0  0  0  0  0
    9.1038    6.1818    0.0000 C   0  0  0  0  0  0  0  0  0  0  0  0
  1  2  1  0
  2  3  2  0
  2  4  1  0
  4  5  2  3
  5  6  1  0
  6  7  2  0
  7  8  1  0
  8  9  2  0
  9 10  1  0
 10 11  1  0
 11 12  1  0
 12 13  2  0
 13 14  1  0
 14 15  2  0
 15 16  1  0
 16 17  2  0
 16 18  1  0
 18 19  1  0
 19 20  1  0
 20 21  1  0
 21 22  1  0
  9 23  1  0
 23 24  2  0
 24 25  1  0
 24 26  1  0
 26 27  1  0
 27 28  2  0
 28  5  1  0
 27  8  1  0
 17 12  1  0
 22 15  1  0
M  CHG  1   4   1
M  END
>  <Compound_ID>  (436) 
C24848059

>  <Active>  (436) 
0

>  <Smiles>  (436) 
CC(=O)[NH+]=c1ccc2c(CSc3ccc4c(c3)OCCCO4)cc(O)oc-2c1

>  <canonical_smi>  (436) 
CC(=O)[NH+]=c1ccc2c(CSc3ccc4c(c3)OCCCO4)cc(O)oc-2c1

>  <Set>  (436) 
G2 inactive

>  <Set_type>  (436) 
Train

>  <MW>  (436) 
398.46

>  <HBD>  (436) 
2

>  <HBA>  (436) 
6

>  <NRB>  (436) 
3

>  <NR>  (436) 
4

>  <NAR>  (436) 
3

>  <PSA>  (436) 
82.87

>  <Standard Type>  (436) 
nan

>  <Standard Relation>  (436) 
nan

>  <Standard Units>  (436) 
nan

>  <Standard Value>  (436) 
nan

>  <Assay ChEMBL ID>  (436) 
nan

>  <Assay Description>  (436) 
nan

>  <BAO Label>  (436) 
nan

$$$$

     RDKit          2D

 25 28  0  0  0  0  0  0  0  0999 V2000
    2.7760    0.0000    0.0000 C   0  0  0  0  0  0  0  0  0  0  0  0
    1.2760    0.0000    0.0000 C   0  0  0  0  0  0  0  0  0  0  0  0
    0.3943    1.2135    0.0000 C   0  0  0  0  0  0  0  0  0  0  0  0
   -1.0323    0.7500    0.0000 S   0  0  0  0  0  0  0  0  0  0  0  0
   -1.0323   -0.7500    0.0000 C   0  0  0  0  0  0  0  0  0  0  0  0
   -2.1470   -1.7537    0.0000 N   0  0  0  0  0  4  0  0  0  0  0  0
   -1.8351   -3.2209    0.0000 C   0  0  0  0  0  0  0  0  0  0  0  0
   -2.9499   -4.2246    0.0000 C   0  0  0  0  0  0  0  0  0  0  0  0
   -4.3764   -3.7611    0.0000 N   0  0  0  0  0  0  0  0  0  0  0  0
   -5.4912   -4.7648    0.0000 C   0  0  0  0  0  0  0  0  0  0  0  0
   -6.9177   -4.3013    0.0000 C   0  0  0  0  0  0  0  0  0  0  0  0
   -8.0325   -5.3050    0.0000 C   0  0  0  0  0  0  0  0  0  0  0  0
   -7.7206   -6.7722    0.0000 C   0  0  0  0  0  0  0  0  0  0  0  0
   -6.2940   -7.2357    0.0000 C   0  0  0  0  0  0  0  0  0  0  0  0
   -5.9821   -8.7029    0.0000 Cl  0  0  0  0  0  0  0  0  0  0  0  0
   -5.1793   -6.2320    0.0000 C   0  0  0  0  0  0  0  0  0  0  0  0
   -3.7527   -6.6955    0.0000 N   0  0  0  0  0  0  0  0  0  0  0  0
   -2.5392   -5.8139    0.0000 C   0  0  0  0  0  0  0  0  0  0  0  0
   -1.3257   -6.6955    0.0000 C   0  0  0  0  0  0  0  0  0  0  0  0
   -1.7892   -8.1221    0.0000 C   0  0  0  0  0  0  0  0  0  0  0  0
   -3.2892   -8.1221    0.0000 N   0  0  0  0  0  0  0  0  0  0  0  0
   -0.4086   -3.6844    0.0000 C   0  0  0  0  0  0  0  0  0  0  0  0
    0.7062   -2.6807    0.0000 C   0  0  0  0  0  0  0  0  0  0  0  0
    2.1328   -3.1443    0.0000 O   0  0  0  0  0  0  0  0  0  0  0  0
    0.3943   -1.2135    0.0000 N   0  0  0  0  0  0  0  0  0  0  0  0
  1  2  1  0
  2  3  2  0
  3  4  1  0
  4  5  1  0
  5  6  2  0
  6  7  1  0
  7  8  1  0
  8  9  1  0
  9 10  1  0
 10 11  2  0
 11 12  1  0
 12 13  2  0
 13 14  1  0
 14 15  1  0
 14 16  2  0
 16 17  1  0
 17 18  1  0
 18 19  2  0
 19 20  1  0
 20 21  2  0
  7 22  2  0
 22 23  1  0
 23 24  2  0
 23 25  1  0
 25  2  1  0
 25  5  1  0
 16 10  1  0
 21 17  1  0
M  CHG  1   6   1
M  END
>  <Compound_ID>  (437) 
C55874852

>  <Active>  (437) 
0

>  <Smiles>  (437) 
Cc1csc2[nH+]c(CNc3cccc(Cl)c3-n3cccn3)cc(=O)n12

>  <canonical_smi>  (437) 
Cc1csc2[nH+]c(CNc3cccc(Cl)c3-n3cccn3)cc(=O)n12

>  <Set>  (437) 
G2 inactive

>  <Set_type>  (437) 
Train

>  <MW>  (437) 
372.86

>  <HBD>  (437) 
1

>  <HBA>  (437) 
3

>  <NRB>  (437) 
4

>  <NR>  (437) 
4

>  <NAR>  (437) 
4

>  <PSA>  (437) 
65.47

>  <Standard Type>  (437) 
nan

>  <Standard Relation>  (437) 
nan

>  <Standard Units>  (437) 
nan

>  <Standard Value>  (437) 
nan

>  <Assay ChEMBL ID>  (437) 
nan

>  <Assay Description>  (437) 
nan

>  <BAO Label>  (437) 
nan

$$$$

     RDKit          2D

 21 21  0  0  0  0  0  0  0  0999 V2000
    3.0000   -1.5000    0.0000 C   0  0  0  0  0  0  0  0  0  0  0  0
    3.0000    0.0000    0.0000 C   0  0  0  0  0  0  0  0  0  0  0  0
    3.0000    1.5000    0.0000 C   0  0  0  0  0  0  0  0  0  0  0  0
    4.5000    0.0000    0.0000 C   0  0  0  0  0  0  0  0  0  0  0  0
    1.5000    0.0000    0.0000 C   0  0  0  0  0  0  0  0  0  0  0  0
    0.7500   -1.2990    0.0000 C   0  0  0  0  0  0  0  0  0  0  0  0
   -0.7500   -1.2990    0.0000 C   0  0  0  0  0  0  0  0  0  0  0  0
   -1.5000    0.0000    0.0000 C   0  0  0  0  0  0  0  0  0  0  0  0
   -3.0000    0.0000    0.0000 C   0  0  0  0  0  0  0  0  0  0  0  0
   -4.5000    0.0000    0.0000 N   0  0  0  0  0  0  0  0  0  0  0  0
   -0.7500    1.2990    0.0000 C   0  0  0  0  0  0  0  0  0  0  0  0
   -1.5000    2.5981    0.0000 N   0  0  0  0  0  4  0  0  0  0  0  0
   -0.7500    3.8971    0.0000 C   0  0  0  0  0  0  0  0  0  0  0  0
    0.7500    3.8971    0.0000 C   0  0  0  0  0  0  0  0  0  0  0  0
    1.5000    5.1962    0.0000 N   0  0  0  0  0  0  0  0  0  0  0  0
    1.5000    2.5981    0.0000 O   0  0  0  0  0  0  0  0  0  0  0  0
   -3.0000    2.5981    0.0000 C   0  0  0  0  0  0  0  0  0  0  0  0
   -3.7500    3.8971    0.0000 C   0  0  0  0  0  0  0  0  0  0  0  0
   -5.2500    3.8971    0.0000 N   0  0  0  0  0  0  0  0  0  0  0  0
   -3.0000    5.1962    0.0000 O   0  0  0  0  0  0  0  0  0  0  0  0
    0.7500    1.2990    0.0000 C   0  0  0  0  0  0  0  0  0  0  0  0
  1  2  1  0
  2  3  1  0
  2  4  1  0
  5  2  1  6
  5  6  1  0
  6  7  1  0
  7  8  1  0
  8  9  1  1
  9 10  3  0
  8 11  1  0
 11 12  1  6
 12 13  1  0
 13 14  1  0
 14 15  1  0
 14 16  2  0
 12 17  1  0
 17 18  1  0
 18 19  1  0
 18 20  2  0
 11 21  1  0
 21  5  1  0
M  CHG  1  12   1
M  END
>  <Compound_ID>  (438) 
C61806997

>  <Active>  (438) 
0

>  <Smiles>  (438) 
CC(C)(C)[C@@H]1CC[C@@H](C#N)[C@H]([NH+](CC(N)=O)CC(N)=O)C1

>  <canonical_smi>  (438) 
CC(C)(C)[C@@H]1CC[C@@H](C#N)[C@H]([NH+](CC(N)=O)CC(N)=O)C1

>  <Set>  (438) 
G2 inactive

>  <Set_type>  (438) 
Train

>  <MW>  (438) 
295.41

>  <HBD>  (438) 
3

>  <HBA>  (438) 
3

>  <NRB>  (438) 
5

>  <NR>  (438) 
1

>  <NAR>  (438) 
0

>  <PSA>  (438) 
114.41

>  <Standard Type>  (438) 
nan

>  <Standard Relation>  (438) 
nan

>  <Standard Units>  (438) 
nan

>  <Standard Value>  (438) 
nan

>  <Assay ChEMBL ID>  (438) 
nan

>  <Assay Description>  (438) 
nan

>  <BAO Label>  (438) 
nan

$$$$

     RDKit          2D

 19 19  0  0  0  0  0  0  0  0999 V2000
    3.7500   -1.2990    0.0000 C   0  0  0  0  0  0  0  0  0  0  0  0
    3.0000    0.0000    0.0000 O   0  0  0  0  0  0  0  0  0  0  0  0
    1.5000    0.0000    0.0000 C   0  0  0  0  0  0  0  0  0  0  0  0
    0.7500   -1.2990    0.0000 C   0  0  0  0  0  0  0  0  0  0  0  0
   -0.7500   -1.2990    0.0000 C   0  0  0  0  0  0  0  0  0  0  0  0
   -1.5000   -2.5981    0.0000 N   0  0  0  0  0  0  0  0  0  0  0  0
   -1.5000    0.0000    0.0000 C   0  0  0  0  0  0  0  0  0  0  0  0
   -3.0000    0.0000    0.0000 O   0  0  0  0  0  0  0  0  0  0  0  0
   -3.7500    1.2990    0.0000 C   0  0  0  0  0  0  0  0  0  0  0  0
   -0.7500    1.2990    0.0000 C   0  0  0  0  0  0  0  0  0  0  0  0
   -1.5000    2.5981    0.0000 S   0  0  0  0  0  0  0  0  0  0  0  0
   -0.2010    3.3481    0.0000 O   0  0  0  0  0  0  0  0  0  0  0  0
   -2.7990    1.8481    0.0000 O   0  0  0  0  0  0  0  0  0  0  0  0
   -2.2500    3.8971    0.0000 N   0  0  0  0  0  0  0  0  0  0  0  0
   -1.5000    5.1962    0.0000 C   0  0  0  0  0  0  0  0  0  0  0  0
   -2.7990    5.9462    0.0000 C   0  0  0  0  0  0  0  0  0  0  0  0
   -0.2010    4.4462    0.0000 C   0  0  0  0  0  0  0  0  0  0  0  0
   -0.7500    6.4952    0.0000 C   0  0  0  0  0  0  0  0  0  0  0  0
    0.7500    1.2990    0.0000 C   0  0  0  0  0  0  0  0  0  0  0  0
  1  2  1  0
  2  3  1  0
  3  4  2  0
  4  5  1  0
  5  6  1  0
  5  7  2  0
  7  8  1  0
  8  9  1  0
  7 10  1  0
 10 11  1  0
 11 12  2  0
 11 13  2  0
 11 14  1  0
 14 15  1  0
 15 16  1  0
 15 17  1  0
 15 18  1  0
 10 19  2  0
 19  3  1  0
M  END
>  <Compound_ID>  (439) 
C11737030

>  <Active>  (439) 
0

>  <Smiles>  (439) 
COc1cc(N)c(OC)c(S(=O)(=O)NC(C)(C)C)c1

>  <canonical_smi>  (439) 
COc1cc(N)c(OC)c(S(=O)(=O)NC(C)(C)C)c1

>  <Set>  (439) 
G2 inactive

>  <Set_type>  (439) 
Train

>  <MW>  (439) 
288.37

>  <HBD>  (439) 
2

>  <HBA>  (439) 
5

>  <NRB>  (439) 
4

>  <NR>  (439) 
1

>  <NAR>  (439) 
1

>  <PSA>  (439) 
90.65

>  <Standard Type>  (439) 
nan

>  <Standard Relation>  (439) 
nan

>  <Standard Units>  (439) 
nan

>  <Standard Value>  (439) 
nan

>  <Assay ChEMBL ID>  (439) 
nan

>  <Assay Description>  (439) 
nan

>  <BAO Label>  (439) 
nan

$$$$

     RDKit          2D

 21 22  0  0  0  0  0  0  0  0999 V2000
    2.7760    0.0000    0.0000 C   0  0  0  0  0  0  0  0  0  0  0  0
    1.2760    0.0000    0.0000 C   0  0  0  0  0  0  0  0  0  0  0  0
    0.3943    1.2135    0.0000 N   0  0  0  0  0  0  0  0  0  0  0  0
   -1.0323    0.7500    0.0000 N   0  0  0  0  0  0  0  0  0  0  0  0
   -2.2458    1.6317    0.0000 C   0  0  0  0  0  0  0  0  0  0  0  0
   -3.6161    1.0216    0.0000 O   0  0  0  0  0  0  0  0  0  0  0  0
   -2.0890    3.1235    0.0000 C   0  0  0  0  0  0  0  0  0  0  0  0
   -3.2037    4.1272    0.0000 N   0  0  0  0  0  0  0  0  0  0  0  0
   -2.5936    5.4975    0.0000 N   0  0  0  0  0  0  0  0  0  0  0  0
   -3.3436    6.7965    0.0000 C   0  0  0  0  0  0  0  0  0  0  0  0
   -1.1018    5.3407    0.0000 C   0  0  0  0  0  0  0  0  0  0  0  0
   -0.0982    6.4554    0.0000 C   0  0  0  0  0  0  0  0  0  0  0  0
   -0.7900    3.8735    0.0000 C   0  0  0  0  0  0  0  0  0  0  0  0
    0.5803    3.2634    0.0000 Br  0  0  0  0  0  0  0  0  0  0  0  0
   -1.0323   -0.7500    0.0000 C   0  0  0  0  0  0  0  0  0  0  0  0
   -2.5241   -0.5932    0.0000 O   0  0  0  0  0  0  0  0  0  0  0  0
   -1.3442   -2.2172    0.0000 C   0  0  0  0  0  0  0  0  0  0  0  0
   -1.6560   -3.6844    0.0000 F   0  0  0  0  0  0  0  0  0  0  0  0
   -2.8114   -1.9054    0.0000 F   0  0  0  0  0  0  0  0  0  0  0  0
    0.1231   -2.5291    0.0000 F   0  0  0  0  0  0  0  0  0  0  0  0
    0.3943   -1.2135    0.0000 C   0  0  0  0  0  0  0  0  0  0  0  0
  1  2  1  0
  2  3  2  0
  3  4  1  0
  4  5  1  0
  5  6  2  0
  5  7  1  0
  7  8  2  0
  8  9  1  0
  9 10  1  0
  9 11  1  0
 11 12  1  0
 11 13  2  0
 13 14  1  0
  4 15  1  0
 15 16  1  6
 15 17  1  0
 17 18  1  0
 17 19  1  0
 17 20  1  0
 15 21  1  0
 21  2  1  0
 13  7  1  0
M  END
>  <Compound_ID>  (440) 
C07077896

>  <Active>  (440) 
0

>  <Smiles>  (440) 
CC1=NN(C(=O)c2nn(C)c(C)c2Br)[C@](O)(C(F)(F)F)C1

>  <canonical_smi>  (440) 
CC1=NN(C(=O)c2nn(C)c(C)c2Br)[C@](O)(C(F)(F)F)C1

>  <Set>  (440) 
G2 inactive

>  <Set_type>  (440) 
Train

>  <MW>  (440) 
369.14

>  <HBD>  (440) 
1

>  <HBA>  (440) 
3

>  <NRB>  (440) 
1

>  <NR>  (440) 
2

>  <NAR>  (440) 
1

>  <PSA>  (440) 
70.72

>  <Standard Type>  (440) 
nan

>  <Standard Relation>  (440) 
nan

>  <Standard Units>  (440) 
nan

>  <Standard Value>  (440) 
nan

>  <Assay ChEMBL ID>  (440) 
nan

>  <Assay Description>  (440) 
nan

>  <BAO Label>  (440) 
nan

$$$$

     RDKit          2D

 22 24  0  0  0  0  0  0  0  0999 V2000
   -4.4242   -8.5946    0.0000 C   0  0  0  0  0  0  0  0  0  0  0  0
   -2.9753   -8.2064    0.0000 O   0  0  0  0  0  0  0  0  0  0  0  0
   -2.5871   -6.7575    0.0000 C   0  0  0  0  0  0  0  0  0  0  0  0
   -3.6478   -5.6968    0.0000 C   0  0  0  0  0  0  0  0  0  0  0  0
   -3.2595   -4.2479    0.0000 C   0  0  0  0  0  0  0  0  0  0  0  0
   -4.3202   -3.1873    0.0000 I   0  0  0  0  0  0  0  0  0  0  0  0
   -1.8107   -3.8597    0.0000 C   0  0  0  0  0  0  0  0  0  0  0  0
   -0.7500   -4.9204    0.0000 C   0  0  0  0  0  0  0  0  0  0  0  0
   -1.1382   -6.3692    0.0000 C   0  0  0  0  0  0  0  0  0  0  0  0
    0.7500   -4.9204    0.0000 C   0  0  0  0  0  0  0  0  0  0  0  0
    1.8107   -3.8597    0.0000 C   0  0  0  0  0  0  0  0  0  0  0  0
    3.1965   -4.4337    0.0000 O   0  0  0  0  0  0  0  0  0  0  0  0
    1.8107   -2.3597    0.0000 N   0  0  0  0  0  0  0  0  0  0  0  0
    0.7500   -1.2990    0.0000 C   0  0  0  0  0  0  0  0  0  0  0  0
    1.5000    0.0000    0.0000 C   0  0  0  0  0  0  0  0  0  0  0  0
    3.0000    0.0000    0.0000 Cl  0  0  0  0  0  0  0  0  0  0  0  0
    0.7500    1.2990    0.0000 N   0  0  0  0  0  0  0  0  0  0  0  0
   -0.7500    1.2990    0.0000 C   0  0  0  0  0  0  0  0  0  0  0  0
   -1.5000    0.0000    0.0000 N   0  0  0  0  0  0  0  0  0  0  0  0
   -0.7500   -1.2990    0.0000 C   0  0  0  0  0  0  0  0  0  0  0  0
   -1.8107   -2.3597    0.0000 N   0  0  0  0  0  0  0  0  0  0  0  0
   -3.1965   -1.7857    0.0000 C   0  0  0  0  0  0  0  0  0  0  0  0
  1  2  1  0
  2  3  1  0
  3  4  2  0
  4  5  1  0
  5  6  1  0
  5  7  2  0
  7  8  1  0
  8  9  2  0
  8 10  1  0
 10 11  1  0
 11 12  1  0
 11 13  2  0
 13 14  1  0
 14 15  2  0
 15 16  1  0
 15 17  1  0
 17 18  2  0
 18 19  1  0
 19 20  2  0
 20 21  1  0
 21 22  1  0
  9  3  1  0
 20 14  1  0
 21  7  1  0
M  END
>  <Compound_ID>  (441) 
C39479485

>  <Active>  (441) 
0

>  <Smiles>  (441) 
COc1cc(I)c2c(c1)C/C(O)=N/c1c(Cl)ncnc1N2C

>  <canonical_smi>  (441) 
COc1cc(I)c2c(c1)C/C(O)=N/c1c(Cl)ncnc1N2C

>  <Set>  (441) 
G2 inactive

>  <Set_type>  (441) 
Train

>  <MW>  (441) 
430.63

>  <HBD>  (441) 
1

>  <HBA>  (441) 
5

>  <NRB>  (441) 
1

>  <NR>  (441) 
3

>  <NAR>  (441) 
2

>  <PSA>  (441) 
70.84

>  <Standard Type>  (441) 
nan

>  <Standard Relation>  (441) 
nan

>  <Standard Units>  (441) 
nan

>  <Standard Value>  (441) 
nan

>  <Assay ChEMBL ID>  (441) 
nan

>  <Assay Description>  (441) 
nan

>  <BAO Label>  (441) 
nan

$$$$

     RDKit          2D

 25 29  0  0  0  0  0  0  0  0999 V2000
    0.7500   -6.4952    0.0000 C   0  0  0  0  0  0  0  0  0  0  0  0
    1.5000   -5.1962    0.0000 C   0  0  0  0  0  0  0  0  0  0  0  0
    0.7500   -3.8971    0.0000 N   0  0  0  0  0  0  0  0  0  0  0  0
    1.5000   -2.5981    0.0000 C   0  0  0  0  0  0  0  0  0  0  0  0
    0.7500   -1.2990    0.0000 N   0  0  0  0  0  0  0  0  0  0  0  0
    1.5000    0.0000    0.0000 C   0  0  0  0  0  0  0  0  0  0  0  0
    0.7500    1.2990    0.0000 C   0  0  0  0  0  0  0  0  0  0  0  0
   -0.7500    1.2990    0.0000 C   0  0  0  0  0  0  0  0  0  0  0  0
   -1.7537    2.4138    0.0000 N   0  0  0  0  0  0  0  0  0  0  0  0
   -3.1240    1.8037    0.0000 C   0  0  0  0  0  0  0  0  0  0  0  0
   -4.4943    2.4138    0.0000 C   0  0  0  0  0  0  0  0  0  0  0  0
   -4.6511    3.9055    0.0000 Br  0  0  0  0  0  0  0  0  0  0  0  0
   -5.7079    1.5321    0.0000 C   0  0  0  0  0  0  0  0  0  0  0  0
   -5.5511    0.0403    0.0000 C   0  0  0  0  0  0  0  0  0  0  0  0
   -4.1807   -0.5698    0.0000 C   0  0  0  0  0  0  0  0  0  0  0  0
   -2.9672    0.3119    0.0000 C   0  0  0  0  0  0  0  0  0  0  0  0
   -1.5000    0.0000    0.0000 C   0  0  0  0  0  0  0  0  0  0  0  0
   -0.7500   -1.2990    0.0000 C   0  0  0  0  0  0  0  0  0  0  0  0
    3.0000   -2.5981    0.0000 C   0  0  0  0  0  0  0  0  0  0  0  0
    4.0037   -1.4834    0.0000 C   0  0  0  0  0  0  0  0  0  0  0  0
    5.3740   -2.0935    0.0000 N   0  0  0  0  0  0  0  0  0  0  0  0
    5.2172   -3.5852    0.0000 N   0  0  0  0  0  0  0  0  0  0  0  0
    6.3319   -4.5889    0.0000 C   0  0  0  0  0  0  0  0  0  0  0  0
    3.7500   -3.8971    0.0000 C   0  0  0  0  0  0  0  0  0  0  0  0
    3.0000   -5.1962    0.0000 N   0  0  0  0  0  0  0  0  0  0  0  0
  1  2  1  0
  2  3  2  0
  3  4  1  0
  4  5  1  0
  5  6  1  0
  6  7  1  0
  7  8  1  0
  8  9  1  0
  9 10  1  0
 10 11  2  0
 11 12  1  0
 11 13  1  0
 13 14  2  0
 14 15  1  0
 15 16  2  0
 16 17  1  0
 17 18  1  0
  4 19  2  0
 19 20  1  0
 20 21  2  0
 21 22  1  0
 22 23  1  0
 22 24  1  0
 24 25  2  0
 25  2  1  0
 18  5  1  0
 24 19  1  0
 17  8  2  0
 16 10  1  0
M  END
>  <Compound_ID>  (442) 
C57147593

>  <Active>  (442) 
0

>  <Smiles>  (442) 
Cc1nc(N2CCc3[nH]c4c(Br)cccc4c3C2)c2cnn(C)c2n1

>  <canonical_smi>  (442) 
Cc1nc(N2CCc3[nH]c4c(Br)cccc4c3C2)c2cnn(C)c2n1

>  <Set>  (442) 
G2 inactive

>  <Set_type>  (442) 
Train

>  <MW>  (442) 
397.28

>  <HBD>  (442) 
1

>  <HBA>  (442) 
4

>  <NRB>  (442) 
1

>  <NR>  (442) 
5

>  <NAR>  (442) 
4

>  <PSA>  (442) 
62.63

>  <Standard Type>  (442) 
nan

>  <Standard Relation>  (442) 
nan

>  <Standard Units>  (442) 
nan

>  <Standard Value>  (442) 
nan

>  <Assay ChEMBL ID>  (442) 
nan

>  <Assay Description>  (442) 
nan

>  <BAO Label>  (442) 
nan

$$$$

     RDKit          2D

 37 40  0  0  0  0  0  0  0  0999 V2000
    9.1840    1.6134    0.0000 C   0  0  0  0  0  0  0  0  0  0  0  0
    9.0272    0.1216    0.0000 C   0  0  0  0  0  0  0  0  0  0  0  0
    7.6569   -0.4885    0.0000 C   0  0  0  0  0  0  0  0  0  0  0  0
    7.5001   -1.9803    0.0000 C   0  0  0  0  0  0  0  0  0  0  0  0
    6.1298   -2.5904    0.0000 C   0  0  0  0  0  0  0  0  0  0  0  0
    5.9730   -4.0822    0.0000 C   0  0  0  0  0  0  0  0  0  0  0  0
    4.6740   -4.8322    0.0000 C   0  0  0  0  0  0  0  0  0  0  0  0
    3.3037   -4.2221    0.0000 C   0  0  0  0  0  0  0  0  0  0  0  0
    2.0046   -4.9721    0.0000 C   0  0  0  0  0  0  0  0  0  0  0  0
    1.8478   -6.4639    0.0000 C   0  0  0  0  0  0  0  0  0  0  0  0
    0.8899   -3.9684    0.0000 N   0  0  0  0  0  0  0  0  0  0  0  0
   -0.5773   -4.2803    0.0000 C   0  0  0  0  0  0  0  0  0  0  0  0
    1.5000   -2.5981    0.0000 N   0  0  0  0  0  0  0  0  0  0  0  0
    0.7500   -1.2990    0.0000 C   0  0  0  0  0  0  0  0  0  0  0  0
    1.5000    0.0000    0.0000 C   0  0  0  0  0  0  0  0  0  0  0  0
    0.7500    1.2990    0.0000 C   0  0  0  0  0  0  0  0  0  0  0  0
   -0.7500    1.2990    0.0000 C   0  0  0  0  0  0  0  0  0  0  0  0
   -1.5000    0.0000    0.0000 C   0  0  0  0  0  0  0  0  0  0  0  0
   -0.7500   -1.2990    0.0000 C   0  0  0  0  0  0  0  0  0  0  0  0
    2.9918   -2.7549    0.0000 C   0  0  0  0  0  0  0  0  0  0  0  0
    3.9955   -1.6402    0.0000 O   0  0  0  0  0  0  0  0  0  0  0  0
    4.9858   -6.2994    0.0000 C   0  0  0  0  0  0  0  0  0  0  0  0
    3.9821   -7.4141    0.0000 C   0  0  0  0  0  0  0  0  0  0  0  0
    4.4457   -8.8407    0.0000 N   0  0  0  0  0  0  0  0  0  0  0  0
    2.5149   -7.1023    0.0000 O   0  0  0  0  0  0  0  0  0  0  0  0
    6.4776   -6.4562    0.0000 C   0  0  0  0  0  0  0  0  0  0  0  0
    7.2276   -7.7552    0.0000 C   0  0  0  0  0  0  0  0  0  0  0  0
    7.0877   -5.0859    0.0000 N   0  0  0  0  0  0  0  0  0  0  0  0
    8.5549   -4.7740    0.0000 C   0  0  0  0  0  0  0  0  0  0  0  0
    9.5586   -5.8887    0.0000 C   0  0  0  0  0  0  0  0  0  0  0  0
   11.0259   -5.5769    0.0000 C   0  0  0  0  0  0  0  0  0  0  0  0
   12.0296   -6.6916    0.0000 C   0  0  0  0  0  0  0  0  0  0  0  0
   13.4968   -6.3797    0.0000 C   0  0  0  0  0  0  0  0  0  0  0  0
   13.9603   -4.9531    0.0000 C   0  0  0  0  0  0  0  0  0  0  0  0
   15.4275   -4.6413    0.0000 O   0  0  0  0  0  0  0  0  0  0  0  0
   12.9566   -3.8384    0.0000 C   0  0  0  0  0  0  0  0  0  0  0  0
   11.4894   -4.1503    0.0000 C   0  0  0  0  0  0  0  0  0  0  0  0
  1  2  1  0
  2  3  1  0
  3  4  1  0
  4  5  1  0
  5  6  1  0
  6  7  2  0
  7  8  1  0
  8  9  2  0
  9 10  1  0
  9 11  1  0
 11 12  1  0
 11 13  1  0
 13 14  1  0
 14 15  2  0
 15 16  1  0
 16 17  2  0
 17 18  1  0
 18 19  2  0
 13 20  1  0
 20 21  2  0
  7 22  1  0
 22 23  1  0
 23 24  1  0
 23 25  2  0
 22 26  2  0
 26 27  1  0
 26 28  1  0
 28 29  1  0
 29 30  1  0
 30 31  1  0
 31 32  2  0
 32 33  1  0
 33 34  2  0
 34 35  1  0
 34 36  1  0
 36 37  2  0
 28  6  1  0
 37 31  1  0
 20  8  1  0
 19 14  1  0
M  END
>  <Compound_ID>  (443) 
C43225738

>  <Active>  (443) 
0

>  <Smiles>  (443) 
CCCCCc1c(-c2c(C)n(C)n(-c3ccccc3)c2=O)c(C(N)=O)c(C)n1CCc1ccc(O)cc1

>  <canonical_smi>  (443) 
CCCCCc1c(-c2c(C)n(C)n(-c3ccccc3)c2=O)c(C(N)=O)c(C)n1CCc1ccc(O)cc1

>  <Set>  (443) 
G2 inactive

>  <Set_type>  (443) 
Train

>  <MW>  (443) 
500.64

>  <HBD>  (443) 
2

>  <HBA>  (443) 
3

>  <NRB>  (443) 
10

>  <NR>  (443) 
4

>  <NAR>  (443) 
4

>  <PSA>  (443) 
95.18

>  <Standard Type>  (443) 
nan

>  <Standard Relation>  (443) 
nan

>  <Standard Units>  (443) 
nan

>  <Standard Value>  (443) 
nan

>  <Assay ChEMBL ID>  (443) 
nan

>  <Assay Description>  (443) 
nan

>  <BAO Label>  (443) 
nan

$$$$

     RDKit          2D

 33 36  0  0  0  0  0  0  0  0999 V2000
   -6.9204   -5.2665    0.0000 N   0  0  0  0  0  0  0  0  0  0  0  0
   -5.6213   -4.5165    0.0000 C   0  0  0  0  0  0  0  0  0  0  0  0
   -5.7859   -3.1765    0.0000 O   0  0  0  0  0  0  0  0  0  0  0  0
   -4.3223   -5.2665    0.0000 C   0  0  0  0  0  0  0  0  0  0  0  0
   -4.1655   -6.7583    0.0000 C   0  0  0  0  0  0  0  0  0  0  0  0
   -2.6983   -7.0701    0.0000 C   0  0  0  0  0  0  0  0  0  0  0  0
   -1.9483   -5.7711    0.0000 C   0  0  0  0  0  0  0  0  0  0  0  0
   -2.9520   -4.6564    0.0000 N   0  0  0  0  0  4  0  0  0  0  0  0
   -2.6401   -3.1891    0.0000 C   0  0  0  0  0  0  0  0  0  0  0  0
   -3.7548   -2.1855    0.0000 C   0  0  0  0  0  0  0  0  0  0  0  0
   -5.0800   -2.4430    0.0000 O   0  0  0  0  0  0  0  0  0  0  0  0
   -3.4430   -0.7182    0.0000 O   0  0  0  0  0  1  0  0  0  0  0  0
   -1.2135   -2.7256    0.0000 C   0  0  0  0  0  0  0  0  0  0  0  0
   -0.0000   -3.6073    0.0000 C   0  0  0  0  0  0  0  0  0  0  0  0
    1.2135   -2.7256    0.0000 N   0  0  0  0  0  0  0  0  0  0  0  0
    0.7500   -1.2990    0.0000 C   0  0  0  0  0  0  0  0  0  0  0  0
    1.5000    0.0000    0.0000 C   0  0  0  0  0  0  0  0  0  0  0  0
    0.7500    1.2990    0.0000 C   0  0  0  0  0  0  0  0  0  0  0  0
    1.5000    2.5981    0.0000 N   0  0  0  0  0  0  0  0  0  0  0  0
    3.0000    2.5981    0.0000 C   0  0  0  0  0  0  0  0  0  0  0  0
    3.7500    1.2990    0.0000 O   0  0  0  0  0  0  0  0  0  0  0  0
    3.7500    3.8971    0.0000 C   0  0  0  0  0  0  0  0  0  0  0  0
    5.2500    3.8971    0.0000 C   0  0  0  0  0  0  0  0  0  0  0  0
    6.0000    5.1962    0.0000 C   0  0  0  0  0  0  0  0  0  0  0  0
    5.2500    6.4952    0.0000 C   0  0  0  0  0  0  0  0  0  0  0  0
    3.7500    6.4952    0.0000 C   0  0  0  0  0  0  0  0  0  0  0  0
    3.0000    5.1962    0.0000 C   0  0  0  0  0  0  0  0  0  0  0  0
    1.5000    5.1962    0.0000 C   0  0  0  0  0  0  0  0  0  0  0  0
    0.7500    3.8971    0.0000 O   0  0  0  0  0  0  0  0  0  0  0  0
    0.7500    6.4952    0.0000 O   0  0  0  0  0  1  0  0  0  0  0  0
   -0.7500    1.2990    0.0000 C   0  0  0  0  0  0  0  0  0  0  0  0
   -1.5000    0.0000    0.0000 C   0  0  0  0  0  0  0  0  0  0  0  0
   -0.7500   -1.2990    0.0000 C   0  0  0  0  0  0  0  0  0  0  0  0
  1  2  1  0
  2  3  2  0
  4  2  1  1
  4  5  1  0
  5  6  1  0
  6  7  1  0
  7  8  1  0
  9  8  1  6
  9 10  1  0
 10 11  2  0
 10 12  1  0
  9 13  1  0
 13 14  2  0
 14 15  1  0
 15 16  1  0
 16 17  2  0
 17 18  1  0
 18 19  1  0
 19 20  1  0
 20 21  2  0
 22 20  1  6
 22 23  1  0
 23 24  1  0
 24 25  2  0
 25 26  1  0
 26 27  1  0
 27 28  1  6
 28 29  2  0
 28 30  1  0
 18 31  2  0
 31 32  1  0
 32 33  2  0
  8  4  1  0
 33 13  1  0
 33 16  1  0
 27 22  1  0
M  CHG  3   8   1  12  -1  30  -1
M  END
>  <Compound_ID>  (444) 
C36353958

>  <Active>  (444) 
0

>  <Smiles>  (444) 
NC(=O)[C@@H]1CCC[NH+]1[C@H](C(=O)[O-])c1c[nH]c2cc(NC(=O)[C@H]3CC=CC[C@H]3C(=O)[O-])ccc12

>  <canonical_smi>  (444) 
NC(=O)[C@@H]1CCC[NH+]1[C@H](C(=O)[O-])c1c[nH]c2cc(NC(=O)[C@H]3CC=CC[C@H]3C(=O)[O-])ccc12

>  <Set>  (444) 
G2 inactive

>  <Set_type>  (444) 
Train

>  <MW>  (444) 
453.48

>  <HBD>  (444) 
4

>  <HBA>  (444) 
6

>  <NRB>  (444) 
7

>  <NR>  (444) 
4

>  <NAR>  (444) 
2

>  <PSA>  (444) 
172.68

>  <Standard Type>  (444) 
nan

>  <Standard Relation>  (444) 
nan

>  <Standard Units>  (444) 
nan

>  <Standard Value>  (444) 
nan

>  <Assay ChEMBL ID>  (444) 
nan

>  <Assay Description>  (444) 
nan

>  <BAO Label>  (444) 
nan

$$$$

     RDKit          2D

 36 40  0  0  0  0  0  0  0  0999 V2000
   -9.2010   -8.5442    0.0000 O   0  0  0  0  0  0  0  0  0  0  0  0
  -10.5000   -7.7942    0.0000 P   0  0  0  0  0  5  0  0  0  0  0  0
  -11.7990   -7.0442    0.0000 O   0  0  0  0  0  1  0  0  0  0  0  0
   -9.7500   -6.4952    0.0000 O   0  0  0  0  0  0  0  0  0  0  0  0
   -8.2500   -6.4952    0.0000 C   0  0  0  0  0  0  0  0  0  0  0  0
   -7.5000   -5.1962    0.0000 C   0  0  0  0  0  0  0  0  0  0  0  0
   -6.0000   -5.1962    0.0000 C   0  0  0  0  0  0  0  0  0  0  0  0
   -5.2500   -3.8971    0.0000 C   0  0  0  0  0  0  0  0  0  0  0  0
   -3.7500   -3.8971    0.0000 C   0  0  0  0  0  0  0  0  0  0  0  0
   -3.0000   -5.1962    0.0000 C   0  0  0  0  0  0  0  0  0  0  0  0
   -1.5000   -5.1962    0.0000 C   0  0  0  0  0  0  0  0  0  0  0  0
   -0.7500   -3.8971    0.0000 C   0  0  0  0  0  0  0  0  0  0  0  0
    0.7500   -3.8971    0.0000 C   0  0  0  0  0  0  0  0  0  0  0  0
    1.5000   -2.5981    0.0000 C   0  0  0  0  0  0  0  0  0  0  0  0
    0.7500   -1.2990    0.0000 C   0  0  0  0  0  0  0  0  0  0  0  0
    1.5000    0.0000    0.0000 C   0  0  0  0  0  0  0  0  0  0  0  0
    0.7500    1.2990    0.0000 C   0  0  0  0  0  0  0  0  0  0  0  0
   -0.7500    1.2990    0.0000 C   0  0  0  0  0  0  0  0  0  0  0  0
   -1.5000    0.0000    0.0000 C   0  0  0  0  0  0  0  0  0  0  0  0
   -3.0000    0.0000    0.0000 C   0  0  0  0  0  0  0  0  0  0  0  0
   -3.7500   -1.2990    0.0000 C   0  0  0  0  0  0  0  0  0  0  0  0
   -3.0000   -2.5981    0.0000 C   0  0  0  0  0  0  0  0  0  0  0  0
   -1.5000   -2.5981    0.0000 C   0  0  0  0  0  0  0  0  0  0  0  0
   -0.7500   -1.2990    0.0000 C   0  0  0  0  0  0  0  0  0  0  0  0
  -11.2500   -9.0933    0.0000 O   0  0  0  0  0  0  0  0  0  0  0  0
  -10.5000  -10.3923    0.0000 C   0  0  0  0  0  0  0  0  0  0  0  0
  -11.2500  -11.6913    0.0000 C   0  0  0  0  0  0  0  0  0  0  0  0
  -12.7500  -11.6913    0.0000 O   0  0  0  0  0  0  0  0  0  0  0  0
  -10.5000  -12.9904    0.0000 C   0  0  0  0  0  0  0  0  0  0  0  0
  -11.2500  -14.2894    0.0000 O   0  0  0  0  0  0  0  0  0  0  0  0
   -9.0000  -12.9904    0.0000 C   0  0  0  0  0  0  0  0  0  0  0  0
   -8.2500  -14.2894    0.0000 O   0  0  0  0  0  0  0  0  0  0  0  0
   -8.2500  -11.6913    0.0000 C   0  0  0  0  0  0  0  0  0  0  0  0
   -6.7500  -11.6913    0.0000 O   0  0  0  0  0  0  0  0  0  0  0  0
   -9.0000  -10.3923    0.0000 C   0  0  0  0  0  0  0  0  0  0  0  0
   -8.2500   -9.0933    0.0000 O   0  0  0  0  0  0  0  0  0  0  0  0
  1  2  2  0
  2  3  1  1
  2  4  1  0
  4  5  1  0
  5  6  1  0
  6  7  1  0
  7  8  1  0
  8  9  1  0
  9 10  2  0
 10 11  1  0
 11 12  2  0
 12 13  1  0
 13 14  2  0
 14 15  1  0
 15 16  2  0
 16 17  1  0
 17 18  2  0
 18 19  1  0
 19 20  2  0
 20 21  1  0
 21 22  2  0
 22 23  1  0
 23 24  2  0
  2 25  1  0
 25 26  1  0
 26 27  1  0
 27 28  1  6
 27 29  1  0
 29 30  1  6
 29 31  1  0
 31 32  1  0
 31 33  1  0
 33 34  1  6
 33 35  1  0
 35 36  1  6
 22  9  1  0
 35 26  1  0
 23 12  1  0
 24 15  1  0
 24 19  1  0
M  CHG  1   3  -1
M  END
>  <Compound_ID>  (445) 
C35375784

>  <Active>  (445) 
0

>  <Smiles>  (445) 
O=[P@@]([O-])(OCCCCc1ccc2ccc3cccc4ccc1c2c34)OC1[C@@H](O)[C@@H](O)C(O)[C@@H](O)[C@H]1O

>  <canonical_smi>  (445) 
O=[P@@]([O-])(OCCCCc1ccc2ccc3cccc4ccc1c2c34)OC1[C@@H](O)[C@@H](O)C(O)[C@@H](O)[C@H]1O

>  <Set>  (445) 
G2 inactive

>  <Set_type>  (445) 
Train

>  <MW>  (445) 
515.48

>  <HBD>  (445) 
5

>  <HBA>  (445) 
9

>  <NRB>  (445) 
8

>  <NR>  (445) 
5

>  <NAR>  (445) 
4

>  <PSA>  (445) 
159.74

>  <Standard Type>  (445) 
nan

>  <Standard Relation>  (445) 
nan

>  <Standard Units>  (445) 
nan

>  <Standard Value>  (445) 
nan

>  <Assay ChEMBL ID>  (445) 
nan

>  <Assay Description>  (445) 
nan

>  <BAO Label>  (445) 
nan

$$$$

     RDKit          2D

 34 37  0  0  0  0  0  0  0  0999 V2000
    3.7500   -1.2990    0.0000 N   0  0  0  0  0  0  0  0  0  0  0  0
    3.0000    0.0000    0.0000 C   0  0  0  0  0  0  0  0  0  0  0  0
    3.7500    1.2990    0.0000 N   0  0  0  0  0  4  0  0  0  0  0  0
    1.5000    0.0000    0.0000 C   0  0  0  0  0  0  0  0  0  0  0  0
    0.7500   -1.2990    0.0000 C   0  0  0  0  0  0  0  0  0  0  0  0
   -0.7500   -1.2990    0.0000 C   0  0  0  0  0  0  0  0  0  0  0  0
   -1.5000    0.0000    0.0000 C   0  0  0  0  0  0  0  0  0  0  0  0
   -2.9672    0.3119    0.0000 N   0  0  0  0  0  0  0  0  0  0  0  0
   -3.1240    1.8037    0.0000 C   0  0  0  0  0  0  0  0  0  0  0  0
   -4.4231    2.5537    0.0000 C   0  0  0  0  0  0  0  0  0  0  0  0
   -4.4231    4.0537    0.0000 C   0  0  0  0  0  0  0  0  0  0  0  0
   -5.7221    4.8037    0.0000 C   0  0  0  0  0  0  0  0  0  0  0  0
   -5.7221    6.3037    0.0000 C   0  0  0  0  0  0  0  0  0  0  0  0
   -4.4231    7.0537    0.0000 C   0  0  0  0  0  0  0  0  0  0  0  0
   -4.4231    8.5537    0.0000 C   0  0  0  0  0  0  0  0  0  0  0  0
   -5.7221    9.3037    0.0000 O   0  0  0  0  0  0  0  0  0  0  0  0
   -3.1240    9.3037    0.0000 O   0  0  0  0  0  1  0  0  0  0  0  0
   -7.0211    7.0537    0.0000 C   0  0  0  0  0  0  0  0  0  0  0  0
   -8.3202    6.3037    0.0000 O   0  0  0  0  0  0  0  0  0  0  0  0
   -7.0211    8.5537    0.0000 O   0  0  0  0  0  1  0  0  0  0  0  0
   -7.0211    4.0537    0.0000 C   0  0  0  0  0  0  0  0  0  0  0  0
   -7.0211    2.5537    0.0000 C   0  0  0  0  0  0  0  0  0  0  0  0
   -8.3202    1.8037    0.0000 C   0  0  0  0  0  0  0  0  0  0  0  0
   -9.6192    2.5537    0.0000 C   0  0  0  0  0  0  0  0  0  0  0  0
  -10.9182    1.8037    0.0000 C   0  0  0  0  0  0  0  0  0  0  0  0
  -10.9182    0.3037    0.0000 C   0  0  0  0  0  0  0  0  0  0  0  0
   -9.6192   -0.4463    0.0000 C   0  0  0  0  0  0  0  0  0  0  0  0
   -8.3202    0.3037    0.0000 C   0  0  0  0  0  0  0  0  0  0  0  0
   -7.0211   -0.4463    0.0000 F   0  0  0  0  0  0  0  0  0  0  0  0
   -5.7221    1.8037    0.0000 C   0  0  0  0  0  0  0  0  0  0  0  0
   -5.7221    0.3037    0.0000 O   0  0  0  0  0  1  0  0  0  0  0  0
   -1.7537    2.4138    0.0000 N   0  0  0  0  0  4  0  0  0  0  0  0
   -0.7500    1.2990    0.0000 C   0  0  0  0  0  0  0  0  0  0  0  0
    0.7500    1.2990    0.0000 C   0  0  0  0  0  0  0  0  0  0  0  0
  1  2  1  0
  2  3  2  0
  2  4  1  0
  4  5  2  0
  5  6  1  0
  6  7  2  0
  7  8  1  0
  8  9  1  0
  9 10  1  0
 10 11  2  0
 11 12  1  0
 12 13  1  0
 13 14  1  6
 14 15  1  0
 15 16  2  0
 15 17  1  0
 13 18  1  0
 18 19  2  0
 18 20  1  0
 12 21  2  0
 21 22  1  0
 22 23  1  0
 23 24  2  0
 24 25  1  0
 25 26  2  0
 26 27  1  0
 27 28  2  0
 28 29  1  0
 22 30  2  0
 30 31  1  0
  9 32  2  0
 32 33  1  0
 33 34  2  0
 34  4  1  0
 33  7  1  0
 30 10  1  0
 28 23  1  0
M  CHG  5   3   1  17  -1  20  -1  31  -1  32   1
M  END
>  <Compound_ID>  (446) 
C12501044

>  <Active>  (446) 
0

>  <Smiles>  (446) 
NC(=[NH2+])c1ccc2[nH]c(-c3cc([C@@H](CC(=O)[O-])C(=O)[O-])cc(-c4ccccc4F)c3[O-])[nH+]c2c1

>  <canonical_smi>  (446) 
NC(=[NH2+])c1ccc2[nH]c(-c3cc([C@@H](CC(=O)[O-])C(=O)[O-])cc(-c4ccccc4F)c3[O-])[nH+]c2c1

>  <Set>  (446) 
G2 inactive

>  <Set_type>  (446) 
Train

>  <MW>  (446) 
461.43

>  <HBD>  (446) 
3

>  <HBA>  (446) 
6

>  <NRB>  (446) 
7

>  <NR>  (446) 
4

>  <NAR>  (446) 
4

>  <PSA>  (446) 
184.86

>  <Standard Type>  (446) 
nan

>  <Standard Relation>  (446) 
nan

>  <Standard Units>  (446) 
nan

>  <Standard Value>  (446) 
nan

>  <Assay ChEMBL ID>  (446) 
nan

>  <Assay Description>  (446) 
nan

>  <BAO Label>  (446) 
nan

$$$$

     RDKit          2D

 16 16  0  0  0  0  0  0  0  0999 V2000
    5.0260   -1.2990    0.0000 C   0  0  0  0  0  0  0  0  0  0  0  0
    3.5260   -1.2990    0.0000 N   0  0  0  0  0  0  0  0  0  0  0  0
    2.7760    0.0000    0.0000 C   0  0  0  0  0  0  0  0  0  0  0  0
    3.5260    1.2990    0.0000 O   0  0  0  0  0  0  0  0  0  0  0  0
    1.2760    0.0000    0.0000 C   0  0  0  0  0  0  0  0  0  0  0  0
    0.3943    1.2135    0.0000 N   0  0  0  0  0  0  0  0  0  0  0  0
   -1.0323    0.7500    0.0000 N   0  0  0  0  0  0  0  0  0  0  0  0
   -1.0323   -0.7500    0.0000 S   0  0  0  0  0  0  0  0  0  0  0  0
    0.3943   -1.2135    0.0000 C   0  0  0  0  0  0  0  0  0  0  0  0
    0.8578   -2.6401    0.0000 N   0  0  0  0  0  0  0  0  0  0  0  0
   -0.1459   -3.7548    0.0000 C   0  0  0  0  0  0  0  0  0  0  0  0
   -1.6131   -3.4430    0.0000 O   0  0  0  0  0  0  0  0  0  0  0  0
    0.3177   -5.1814    0.0000 C   0  0  0  0  0  0  0  0  0  0  0  0
    0.7812   -6.6080    0.0000 F   0  0  0  0  0  0  0  0  0  0  0  0
   -1.1089   -5.6449    0.0000 F   0  0  0  0  0  0  0  0  0  0  0  0
    1.7442   -4.7179    0.0000 F   0  0  0  0  0  0  0  0  0  0  0  0
  1  2  1  0
  2  3  1  0
  3  4  2  0
  3  5  1  0
  5  6  1  0
  6  7  2  0
  7  8  1  0
  8  9  1  0
  9 10  1  0
 10 11  1  0
 11 12  2  0
 11 13  1  0
 13 14  1  0
 13 15  1  0
 13 16  1  0
  9  5  2  0
M  END
>  <Compound_ID>  (447) 
C01417110

>  <Active>  (447) 
0

>  <Smiles>  (447) 
CNC(=O)c1nnsc1NC(=O)C(F)(F)F

>  <canonical_smi>  (447) 
CNC(=O)c1nnsc1NC(=O)C(F)(F)F

>  <Set>  (447) 
G2 inactive

>  <Set_type>  (447) 
Train

>  <MW>  (447) 
254.19

>  <HBD>  (447) 
2

>  <HBA>  (447) 
4

>  <NRB>  (447) 
2

>  <NR>  (447) 
1

>  <NAR>  (447) 
1

>  <PSA>  (447) 
83.98

>  <Standard Type>  (447) 
nan

>  <Standard Relation>  (447) 
nan

>  <Standard Units>  (447) 
nan

>  <Standard Value>  (447) 
nan

>  <Assay ChEMBL ID>  (447) 
nan

>  <Assay Description>  (447) 
nan

>  <BAO Label>  (447) 
nan

$$$$

     RDKit          2D

 15 16  0  0  0  0  0  0  0  0999 V2000
   -5.6640    3.2626    0.0000 C   0  0  0  0  0  0  0  0  0  0  0  0
   -4.1640    3.2626    0.0000 C   0  0  0  0  0  0  0  0  0  0  0  0
   -3.4140    1.9635    0.0000 C   0  0  0  0  0  0  0  0  0  0  0  0
   -4.1640    0.6645    0.0000 C   0  0  0  0  0  0  0  0  0  0  0  0
   -1.9140    1.9635    0.0000 N   0  0  0  0  0  0  0  0  0  0  0  0
   -1.0323    3.1771    0.0000 C   0  0  0  0  0  0  0  0  0  0  0  0
   -1.4958    4.6036    0.0000 O   0  0  0  0  0  0  0  0  0  0  0  0
    0.3943    2.7135    0.0000 N   0  0  0  0  0  0  0  0  0  0  0  0
    1.6078    3.5952    0.0000 C   0  0  0  0  0  0  0  0  0  0  0  0
    0.3943    1.2135    0.0000 C   0  0  0  0  0  0  0  0  0  0  0  0
    1.2760    0.0000    0.0000 N   0  0  0  0  0  0  0  0  0  0  0  0
    0.3943   -1.2135    0.0000 C   0  0  0  0  0  0  0  0  0  0  0  0
    0.8578   -2.6401    0.0000 O   0  0  0  0  0  0  0  0  0  0  0  0
   -1.0323   -0.7500    0.0000 N   0  0  0  0  0  0  0  0  0  0  0  0
   -1.0323    0.7500    0.0000 C   0  0  0  0  0  0  0  0  0  0  0  0
  1  2  1  0
  2  3  1  0
  3  4  1  6
  3  5  1  0
  5  6  1  0
  6  7  2  0
  6  8  1  0
  8  9  1  0
  8 10  1  0
 10 11  1  1
 11 12  1  0
 12 13  2  0
 12 14  1  0
 15 14  1  6
 15  5  1  0
 15 10  1  0
M  END
>  <Compound_ID>  (448) 
C13153632

>  <Active>  (448) 
0

>  <Smiles>  (448) 
CC[C@@H](C)N1C(=O)N(C)[C@H]2NC(=O)N[C@@H]21

>  <canonical_smi>  (448) 
CC[C@@H](C)N1C(=O)N(C)[C@H]2NC(=O)N[C@@H]21

>  <Set>  (448) 
G2 inactive

>  <Set_type>  (448) 
Train

>  <MW>  (448) 
212.25

>  <HBD>  (448) 
2

>  <HBA>  (448) 
2

>  <NRB>  (448) 
2

>  <NR>  (448) 
2

>  <NAR>  (448) 
0

>  <PSA>  (448) 
64.68

>  <Standard Type>  (448) 
nan

>  <Standard Relation>  (448) 
nan

>  <Standard Units>  (448) 
nan

>  <Standard Value>  (448) 
nan

>  <Assay ChEMBL ID>  (448) 
nan

>  <Assay Description>  (448) 
nan

>  <BAO Label>  (448) 
nan

$$$$

     RDKit          2D

 18 19  0  0  0  0  0  0  0  0999 V2000
    2.3907    1.0037    0.0000 C   0  0  0  0  0  0  0  0  0  0  0  0
    1.2760    0.0000    0.0000 C   0  0  0  0  0  0  0  0  0  0  0  0
    2.3907   -1.0037    0.0000 C   0  0  0  0  0  0  0  0  0  0  0  0
    0.3943    1.2135    0.0000 O   0  0  0  0  0  0  0  0  0  0  0  0
   -1.0323    0.7500    0.0000 C   0  0  0  0  0  0  0  0  0  0  0  0
   -1.0323   -0.7500    0.0000 C   0  0  0  0  0  0  0  0  0  0  0  0
   -2.2458   -1.6317    0.0000 C   0  0  0  0  0  0  0  0  0  0  0  0
   -2.0890   -3.1235    0.0000 O   0  0  0  0  0  0  0  0  0  0  0  0
   -3.6161   -1.0216    0.0000 C   0  0  0  0  0  0  0  0  0  0  0  0
   -4.9152   -1.7716    0.0000 O   0  0  0  0  0  0  0  0  0  0  0  0
   -6.0299   -0.7679    0.0000 C   0  0  0  0  0  0  0  0  0  0  0  0
   -6.9116   -1.9814    0.0000 C   0  0  0  0  0  0  0  0  0  0  0  0
   -7.3289   -0.0179    0.0000 C   0  0  0  0  0  0  0  0  0  0  0  0
   -5.4198    0.6024    0.0000 O   0  0  0  0  0  0  0  0  0  0  0  0
   -3.9280    0.4456    0.0000 C   0  0  0  0  0  0  0  0  0  0  0  0
   -2.9243    1.5604    0.0000 C   0  0  0  0  0  0  0  0  0  0  0  0
   -3.3878    2.9870    0.0000 O   0  0  0  0  0  0  0  0  0  0  0  0
    0.3943   -1.2135    0.0000 O   0  0  0  0  0  0  0  0  0  0  0  0
  1  2  1  0
  2  3  1  0
  2  4  1  0
  4  5  1  0
  6  5  1  6
  6  7  1  0
  7  8  1  1
  7  9  1  0
  9 10  1  6
 10 11  1  0
 11 12  1  0
 11 13  1  0
 11 14  1  0
 14 15  1  0
 15 16  1  6
 16 17  1  0
  6 18  1  0
 18  2  1  0
 15  9  1  0
M  END
>  <Compound_ID>  (449) 
C14586363

>  <Active>  (449) 
0

>  <Smiles>  (449) 
CC1(C)OC[C@@H]([C@@H](O)[C@@H]2OC(C)(C)O[C@@H]2CO)O1

>  <canonical_smi>  (449) 
CC1(C)OC[C@@H]([C@@H](O)[C@@H]2OC(C)(C)O[C@@H]2CO)O1

>  <Set>  (449) 
G2 inactive

>  <Set_type>  (449) 
Train

>  <MW>  (449) 
262.3

>  <HBD>  (449) 
2

>  <HBA>  (449) 
6

>  <NRB>  (449) 
3

>  <NR>  (449) 
2

>  <NAR>  (449) 
0

>  <PSA>  (449) 
77.38

>  <Standard Type>  (449) 
nan

>  <Standard Relation>  (449) 
nan

>  <Standard Units>  (449) 
nan

>  <Standard Value>  (449) 
nan

>  <Assay ChEMBL ID>  (449) 
nan

>  <Assay Description>  (449) 
nan

>  <BAO Label>  (449) 
nan

$$$$

     RDKit          2D

 14 16  0  0  0  0  0  0  0  0999 V2000
   -0.5484    6.3538    0.0000 O   0  0  0  0  0  0  0  0  0  0  0  0
    0.2016    5.0548    0.0000 N   0  0  0  0  0  0  0  0  0  0  0  0
    1.6933    4.8980    0.0000 C   0  0  0  0  0  0  0  0  0  0  0  0
    2.0052    3.4307    0.0000 C   0  0  0  0  0  0  0  0  0  0  0  0
    0.7062    2.6807    0.0000 C   0  0  0  0  0  0  0  0  0  0  0  0
    1.9197    1.7991    0.0000 O   0  0  0  0  0  0  0  0  0  0  0  0
    0.3943    1.2135    0.0000 C   0  0  0  0  0  0  0  0  0  0  0  0
    1.2760    0.0000    0.0000 N   0  0  0  0  0  0  0  0  0  0  0  0
    0.3943   -1.2135    0.0000 O   0  0  0  0  0  0  0  0  0  0  0  0
   -1.0323   -0.7500    0.0000 N   0  0  0  0  0  0  0  0  0  0  0  0
   -1.0323    0.7500    0.0000 C   0  0  0  0  0  0  0  0  0  0  0  0
   -2.1470    1.7537    0.0000 C   0  0  0  0  0  0  0  0  0  0  0  0
   -1.8351    3.2209    0.0000 C   0  0  0  0  0  0  0  0  0  0  0  0
   -0.4086    3.6844    0.0000 C   0  0  0  0  0  0  0  0  0  0  0  0
  1  2  1  0
  2  3  1  0
  3  4  1  0
  4  5  1  0
  5  6  1  6
  5  7  1  0
  7  8  2  0
  8  9  1  0
  9 10  1  0
 10 11  2  0
 11 12  1  0
 12 13  1  0
 14 13  1  6
 14  2  1  0
 14  5  1  0
 11  7  1  0
M  END
>  <Compound_ID>  (450) 
C00497841

>  <Active>  (450) 
0

>  <Smiles>  (450) 
ON1CC[C@@]2(O)c3nonc3CC[C@H]12

>  <canonical_smi>  (450) 
ON1CC[C@@]2(O)c3nonc3CC[C@H]12

>  <Set>  (450) 
G2 inactive

>  <Set_type>  (450) 
Train

>  <MW>  (450) 
197.19

>  <HBD>  (450) 
2

>  <HBA>  (450) 
6

>  <NRB>  (450) 
0

>  <NR>  (450) 
3

>  <NAR>  (450) 
1

>  <PSA>  (450) 
82.62

>  <Standard Type>  (450) 
nan

>  <Standard Relation>  (450) 
nan

>  <Standard Units>  (450) 
nan

>  <Standard Value>  (450) 
nan

>  <Assay ChEMBL ID>  (450) 
nan

>  <Assay Description>  (450) 
nan

>  <BAO Label>  (450) 
nan

$$$$

     RDKit          2D

 15 17  0  0  0  0  0  0  0  0999 V2000
    3.0000    0.0000    0.0000 C   0  0  0  0  0  0  0  0  0  0  0  0
    1.5000    0.0000    0.0000 C   0  0  0  0  0  0  0  0  0  0  0  0
    0.7500   -1.2990    0.0000 N   0  0  0  0  0  4  0  0  0  0  0  0
   -0.7500   -1.2990    0.0000 C   0  0  0  0  0  0  0  0  0  0  0  0
   -1.5000    0.0000    0.0000 C   0  0  0  0  0  0  0  0  0  0  0  0
   -0.7500    1.2990    0.0000 N   0  0  0  0  0  0  0  0  0  0  0  0
   -1.2135    2.7256    0.0000 C   0  0  0  0  0  0  0  0  0  0  0  0
   -2.6401    3.1891    0.0000 C   0  0  0  0  0  0  0  0  0  0  0  0
   -3.8536    2.3075    0.0000 N   0  0  0  0  0  0  0  0  0  0  0  0
   -5.0672    3.1891    0.0000 N   0  0  0  0  0  0  0  0  0  0  0  0
   -4.6036    4.6157    0.0000 N   0  0  0  0  0  0  0  0  0  0  0  0
   -3.1036    4.6157    0.0000 N   0  0  0  0  0  2  0  0  0  0  0  0
    0.0000    3.6073    0.0000 C   0  0  0  0  0  0  0  0  0  0  0  0
    1.2135    2.7256    0.0000 C   0  0  0  0  0  0  0  0  0  0  0  0
    0.7500    1.2990    0.0000 C   0  0  0  0  0  0  0  0  0  0  0  0
  2  1  1  1
  2  3  1  0
  3  4  1  0
  4  5  1  0
  5  6  1  0
  6  7  1  0
  7  8  1  0
  8  9  2  0
  9 10  1  0
 10 11  2  0
 11 12  1  0
  7 13  2  0
 13 14  1  0
 14 15  2  0
 15  2  1  0
 15  6  1  0
 12  8  1  0
M  CHG  2   3   1  12  -1
M  END
>  <Compound_ID>  (451) 
C12877936

>  <Active>  (451) 
0

>  <Smiles>  (451) 
C[C@H]1[NH2+]CCn2c(-c3nnn[n-]3)ccc21

>  <canonical_smi>  (451) 
C[C@H]1[NH2+]CCn2c(-c3nnn[n-]3)ccc21

>  <Set>  (451) 
G2 inactive

>  <Set_type>  (451) 
Train

>  <MW>  (451) 
204.24

>  <HBD>  (451) 
1

>  <HBA>  (451) 
4

>  <NRB>  (451) 
1

>  <NR>  (451) 
3

>  <NAR>  (451) 
2

>  <PSA>  (451) 
74.31

>  <Standard Type>  (451) 
nan

>  <Standard Relation>  (451) 
nan

>  <Standard Units>  (451) 
nan

>  <Standard Value>  (451) 
nan

>  <Assay ChEMBL ID>  (451) 
nan

>  <Assay Description>  (451) 
nan

>  <BAO Label>  (451) 
nan

$$$$

     RDKit          2D

 17 19  0  0  0  0  0  0  0  0999 V2000
    3.0000    0.0000    0.0000 N   0  0  0  0  0  0  0  0  0  0  0  0
    1.5000    0.0000    0.0000 C   0  0  0  0  0  0  0  0  0  0  0  0
    0.7500   -1.2990    0.0000 C   0  0  0  0  0  0  0  0  0  0  0  0
   -0.7500   -1.2990    0.0000 C   0  0  0  0  0  0  0  0  0  0  0  0
   -1.5000    0.0000    0.0000 C   0  0  0  0  0  0  0  0  0  0  0  0
   -0.7500    1.2990    0.0000 C   0  0  0  0  0  0  0  0  0  0  0  0
    0.7500    1.2990    0.0000 C   0  0  0  0  0  0  0  0  0  0  0  0
    1.2135    2.7256    0.0000 C   0  0  0  0  0  0  0  0  0  0  0  0
    2.6401    3.1891    0.0000 O   0  0  0  0  0  0  0  0  0  0  0  0
    0.0000    3.6073    0.0000 N   0  0  0  0  0  0  0  0  0  0  0  0
    0.0000    5.1073    0.0000 C   0  0  0  0  0  0  0  0  0  0  0  0
   -1.2135    5.9890    0.0000 C   0  0  0  0  0  0  0  0  0  0  0  0
   -0.7500    7.4156    0.0000 C   0  0  0  0  0  0  0  0  0  0  0  0
    0.7500    7.4156    0.0000 O   0  0  0  0  0  0  0  0  0  0  0  0
    1.2135    5.9890    0.0000 N   0  0  0  0  0  0  0  0  0  0  0  0
   -1.2135    2.7256    0.0000 C   0  0  0  0  0  0  0  0  0  0  0  0
   -2.6401    3.1891    0.0000 O   0  0  0  0  0  0  0  0  0  0  0  0
  1  2  1  0
  2  3  2  0
  3  4  1  0
  4  5  2  0
  5  6  1  0
  6  7  2  0
  7  8  1  0
  8  9  2  0
  8 10  1  0
 10 11  1  0
 11 12  1  0
 12 13  2  0
 13 14  1  0
 14 15  1  0
 10 16  1  0
 16 17  2  0
  7  2  1  0
 15 11  2  0
 16  6  1  0
M  END
>  <Compound_ID>  (452) 
C61685438

>  <Active>  (452) 
0

>  <Smiles>  (452) 
Nc1cccc2c1C(=O)N(c1ccon1)C2=O

>  <canonical_smi>  (452) 
Nc1cccc2c1C(=O)N(c1ccon1)C2=O

>  <Set>  (452) 
G2 inactive

>  <Set_type>  (452) 
Train

>  <MW>  (452) 
229.19

>  <HBD>  (452) 
1

>  <HBA>  (452) 
5

>  <NRB>  (452) 
1

>  <NR>  (452) 
3

>  <NAR>  (452) 
2

>  <PSA>  (452) 
89.43

>  <Standard Type>  (452) 
nan

>  <Standard Relation>  (452) 
nan

>  <Standard Units>  (452) 
nan

>  <Standard Value>  (452) 
nan

>  <Assay ChEMBL ID>  (452) 
nan

>  <Assay Description>  (452) 
nan

>  <BAO Label>  (452) 
nan

$$$$

     RDKit          2D

 22 22  0  0  0  0  0  0  0  0999 V2000
   12.0000   -5.1962    0.0000 C   0  0  0  0  0  0  0  0  0  0  0  0
   10.5000   -5.1962    0.0000 C   0  0  0  0  0  0  0  0  0  0  0  0
    9.7500   -6.4952    0.0000 C   0  0  0  0  0  0  0  0  0  0  0  0
    9.7500   -3.8971    0.0000 N   0  0  0  0  0  0  0  0  0  0  0  0
    8.2500   -3.8971    0.0000 C   0  0  0  0  0  0  0  0  0  0  0  0
    7.5000   -5.1962    0.0000 O   0  0  0  0  0  0  0  0  0  0  0  0
    7.5000   -2.5981    0.0000 N   0  0  0  0  0  0  0  0  0  0  0  0
    6.0000   -2.5981    0.0000 N   0  0  0  0  0  0  0  0  0  0  0  0
    5.2500   -1.2990    0.0000 C   0  0  0  0  0  0  0  0  0  0  0  0
    6.0000    0.0000    0.0000 O   0  0  0  0  0  0  0  0  0  0  0  0
    3.7500   -1.2990    0.0000 C   0  0  0  0  0  0  0  0  0  0  0  0
    3.0000    0.0000    0.0000 C   0  0  0  0  0  0  0  0  0  0  0  0
    1.5000    0.0000    0.0000 C   0  0  0  0  0  0  0  0  0  0  0  0
    0.7500   -1.2990    0.0000 C   0  0  0  0  0  0  0  0  0  0  0  0
   -0.7500   -1.2990    0.0000 C   0  0  0  0  0  0  0  0  0  0  0  0
   -1.5000    0.0000    0.0000 C   0  0  0  0  0  0  0  0  0  0  0  0
   -3.0000    0.0000    0.0000 Cl  0  0  0  0  0  0  0  0  0  0  0  0
   -0.7500    1.2990    0.0000 C   0  0  0  0  0  0  0  0  0  0  0  0
   -1.5000    2.5981    0.0000 N   0  0  0  0  0  4  0  0  0  0  0  0
   -3.0000    2.5981    0.0000 O   0  0  0  0  0  0  0  0  0  0  0  0
   -0.7500    3.8971    0.0000 O   0  0  0  0  0  1  0  0  0  0  0  0
    0.7500    1.2990    0.0000 C   0  0  0  0  0  0  0  0  0  0  0  0
  1  2  1  0
  2  3  1  0
  2  4  1  0
  4  5  1  0
  5  6  2  0
  5  7  1  0
  7  8  1  0
  8  9  1  0
  9 10  2  0
  9 11  1  0
 11 12  2  0
 12 13  1  0
 13 14  2  0
 14 15  1  0
 15 16  2  0
 16 17  1  0
 16 18  1  0
 18 19  1  0
 19 20  2  0
 19 21  1  0
 18 22  2  0
 22 13  1  0
M  CHG  2  19   1  21  -1
M  END
>  <Compound_ID>  (453) 
C63363496

>  <Active>  (453) 
0

>  <Smiles>  (453) 
CC(C)NC(=O)NNC(=O)/C=C/c1ccc(Cl)c([N+](=O)[O-])c1

>  <canonical_smi>  (453) 
CC(C)NC(=O)NNC(=O)/C=C/c1ccc(Cl)c([N+](=O)[O-])c1

>  <Set>  (453) 
G2 inactive

>  <Set_type>  (453) 
Train

>  <MW>  (453) 
326.74

>  <HBD>  (453) 
3

>  <HBA>  (453) 
4

>  <NRB>  (453) 
4

>  <NR>  (453) 
1

>  <NAR>  (453) 
1

>  <PSA>  (453) 
113.37

>  <Standard Type>  (453) 
nan

>  <Standard Relation>  (453) 
nan

>  <Standard Units>  (453) 
nan

>  <Standard Value>  (453) 
nan

>  <Assay ChEMBL ID>  (453) 
nan

>  <Assay Description>  (453) 
nan

>  <BAO Label>  (453) 
nan

$$$$

     RDKit          2D

 25 28  0  0  0  0  0  0  0  0999 V2000
   -3.5757   -7.5908    0.0000 O   0  0  0  0  0  0  0  0  0  0  0  0
   -4.6904   -6.5871    0.0000 C   0  0  0  0  0  0  0  0  0  0  0  0
   -4.3786   -5.1199    0.0000 N   0  0  0  0  0  0  0  0  0  0  0  0
   -2.9520   -4.6564    0.0000 N   0  0  0  0  0  0  0  0  0  0  0  0
   -2.6401   -3.1891    0.0000 C   0  0  0  0  0  0  0  0  0  0  0  0
   -1.2135   -2.7256    0.0000 C   0  0  0  0  0  0  0  0  0  0  0  0
   -0.0000   -3.6073    0.0000 C   0  0  0  0  0  0  0  0  0  0  0  0
    1.2135   -2.7256    0.0000 N   0  0  0  0  0  0  0  0  0  0  0  0
    0.7500   -1.2990    0.0000 C   0  0  0  0  0  0  0  0  0  0  0  0
    1.5000    0.0000    0.0000 C   0  0  0  0  0  0  0  0  0  0  0  0
    0.7500    1.2990    0.0000 C   0  0  0  0  0  0  0  0  0  0  0  0
   -0.7500    1.2990    0.0000 C   0  0  0  0  0  0  0  0  0  0  0  0
   -1.5000    0.0000    0.0000 C   0  0  0  0  0  0  0  0  0  0  0  0
   -0.7500   -1.2990    0.0000 C   0  0  0  0  0  0  0  0  0  0  0  0
   -6.1170   -7.0506    0.0000 C   0  0  0  0  0  0  0  0  0  0  0  0
   -6.5805   -8.4772    0.0000 C   0  0  0  0  0  0  0  0  0  0  0  0
   -8.0805   -8.4772    0.0000 C   0  0  0  0  0  0  0  0  0  0  0  0
   -8.9622   -9.6908    0.0000 C   0  0  0  0  0  0  0  0  0  0  0  0
   -8.4987  -11.1173    0.0000 C   0  0  0  0  0  0  0  0  0  0  0  0
   -9.7122  -11.9990    0.0000 C   0  0  0  0  0  0  0  0  0  0  0  0
  -10.9257  -11.1173    0.0000 C   0  0  0  0  0  0  0  0  0  0  0  0
  -12.3523  -11.5809    0.0000 Br  0  0  0  0  0  0  0  0  0  0  0  0
  -10.4622   -9.6908    0.0000 S   0  0  0  0  0  0  0  0  0  0  0  0
   -8.5441   -7.0506    0.0000 N   0  0  0  0  0  0  0  0  0  0  0  0
   -7.3305   -6.1690    0.0000 N   0  0  0  0  0  0  0  0  0  0  0  0
  1  2  2  0
  2  3  1  0
  3  4  1  0
  4  5  1  0
  5  6  2  0
  6  7  1  0
  7  8  2  0
  8  9  1  0
  9 10  2  0
 10 11  1  0
 11 12  2  0
 12 13  1  0
 13 14  2  0
  2 15  1  0
 15 16  1  0
 16 17  2  0
 17 18  1  0
 18 19  2  0
 19 20  1  0
 20 21  2  0
 21 22  1  0
 21 23  1  0
 17 24  1  0
 24 25  1  0
 14  6  1  0
 25 15  2  0
 14  9  1  0
 23 18  1  0
M  END
>  <Compound_ID>  (454) 
C01795602

>  <Active>  (454) 
0

>  <Smiles>  (454) 
O=C(NN/C=C1\C=Nc2ccccc21)c1cc(-c2ccc(Br)s2)[nH]n1

>  <canonical_smi>  (454) 
O=C(NN/C=C1\C=Nc2ccccc21)c1cc(-c2ccc(Br)s2)[nH]n1

>  <Set>  (454) 
G2 inactive

>  <Set_type>  (454) 
Train

>  <MW>  (454) 
414.29

>  <HBD>  (454) 
3

>  <HBA>  (454) 
3

>  <NRB>  (454) 
4

>  <NR>  (454) 
4

>  <NAR>  (454) 
3

>  <PSA>  (454) 
82.17

>  <Standard Type>  (454) 
nan

>  <Standard Relation>  (454) 
nan

>  <Standard Units>  (454) 
nan

>  <Standard Value>  (454) 
nan

>  <Assay ChEMBL ID>  (454) 
nan

>  <Assay Description>  (454) 
nan

>  <BAO Label>  (454) 
nan

$$$$

     RDKit          2D

 16 16  0  0  0  0  0  0  0  0999 V2000
    4.2990    2.2500    0.0000 O   0  0  0  0  0  0  0  0  0  0  0  0
    3.0000    1.5000    0.0000 C   0  0  0  0  0  0  0  0  0  0  0  0
    3.0000    0.0000    0.0000 C   0  0  0  0  0  0  0  0  0  0  0  0
    4.5000    0.0000    0.0000 Cl  0  0  0  0  0  0  0  0  0  0  0  0
    3.0000   -1.5000    0.0000 C   0  0  0  0  0  0  0  0  0  0  0  0
    4.2990   -2.2500    0.0000 O   0  0  0  0  0  0  0  0  0  0  0  0
    1.5000    0.0000    0.0000 C   0  0  0  0  0  0  0  0  0  0  0  0
    0.7500   -1.2990    0.0000 O   0  0  0  0  0  0  0  0  0  0  0  0
   -0.7500   -1.2990    0.0000 C   0  0  0  0  0  0  0  0  0  0  0  0
   -1.5000    0.0000    0.0000 C   0  0  0  0  0  0  0  0  0  0  0  0
   -2.6491    0.9642    0.0000 Cl  0  0  0  0  0  0  0  0  0  0  0  0
   -2.6491   -0.9642    0.0000 C   0  0  0  0  0  0  0  0  0  0  0  0
   -4.0586   -0.4512    0.0000 O   0  0  0  0  0  0  0  0  0  0  0  0
   -0.7500    1.2990    0.0000 C   0  0  0  0  0  0  0  0  0  0  0  0
   -1.5000    2.5981    0.0000 O   0  0  0  0  0  0  0  0  0  0  0  0
    0.7500    1.2990    0.0000 O   0  0  0  0  0  0  0  0  0  0  0  0
  1  2  1  0
  2  3  1  0
  3  4  1  0
  3  5  1  0
  5  6  1  0
  7  3  1  6
  7  8  1  0
  8  9  1  0
  9 10  1  0
 10 11  1  1
 10 12  1  0
 12 13  1  0
 10 14  1  0
 14 15  1  1
 14 16  1  0
 16  7  1  0
M  END
>  <Compound_ID>  (455) 
C37630185

>  <Active>  (455) 
0

>  <Smiles>  (455) 
OCC(Cl)(CO)[C@@H]1OC[C@](Cl)(CO)[C@@H](O)O1

>  <canonical_smi>  (455) 
OCC(Cl)(CO)[C@@H]1OC[C@](Cl)(CO)[C@@H](O)O1

>  <Set>  (455) 
G2 inactive

>  <Set_type>  (455) 
Train

>  <MW>  (455) 
277.1

>  <HBD>  (455) 
4

>  <HBA>  (455) 
6

>  <NRB>  (455) 
4

>  <NR>  (455) 
1

>  <NAR>  (455) 
0

>  <PSA>  (455) 
99.38

>  <Standard Type>  (455) 
nan

>  <Standard Relation>  (455) 
nan

>  <Standard Units>  (455) 
nan

>  <Standard Value>  (455) 
nan

>  <Assay ChEMBL ID>  (455) 
nan

>  <Assay Description>  (455) 
nan

>  <BAO Label>  (455) 
nan

$$$$

     RDKit          2D

 19 19  0  0  0  0  0  0  0  0999 V2000
    3.7500    1.2990    0.0000 C   0  0  0  0  0  0  0  0  0  0  0  0
    3.0000    0.0000    0.0000 O   0  0  0  0  0  0  0  0  0  0  0  0
    1.5000    0.0000    0.0000 C   0  0  0  0  0  0  0  0  0  0  0  0
    0.7500   -1.2990    0.0000 C   0  0  0  0  0  0  0  0  0  0  0  0
    1.5000   -2.5981    0.0000 O   0  0  0  0  0  0  0  0  0  0  0  0
   -0.7500   -1.2990    0.0000 C   0  0  0  0  0  0  0  0  0  0  0  0
   -1.5000   -2.5981    0.0000 N   0  0  0  0  0  0  0  0  0  0  0  0
   -3.0000   -2.5981    0.0000 C   0  0  0  0  0  0  0  0  0  0  0  0
   -3.7500   -1.2990    0.0000 O   0  0  0  0  0  0  0  0  0  0  0  0
   -3.7500   -3.8971    0.0000 C   0  0  0  0  0  0  0  0  0  0  0  0
   -5.2500   -3.8971    0.0000 C   0  0  0  0  0  0  0  0  0  0  0  0
   -5.2500   -2.3971    0.0000 C   0  0  0  0  0  0  0  0  0  0  0  0
   -5.2500   -5.3971    0.0000 C   0  0  0  0  0  0  0  0  0  0  0  0
   -6.7500   -3.8971    0.0000 O   0  0  0  0  0  0  0  0  0  0  0  0
   -1.5000    0.0000    0.0000 C   0  0  0  0  0  0  0  0  0  0  0  0
   -3.0000    0.0000    0.0000 C   0  0  0  0  0  0  0  0  0  0  0  0
   -0.7500    1.2990    0.0000 O   0  0  0  0  0  0  0  0  0  0  0  0
    0.7500    1.2990    0.0000 C   0  0  0  0  0  0  0  0  0  0  0  0
    1.5000    2.5981    0.0000 O   0  0  0  0  0  0  0  0  0  0  0  0
  1  2  1  0
  3  2  1  6
  3  4  1  0
  4  5  1  1
  4  6  1  0
  6  7  1  1
  7  8  1  0
  8  9  2  0
  8 10  1  0
 10 11  1  0
 11 12  1  0
 11 13  1  0
 11 14  1  0
  6 15  1  0
 15 16  1  6
 15 17  1  0
 17 18  1  0
 18 19  1  6
 18  3  1  0
M  END
>  <Compound_ID>  (456) 
C44608245

>  <Active>  (456) 
0

>  <Smiles>  (456) 
CO[C@@H]1[C@@H](O)[C@@H](NC(=O)CC(C)(C)O)[C@H](C)O[C@@H]1O

>  <canonical_smi>  (456) 
CO[C@H]1[C@@H](O)O[C@@H](C)[C@H](NC(=O)CC(C)(C)O)[C@@H]1O

>  <Set>  (456) 
G2 inactive

>  <Set_type>  (456) 
Train

>  <MW>  (456) 
277.32

>  <HBD>  (456) 
4

>  <HBA>  (456) 
6

>  <NRB>  (456) 
4

>  <NR>  (456) 
1

>  <NAR>  (456) 
0

>  <PSA>  (456) 
108.25

>  <Standard Type>  (456) 
nan

>  <Standard Relation>  (456) 
nan

>  <Standard Units>  (456) 
nan

>  <Standard Value>  (456) 
nan

>  <Assay ChEMBL ID>  (456) 
nan

>  <Assay Description>  (456) 
nan

>  <BAO Label>  (456) 
nan

$$$$

     RDKit          2D

 17 17  0  0  0  0  0  0  0  0999 V2000
    3.8173    0.5402    0.0000 C   0  0  0  0  0  0  0  0  0  0  0  0
    2.3907    1.0037    0.0000 C   0  0  0  0  0  0  0  0  0  0  0  0
    1.2760    0.0000    0.0000 C   0  0  0  0  0  0  0  0  0  0  0  0
    2.3907   -1.0037    0.0000 C   0  0  0  0  0  0  0  0  0  0  0  0
    3.8173   -0.5402    0.0000 O   0  0  0  0  0  0  0  0  0  0  0  0
    2.0788   -2.4709    0.0000 O   0  0  0  0  0  1  0  0  0  0  0  0
    0.3943    1.2135    0.0000 C   0  0  0  0  0  0  0  0  0  0  0  0
   -1.0323    0.7500    0.0000 C   0  0  0  0  0  0  0  0  0  0  0  0
   -1.0323   -0.7500    0.0000 N   0  0  0  0  0  4  0  0  0  0  0  0
   -2.2458   -1.6317    0.0000 C   0  0  0  0  0  0  0  0  0  0  0  0
   -3.6161   -1.0216    0.0000 C   0  0  0  0  0  0  0  0  0  0  0  0
   -3.7729    0.4702    0.0000 O   0  0  0  0  0  0  0  0  0  0  0  0
   -4.8297   -1.9033    0.0000 N   0  0  0  0  0  0  0  0  0  0  0  0
   -6.2000   -1.2931    0.0000 C   0  0  0  0  0  0  0  0  0  0  0  0
   -7.4135   -2.1748    0.0000 N   0  0  0  0  0  0  0  0  0  0  0  0
   -6.3568    0.1986    0.0000 O   0  0  0  0  0  0  0  0  0  0  0  0
    0.3943   -1.2135    0.0000 C   0  0  0  0  0  0  0  0  0  0  0  0
  1  2  1  0
  3  2  1  6
  3  4  1  0
  4  5  2  0
  4  6  1  0
  3  7  1  0
  7  8  1  0
  8  9  1  0
  9 10  1  0
 10 11  1  0
 11 12  2  0
 11 13  1  0
 13 14  1  0
 14 15  1  0
 14 16  2  0
  9 17  1  0
 17  3  1  0
M  CHG  2   6  -1   9   1
M  END
>  <Compound_ID>  (457) 
C62937200

>  <Active>  (457) 
0

>  <Smiles>  (457) 
CC[C@@]1(C(=O)[O-])CC[NH+](CC(=O)NC(N)=O)C1

>  <canonical_smi>  (457) 
CC[C@@]1(C(=O)[O-])CC[NH+](CC(=O)NC(N)=O)C1

>  <Set>  (457) 
G2 inactive

>  <Set_type>  (457) 
Train

>  <MW>  (457) 
243.26

>  <HBD>  (457) 
3

>  <HBA>  (457) 
4

>  <NRB>  (457) 
4

>  <NR>  (457) 
1

>  <NAR>  (457) 
0

>  <PSA>  (457) 
116.76

>  <Standard Type>  (457) 
nan

>  <Standard Relation>  (457) 
nan

>  <Standard Units>  (457) 
nan

>  <Standard Value>  (457) 
nan

>  <Assay ChEMBL ID>  (457) 
nan

>  <Assay Description>  (457) 
nan

>  <BAO Label>  (457) 
nan

$$$$

     RDKit          2D

 16 16  0  0  0  0  0  0  0  0999 V2000
    2.7760    2.5981    0.0000 C   0  0  0  0  0  0  0  0  0  0  0  0
    3.5260    1.2990    0.0000 C   0  0  0  0  0  0  0  0  0  0  0  0
    2.7760    0.0000    0.0000 C   0  0  0  0  0  0  0  0  0  0  0  0
    1.2760    0.0000    0.0000 C   0  0  0  0  0  0  0  0  0  0  0  0
    0.3943    1.2135    0.0000 C   0  0  0  0  0  0  0  0  0  0  0  0
    0.8578    2.6401    0.0000 Cl  0  0  0  0  0  0  0  0  0  0  0  0
   -1.0323    0.7500    0.0000 C   0  0  0  0  0  0  0  0  0  0  0  0
   -2.2458    1.6317    0.0000 O   0  0  0  0  0  0  0  0  0  0  0  0
   -1.0323   -0.7500    0.0000 C   0  0  0  0  0  0  0  0  0  0  0  0
   -2.2458   -1.6317    0.0000 Cl  0  0  0  0  0  0  0  0  0  0  0  0
    0.3943   -1.2135    0.0000 C   0  0  0  0  0  0  0  0  0  0  0  0
   -0.2158   -2.5838    0.0000 O   0  0  0  0  0  0  0  0  0  0  0  0
    1.6933   -1.9635    0.0000 C   0  0  0  0  0  0  0  0  0  0  0  0
    2.9924   -1.2135    0.0000 O   0  0  0  0  0  0  0  0  0  0  0  0
    1.6933   -3.4635    0.0000 O   0  0  0  0  0  0  0  0  0  0  0  0
    2.9924   -4.2135    0.0000 C   0  0  0  0  0  0  0  0  0  0  0  0
  1  2  1  0
  2  3  2  0
  3  4  1  0
  4  5  2  0
  5  6  1  0
  5  7  1  0
  7  8  2  0
  7  9  1  0
  9 10  1  1
  9 11  1  0
 11 12  1  1
 11 13  1  0
 13 14  2  0
 13 15  1  0
 15 16  1  0
 11  4  1  0
M  END
>  <Compound_ID>  (458) 
C16953599

>  <Active>  (458) 
0

>  <Smiles>  (458) 
C/C=C\C1=C(Cl)C(=O)[C@H](Cl)[C@@]1(O)C(=O)OC

>  <canonical_smi>  (458) 
C/C=C\C1=C(Cl)C(=O)[C@H](Cl)[C@@]1(O)C(=O)OC

>  <Set>  (458) 
G2 inactive

>  <Set_type>  (458) 
Train

>  <MW>  (458) 
265.09

>  <HBD>  (458) 
1

>  <HBA>  (458) 
4

>  <NRB>  (458) 
2

>  <NR>  (458) 
1

>  <NAR>  (458) 
0

>  <PSA>  (458) 
63.6

>  <Standard Type>  (458) 
nan

>  <Standard Relation>  (458) 
nan

>  <Standard Units>  (458) 
nan

>  <Standard Value>  (458) 
nan

>  <Assay ChEMBL ID>  (458) 
nan

>  <Assay Description>  (458) 
nan

>  <BAO Label>  (458) 
nan

$$$$

     RDKit          2D

 19 22  0  0  0  0  0  0  0  0999 V2000
   -2.9812   -3.7800    0.0000 S   0  0  0  0  0  0  0  0  0  0  0  0
   -2.6694   -5.2472    0.0000 C   0  0  0  0  0  0  0  0  0  0  0  0
   -3.6731   -6.3619    0.0000 N   0  0  0  0  0  0  0  0  0  0  0  0
   -2.9231   -7.6610    0.0000 N   0  0  0  0  0  0  0  0  0  0  0  0
   -1.4558   -7.3491    0.0000 C   0  0  0  0  0  0  0  0  0  0  0  0
   -0.3411   -8.3528    0.0000 C   0  0  0  0  0  0  0  0  0  0  0  0
    1.1261   -8.6646    0.0000 C   0  0  0  0  0  0  0  0  0  0  0  0
    0.1224   -9.7794    0.0000 C   0  0  0  0  0  0  0  0  0  0  0  0
   -1.2990   -5.8573    0.0000 N   0  0  0  0  0  0  0  0  0  0  0  0
   -0.0000   -5.1073    0.0000 C   0  0  0  0  0  0  0  0  0  0  0  0
   -0.0000   -3.6073    0.0000 C   0  0  0  0  0  0  0  0  0  0  0  0
    1.2135   -2.7256    0.0000 C   0  0  0  0  0  0  0  0  0  0  0  0
    0.7500   -1.2990    0.0000 C   0  0  0  0  0  0  0  0  0  0  0  0
    1.5000    0.0000    0.0000 C   0  0  0  0  0  0  0  0  0  0  0  0
    0.7500    1.2990    0.0000 C   0  0  0  0  0  0  0  0  0  0  0  0
   -0.7500    1.2990    0.0000 C   0  0  0  0  0  0  0  0  0  0  0  0
   -1.5000    0.0000    0.0000 C   0  0  0  0  0  0  0  0  0  0  0  0
   -0.7500   -1.2990    0.0000 C   0  0  0  0  0  0  0  0  0  0  0  0
   -1.2135   -2.7256    0.0000 O   0  0  0  0  0  0  0  0  0  0  0  0
  1  2  2  0
  2  3  1  0
  3  4  1  0
  4  5  2  0
  5  6  1  0
  6  7  1  0
  7  8  1  0
  5  9  1  0
  9 10  1  0
 11 10  1  6
 11 12  1  0
 12 13  1  0
 13 14  2  0
 14 15  1  0
 15 16  2  0
 16 17  1  0
 17 18  2  0
 18 19  1  0
  9  2  1  0
 19 11  1  0
  8  6  1  0
 18 13  1  0
M  END
>  <Compound_ID>  (459) 
C51086918

>  <Active>  (459) 
0

>  <Smiles>  (459) 
S=c1[nH]nc(C2CC2)n1C[C@H]1Cc2ccccc2O1

>  <canonical_smi>  (459) 
S=c1[nH]nc(C2CC2)n1C[C@H]1Cc2ccccc2O1

>  <Set>  (459) 
G2 inactive

>  <Set_type>  (459) 
Train

>  <MW>  (459) 
273.36

>  <HBD>  (459) 
1

>  <HBA>  (459) 
3

>  <NRB>  (459) 
3

>  <NR>  (459) 
4

>  <NAR>  (459) 
2

>  <PSA>  (459) 
42.84

>  <Standard Type>  (459) 
nan

>  <Standard Relation>  (459) 
nan

>  <Standard Units>  (459) 
nan

>  <Standard Value>  (459) 
nan

>  <Assay ChEMBL ID>  (459) 
nan

>  <Assay Description>  (459) 
nan

>  <BAO Label>  (459) 
nan

$$$$

     RDKit          2D

 21 22  0  0  0  0  0  0  0  0999 V2000
    6.7500   -3.8971    0.0000 C   0  0  0  0  0  0  0  0  0  0  0  0
    5.2500   -3.8971    0.0000 C   0  0  0  0  0  0  0  0  0  0  0  0
    4.5000   -2.5981    0.0000 O   0  0  0  0  0  0  0  0  0  0  0  0
    3.0000   -2.5981    0.0000 C   0  0  0  0  0  0  0  0  0  0  0  0
    2.2500   -3.8971    0.0000 C   0  0  0  0  0  0  0  0  0  0  0  0
    0.7500   -3.8971    0.0000 C   0  0  0  0  0  0  0  0  0  0  0  0
   -0.0000   -2.5981    0.0000 C   0  0  0  0  0  0  0  0  0  0  0  0
    0.7500   -1.2990    0.0000 C   0  0  0  0  0  0  0  0  0  0  0  0
    1.5000    0.0000    0.0000 C   0  0  0  0  0  0  0  0  0  0  0  0
    0.7500    1.2990    0.0000 C   0  0  0  0  0  0  0  0  0  0  0  0
   -0.7500    1.2990    0.0000 C   0  0  0  0  0  0  0  0  0  0  0  0
   -1.5000    0.0000    0.0000 C   0  0  0  0  0  0  0  0  0  0  0  0
   -3.0000    0.0000    0.0000 S   0  0  0  0  0  0  0  0  0  0  0  0
   -3.0000   -1.5000    0.0000 O   0  0  0  0  0  0  0  0  0  0  0  0
   -3.0000    1.5000    0.0000 O   0  0  0  0  0  0  0  0  0  0  0  0
   -4.5000    0.0000    0.0000 C   0  0  0  0  0  0  0  0  0  0  0  0
   -5.2500   -1.2990    0.0000 C   0  0  0  0  0  0  0  0  0  0  0  0
   -5.2500    1.2990    0.0000 C   0  0  0  0  0  0  0  0  0  0  0  0
   -0.7500   -1.2990    0.0000 C   0  0  0  0  0  0  0  0  0  0  0  0
    2.2500   -1.2990    0.0000 N   0  0  0  0  0  0  0  0  0  0  0  0
    3.0000   -0.0000    0.0000 O   0  0  0  0  0  0  0  0  0  0  0  0
  1  2  1  0
  2  3  1  0
  4  3  1  1
  4  5  1  0
  5  6  1  0
  6  7  1  0
  8  7  1  1
  8  9  1  0
  9 10  1  0
 10 11  1  0
 11 12  1  0
 12 13  1  1
 13 14  2  0
 13 15  2  0
 13 16  1  0
 16 17  1  0
 16 18  1  0
 12 19  1  0
  8 20  1  0
 20 21  1  0
 20  4  1  0
 19  8  1  0
M  END
>  <Compound_ID>  (460) 
C39523371

>  <Active>  (460) 
0

>  <Smiles>  (460) 
CCO[C@H]1CCC[C@@]2(CCC[C@H](S(=O)(=O)C(C)C)C2)N1O

>  <canonical_smi>  (460) 
CCO[C@H]1CCC[C@@]2(CCC[C@H](S(=O)(=O)C(C)C)C2)N1O

>  <Set>  (460) 
G2 inactive

>  <Set_type>  (460) 
Train

>  <MW>  (460) 
319.47

>  <HBD>  (460) 
1

>  <HBA>  (460) 
5

>  <NRB>  (460) 
4

>  <NR>  (460) 
2

>  <NAR>  (460) 
0

>  <PSA>  (460) 
66.84

>  <Standard Type>  (460) 
nan

>  <Standard Relation>  (460) 
nan

>  <Standard Units>  (460) 
nan

>  <Standard Value>  (460) 
nan

>  <Assay ChEMBL ID>  (460) 
nan

>  <Assay Description>  (460) 
nan

>  <BAO Label>  (460) 
nan

$$$$

     RDKit          2D

 22 23  0  0  0  0  0  0  0  0999 V2000
    3.5260    1.2990    0.0000 C   0  0  0  0  0  0  0  0  0  0  0  0
    2.7760    0.0000    0.0000 C   0  0  0  0  0  0  0  0  0  0  0  0
    3.5260   -1.2990    0.0000 C   0  0  0  0  0  0  0  0  0  0  0  0
    1.2760    0.0000    0.0000 C   0  0  0  0  0  0  0  0  0  0  0  0
    0.3943    1.2135    0.0000 N   0  0  0  0  0  0  0  0  0  0  0  0
   -1.0323    0.7500    0.0000 N   0  0  0  0  0  0  0  0  0  0  0  0
   -2.2458    1.6317    0.0000 C   0  0  0  0  0  0  0  0  0  0  0  0
   -1.0323   -0.7500    0.0000 C   0  0  0  0  0  0  0  0  0  0  0  0
   -2.2458   -1.6317    0.0000 Cl  0  0  0  0  0  0  0  0  0  0  0  0
    0.3943   -1.2135    0.0000 C   0  0  0  0  0  0  0  0  0  0  0  0
    0.8578   -2.6401    0.0000 C   0  0  0  0  0  0  0  0  0  0  0  0
   -0.1459   -3.7548    0.0000 C   0  0  0  0  0  0  0  0  0  0  0  0
   -1.6131   -3.4430    0.0000 C   0  0  0  0  0  0  0  0  0  0  0  0
   -3.0803   -3.1311    0.0000 N   0  0  0  0  0  0  0  0  0  0  0  0
    0.3177   -5.1814    0.0000 C   0  0  0  0  0  0  0  0  0  0  0  0
    1.7849   -5.4933    0.0000 O   0  0  0  0  0  0  0  0  0  0  0  0
   -0.6860   -6.2961    0.0000 N   0  0  0  0  0  0  0  0  0  0  0  0
   -0.2225   -7.7227    0.0000 C   0  0  0  0  0  0  0  0  0  0  0  0
    1.2041   -8.1862    0.0000 C   0  0  0  0  0  0  0  0  0  0  0  0
    1.2041   -9.6862    0.0000 C   0  0  0  0  0  0  0  0  0  0  0  0
   -0.2225  -10.1498    0.0000 C   0  0  0  0  0  0  0  0  0  0  0  0
   -1.1042   -8.9362    0.0000 C   0  0  0  0  0  0  0  0  0  0  0  0
  1  2  1  0
  2  3  1  0
  2  4  1  0
  4  5  2  0
  5  6  1  0
  6  7  1  0
  6  8  1  0
  8  9  1  0
  8 10  2  0
 10 11  1  0
 11 12  2  0
 12 13  1  0
 13 14  3  0
 12 15  1  0
 15 16  2  0
 15 17  1  0
 17 18  1  0
 18 19  1  0
 19 20  1  0
 20 21  1  0
 21 22  1  0
 10  4  1  0
 22 18  1  0
M  END
>  <Compound_ID>  (461) 
C44026529

>  <Active>  (461) 
0

>  <Smiles>  (461) 
CC(C)c1nn(C)c(Cl)c1/C=C(\C#N)C(=O)NC1CCCC1

>  <canonical_smi>  (461) 
CC(C)c1nn(C)c(Cl)c1/C=C(\C#N)C(=O)NC1CCCC1

>  <Set>  (461) 
G2 inactive

>  <Set_type>  (461) 
Train

>  <MW>  (461) 
320.82

>  <HBD>  (461) 
1

>  <HBA>  (461) 
3

>  <NRB>  (461) 
4

>  <NR>  (461) 
2

>  <NAR>  (461) 
1

>  <PSA>  (461) 
70.71

>  <Standard Type>  (461) 
nan

>  <Standard Relation>  (461) 
nan

>  <Standard Units>  (461) 
nan

>  <Standard Value>  (461) 
nan

>  <Assay ChEMBL ID>  (461) 
nan

>  <Assay Description>  (461) 
nan

>  <BAO Label>  (461) 
nan

$$$$

     RDKit          2D

 21 23  0  0  0  0  0  0  0  0999 V2000
   -0.0000   -5.1073    0.0000 C   0  0  0  0  0  0  0  0  0  0  0  0
   -0.0000   -3.6073    0.0000 C   0  0  0  0  0  0  0  0  0  0  0  0
    1.2135   -2.7256    0.0000 S   0  0  0  0  0  0  0  0  0  0  0  0
    0.7500   -1.2990    0.0000 C   0  0  0  0  0  0  0  0  0  0  0  0
    1.5000    0.0000    0.0000 N   0  0  0  0  0  0  0  0  0  0  0  0
    0.7500    1.2990    0.0000 C   0  0  0  0  0  0  0  0  0  0  0  0
    1.5000    2.5981    0.0000 C   0  0  0  0  0  0  0  0  0  0  0  0
    3.0000    2.5981    0.0000 O   0  0  0  0  0  0  0  0  0  0  0  0
    3.7500    3.8971    0.0000 C   0  0  0  0  0  0  0  0  0  0  0  0
    3.0000    5.1962    0.0000 O   0  0  0  0  0  0  0  0  0  0  0  0
    5.2500    3.8971    0.0000 C   0  0  0  0  0  0  0  0  0  0  0  0
    6.1317    5.1106    0.0000 C   0  0  0  0  0  0  0  0  0  0  0  0
    7.5583    4.6471    0.0000 C   0  0  0  0  0  0  0  0  0  0  0  0
    7.5583    3.1471    0.0000 C   0  0  0  0  0  0  0  0  0  0  0  0
    6.1317    2.6836    0.0000 S   0  0  0  0  0  0  0  0  0  0  0  0
   -0.7500    1.2990    0.0000 N   0  0  0  0  0  0  0  0  0  0  0  0
   -1.5000    0.0000    0.0000 C   0  0  0  0  0  0  0  0  0  0  0  0
   -3.0000    0.0000    0.0000 O   0  0  0  0  0  0  0  0  0  0  0  0
   -0.7500   -1.2990    0.0000 C   0  0  0  0  0  0  0  0  0  0  0  0
   -1.2135   -2.7256    0.0000 C   0  0  0  0  0  0  0  0  0  0  0  0
   -2.6401   -3.1891    0.0000 C   0  0  0  0  0  0  0  0  0  0  0  0
  1  2  1  0
  2  3  1  0
  3  4  1  0
  4  5  1  0
  5  6  2  0
  6  7  1  0
  7  8  1  0
  8  9  1  0
  9 10  2  0
  9 11  1  0
 11 12  2  0
 12 13  1  0
 13 14  2  0
 14 15  1  0
  6 16  1  0
 16 17  1  0
 17 18  2  0
 17 19  1  0
 19 20  1  0
 20 21  1  0
 20  2  2  0
 19  4  2  0
 15 11  1  0
M  END
>  <Compound_ID>  (462) 
C08458596

>  <Active>  (462) 
0

>  <Smiles>  (462) 
Cc1sc2nc(COC(=O)c3cccs3)[nH]c(=O)c2c1C

>  <canonical_smi>  (462) 
Cc1sc2nc(COC(=O)c3cccs3)[nH]c(=O)c2c1C

>  <Set>  (462) 
G2 inactive

>  <Set_type>  (462) 
Train

>  <MW>  (462) 
320.39

>  <HBD>  (462) 
1

>  <HBA>  (462) 
4

>  <NRB>  (462) 
3

>  <NR>  (462) 
3

>  <NAR>  (462) 
3

>  <PSA>  (462) 
72.05

>  <Standard Type>  (462) 
nan

>  <Standard Relation>  (462) 
nan

>  <Standard Units>  (462) 
nan

>  <Standard Value>  (462) 
nan

>  <Assay ChEMBL ID>  (462) 
nan

>  <Assay Description>  (462) 
nan

>  <BAO Label>  (462) 
nan

$$$$

     RDKit          2D

 24 27  0  0  0  0  0  0  0  0999 V2000
    2.4446    4.6115    0.0000 O   0  0  0  0  0  0  0  0  0  0  0  0
    1.3299    5.6152    0.0000 C   0  0  0  0  0  0  0  0  0  0  0  0
   -0.0967    5.1517    0.0000 O   0  0  0  0  0  0  0  0  0  0  0  0
   -0.4086    3.6844    0.0000 C   0  0  0  0  0  0  0  0  0  0  0  0
   -1.8351    3.2209    0.0000 C   0  0  0  0  0  0  0  0  0  0  0  0
   -2.1470    1.7537    0.0000 C   0  0  0  0  0  0  0  0  0  0  0  0
   -1.0323    0.7500    0.0000 C   0  0  0  0  0  0  0  0  0  0  0  0
    0.3943    1.2135    0.0000 C   0  0  0  0  0  0  0  0  0  0  0  0
    0.7062    2.6807    0.0000 C   0  0  0  0  0  0  0  0  0  0  0  0
    1.2760    0.0000    0.0000 C   0  0  0  0  0  0  0  0  0  0  0  0
    0.3943   -1.2135    0.0000 C   0  0  0  0  0  0  0  0  0  0  0  0
   -1.0323   -0.7500    0.0000 C   0  0  0  0  0  0  0  0  0  0  0  0
    1.6418    7.0824    0.0000 C   0  0  0  0  0  0  0  0  0  0  0  0
    3.0684    7.5459    0.0000 C   0  0  0  0  0  0  0  0  0  0  0  0
    3.3802    9.0132    0.0000 C   0  0  0  0  0  0  0  0  0  0  0  0
    2.2655   10.0169    0.0000 C   0  0  0  0  0  0  0  0  0  0  0  0
    2.5774   11.4841    0.0000 C   0  0  0  0  0  0  0  0  0  0  0  0
    1.5737   12.5988    0.0000 C   0  0  0  0  0  0  0  0  0  0  0  0
    2.3237   13.8978    0.0000 C   0  0  0  0  0  0  0  0  0  0  0  0
    3.7909   13.5860    0.0000 C   0  0  0  0  0  0  0  0  0  0  0  0
    3.9477   12.0942    0.0000 O   0  0  0  0  0  0  0  0  0  0  0  0
    0.8389    9.5533    0.0000 N   0  0  0  0  0  0  0  0  0  0  0  0
    0.5271    8.0861    0.0000 C   0  0  0  0  0  0  0  0  0  0  0  0
   -0.8995    7.6226    0.0000 O   0  0  0  0  0  0  0  0  0  0  0  0
  1  2  2  0
  2  3  1  0
  3  4  1  0
  4  5  2  0
  5  6  1  0
  6  7  2  0
  7  8  1  0
  8  9  2  0
  8 10  1  0
 10 11  1  0
 11 12  1  0
  2 13  1  0
 13 14  2  0
 14 15  1  0
 15 16  2  0
 16 17  1  0
 17 18  2  0
 18 19  1  0
 19 20  2  0
 20 21  1  0
 16 22  1  0
 22 23  1  0
 23 24  2  0
  9  4  1  0
 23 13  1  0
 12  7  1  0
 21 17  1  0
M  END
>  <Compound_ID>  (463) 
C65714893

>  <Active>  (463) 
0

>  <Smiles>  (463) 
O=C(Oc1ccc2c(c1)CCC2)c1ccc(-c2ccco2)[nH]c1=O

>  <canonical_smi>  (463) 
O=C(Oc1ccc2c(c1)CCC2)c1ccc(-c2ccco2)[nH]c1=O

>  <Set>  (463) 
G2 inactive

>  <Set_type>  (463) 
Train

>  <MW>  (463) 
321.33

>  <HBD>  (463) 
1

>  <HBA>  (463) 
4

>  <NRB>  (463) 
3

>  <NR>  (463) 
4

>  <NAR>  (463) 
3

>  <PSA>  (463) 
72.3

>  <Standard Type>  (463) 
nan

>  <Standard Relation>  (463) 
nan

>  <Standard Units>  (463) 
nan

>  <Standard Value>  (463) 
nan

>  <Assay ChEMBL ID>  (463) 
nan

>  <Assay Description>  (463) 
nan

>  <BAO Label>  (463) 
nan

$$$$

     RDKit          2D

 25 28  0  0  0  0  0  0  0  0999 V2000
   -1.0786   13.0279    0.0000 C   0  0  0  0  0  0  0  0  0  0  0  0
    0.0361   12.0242    0.0000 C   0  0  0  0  0  0  0  0  0  0  0  0
   -0.2758   10.5570    0.0000 C   0  0  0  0  0  0  0  0  0  0  0  0
    0.8389    9.5533    0.0000 C   0  0  0  0  0  0  0  0  0  0  0  0
    0.5271    8.0861    0.0000 O   0  0  0  0  0  0  0  0  0  0  0  0
    1.6418    7.0824    0.0000 C   0  0  0  0  0  0  0  0  0  0  0  0
    3.0684    7.5459    0.0000 C   0  0  0  0  0  0  0  0  0  0  0  0
    4.1831    6.5422    0.0000 C   0  0  0  0  0  0  0  0  0  0  0  0
    3.8712    5.0750    0.0000 C   0  0  0  0  0  0  0  0  0  0  0  0
    2.4446    4.6115    0.0000 C   0  0  0  0  0  0  0  0  0  0  0  0
    1.3299    5.6152    0.0000 C   0  0  0  0  0  0  0  0  0  0  0  0
   -0.0967    5.1517    0.0000 C   0  0  0  0  0  0  0  0  0  0  0  0
   -1.2114    6.1554    0.0000 C   0  0  0  0  0  0  0  0  0  0  0  0
   -2.6380    5.6918    0.0000 C   0  0  0  0  0  0  0  0  0  0  0  0
   -3.7527    6.6955    0.0000 O   0  0  0  0  0  0  0  0  0  0  0  0
   -2.9499    4.2246    0.0000 N   0  0  0  0  0  0  0  0  0  0  0  0
   -1.8351    3.2209    0.0000 C   0  0  0  0  0  0  0  0  0  0  0  0
   -2.1470    1.7537    0.0000 C   0  0  0  0  0  0  0  0  0  0  0  0
   -1.0323    0.7500    0.0000 C   0  0  0  0  0  0  0  0  0  0  0  0
    0.3943    1.2135    0.0000 C   0  0  0  0  0  0  0  0  0  0  0  0
    0.7062    2.6807    0.0000 C   0  0  0  0  0  0  0  0  0  0  0  0
   -0.4086    3.6844    0.0000 C   0  0  0  0  0  0  0  0  0  0  0  0
    1.2760    0.0000    0.0000 O   0  0  0  0  0  0  0  0  0  0  0  0
    0.3943   -1.2135    0.0000 C   0  0  0  0  0  0  0  0  0  0  0  0
   -1.0323   -0.7500    0.0000 O   0  0  0  0  0  0  0  0  0  0  0  0
  1  2  1  0
  2  3  1  0
  3  4  1  0
  4  5  1  0
  5  6  1  0
  6  7  2  0
  7  8  1  0
  8  9  2  0
  9 10  1  0
 10 11  2  0
 12 11  1  6
 12 13  1  0
 13 14  1  0
 14 15  2  0
 14 16  1  0
 16 17  1  0
 17 18  2  0
 18 19  1  0
 19 20  2  0
 20 21  1  0
 21 22  2  0
 20 23  1  0
 23 24  1  0
 24 25  1  0
 11  6  1  0
 22 12  1  0
 22 17  1  0
 25 19  1  0
M  END
>  <Compound_ID>  (464) 
C04910064

>  <Active>  (464) 
0

>  <Smiles>  (464) 
CCCCOc1ccccc1[C@H]1CC(=O)Nc2cc3c(cc21)OCO3

>  <canonical_smi>  (464) 
CCCCOc1ccccc1[C@H]1CC(=O)Nc2cc3c(cc21)OCO3

>  <Set>  (464) 
G2 inactive

>  <Set_type>  (464) 
Train

>  <MW>  (464) 
339.39

>  <HBD>  (464) 
1

>  <HBA>  (464) 
4

>  <NRB>  (464) 
5

>  <NR>  (464) 
4

>  <NAR>  (464) 
2

>  <PSA>  (464) 
56.79

>  <Standard Type>  (464) 
nan

>  <Standard Relation>  (464) 
nan

>  <Standard Units>  (464) 
nan

>  <Standard Value>  (464) 
nan

>  <Assay ChEMBL ID>  (464) 
nan

>  <Assay Description>  (464) 
nan

>  <BAO Label>  (464) 
nan

$$$$

     RDKit          2D

 26 29  0  0  0  0  0  0  0  0999 V2000
  -12.0031   -3.4068    0.0000 C   0  0  0  0  0  0  0  0  0  0  0  0
  -10.6327   -2.7967    0.0000 C   0  0  0  0  0  0  0  0  0  0  0  0
  -10.4760   -1.3049    0.0000 C   0  0  0  0  0  0  0  0  0  0  0  0
   -9.1056   -0.6948    0.0000 C   0  0  0  0  0  0  0  0  0  0  0  0
   -7.8921   -1.5765    0.0000 C   0  0  0  0  0  0  0  0  0  0  0  0
   -6.5218   -0.9664    0.0000 C   0  0  0  0  0  0  0  0  0  0  0  0
   -6.3650    0.5254    0.0000 C   0  0  0  0  0  0  0  0  0  0  0  0
   -7.5785    1.4071    0.0000 C   0  0  0  0  0  0  0  0  0  0  0  0
   -7.4217    2.8988    0.0000 O   0  0  0  0  0  0  0  0  0  0  0  0
   -5.3083   -1.8481    0.0000 N   0  0  0  0  0  0  0  0  0  0  0  0
   -3.8817   -1.3846    0.0000 C   0  0  0  0  0  0  0  0  0  0  0  0
   -3.0000   -2.5981    0.0000 C   0  0  0  0  0  0  0  0  0  0  0  0
   -1.5000   -2.5981    0.0000 C   0  0  0  0  0  0  0  0  0  0  0  0
   -0.7500   -3.8971    0.0000 C   0  0  0  0  0  0  0  0  0  0  0  0
    0.7500   -3.8971    0.0000 C   0  0  0  0  0  0  0  0  0  0  0  0
    1.5000   -2.5981    0.0000 N   0  0  0  0  0  0  0  0  0  0  0  0
    0.7500   -1.2990    0.0000 C   0  0  0  0  0  0  0  0  0  0  0  0
    1.5000    0.0000    0.0000 C   0  0  0  0  0  0  0  0  0  0  0  0
    0.7500    1.2990    0.0000 C   0  0  0  0  0  0  0  0  0  0  0  0
   -0.7500    1.2990    0.0000 C   0  0  0  0  0  0  0  0  0  0  0  0
   -1.5000    0.0000    0.0000 C   0  0  0  0  0  0  0  0  0  0  0  0
   -0.7500   -1.2990    0.0000 C   0  0  0  0  0  0  0  0  0  0  0  0
   -3.8817   -3.8116    0.0000 N   0  0  0  0  0  0  0  0  0  0  0  0
   -5.3083   -3.3481    0.0000 N   0  0  0  0  0  0  0  0  0  0  0  0
   -8.0489   -3.0683    0.0000 C   0  0  0  0  0  0  0  0  0  0  0  0
   -9.4192   -3.6784    0.0000 C   0  0  0  0  0  0  0  0  0  0  0  0
  1  2  1  0
  2  3  2  0
  3  4  1  0
  4  5  2  0
  5  6  1  0
  6  7  1  6
  7  8  1  0
  8  9  1  0
  6 10  1  0
 10 11  1  0
 11 12  2  0
 12 13  1  0
 13 14  2  0
 14 15  1  0
 15 16  2  0
 16 17  1  0
 17 18  2  0
 18 19  1  0
 19 20  2  0
 20 21  1  0
 21 22  2  0
 12 23  1  0
 23 24  2  0
  5 25  1  0
 25 26  2  0
 26  2  1  0
 24 10  1  0
 22 13  1  0
 22 17  1  0
M  END
>  <Compound_ID>  (465) 
C67514754

>  <Active>  (465) 
0

>  <Smiles>  (465) 
Cc1ccc([C@H](CCO)n2cc(-c3ccnc4ccccc34)nn2)cc1

>  <canonical_smi>  (465) 
Cc1ccc([C@H](CCO)n2cc(-c3ccnc4ccccc34)nn2)cc1

>  <Set>  (465) 
G2 inactive

>  <Set_type>  (465) 
Train

>  <MW>  (465) 
344.42

>  <HBD>  (465) 
1

>  <HBA>  (465) 
4

>  <NRB>  (465) 
5

>  <NR>  (465) 
4

>  <NAR>  (465) 
4

>  <PSA>  (465) 
63.83

>  <Standard Type>  (465) 
nan

>  <Standard Relation>  (465) 
nan

>  <Standard Units>  (465) 
nan

>  <Standard Value>  (465) 
nan

>  <Assay ChEMBL ID>  (465) 
nan

>  <Assay Description>  (465) 
nan

>  <BAO Label>  (465) 
nan

$$$$

     RDKit          2D

 22 23  0  0  0  0  0  0  0  0999 V2000
   -5.2500   -3.8971    0.0000 C   0  0  0  0  0  0  0  0  0  0  0  0
   -3.7500   -3.8971    0.0000 C   0  0  0  0  0  0  0  0  0  0  0  0
   -3.0000   -5.1962    0.0000 O   0  0  0  0  0  0  0  0  0  0  0  0
   -3.0000   -2.5981    0.0000 O   0  0  0  0  0  0  0  0  0  0  0  0
   -1.5000   -2.5981    0.0000 C   0  0  0  0  0  0  0  0  0  0  0  0
   -0.7500   -3.8971    0.0000 C   0  0  0  0  0  0  0  0  0  0  0  0
    0.7500   -3.8971    0.0000 C   0  0  0  0  0  0  0  0  0  0  0  0
    1.5000   -5.1962    0.0000 C   0  0  0  0  0  0  0  0  0  0  0  0
    0.7500   -6.4952    0.0000 O   0  0  0  0  0  0  0  0  0  0  0  0
    1.5000   -2.5981    0.0000 C   0  0  0  0  0  0  0  0  0  0  0  0
    2.7580   -1.7812    0.0000 O   0  0  0  0  0  0  0  0  0  0  0  0
    2.6491   -3.5623    0.0000 C   0  0  0  0  0  0  0  0  0  0  0  0
    4.0586   -3.0492    0.0000 O   0  0  0  0  0  0  0  0  0  0  0  0
    0.7500   -1.2990    0.0000 C   0  0  0  0  0  0  0  0  0  0  0  0
    2.2388   -1.1162    0.0000 C   0  0  0  0  0  0  0  0  0  0  0  0
    1.5000    0.0000    0.0000 C   0  0  0  0  0  0  0  0  0  0  0  0
    0.7500    1.2990    0.0000 C   0  0  0  0  0  0  0  0  0  0  0  0
   -0.7500    1.2990    0.0000 C   0  0  0  0  0  0  0  0  0  0  0  0
   -1.5000    0.0000    0.0000 C   0  0  0  0  0  0  0  0  0  0  0  0
   -2.6491   -0.9642    0.0000 C   0  0  0  0  0  0  0  0  0  0  0  0
   -2.6491    0.9642    0.0000 C   0  0  0  0  0  0  0  0  0  0  0  0
   -0.7500   -1.2990    0.0000 C   0  0  0  0  0  0  0  0  0  0  0  0
  1  2  1  0
  2  3  2  0
  2  4  1  0
  5  4  1  1
  5  6  1  0
  6  7  2  0
  7  8  1  0
  8  9  2  0
  7 10  1  0
 10 11  1  6
 10 12  1  0
 12 13  2  0
 10 14  1  0
 14 15  1  1
 14 16  1  0
 16 17  1  0
 17 18  1  0
 18 19  1  0
 19 20  1  0
 19 21  1  0
 22 19  1  6
 22  5  1  0
 22 14  1  0
M  END
>  <Compound_ID>  (466) 
C15053846

>  <Active>  (466) 
0

>  <Smiles>  (466) 
CC(=O)O[C@@H]1C=C(C=O)[C@](O)(C=O)[C@@]2(C)CCCC(C)(C)[C@@H]12

>  <canonical_smi>  (466) 
CC(=O)O[C@@H]1C=C(C=O)[C@](O)(C=O)[C@@]2(C)CCCC(C)(C)[C@@H]12

>  <Set>  (466) 
G2 inactive

>  <Set_type>  (466) 
Train

>  <MW>  (466) 
308.37

>  <HBD>  (466) 
1

>  <HBA>  (466) 
5

>  <NRB>  (466) 
3

>  <NR>  (466) 
2

>  <NAR>  (466) 
0

>  <PSA>  (466) 
80.67

>  <Standard Type>  (466) 
nan

>  <Standard Relation>  (466) 
nan

>  <Standard Units>  (466) 
nan

>  <Standard Value>  (466) 
nan

>  <Assay ChEMBL ID>  (466) 
nan

>  <Assay Description>  (466) 
nan

>  <BAO Label>  (466) 
nan

$$$$

     RDKit          2D

 27 30  0  0  0  0  0  0  0  0999 V2000
   -1.5000   -7.7942    0.0000 C   0  0  0  0  0  0  0  0  0  0  0  0
   -0.7500   -6.4952    0.0000 C   0  0  0  0  0  0  0  0  0  0  0  0
    0.7500   -6.4952    0.0000 O   0  0  0  0  0  0  0  0  0  0  0  0
    1.5000   -5.1962    0.0000 C   0  0  0  0  0  0  0  0  0  0  0  0
    0.7500   -3.8971    0.0000 C   0  0  0  0  0  0  0  0  0  0  0  0
    1.5000   -2.5981    0.0000 C   0  0  0  0  0  0  0  0  0  0  0  0
    0.7500   -1.2990    0.0000 C   0  0  0  0  0  0  0  0  0  0  0  0
    1.5000    0.0000    0.0000 N   0  0  0  0  0  0  0  0  0  0  0  0
    0.7500    1.2990    0.0000 C   0  0  0  0  0  0  0  0  0  0  0  0
    1.5000    2.5981    0.0000 O   0  0  0  0  0  0  0  0  0  0  0  0
   -0.7500    1.2990    0.0000 C   0  0  0  0  0  0  0  0  0  0  0  0
   -1.7537    2.4138    0.0000 S   0  0  0  0  0  0  0  0  0  0  0  0
   -3.1240    1.8037    0.0000 C   0  0  0  0  0  0  0  0  0  0  0  0
   -4.4231    2.5537    0.0000 S   0  0  0  0  0  0  0  0  0  0  0  0
   -2.9672    0.3119    0.0000 N   0  0  0  0  0  0  0  0  0  0  0  0
   -4.0819   -0.6918    0.0000 C   0  0  0  0  0  0  0  0  0  0  0  0
   -5.5085   -0.2283    0.0000 C   0  0  0  0  0  0  0  0  0  0  0  0
   -6.6232   -1.2320    0.0000 C   0  0  0  0  0  0  0  0  0  0  0  0
   -6.3114   -2.6992    0.0000 C   0  0  0  0  0  0  0  0  0  0  0  0
   -4.8848   -3.1627    0.0000 C   0  0  0  0  0  0  0  0  0  0  0  0
   -3.7701   -2.1590    0.0000 C   0  0  0  0  0  0  0  0  0  0  0  0
   -1.5000    0.0000    0.0000 C   0  0  0  0  0  0  0  0  0  0  0  0
   -0.7500   -1.2990    0.0000 N   0  0  0  0  0  0  0  0  0  0  0  0
    3.0000   -2.5981    0.0000 C   0  0  0  0  0  0  0  0  0  0  0  0
    3.7500   -3.8971    0.0000 C   0  0  0  0  0  0  0  0  0  0  0  0
    3.0000   -5.1962    0.0000 C   0  0  0  0  0  0  0  0  0  0  0  0
    3.7500   -6.4952    0.0000 O   0  0  0  0  0  0  0  0  0  0  0  0
  1  2  1  0
  2  3  1  0
  3  4  1  0
  4  5  2  0
  5  6  1  0
  7  6  1  6
  7  8  1  0
  8  9  1  0
  9 10  2  0
  9 11  1  0
 11 12  1  0
 12 13  1  0
 13 14  2  0
 13 15  1  0
 15 16  1  0
 16 17  2  0
 17 18  1  0
 18 19  2  0
 19 20  1  0
 20 21  2  0
 15 22  1  0
 22 23  1  0
  6 24  2  0
 24 25  1  0
 25 26  2  0
 26 27  1  0
 26  4  1  0
 23  7  1  0
 22 11  2  0
 21 16  1  0
M  END
>  <Compound_ID>  (467) 
C59459453

>  <Active>  (467) 
0

>  <Smiles>  (467) 
CCOc1cc([C@H]2NC(=O)c3sc(=S)n(-c4ccccc4)c3N2)ccc1O

>  <canonical_smi>  (467) 
CCOc1cc([C@H]2NC(=O)c3sc(=S)n(-c4ccccc4)c3N2)ccc1O

>  <Set>  (467) 
G2 inactive

>  <Set_type>  (467) 
Train

>  <MW>  (467) 
399.5

>  <HBD>  (467) 
3

>  <HBA>  (467) 
5

>  <NRB>  (467) 
4

>  <NR>  (467) 
4

>  <NAR>  (467) 
3

>  <PSA>  (467) 
75.52

>  <Standard Type>  (467) 
nan

>  <Standard Relation>  (467) 
nan

>  <Standard Units>  (467) 
nan

>  <Standard Value>  (467) 
nan

>  <Assay ChEMBL ID>  (467) 
nan

>  <Assay Description>  (467) 
nan

>  <BAO Label>  (467) 
nan

$$$$

     RDKit          2D

 23 25  0  0  0  0  0  0  0  0999 V2000
   -8.6562    2.3705    0.0000 C   0  0  0  0  0  0  0  0  0  0  0  0
   -7.2296    2.8340    0.0000 O   0  0  0  0  0  0  0  0  0  0  0  0
   -6.1149    1.8303    0.0000 C   0  0  0  0  0  0  0  0  0  0  0  0
   -4.6883    2.2939    0.0000 C   0  0  0  0  0  0  0  0  0  0  0  0
   -3.5736    1.2902    0.0000 C   0  0  0  0  0  0  0  0  0  0  0  0
   -2.1470    1.7537    0.0000 C   0  0  0  0  0  0  0  0  0  0  0  0
   -1.8351    3.2209    0.0000 C   0  0  0  0  0  0  0  0  0  0  0  0
   -2.9499    4.2246    0.0000 C   0  0  0  0  0  0  0  0  0  0  0  0
   -2.6380    5.6918    0.0000 C   0  0  0  0  0  0  0  0  0  0  0  0
   -4.3764    3.7611    0.0000 O   0  0  0  0  0  0  0  0  0  0  0  0
   -0.4086    3.6844    0.0000 C   0  0  0  0  0  0  0  0  0  0  0  0
   -0.0967    5.1517    0.0000 C   0  0  0  0  0  0  0  0  0  0  0  0
    0.7062    2.6807    0.0000 N   0  0  0  0  0  0  0  0  0  0  0  0
    0.3943    1.2135    0.0000 C   0  0  0  0  0  0  0  0  0  0  0  0
    1.2760    0.0000    0.0000 N   0  0  0  0  0  0  0  0  0  0  0  0
    0.3943   -1.2135    0.0000 C   0  0  0  0  0  0  0  0  0  0  0  0
   -1.0323   -0.7500    0.0000 N   0  0  0  0  0  0  0  0  0  0  0  0
   -1.0323    0.7500    0.0000 N   0  0  0  0  0  0  0  0  0  0  0  0
   -3.8855   -0.1771    0.0000 C   0  0  0  0  0  0  0  0  0  0  0  0
   -5.3120   -0.6406    0.0000 C   0  0  0  0  0  0  0  0  0  0  0  0
   -5.6239   -2.1078    0.0000 Br  0  0  0  0  0  0  0  0  0  0  0  0
   -6.4268    0.3631    0.0000 C   0  0  0  0  0  0  0  0  0  0  0  0
   -7.8533   -0.1004    0.0000 O   0  0  0  0  0  0  0  0  0  0  0  0
  1  2  1  0
  2  3  1  0
  3  4  2  0
  4  5  1  0
  6  5  1  6
  6  7  1  0
  7  8  1  0
  8  9  1  0
  8 10  2  0
  7 11  2  0
 11 12  1  0
 11 13  1  0
 13 14  1  0
 14 15  2  0
 15 16  1  0
 16 17  2  0
 17 18  1  0
  5 19  2  0
 19 20  1  0
 20 21  1  0
 20 22  2  0
 22 23  1  0
 22  3  1  0
 18  6  1  0
 18 14  1  0
M  END
>  <Compound_ID>  (468) 
C04342109

>  <Active>  (468) 
0

>  <Smiles>  (468) 
COc1cc([C@@H]2C(C(C)=O)=C(C)Nc3ncnn32)cc(Br)c1O

>  <canonical_smi>  (468) 
COc1cc([C@@H]2C(C(C)=O)=C(C)Nc3ncnn32)cc(Br)c1O

>  <Set>  (468) 
G2 inactive

>  <Set_type>  (468) 
Train

>  <MW>  (468) 
379.21

>  <HBD>  (468) 
2

>  <HBA>  (468) 
6

>  <NRB>  (468) 
3

>  <NR>  (468) 
3

>  <NAR>  (468) 
2

>  <PSA>  (468) 
89.27

>  <Standard Type>  (468) 
nan

>  <Standard Relation>  (468) 
nan

>  <Standard Units>  (468) 
nan

>  <Standard Value>  (468) 
nan

>  <Assay ChEMBL ID>  (468) 
nan

>  <Assay Description>  (468) 
nan

>  <BAO Label>  (468) 
nan

$$$$

     RDKit          2D

 26 30  0  0  0  0  0  0  0  0999 V2000
   -3.5424    8.2439    0.0000 C   0  0  0  0  0  0  0  0  0  0  0  0
   -2.4277    9.2476    0.0000 C   0  0  0  0  0  0  0  0  0  0  0  0
   -0.9605    8.9357    0.0000 C   0  0  0  0  0  0  0  0  0  0  0  0
   -0.3504    7.5654    0.0000 C   0  0  0  0  0  0  0  0  0  0  0  0
    1.1168    7.2536    0.0000 N   0  0  0  0  0  0  0  0  0  0  0  0
    1.2736    5.7618    0.0000 O   0  0  0  0  0  0  0  0  0  0  0  0
   -0.0967    5.1517    0.0000 C   0  0  0  0  0  0  0  0  0  0  0  0
   -0.4086    3.6844    0.0000 C   0  0  0  0  0  0  0  0  0  0  0  0
    0.7062    2.6807    0.0000 C   0  0  0  0  0  0  0  0  0  0  0  0
    0.3943    1.2135    0.0000 C   0  0  0  0  0  0  0  0  0  0  0  0
    1.2760    0.0000    0.0000 N   0  0  0  0  0  0  0  0  0  0  0  0
    0.3943   -1.2135    0.0000 C   0  0  0  0  0  0  0  0  0  0  0  0
   -1.0323   -0.7500    0.0000 C   0  0  0  0  0  0  0  0  0  0  0  0
   -1.0323    0.7500    0.0000 C   0  0  0  0  0  0  0  0  0  0  0  0
   -2.1470    1.7537    0.0000 C   0  0  0  0  0  0  0  0  0  0  0  0
   -1.8351    3.2209    0.0000 C   0  0  0  0  0  0  0  0  0  0  0  0
   -1.1004    6.2664    0.0000 N   0  0  0  0  0  0  0  0  0  0  0  0
   -0.2105   10.2348    0.0000 N   0  0  0  0  0  0  0  0  0  0  0  0
   -1.2142   11.3495    0.0000 N   0  0  0  0  0  0  0  0  0  0  0  0
   -2.5845   10.7394    0.0000 N   0  0  0  0  0  0  0  0  0  0  0  0
   -3.8835   11.4894    0.0000 C   0  0  0  0  0  0  0  0  0  0  0  0
   -3.8835   12.9894    0.0000 C   0  0  0  0  0  0  0  0  0  0  0  0
   -5.1826   13.7394    0.0000 C   0  0  0  0  0  0  0  0  0  0  0  0
   -6.4816   12.9894    0.0000 C   0  0  0  0  0  0  0  0  0  0  0  0
   -6.4816   11.4894    0.0000 C   0  0  0  0  0  0  0  0  0  0  0  0
   -5.1826   10.7394    0.0000 C   0  0  0  0  0  0  0  0  0  0  0  0
  1  2  1  0
  2  3  2  0
  3  4  1  0
  4  5  2  0
  5  6  1  0
  6  7  1  0
  7  8  1  0
  8  9  2  0
 10  9  1  1
 10 11  1  0
 11 12  2  0
 12 13  1  0
 13 14  2  0
 14 15  1  0
 15 16  2  0
  7 17  2  0
  3 18  1  0
 18 19  1  0
 19 20  1  0
 20 21  1  0
 21 22  2  0
 22 23  1  0
 23 24  2  0
 24 25  1  0
 25 26  2  0
 20  2  1  0
 26 21  1  0
 17  4  1  0
 16  8  1  0
 14 10  1  0
M  END
>  <Compound_ID>  (469) 
C65236368

>  <Active>  (469) 
0

>  <Smiles>  (469) 
CC1=C(c2noc(C3=C[C@H]4N=CC=C4C=C3)n2)NNN1c1ccccc1

>  <canonical_smi>  (469) 
CC1=C(c2noc(C3=C[C@H]4N=CC=C4C=C3)n2)NNN1c1ccccc1

>  <Set>  (469) 
G2 inactive

>  <Set_type>  (469) 
Train

>  <MW>  (469) 
344.38

>  <HBD>  (469) 
2

>  <HBA>  (469) 
6

>  <NRB>  (469) 
3

>  <NR>  (469) 
5

>  <NAR>  (469) 
2

>  <PSA>  (469) 
78.58

>  <Standard Type>  (469) 
nan

>  <Standard Relation>  (469) 
nan

>  <Standard Units>  (469) 
nan

>  <Standard Value>  (469) 
nan

>  <Assay ChEMBL ID>  (469) 
nan

>  <Assay Description>  (469) 
nan

>  <BAO Label>  (469) 
nan

$$$$

     RDKit          2D

 28 31  0  0  0  0  0  0  0  0999 V2000
   -2.0766    2.0164    0.0000 C   0  0  0  0  0  0  0  0  0  0  0  0
   -0.6094    2.3282    0.0000 C   0  0  0  0  0  0  0  0  0  0  0  0
   -0.1459    3.7548    0.0000 C   0  0  0  0  0  0  0  0  0  0  0  0
    1.3213    4.0667    0.0000 C   0  0  0  0  0  0  0  0  0  0  0  0
    2.3250    2.9520    0.0000 C   0  0  0  0  0  0  0  0  0  0  0  0
    3.7923    3.2638    0.0000 C   0  0  0  0  0  0  0  0  0  0  0  0
    2.7886    4.3786    0.0000 C   0  0  0  0  0  0  0  0  0  0  0  0
    4.2558    4.6904    0.0000 C   0  0  0  0  0  0  0  0  0  0  0  0
    5.7230    5.0023    0.0000 O   0  0  0  0  0  0  0  0  0  0  0  0
    6.7267    3.8876    0.0000 C   0  0  0  0  0  0  0  0  0  0  0  0
    8.0511    3.1834    0.0000 C   0  0  0  0  0  0  0  0  0  0  0  0
    7.6502    5.0696    0.0000 C   0  0  0  0  0  0  0  0  0  0  0  0
    6.2632    2.4610    0.0000 O   0  0  0  0  0  0  0  0  0  0  0  0
    4.7960    2.1491    0.0000 C   0  0  0  0  0  0  0  0  0  0  0  0
    4.3324    0.7225    0.0000 C   0  0  0  0  0  0  0  0  0  0  0  0
    2.8652    0.4107    0.0000 C   0  0  0  0  0  0  0  0  0  0  0  0
    1.8615    1.5254    0.0000 C   0  0  0  0  0  0  0  0  0  0  0  0
    3.3287    1.8373    0.0000 C   0  0  0  0  0  0  0  0  0  0  0  0
    0.3943    1.2135    0.0000 C   0  0  0  0  0  0  0  0  0  0  0  0
    1.2760    0.0000    0.0000 C   0  0  0  0  0  0  0  0  0  0  0  0
    0.3943   -1.2135    0.0000 C   0  0  0  0  0  0  0  0  0  0  0  0
   -1.0323   -0.7500    0.0000 C   0  0  0  0  0  0  0  0  0  0  0  0
   -2.5241   -0.5932    0.0000 C   0  0  0  0  0  0  0  0  0  0  0  0
   -3.4057   -1.8067    0.0000 O   0  0  0  0  0  0  0  0  0  0  0  0
   -1.3442   -2.2172    0.0000 C   0  0  0  0  0  0  0  0  0  0  0  0
   -2.7707   -2.6807    0.0000 C   0  0  0  0  0  0  0  0  0  0  0  0
   -3.0826   -4.1480    0.0000 O   0  0  0  0  0  0  0  0  0  0  0  0
   -1.0323    0.7500    0.0000 O   0  0  0  0  0  0  0  0  0  0  0  0
  2  1  1  6
  2  3  1  0
  3  4  1  0
  5  4  1  6
  5  6  1  0
  6  7  1  1
  6  8  1  0
  8  9  1  0
  9 10  1  0
 10 11  1  0
 10 12  1  0
 10 13  1  0
 13 14  1  0
 14 15  1  1
 15 16  1  0
 16 17  1  0
 17 18  1  6
 17 19  1  0
 19 20  1  1
 20 21  1  0
 21 22  1  0
 22 23  1  6
 23 24  1  0
 22 25  1  0
 25 26  1  0
 26 27  1  0
 22 28  1  0
 19  2  1  0
 17  5  1  0
 28 19  1  0
 14  6  1  0
M  END
>  <Compound_ID>  (470) 
C43735328

>  <Active>  (470) 
0

>  <Smiles>  (470) 
C[C@@H]1CC[C@@H]2[C@]3(C)COC(C)(C)O[C@H]3CC[C@@]2(C)[C@@]12CC[C@@](CO)(CCO)O2

>  <canonical_smi>  (470) 
C[C@@H]1CC[C@@H]2[C@]3(C)COC(C)(C)O[C@H]3CC[C@@]2(C)[C@@]12CC[C@@](CO)(CCO)O2

>  <Set>  (470) 
G2 inactive

>  <Set_type>  (470) 
Train

>  <MW>  (470) 
396.57

>  <HBD>  (470) 
2

>  <HBA>  (470) 
5

>  <NRB>  (470) 
3

>  <NR>  (470) 
4

>  <NAR>  (470) 
0

>  <PSA>  (470) 
68.15

>  <Standard Type>  (470) 
nan

>  <Standard Relation>  (470) 
nan

>  <Standard Units>  (470) 
nan

>  <Standard Value>  (470) 
nan

>  <Assay ChEMBL ID>  (470) 
nan

>  <Assay Description>  (470) 
nan

>  <BAO Label>  (470) 
nan

$$$$

     RDKit          2D

 34 38  0  0  0  0  0  0  0  0999 V2000
    6.6948   -5.1660    0.0000 C   0  0  0  0  0  0  0  0  0  0  0  0
    5.3245   -4.5559    0.0000 O   0  0  0  0  0  0  0  0  0  0  0  0
    4.1110   -5.4376    0.0000 C   0  0  0  0  0  0  0  0  0  0  0  0
    4.3836   -6.1867    0.0000 O   0  0  0  0  0  0  0  0  0  0  0  0
    2.7406   -4.8275    0.0000 C   0  0  0  0  0  0  0  0  0  0  0  0
    2.5838   -3.3357    0.0000 C   0  0  0  0  0  0  0  0  0  0  0  0
    1.2135   -2.7256    0.0000 C   0  0  0  0  0  0  0  0  0  0  0  0
    0.7500   -1.2990    0.0000 C   0  0  0  0  0  0  0  0  0  0  0  0
    1.5000    0.0000    0.0000 C   0  0  0  0  0  0  0  0  0  0  0  0
    0.7500    1.2990    0.0000 C   0  0  0  0  0  0  0  0  0  0  0  0
   -0.7500    1.2990    0.0000 C   0  0  0  0  0  0  0  0  0  0  0  0
   -1.5000    0.0000    0.0000 C   0  0  0  0  0  0  0  0  0  0  0  0
   -0.7500   -1.2990    0.0000 C   0  0  0  0  0  0  0  0  0  0  0  0
   -1.2135   -2.7256    0.0000 N   0  0  0  0  0  0  0  0  0  0  0  0
    0.0000   -3.6073    0.0000 C   0  0  0  0  0  0  0  0  0  0  0  0
    0.1568   -5.0991    0.0000 C   0  0  0  0  0  0  0  0  0  0  0  0
   -1.0567   -5.9808    0.0000 C   0  0  0  0  0  0  0  0  0  0  0  0
   -0.8999   -7.4725    0.0000 C   0  0  0  0  0  0  0  0  0  0  0  0
   -2.1135   -8.3542    0.0000 N   0  0  0  0  0  4  0  0  0  0  0  0
   -3.4838   -7.7441    0.0000 C   0  0  0  0  0  0  0  0  0  0  0  0
   -4.6973   -8.6258    0.0000 C   0  0  0  0  0  0  0  0  0  0  0  0
   -6.0676   -8.0157    0.0000 O   0  0  0  0  0  0  0  0  0  0  0  0
    0.4704   -8.0826    0.0000 C   0  0  0  0  0  0  0  0  0  0  0  0
    1.6839   -7.2010    0.0000 C   0  0  0  0  0  0  0  0  0  0  0  0
    3.0542   -7.8111    0.0000 C   0  0  0  0  0  0  0  0  0  0  0  0
    4.2677   -6.9294    0.0000 C   0  0  0  0  0  0  0  0  0  0  0  0
    5.6381   -7.5395    0.0000 C   0  0  0  0  0  0  0  0  0  0  0  0
    5.7949   -9.0313    0.0000 C   0  0  0  0  0  0  0  0  0  0  0  0
    7.1652   -9.6414    0.0000 C   0  0  0  0  0  0  0  0  0  0  0  0
    8.3787   -8.7597    0.0000 C   0  0  0  0  0  0  0  0  0  0  0  0
    7.3220  -11.1332    0.0000 C   0  0  0  0  0  0  0  0  0  0  0  0
    4.5813   -9.9130    0.0000 C   0  0  0  0  0  0  0  0  0  0  0  0
    3.2110   -9.3029    0.0000 C   0  0  0  0  0  0  0  0  0  0  0  0
    1.5271   -5.7092    0.0000 N   0  0  0  0  0  0  0  0  0  0  0  0
  1  2  1  0
  2  3  1  0
  3  4  2  0
  5  3  1  1
  5  6  1  0
  6  7  1  0
  7  8  2  0
  8  9  1  0
  9 10  1  0
 10 11  2  0
 11 12  1  0
 12 13  2  0
 13 14  1  0
 14 15  2  0
 15 16  1  0
 16 17  1  6
 17 18  1  0
 18 19  1  1
 19 20  1  0
 20 21  1  0
 21 22  1  0
 18 23  1  0
 23 24  1  0
 24 25  1  6
 25 26  2  0
 26 27  1  0
 27 28  2  0
 28 29  1  0
 29 30  1  0
 29 31  1  0
 28 32  1  0
 32 33  2  0
 24 34  1  0
 34  5  1  0
 15  7  1  0
 34 16  1  0
 13  8  1  0
 33 25  1  0
M  CHG  1  19   1
M  END
>  <Compound_ID>  (471) 
C39560910

>  <Active>  (471) 
0

>  <Smiles>  (471) 
COC(=O)[C@@H]1CC2=C3CC=CC=C3N=C2[C@H]2C[C@H]([NH2+]CCO)C[C@@H](c3ccc(C(C)C)cc3)N21

>  <canonical_smi>  (471) 
COC(=O)[C@@H]1CC2=C3CC=CC=C3N=C2[C@H]2C[C@H]([NH2+]CCO)C[C@@H](c3ccc(C(C)C)cc3)N12

>  <Set>  (471) 
G2 inactive

>  <Set_type>  (471) 
Train

>  <MW>  (471) 
462.61

>  <HBD>  (471) 
2

>  <HBA>  (471) 
4

>  <NRB>  (471) 
6

>  <NR>  (471) 
5

>  <NAR>  (471) 
1

>  <PSA>  (471) 
78.74

>  <Standard Type>  (471) 
nan

>  <Standard Relation>  (471) 
nan

>  <Standard Units>  (471) 
nan

>  <Standard Value>  (471) 
nan

>  <Assay ChEMBL ID>  (471) 
nan

>  <Assay Description>  (471) 
nan

>  <BAO Label>  (471) 
nan

$$$$

     RDKit          2D

 37 41  0  0  0  0  0  0  0  0999 V2000
    2.6491    0.9642    0.0000 C   0  0  0  0  0  0  0  0  0  0  0  0
    1.5000    0.0000    0.0000 C   0  0  0  0  0  0  0  0  0  0  0  0
    2.6491   -0.9642    0.0000 C   0  0  0  0  0  0  0  0  0  0  0  0
    0.7500   -1.2990    0.0000 C   0  0  0  0  0  0  0  0  0  0  0  0
    1.5000   -2.5981    0.0000 O   0  0  0  0  0  0  0  0  0  0  0  0
   -0.7500   -1.2990    0.0000 C   0  0  0  0  0  0  0  0  0  0  0  0
   -1.5000    0.0000    0.0000 C   0  0  0  0  0  0  0  0  0  0  0  0
   -0.7500    1.2990    0.0000 C   0  0  0  0  0  0  0  0  0  0  0  0
   -2.2500    1.2990    0.0000 C   0  0  0  0  0  0  0  0  0  0  0  0
    0.7500    1.2990    0.0000 C   0  0  0  0  0  0  0  0  0  0  0  0
    1.5000    2.5981    0.0000 C   0  0  0  0  0  0  0  0  0  0  0  0
    0.7500    3.8971    0.0000 C   0  0  0  0  0  0  0  0  0  0  0  0
   -0.7500    3.8971    0.0000 C   0  0  0  0  0  0  0  0  0  0  0  0
    0.0000    5.1962    0.0000 C   0  0  0  0  0  0  0  0  0  0  0  0
   -1.5000    2.5981    0.0000 C   0  0  0  0  0  0  0  0  0  0  0  0
   -3.0000    2.5981    0.0000 C   0  0  0  0  0  0  0  0  0  0  0  0
   -3.7500    3.8971    0.0000 C   0  0  0  0  0  0  0  0  0  0  0  0
   -3.0000    5.1962    0.0000 C   0  0  0  0  0  0  0  0  0  0  0  0
   -3.7500    6.4952    0.0000 C   0  0  0  0  0  0  0  0  0  0  0  0
   -5.2500    6.4952    0.0000 C   0  0  0  0  0  0  0  0  0  0  0  0
   -6.0000    7.7942    0.0000 C   0  0  0  0  0  0  0  0  0  0  0  0
   -7.1491    8.7584    0.0000 C   0  0  0  0  0  0  0  0  0  0  0  0
   -7.1491    6.8300    0.0000 C   0  0  0  0  0  0  0  0  0  0  0  0
   -6.8886    5.3528    0.0000 O   0  0  0  0  0  0  0  0  0  0  0  0
   -8.5586    7.3431    0.0000 O   0  0  0  0  0  0  0  0  0  0  0  0
   -9.7077    6.3789    0.0000 C   0  0  0  0  0  0  0  0  0  0  0  0
  -11.1172    6.8919    0.0000 C   0  0  0  0  0  0  0  0  0  0  0  0
  -12.2663    5.9277    0.0000 N   0  0  0  0  0  4  0  0  0  0  0  0
   -5.2500    9.0933    0.0000 C   0  0  0  0  0  0  0  0  0  0  0  0
   -3.7500    9.0933    0.0000 C   0  0  0  0  0  0  0  0  0  0  0  0
   -3.0000   10.3923    0.0000 O   0  0  0  0  0  0  0  0  0  0  0  0
   -3.0000    7.7942    0.0000 C   0  0  0  0  0  0  0  0  0  0  0  0
   -2.2500    9.0933    0.0000 C   0  0  0  0  0  0  0  0  0  0  0  0
   -1.5000    7.7942    0.0000 C   0  0  0  0  0  0  0  0  0  0  0  0
   -0.7500    6.4952    0.0000 C   0  0  0  0  0  0  0  0  0  0  0  0
   -1.5000    5.1962    0.0000 C   0  0  0  0  0  0  0  0  0  0  0  0
   -2.2500    3.8971    0.0000 C   0  0  0  0  0  0  0  0  0  0  0  0
  1  2  1  0
  2  3  1  0
  2  4  1  0
  4  5  1  1
  4  6  1  0
  6  7  1  0
  7  8  1  0
  8  9  1  1
  8 10  1  0
 10 11  1  1
 11 12  1  0
 12 13  1  0
 13 14  1  1
 13 15  1  0
 15 16  1  6
 16 17  2  0
 17 18  1  0
 18 19  2  0
 19 20  1  0
 20 21  1  0
 21 22  1  1
 21 23  1  0
 23 24  2  0
 23 25  1  0
 25 26  1  0
 26 27  1  0
 27 28  1  0
 21 29  1  0
 29 30  1  0
 30 31  2  0
 30 32  1  0
 32 33  1  1
 32 34  1  0
 34 35  1  0
 35 36  1  0
 36 37  1  6
 10  2  1  0
 36 13  1  0
 15  8  1  0
 36 18  1  0
 32 19  1  0
M  CHG  1  28   1
M  END
>  <Compound_ID>  (472) 
C12653410

>  <Active>  (472) 
0

>  <Smiles>  (472) 
CC1(C)[C@@H](O)CC[C@@]2(C)[C@H]1CC[C@]1(C)[C@H]2C=CC2=C3C[C@](C)(C(=O)OCC[NH3+])CC(=O)[C@]3(C)CC[C@]21C

>  <canonical_smi>  (472) 
CC1(C)[C@@H](O)CC[C@]2(C)[C@@H]3C=CC4=C5C[C@](C)(C(=O)OCC[NH3+])CC(=O)[C@]5(C)CC[C@@]4(C)[C@]3(C)CC[C@@H]12

>  <Set>  (472) 
G2 inactive

>  <Set_type>  (472) 
Train

>  <MW>  (472) 
512.76

>  <HBD>  (472) 
2

>  <HBA>  (472) 
4

>  <NRB>  (472) 
3

>  <NR>  (472) 
5

>  <NAR>  (472) 
0

>  <PSA>  (472) 
91.24

>  <Standard Type>  (472) 
nan

>  <Standard Relation>  (472) 
nan

>  <Standard Units>  (472) 
nan

>  <Standard Value>  (472) 
nan

>  <Assay ChEMBL ID>  (472) 
nan

>  <Assay Description>  (472) 
nan

>  <BAO Label>  (472) 
nan

$$$$

     RDKit          2D

 30 34  0  0  0  0  0  0  0  0999 V2000
    3.0000   -2.5981    0.0000 O   0  0  0  0  0  0  0  0  0  0  0  0
    1.5000   -2.5981    0.0000 C   0  0  0  0  0  0  0  0  0  0  0  0
    0.7500   -3.8971    0.0000 N   0  0  0  0  0  0  0  0  0  0  0  0
    1.5000   -5.1962    0.0000 C   0  0  0  0  0  0  0  0  0  0  0  0
    0.7500   -6.4952    0.0000 C   0  0  0  0  0  0  0  0  0  0  0  0
    1.5000   -7.7942    0.0000 C   0  0  0  0  0  0  0  0  0  0  0  0
    0.7500   -9.0933    0.0000 F   0  0  0  0  0  0  0  0  0  0  0  0
    3.0000   -7.7942    0.0000 C   0  0  0  0  0  0  0  0  0  0  0  0
    3.7500   -6.4952    0.0000 C   0  0  0  0  0  0  0  0  0  0  0  0
    3.0000   -5.1962    0.0000 C   0  0  0  0  0  0  0  0  0  0  0  0
    3.7500   -3.8971    0.0000 F   0  0  0  0  0  0  0  0  0  0  0  0
    0.7500   -1.2990    0.0000 N   0  0  0  0  0  0  0  0  0  0  0  0
    1.5000    0.0000    0.0000 C   0  0  0  0  0  0  0  0  0  0  0  0
    0.7500    1.2990    0.0000 C   0  0  0  0  0  0  0  0  0  0  0  0
   -0.7500    1.2990    0.0000 C   0  0  0  0  0  0  0  0  0  0  0  0
   -1.5000    0.0000    0.0000 C   0  0  0  0  0  0  0  0  0  0  0  0
   -0.7500   -1.2990    0.0000 C   0  0  0  0  0  0  0  0  0  0  0  0
    0.0000    2.5981    0.0000 N   0  0  0  0  0  0  0  0  0  0  0  0
   -0.7500    3.8971    0.0000 C   0  0  0  0  0  0  0  0  0  0  0  0
    0.0000    5.1962    0.0000 C   0  0  0  0  0  0  0  0  0  0  0  0
   -0.7500    6.4952    0.0000 C   0  0  0  0  0  0  0  0  0  0  0  0
    0.0000    7.7942    0.0000 F   0  0  0  0  0  0  0  0  0  0  0  0
   -2.2500    6.4952    0.0000 C   0  0  0  0  0  0  0  0  0  0  0  0
   -3.0000    5.1962    0.0000 C   0  0  0  0  0  0  0  0  0  0  0  0
   -2.2500    3.8971    0.0000 C   0  0  0  0  0  0  0  0  0  0  0  0
   -3.0000    2.5981    0.0000 N   0  0  0  0  0  0  0  0  0  0  0  0
   -4.4672    2.2862    0.0000 C   0  0  0  0  0  0  0  0  0  0  0  0
   -4.6240    0.7944    0.0000 C   0  0  0  0  0  0  0  0  0  0  0  0
   -3.2537    0.1843    0.0000 C   0  0  0  0  0  0  0  0  0  0  0  0
   -2.2500    1.2990    0.0000 C   0  0  0  0  0  0  0  0  0  0  0  0
  1  2  2  0
  2  3  1  0
  3  4  1  0
  4  5  2  0
  5  6  1  0
  6  7  1  0
  6  8  2  0
  8  9  1  0
  9 10  2  0
 10 11  1  0
  2 12  1  0
 12 13  1  0
 13 14  1  0
 14 15  1  0
 15 16  1  0
 16 17  1  0
 15 18  1  0
 18 19  1  0
 19 20  2  0
 20 21  1  0
 21 22  1  0
 21 23  2  0
 23 24  1  0
 24 25  2  0
 25 26  1  0
 26 27  1  0
 27 28  2  0
 28 29  1  0
 29 30  2  0
 10  4  1  0
 17 12  1  0
 25 19  1  0
 30 26  1  0
 30 15  1  0
M  END
>  <Compound_ID>  (473) 
C21944666

>  <Active>  (473) 
0

>  <Smiles>  (473) 
O=C(Nc1cc(F)ccc1F)N1CCC2(CC1)Nc1cc(F)ccc1-n1cccc12

>  <canonical_smi>  (473) 
O=C(Nc1cc(F)ccc1F)N1CCC2(CC1)Nc1cc(F)ccc1-n1cccc12

>  <Set>  (473) 
G2 inactive

>  <Set_type>  (473) 
Train

>  <MW>  (473) 
412.41

>  <HBD>  (473) 
2

>  <HBA>  (473) 
2

>  <NRB>  (473) 
1

>  <NR>  (473) 
5

>  <NAR>  (473) 
3

>  <PSA>  (473) 
49.3

>  <Standard Type>  (473) 
nan

>  <Standard Relation>  (473) 
nan

>  <Standard Units>  (473) 
nan

>  <Standard Value>  (473) 
nan

>  <Assay ChEMBL ID>  (473) 
nan

>  <Assay Description>  (473) 
nan

>  <BAO Label>  (473) 
nan

$$$$

     RDKit          2D

 29 33  0  0  0  0  0  0  0  0999 V2000
   -5.0109   -1.5724    0.0000 C   0  0  0  0  0  0  0  0  0  0  0  0
   -3.6406   -0.9623    0.0000 C   0  0  0  0  0  0  0  0  0  0  0  0
   -2.4271   -1.8439    0.0000 C   0  0  0  0  0  0  0  0  0  0  0  0
   -3.3087   -3.0575    0.0000 C   0  0  0  0  0  0  0  0  0  0  0  0
   -1.9214   -0.5922    0.0000 C   0  0  0  0  0  0  0  0  0  0  0  0
   -1.2135   -2.7256    0.0000 C   0  0  0  0  0  0  0  0  0  0  0  0
   -2.4271   -3.6073    0.0000 C   0  0  0  0  0  0  0  0  0  0  0  0
   -1.9635   -5.0339    0.0000 C   0  0  0  0  0  0  0  0  0  0  0  0
   -2.7135   -6.3329    0.0000 C   0  0  0  0  0  0  0  0  0  0  0  0
   -4.2135   -6.3329    0.0000 O   0  0  0  0  0  0  0  0  0  0  0  0
   -1.9635   -7.6320    0.0000 N   0  0  0  0  0  0  0  0  0  0  0  0
   -0.4635   -7.6320    0.0000 C   0  0  0  0  0  0  0  0  0  0  0  0
    0.2865   -8.9310    0.0000 C   0  0  0  0  0  0  0  0  0  0  0  0
   -0.4635  -10.2300    0.0000 C   0  0  0  0  0  0  0  0  0  0  0  0
    0.1466  -11.6004    0.0000 C   0  0  0  0  0  0  0  0  0  0  0  0
   -0.9681  -12.6041    0.0000 N   0  0  0  0  0  0  0  0  0  0  0  0
   -2.2672  -11.8541    0.0000 C   0  0  0  0  0  0  0  0  0  0  0  0
   -1.9553  -10.3868    0.0000 N   0  0  0  0  0  0  0  0  0  0  0  0
    0.2865   -6.3329    0.0000 C   0  0  0  0  0  0  0  0  0  0  0  0
    1.7865   -6.3329    0.0000 O   0  0  0  0  0  0  0  0  0  0  0  0
   -0.4635   -5.0339    0.0000 N   0  0  0  0  0  0  0  0  0  0  0  0
   -0.0000   -3.6073    0.0000 C   0  0  0  0  0  0  0  0  0  0  0  0
    1.2135   -2.7256    0.0000 N   0  0  0  0  0  0  0  0  0  0  0  0
    0.7500   -1.2990    0.0000 C   0  0  0  0  0  0  0  0  0  0  0  0
    1.5000    0.0000    0.0000 C   0  0  0  0  0  0  0  0  0  0  0  0
    0.7500    1.2990    0.0000 C   0  0  0  0  0  0  0  0  0  0  0  0
   -0.7500    1.2990    0.0000 C   0  0  0  0  0  0  0  0  0  0  0  0
   -1.5000    0.0000    0.0000 C   0  0  0  0  0  0  0  0  0  0  0  0
   -0.7500   -1.2990    0.0000 C   0  0  0  0  0  0  0  0  0  0  0  0
  1  2  2  0
  2  3  1  0
  3  4  1  0
  3  5  1  0
  6  3  1  6
  6  7  1  0
  8  7  1  1
  8  9  1  0
  9 10  2  0
  9 11  1  0
 11 12  1  0
 12 13  2  3
 13 14  1  0
 14 15  2  0
 15 16  1  0
 16 17  1  0
 17 18  2  0
 12 19  1  0
 19 20  2  0
 19 21  1  0
 21 22  1  0
 22 23  1  1
 23 24  1  0
 24 25  2  0
 25 26  1  0
 26 27  2  0
 27 28  1  0
 28 29  2  0
 22  6  1  0
 29 24  1  0
 29  6  1  0
 21  8  1  0
 18 14  1  0
M  END
>  <Compound_ID>  (474) 
C04523026

>  <Active>  (474) 
0

>  <Smiles>  (474) 
C=CC(C)(C)[C@@]12C[C@@H]3C(=O)NC(=Cc4c[nH]cn4)C(=O)N3[C@@H]1Nc1ccccc12

>  <canonical_smi>  (474) 
C=CC(C)(C)[C@@]12C[C@@H]3C(=O)NC(=Cc4c[nH]cn4)C(=O)N3[C@@H]1Nc1ccccc12

>  <Set>  (474) 
G2 inactive

>  <Set_type>  (474) 
Train

>  <MW>  (474) 
389.46

>  <HBD>  (474) 
3

>  <HBA>  (474) 
4

>  <NRB>  (474) 
3

>  <NR>  (474) 
5

>  <NAR>  (474) 
2

>  <PSA>  (474) 
90.12

>  <Standard Type>  (474) 
nan

>  <Standard Relation>  (474) 
nan

>  <Standard Units>  (474) 
nan

>  <Standard Value>  (474) 
nan

>  <Assay ChEMBL ID>  (474) 
nan

>  <Assay Description>  (474) 
nan

>  <BAO Label>  (474) 
nan

$$$$

     RDKit          2D

 28 31  0  0  0  0  0  0  0  0999 V2000
    0.9784    5.1574    0.0000 N   0  0  0  0  0  4  0  0  0  0  0  0
    0.1520    3.9056    0.0000 C   0  0  0  0  0  0  0  0  0  0  0  0
    0.9214    2.6179    0.0000 C   0  0  0  0  0  0  0  0  0  0  0  0
    0.3943    1.2135    0.0000 C   0  0  0  0  0  0  0  0  0  0  0  0
    1.2760    0.0000    0.0000 N   0  0  0  0  0  0  0  0  0  0  0  0
    0.3943   -1.2135    0.0000 C   0  0  0  0  0  0  0  0  0  0  0  0
   -1.0323   -0.7500    0.0000 N   0  0  0  0  0  0  0  0  0  0  0  0
   -1.0323    0.7500    0.0000 N   0  0  0  0  0  0  0  0  0  0  0  0
   -2.2841    1.5763    0.0000 C   0  0  0  0  0  0  0  0  0  0  0  0
   -3.5718    0.8070    0.0000 N   0  0  0  0  0  0  0  0  0  0  0  0
   -3.7063   -0.6870    0.0000 N   0  0  0  0  0  0  0  0  0  0  0  0
   -5.1687   -1.0207    0.0000 C   0  0  0  0  0  0  0  0  0  0  0  0
   -5.7582   -2.4000    0.0000 C   0  0  0  0  0  0  0  0  0  0  0  0
   -7.2475   -2.5791    0.0000 C   0  0  0  0  0  0  0  0  0  0  0  0
   -7.8370   -3.9584    0.0000 C   0  0  0  0  0  0  0  0  0  0  0  0
   -6.9373   -5.1586    0.0000 C   0  0  0  0  0  0  0  0  0  0  0  0
   -7.5268   -6.5379    0.0000 F   0  0  0  0  0  0  0  0  0  0  0  0
   -5.4480   -4.9795    0.0000 C   0  0  0  0  0  0  0  0  0  0  0  0
   -4.8585   -3.6002    0.0000 C   0  0  0  0  0  0  0  0  0  0  0  0
   -5.9380    0.2669    0.0000 C   0  0  0  0  0  0  0  0  0  0  0  0
   -4.9511    1.3965    0.0000 C   0  0  0  0  0  0  0  0  0  0  0  0
   -4.2206    2.7066    0.0000 O   0  0  0  0  0  0  0  0  0  0  0  0
   -6.1777    2.2600    0.0000 C   0  0  0  0  0  0  0  0  0  0  0  0
   -7.4043    3.1234    0.0000 F   0  0  0  0  0  0  0  0  0  0  0  0
   -5.3143    3.4865    0.0000 F   0  0  0  0  0  0  0  0  0  0  0  0
   -7.0411    1.0334    0.0000 F   0  0  0  0  0  0  0  0  0  0  0  0
   -2.4186    3.0703    0.0000 N   0  0  0  0  0  0  0  0  0  0  0  0
   -1.3344    4.1069    0.0000 N   0  0  0  0  0  0  0  0  0  0  0  0
  1  2  1  0
  2  3  2  0
  3  4  1  0
  4  5  2  0
  5  6  1  0
  6  7  2  0
  7  8  1  0
  8  9  1  0
  9 10  1  0
 10 11  1  0
 11 12  2  0
 12 13  1  0
 13 14  2  0
 14 15  1  0
 15 16  2  0
 16 17  1  0
 16 18  1  0
 18 19  2  0
 12 20  1  0
 20 21  1  0
 21 22  1  1
 21 23  1  0
 23 24  1  0
 23 25  1  0
 23 26  1  0
  9 27  2  0
 27 28  1  0
 28  2  1  0
  8  4  1  0
 21 10  1  0
 19 13  1  0
M  CHG  1   1   1
M  END
>  <Compound_ID>  (475) 
C06058533

>  <Active>  (475) 
0

>  <Smiles>  (475) 
[NH3+]C1=Cc2ncnn2C(N2N=C(c3ccc(F)cc3)C[C@]2(O)C(F)(F)F)=NN1

>  <canonical_smi>  (475) 
[NH3+]C1=Cc2ncnn2C(N2N=C(c3ccc(F)cc3)C[C@]2(O)C(F)(F)F)=NN1

>  <Set>  (475) 
G2 inactive

>  <Set_type>  (475) 
Train

>  <MW>  (475) 
397.32

>  <HBD>  (475) 
3

>  <HBA>  (475) 
5

>  <NRB>  (475) 
1

>  <NR>  (475) 
4

>  <NAR>  (475) 
2

>  <PSA>  (475) 
118.57

>  <Standard Type>  (475) 
nan

>  <Standard Relation>  (475) 
nan

>  <Standard Units>  (475) 
nan

>  <Standard Value>  (475) 
nan

>  <Assay ChEMBL ID>  (475) 
nan

>  <Assay Description>  (475) 
nan

>  <BAO Label>  (475) 
nan

$$$$

     RDKit          2D

 28 31  0  0  0  0  0  0  0  0999 V2000
   -5.0539   -8.7791    0.0000 N   0  0  0  0  0  0  0  0  0  0  0  0
   -3.9391   -7.7755    0.0000 C   0  0  0  0  0  0  0  0  0  0  0  0
   -4.2510   -6.3082    0.0000 O   0  0  0  0  0  0  0  0  0  0  0  0
   -2.5126   -8.2390    0.0000 C   0  0  0  0  0  0  0  0  0  0  0  0
   -2.0490   -9.6656    0.0000 N   0  0  0  0  0  0  0  0  0  0  0  0
   -0.5490   -9.6656    0.0000 C   0  0  0  0  0  0  0  0  0  0  0  0
    0.3326  -10.8791    0.0000 N   0  0  0  0  0  0  0  0  0  0  0  0
   -0.2775  -12.2494    0.0000 C   0  0  0  0  0  0  0  0  0  0  0  0
   -1.7692  -12.4062    0.0000 C   0  0  0  0  0  0  0  0  0  0  0  0
   -2.3794  -13.7765    0.0000 C   0  0  0  0  0  0  0  0  0  0  0  0
   -1.4977  -14.9900    0.0000 C   0  0  0  0  0  0  0  0  0  0  0  0
   -0.0059  -14.8333    0.0000 C   0  0  0  0  0  0  0  0  0  0  0  0
    0.6042  -13.4629    0.0000 C   0  0  0  0  0  0  0  0  0  0  0  0
   -0.0855   -8.2390    0.0000 S   0  0  0  0  0  0  0  0  0  0  0  0
   -1.2990   -7.3573    0.0000 C   0  0  0  0  0  0  0  0  0  0  0  0
   -1.2990   -5.8573    0.0000 N   0  0  0  0  0  0  0  0  0  0  0  0
   -0.0000   -5.1073    0.0000 C   0  0  0  0  0  0  0  0  0  0  0  0
    1.2990   -5.8573    0.0000 O   0  0  0  0  0  0  0  0  0  0  0  0
   -0.0000   -3.6073    0.0000 C   0  0  0  0  0  0  0  0  0  0  0  0
    1.2135   -2.7256    0.0000 C   0  0  0  0  0  0  0  0  0  0  0  0
    0.7500   -1.2990    0.0000 C   0  0  0  0  0  0  0  0  0  0  0  0
    1.5000    0.0000    0.0000 C   0  0  0  0  0  0  0  0  0  0  0  0
    0.7500    1.2990    0.0000 C   0  0  0  0  0  0  0  0  0  0  0  0
    1.5000    2.5981    0.0000 Cl  0  0  0  0  0  0  0  0  0  0  0  0
   -0.7500    1.2990    0.0000 C   0  0  0  0  0  0  0  0  0  0  0  0
   -1.5000    0.0000    0.0000 C   0  0  0  0  0  0  0  0  0  0  0  0
   -0.7500   -1.2990    0.0000 C   0  0  0  0  0  0  0  0  0  0  0  0
   -1.2135   -2.7256    0.0000 N   0  0  0  0  0  4  0  0  0  0  0  0
  1  2  1  0
  2  3  2  0
  4  2  1  6
  4  5  1  0
  5  6  1  0
  6  7  1  6
  7  8  1  0
  8  9  2  0
  9 10  1  0
 10 11  2  0
 11 12  1  0
 12 13  2  0
  6 14  1  0
 14 15  1  0
 15 16  1  6
 16 17  1  0
 17 18  2  0
 19 17  1  1
 19 20  1  0
 20 21  2  0
 21 22  1  0
 22 23  2  0
 23 24  1  0
 23 25  1  0
 25 26  2  0
 26 27  1  0
 27 28  2  0
 15  4  1  0
 28 19  1  0
 13  8  1  0
 27 21  1  0
M  CHG  1  28   1
M  END
>  <Compound_ID>  (476) 
C63686320

>  <Active>  (476) 
0

>  <Smiles>  (476) 
NC(=O)[C@H]1N[C@@H](Nc2ccccc2)S[C@H]1NC(=O)[C@@H]1C=c2cc(Cl)ccc2=[NH+]1

>  <canonical_smi>  (476) 
NC(=O)[C@H]1N[C@@H](Nc2ccccc2)S[C@H]1NC(=O)[C@@H]1C=c2cc(Cl)ccc2=[NH+]1

>  <Set>  (476) 
G2 inactive

>  <Set_type>  (476) 
Train

>  <MW>  (476) 
416.91

>  <HBD>  (476) 
5

>  <HBA>  (476) 
5

>  <NRB>  (476) 
5

>  <NR>  (476) 
4

>  <NAR>  (476) 
2

>  <PSA>  (476) 
110.22

>  <Standard Type>  (476) 
nan

>  <Standard Relation>  (476) 
nan

>  <Standard Units>  (476) 
nan

>  <Standard Value>  (476) 
nan

>  <Assay ChEMBL ID>  (476) 
nan

>  <Assay Description>  (476) 
nan

>  <BAO Label>  (476) 
nan

$$$$

     RDKit          2D

 26 29  0  0  0  0  0  0  0  0999 V2000
    2.5838   -2.1155    0.0000 O   0  0  0  0  0  0  0  0  0  0  0  0
    1.2135   -2.7256    0.0000 S   0  0  0  0  0  0  0  0  0  0  0  0
    1.9635   -4.0247    0.0000 O   0  0  0  0  0  0  0  0  0  0  0  0
    0.7500   -1.2990    0.0000 C   0  0  0  0  0  0  0  0  0  0  0  0
    1.5000    0.0000    0.0000 C   0  0  0  0  0  0  0  0  0  0  0  0
    0.7500    1.2990    0.0000 C   0  0  0  0  0  0  0  0  0  0  0  0
   -0.7500    1.2990    0.0000 C   0  0  0  0  0  0  0  0  0  0  0  0
   -1.5000    0.0000    0.0000 C   0  0  0  0  0  0  0  0  0  0  0  0
   -0.7500   -1.2990    0.0000 C   0  0  0  0  0  0  0  0  0  0  0  0
   -1.2135   -2.7256    0.0000 C   0  0  0  0  0  0  0  0  0  0  0  0
   -2.6401   -3.1891    0.0000 O   0  0  0  0  0  0  0  0  0  0  0  0
   -0.0000   -3.6073    0.0000 C   0  0  0  0  0  0  0  0  0  0  0  0
   -0.0000   -5.1073    0.0000 C   0  0  0  0  0  0  0  0  0  0  0  0
   -1.2990   -5.8573    0.0000 N   0  0  0  0  0  4  0  0  0  0  0  0
   -1.2990   -7.3573    0.0000 C   0  0  0  0  0  0  0  0  0  0  0  0
   -2.5981   -8.1073    0.0000 C   0  0  0  0  0  0  0  0  0  0  0  0
   -2.5981   -9.6073    0.0000 C   0  0  0  0  0  0  0  0  0  0  0  0
   -1.2990  -10.3573    0.0000 C   0  0  0  0  0  0  0  0  0  0  0  0
   -0.0000   -9.6073    0.0000 C   0  0  0  0  0  0  0  0  0  0  0  0
   -0.0000   -8.1073    0.0000 C   0  0  0  0  0  0  0  0  0  0  0  0
    1.2990   -5.8573    0.0000 C   0  0  0  0  0  0  0  0  0  0  0  0
    1.2990   -7.3573    0.0000 C   0  0  0  0  0  0  0  0  0  0  0  0
    2.5981   -8.1073    0.0000 C   0  0  0  0  0  0  0  0  0  0  0  0
    3.8971   -7.3573    0.0000 C   0  0  0  0  0  0  0  0  0  0  0  0
    3.8971   -5.8573    0.0000 C   0  0  0  0  0  0  0  0  0  0  0  0
    2.5981   -5.1073    0.0000 C   0  0  0  0  0  0  0  0  0  0  0  0
  1  2  2  0
  2  3  2  0
  2  4  1  0
  4  5  2  0
  5  6  1  0
  6  7  2  0
  7  8  1  0
  8  9  2  0
  9 10  1  0
 10 11  1  6
 10 12  1  0
 12 13  1  0
 13 14  1  1
 14 15  1  0
 15 16  1  0
 16 17  1  0
 17 18  1  0
 18 19  1  0
 19 20  1  0
 13 21  1  0
 21 22  1  0
 22 23  1  0
 23 24  1  0
 24 25  1  0
 25 26  1  0
 12  2  1  6
 20 15  1  0
 26 21  1  0
  9  4  1  0
M  CHG  1  14   1
M  END
>  <Compound_ID>  (477) 
C39295725

>  <Active>  (477) 
0

>  <Smiles>  (477) 
O=S1(=O)c2ccccc2[C@@H](O)[C@H]1[C@H]([NH2+]C1CCCCC1)C1CCCCC1

>  <canonical_smi>  (477) 
O=S1(=O)c2ccccc2[C@@H](O)[C@H]1[C@H]([NH2+]C1CCCCC1)C1CCCCC1

>  <Set>  (477) 
G2 inactive

>  <Set_type>  (477) 
Train

>  <MW>  (477) 
378.56

>  <HBD>  (477) 
2

>  <HBA>  (477) 
3

>  <NRB>  (477) 
4

>  <NR>  (477) 
4

>  <NAR>  (477) 
1

>  <PSA>  (477) 
70.98

>  <Standard Type>  (477) 
nan

>  <Standard Relation>  (477) 
nan

>  <Standard Units>  (477) 
nan

>  <Standard Value>  (477) 
nan

>  <Assay ChEMBL ID>  (477) 
nan

>  <Assay Description>  (477) 
nan

>  <BAO Label>  (477) 
nan

$$$$

     RDKit          2D

 25 28  0  0  0  0  0  0  0  0999 V2000
    3.0000   -7.7942    0.0000 C   0  0  0  0  0  0  0  0  0  0  0  0
    1.5000   -7.7942    0.0000 S   0  0  0  0  0  0  0  0  0  0  0  0
    0.7500   -6.4952    0.0000 C   0  0  0  0  0  0  0  0  0  0  0  0
    1.5000   -5.1962    0.0000 C   0  0  0  0  0  0  0  0  0  0  0  0
    0.7500   -3.8971    0.0000 C   0  0  0  0  0  0  0  0  0  0  0  0
    1.5000   -2.5981    0.0000 C   0  0  0  0  0  0  0  0  0  0  0  0
    0.7500   -1.2990    0.0000 C   0  0  0  0  0  0  0  0  0  0  0  0
    1.5000    0.0000    0.0000 C   0  0  0  0  0  0  0  0  0  0  0  0
    0.7500    1.2990    0.0000 O   0  0  0  0  0  0  0  0  0  0  0  0
   -0.7500    1.2990    0.0000 P   0  0  0  0  0  5  0  0  0  0  0  0
   -0.4895    2.7762    0.0000 O   0  0  0  0  0  0  0  0  0  0  0  0
   -2.1595    1.8121    0.0000 C   0  0  0  0  0  0  0  0  0  0  0  0
   -2.4200    3.2893    0.0000 C   0  0  0  0  0  0  0  0  0  0  0  0
   -1.2709    4.2535    0.0000 C   0  0  0  0  0  0  0  0  0  0  0  0
   -1.5314    5.7307    0.0000 C   0  0  0  0  0  0  0  0  0  0  0  0
   -2.9410    6.2437    0.0000 C   0  0  0  0  0  0  0  0  0  0  0  0
   -4.0900    5.2795    0.0000 C   0  0  0  0  0  0  0  0  0  0  0  0
   -3.8296    3.8023    0.0000 C   0  0  0  0  0  0  0  0  0  0  0  0
   -1.5000    0.0000    0.0000 N   0  0  0  0  0  0  0  0  0  0  0  0
   -0.7500   -1.2990    0.0000 N   0  0  0  0  0  4  0  0  0  0  0  0
   -1.5000   -2.5981    0.0000 C   0  0  0  0  0  0  0  0  0  0  0  0
   -0.7500   -3.8971    0.0000 C   0  0  0  0  0  0  0  0  0  0  0  0
   -1.5000   -5.1962    0.0000 C   0  0  0  0  0  0  0  0  0  0  0  0
   -0.7500   -6.4952    0.0000 C   0  0  0  0  0  0  0  0  0  0  0  0
   -1.5000   -7.7942    0.0000 O   0  0  0  0  0  0  0  0  0  0  0  0
  1  2  1  0
  2  3  1  0
  3  4  2  0
  4  5  1  0
  5  6  1  6
  7  6  1  1
  7  8  1  0
  8  9  1  0
  9 10  1  0
 10 11  2  0
 10 12  1  1
 12 13  1  0
 13 14  2  0
 14 15  1  0
 15 16  2  0
 16 17  1  0
 17 18  2  0
 10 19  1  0
 19 20  1  0
 20 21  1  0
 22 21  1  1
 22 23  1  0
 23 24  2  0
 24 25  1  0
 24  3  1  0
 22  5  1  0
 20  7  1  0
 18 13  1  0
M  CHG  1  20   1
M  END
>  <Compound_ID>  (478) 
C39466639

>  <Active>  (478) 
0

>  <Smiles>  (478) 
CSC1=C[C@H]2C[C@@H]3CO[P@](=O)(Cc4ccccc4)N[NH+]3C[C@@H]2C=C1O

>  <canonical_smi>  (478) 
CSC1=C[C@H]2C[C@@H]3CO[P@](=O)(Cc4ccccc4)N[NH+]3C[C@@H]2C=C1O

>  <Set>  (478) 
G2 inactive

>  <Set_type>  (478) 
Train

>  <MW>  (478) 
379.44

>  <HBD>  (478) 
3

>  <HBA>  (478) 
5

>  <NRB>  (478) 
3

>  <NR>  (478) 
4

>  <NAR>  (478) 
1

>  <PSA>  (478) 
63.0

>  <Standard Type>  (478) 
nan

>  <Standard Relation>  (478) 
nan

>  <Standard Units>  (478) 
nan

>  <Standard Value>  (478) 
nan

>  <Assay ChEMBL ID>  (478) 
nan

>  <Assay Description>  (478) 
nan

>  <BAO Label>  (478) 
nan

$$$$

     RDKit          2D

 18 19  0  0  0  0  0  0  0  0999 V2000
    3.7500   -1.2990    0.0000 C   0  0  0  0  0  0  0  0  0  0  0  0
    3.0000    0.0000    0.0000 C   0  0  0  0  0  0  0  0  0  0  0  0
    1.5000    0.0000    0.0000 C   0  0  0  0  0  0  0  0  0  0  0  0
    0.7500   -1.2990    0.0000 C   0  0  0  0  0  0  0  0  0  0  0  0
   -0.7500   -1.2990    0.0000 O   0  0  0  0  0  0  0  0  0  0  0  0
   -1.5000    0.0000    0.0000 C   0  0  0  0  0  0  0  0  0  0  0  0
   -0.7500    1.2990    0.0000 C   0  0  0  0  0  0  0  0  0  0  0  0
    0.7500    1.2990    0.0000 N   0  0  0  0  0  0  0  0  0  0  0  0
    1.5000    2.5981    0.0000 C   0  0  0  0  0  0  0  0  0  0  0  0
    0.7500    3.8971    0.0000 C   0  0  0  0  0  0  0  0  0  0  0  0
    1.5000    5.1962    0.0000 N   0  0  0  0  0  4  0  0  0  0  0  0
    3.0000    2.5981    0.0000 C   0  0  0  0  0  0  0  0  0  0  0  0
    3.8817    3.8116    0.0000 C   0  0  0  0  0  0  0  0  0  0  0  0
    5.3083    3.3481    0.0000 C   0  0  0  0  0  0  0  0  0  0  0  0
    6.5218    4.2298    0.0000 Br  0  0  0  0  0  0  0  0  0  0  0  0
    5.3083    1.8481    0.0000 C   0  0  0  0  0  0  0  0  0  0  0  0
    6.5218    0.9664    0.0000 Br  0  0  0  0  0  0  0  0  0  0  0  0
    3.8817    1.3846    0.0000 O   0  0  0  0  0  0  0  0  0  0  0  0
  1  2  1  0
  3  2  1  6
  3  4  1  0
  4  5  1  0
  5  6  1  0
  6  7  1  0
  7  8  1  0
  8  9  1  0
  9 10  1  1
 10 11  1  0
  9 12  1  0
 12 13  2  0
 13 14  1  0
 14 15  1  0
 14 16  2  0
 16 17  1  0
 16 18  1  0
  8  3  1  0
 18 12  1  0
M  CHG  1  11   1
M  END
>  <Compound_ID>  (479) 
C50361932

>  <Active>  (479) 
0

>  <Smiles>  (479) 
CC[C@@H]1COCCN1[C@@H](C[NH3+])c1cc(Br)c(Br)o1

>  <canonical_smi>  (479) 
CC[C@@H]1COCCN1[C@@H](C[NH3+])c1cc(Br)c(Br)o1

>  <Set>  (479) 
G2 inactive

>  <Set_type>  (479) 
Train

>  <MW>  (479) 
383.1

>  <HBD>  (479) 
1

>  <HBA>  (479) 
3

>  <NRB>  (479) 
4

>  <NR>  (479) 
2

>  <NAR>  (479) 
1

>  <PSA>  (479) 
53.25

>  <Standard Type>  (479) 
nan

>  <Standard Relation>  (479) 
nan

>  <Standard Units>  (479) 
nan

>  <Standard Value>  (479) 
nan

>  <Assay ChEMBL ID>  (479) 
nan

>  <Assay Description>  (479) 
nan

>  <BAO Label>  (479) 
nan

$$$$

     RDKit          2D

 34 38  0  0  0  0  0  0  0  0999 V2000
    2.7135   -1.7164    0.0000 C   0  0  0  0  0  0  0  0  0  0  0  0
    1.5000   -2.5981    0.0000 C   0  0  0  0  0  0  0  0  0  0  0  0
    0.7500   -1.2990    0.0000 C   0  0  0  0  0  0  0  0  0  0  0  0
    1.5000    0.0000    0.0000 C   0  0  0  0  0  0  0  0  0  0  0  0
    0.7500    1.2990    0.0000 C   0  0  0  0  0  0  0  0  0  0  0  0
   -0.7500    1.2990    0.0000 N   0  0  0  0  0  4  0  0  0  0  0  0
   -1.5000    2.5981    0.0000 C   0  0  0  0  0  0  0  0  0  0  0  0
   -0.7500    3.8971    0.0000 C   0  0  0  0  0  0  0  0  0  0  0  0
    0.7418    4.0539    0.0000 C   0  0  0  0  0  0  0  0  0  0  0  0
    1.0537    5.5211    0.0000 C   0  0  0  0  0  0  0  0  0  0  0  0
   -0.2454    6.2711    0.0000 C   0  0  0  0  0  0  0  0  0  0  0  0
   -1.3601    5.2674    0.0000 N   0  0  0  0  0  0  0  0  0  0  0  0
   -2.8273    5.5793    0.0000 C   0  0  0  0  0  0  0  0  0  0  0  0
   -3.8310    4.4646    0.0000 C   0  0  0  0  0  0  0  0  0  0  0  0
   -5.2982    4.7765    0.0000 C   0  0  0  0  0  0  0  0  0  0  0  0
   -5.7618    6.2030    0.0000 C   0  0  0  0  0  0  0  0  0  0  0  0
   -4.7581    7.3178    0.0000 C   0  0  0  0  0  0  0  0  0  0  0  0
   -3.2909    7.0059    0.0000 N   0  0  0  0  0  0  0  0  0  0  0  0
   -1.5000    0.0000    0.0000 C   0  0  0  0  0  0  0  0  0  0  0  0
   -0.7500   -1.2990    0.0000 C   0  0  0  0  0  0  0  0  0  0  0  0
    2.5037   -3.7128    0.0000 N   0  0  0  0  0  0  0  0  0  0  0  0
    1.7537   -5.0118    0.0000 C   0  0  0  0  0  0  0  0  0  0  0  0
    2.3638   -6.3821    0.0000 O   0  0  0  0  0  0  0  0  0  0  0  0
    0.2865   -4.7000    0.0000 N   0  0  0  0  0  0  0  0  0  0  0  0
   -0.8282   -5.7037    0.0000 C   0  0  0  0  0  0  0  0  0  0  0  0
   -2.2548   -5.2401    0.0000 C   0  0  0  0  0  0  0  0  0  0  0  0
   -2.5667   -3.7729    0.0000 C   0  0  0  0  0  0  0  0  0  0  0  0
   -3.9933   -3.3094    0.0000 C   0  0  0  0  0  0  0  0  0  0  0  0
   -5.1080   -4.3131    0.0000 C   0  0  0  0  0  0  0  0  0  0  0  0
   -6.5346   -3.8496    0.0000 F   0  0  0  0  0  0  0  0  0  0  0  0
   -4.7961   -5.7803    0.0000 C   0  0  0  0  0  0  0  0  0  0  0  0
   -3.3695   -6.2438    0.0000 C   0  0  0  0  0  0  0  0  0  0  0  0
    0.1297   -3.2082    0.0000 C   0  0  0  0  0  0  0  0  0  0  0  0
   -1.1694   -2.4582    0.0000 O   0  0  0  0  0  0  0  0  0  0  0  0
  2  1  1  1
  2  3  1  0
  3  4  1  0
  4  5  1  0
  5  6  1  0
  6  7  1  0
  7  8  1  0
  8  9  2  0
  9 10  1  0
 10 11  2  0
 11 12  1  0
 12 13  1  0
 13 14  2  0
 14 15  1  0
 15 16  2  0
 16 17  1  0
 17 18  2  0
  6 19  1  0
 19 20  1  0
  2 21  1  0
 21 22  1  0
 22 23  2  0
 22 24  1  0
 24 25  1  0
 25 26  1  0
 26 27  2  0
 27 28  1  0
 28 29  2  0
 29 30  1  0
 29 31  1  0
 31 32  2  0
 24 33  1  0
 33 34  2  0
 33  2  1  0
 20  3  1  0
 32 26  1  0
 12  8  1  0
 18 13  1  0
M  CHG  1   6   1
M  END
>  <Compound_ID>  (480) 
C12217807

>  <Active>  (480) 
0

>  <Smiles>  (480) 
C[C@@]1(C2CC[NH+](Cc3cccn3-c3ccccn3)CC2)NC(=O)N(Cc2ccc(F)cc2)C1=O

>  <canonical_smi>  (480) 
C[C@@]1(C2CC[NH+](Cc3cccn3-c3ccccn3)CC2)NC(=O)N(Cc2ccc(F)cc2)C1=O

>  <Set>  (480) 
G2 inactive

>  <Set_type>  (480) 
Train

>  <MW>  (480) 
462.55

>  <HBD>  (480) 
2

>  <HBA>  (480) 
3

>  <NRB>  (480) 
6

>  <NR>  (480) 
5

>  <NAR>  (480) 
3

>  <PSA>  (480) 
71.67

>  <Standard Type>  (480) 
nan

>  <Standard Relation>  (480) 
nan

>  <Standard Units>  (480) 
nan

>  <Standard Value>  (480) 
nan

>  <Assay ChEMBL ID>  (480) 
nan

>  <Assay Description>  (480) 
nan

>  <BAO Label>  (480) 
nan

$$$$

     RDKit          2D

 30 33  0  0  0  0  0  0  0  0999 V2000
    6.0000    0.0000    0.0000 C   0  0  0  0  0  0  0  0  0  0  0  0
    5.2500   -1.2990    0.0000 C   0  0  0  0  0  0  0  0  0  0  0  0
    6.0000   -2.5981    0.0000 C   0  0  0  0  0  0  0  0  0  0  0  0
    3.7500   -1.2990    0.0000 C   0  0  0  0  0  0  0  0  0  0  0  0
    3.0000    0.0000    0.0000 O   0  0  0  0  0  0  0  0  0  0  0  0
    1.5000    0.0000    0.0000 C   0  0  0  0  0  0  0  0  0  0  0  0
    0.7500   -1.2990    0.0000 C   0  0  0  0  0  0  0  0  0  0  0  0
   -0.7500   -1.2990    0.0000 C   0  0  0  0  0  0  0  0  0  0  0  0
   -1.5000   -2.5981    0.0000 O   0  0  0  0  0  0  0  0  0  0  0  0
   -3.0000   -2.5981    0.0000 C   0  0  0  0  0  0  0  0  0  0  0  0
   -3.7500   -3.8971    0.0000 O   0  0  0  0  0  0  0  0  0  0  0  0
   -3.7500   -1.2990    0.0000 C   0  0  0  0  0  0  0  0  0  0  0  0
   -5.2500   -1.2990    0.0000 C   0  0  0  0  0  0  0  0  0  0  0  0
   -6.0000   -2.5981    0.0000 C   0  0  0  0  0  0  0  0  0  0  0  0
   -5.2500   -3.8971    0.0000 O   0  0  0  0  0  0  0  0  0  0  0  0
   -7.5000   -2.5981    0.0000 N   0  0  0  0  0  0  0  0  0  0  0  0
   -8.2500   -1.2990    0.0000 C   0  0  0  0  0  0  0  0  0  0  0  0
   -9.7500   -1.2990    0.0000 C   0  0  0  0  0  0  0  0  0  0  0  0
  -10.5000   -2.5981    0.0000 C   0  0  0  0  0  0  0  0  0  0  0  0
  -11.9672   -2.9099    0.0000 N   0  0  0  0  0  4  0  0  0  0  0  0
  -12.1240   -4.4017    0.0000 C   0  0  0  0  0  0  0  0  0  0  0  0
  -10.7537   -5.0118    0.0000 N   0  0  0  0  0  0  0  0  0  0  0  0
   -9.7500   -3.8971    0.0000 C   0  0  0  0  0  0  0  0  0  0  0  0
   -8.2500   -3.8971    0.0000 C   0  0  0  0  0  0  0  0  0  0  0  0
   -3.0000    0.0000    0.0000 C   0  0  0  0  0  0  0  0  0  0  0  0
   -3.7500    1.2990    0.0000 C   0  0  0  0  0  0  0  0  0  0  0  0
   -1.5000    0.0000    0.0000 C   0  0  0  0  0  0  0  0  0  0  0  0
   -0.7500    1.2990    0.0000 C   0  0  0  0  0  0  0  0  0  0  0  0
    0.7500    1.2990    0.0000 C   0  0  0  0  0  0  0  0  0  0  0  0
    1.5000    2.5981    0.0000 Cl  0  0  0  0  0  0  0  0  0  0  0  0
  1  2  2  0
  2  3  1  0
  2  4  1  0
  4  5  1  0
  5  6  1  0
  6  7  2  0
  7  8  1  0
  8  9  1  0
  9 10  1  0
 10 11  2  0
 10 12  1  0
 12 13  1  0
 13 14  1  0
 14 15  2  0
 14 16  1  0
 16 17  1  0
 17 18  1  0
 18 19  1  0
 19 20  1  0
 20 21  2  0
 21 22  1  0
 22 23  1  0
 23 24  1  0
 12 25  2  0
 25 26  1  0
 25 27  1  0
 27 28  1  0
 28 29  2  0
 29 30  1  0
 29  6  1  0
 27  8  2  0
 24 16  1  0
 23 19  2  0
M  CHG  1  20   1
M  END
>  <Compound_ID>  (481) 
C13550346

>  <Active>  (481) 
0

>  <Smiles>  (481) 
C=C(C)COc1cc2oc(=O)c(CC(=O)N3CCc4[nH+]c[nH]c4C3)c(C)c2cc1Cl

>  <canonical_smi>  (481) 
C=C(C)COc1cc2oc(=O)c(CC(=O)N3CCc4[nH+]c[nH]c4C3)c(C)c2cc1Cl

>  <Set>  (481) 
G2 inactive

>  <Set_type>  (481) 
Train

>  <MW>  (481) 
428.9

>  <HBD>  (481) 
1

>  <HBA>  (481) 
4

>  <NRB>  (481) 
5

>  <NR>  (481) 
4

>  <NAR>  (481) 
3

>  <PSA>  (481) 
89.68

>  <Standard Type>  (481) 
nan

>  <Standard Relation>  (481) 
nan

>  <Standard Units>  (481) 
nan

>  <Standard Value>  (481) 
nan

>  <Assay ChEMBL ID>  (481) 
nan

>  <Assay Description>  (481) 
nan

>  <BAO Label>  (481) 
nan

$$$$

     RDKit          2D

 31 35  0  0  0  0  0  0  0  0999 V2000
    1.8478   -6.4639    0.0000 S   0  0  0  0  0  0  0  0  0  0  0  0
    2.0046   -4.9721    0.0000 C   0  0  0  0  0  0  0  0  0  0  0  0
    3.3037   -4.2221    0.0000 N   0  0  0  0  0  0  0  0  0  0  0  0
    2.9918   -2.7549    0.0000 N   0  0  0  0  0  4  0  0  0  0  0  0
    1.5000   -2.5981    0.0000 C   0  0  0  0  0  0  0  0  0  0  0  0
    0.7500   -1.2990    0.0000 C   0  0  0  0  0  0  0  0  0  0  0  0
    1.5000    0.0000    0.0000 C   0  0  0  0  0  0  0  0  0  0  0  0
    0.7500    1.2990    0.0000 C   0  0  0  0  0  0  0  0  0  0  0  0
   -0.7500    1.2990    0.0000 N   0  0  0  0  0  0  0  0  0  0  0  0
   -1.5000    0.0000    0.0000 C   0  0  0  0  0  0  0  0  0  0  0  0
   -0.7500   -1.2990    0.0000 C   0  0  0  0  0  0  0  0  0  0  0  0
    0.8899   -3.9684    0.0000 N   0  0  0  0  0  0  0  0  0  0  0  0
   -0.5773   -4.2803    0.0000 N   0  0  0  0  0  0  0  0  0  0  0  0
   -1.0409   -5.7068    0.0000 C   0  0  0  0  0  0  0  0  0  0  0  0
   -2.5081   -6.0187    0.0000 C   0  0  0  0  0  0  0  0  0  0  0  0
   -3.1182   -7.3890    0.0000 C   0  0  0  0  0  0  0  0  0  0  0  0
   -4.6100   -7.2322    0.0000 N   0  0  0  0  0  0  0  0  0  0  0  0
   -5.6137   -8.3470    0.0000 C   0  0  0  0  0  0  0  0  0  0  0  0
   -7.0809   -8.0351    0.0000 C   0  0  0  0  0  0  0  0  0  0  0  0
   -8.0846   -9.1498    0.0000 C   0  0  0  0  0  0  0  0  0  0  0  0
   -7.6210  -10.5764    0.0000 C   0  0  0  0  0  0  0  0  0  0  0  0
   -6.1538  -10.8883    0.0000 C   0  0  0  0  0  0  0  0  0  0  0  0
   -5.1501   -9.7735    0.0000 C   0  0  0  0  0  0  0  0  0  0  0  0
   -4.9218   -5.7650    0.0000 N   0  0  0  0  0  0  0  0  0  0  0  0
   -3.6228   -5.0150    0.0000 C   0  0  0  0  0  0  0  0  0  0  0  0
   -3.4660   -3.5232    0.0000 C   0  0  0  0  0  0  0  0  0  0  0  0
   -2.0957   -2.9131    0.0000 C   0  0  0  0  0  0  0  0  0  0  0  0
   -1.9389   -1.4213    0.0000 C   0  0  0  0  0  0  0  0  0  0  0  0
   -3.1524   -0.5397    0.0000 C   0  0  0  0  0  0  0  0  0  0  0  0
   -4.5227   -1.1498    0.0000 C   0  0  0  0  0  0  0  0  0  0  0  0
   -4.6795   -2.6416    0.0000 C   0  0  0  0  0  0  0  0  0  0  0  0
  1  2  2  0
  2  3  1  0
  3  4  2  0
  4  5  1  0
  5  6  1  6
  6  7  2  0
  7  8  1  0
  8  9  2  0
  9 10  1  0
 10 11  2  0
  5 12  1  0
 12 13  1  0
 13 14  2  0
 14 15  1  0
 15 16  2  0
 16 17  1  0
 17 18  1  0
 18 19  2  0
 19 20  1  0
 20 21  2  0
 21 22  1  0
 22 23  2  0
 17 24  1  0
 24 25  1  0
 25 26  1  6
 26 27  2  0
 27 28  1  0
 28 29  2  0
 29 30  1  0
 30 31  2  0
 12  2  1  0
 25 15  1  0
 31 26  1  0
 11  6  1  0
 23 18  1  0
M  CHG  1   4   1
M  END
>  <Compound_ID>  (482) 
C39336686

>  <Active>  (482) 
0

>  <Smiles>  (482) 
S=C1N=[NH+][C@@H](c2ccncc2)N1/N=C/C1=CN(c2ccccc2)N[C@@H]1c1ccccc1

>  <canonical_smi>  (482) 
S=C1N=[NH+][C@@H](c2ccncc2)N1/N=C/C1=CN(c2ccccc2)N[C@@H]1c1ccccc1

>  <Set>  (482) 
G2 inactive

>  <Set_type>  (482) 
Train

>  <MW>  (482) 
426.53

>  <HBD>  (482) 
2

>  <HBA>  (482) 
5

>  <NRB>  (482) 
5

>  <NR>  (482) 
5

>  <NAR>  (482) 
3

>  <PSA>  (482) 
70.09

>  <Standard Type>  (482) 
nan

>  <Standard Relation>  (482) 
nan

>  <Standard Units>  (482) 
nan

>  <Standard Value>  (482) 
nan

>  <Assay ChEMBL ID>  (482) 
nan

>  <Assay Description>  (482) 
nan

>  <BAO Label>  (482) 
nan

$$$$

     RDKit          2D

 31 34  0  0  0  0  0  0  0  0999 V2000
    6.4125    4.5348    0.0000 C   0  0  0  0  0  0  0  0  0  0  0  0
    4.9859    4.0713    0.0000 C   0  0  0  0  0  0  0  0  0  0  0  0
    3.8712    5.0750    0.0000 C   0  0  0  0  0  0  0  0  0  0  0  0
    2.4446    4.6115    0.0000 C   0  0  0  0  0  0  0  0  0  0  0  0
    1.3299    5.6152    0.0000 C   0  0  0  0  0  0  0  0  0  0  0  0
    2.1328    3.1443    0.0000 C   0  0  0  0  0  0  0  0  0  0  0  0
    0.7062    2.6807    0.0000 C   0  0  0  0  0  0  0  0  0  0  0  0
   -0.4086    3.6844    0.0000 N   0  0  0  0  0  0  0  0  0  0  0  0
   -1.8351    3.2209    0.0000 C   0  0  0  0  0  0  0  0  0  0  0  0
   -2.9499    4.2246    0.0000 O   0  0  0  0  0  0  0  0  0  0  0  0
   -2.1470    1.7537    0.0000 N   0  0  0  0  0  0  0  0  0  0  0  0
   -3.5736    1.2902    0.0000 C   0  0  0  0  0  0  0  0  0  0  0  0
   -1.0323    0.7500    0.0000 C   0  0  0  0  0  0  0  0  0  0  0  0
    0.3943    1.2135    0.0000 C   0  0  0  0  0  0  0  0  0  0  0  0
    1.2760    0.0000    0.0000 C   0  0  0  0  0  0  0  0  0  0  0  0
    2.7760    0.0000    0.0000 O   0  0  0  0  0  0  0  0  0  0  0  0
    0.3943   -1.2135    0.0000 N   0  0  0  0  0  0  0  0  0  0  0  0
    0.8578   -2.6401    0.0000 C   0  0  0  0  0  0  0  0  0  0  0  0
   -0.1459   -3.7548    0.0000 C   0  0  0  0  0  0  0  0  0  0  0  0
    0.3177   -5.1814    0.0000 C   0  0  0  0  0  0  0  0  0  0  0  0
   -0.6860   -6.2961    0.0000 N   0  0  0  0  0  4  0  0  0  0  0  0
   -2.1533   -5.9843    0.0000 C   0  0  0  0  0  0  0  0  0  0  0  0
   -3.1570   -7.0990    0.0000 C   0  0  0  0  0  0  0  0  0  0  0  0
   -2.6934   -8.5256    0.0000 C   0  0  0  0  0  0  0  0  0  0  0  0
   -1.2262   -8.8374    0.0000 C   0  0  0  0  0  0  0  0  0  0  0  0
   -0.2225   -7.7227    0.0000 C   0  0  0  0  0  0  0  0  0  0  0  0
    1.2447   -8.0346    0.0000 C   0  0  0  0  0  0  0  0  0  0  0  0
   -1.0323   -0.7500    0.0000 C   0  0  0  0  0  0  0  0  0  0  0  0
    3.2475    2.1406    0.0000 C   0  0  0  0  0  0  0  0  0  0  0  0
    4.6741    2.6041    0.0000 C   0  0  0  0  0  0  0  0  0  0  0  0
    5.7888    1.6004    0.0000 C   0  0  0  0  0  0  0  0  0  0  0  0
  1  2  1  0
  2  3  2  0
  3  4  1  0
  4  5  1  0
  4  6  2  0
  7  6  1  1
  7  8  1  0
  8  9  1  0
  9 10  2  0
  9 11  1  0
 11 12  1  0
 11 13  1  0
 13 14  2  0
 14 15  1  0
 15 16  2  0
 15 17  1  0
 17 18  1  0
 18 19  1  0
 19 20  1  0
 20 21  1  0
 21 22  1  0
 22 23  1  0
 23 24  1  0
 24 25  1  0
 25 26  1  0
 26 27  1  1
 17 28  1  0
  6 29  1  0
 29 30  2  0
 30 31  1  0
 30  2  1  0
 14  7  1  0
 26 21  1  0
 28 13  1  0
M  CHG  1  21   1
M  END
>  <Compound_ID>  (483) 
C04569227

>  <Active>  (483) 
0

>  <Smiles>  (483) 
Cc1cc(C)c([C@@H]2NC(=O)N(C)C3=C2C(=O)N(CCC[NH+]2CCCC[C@@H]2C)C3)cc1C

>  <canonical_smi>  (483) 
Cc1cc(C)c([C@@H]2NC(=O)N(C)C3=C2C(=O)N(CCC[NH+]2CCCC[C@@H]2C)C3)cc1C

>  <Set>  (483) 
G2 inactive

>  <Set_type>  (483) 
Train

>  <MW>  (483) 
425.6

>  <HBD>  (483) 
2

>  <HBA>  (483) 
2

>  <NRB>  (483) 
5

>  <NR>  (483) 
4

>  <NAR>  (483) 
1

>  <PSA>  (483) 
57.09

>  <Standard Type>  (483) 
nan

>  <Standard Relation>  (483) 
nan

>  <Standard Units>  (483) 
nan

>  <Standard Value>  (483) 
nan

>  <Assay ChEMBL ID>  (483) 
nan

>  <Assay Description>  (483) 
nan

>  <BAO Label>  (483) 
nan

$$$$

     RDKit          2D

 29 32  0  0  0  0  0  0  0  0999 V2000
    2.6401   -3.1891    0.0000 C   0  0  0  0  0  0  0  0  0  0  0  0
    1.2135   -2.7256    0.0000 C   0  0  0  0  0  0  0  0  0  0  0  0
    0.7500   -1.2990    0.0000 C   0  0  0  0  0  0  0  0  0  0  0  0
    1.5000    0.0000    0.0000 C   0  0  0  0  0  0  0  0  0  0  0  0
    0.7500    1.2990    0.0000 C   0  0  0  0  0  0  0  0  0  0  0  0
    1.5000    2.5981    0.0000 C   0  0  0  0  0  0  0  0  0  0  0  0
   -0.7500    1.2990    0.0000 C   0  0  0  0  0  0  0  0  0  0  0  0
   -1.5000    0.0000    0.0000 C   0  0  0  0  0  0  0  0  0  0  0  0
   -0.7500   -1.2990    0.0000 C   0  0  0  0  0  0  0  0  0  0  0  0
   -1.2135   -2.7256    0.0000 N   0  0  0  0  0  4  0  0  0  0  0  0
   -0.0000   -3.6073    0.0000 C   0  0  0  0  0  0  0  0  0  0  0  0
   -0.0000   -5.1073    0.0000 C   0  0  0  0  0  0  0  0  0  0  0  0
    1.2135   -5.9890    0.0000 N   0  0  0  0  0  0  0  0  0  0  0  0
    0.7500   -7.4156    0.0000 C   0  0  0  0  0  0  0  0  0  0  0  0
    1.6317   -8.6291    0.0000 C   0  0  0  0  0  0  0  0  0  0  0  0
    1.0216   -9.9994    0.0000 C   0  0  0  0  0  0  0  0  0  0  0  0
    1.9033  -11.2129    0.0000 N   0  0  0  0  0  0  0  0  0  0  0  0
    1.2931  -12.5833    0.0000 C   0  0  0  0  0  0  0  0  0  0  0  0
    3.3950  -11.0561    0.0000 C   0  0  0  0  0  0  0  0  0  0  0  0
    4.0051   -9.6858    0.0000 O   0  0  0  0  0  0  0  0  0  0  0  0
    4.2767  -12.2697    0.0000 C   0  0  0  0  0  0  0  0  0  0  0  0
    5.7685  -12.1129    0.0000 C   0  0  0  0  0  0  0  0  0  0  0  0
    6.6502  -13.3264    0.0000 C   0  0  0  0  0  0  0  0  0  0  0  0
    8.1420  -13.1696    0.0000 C   0  0  0  0  0  0  0  0  0  0  0  0
    8.7521  -11.7993    0.0000 C   0  0  0  0  0  0  0  0  0  0  0  0
    7.8704  -10.5858    0.0000 C   0  0  0  0  0  0  0  0  0  0  0  0
    6.3786  -10.7426    0.0000 C   0  0  0  0  0  0  0  0  0  0  0  0
   -0.7500   -7.4156    0.0000 N   0  0  0  0  0  0  0  0  0  0  0  0
   -1.2135   -5.9890    0.0000 O   0  0  0  0  0  0  0  0  0  0  0  0
  1  2  1  0
  2  3  2  0
  3  4  1  0
  4  5  2  0
  5  6  1  0
  5  7  1  0
  7  8  2  0
  8  9  1  0
  9 10  2  0
 11 10  1  6
 11 12  1  0
 12 13  1  1
 13 14  1  0
 14 15  1  0
 15 16  1  0
 16 17  1  0
 17 18  1  0
 17 19  1  0
 19 20  2  0
 19 21  1  0
 21 22  1  0
 22 23  1  0
 23 24  1  0
 24 25  1  0
 25 26  1  0
 26 27  1  0
 14 28  2  0
 28 29  1  0
 11  2  1  0
 29 12  1  0
  9  3  1  0
 27 22  1  0
M  CHG  1  10   1
M  END
>  <Compound_ID>  (484) 
C65182684

>  <Active>  (484) 
0

>  <Smiles>  (484) 
CC1=c2cc(C)ccc2=[NH+][C@H]1[C@H]1NC(CCN(C)C(=O)CC2CCCCC2)=NO1

>  <canonical_smi>  (484) 
CC1=c2cc(C)ccc2=[NH+][C@H]1[C@H]1NC(CCN(C)C(=O)CC2CCCCC2)=NO1

>  <Set>  (484) 
G2 inactive

>  <Set_type>  (484) 
Train

>  <MW>  (484) 
397.54

>  <HBD>  (484) 
2

>  <HBA>  (484) 
3

>  <NRB>  (484) 
6

>  <NR>  (484) 
4

>  <NAR>  (484) 
1

>  <PSA>  (484) 
67.9

>  <Standard Type>  (484) 
nan

>  <Standard Relation>  (484) 
nan

>  <Standard Units>  (484) 
nan

>  <Standard Value>  (484) 
nan

>  <Assay ChEMBL ID>  (484) 
nan

>  <Assay Description>  (484) 
nan

>  <BAO Label>  (484) 
nan

$$$$

     RDKit          2D

 38 42  0  0  0  0  0  0  0  0999 V2000
    4.7581   -7.3178    0.0000 C   0  0  0  0  0  0  0  0  0  0  0  0
    4.2945   -5.8912    0.0000 C   0  0  0  0  0  0  0  0  0  0  0  0
    2.8273   -5.5793    0.0000 C   0  0  0  0  0  0  0  0  0  0  0  0
    2.5155   -7.0465    0.0000 C   0  0  0  0  0  0  0  0  0  0  0  0
    3.3600   -4.4873    0.0000 C   0  0  0  0  0  0  0  0  0  0  0  0
    1.3601   -5.2674    0.0000 N   0  0  0  0  0  0  0  0  0  0  0  0
    0.2454   -6.2711    0.0000 N   0  0  0  0  0  0  0  0  0  0  0  0
   -1.0537   -5.5211    0.0000 N   0  0  0  0  0  0  0  0  0  0  0  0
   -0.7418   -4.0539    0.0000 N   0  0  0  0  0  0  0  0  0  0  0  0
    0.7500   -3.8971    0.0000 C   0  0  0  0  0  0  0  0  0  0  0  0
    1.5000   -2.5981    0.0000 C   0  0  0  0  0  0  0  0  0  0  0  0
    0.7500   -1.2990    0.0000 C   0  0  0  0  0  0  0  0  0  0  0  0
   -0.7500   -1.2990    0.0000 C   0  0  0  0  0  0  0  0  0  0  0  0
   -1.5000   -0.0000    0.0000 C   0  0  0  0  0  0  0  0  0  0  0  0
   -3.0000   -0.0000    0.0000 C   0  0  0  0  0  0  0  0  0  0  0  0
   -3.7500   -1.2990    0.0000 C   0  0  0  0  0  0  0  0  0  0  0  0
   -3.7500    1.2990    0.0000 C   0  0  0  0  0  0  0  0  0  0  0  0
   -3.0000    2.5981    0.0000 C   0  0  0  0  0  0  0  0  0  0  0  0
   -3.7500    3.8971    0.0000 C   0  0  0  0  0  0  0  0  0  0  0  0
   -1.5000    2.5981    0.0000 C   0  0  0  0  0  0  0  0  0  0  0  0
   -0.7500    1.2990    0.0000 C   0  0  0  0  0  0  0  0  0  0  0  0
    0.7500    1.2990    0.0000 N   0  0  0  0  0  0  0  0  0  0  0  0
    1.5000   -0.0000    0.0000 C   0  0  0  0  0  0  0  0  0  0  0  0
    3.0000   -0.0000    0.0000 O   0  0  0  0  0  0  0  0  0  0  0  0
    3.0000   -2.5981    0.0000 N   0  0  0  0  0  4  0  0  0  0  0  0
    3.7500   -1.2990    0.0000 C   0  0  0  0  0  0  0  0  0  0  0  0
    5.2500   -1.2990    0.0000 C   0  0  0  0  0  0  0  0  0  0  0  0
    6.0000    0.0000    0.0000 C   0  0  0  0  0  0  0  0  0  0  0  0
    7.5000    0.0000    0.0000 C   0  0  0  0  0  0  0  0  0  0  0  0
    8.2500   -1.2990    0.0000 C   0  0  0  0  0  0  0  0  0  0  0  0
    7.5000   -2.5981    0.0000 C   0  0  0  0  0  0  0  0  0  0  0  0
    6.0000   -2.5981    0.0000 C   0  0  0  0  0  0  0  0  0  0  0  0
    3.7500   -3.8971    0.0000 C   0  0  0  0  0  0  0  0  0  0  0  0
    5.2500   -3.8971    0.0000 C   0  0  0  0  0  0  0  0  0  0  0  0
    6.1317   -5.1106    0.0000 C   0  0  0  0  0  0  0  0  0  0  0  0
    7.5583   -4.6471    0.0000 C   0  0  0  0  0  0  0  0  0  0  0  0
    7.5583   -3.1471    0.0000 C   0  0  0  0  0  0  0  0  0  0  0  0
    6.1317   -2.6836    0.0000 S   0  0  0  0  0  0  0  0  0  0  0  0
  1  2  1  0
  2  3  1  0
  3  4  1  0
  3  5  1  0
  3  6  1  0
  6  7  1  0
  7  8  2  0
  8  9  1  0
  9 10  2  0
 10 11  1  0
 11 12  1  0
 12 13  2  0
 13 14  1  0
 14 15  2  0
 15 16  1  0
 15 17  1  0
 17 18  2  0
 18 19  1  0
 18 20  1  0
 20 21  2  0
 21 22  1  0
 22 23  1  0
 23 24  2  0
 11 25  1  1
 25 26  1  0
 26 27  1  0
 27 28  2  0
 28 29  1  0
 29 30  2  0
 30 31  1  0
 31 32  2  0
 25 33  1  0
 33 34  1  0
 34 35  2  0
 35 36  1  0
 36 37  2  0
 37 38  1  0
 10  6  1  0
 23 12  1  0
 32 27  1  0
 38 34  1  0
 21 14  1  0
M  CHG  1  25   1
M  END
>  <Compound_ID>  (485) 
C06149032

>  <Active>  (485) 
0

>  <Smiles>  (485) 
CCC(C)(C)n1nnnc1[C@@H](c1cc2c(C)cc(C)cc2[nH]c1=O)[NH+](Cc1ccccc1)Cc1cccs1

>  <canonical_smi>  (485) 
CCC(C)(C)n1nnnc1[C@@H](c1cc2c(C)cc(C)cc2[nH]c1=O)[NH+](Cc1ccccc1)Cc1cccs1

>  <Set>  (485) 
G2 inactive

>  <Set_type>  (485) 
Train

>  <MW>  (485) 
527.72

>  <HBD>  (485) 
2

>  <HBA>  (485) 
4

>  <NRB>  (485) 
9

>  <NR>  (485) 
5

>  <NAR>  (485) 
5

>  <PSA>  (485) 
80.9

>  <Standard Type>  (485) 
nan

>  <Standard Relation>  (485) 
nan

>  <Standard Units>  (485) 
nan

>  <Standard Value>  (485) 
nan

>  <Assay ChEMBL ID>  (485) 
nan

>  <Assay Description>  (485) 
nan

>  <BAO Label>  (485) 
nan

$$$$

     RDKit          2D

 40 45  0  0  0  0  0  0  0  0999 V2000
   -4.2892   -5.3245    0.0000 C   0  0  0  0  0  0  0  0  0  0  0  0
   -5.1709   -4.1110    0.0000 O   0  0  0  0  0  0  0  0  0  0  0  0
   -4.5608   -2.7406    0.0000 C   0  0  0  0  0  0  0  0  0  0  0  0
   -3.0690   -2.5838    0.0000 C   0  0  0  0  0  0  0  0  0  0  0  0
   -2.4589   -1.2135    0.0000 C   0  0  0  0  0  0  0  0  0  0  0  0
   -3.3405   -0.0000    0.0000 C   0  0  0  0  0  0  0  0  0  0  0  0
   -4.8323   -0.1568    0.0000 C   0  0  0  0  0  0  0  0  0  0  0  0
   -5.4424   -1.5271    0.0000 C   0  0  0  0  0  0  0  0  0  0  0  0
   -6.9342   -1.6839    0.0000 C   0  0  0  0  0  0  0  0  0  0  0  0
   -7.8159   -0.4704    0.0000 C   0  0  0  0  0  0  0  0  0  0  0  0
   -9.3077   -0.6272    0.0000 O   0  0  0  0  0  0  0  0  0  0  0  0
  -10.1894    0.5864    0.0000 C   0  0  0  0  0  0  0  0  0  0  0  0
  -11.6811    0.4296    0.0000 C   0  0  0  0  0  0  0  0  0  0  0  0
  -12.5628    1.6431    0.0000 C   0  0  0  0  0  0  0  0  0  0  0  0
  -14.0546    1.4863    0.0000 C   0  0  0  0  0  0  0  0  0  0  0  0
  -14.9363    2.6998    0.0000 C   0  0  0  0  0  0  0  0  0  0  0  0
  -16.4281    2.5430    0.0000 C   0  0  0  0  0  0  0  0  0  0  0  0
  -17.0382    1.1727    0.0000 C   0  0  0  0  0  0  0  0  0  0  0  0
  -16.1565   -0.0408    0.0000 C   0  0  0  0  0  0  0  0  0  0  0  0
  -16.7666   -1.4111    0.0000 C   0  0  0  0  0  0  0  0  0  0  0  0
  -14.6647    0.1160    0.0000 N   0  0  0  0  0  0  0  0  0  0  0  0
   -2.4589    1.2135    0.0000 C   0  0  0  0  0  0  0  0  0  0  0  0
   -1.0323    0.7500    0.0000 C   0  0  0  0  0  0  0  0  0  0  0  0
    0.3943    1.2135    0.0000 C   0  0  0  0  0  0  0  0  0  0  0  0
    0.8578    2.6401    0.0000 C   0  0  0  0  0  0  0  0  0  0  0  0
    2.3250    2.9520    0.0000 C   0  0  0  0  0  0  0  0  0  0  0  0
    2.7886    4.3786    0.0000 C   0  0  0  0  0  0  0  0  0  0  0  0
    1.7849    5.4933    0.0000 C   0  0  0  0  0  0  0  0  0  0  0  0
    2.2484    6.9199    0.0000 C   0  0  0  0  0  0  0  0  0  0  0  0
    3.7156    7.2317    0.0000 C   0  0  0  0  0  0  0  0  0  0  0  0
    4.1791    8.6583    0.0000 C   0  0  0  0  0  0  0  0  0  0  0  0
    3.1755    9.7730    0.0000 C   0  0  0  0  0  0  0  0  0  0  0  0
    3.6390   11.1996    0.0000 O   0  0  0  0  0  0  0  0  0  0  0  0
    1.7082    9.4612    0.0000 C   0  0  0  0  0  0  0  0  0  0  0  0
    1.2447    8.0346    0.0000 C   0  0  0  0  0  0  0  0  0  0  0  0
    0.3177    5.1814    0.0000 C   0  0  0  0  0  0  0  0  0  0  0  0
   -0.1459    3.7548    0.0000 C   0  0  0  0  0  0  0  0  0  0  0  0
    1.2760    0.0000    0.0000 N   0  0  0  0  0  0  0  0  0  0  0  0
    0.3943   -1.2135    0.0000 N   0  0  0  0  0  4  0  0  0  0  0  0
   -1.0323   -0.7500    0.0000 C   0  0  0  0  0  0  0  0  0  0  0  0
  1  2  1  0
  2  3  1  0
  3  4  2  0
  4  5  1  0
  5  6  2  0
  6  7  1  0
  7  8  2  0
  8  9  1  0
  9 10  1  0
 10 11  1  0
 11 12  1  0
 12 13  1  0
 13 14  1  0
 14 15  1  0
 15 16  2  0
 16 17  1  0
 17 18  2  0
 18 19  1  0
 19 20  1  0
 19 21  2  0
  6 22  1  0
 22 23  1  0
 23 24  2  0
 24 25  1  0
 25 26  2  0
 26 27  1  0
 27 28  2  0
 28 29  1  0
 29 30  2  0
 30 31  1  0
 31 32  2  0
 32 33  1  0
 32 34  1  0
 34 35  2  0
 28 36  1  0
 36 37  2  0
 24 38  1  0
 38 39  2  0
 40 39  1  6
  8  3  1  0
 21 15  1  0
 40 23  1  0
 40  5  1  0
 37 25  1  0
 35 29  1  0
M  CHG  1  39   1
M  END
>  <Compound_ID>  (486) 
C52636936

>  <Active>  (486) 
0

>  <Smiles>  (486) 
COc1cc2c(cc1CCOCCCc1cccc(C)n1)CC1=C(c3ccc(-c4ccc(O)cc4)cc3)N=[NH+][C@@H]12

>  <canonical_smi>  (486) 
COc1cc2c(cc1CCOCCCc1cccc(C)n1)CC1=C(c3ccc(-c4ccc(O)cc4)cc3)N=[NH+][C@@H]12

>  <Set>  (486) 
G2 inactive

>  <Set_type>  (486) 
Train

>  <MW>  (486) 
532.66

>  <HBD>  (486) 
2

>  <HBA>  (486) 
4

>  <NRB>  (486) 
10

>  <NR>  (486) 
6

>  <NAR>  (486) 
4

>  <PSA>  (486) 
77.91

>  <Standard Type>  (486) 
nan

>  <Standard Relation>  (486) 
nan

>  <Standard Units>  (486) 
nan

>  <Standard Value>  (486) 
nan

>  <Assay ChEMBL ID>  (486) 
nan

>  <Assay Description>  (486) 
nan

>  <BAO Label>  (486) 
nan

$$$$

     RDKit          2D

 37 42  0  0  0  0  0  0  0  0999 V2000
    5.2500   -6.4952    0.0000 C   0  0  0  0  0  0  0  0  0  0  0  0
    3.7500   -6.4952    0.0000 C   0  0  0  0  0  0  0  0  0  0  0  0
    3.0000   -5.1962    0.0000 O   0  0  0  0  0  0  0  0  0  0  0  0
    1.5000   -5.1962    0.0000 C   0  0  0  0  0  0  0  0  0  0  0  0
    0.7500   -6.4952    0.0000 C   0  0  0  0  0  0  0  0  0  0  0  0
   -0.7500   -6.4952    0.0000 C   0  0  0  0  0  0  0  0  0  0  0  0
   -1.5000   -5.1962    0.0000 C   0  0  0  0  0  0  0  0  0  0  0  0
   -3.0000   -5.1962    0.0000 C   0  0  0  0  0  0  0  0  0  0  0  0
   -3.7500   -6.4952    0.0000 N   0  0  0  0  0  0  0  0  0  0  0  0
   -5.2500   -6.4952    0.0000 N   0  0  0  0  0  0  0  0  0  0  0  0
   -6.0000   -7.7942    0.0000 C   0  0  0  0  0  0  0  0  0  0  0  0
   -5.2500   -9.0933    0.0000 O   0  0  0  0  0  0  0  0  0  0  0  0
   -7.5000   -7.7942    0.0000 C   0  0  0  0  0  0  0  0  0  0  0  0
   -8.3817   -6.5807    0.0000 N   0  0  0  0  0  0  0  0  0  0  0  0
   -9.8083   -7.0442    0.0000 N   0  0  0  0  0  0  0  0  0  0  0  0
   -9.8083   -8.5442    0.0000 C   0  0  0  0  0  0  0  0  0  0  0  0
   -8.3817   -9.0078    0.0000 C   0  0  0  0  0  0  0  0  0  0  0  0
   -8.3817  -10.5078    0.0000 C   0  0  0  0  0  0  0  0  0  0  0  0
   -9.8083  -10.9713    0.0000 C   0  0  0  0  0  0  0  0  0  0  0  0
  -10.6899   -9.7578    0.0000 C   0  0  0  0  0  0  0  0  0  0  0  0
   -0.7500   -3.8971    0.0000 C   0  0  0  0  0  0  0  0  0  0  0  0
    0.7500   -3.8971    0.0000 C   0  0  0  0  0  0  0  0  0  0  0  0
    1.5000   -2.5981    0.0000 C   0  0  0  0  0  0  0  0  0  0  0  0
    0.7500   -1.2990    0.0000 N   0  0  0  0  0  4  0  0  0  0  0  0
    1.5000    0.0000    0.0000 C   0  0  0  0  0  0  0  0  0  0  0  0
    0.7500    1.2990    0.0000 C   0  0  0  0  0  0  0  0  0  0  0  0
   -0.7500    1.2990    0.0000 C   0  0  0  0  0  0  0  0  0  0  0  0
   -1.5000    0.0000    0.0000 C   0  0  0  0  0  0  0  0  0  0  0  0
   -0.7500   -1.2990    0.0000 C   0  0  0  0  0  0  0  0  0  0  0  0
   -2.2500    1.2990    0.0000 C   0  0  0  0  0  0  0  0  0  0  0  0
   -3.7500    1.2990    0.0000 C   0  0  0  0  0  0  0  0  0  0  0  0
   -4.5000    2.5981    0.0000 C   0  0  0  0  0  0  0  0  0  0  0  0
   -3.7500    3.8971    0.0000 C   0  0  0  0  0  0  0  0  0  0  0  0
   -2.2500    3.8971    0.0000 C   0  0  0  0  0  0  0  0  0  0  0  0
   -1.5000    5.1962    0.0000 O   0  0  0  0  0  0  0  0  0  0  0  0
   -1.5000    2.5981    0.0000 N   0  0  0  0  0  0  0  0  0  0  0  0
   -0.0000    2.5981    0.0000 C   0  0  0  0  0  0  0  0  0  0  0  0
  1  2  1  0
  2  3  1  0
  3  4  1  0
  4  5  2  0
  5  6  1  0
  6  7  2  0
  7  8  1  0
  8  9  2  0
  9 10  1  0
 10 11  1  0
 11 12  2  0
 13 11  1  6
 13 14  1  0
 14 15  2  0
 15 16  1  0
 16 17  2  0
 17 18  1  0
 18 19  1  0
 19 20  1  0
  7 21  1  0
 21 22  2  0
 22 23  1  0
 23 24  1  0
 24 25  1  0
 26 25  1  1
 26 27  1  0
 27 28  1  0
 28 29  1  1
 28 30  1  0
 30 31  2  0
 31 32  1  0
 32 33  2  0
 33 34  1  0
 34 35  2  0
 34 36  1  0
 36 37  1  0
 22  4  1  0
 29 24  1  0
 36 30  1  0
 17 13  1  0
 37 26  1  0
 20 16  1  0
M  CHG  1  24   1
M  END
>  <Compound_ID>  (487) 
C63699231

>  <Active>  (487) 
0

>  <Smiles>  (487) 
CCOc1ccc(/C=N/NC(=O)[C@H]2N=NC3=C2CCC3)cc1C[NH+]1C[C@H]2C[C@@H](C1)c1cccc(=O)n1C2

>  <canonical_smi>  (487) 
CCOc1ccc(/C=N/NC(=O)[C@H]2N=NC3=C2CCC3)cc1C[NH+]1C[C@@H]2C[C@@H](Cn3c2cccc3=O)C1

>  <Set>  (487) 
G2 inactive

>  <Set_type>  (487) 
Train

>  <MW>  (487) 
501.61

>  <HBD>  (487) 
2

>  <HBA>  (487) 
3

>  <NRB>  (487) 
7

>  <NR>  (487) 
6

>  <NAR>  (487) 
2

>  <PSA>  (487) 
101.85

>  <Standard Type>  (487) 
nan

>  <Standard Relation>  (487) 
nan

>  <Standard Units>  (487) 
nan

>  <Standard Value>  (487) 
nan

>  <Assay ChEMBL ID>  (487) 
nan

>  <Assay Description>  (487) 
nan

>  <BAO Label>  (487) 
nan

$$$$

     RDKit          2D

 41 45  0  0  0  0  0  0  0  0999 V2000
   -2.4200  -11.0835    0.0000 C   0  0  0  0  0  0  0  0  0  0  0  0
   -2.1595   -9.6063    0.0000 C   0  0  0  0  0  0  0  0  0  0  0  0
   -0.7500   -9.0933    0.0000 C   0  0  0  0  0  0  0  0  0  0  0  0
   -0.4895  -10.5705    0.0000 O   0  0  0  0  0  0  0  0  0  0  0  0
    0.7500   -9.0933    0.0000 C   0  0  0  0  0  0  0  0  0  0  0  0
    1.5000   -7.7942    0.0000 C   0  0  0  0  0  0  0  0  0  0  0  0
    3.0000   -7.7942    0.0000 O   0  0  0  0  0  0  0  0  0  0  0  0
    3.7500   -9.0933    0.0000 C   0  0  0  0  0  0  0  0  0  0  0  0
    3.0000  -10.3923    0.0000 C   0  0  0  0  0  0  0  0  0  0  0  0
    3.7500  -11.6913    0.0000 C   0  0  0  0  0  0  0  0  0  0  0  0
    3.0000  -12.9904    0.0000 N   0  0  0  0  0  4  0  0  0  0  0  0
    1.5000  -12.9904    0.0000 C   0  0  0  0  0  0  0  0  0  0  0  0
    3.7500  -14.2894    0.0000 C   0  0  0  0  0  0  0  0  0  0  0  0
    5.2500  -11.6913    0.0000 C   0  0  0  0  0  0  0  0  0  0  0  0
    6.0000  -12.9904    0.0000 O   0  0  0  0  0  0  0  0  0  0  0  0
    6.0000  -10.3923    0.0000 C   0  0  0  0  0  0  0  0  0  0  0  0
    7.5000  -10.3923    0.0000 C   0  0  0  0  0  0  0  0  0  0  0  0
    5.2500   -9.0933    0.0000 O   0  0  0  0  0  0  0  0  0  0  0  0
    0.7500   -6.4952    0.0000 C   0  0  0  0  0  0  0  0  0  0  0  0
   -0.7500   -6.4952    0.0000 C   0  0  0  0  0  0  0  0  0  0  0  0
   -1.5000   -5.1962    0.0000 C   0  0  0  0  0  0  0  0  0  0  0  0
   -0.7500   -3.8971    0.0000 C   0  0  0  0  0  0  0  0  0  0  0  0
    0.7500   -3.8971    0.0000 C   0  0  0  0  0  0  0  0  0  0  0  0
    1.5000   -5.1962    0.0000 C   0  0  0  0  0  0  0  0  0  0  0  0
    3.0000   -5.1962    0.0000 O   0  0  0  0  0  0  0  0  0  0  0  0
    1.5000   -2.5981    0.0000 C   0  0  0  0  0  0  0  0  0  0  0  0
    3.0000   -2.5981    0.0000 O   0  0  0  0  0  0  0  0  0  0  0  0
    0.7500   -1.2990    0.0000 C   0  0  0  0  0  0  0  0  0  0  0  0
    1.5000    0.0000    0.0000 C   0  0  0  0  0  0  0  0  0  0  0  0
    3.0000    0.0000    0.0000 O   0  0  0  0  0  0  0  0  0  0  0  0
    0.7500    1.2990    0.0000 C   0  0  0  0  0  0  0  0  0  0  0  0
   -0.7500    1.2990    0.0000 C   0  0  0  0  0  0  0  0  0  0  0  0
   -1.5000    0.0000    0.0000 C   0  0  0  0  0  0  0  0  0  0  0  0
   -0.7500   -1.2990    0.0000 C   0  0  0  0  0  0  0  0  0  0  0  0
   -1.5000   -2.5981    0.0000 C   0  0  0  0  0  0  0  0  0  0  0  0
   -3.0000   -2.5981    0.0000 O   0  0  0  0  0  0  0  0  0  0  0  0
   -1.5000   -7.7942    0.0000 C   0  0  0  0  0  0  0  0  0  0  0  0
   -3.0000   -7.7942    0.0000 C   0  0  0  0  0  0  0  0  0  0  0  0
   -3.7500   -6.4952    0.0000 O   0  0  0  0  0  0  0  0  0  0  0  0
   -3.7500   -9.0933    0.0000 O   0  0  0  0  0  0  0  0  0  0  0  0
   -5.2500   -9.0933    0.0000 C   0  0  0  0  0  0  0  0  0  0  0  0
  1  2  1  0
  2  3  1  0
  3  4  1  1
  3  5  1  0
  5  6  1  0
  6  7  1  6
  8  7  1  6
  8  9  1  0
  9 10  1  0
 10 11  1  1
 11 12  1  0
 11 13  1  0
 10 14  1  0
 14 15  1  1
 14 16  1  0
 16 17  1  6
 16 18  1  0
  6 19  1  0
 19 20  2  0
 20 21  1  0
 21 22  2  0
 22 23  1  0
 23 24  2  0
 24 25  1  0
 23 26  1  0
 26 27  2  0
 26 28  1  0
 28 29  2  0
 29 30  1  0
 29 31  1  0
 31 32  2  0
 32 33  1  0
 33 34  2  0
 34 35  1  0
 35 36  2  0
 20 37  1  0
 37 38  1  6
 38 39  2  0
 38 40  1  0
 40 41  1  0
 37  3  1  0
 18  8  1  0
 24 19  1  0
 34 28  1  0
 35 22  1  0
M  CHG  1  11   1
M  END
>  <Compound_ID>  (488) 
C03978069

>  <Active>  (488) 
0

>  <Smiles>  (488) 
CC[C@@]1(O)C[C@@H](O[C@H]2C[C@H]([NH+](C)C)[C@H](O)[C@@H](C)O2)c2c(cc3c(c2O)C(=O)c2c(O)cccc2C3=O)[C@H]1C(=O)OC

>  <canonical_smi>  (488) 
CC[C@@]1(O)C[C@@H](O[C@H]2C[C@H]([NH+](C)C)[C@H](O)[C@@H](C)O2)c2c(cc3c(c2O)C(=O)c2c(O)cccc2C3=O)[C@H]1C(=O)OC

>  <Set>  (488) 
G2 inactive

>  <Set_type>  (488) 
Train

>  <MW>  (488) 
570.62

>  <HBD>  (488) 
5

>  <HBA>  (488) 
10

>  <NRB>  (488) 
5

>  <NR>  (488) 
5

>  <NAR>  (488) 
3

>  <PSA>  (488) 
164.26

>  <Standard Type>  (488) 
nan

>  <Standard Relation>  (488) 
nan

>  <Standard Units>  (488) 
nan

>  <Standard Value>  (488) 
nan

>  <Assay ChEMBL ID>  (488) 
nan

>  <Assay Description>  (488) 
nan

>  <BAO Label>  (488) 
nan

$$$$

     RDKit          2D

 23 24  0  0  0  0  0  0  0  0999 V2000
   -6.1149    1.8303    0.0000 C   0  0  0  0  0  0  0  0  0  0  0  0
   -4.6883    2.2939    0.0000 C   0  0  0  0  0  0  0  0  0  0  0  0
   -3.5736    1.2902    0.0000 N   0  0  0  0  0  4  0  0  0  0  0  0
   -2.1470    1.7537    0.0000 C   0  0  0  0  0  0  0  0  0  0  0  0
   -1.8351    3.2209    0.0000 C   0  0  0  0  0  0  0  0  0  0  0  0
   -0.4086    3.6844    0.0000 N   0  0  0  0  0  0  0  0  0  0  0  0
   -0.0967    5.1517    0.0000 C   0  0  0  0  0  0  0  0  0  0  0  0
    1.3299    5.6152    0.0000 C   0  0  0  0  0  0  0  0  0  0  0  0
    1.6418    7.0824    0.0000 C   0  0  0  0  0  0  0  0  0  0  0  0
    3.0684    7.5459    0.0000 O   0  0  0  0  0  0  0  0  0  0  0  0
    3.3802    9.0132    0.0000 C   0  0  0  0  0  0  0  0  0  0  0  0
    0.7062    2.6807    0.0000 S   0  0  0  0  0  0  0  0  0  0  0  0
    1.5010    3.9528    0.0000 O   0  0  0  0  0  0  0  0  0  0  0  0
    2.0969    2.1188    0.0000 O   0  0  0  0  0  0  0  0  0  0  0  0
    0.3943    1.2135    0.0000 C   0  0  0  0  0  0  0  0  0  0  0  0
    1.2760    0.0000    0.0000 S   0  0  0  0  0  0  0  0  0  0  0  0
    0.3943   -1.2135    0.0000 C   0  0  0  0  0  0  0  0  0  0  0  0
    0.8578   -2.6401    0.0000 S   0  0  0  0  0  0  0  0  0  0  0  0
    1.3213   -4.0667    0.0000 N   0  0  0  0  0  0  0  0  0  0  0  0
   -0.5688   -3.1036    0.0000 O   0  0  0  0  0  0  0  0  0  0  0  0
    2.2844   -2.1766    0.0000 O   0  0  0  0  0  0  0  0  0  0  0  0
   -1.0323   -0.7500    0.0000 C   0  0  0  0  0  0  0  0  0  0  0  0
   -1.0323    0.7500    0.0000 C   0  0  0  0  0  0  0  0  0  0  0  0
  1  2  1  0
  2  3  1  0
  4  3  1  1
  4  5  1  0
  5  6  1  0
  6  7  1  0
  7  8  1  0
  8  9  1  0
  9 10  1  0
 10 11  1  0
  6 12  1  0
 12 13  2  0
 12 14  2  0
 12 15  1  0
 15 16  1  0
 16 17  1  0
 17 18  1  0
 18 19  1  0
 18 20  2  0
 18 21  2  0
 17 22  2  0
 22 23  1  0
 23  4  1  0
 23 15  2  0
M  CHG  1   3   1
M  END
>  <Compound_ID>  (489) 
C03953037

>  <Active>  (489) 
0

>  <Smiles>  (489) 
CC[NH2+][C@H]1CN(CCCOC)S(=O)(=O)c2sc(S(N)(=O)=O)cc21

>  <canonical_smi>  (489) 
CC[NH2+][C@H]1CN(CCCOC)S(=O)(=O)c2sc(S(N)(=O)=O)cc21

>  <Set>  (489) 
G2 inactive

>  <Set_type>  (489) 
Train

>  <MW>  (489) 
384.53

>  <HBD>  (489) 
2

>  <HBA>  (489) 
5

>  <NRB>  (489) 
7

>  <NR>  (489) 
2

>  <NAR>  (489) 
1

>  <PSA>  (489) 
123.38

>  <Standard Type>  (489) 
nan

>  <Standard Relation>  (489) 
nan

>  <Standard Units>  (489) 
nan

>  <Standard Value>  (489) 
nan

>  <Assay ChEMBL ID>  (489) 
nan

>  <Assay Description>  (489) 
nan

>  <BAO Label>  (489) 
nan

$$$$

     RDKit          2D

 25 28  0  0  0  0  0  0  0  0999 V2000
    2.1328    3.1443    0.0000 C   0  0  0  0  0  0  0  0  0  0  0  0
    0.7062    2.6807    0.0000 C   0  0  0  0  0  0  0  0  0  0  0  0
    0.3943    1.2135    0.0000 C   0  0  0  0  0  0  0  0  0  0  0  0
    1.2760    0.0000    0.0000 C   0  0  0  0  0  0  0  0  0  0  0  0
    0.3943   -1.2135    0.0000 C   0  0  0  0  0  0  0  0  0  0  0  0
   -1.0323   -0.7500    0.0000 S   0  0  0  0  0  0  0  0  0  0  0  0
   -1.0323    0.7500    0.0000 C   0  0  0  0  0  0  0  0  0  0  0  0
   -2.1470    1.7537    0.0000 C   0  0  0  0  0  0  0  0  0  0  0  0
   -1.8351    3.2209    0.0000 C   0  0  0  0  0  0  0  0  0  0  0  0
   -0.4086    3.6844    0.0000 N   0  0  0  0  0  0  0  0  0  0  0  0
   -0.0967    5.1517    0.0000 C   0  0  0  0  0  0  0  0  0  0  0  0
   -1.2114    6.1554    0.0000 C   0  0  0  0  0  0  0  0  0  0  0  0
   -2.6380    5.6918    0.0000 O   0  0  0  0  0  0  0  0  0  0  0  0
   -0.8995    7.6226    0.0000 C   0  0  0  0  0  0  0  0  0  0  0  0
    0.5271    8.0861    0.0000 C   0  0  0  0  0  0  0  0  0  0  0  0
    1.6418    7.0824    0.0000 N   0  0  0  0  0  0  0  0  0  0  0  0
    0.8389    9.5533    0.0000 N   0  0  0  0  0  0  0  0  0  0  0  0
    2.2655   10.0169    0.0000 C   0  0  0  0  0  0  0  0  0  0  0  0
    3.2692   11.1316    0.0000 C   0  0  0  0  0  0  0  0  0  0  0  0
    3.7327    9.7050    0.0000 C   0  0  0  0  0  0  0  0  0  0  0  0
   -0.2758   10.5570    0.0000 C   0  0  0  0  0  0  0  0  0  0  0  0
    0.0361   12.0242    0.0000 O   0  0  0  0  0  0  0  0  0  0  0  0
   -1.7024   10.0935    0.0000 N   0  0  0  0  0  0  0  0  0  0  0  0
   -2.0143    8.6263    0.0000 C   0  0  0  0  0  0  0  0  0  0  0  0
   -3.4408    8.1628    0.0000 O   0  0  0  0  0  0  0  0  0  0  0  0
  2  1  1  1
  2  3  1  0
  3  4  1  0
  4  5  2  0
  5  6  1  0
  6  7  1  0
  7  8  1  0
  8  9  1  0
  9 10  1  0
 10 11  1  0
 11 12  1  0
 12 13  2  0
 12 14  1  0
 14 15  2  0
 15 16  1  0
 15 17  1  0
 17 18  1  0
 18 19  1  0
 19 20  1  0
 17 21  1  0
 21 22  2  0
 21 23  1  0
 23 24  1  0
 24 25  2  0
 10  2  1  0
 24 14  1  0
  7  3  2  0
 20 18  1  0
M  END
>  <Compound_ID>  (490) 
C27371807

>  <Active>  (490) 
0

>  <Smiles>  (490) 
C[C@H]1c2ccsc2CCN1CC(=O)c1c(N)n(C2CC2)c(=O)[nH]c1=O

>  <canonical_smi>  (490) 
C[C@H]1c2ccsc2CCN1CC(=O)c1c(N)n(C2CC2)c(=O)[nH]c1=O

>  <Set>  (490) 
G2 inactive

>  <Set_type>  (490) 
Train

>  <MW>  (490) 
360.44

>  <HBD>  (490) 
2

>  <HBA>  (490) 
5

>  <NRB>  (490) 
4

>  <NR>  (490) 
4

>  <NAR>  (490) 
2

>  <PSA>  (490) 
101.19

>  <Standard Type>  (490) 
nan

>  <Standard Relation>  (490) 
nan

>  <Standard Units>  (490) 
nan

>  <Standard Value>  (490) 
nan

>  <Assay ChEMBL ID>  (490) 
nan

>  <Assay Description>  (490) 
nan

>  <BAO Label>  (490) 
nan

$$$$

     RDKit          2D

 24 25  0  0  0  0  0  0  0  0999 V2000
   -0.7500   -3.8971    0.0000 O   0  0  0  0  0  0  0  0  0  0  0  0
    0.7500   -3.8971    0.0000 C   0  0  0  0  0  0  0  0  0  0  0  0
    1.5000   -5.1962    0.0000 N   0  0  0  0  0  0  0  0  0  0  0  0
    0.7500   -6.4952    0.0000 C   0  0  0  0  0  0  0  0  0  0  0  0
    1.5000   -7.7942    0.0000 C   0  0  0  0  0  0  0  0  0  0  0  0
    0.7500   -9.0933    0.0000 C   0  0  0  0  0  0  0  0  0  0  0  0
   -0.7500   -9.0933    0.0000 O   0  0  0  0  0  0  0  0  0  0  0  0
    1.5000  -10.3923    0.0000 N   0  0  0  0  0  0  0  0  0  0  0  0
    2.9918  -10.5491    0.0000 C   0  0  0  0  0  0  0  0  0  0  0  0
    3.3037  -12.0163    0.0000 C   0  0  0  0  0  0  0  0  0  0  0  0
    2.0046  -12.7663    0.0000 C   0  0  0  0  0  0  0  0  0  0  0  0
    0.8899  -11.7626    0.0000 C   0  0  0  0  0  0  0  0  0  0  0  0
    1.5000   -2.5981    0.0000 N   0  0  0  0  0  0  0  0  0  0  0  0
    0.7500   -1.2990    0.0000 C   0  0  0  0  0  0  0  0  0  0  0  0
    1.5000    0.0000    0.0000 C   0  0  0  0  0  0  0  0  0  0  0  0
    0.7500    1.2990    0.0000 C   0  0  0  0  0  0  0  0  0  0  0  0
    1.5000    2.5981    0.0000 C   0  0  0  0  0  0  0  0  0  0  0  0
    2.2500    3.8971    0.0000 F   0  0  0  0  0  0  0  0  0  0  0  0
    2.7990    1.8481    0.0000 F   0  0  0  0  0  0  0  0  0  0  0  0
    0.2010    3.3481    0.0000 F   0  0  0  0  0  0  0  0  0  0  0  0
   -0.7500    1.2990    0.0000 C   0  0  0  0  0  0  0  0  0  0  0  0
   -1.5000    0.0000    0.0000 N   0  0  0  0  0  0  0  0  0  0  0  0
   -0.7500   -1.2990    0.0000 C   0  0  0  0  0  0  0  0  0  0  0  0
   -1.5000   -2.5981    0.0000 O   0  0  0  0  0  0  0  0  0  0  0  0
  1  2  2  0
  2  3  1  0
  3  4  1  0
  4  5  1  0
  5  6  1  0
  6  7  2  0
  6  8  1  0
  8  9  1  0
  9 10  1  0
 10 11  1  0
 11 12  1  0
  2 13  1  0
 13 14  1  0
 14 15  2  0
 15 16  1  0
 16 17  1  0
 17 18  1  0
 17 19  1  0
 17 20  1  0
 16 21  2  0
 21 22  1  0
 22 23  1  0
 23 24  2  0
 12  8  1  0
 23 14  1  0
M  END
>  <Compound_ID>  (491) 
C63161978

>  <Active>  (491) 
0

>  <Smiles>  (491) 
O=C(NCCC(=O)N1CCCC1)Nc1cc(C(F)(F)F)c[nH]c1=O

>  <canonical_smi>  (491) 
O=C(NCCC(=O)N1CCCC1)Nc1cc(C(F)(F)F)c[nH]c1=O

>  <Set>  (491) 
G2 inactive

>  <Set_type>  (491) 
Train

>  <MW>  (491) 
346.31

>  <HBD>  (491) 
3

>  <HBA>  (491) 
3

>  <NRB>  (491) 
4

>  <NR>  (491) 
2

>  <NAR>  (491) 
1

>  <PSA>  (491) 
94.3

>  <Standard Type>  (491) 
nan

>  <Standard Relation>  (491) 
nan

>  <Standard Units>  (491) 
nan

>  <Standard Value>  (491) 
nan

>  <Assay ChEMBL ID>  (491) 
nan

>  <Assay Description>  (491) 
nan

>  <BAO Label>  (491) 
nan

$$$$

     RDKit          2D

 22 24  0  0  0  0  0  0  0  0999 V2000
    2.3886   -2.4414    0.0000 C   0  0  0  0  0  0  0  0  0  0  0  0
    2.6491   -0.9642    0.0000 C   0  0  0  0  0  0  0  0  0  0  0  0
    1.5000    0.0000    0.0000 C   0  0  0  0  0  0  0  0  0  0  0  0
    2.6491    0.9642    0.0000 C   0  0  0  0  0  0  0  0  0  0  0  0
    0.7500   -1.2990    0.0000 C   0  0  0  0  0  0  0  0  0  0  0  0
   -0.7500   -1.2990    0.0000 C   0  0  0  0  0  0  0  0  0  0  0  0
   -1.5000    0.0000    0.0000 C   0  0  0  0  0  0  0  0  0  0  0  0
   -2.9672   -0.3119    0.0000 S   0  0  0  0  0  0  0  0  0  0  0  0
   -3.1240   -1.8037    0.0000 C   0  0  0  0  0  0  0  0  0  0  0  0
   -4.3375   -2.6853    0.0000 N   0  0  0  0  0  0  0  0  0  0  0  0
   -4.1807   -4.1771    0.0000 C   0  0  0  0  0  0  0  0  0  0  0  0
   -5.3943   -5.0588    0.0000 S   0  0  0  0  0  0  0  0  0  0  0  0
   -6.7646   -4.4487    0.0000 C   0  0  0  0  0  0  0  0  0  0  0  0
   -2.8104   -4.7872    0.0000 N   0  0  0  0  0  0  0  0  0  0  0  0
   -1.5969   -3.9055    0.0000 C   0  0  0  0  0  0  0  0  0  0  0  0
   -0.2266   -4.5156    0.0000 N   0  0  0  0  0  0  0  0  0  0  0  0
   -0.0698   -6.0074    0.0000 C   0  0  0  0  0  0  0  0  0  0  0  0
    1.3005   -6.6175    0.0000 C   0  0  0  0  0  0  0  0  0  0  0  0
   -1.2833   -6.8891    0.0000 C   0  0  0  0  0  0  0  0  0  0  0  0
   -1.7537   -2.4138    0.0000 C   0  0  0  0  0  0  0  0  0  0  0  0
   -0.7500    1.2990    0.0000 C   0  0  0  0  0  0  0  0  0  0  0  0
    0.7500    1.2990    0.0000 O   0  0  0  0  0  0  0  0  0  0  0  0
  1  2  1  0
  2  3  1  0
  3  4  1  6
  3  5  1  0
  5  6  1  0
  6  7  2  0
  7  8  1  0
  8  9  1  0
  9 10  2  0
 10 11  1  0
 11 12  1  0
 12 13  1  0
 11 14  2  0
 14 15  1  0
 15 16  1  0
 16 17  1  0
 17 18  1  0
 17 19  1  0
 15 20  2  0
  7 21  1  0
 21 22  1  0
 22  3  1  0
 20  6  1  0
 20  9  1  0
M  END
>  <Compound_ID>  (492) 
C16844983

>  <Active>  (492) 
0

>  <Smiles>  (492) 
CC[C@@]1(C)Cc2c(sc3nc(SC)nc(NC(C)C)c23)CO1

>  <canonical_smi>  (492) 
CC[C@@]1(C)Cc2c(sc3nc(SC)nc(NC(C)C)c23)CO1

>  <Set>  (492) 
G2 inactive

>  <Set_type>  (492) 
Train

>  <MW>  (492) 
337.51

>  <HBD>  (492) 
1

>  <HBA>  (492) 
5

>  <NRB>  (492) 
4

>  <NR>  (492) 
3

>  <NAR>  (492) 
2

>  <PSA>  (492) 
47.04

>  <Standard Type>  (492) 
nan

>  <Standard Relation>  (492) 
nan

>  <Standard Units>  (492) 
nan

>  <Standard Value>  (492) 
nan

>  <Assay ChEMBL ID>  (492) 
nan

>  <Assay Description>  (492) 
nan

>  <BAO Label>  (492) 
nan

$$$$

     RDKit          2D

 24 27  0  0  0  0  0  0  0  0999 V2000
   -6.9199   -4.5797    0.0000 C   0  0  0  0  0  0  0  0  0  0  0  0
   -5.4933   -4.1162    0.0000 C   0  0  0  0  0  0  0  0  0  0  0  0
   -5.1814   -2.6490    0.0000 C   0  0  0  0  0  0  0  0  0  0  0  0
   -6.2961   -1.6453    0.0000 C   0  0  0  0  0  0  0  0  0  0  0  0
   -5.9843   -0.1781    0.0000 C   0  0  0  0  0  0  0  0  0  0  0  0
   -4.5577    0.2855    0.0000 C   0  0  0  0  0  0  0  0  0  0  0  0
   -3.4430   -0.7182    0.0000 C   0  0  0  0  0  0  0  0  0  0  0  0
   -2.2981   -0.0028    0.0000 C   0  0  0  0  0  0  0  0  0  0  0  0
   -3.7548   -2.1855    0.0000 C   0  0  0  0  0  0  0  0  0  0  0  0
   -2.6401   -3.1891    0.0000 N   0  0  0  0  0  0  0  0  0  0  0  0
   -1.2135   -2.7256    0.0000 C   0  0  0  0  0  0  0  0  0  0  0  0
   -0.0000   -3.6073    0.0000 C   0  0  0  0  0  0  0  0  0  0  0  0
   -0.0000   -5.1073    0.0000 C   0  0  0  0  0  0  0  0  0  0  0  0
    1.2135   -5.9890    0.0000 C   0  0  0  0  0  0  0  0  0  0  0  0
    0.7500   -7.4156    0.0000 C   0  0  0  0  0  0  0  0  0  0  0  0
   -0.7500   -7.4156    0.0000 C   0  0  0  0  0  0  0  0  0  0  0  0
   -1.2135   -5.9890    0.0000 S   0  0  0  0  0  0  0  0  0  0  0  0
    1.2135   -2.7256    0.0000 N   0  0  0  0  0  0  0  0  0  0  0  0
    0.7500   -1.2990    0.0000 C   0  0  0  0  0  0  0  0  0  0  0  0
    1.5000    0.0000    0.0000 N   0  0  0  0  0  0  0  0  0  0  0  0
    0.7500    1.2990    0.0000 C   0  0  0  0  0  0  0  0  0  0  0  0
   -0.7500    1.2990    0.0000 C   0  0  0  0  0  0  0  0  0  0  0  0
   -1.5000    0.0000    0.0000 C   0  0  0  0  0  0  0  0  0  0  0  0
   -0.7500   -1.2990    0.0000 N   0  0  0  0  0  0  0  0  0  0  0  0
  1  2  1  0
  2  3  1  0
  3  4  2  0
  4  5  1  0
  5  6  2  0
  6  7  1  0
  7  8  1  0
  7  9  2  0
  9 10  1  0
 10 11  1  0
 11 12  2  0
 12 13  1  0
 13 14  2  0
 14 15  1  0
 15 16  2  0
 16 17  1  0
 12 18  1  0
 18 19  2  0
 19 20  1  0
 20 21  2  0
 21 22  1  0
 22 23  2  0
 23 24  1  0
  9  3  1  0
 24 11  1  0
 17 13  1  0
 24 19  1  0
M  END
>  <Compound_ID>  (493) 
C04734142

>  <Active>  (493) 
0

>  <Smiles>  (493) 
CCc1cccc(C)c1Nc1c(-c2cccs2)nc2ncccn12

>  <canonical_smi>  (493) 
CCc1cccc(C)c1Nc1c(-c2cccs2)nc2ncccn12

>  <Set>  (493) 
G2 inactive

>  <Set_type>  (493) 
Train

>  <MW>  (493) 
334.45

>  <HBD>  (493) 
1

>  <HBA>  (493) 
3

>  <NRB>  (493) 
4

>  <NR>  (493) 
4

>  <NAR>  (493) 
4

>  <PSA>  (493) 
42.22

>  <Standard Type>  (493) 
nan

>  <Standard Relation>  (493) 
nan

>  <Standard Units>  (493) 
nan

>  <Standard Value>  (493) 
nan

>  <Assay ChEMBL ID>  (493) 
nan

>  <Assay Description>  (493) 
nan

>  <BAO Label>  (493) 
nan

$$$$

     RDKit          2D

 25 27  0  0  0  0  0  0  0  0999 V2000
    3.0000   -0.0000    0.0000 C   0  0  0  0  0  0  0  0  0  0  0  0
    3.7500   -1.2990    0.0000 C   0  0  0  0  0  0  0  0  0  0  0  0
    5.2500   -1.2990    0.0000 C   0  0  0  0  0  0  0  0  0  0  0  0
    6.0000   -2.5981    0.0000 C   0  0  0  0  0  0  0  0  0  0  0  0
    5.2500   -3.8971    0.0000 C   0  0  0  0  0  0  0  0  0  0  0  0
    6.0000   -5.1962    0.0000 Cl  0  0  0  0  0  0  0  0  0  0  0  0
    3.7500   -3.8971    0.0000 C   0  0  0  0  0  0  0  0  0  0  0  0
    3.0000   -2.5981    0.0000 C   0  0  0  0  0  0  0  0  0  0  0  0
    1.5000   -2.5981    0.0000 N   0  0  0  0  0  4  0  0  0  0  0  0
    0.7500   -1.2990    0.0000 C   0  0  0  0  0  0  0  0  0  0  0  0
    1.5000    0.0000    0.0000 O   0  0  0  0  0  0  0  0  0  0  0  0
    0.7500    1.2990    0.0000 C   0  0  0  0  0  0  0  0  0  0  0  0
    1.5000    2.5981    0.0000 C   0  0  0  0  0  0  0  0  0  0  0  0
    3.0000    2.5981    0.0000 C   0  0  0  0  0  0  0  0  0  0  0  0
    0.7500    3.8971    0.0000 N   0  0  0  0  0  0  0  0  0  0  0  0
   -0.7500    3.8971    0.0000 C   0  0  0  0  0  0  0  0  0  0  0  0
   -1.5000    2.5981    0.0000 C   0  0  0  0  0  0  0  0  0  0  0  0
   -3.0000    2.5981    0.0000 C   0  0  0  0  0  0  0  0  0  0  0  0
   -3.7500    3.8971    0.0000 O   0  0  0  0  0  0  0  0  0  0  0  0
   -0.7500    1.2990    0.0000 C   0  0  0  0  0  0  0  0  0  0  0  0
   -1.5000    0.0000    0.0000 C   0  0  0  0  0  0  0  0  0  0  0  0
   -0.7500   -1.2990    0.0000 C   0  0  0  0  0  0  0  0  0  0  0  0
   -1.5000   -2.5981    0.0000 C   0  0  0  0  0  0  0  0  0  0  0  0
   -3.0000   -2.5981    0.0000 N   0  0  0  0  0  0  0  0  0  0  0  0
   -0.7500   -3.8971    0.0000 S   0  0  0  0  0  0  0  0  0  0  0  0
  1  2  1  0
  2  3  2  0
  3  4  1  0
  4  5  2  0
  5  6  1  0
  5  7  1  0
  7  8  2  0
  8  9  1  0
  9 10  2  0
 10 11  1  0
 11 12  1  0
 12 13  2  0
 13 14  1  0
 13 15  1  0
 15 16  2  0
 16 17  1  0
 17 18  1  0
 18 19  1  0
 17 20  2  0
 20 21  1  0
 21 22  2  0
 22 23  1  0
 23 24  1  0
 23 25  2  0
  8  2  1  0
 22 10  1  0
 20 12  1  0
M  CHG  1   9   1
M  END
>  <Compound_ID>  (494) 
C20132021

>  <Active>  (494) 
0

>  <Smiles>  (494) 
Cc1ccc(Cl)cc1/[NH+]=c1\oc2c(C)ncc(CO)c2cc1C(N)=S

>  <canonical_smi>  (494) 
Cc1ccc(Cl)cc1/[NH+]=c1\oc2c(C)ncc(CO)c2cc1C(N)=S

>  <Set>  (494) 
G2 inactive

>  <Set_type>  (494) 
Train

>  <MW>  (494) 
374.87

>  <HBD>  (494) 
3

>  <HBA>  (494) 
5

>  <NRB>  (494) 
3

>  <NR>  (494) 
3

>  <NAR>  (494) 
3

>  <PSA>  (494) 
86.25

>  <Standard Type>  (494) 
nan

>  <Standard Relation>  (494) 
nan

>  <Standard Units>  (494) 
nan

>  <Standard Value>  (494) 
nan

>  <Assay ChEMBL ID>  (494) 
nan

>  <Assay Description>  (494) 
nan

>  <BAO Label>  (494) 
nan

$$$$

     RDKit          2D

 27 31  0  0  0  0  0  0  0  0999 V2000
   -1.4115    6.5715    0.0000 S   0  0  0  0  0  0  0  0  0  0  0  0
   -0.2294    5.6480    0.0000 P   0  0  0  0  0  5  0  0  0  0  0  0
    0.4748    6.9724    0.0000 N   0  0  0  0  0  0  0  0  0  0  0  0
   -0.3201    8.2445    0.0000 C   0  0  0  0  0  0  0  0  0  0  0  0
    0.3841    9.5689    0.0000 C   0  0  0  0  0  0  0  0  0  0  0  0
   -0.4108   10.8410    0.0000 C   0  0  0  0  0  0  0  0  0  0  0  0
   -1.9099   10.7886    0.0000 C   0  0  0  0  0  0  0  0  0  0  0  0
   -2.6141    9.4642    0.0000 C   0  0  0  0  0  0  0  0  0  0  0  0
   -1.8192    8.1921    0.0000 C   0  0  0  0  0  0  0  0  0  0  0  0
    1.1971    5.1844    0.0000 N   0  0  0  0  0  0  0  0  0  0  0  0
    1.5090    3.7172    0.0000 C   0  0  0  0  0  0  0  0  0  0  0  0
    2.9356    3.2537    0.0000 N   0  0  0  0  0  0  0  0  0  0  0  0
    4.0503    4.2574    0.0000 C   0  0  0  0  0  0  0  0  0  0  0  0
    5.4769    3.7939    0.0000 C   0  0  0  0  0  0  0  0  0  0  0  0
    6.5916    4.7976    0.0000 C   0  0  0  0  0  0  0  0  0  0  0  0
    6.2798    6.2648    0.0000 C   0  0  0  0  0  0  0  0  0  0  0  0
    4.8532    6.7283    0.0000 C   0  0  0  0  0  0  0  0  0  0  0  0
    3.7385    5.7246    0.0000 C   0  0  0  0  0  0  0  0  0  0  0  0
    0.3943    2.7135    0.0000 C   0  0  0  0  0  0  0  0  0  0  0  0
   -1.0323    3.1771    0.0000 C   0  0  0  0  0  0  0  0  0  0  0  0
   -1.9140    1.9635    0.0000 N   0  0  0  0  0  4  0  0  0  0  0  0
   -1.0323    0.7500    0.0000 C   0  0  0  0  0  0  0  0  0  0  0  0
    0.3943    1.2135    0.0000 N   0  0  0  0  0  0  0  0  0  0  0  0
    1.2760    0.0000    0.0000 C   0  0  0  0  0  0  0  0  0  0  0  0
    0.3943   -1.2135    0.0000 C   0  0  0  0  0  0  0  0  0  0  0  0
   -1.0323   -0.7500    0.0000 C   0  0  0  0  0  0  0  0  0  0  0  0
   -1.3442    4.6443    0.0000 N   0  0  0  0  0  0  0  0  0  0  0  0
  1  2  2  0
  2  3  1  1
  3  4  1  0
  4  5  2  0
  5  6  1  0
  6  7  2  0
  7  8  1  0
  8  9  2  0
  2 10  1  0
 10 11  1  0
 11 12  2  0
 12 13  1  0
 13 14  2  0
 14 15  1  0
 15 16  2  0
 16 17  1  0
 17 18  2  0
 11 19  1  0
 19 20  2  0
 20 21  1  0
 21 22  2  0
 22 23  1  0
 23 24  1  0
 24 25  1  0
 25 26  1  0
 20 27  1  0
 27  2  1  0
  9  4  1  0
 18 13  1  0
 23 19  1  0
 26 22  1  0
M  CHG  1  21   1
M  END
>  <Compound_ID>  (495) 
C04705423

>  <Active>  (495) 
0

>  <Smiles>  (495) 
S=[P@]1(Nc2ccccc2)N/C(=N\c2ccccc2)c2c([nH+]c3n2CCC3)N1

>  <canonical_smi>  (495) 
S=[P@]1(Nc2ccccc2)N/C(=N\c2ccccc2)c2c([nH+]c3n2CCC3)N1

>  <Set>  (495) 
G2 inactive

>  <Set_type>  (495) 
Train

>  <MW>  (495) 
395.45

>  <HBD>  (495) 
3

>  <HBA>  (495) 
4

>  <NRB>  (495) 
3

>  <NR>  (495) 
5

>  <NAR>  (495) 
3

>  <PSA>  (495) 
67.52

>  <Standard Type>  (495) 
nan

>  <Standard Relation>  (495) 
nan

>  <Standard Units>  (495) 
nan

>  <Standard Value>  (495) 
nan

>  <Assay ChEMBL ID>  (495) 
nan

>  <Assay Description>  (495) 
nan

>  <BAO Label>  (495) 
nan

$$$$

     RDKit          2D

 26 29  0  0  0  0  0  0  0  0999 V2000
    3.7500   -1.2990    0.0000 C   0  0  0  0  0  0  0  0  0  0  0  0
    3.0000    0.0000    0.0000 C   0  0  0  0  0  0  0  0  0  0  0  0
    1.5000    0.0000    0.0000 C   0  0  0  0  0  0  0  0  0  0  0  0
    0.7500   -1.2990    0.0000 C   0  0  0  0  0  0  0  0  0  0  0  0
   -0.7500   -1.2990    0.0000 C   0  0  0  0  0  0  0  0  0  0  0  0
   -1.5000    0.0000    0.0000 C   0  0  0  0  0  0  0  0  0  0  0  0
   -3.0000    0.0000    0.0000 N   0  0  0  0  0  4  0  0  0  0  0  0
   -3.7500    1.2990    0.0000 C   0  0  0  0  0  0  0  0  0  0  0  0
   -5.2172    1.6109    0.0000 S   0  0  0  0  0  0  0  0  0  0  0  0
   -5.3740    3.1027    0.0000 C   0  0  0  0  0  0  0  0  0  0  0  0
   -6.6731    3.8527    0.0000 C   0  0  0  0  0  0  0  0  0  0  0  0
   -6.6731    5.3527    0.0000 O   0  0  0  0  0  0  0  0  0  0  0  0
   -7.9721    3.1027    0.0000 N   0  0  0  0  0  0  0  0  0  0  0  0
   -9.2711    3.8527    0.0000 C   0  0  0  0  0  0  0  0  0  0  0  0
  -10.6414    3.2426    0.0000 N   0  0  0  0  0  0  0  0  0  0  0  0
  -11.6451    4.3573    0.0000 N   0  0  0  0  0  0  0  0  0  0  0  0
  -10.8951    5.6563    0.0000 C   0  0  0  0  0  0  0  0  0  0  0  0
  -11.5052    7.0267    0.0000 C   0  0  0  0  0  0  0  0  0  0  0  0
  -10.6236    8.2402    0.0000 C   0  0  0  0  0  0  0  0  0  0  0  0
   -9.4279    5.3445    0.0000 S   0  0  0  0  0  0  0  0  0  0  0  0
   -4.0037    3.7128    0.0000 C   0  0  0  0  0  0  0  0  0  0  0  0
   -3.6918    5.1800    0.0000 N   0  0  0  0  0  0  0  0  0  0  0  0
   -3.0000    2.5981    0.0000 C   0  0  0  0  0  0  0  0  0  0  0  0
   -1.5000    2.5981    0.0000 C   0  0  0  0  0  0  0  0  0  0  0  0
   -0.7500    1.2990    0.0000 C   0  0  0  0  0  0  0  0  0  0  0  0
    0.7500    1.2990    0.0000 C   0  0  0  0  0  0  0  0  0  0  0  0
  1  2  1  0
  2  3  1  0
  3  4  2  0
  4  5  1  0
  5  6  2  0
  6  7  1  0
  7  8  2  0
  8  9  1  0
  9 10  1  0
 10 11  1  0
 11 12  2  0
 11 13  1  0
 13 14  1  0
 14 15  2  0
 15 16  1  0
 16 17  2  0
 17 18  1  0
 18 19  1  0
 17 20  1  0
 10 21  2  0
 21 22  1  0
 21 23  1  0
 23 24  2  0
 24 25  1  0
 25 26  2  0
 26  3  1  0
 25  6  1  0
 23  8  1  0
 20 14  1  0
M  CHG  1   7   1
M  END
>  <Compound_ID>  (496) 
C04848755

>  <Active>  (496) 
0

>  <Smiles>  (496) 
CCc1ccc2[nH+]c3sc(C(=O)Nc4nnc(CC)s4)c(N)c3cc2c1

>  <canonical_smi>  (496) 
CCc1ccc2[nH+]c3sc(C(=O)Nc4nnc(CC)s4)c(N)c3cc2c1

>  <Set>  (496) 
G2 inactive

>  <Set_type>  (496) 
Train

>  <MW>  (496) 
384.51

>  <HBD>  (496) 
2

>  <HBA>  (496) 
4

>  <NRB>  (496) 
4

>  <NR>  (496) 
4

>  <NAR>  (496) 
4

>  <PSA>  (496) 
95.04

>  <Standard Type>  (496) 
nan

>  <Standard Relation>  (496) 
nan

>  <Standard Units>  (496) 
nan

>  <Standard Value>  (496) 
nan

>  <Assay ChEMBL ID>  (496) 
nan

>  <Assay Description>  (496) 
nan

>  <BAO Label>  (496) 
nan

$$$$

     RDKit          2D

 27 29  0  0  0  0  0  0  0  0999 V2000
    2.0490   -4.6471    0.0000 C   0  0  0  0  0  0  0  0  0  0  0  0
    0.7500   -3.8971    0.0000 C   0  0  0  0  0  0  0  0  0  0  0  0
   -0.5490   -3.1471    0.0000 C   0  0  0  0  0  0  0  0  0  0  0  0
   -0.0000   -5.1962    0.0000 C   0  0  0  0  0  0  0  0  0  0  0  0
    1.5000   -2.5981    0.0000 C   0  0  0  0  0  0  0  0  0  0  0  0
    3.0000   -2.5981    0.0000 N   0  0  0  0  0  0  0  0  0  0  0  0
    3.7500   -3.8971    0.0000 C   0  0  0  0  0  0  0  0  0  0  0  0
    3.0000   -5.1962    0.0000 O   0  0  0  0  0  0  0  0  0  0  0  0
    5.2500   -3.8971    0.0000 N   0  0  0  0  0  0  0  0  0  0  0  0
    6.0000   -5.1962    0.0000 C   0  0  0  0  0  0  0  0  0  0  0  0
    7.5000   -5.1962    0.0000 C   0  0  0  0  0  0  0  0  0  0  0  0
    8.2500   -6.4952    0.0000 C   0  0  0  0  0  0  0  0  0  0  0  0
    9.7418   -6.6520    0.0000 C   0  0  0  0  0  0  0  0  0  0  0  0
   10.0537   -8.1192    0.0000 C   0  0  0  0  0  0  0  0  0  0  0  0
    8.7546   -8.8692    0.0000 C   0  0  0  0  0  0  0  0  0  0  0  0
    7.6399   -7.8655    0.0000 O   0  0  0  0  0  0  0  0  0  0  0  0
    8.2500   -3.8971    0.0000 N   0  0  0  0  0  4  0  0  0  0  0  0
    7.6399   -2.5268    0.0000 C   0  0  0  0  0  0  0  0  0  0  0  0
    8.7546   -1.5231    0.0000 C   0  0  0  0  0  0  0  0  0  0  0  0
   10.0537   -2.2731    0.0000 C   0  0  0  0  0  0  0  0  0  0  0  0
    9.7418   -3.7403    0.0000 C   0  0  0  0  0  0  0  0  0  0  0  0
    0.7500   -1.2990    0.0000 C   0  0  0  0  0  0  0  0  0  0  0  0
    1.5000    0.0000    0.0000 C   0  0  0  0  0  0  0  0  0  0  0  0
    0.7500    1.2990    0.0000 C   0  0  0  0  0  0  0  0  0  0  0  0
   -0.7500    1.2990    0.0000 C   0  0  0  0  0  0  0  0  0  0  0  0
   -1.5000    0.0000    0.0000 C   0  0  0  0  0  0  0  0  0  0  0  0
   -0.7500   -1.2990    0.0000 C   0  0  0  0  0  0  0  0  0  0  0  0
  1  2  1  0
  2  3  1  0
  2  4  1  0
  2  5  1  0
  5  6  1  1
  6  7  1  0
  7  8  2  0
  7  9  1  0
  9 10  1  0
 11 10  1  1
 11 12  1  0
 12 13  2  0
 13 14  1  0
 14 15  2  0
 15 16  1  0
 11 17  1  0
 17 18  1  0
 18 19  1  0
 19 20  1  0
 20 21  1  0
  5 22  1  0
 22 23  2  0
 23 24  1  0
 24 25  2  0
 25 26  1  0
 26 27  2  0
 16 12  1  0
 21 17  1  0
 27 22  1  0
M  CHG  1  17   1
M  END
>  <Compound_ID>  (497) 
C59263924

>  <Active>  (497) 
0

>  <Smiles>  (497) 
CC(C)(C)[C@H](NC(=O)NC[C@H](c1ccco1)[NH+]1CCCC1)c1ccccc1

>  <canonical_smi>  (497) 
CC(C)(C)[C@H](NC(=O)NC[C@H](c1ccco1)[NH+]1CCCC1)c1ccccc1

>  <Set>  (497) 
G2 inactive

>  <Set_type>  (497) 
Train

>  <MW>  (497) 
370.52

>  <HBD>  (497) 
3

>  <HBA>  (497) 
2

>  <NRB>  (497) 
6

>  <NR>  (497) 
3

>  <NAR>  (497) 
2

>  <PSA>  (497) 
58.71

>  <Standard Type>  (497) 
nan

>  <Standard Relation>  (497) 
nan

>  <Standard Units>  (497) 
nan

>  <Standard Value>  (497) 
nan

>  <Assay ChEMBL ID>  (497) 
nan

>  <Assay Description>  (497) 
nan

>  <BAO Label>  (497) 
nan

$$$$

     RDKit          2D

 30 33  0  0  0  0  0  0  0  0999 V2000
    7.9336   -1.1492    0.0000 C   0  0  0  0  0  0  0  0  0  0  0  0
    6.4664   -0.8373    0.0000 C   0  0  0  0  0  0  0  0  0  0  0  0
    5.4627   -1.9520    0.0000 N   0  0  0  0  0  4  0  0  0  0  0  0
    3.9955   -1.6402    0.0000 C   0  0  0  0  0  0  0  0  0  0  0  0
    2.9918   -2.7549    0.0000 C   0  0  0  0  0  0  0  0  0  0  0  0
    3.3037   -4.2221    0.0000 C   0  0  0  0  0  0  0  0  0  0  0  0
    2.0046   -4.9721    0.0000 N   0  0  0  0  0  0  0  0  0  0  0  0
    0.8899   -3.9684    0.0000 N   0  0  0  0  0  0  0  0  0  0  0  0
    1.5000   -2.5981    0.0000 C   0  0  0  0  0  0  0  0  0  0  0  0
    0.7500   -1.2990    0.0000 C   0  0  0  0  0  0  0  0  0  0  0  0
    1.5000    0.0000    0.0000 C   0  0  0  0  0  0  0  0  0  0  0  0
    0.7500    1.2990    0.0000 C   0  0  0  0  0  0  0  0  0  0  0  0
   -0.7500    1.2990    0.0000 C   0  0  0  0  0  0  0  0  0  0  0  0
   -1.5000    0.0000    0.0000 C   0  0  0  0  0  0  0  0  0  0  0  0
   -3.0000    0.0000    0.0000 F   0  0  0  0  0  0  0  0  0  0  0  0
   -0.7500   -1.2990    0.0000 C   0  0  0  0  0  0  0  0  0  0  0  0
    6.0029    0.5893    0.0000 C   0  0  0  0  0  0  0  0  0  0  0  0
    4.5763    1.0528    0.0000 C   0  0  0  0  0  0  0  0  0  0  0  0
    4.5763    2.5528    0.0000 N   0  0  0  0  0  0  0  0  0  0  0  0
    6.0029    3.0163    0.0000 N   0  0  0  0  0  0  0  0  0  0  0  0
    6.4664    4.4429    0.0000 C   0  0  0  0  0  0  0  0  0  0  0  0
    7.9336    4.7548    0.0000 C   0  0  0  0  0  0  0  0  0  0  0  0
    8.3971    6.1814    0.0000 C   0  0  0  0  0  0  0  0  0  0  0  0
    7.3934    7.2961    0.0000 C   0  0  0  0  0  0  0  0  0  0  0  0
    7.8570    8.7227    0.0000 F   0  0  0  0  0  0  0  0  0  0  0  0
    5.9262    6.9842    0.0000 C   0  0  0  0  0  0  0  0  0  0  0  0
    5.4627    5.5576    0.0000 C   0  0  0  0  0  0  0  0  0  0  0  0
    3.9955    5.2458    0.0000 F   0  0  0  0  0  0  0  0  0  0  0  0
    6.8845    1.8028    0.0000 C   0  0  0  0  0  0  0  0  0  0  0  0
    8.3845    1.8028    0.0000 C   0  0  0  0  0  0  0  0  0  0  0  0
  2  1  1  1
  2  3  1  0
  3  4  1  0
  5  4  1  6
  5  6  1  0
  6  7  2  0
  7  8  1  0
  8  9  2  0
  9 10  1  0
 10 11  2  0
 11 12  1  0
 12 13  2  0
 13 14  1  0
 14 15  1  0
 14 16  2  0
  2 17  1  0
 17 18  1  6
 18 19  1  0
 19 20  1  0
 20 21  1  0
 21 22  2  0
 22 23  1  0
 23 24  2  0
 24 25  1  0
 24 26  1  0
 26 27  2  0
 27 28  1  0
 20 29  1  0
 29 30  1  1
  9  5  1  0
 16 10  1  0
 29 17  1  0
 27 21  1  0
M  CHG  1   3   1
M  END
>  <Compound_ID>  (498) 
C63883815

>  <Active>  (498) 
0

>  <Smiles>  (498) 
C[C@@H]([NH2+]C[C@@H]1C=NN=C1c1cccc(F)c1)[C@@H]1CNN(c2ccc(F)cc2F)[C@H]1C

>  <canonical_smi>  (498) 
C[C@H]1[C@H]([C@@H](C)[NH2+]C[C@@H]2C=NN=C2c2cccc(F)c2)CNN1c1ccc(F)cc1F

>  <Set>  (498) 
G2 inactive

>  <Set_type>  (498) 
Train

>  <MW>  (498) 
416.47

>  <HBD>  (498) 
2

>  <HBA>  (498) 
2

>  <NRB>  (498) 
6

>  <NR>  (498) 
4

>  <NAR>  (498) 
2

>  <PSA>  (498) 
56.6

>  <Standard Type>  (498) 
nan

>  <Standard Relation>  (498) 
nan

>  <Standard Units>  (498) 
nan

>  <Standard Value>  (498) 
nan

>  <Assay ChEMBL ID>  (498) 
nan

>  <Assay Description>  (498) 
nan

>  <BAO Label>  (498) 
nan

$$$$

     RDKit          2D

 21 22  0  0  0  0  0  0  0  0999 V2000
    8.2500   -3.8971    0.0000 C   0  0  0  0  0  0  0  0  0  0  0  0
    7.5000   -2.5981    0.0000 C   0  0  0  0  0  0  0  0  0  0  0  0
    8.2500   -1.2990    0.0000 C   0  0  0  0  0  0  0  0  0  0  0  0
    6.0000   -2.5981    0.0000 N   0  0  0  0  0  0  0  0  0  0  0  0
    5.2500   -1.2990    0.0000 C   0  0  0  0  0  0  0  0  0  0  0  0
    6.0000    0.0000    0.0000 O   0  0  0  0  0  0  0  0  0  0  0  0
    3.7500   -1.2990    0.0000 C   0  0  0  0  0  0  0  0  0  0  0  0
    3.0000    0.0000    0.0000 N   0  0  0  0  0  0  0  0  0  0  0  0
    1.5000    0.0000    0.0000 C   0  0  0  0  0  0  0  0  0  0  0  0
    0.7500   -1.2990    0.0000 C   0  0  0  0  0  0  0  0  0  0  0  0
   -0.7500   -1.2990    0.0000 C   0  0  0  0  0  0  0  0  0  0  0  0
   -1.5000    0.0000    0.0000 C   0  0  0  0  0  0  0  0  0  0  0  0
   -2.9672    0.3119    0.0000 N   0  0  0  0  0  0  0  0  0  0  0  0
   -3.1240    1.8037    0.0000 N   0  0  0  0  0  0  0  0  0  0  0  0
   -1.7537    2.4138    0.0000 C   0  0  0  0  0  0  0  0  0  0  0  0
   -1.4418    3.8810    0.0000 C   0  0  0  0  0  0  0  0  0  0  0  0
   -1.1300    5.3482    0.0000 F   0  0  0  0  0  0  0  0  0  0  0  0
   -2.9090    4.1928    0.0000 F   0  0  0  0  0  0  0  0  0  0  0  0
    0.0254    3.5691    0.0000 F   0  0  0  0  0  0  0  0  0  0  0  0
   -0.7500    1.2990    0.0000 N   0  0  0  0  0  0  0  0  0  0  0  0
    0.7500    1.2990    0.0000 N   0  0  0  0  0  0  0  0  0  0  0  0
  1  2  1  0
  2  3  1  0
  2  4  1  0
  4  5  1  0
  5  6  2  0
  5  7  1  0
  7  8  1  0
  8  9  1  0
  9 10  1  0
 10 11  2  0
 11 12  1  0
 12 13  2  0
 13 14  1  0
 14 15  2  0
 15 16  1  0
 16 17  1  0
 16 18  1  0
 16 19  1  0
 15 20  1  0
 20 21  1  0
 21  9  2  0
 20 12  1  0
M  END
>  <Compound_ID>  (499) 
C09953915

>  <Active>  (499) 
0

>  <Smiles>  (499) 
CC(C)NC(=O)CNc1ccc2nnc(C(F)(F)F)n2n1

>  <canonical_smi>  (499) 
CC(C)NC(=O)CNc1ccc2nnc(C(F)(F)F)n2n1

>  <Set>  (499) 
G2 inactive

>  <Set_type>  (499) 
Train

>  <MW>  (499) 
302.26

>  <HBD>  (499) 
2

>  <HBA>  (499) 
5

>  <NRB>  (499) 
4

>  <NR>  (499) 
2

>  <NAR>  (499) 
2

>  <PSA>  (499) 
84.21

>  <Standard Type>  (499) 
nan

>  <Standard Relation>  (499) 
nan

>  <Standard Units>  (499) 
nan

>  <Standard Value>  (499) 
nan

>  <Assay ChEMBL ID>  (499) 
nan

>  <Assay Description>  (499) 
nan

>  <BAO Label>  (499) 
nan

$$$$

     RDKit          2D

 19 20  0  0  0  0  0  0  0  0999 V2000
    5.2500   -1.2990    0.0000 C   0  0  0  0  0  0  0  0  0  0  0  0
    3.7500   -1.2990    0.0000 C   0  0  0  0  0  0  0  0  0  0  0  0
    3.0000   -2.5981    0.0000 C   0  0  0  0  0  0  0  0  0  0  0  0
    3.0000    0.0000    0.0000 O   0  0  0  0  0  0  0  0  0  0  0  0
    1.5000    0.0000    0.0000 C   0  0  0  0  0  0  0  0  0  0  0  0
    0.7500   -1.2990    0.0000 N   0  0  0  0  0  0  0  0  0  0  0  0
   -0.7500   -1.2990    0.0000 C   0  0  0  0  0  0  0  0  0  0  0  0
   -1.5000   -2.5981    0.0000 Cl  0  0  0  0  0  0  0  0  0  0  0  0
   -1.5000    0.0000    0.0000 N   0  0  0  0  0  0  0  0  0  0  0  0
   -0.7500    1.2990    0.0000 C   0  0  0  0  0  0  0  0  0  0  0  0
   -1.5000    2.5981    0.0000 N   0  0  0  0  0  0  0  0  0  0  0  0
   -0.7500    3.8971    0.0000 C   0  0  0  0  0  0  0  0  0  0  0  0
    0.7500    3.8971    0.0000 C   0  0  0  0  0  0  0  0  0  0  0  0
    1.5000    5.1962    0.0000 C   0  0  0  0  0  0  0  0  0  0  0  0
    0.7500    6.4952    0.0000 C   0  0  0  0  0  0  0  0  0  0  0  0
   -0.7500    6.4952    0.0000 N   0  0  0  0  0  0  0  0  0  0  0  0
   -1.5000    5.1962    0.0000 C   0  0  0  0  0  0  0  0  0  0  0  0
   -3.0000    5.1962    0.0000 O   0  0  0  0  0  0  0  0  0  0  0  0
    0.7500    1.2990    0.0000 N   0  0  0  0  0  0  0  0  0  0  0  0
  1  2  1  0
  2  3  1  0
  2  4  1  0
  4  5  1  0
  5  6  2  0
  6  7  1  0
  7  8  1  0
  7  9  2  0
  9 10  1  0
 10 11  1  0
 12 11  1  6
 12 13  1  0
 13 14  1  0
 14 15  1  0
 15 16  1  0
 16 17  1  0
 17 18  2  0
 10 19  2  0
 19  5  1  0
 17 12  1  0
M  END
>  <Compound_ID>  (500) 
C61541843

>  <Active>  (500) 
0

>  <Smiles>  (500) 
CC(C)Oc1nc(Cl)nc(N[C@H]2CCCNC2=O)n1

>  <canonical_smi>  (500) 
CC(C)Oc1nc(Cl)nc(N[C@H]2CCCNC2=O)n1

>  <Set>  (500) 
G2 inactive

>  <Set_type>  (500) 
Train

>  <MW>  (500) 
285.74

>  <HBD>  (500) 
2

>  <HBA>  (500) 
6

>  <NRB>  (500) 
4

>  <NR>  (500) 
2

>  <NAR>  (500) 
1

>  <PSA>  (500) 
89.03

>  <Standard Type>  (500) 
nan

>  <Standard Relation>  (500) 
nan

>  <Standard Units>  (500) 
nan

>  <Standard Value>  (500) 
nan

>  <Assay ChEMBL ID>  (500) 
nan

>  <Assay Description>  (500) 
nan

>  <BAO Label>  (500) 
nan

$$$$

     RDKit          2D

 21 23  0  0  0  0  0  0  0  0999 V2000
    0.7500   -3.8971    0.0000 N   0  0  0  0  0  0  0  0  0  0  0  0
    1.5000   -2.5981    0.0000 C   0  0  0  0  0  0  0  0  0  0  0  0
    3.0000   -2.5981    0.0000 N   0  0  0  0  0  0  0  0  0  0  0  0
    3.7500   -1.2990    0.0000 O   0  0  0  0  0  0  0  0  0  0  0  0
    5.2500   -1.2990    0.0000 C   0  0  0  0  0  0  0  0  0  0  0  0
    6.0000   -0.0000    0.0000 C   0  0  0  0  0  0  0  0  0  0  0  0
    5.3899    1.3703    0.0000 N   0  0  0  0  0  0  0  0  0  0  0  0
    6.5046    2.3740    0.0000 O   0  0  0  0  0  0  0  0  0  0  0  0
    7.8037    1.6240    0.0000 C   0  0  0  0  0  0  0  0  0  0  0  0
    9.1740    2.2341    0.0000 C   0  0  0  0  0  0  0  0  0  0  0  0
    9.4858    3.7013    0.0000 C   0  0  0  0  0  0  0  0  0  0  0  0
   10.9776    3.8581    0.0000 C   0  0  0  0  0  0  0  0  0  0  0  0
   11.5877    2.4878    0.0000 O   0  0  0  0  0  0  0  0  0  0  0  0
   10.4730    1.4841    0.0000 C   0  0  0  0  0  0  0  0  0  0  0  0
    7.4918    0.1568    0.0000 N   0  0  0  0  0  0  0  0  0  0  0  0
    0.7500   -1.2990    0.0000 C   0  0  0  0  0  0  0  0  0  0  0  0
    1.5000    0.0000    0.0000 C   0  0  0  0  0  0  0  0  0  0  0  0
    0.7500    1.2990    0.0000 C   0  0  0  0  0  0  0  0  0  0  0  0
   -0.7500    1.2990    0.0000 C   0  0  0  0  0  0  0  0  0  0  0  0
   -1.5000    0.0000    0.0000 C   0  0  0  0  0  0  0  0  0  0  0  0
   -0.7500   -1.2990    0.0000 C   0  0  0  0  0  0  0  0  0  0  0  0
  1  2  1  0
  2  3  2  0
  3  4  1  0
  4  5  1  0
  5  6  1  0
  6  7  2  0
  7  8  1  0
  8  9  1  0
  9 10  1  0
 10 11  1  0
 11 12  2  0
 12 13  1  0
 13 14  1  0
  9 15  2  0
  2 16  1  0
 16 17  1  0
 17 18  1  0
 18 19  1  0
 19 20  1  0
 20 21  1  0
 15  6  1  0
 21 16  1  0
 14 10  2  0
M  END
>  <Compound_ID>  (501) 
C67098791

>  <Active>  (501) 
0

>  <Smiles>  (501) 
N/C(=N/OCc1noc(-c2ccoc2)n1)C1CCCCC1

>  <canonical_smi>  (501) 
N/C(=N/OCc1noc(-c2ccoc2)n1)C1CCCCC1

>  <Set>  (501) 
G2 inactive

>  <Set_type>  (501) 
Train

>  <MW>  (501) 
290.32

>  <HBD>  (501) 
1

>  <HBA>  (501) 
6

>  <NRB>  (501) 
5

>  <NR>  (501) 
3

>  <NAR>  (501) 
2

>  <PSA>  (501) 
99.67

>  <Standard Type>  (501) 
nan

>  <Standard Relation>  (501) 
nan

>  <Standard Units>  (501) 
nan

>  <Standard Value>  (501) 
nan

>  <Assay ChEMBL ID>  (501) 
nan

>  <Assay Description>  (501) 
nan

>  <BAO Label>  (501) 
nan

$$$$

     RDKit          2D

 37 39  0  0  0  0  0  0  0  0999 V2000
    1.5000  -10.3923    0.0000 C   0  0  0  0  0  0  0  0  0  0  0  0
    0.7500   -9.0933    0.0000 C   0  0  0  0  0  0  0  0  0  0  0  0
   -0.7500   -9.0933    0.0000 C   0  0  0  0  0  0  0  0  0  0  0  0
    1.5000   -7.7942    0.0000 C   0  0  0  0  0  0  0  0  0  0  0  0
    0.7500   -6.4952    0.0000 C   0  0  0  0  0  0  0  0  0  0  0  0
    1.5000   -5.1962    0.0000 N   0  0  0  0  0  0  0  0  0  0  0  0
    0.7500   -3.8971    0.0000 C   0  0  0  0  0  0  0  0  0  0  0  0
   -0.7500   -3.8971    0.0000 O   0  0  0  0  0  0  0  0  0  0  0  0
    1.5000   -2.5981    0.0000 C   0  0  0  0  0  0  0  0  0  0  0  0
    0.7500   -1.2990    0.0000 C   0  0  0  0  0  0  0  0  0  0  0  0
    1.5000    0.0000    0.0000 C   0  0  0  0  0  0  0  0  0  0  0  0
    0.7500    1.2990    0.0000 C   0  0  0  0  0  0  0  0  0  0  0  0
   -0.7500    1.2990    0.0000 C   0  0  0  0  0  0  0  0  0  0  0  0
   -1.5000    2.5981    0.0000 N   0  0  0  0  0  0  0  0  0  0  0  0
   -0.7500    3.8971    0.0000 C   0  0  0  0  0  0  0  0  0  0  0  0
   -3.0000    2.5981    0.0000 C   0  0  0  0  0  0  0  0  0  0  0  0
   -1.5000    0.0000    0.0000 C   0  0  0  0  0  0  0  0  0  0  0  0
   -0.7500   -1.2990    0.0000 C   0  0  0  0  0  0  0  0  0  0  0  0
    3.0000   -2.5981    0.0000 N   0  0  0  0  0  0  0  0  0  0  0  0
    3.7500   -1.2990    0.0000 C   0  0  0  0  0  0  0  0  0  0  0  0
    3.0000   -0.0000    0.0000 O   0  0  0  0  0  0  0  0  0  0  0  0
    5.2500   -1.2990    0.0000 C   0  0  0  0  0  0  0  0  0  0  0  0
    6.1317   -2.5126    0.0000 S   0  0  0  0  0  0  0  0  0  0  0  0
    7.5583   -2.0490    0.0000 N   0  0  0  0  0  0  0  0  0  0  0  0
    7.5583   -0.5490    0.0000 C   0  0  0  0  0  0  0  0  0  0  0  0
    8.7718    0.3326    0.0000 C   0  0  0  0  0  0  0  0  0  0  0  0
   10.1421   -0.2775    0.0000 N   0  0  0  0  0  0  0  0  0  0  0  0
    8.6150    1.8244    0.0000 O   0  0  0  0  0  0  0  0  0  0  0  0
    6.1317   -0.0855    0.0000 C   0  0  0  0  0  0  0  0  0  0  0  0
    5.6682    1.3411    0.0000 N   0  0  0  0  0  0  0  0  0  0  0  0
    3.7500   -3.8971    0.0000 C   0  0  0  0  0  0  0  0  0  0  0  0
    5.2500   -3.8971    0.0000 C   0  0  0  0  0  0  0  0  0  0  0  0
    6.0000   -5.1962    0.0000 C   0  0  0  0  0  0  0  0  0  0  0  0
    5.2500   -6.4952    0.0000 C   0  0  0  0  0  0  0  0  0  0  0  0
    3.7500   -6.4952    0.0000 C   0  0  0  0  0  0  0  0  0  0  0  0
    3.0000   -7.7942    0.0000 F   0  0  0  0  0  0  0  0  0  0  0  0
    3.0000   -5.1962    0.0000 C   0  0  0  0  0  0  0  0  0  0  0  0
  1  2  1  0
  2  3  1  0
  2  4  1  0
  4  5  1  0
  5  6  1  0
  6  7  1  0
  7  8  2  0
  7  9  1  0
  9 10  1  0
 10 11  2  0
 11 12  1  0
 12 13  2  0
 13 14  1  0
 14 15  1  0
 14 16  1  0
 13 17  1  0
 17 18  2  0
  9 19  1  1
 19 20  1  0
 20 21  2  0
 20 22  1  0
 22 23  1  0
 23 24  1  0
 24 25  2  0
 25 26  1  0
 26 27  1  0
 26 28  2  0
 25 29  1  0
 29 30  1  0
 19 31  1  0
 31 32  2  0
 32 33  1  0
 33 34  2  0
 34 35  1  0
 35 36  1  0
 35 37  2  0
 18 10  1  0
 29 22  2  0
 37 31  1  0
M  END
>  <Compound_ID>  (502) 
C06076908

>  <Active>  (502) 
0

>  <Smiles>  (502) 
CC(C)CCNC(=O)[C@@H](c1ccc(N(C)C)cc1)N(C(=O)c1snc(C(N)=O)c1N)c1cccc(F)c1

>  <canonical_smi>  (502) 
CC(C)CCNC(=O)[C@@H](c1ccc(N(C)C)cc1)N(C(=O)c1snc(C(N)=O)c1N)c1cccc(F)c1

>  <Set>  (502) 
G2 inactive

>  <Set_type>  (502) 
Train

>  <MW>  (502) 
526.64

>  <HBD>  (502) 
3

>  <HBA>  (502) 
6

>  <NRB>  (502) 
10

>  <NR>  (502) 
3

>  <NAR>  (502) 
3

>  <PSA>  (502) 
134.65

>  <Standard Type>  (502) 
nan

>  <Standard Relation>  (502) 
nan

>  <Standard Units>  (502) 
nan

>  <Standard Value>  (502) 
nan

>  <Assay ChEMBL ID>  (502) 
nan

>  <Assay Description>  (502) 
nan

>  <BAO Label>  (502) 
nan

$$$$

     RDKit          2D

 20 21  0  0  0  0  0  0  0  0999 V2000
    3.0000    0.0000    0.0000 C   0  0  0  0  0  0  0  0  0  0  0  0
    1.5000    0.0000    0.0000 C   0  0  0  0  0  0  0  0  0  0  0  0
    0.7500   -1.2990    0.0000 C   0  0  0  0  0  0  0  0  0  0  0  0
    1.5000   -2.5981    0.0000 C   0  0  0  0  0  0  0  0  0  0  0  0
   -0.7500   -1.2990    0.0000 C   0  0  0  0  0  0  0  0  0  0  0  0
   -1.5000   -2.5981    0.0000 C   0  0  0  0  0  0  0  0  0  0  0  0
   -1.5000    0.0000    0.0000 C   0  0  0  0  0  0  0  0  0  0  0  0
   -3.0000    0.0000    0.0000 S   0  0  0  0  0  0  0  0  0  0  0  0
   -3.0000    1.5000    0.0000 O   0  0  0  0  0  0  0  0  0  0  0  0
   -3.0000   -1.5000    0.0000 O   0  0  0  0  0  0  0  0  0  0  0  0
   -4.5000    0.0000    0.0000 N   0  0  0  0  0  2  0  0  0  0  0  0
   -5.2500   -1.2990    0.0000 C   0  0  0  0  0  0  0  0  0  0  0  0
   -4.6399   -2.6694    0.0000 N   0  0  0  0  0  0  0  0  0  0  0  0
   -5.7546   -3.6731    0.0000 N   0  0  0  0  0  0  0  0  0  0  0  0
   -7.0537   -2.9231    0.0000 C   0  0  0  0  0  0  0  0  0  0  0  0
   -6.7418   -1.4558    0.0000 N   0  0  0  0  0  0  0  0  0  0  0  0
   -0.7500    1.2990    0.0000 C   0  0  0  0  0  0  0  0  0  0  0  0
   -1.5000    2.5981    0.0000 C   0  0  0  0  0  0  0  0  0  0  0  0
    0.7500    1.2990    0.0000 C   0  0  0  0  0  0  0  0  0  0  0  0
    1.5000    2.5981    0.0000 C   0  0  0  0  0  0  0  0  0  0  0  0
  1  2  1  0
  2  3  2  0
  3  4  1  0
  3  5  1  0
  5  6  1  0
  5  7  2  0
  7  8  1  0
  8  9  2  0
  8 10  2  0
  8 11  1  0
 11 12  1  0
 12 13  2  0
 13 14  1  0
 14 15  2  0
 15 16  1  0
  7 17  1  0
 17 18  1  0
 17 19  2  0
 19 20  1  0
 19  2  1  0
 16 12  1  0
M  CHG  1  11  -1
M  END
>  <Compound_ID>  (503) 
C61844929

>  <Active>  (503) 
0

>  <Smiles>  (503) 
Cc1c(C)c(C)c(S(=O)(=O)[N-]c2nnc[nH]2)c(C)c1C

>  <canonical_smi>  (503) 
Cc1c(C)c(C)c(S(=O)(=O)[N-]c2nnc[nH]2)c(C)c1C

>  <Set>  (503) 
G2 inactive

>  <Set_type>  (503) 
Train

>  <MW>  (503) 
293.37

>  <HBD>  (503) 
1

>  <HBA>  (503) 
4

>  <NRB>  (503) 
3

>  <NR>  (503) 
2

>  <NAR>  (503) 
2

>  <PSA>  (503) 
89.81

>  <Standard Type>  (503) 
nan

>  <Standard Relation>  (503) 
nan

>  <Standard Units>  (503) 
nan

>  <Standard Value>  (503) 
nan

>  <Assay ChEMBL ID>  (503) 
nan

>  <Assay Description>  (503) 
nan

>  <BAO Label>  (503) 
nan

$$$$

     RDKit          2D

 19 21  0  0  0  0  0  0  0  0999 V2000
    3.0000    0.0000    0.0000 Br  0  0  0  0  0  0  0  0  0  0  0  0
    1.5000    0.0000    0.0000 C   0  0  0  0  0  0  0  0  0  0  0  0
    0.7500   -1.2990    0.0000 C   0  0  0  0  0  0  0  0  0  0  0  0
   -0.7500   -1.2990    0.0000 C   0  0  0  0  0  0  0  0  0  0  0  0
   -1.5000    0.0000    0.0000 C   0  0  0  0  0  0  0  0  0  0  0  0
   -3.0000    0.0000    0.0000 N   0  0  0  0  0  0  0  0  0  0  0  0
   -3.8817   -1.2135    0.0000 N   0  0  0  0  0  0  0  0  0  0  0  0
   -5.3083   -0.7500    0.0000 N   0  0  0  0  0  4  0  0  0  0  0  0
   -5.3083    0.7500    0.0000 N   0  0  0  0  0  0  0  0  0  0  0  0
   -3.8817    1.2135    0.0000 C   0  0  0  0  0  0  0  0  0  0  0  0
   -3.4182    2.6401    0.0000 C   0  0  0  0  0  0  0  0  0  0  0  0
   -4.4218    3.7548    0.0000 S   0  0  0  0  0  0  0  0  0  0  0  0
   -3.9583    5.1814    0.0000 C   0  0  0  0  0  0  0  0  0  0  0  0
   -4.8400    6.3949    0.0000 N   0  0  0  0  0  0  0  0  0  0  0  0
   -3.9583    7.6085    0.0000 C   0  0  0  0  0  0  0  0  0  0  0  0
   -2.5317    7.1449    0.0000 N   0  0  0  0  0  0  0  0  0  0  0  0
   -2.5317    5.6449    0.0000 N   0  0  0  0  0  0  0  0  0  0  0  0
   -0.7500    1.2990    0.0000 C   0  0  0  0  0  0  0  0  0  0  0  0
    0.7500    1.2990    0.0000 C   0  0  0  0  0  0  0  0  0  0  0  0
  1  2  1  0
  2  3  2  0
  3  4  1  0
  4  5  2  0
  5  6  1  0
  6  7  1  0
  7  8  1  0
  8  9  1  0
  9 10  1  0
 10 11  1  6
 11 12  1  0
 12 13  1  0
 13 14  1  0
 14 15  2  0
 15 16  1  0
 16 17  1  0
  5 18  1  0
 18 19  2  0
 19  2  1  0
 10  6  1  0
 17 13  2  0
M  CHG  1   8   1
M  END
>  <Compound_ID>  (504) 
C39583039

>  <Active>  (504) 
0

>  <Smiles>  (504) 
Brc1ccc(N2N[NH2+]N[C@@H]2CSc2nc[nH]n2)cc1

>  <canonical_smi>  (504) 
Brc1ccc(N2N[NH2+]N[C@@H]2CSc2nc[nH]n2)cc1

>  <Set>  (504) 
G2 inactive

>  <Set_type>  (504) 
Train

>  <MW>  (504) 
343.23

>  <HBD>  (504) 
4

>  <HBA>  (504) 
6

>  <NRB>  (504) 
4

>  <NR>  (504) 
3

>  <NAR>  (504) 
2

>  <PSA>  (504) 
85.48

>  <Standard Type>  (504) 
nan

>  <Standard Relation>  (504) 
nan

>  <Standard Units>  (504) 
nan

>  <Standard Value>  (504) 
nan

>  <Assay ChEMBL ID>  (504) 
nan

>  <Assay Description>  (504) 
nan

>  <BAO Label>  (504) 
nan

$$$$

     RDKit          2D

 26 31  0  0  0  0  0  0  0  0999 V2000
   -1.7321   -3.0000    0.0000 O   0  0  0  0  0  0  0  0  0  0  0  0
   -1.7321   -1.5000    0.0000 C   0  0  0  0  0  0  0  0  0  0  0  0
   -3.0311   -0.7500    0.0000 C   0  0  0  0  0  0  0  0  0  0  0  0
   -3.0311    0.7500    0.0000 C   0  0  0  0  0  0  0  0  0  0  0  0
   -1.7321    1.5000    0.0000 C   0  0  0  0  0  0  0  0  0  0  0  0
   -0.4330    2.2500    0.0000 O   0  0  0  0  0  0  0  0  0  0  0  0
   -0.4330    3.7500    0.0000 C   0  0  0  0  0  0  0  0  0  0  0  0
    0.8660    4.5000    0.0000 C   0  0  0  0  0  0  0  0  0  0  0  0
    0.8660    6.0000    0.0000 C   0  0  0  0  0  0  0  0  0  0  0  0
   -0.4330    6.7500    0.0000 C   0  0  0  0  0  0  0  0  0  0  0  0
   -1.7321    6.0000    0.0000 C   0  0  0  0  0  0  0  0  0  0  0  0
   -3.0311    6.7500    0.0000 C   0  0  0  0  0  0  0  0  0  0  0  0
   -4.3301    6.0000    0.0000 C   0  0  0  0  0  0  0  0  0  0  0  0
   -4.3301    4.5000    0.0000 C   0  0  0  0  0  0  0  0  0  0  0  0
   -3.0311    3.7500    0.0000 C   0  0  0  0  0  0  0  0  0  0  0  0
   -1.7321    4.5000    0.0000 C   0  0  0  0  0  0  0  0  0  0  0  0
   -3.0311    2.2500    0.0000 O   0  0  0  0  0  0  0  0  0  0  0  0
   -0.4330    0.7500    0.0000 C   0  0  0  0  0  0  0  0  0  0  0  0
    0.8660    0.0000    0.0000 O   0  0  0  0  0  0  0  0  0  0  0  0
   -0.4330   -0.7500    0.0000 C   0  0  0  0  0  0  0  0  0  0  0  0
    0.8660   -1.5000    0.0000 C   0  0  0  0  0  0  0  0  0  0  0  0
    0.8660   -3.0000    0.0000 O   0  0  0  0  0  0  0  0  0  0  0  0
    2.1651   -0.7500    0.0000 C   0  0  0  0  0  0  0  0  0  0  0  0
    2.1651    0.7500    0.0000 C   0  0  0  0  0  0  0  0  0  0  0  0
    0.8660    1.5000    0.0000 C   0  0  0  0  0  0  0  0  0  0  0  0
    0.8660    3.0000    0.0000 O   0  0  0  0  0  0  0  0  0  0  0  0
  2  1  1  6
  2  3  1  0
  3  4  2  0
  4  5  1  0
  5  6  1  0
  6  7  1  0
  7  8  2  0
  8  9  1  0
  9 10  2  0
 10 11  1  0
 11 12  2  0
 12 13  1  0
 13 14  2  0
 14 15  1  0
 15 16  2  0
 15 17  1  0
  5 18  1  0
 18 19  1  1
 20 19  1  1
 20 21  1  0
 21 22  1  6
 21 23  1  0
 23 24  2  0
 24 25  1  0
 25 26  1  6
 20  2  1  0
 17  5  1  0
 20 18  1  0
 16  7  1  0
 25 18  1  0
 16 11  1  0
M  END
>  <Compound_ID>  (505) 
C35458081

>  <Active>  (505) 
0

>  <Smiles>  (505) 
O[C@@H]1C=CC2(Oc3cccc4cccc(c34)O2)[C@@]23O[C@@]12[C@@H](O)C=C[C@H]3O

>  <canonical_smi>  (505) 
O[C@H]1C=C[C@@H](O)[C@]23O[C@]12[C@H](O)C=CC31Oc2cccc3cccc(c23)O1

>  <Set>  (505) 
G2 inactive

>  <Set_type>  (505) 
Train

>  <MW>  (505) 
352.34

>  <HBD>  (505) 
3

>  <HBA>  (505) 
6

>  <NRB>  (505) 
0

>  <NR>  (505) 
6

>  <NAR>  (505) 
2

>  <PSA>  (505) 
91.68

>  <Standard Type>  (505) 
nan

>  <Standard Relation>  (505) 
nan

>  <Standard Units>  (505) 
nan

>  <Standard Value>  (505) 
nan

>  <Assay ChEMBL ID>  (505) 
nan

>  <Assay Description>  (505) 
nan

>  <BAO Label>  (505) 
nan

$$$$

     RDKit          2D

 22 24  0  0  0  0  0  0  0  0999 V2000
   -6.1170   -9.6487    0.0000 C   0  0  0  0  0  0  0  0  0  0  0  0
   -4.6904   -9.1852    0.0000 C   0  0  0  0  0  0  0  0  0  0  0  0
   -3.5757  -10.1889    0.0000 C   0  0  0  0  0  0  0  0  0  0  0  0
   -4.3786   -7.7180    0.0000 C   0  0  0  0  0  0  0  0  0  0  0  0
   -2.9520   -7.2544    0.0000 N   0  0  0  0  0  0  0  0  0  0  0  0
   -1.8373   -8.2581    0.0000 O   0  0  0  0  0  0  0  0  0  0  0  0
   -2.6401   -5.7872    0.0000 C   0  0  0  0  0  0  0  0  0  0  0  0
   -3.7548   -4.7835    0.0000 O   0  0  0  0  0  0  0  0  0  0  0  0
   -1.2135   -5.3237    0.0000 C   0  0  0  0  0  0  0  0  0  0  0  0
   -0.0000   -6.2054    0.0000 C   0  0  0  0  0  0  0  0  0  0  0  0
    1.2135   -5.3237    0.0000 C   0  0  0  0  0  0  0  0  0  0  0  0
    2.6401   -5.7872    0.0000 Br  0  0  0  0  0  0  0  0  0  0  0  0
    0.7500   -3.8971    0.0000 C   0  0  0  0  0  0  0  0  0  0  0  0
    1.5000   -2.5981    0.0000 N   0  0  0  0  0  0  0  0  0  0  0  0
    0.7500   -1.2990    0.0000 C   0  0  0  0  0  0  0  0  0  0  0  0
    1.5000    0.0000    0.0000 C   0  0  0  0  0  0  0  0  0  0  0  0
    0.7500    1.2990    0.0000 C   0  0  0  0  0  0  0  0  0  0  0  0
   -0.7500    1.2990    0.0000 C   0  0  0  0  0  0  0  0  0  0  0  0
   -1.5000    0.0000    0.0000 C   0  0  0  0  0  0  0  0  0  0  0  0
   -0.7500   -1.2990    0.0000 C   0  0  0  0  0  0  0  0  0  0  0  0
   -1.5000   -2.5981    0.0000 C   0  0  0  0  0  0  0  0  0  0  0  0
   -0.7500   -3.8971    0.0000 N   0  0  0  0  0  4  0  0  0  0  0  0
  1  2  1  0
  2  3  1  0
  2  4  1  0
  4  5  1  0
  5  6  1  0
  5  7  1  0
  7  8  2  0
  9  7  1  1
  9 10  1  0
 10 11  1  0
 11 12  1  0
 11 13  2  0
 13 14  1  0
 14 15  1  0
 15 16  2  0
 16 17  1  0
 17 18  2  0
 18 19  1  0
 19 20  2  0
 20 21  1  0
 21 22  1  0
 22  9  1  0
 22 13  1  0
 20 15  1  0
M  CHG  1  22   1
M  END
>  <Compound_ID>  (506) 
C39544882

>  <Active>  (506) 
0

>  <Smiles>  (506) 
CC(C)CN(O)C(=O)[C@@H]1CC(Br)=C2Nc3ccccc3C[NH+]21

>  <canonical_smi>  (506) 
CC(C)CN(O)C(=O)[C@@H]1CC(Br)=C2Nc3ccccc3C[NH+]21

>  <Set>  (506) 
G2 inactive

>  <Set_type>  (506) 
Train

>  <MW>  (506) 
367.27

>  <HBD>  (506) 
3

>  <HBA>  (506) 
3

>  <NRB>  (506) 
3

>  <NR>  (506) 
3

>  <NAR>  (506) 
1

>  <PSA>  (506) 
57.01

>  <Standard Type>  (506) 
nan

>  <Standard Relation>  (506) 
nan

>  <Standard Units>  (506) 
nan

>  <Standard Value>  (506) 
nan

>  <Assay ChEMBL ID>  (506) 
nan

>  <Assay Description>  (506) 
nan

>  <BAO Label>  (506) 
nan

$$$$

     RDKit          2D

 25 27  0  0  0  0  0  0  0  0999 V2000
    0.7500   -1.2990    0.0000 O   0  0  0  0  0  0  0  0  0  0  0  0
    1.5000   -2.5981    0.0000 C   0  0  0  0  0  0  0  0  0  0  0  0
    3.0000   -2.5981    0.0000 C   0  0  0  0  0  0  0  0  0  0  0  0
    3.7500   -3.8971    0.0000 C   0  0  0  0  0  0  0  0  0  0  0  0
    5.2500   -3.8971    0.0000 C   0  0  0  0  0  0  0  0  0  0  0  0
    6.0000   -2.5981    0.0000 C   0  0  0  0  0  0  0  0  0  0  0  0
    5.2500   -1.2990    0.0000 N   0  0  0  0  0  0  0  0  0  0  0  0
    3.7500   -1.2990    0.0000 C   0  0  0  0  0  0  0  0  0  0  0  0
    0.7500   -3.8971    0.0000 C   0  0  0  0  0  0  0  0  0  0  0  0
   -0.7500   -3.8971    0.0000 C   0  0  0  0  0  0  0  0  0  0  0  0
   -1.5000   -2.5981    0.0000 C   0  0  0  0  0  0  0  0  0  0  0  0
   -0.8899   -1.2278    0.0000 C   0  0  0  0  0  0  0  0  0  0  0  0
   -2.0046   -0.2241    0.0000 C   0  0  0  0  0  0  0  0  0  0  0  0
   -3.3037   -0.9741    0.0000 S   0  0  0  0  0  0  0  0  0  0  0  0
   -2.9918   -2.4413    0.0000 C   0  0  0  0  0  0  0  0  0  0  0  0
   -1.5000   -5.1962    0.0000 N   0  0  0  0  0  0  0  0  0  0  0  0
   -0.7500   -6.4952    0.0000 C   0  0  0  0  0  0  0  0  0  0  0  0
   -1.5000   -7.7942    0.0000 S   0  0  0  0  0  0  0  0  0  0  0  0
    0.7500   -6.4952    0.0000 N   0  0  0  0  0  0  0  0  0  0  0  0
    1.5000   -5.1962    0.0000 C   0  0  0  0  0  0  0  0  0  0  0  0
    2.6491   -6.1603    0.0000 O   0  0  0  0  0  0  0  0  0  0  0  0
    2.6491   -4.2320    0.0000 C   0  0  0  0  0  0  0  0  0  0  0  0
    3.3656   -3.8826    0.0000 F   0  0  0  0  0  0  0  0  0  0  0  0
    1.9916   -2.8837    0.0000 F   0  0  0  0  0  0  0  0  0  0  0  0
    3.6132   -5.3810    0.0000 F   0  0  0  0  0  0  0  0  0  0  0  0
  1  2  2  0
  2  3  1  0
  3  4  2  0
  4  5  1  0
  5  6  2  0
  6  7  1  0
  7  8  2  0
  9  2  1  1
  9 10  1  0
 10 11  1  6
 11 12  1  0
 12 13  2  0
 13 14  1  0
 14 15  1  0
 10 16  1  0
 16 17  1  0
 17 18  2  0
 17 19  1  0
 19 20  1  0
 20 21  1  6
 20 22  1  0
 22 23  1  0
 22 24  1  0
 22 25  1  0
  8  3  1  0
 20  9  1  0
 15 11  2  0
M  END
>  <Compound_ID>  (507) 
C56054058

>  <Active>  (507) 
0

>  <Smiles>  (507) 
O=C(c1cccnc1)[C@@H]1[C@@H](c2ccsc2)NC(=S)N[C@]1(O)C(F)(F)F

>  <canonical_smi>  (507) 
O=C(c1cccnc1)[C@@H]1[C@@H](c2ccsc2)NC(=S)N[C@]1(O)C(F)(F)F

>  <Set>  (507) 
G2 inactive

>  <Set_type>  (507) 
Train

>  <MW>  (507) 
387.41

>  <HBD>  (507) 
3

>  <HBA>  (507) 
6

>  <NRB>  (507) 
3

>  <NR>  (507) 
3

>  <NAR>  (507) 
2

>  <PSA>  (507) 
74.25

>  <Standard Type>  (507) 
nan

>  <Standard Relation>  (507) 
nan

>  <Standard Units>  (507) 
nan

>  <Standard Value>  (507) 
nan

>  <Assay ChEMBL ID>  (507) 
nan

>  <Assay Description>  (507) 
nan

>  <BAO Label>  (507) 
nan

$$$$

     RDKit          2D

 16 17  0  0  0  0  0  0  0  0999 V2000
   -3.7500   -6.4952    0.0000 C   0  0  0  0  0  0  0  0  0  0  0  0
   -3.0000   -5.1962    0.0000 O   0  0  0  0  0  0  0  0  0  0  0  0
   -1.5000   -5.1962    0.0000 C   0  0  0  0  0  0  0  0  0  0  0  0
   -0.7500   -3.8971    0.0000 C   0  0  0  0  0  0  0  0  0  0  0  0
    0.7500   -3.8971    0.0000 C   0  0  0  0  0  0  0  0  0  0  0  0
    1.5000   -2.5981    0.0000 C   0  0  0  0  0  0  0  0  0  0  0  0
    3.0000   -2.5981    0.0000 N   0  0  0  0  0  0  0  0  0  0  0  0
    3.7500   -3.8971    0.0000 N   0  0  0  0  0  0  0  0  0  0  0  0
    0.7500   -1.2990    0.0000 C   0  0  0  0  0  0  0  0  0  0  0  0
    1.5000    0.0000    0.0000 C   0  0  0  0  0  0  0  0  0  0  0  0
    0.7500    1.2990    0.0000 C   0  0  0  0  0  0  0  0  0  0  0  0
   -0.7500    1.2990    0.0000 C   0  0  0  0  0  0  0  0  0  0  0  0
   -1.5000    0.0000    0.0000 C   0  0  0  0  0  0  0  0  0  0  0  0
   -3.0000    0.0000    0.0000 I   0  0  0  0  0  0  0  0  0  0  0  0
   -0.7500   -1.2990    0.0000 C   0  0  0  0  0  0  0  0  0  0  0  0
   -1.5000   -2.5981    0.0000 N   0  0  0  0  0  4  0  0  0  0  0  0
  1  2  1  0
  2  3  1  0
  3  4  1  0
  4  5  2  0
  5  6  1  0
  6  7  1  0
  7  8  1  0
  6  9  2  0
  9 10  1  0
 10 11  2  0
 11 12  1  0
 12 13  2  0
 13 14  1  0
 13 15  1  0
 15 16  2  0
 16  4  1  0
 15  9  1  0
M  CHG  1  16   1
M  END
>  <Compound_ID>  (508) 
C51699844

>  <Active>  (508) 
0

>  <Smiles>  (508) 
COCc1cc(NN)c2cccc(I)c2[nH+]1

>  <canonical_smi>  (508) 
COCc1cc(NN)c2cccc(I)c2[nH+]1

>  <Set>  (508) 
G2 inactive

>  <Set_type>  (508) 
Train

>  <MW>  (508) 
330.15

>  <HBD>  (508) 
2

>  <HBA>  (508) 
3

>  <NRB>  (508) 
3

>  <NR>  (508) 
2

>  <NAR>  (508) 
2

>  <PSA>  (508) 
61.42

>  <Standard Type>  (508) 
nan

>  <Standard Relation>  (508) 
nan

>  <Standard Units>  (508) 
nan

>  <Standard Value>  (508) 
nan

>  <Assay ChEMBL ID>  (508) 
nan

>  <Assay Description>  (508) 
nan

>  <BAO Label>  (508) 
nan

$$$$

     RDKit          2D

 25 28  0  0  0  0  0  0  0  0999 V2000
    2.2500   -6.4952    0.0000 O   0  0  0  0  0  0  0  0  0  0  0  0
    0.7500   -6.4952    0.0000 C   0  0  0  0  0  0  0  0  0  0  0  0
   -0.0000   -7.7942    0.0000 C   0  0  0  0  0  0  0  0  0  0  0  0
   -1.5000   -7.7942    0.0000 C   0  0  0  0  0  0  0  0  0  0  0  0
   -2.2500   -6.4952    0.0000 C   0  0  0  0  0  0  0  0  0  0  0  0
   -3.7500   -6.4952    0.0000 Cl  0  0  0  0  0  0  0  0  0  0  0  0
   -1.5000   -5.1962    0.0000 C   0  0  0  0  0  0  0  0  0  0  0  0
   -0.0000   -5.1962    0.0000 C   0  0  0  0  0  0  0  0  0  0  0  0
    0.7500   -3.8971    0.0000 C   0  0  0  0  0  0  0  0  0  0  0  0
    2.2500   -3.8971    0.0000 C   0  0  0  0  0  0  0  0  0  0  0  0
    3.0000   -2.5981    0.0000 C   0  0  0  0  0  0  0  0  0  0  0  0
    4.5000   -2.5981    0.0000 C   0  0  0  0  0  0  0  0  0  0  0  0
    5.2500   -3.8971    0.0000 C   0  0  0  0  0  0  0  0  0  0  0  0
    6.7500   -3.8971    0.0000 C   0  0  0  0  0  0  0  0  0  0  0  0
    7.5000   -2.5981    0.0000 C   0  0  0  0  0  0  0  0  0  0  0  0
    6.7500   -1.2990    0.0000 C   0  0  0  0  0  0  0  0  0  0  0  0
    5.2500   -1.2990    0.0000 C   0  0  0  0  0  0  0  0  0  0  0  0
    2.2500   -1.2990    0.0000 N   0  0  0  0  0  0  0  0  0  0  0  0
    0.7500   -1.2990    0.0000 C   0  0  0  0  0  0  0  0  0  0  0  0
    1.5000    0.0000    0.0000 C   0  0  0  0  0  0  0  0  0  0  0  0
    0.7500    1.2990    0.0000 C   0  0  0  0  0  0  0  0  0  0  0  0
   -0.7500    1.2990    0.0000 N   0  0  0  0  0  4  0  0  0  0  0  0
   -1.5000    0.0000    0.0000 C   0  0  0  0  0  0  0  0  0  0  0  0
   -0.7500   -1.2990    0.0000 C   0  0  0  0  0  0  0  0  0  0  0  0
   -0.0000   -2.5981    0.0000 N   0  0  0  0  0  0  0  0  0  0  0  0
  1  2  1  0
  2  3  2  0
  3  4  1  0
  4  5  2  0
  5  6  1  0
  5  7  1  0
  7  8  2  0
  9  8  1  1
  9 10  1  0
 10 11  1  0
 11 12  1  0
 12 13  2  0
 13 14  1  0
 14 15  2  0
 15 16  1  0
 16 17  2  0
 11 18  2  0
 18 19  1  0
 19 20  1  0
 20 21  1  0
 21 22  1  0
 22 23  1  0
 23 24  1  0
 19 25  1  0
  8  2  1  0
 25  9  1  0
 17 12  1  0
 24 19  1  0
M  CHG  1  22   1
M  END
>  <Compound_ID>  (509) 
C65297969

>  <Active>  (509) 
0

>  <Smiles>  (509) 
Oc1ccc(Cl)cc1[C@@H]1CC(c2ccccc2)=NC2(CC[NH2+]CC2)N1

>  <canonical_smi>  (509) 
Oc1ccc(Cl)cc1[C@@H]1CC(c2ccccc2)=NC2(CC[NH2+]CC2)N1

>  <Set>  (509) 
G2 inactive

>  <Set_type>  (509) 
Train

>  <MW>  (509) 
356.88

>  <HBD>  (509) 
3

>  <HBA>  (509) 
2

>  <NRB>  (509) 
2

>  <NR>  (509) 
4

>  <NAR>  (509) 
2

>  <PSA>  (509) 
61.23

>  <Standard Type>  (509) 
nan

>  <Standard Relation>  (509) 
nan

>  <Standard Units>  (509) 
nan

>  <Standard Value>  (509) 
nan

>  <Assay ChEMBL ID>  (509) 
nan

>  <Assay Description>  (509) 
nan

>  <BAO Label>  (509) 
nan

$$$$

     RDKit          2D

 21 22  0  0  0  0  0  0  0  0999 V2000
    3.0000    0.0000    0.0000 C   0  0  0  0  0  0  0  0  0  0  0  0
    1.5000    0.0000    0.0000 C   0  0  0  0  0  0  0  0  0  0  0  0
    0.7500   -1.2990    0.0000 C   0  0  0  0  0  0  0  0  0  0  0  0
   -0.7500   -1.2990    0.0000 C   0  0  0  0  0  0  0  0  0  0  0  0
   -1.5000   -2.5981    0.0000 C   0  0  0  0  0  0  0  0  0  0  0  0
   -1.5000    0.0000    0.0000 C   0  0  0  0  0  0  0  0  0  0  0  0
   -3.0000    0.0000    0.0000 C   0  0  0  0  0  0  0  0  0  0  0  0
   -3.7500   -1.2990    0.0000 N   0  0  0  0  0  0  0  0  0  0  0  0
   -3.7500    1.2990    0.0000 N   0  0  0  0  0  0  0  0  0  0  0  0
   -5.2500    1.2990    0.0000 O   0  0  0  0  0  0  0  0  0  0  0  0
   -0.7500    1.2990    0.0000 C   0  0  0  0  0  0  0  0  0  0  0  0
   -1.5000    2.5981    0.0000 N   0  0  0  0  0  0  0  0  0  0  0  0
   -3.0000    2.5981    0.0000 C   0  0  0  0  0  0  0  0  0  0  0  0
   -3.7500    3.8971    0.0000 C   0  0  0  0  0  0  0  0  0  0  0  0
   -5.2500    3.8971    0.0000 O   0  0  0  0  0  0  0  0  0  0  0  0
   -0.7500    3.8971    0.0000 C   0  0  0  0  0  0  0  0  0  0  0  0
    0.7418    4.0539    0.0000 C   0  0  0  0  0  0  0  0  0  0  0  0
    1.0537    5.5211    0.0000 C   0  0  0  0  0  0  0  0  0  0  0  0
   -0.2454    6.2711    0.0000 C   0  0  0  0  0  0  0  0  0  0  0  0
   -1.3601    5.2674    0.0000 C   0  0  0  0  0  0  0  0  0  0  0  0
    0.7500    1.2990    0.0000 N   0  0  0  0  0  4  0  0  0  0  0  0
  1  2  1  0
  2  3  2  0
  3  4  1  0
  4  5  1  0
  4  6  2  0
  6  7  1  0
  7  8  1  0
  7  9  2  0
  9 10  1  0
  6 11  1  0
 11 12  1  0
 12 13  1  0
 13 14  1  0
 14 15  1  0
 12 16  1  0
 16 17  1  0
 17 18  1  0
 18 19  1  0
 19 20  1  0
 11 21  2  0
 21  2  1  0
 20 16  1  0
M  CHG  1  21   1
M  END
>  <Compound_ID>  (510) 
C42507299

>  <Active>  (510) 
0

>  <Smiles>  (510) 
Cc1cc(C)c(/C(N)=N/O)c(N(CCO)C2CCCC2)[nH+]1

>  <canonical_smi>  (510) 
Cc1cc(C)c(/C(N)=N/O)c(N(CCO)C2CCCC2)[nH+]1

>  <Set>  (510) 
G2 inactive

>  <Set_type>  (510) 
Train

>  <MW>  (510) 
293.39

>  <HBD>  (510) 
3

>  <HBA>  (510) 
4

>  <NRB>  (510) 
5

>  <NR>  (510) 
2

>  <NAR>  (510) 
1

>  <PSA>  (510) 
96.22

>  <Standard Type>  (510) 
nan

>  <Standard Relation>  (510) 
nan

>  <Standard Units>  (510) 
nan

>  <Standard Value>  (510) 
nan

>  <Assay ChEMBL ID>  (510) 
nan

>  <Assay Description>  (510) 
nan

>  <BAO Label>  (510) 
nan

$$$$

     RDKit          2D

 28 31  0  0  0  0  0  0  0  0999 V2000
    6.0000   -5.1962    0.0000 N   0  0  0  0  0  0  0  0  0  0  0  0
    5.2500   -3.8971    0.0000 C   0  0  0  0  0  0  0  0  0  0  0  0
    6.0000   -2.5981    0.0000 O   0  0  0  0  0  0  0  0  0  0  0  0
    3.7500   -3.8971    0.0000 C   0  0  0  0  0  0  0  0  0  0  0  0
    3.0000   -2.5981    0.0000 C   0  0  0  0  0  0  0  0  0  0  0  0
    3.7500   -1.2990    0.0000 N   0  0  0  0  0  4  0  0  0  0  0  0
    1.5000   -2.5981    0.0000 C   0  0  0  0  0  0  0  0  0  0  0  0
    0.7500   -1.2990    0.0000 C   0  0  0  0  0  0  0  0  0  0  0  0
    1.5000    0.0000    0.0000 C   0  0  0  0  0  0  0  0  0  0  0  0
    0.7500    1.2990    0.0000 C   0  0  0  0  0  0  0  0  0  0  0  0
   -0.7500    1.2990    0.0000 C   0  0  0  0  0  0  0  0  0  0  0  0
   -1.5000    0.0000    0.0000 C   0  0  0  0  0  0  0  0  0  0  0  0
   -0.7500   -1.2990    0.0000 C   0  0  0  0  0  0  0  0  0  0  0  0
   -1.5000   -2.5981    0.0000 C   0  0  0  0  0  0  0  0  0  0  0  0
   -3.0000   -2.5981    0.0000 S   0  0  0  0  0  0  0  0  0  0  0  0
   -3.7500   -1.2990    0.0000 C   0  0  0  0  0  0  0  0  0  0  0  0
   -3.0000    0.0000    0.0000 C   0  0  0  0  0  0  0  0  0  0  0  0
   -3.7500    1.2990    0.0000 C   0  0  0  0  0  0  0  0  0  0  0  0
   -5.2500    1.2990    0.0000 C   0  0  0  0  0  0  0  0  0  0  0  0
   -6.0000    0.0000    0.0000 C   0  0  0  0  0  0  0  0  0  0  0  0
   -5.2500   -1.2990    0.0000 N   0  0  0  0  0  4  0  0  0  0  0  0
   -6.0000   -2.5981    0.0000 O   0  0  0  0  0  1  0  0  0  0  0  0
   -0.7500   -3.8971    0.0000 C   0  0  0  0  0  0  0  0  0  0  0  0
   -1.5000   -5.1962    0.0000 C   0  0  0  0  0  0  0  0  0  0  0  0
   -0.7500   -6.4952    0.0000 C   0  0  0  0  0  0  0  0  0  0  0  0
    0.7500   -6.4952    0.0000 C   0  0  0  0  0  0  0  0  0  0  0  0
    1.5000   -5.1962    0.0000 C   0  0  0  0  0  0  0  0  0  0  0  0
    0.7500   -3.8971    0.0000 C   0  0  0  0  0  0  0  0  0  0  0  0
  1  2  1  0
  2  3  2  0
  2  4  1  0
  4  5  1  0
  5  6  1  1
  5  7  1  0
  7  8  2  0
  8  9  1  0
  9 10  2  0
 10 11  1  0
 11 12  2  0
 12 13  1  0
 13 14  2  0
 14 15  1  0
 15 16  1  0
 16 17  2  0
 17 18  1  0
 18 19  2  0
 19 20  1  0
 20 21  2  0
 21 22  1  0
 14 23  1  0
 23 24  2  0
 24 25  1  0
 25 26  2  0
 26 27  1  0
 27 28  2  0
 28  7  1  0
 13  8  1  0
 21 16  1  0
 28 23  1  0
M  CHG  3   6   1  21   1  22  -1
M  END
>  <Compound_ID>  (511) 
C44254313

>  <Active>  (511) 
0

>  <Smiles>  (511) 
NC(=O)C[C@H]([NH3+])c1c2ccccc2c(Sc2cccc[n+]2[O-])c2ccccc12

>  <canonical_smi>  (511) 
NC(=O)C[C@H]([NH3+])c1c2ccccc2c(Sc2cccc[n+]2[O-])c2ccccc12

>  <Set>  (511) 
G2 inactive

>  <Set_type>  (511) 
Train

>  <MW>  (511) 
390.49

>  <HBD>  (511) 
2

>  <HBA>  (511) 
3

>  <NRB>  (511) 
5

>  <NR>  (511) 
4

>  <NAR>  (511) 
4

>  <PSA>  (511) 
97.67

>  <Standard Type>  (511) 
nan

>  <Standard Relation>  (511) 
nan

>  <Standard Units>  (511) 
nan

>  <Standard Value>  (511) 
nan

>  <Assay ChEMBL ID>  (511) 
nan

>  <Assay Description>  (511) 
nan

>  <BAO Label>  (511) 
nan

$$$$

     RDKit          2D

 19 20  0  0  0  0  0  0  0  0999 V2000
    3.0000    0.0000    0.0000 N   0  0  0  0  0  0  0  0  0  0  0  0
    1.5000    0.0000    0.0000 C   0  0  0  0  0  0  0  0  0  0  0  0
    0.7500   -1.2990    0.0000 C   0  0  0  0  0  0  0  0  0  0  0  0
   -0.7500   -1.2990    0.0000 C   0  0  0  0  0  0  0  0  0  0  0  0
   -1.5000   -2.5981    0.0000 O   0  0  0  0  0  0  0  0  0  0  0  0
   -1.5000    0.0000    0.0000 N   0  0  0  0  0  0  0  0  0  0  0  0
   -0.7500    1.2990    0.0000 C   0  0  0  0  0  0  0  0  0  0  0  0
   -1.5000    2.5981    0.0000 S   0  0  0  0  0  0  0  0  0  0  0  0
   -0.7500    3.8971    0.0000 C   0  0  0  0  0  0  0  0  0  0  0  0
   -1.5000    5.1962    0.0000 C   0  0  0  0  0  0  0  0  0  0  0  0
   -2.9918    5.3529    0.0000 C   0  0  0  0  0  0  0  0  0  0  0  0
   -3.3037    6.8202    0.0000 C   0  0  0  0  0  0  0  0  0  0  0  0
   -4.6740    7.4303    0.0000 C   0  0  0  0  0  0  0  0  0  0  0  0
   -6.0443    8.0404    0.0000 C   0  0  0  0  0  0  0  0  0  0  0  0
   -7.4146    8.6505    0.0000 C   0  0  0  0  0  0  0  0  0  0  0  0
   -7.5714   10.1423    0.0000 N   0  0  0  0  0  4  0  0  0  0  0  0
   -2.0046    7.5702    0.0000 C   0  0  0  0  0  0  0  0  0  0  0  0
   -0.8899    6.5665    0.0000 S   0  0  0  0  0  0  0  0  0  0  0  0
    0.7500    1.2990    0.0000 N   0  0  0  0  0  0  0  0  0  0  0  0
  1  2  1  0
  2  3  2  0
  3  4  1  0
  4  5  2  0
  4  6  1  0
  6  7  1  0
  7  8  1  0
  8  9  1  0
  9 10  1  0
 10 11  2  0
 11 12  1  0
 12 13  1  0
 13 14  3  0
 14 15  1  0
 15 16  1  0
 12 17  2  0
 17 18  1  0
  7 19  2  0
 19  2  1  0
 18 10  1  0
M  CHG  1  16   1
M  END
>  <Compound_ID>  (512) 
C43691424

>  <Active>  (512) 
0

>  <Smiles>  (512) 
Nc1cc(=O)[nH]c(SCc2cc(C#CC[NH3+])cs2)n1

>  <canonical_smi>  (512) 
Nc1cc(=O)[nH]c(SCc2cc(C#CC[NH3+])cs2)n1

>  <Set>  (512) 
G2 inactive

>  <Set_type>  (512) 
Train

>  <MW>  (512) 
293.4

>  <HBD>  (512) 
3

>  <HBA>  (512) 
4

>  <NRB>  (512) 
3

>  <NR>  (512) 
2

>  <NAR>  (512) 
2

>  <PSA>  (512) 
99.41

>  <Standard Type>  (512) 
nan

>  <Standard Relation>  (512) 
nan

>  <Standard Units>  (512) 
nan

>  <Standard Value>  (512) 
nan

>  <Assay ChEMBL ID>  (512) 
nan

>  <Assay Description>  (512) 
nan

>  <BAO Label>  (512) 
nan

$$$$

     RDKit          2D

 36 38  0  0  0  0  0  0  0  0999 V2000
   13.5000   -0.0000    0.0000 C   0  0  0  0  0  0  0  0  0  0  0  0
   12.7500   -1.2990    0.0000 C   0  0  0  0  0  0  0  0  0  0  0  0
   11.2500   -1.2990    0.0000 C   0  0  0  0  0  0  0  0  0  0  0  0
   10.5000   -2.5981    0.0000 C   0  0  0  0  0  0  0  0  0  0  0  0
    9.0000   -2.5981    0.0000 C   0  0  0  0  0  0  0  0  0  0  0  0
    8.2500   -3.8971    0.0000 C   0  0  0  0  0  0  0  0  0  0  0  0
    6.7500   -3.8971    0.0000 N   0  0  0  0  0  0  0  0  0  0  0  0
    6.0000   -2.5981    0.0000 C   0  0  0  0  0  0  0  0  0  0  0  0
    4.5000   -2.5981    0.0000 O   0  0  0  0  0  0  0  0  0  0  0  0
    6.7500   -1.2990    0.0000 C   0  0  0  0  0  0  0  0  0  0  0  0
    6.1399    0.0713    0.0000 C   0  0  0  0  0  0  0  0  0  0  0  0
    7.2546    1.0750    0.0000 C   0  0  0  0  0  0  0  0  0  0  0  0
    8.5537    0.3250    0.0000 C   0  0  0  0  0  0  0  0  0  0  0  0
    8.2418   -1.1422    0.0000 O   0  0  0  0  0  0  0  0  0  0  0  0
    6.0000   -5.1962    0.0000 C   0  0  0  0  0  0  0  0  0  0  0  0
    4.5000   -5.1962    0.0000 C   0  0  0  0  0  0  0  0  0  0  0  0
    3.7500   -6.4952    0.0000 O   0  0  0  0  0  0  0  0  0  0  0  0
    3.7500   -3.8971    0.0000 N   0  0  0  0  0  0  0  0  0  0  0  0
    2.2500   -3.8971    0.0000 C   0  0  0  0  0  0  0  0  0  0  0  0
    1.5000   -2.5981    0.0000 S   0  0  0  0  0  0  0  0  0  0  0  0
    0.2010   -3.3481    0.0000 O   0  0  0  0  0  0  0  0  0  0  0  0
    2.7990   -1.8481    0.0000 O   0  0  0  0  0  0  0  0  0  0  0  0
    0.7500   -1.2990    0.0000 C   0  0  0  0  0  0  0  0  0  0  0  0
    1.5000    0.0000    0.0000 C   0  0  0  0  0  0  0  0  0  0  0  0
    0.7500    1.2990    0.0000 C   0  0  0  0  0  0  0  0  0  0  0  0
   -0.7500    1.2990    0.0000 C   0  0  0  0  0  0  0  0  0  0  0  0
   -1.5000    2.5981    0.0000 C   0  0  0  0  0  0  0  0  0  0  0  0
   -1.5000    0.0000    0.0000 C   0  0  0  0  0  0  0  0  0  0  0  0
   -0.7500   -1.2990    0.0000 C   0  0  0  0  0  0  0  0  0  0  0  0
    6.7500   -6.4952    0.0000 C   0  0  0  0  0  0  0  0  0  0  0  0
    6.0000   -7.7942    0.0000 C   0  0  0  0  0  0  0  0  0  0  0  0
    6.7500   -9.0933    0.0000 C   0  0  0  0  0  0  0  0  0  0  0  0
    8.2500   -9.0933    0.0000 C   0  0  0  0  0  0  0  0  0  0  0  0
    9.0000   -7.7942    0.0000 C   0  0  0  0  0  0  0  0  0  0  0  0
   10.5000   -7.7942    0.0000 O   0  0  0  0  0  0  0  0  0  0  0  0
    8.2500   -6.4952    0.0000 C   0  0  0  0  0  0  0  0  0  0  0  0
  1  2  1  0
  2  3  1  0
  3  4  1  0
  4  5  1  0
  5  6  1  0
  6  7  1  0
  7  8  1  0
  8  9  2  0
  8 10  1  0
 10 11  2  0
 11 12  1  0
 12 13  2  0
 13 14  1  0
 15  7  1  6
 15 16  1  0
 16 17  2  0
 16 18  1  0
 18 19  1  0
 19 20  1  0
 20 21  2  0
 20 22  2  0
 20 23  1  0
 23 24  2  0
 24 25  1  0
 25 26  2  0
 26 27  1  0
 26 28  1  0
 28 29  2  0
 15 30  1  0
 30 31  2  0
 31 32  1  0
 32 33  2  0
 33 34  1  0
 34 35  1  0
 34 36  2  0
 14 10  1  0
 29 23  1  0
 36 30  1  0
M  END
>  <Compound_ID>  (513) 
C36512934

>  <Active>  (513) 
0

>  <Smiles>  (513) 
CCCCCCN(C(=O)c1ccco1)[C@@H](C(=O)NCS(=O)(=O)c1ccc(C)cc1)c1cccc(O)c1

>  <canonical_smi>  (513) 
CCCCCCN(C(=O)c1ccco1)[C@@H](C(=O)NCS(=O)(=O)c1ccc(C)cc1)c1cccc(O)c1

>  <Set>  (513) 
G2 inactive

>  <Set_type>  (513) 
Train

>  <MW>  (513) 
512.63

>  <HBD>  (513) 
2

>  <HBA>  (513) 
6

>  <NRB>  (513) 
12

>  <NR>  (513) 
3

>  <NAR>  (513) 
3

>  <PSA>  (513) 
116.92

>  <Standard Type>  (513) 
nan

>  <Standard Relation>  (513) 
nan

>  <Standard Units>  (513) 
nan

>  <Standard Value>  (513) 
nan

>  <Assay ChEMBL ID>  (513) 
nan

>  <Assay Description>  (513) 
nan

>  <BAO Label>  (513) 
nan

$$$$

     RDKit          2D

 29 33  0  0  0  0  0  0  0  0999 V2000
   -0.0408  -16.4232    0.0000 C   0  0  0  0  0  0  0  0  0  0  0  0
    0.1160  -14.9315    0.0000 C   0  0  0  0  0  0  0  0  0  0  0  0
   -1.0975  -14.0498    0.0000 C   0  0  0  0  0  0  0  0  0  0  0  0
   -0.9408  -12.5580    0.0000 C   0  0  0  0  0  0  0  0  0  0  0  0
    0.4296  -11.9479    0.0000 C   0  0  0  0  0  0  0  0  0  0  0  0
    0.5864  -10.4561    0.0000 C   0  0  0  0  0  0  0  0  0  0  0  0
   -0.6272   -9.5744    0.0000 N   0  0  0  0  0  0  0  0  0  0  0  0
   -0.4704   -8.0826    0.0000 C   0  0  0  0  0  0  0  0  0  0  0  0
    0.8999   -7.4725    0.0000 O   0  0  0  0  0  0  0  0  0  0  0  0
   -1.6839   -7.2010    0.0000 C   0  0  0  0  0  0  0  0  0  0  0  0
   -3.0542   -7.8111    0.0000 C   0  0  0  0  0  0  0  0  0  0  0  0
   -4.2677   -6.9294    0.0000 C   0  0  0  0  0  0  0  0  0  0  0  0
   -4.1110   -5.4376    0.0000 C   0  0  0  0  0  0  0  0  0  0  0  0
   -2.7406   -4.8275    0.0000 N   0  0  0  0  0  0  0  0  0  0  0  0
   -2.5838   -3.3357    0.0000 C   0  0  0  0  0  0  0  0  0  0  0  0
   -3.7974   -2.4540    0.0000 O   0  0  0  0  0  0  0  0  0  0  0  0
   -1.2135   -2.7256    0.0000 C   0  0  0  0  0  0  0  0  0  0  0  0
   -0.7500   -1.2990    0.0000 C   0  0  0  0  0  0  0  0  0  0  0  0
    0.7500   -1.2990    0.0000 C   0  0  0  0  0  0  0  0  0  0  0  0
    1.2135   -2.7256    0.0000 S   0  0  0  0  0  0  0  0  0  0  0  0
   -0.0000   -3.6073    0.0000 C   0  0  0  0  0  0  0  0  0  0  0  0
   -0.1568   -5.0991    0.0000 N   0  0  0  0  0  0  0  0  0  0  0  0
   -1.5271   -5.7092    0.0000 C   0  0  0  0  0  0  0  0  0  0  0  0
    1.5000    0.0000    0.0000 C   0  0  0  0  0  0  0  0  0  0  0  0
    0.7500    1.2990    0.0000 C   0  0  0  0  0  0  0  0  0  0  0  0
   -0.7500    1.2990    0.0000 C   0  0  0  0  0  0  0  0  0  0  0  0
   -1.5000    0.0000    0.0000 C   0  0  0  0  0  0  0  0  0  0  0  0
    1.6431  -12.8296    0.0000 C   0  0  0  0  0  0  0  0  0  0  0  0
    1.4863  -14.3214    0.0000 C   0  0  0  0  0  0  0  0  0  0  0  0
  1  2  1  0
  2  3  2  0
  3  4  1  0
  4  5  2  0
  5  6  1  0
  6  7  1  0
  7  8  1  0
  8  9  2  0
  8 10  1  0
 10 11  2  0
 11 12  1  0
 12 13  2  0
 13 14  1  0
 14 15  1  0
 15 16  2  0
 15 17  1  0
 17 18  1  0
 18 19  2  0
 19 20  1  0
 20 21  1  0
 21 22  1  0
 22 23  2  0
 19 24  1  0
 24 25  1  0
 25 26  1  0
 26 27  1  0
  5 28  1  0
 28 29  2  0
 29  2  1  0
 23 10  1  0
 23 14  1  0
 21 17  2  0
 27 18  1  0
M  END
>  <Compound_ID>  (514) 
C04971760

>  <Active>  (514) 
0

>  <Smiles>  (514) 
Cc1ccc(CNC(=O)c2cccn3c(=O)c4c5c(sc4nc23)CCCC5)cc1

>  <canonical_smi>  (514) 
Cc1ccc(CNC(=O)c2cccn3c(=O)c4c5c(sc4nc23)CCCC5)cc1

>  <Set>  (514) 
G2 inactive

>  <Set_type>  (514) 
Train

>  <MW>  (514) 
403.51

>  <HBD>  (514) 
1

>  <HBA>  (514) 
3

>  <NRB>  (514) 
3

>  <NR>  (514) 
5

>  <NAR>  (514) 
4

>  <PSA>  (514) 
63.47

>  <Standard Type>  (514) 
nan

>  <Standard Relation>  (514) 
nan

>  <Standard Units>  (514) 
nan

>  <Standard Value>  (514) 
nan

>  <Assay ChEMBL ID>  (514) 
nan

>  <Assay Description>  (514) 
nan

>  <BAO Label>  (514) 
nan

$$$$

     RDKit          2D

 21 22  0  0  0  0  0  0  0  0999 V2000
    1.5000   -5.1962    0.0000 C   0  0  0  0  0  0  0  0  0  0  0  0
    0.7500   -3.8971    0.0000 N   0  0  0  0  0  0  0  0  0  0  0  0
    1.5000   -2.5981    0.0000 C   0  0  0  0  0  0  0  0  0  0  0  0
    0.7500   -1.2990    0.0000 C   0  0  0  0  0  0  0  0  0  0  0  0
    1.5000    0.0000    0.0000 C   0  0  0  0  0  0  0  0  0  0  0  0
    0.7500    1.2990    0.0000 C   0  0  0  0  0  0  0  0  0  0  0  0
   -0.7500    1.2990    0.0000 N   0  0  0  0  0  0  0  0  0  0  0  0
   -1.5000    0.0000    0.0000 C   0  0  0  0  0  0  0  0  0  0  0  0
   -0.7500   -1.2990    0.0000 C   0  0  0  0  0  0  0  0  0  0  0  0
   -0.7500   -3.8971    0.0000 C   0  0  0  0  0  0  0  0  0  0  0  0
   -1.3361   -2.5163    0.0000 O   0  0  0  0  0  0  0  0  0  0  0  0
   -1.5000   -5.1962    0.0000 C   0  0  0  0  0  0  0  0  0  0  0  0
   -2.6491   -4.2320    0.0000 C   0  0  0  0  0  0  0  0  0  0  0  0
   -2.5706   -2.7340    0.0000 N   0  0  0  0  0  0  0  0  0  0  0  0
   -4.0586   -4.7450    0.0000 N   0  0  0  0  0  0  0  0  0  0  0  0
   -5.2077   -3.7808    0.0000 O   0  0  0  0  0  0  0  0  0  0  0  0
   -0.0905   -5.7092    0.0000 C   0  0  0  0  0  0  0  0  0  0  0  0
    0.1700   -7.1864    0.0000 C   0  0  0  0  0  0  0  0  0  0  0  0
   -0.9791   -8.1506    0.0000 C   0  0  0  0  0  0  0  0  0  0  0  0
   -2.3886   -7.6375    0.0000 C   0  0  0  0  0  0  0  0  0  0  0  0
   -2.6491   -6.1603    0.0000 C   0  0  0  0  0  0  0  0  0  0  0  0
  1  2  1  0
  2  3  1  0
  3  4  1  0
  4  5  2  0
  5  6  1  0
  6  7  2  0
  7  8  1  0
  8  9  2  0
  2 10  1  0
 10 11  2  0
 10 12  1  0
 12 13  1  0
 13 14  1  0
 13 15  2  0
 15 16  1  0
 12 17  1  0
 17 18  1  0
 18 19  1  0
 19 20  1  0
 20 21  1  0
  9  4  1  0
 21 12  1  0
M  END
>  <Compound_ID>  (515) 
C44785286

>  <Active>  (515) 
0

>  <Smiles>  (515) 
CN(Cc1ccncc1)C(=O)C1(/C(N)=N/O)CCCCC1

>  <canonical_smi>  (515) 
CN(Cc1ccncc1)C(=O)C1(/C(N)=N/O)CCCCC1

>  <Set>  (515) 
G2 inactive

>  <Set_type>  (515) 
Test

>  <MW>  (515) 
290.37

>  <HBD>  (515) 
2

>  <HBA>  (515) 
4

>  <NRB>  (515) 
4

>  <NR>  (515) 
2

>  <NAR>  (515) 
1

>  <PSA>  (515) 
91.81

>  <Standard Type>  (515) 
nan

>  <Standard Relation>  (515) 
nan

>  <Standard Units>  (515) 
nan

>  <Standard Value>  (515) 
nan

>  <Assay ChEMBL ID>  (515) 
nan

>  <Assay Description>  (515) 
nan

>  <BAO Label>  (515) 
nan

$$$$

     RDKit          2D

 30 32  0  0  0  0  0  0  0  0999 V2000
    3.0000    0.0000    0.0000 C   0  0  0  0  0  0  0  0  0  0  0  0
    1.5000    0.0000    0.0000 C   0  0  0  0  0  0  0  0  0  0  0  0
    0.7500   -1.2990    0.0000 C   0  0  0  0  0  0  0  0  0  0  0  0
    1.5000   -2.5981    0.0000 C   0  0  0  0  0  0  0  0  0  0  0  0
    3.0000   -2.5981    0.0000 N   0  0  0  0  0  0  0  0  0  0  0  0
    0.7500   -3.8971    0.0000 O   0  0  0  0  0  0  0  0  0  0  0  0
   -0.7500   -1.2990    0.0000 C   0  0  0  0  0  0  0  0  0  0  0  0
   -1.5000   -2.5981    0.0000 C   0  0  0  0  0  0  0  0  0  0  0  0
   -0.8899   -3.9684    0.0000 C   0  0  0  0  0  0  0  0  0  0  0  0
   -2.0046   -4.9721    0.0000 C   0  0  0  0  0  0  0  0  0  0  0  0
   -3.3037   -4.2221    0.0000 C   0  0  0  0  0  0  0  0  0  0  0  0
   -2.9918   -2.7549    0.0000 O   0  0  0  0  0  0  0  0  0  0  0  0
   -1.5000    0.0000    0.0000 C   0  0  0  0  0  0  0  0  0  0  0  0
   -3.0000    0.0000    0.0000 C   0  0  0  0  0  0  0  0  0  0  0  0
   -4.5000    0.0000    0.0000 N   0  0  0  0  0  0  0  0  0  0  0  0
   -0.7500    1.2990    0.0000 C   0  0  0  0  0  0  0  0  0  0  0  0
   -1.5000    2.5981    0.0000 S   0  0  0  0  0  0  0  0  0  0  0  0
   -0.7500    3.8971    0.0000 C   0  0  0  0  0  0  0  0  0  0  0  0
   -1.5000    5.1962    0.0000 C   0  0  0  0  0  0  0  0  0  0  0  0
   -3.0000    5.1962    0.0000 O   0  0  0  0  0  0  0  0  0  0  0  0
   -0.7500    6.4952    0.0000 N   0  0  0  0  0  0  0  0  0  0  0  0
   -1.5000    7.7942    0.0000 C   0  0  0  0  0  0  0  0  0  0  0  0
   -0.7500    9.0933    0.0000 C   0  0  0  0  0  0  0  0  0  0  0  0
   -1.5000   10.3923    0.0000 C   0  0  0  0  0  0  0  0  0  0  0  0
   -3.0000   10.3923    0.0000 C   0  0  0  0  0  0  0  0  0  0  0  0
   -3.7500    9.0933    0.0000 C   0  0  0  0  0  0  0  0  0  0  0  0
   -5.2500    9.0933    0.0000 Cl  0  0  0  0  0  0  0  0  0  0  0  0
   -3.0000    7.7942    0.0000 C   0  0  0  0  0  0  0  0  0  0  0  0
   -3.7500    6.4952    0.0000 C   0  0  0  0  0  0  0  0  0  0  0  0
    0.7500    1.2990    0.0000 N   0  0  0  0  0  0  0  0  0  0  0  0
  1  2  1  0
  2  3  2  0
  3  4  1  0
  4  5  1  0
  4  6  2  0
  3  7  1  0
  7  8  1  1
  8  9  2  0
  9 10  1  0
 10 11  2  0
 11 12  1  0
  7 13  1  0
 13 14  1  0
 14 15  3  0
 13 16  2  0
 16 17  1  0
 17 18  1  0
 18 19  1  0
 19 20  2  0
 19 21  1  0
 21 22  1  0
 22 23  2  0
 23 24  1  0
 24 25  2  0
 25 26  1  0
 26 27  1  0
 26 28  2  0
 28 29  1  0
 16 30  1  0
 30  2  1  0
 12  8  1  0
 28 22  1  0
M  END
>  <Compound_ID>  (516) 
C19882976

>  <Active>  (516) 
0

>  <Smiles>  (516) 
CC1=C(C(N)=O)[C@@H](c2ccco2)C(C#N)=C(SCC(=O)Nc2cccc(Cl)c2C)N1

>  <canonical_smi>  (516) 
CC1=C(C(N)=O)[C@@H](c2ccco2)C(C#N)=C(SCC(=O)Nc2cccc(Cl)c2C)N1

>  <Set>  (516) 
G2 inactive

>  <Set_type>  (516) 
Test

>  <MW>  (516) 
442.93

>  <HBD>  (516) 
3

>  <HBA>  (516) 
6

>  <NRB>  (516) 
6

>  <NR>  (516) 
3

>  <NAR>  (516) 
2

>  <PSA>  (516) 
121.15

>  <Standard Type>  (516) 
nan

>  <Standard Relation>  (516) 
nan

>  <Standard Units>  (516) 
nan

>  <Standard Value>  (516) 
nan

>  <Assay ChEMBL ID>  (516) 
nan

>  <Assay Description>  (516) 
nan

>  <BAO Label>  (516) 
nan

$$$$

     RDKit          2D

 20 21  0  0  0  0  0  0  0  0999 V2000
    3.0000    0.0000    0.0000 C   0  0  0  0  0  0  0  0  0  0  0  0
    1.5000    0.0000    0.0000 C   0  0  0  0  0  0  0  0  0  0  0  0
    0.7500   -1.2990    0.0000 C   0  0  0  0  0  0  0  0  0  0  0  0
   -0.7500   -1.2990    0.0000 C   0  0  0  0  0  0  0  0  0  0  0  0
   -1.5000    0.0000    0.0000 C   0  0  0  0  0  0  0  0  0  0  0  0
   -3.0000    0.0000    0.0000 C   0  0  0  0  0  0  0  0  0  0  0  0
   -3.7500   -1.2990    0.0000 O   0  0  0  0  0  0  0  0  0  0  0  0
   -3.7500    1.2990    0.0000 C   0  0  0  0  0  0  0  0  0  0  0  0
   -5.2500    1.2990    0.0000 S   0  0  0  0  0  0  0  0  0  0  0  0
   -6.0000    2.5981    0.0000 C   0  0  0  0  0  0  0  0  0  0  0  0
   -5.2500    3.8971    0.0000 N   0  0  0  0  0  0  0  0  0  0  0  0
   -6.0000    5.1962    0.0000 C   0  0  0  0  0  0  0  0  0  0  0  0
   -5.2500    6.4952    0.0000 N   0  0  0  0  0  0  0  0  0  0  0  0
   -7.5000    5.1962    0.0000 C   0  0  0  0  0  0  0  0  0  0  0  0
   -8.2500    3.8971    0.0000 C   0  0  0  0  0  0  0  0  0  0  0  0
   -9.7500    3.8971    0.0000 N   0  0  0  0  0  0  0  0  0  0  0  0
   -7.5000    2.5981    0.0000 N   0  0  0  0  0  0  0  0  0  0  0  0
   -0.7500    1.2990    0.0000 C   0  0  0  0  0  0  0  0  0  0  0  0
    0.7500    1.2990    0.0000 C   0  0  0  0  0  0  0  0  0  0  0  0
    1.5000    2.5981    0.0000 C   0  0  0  0  0  0  0  0  0  0  0  0
  1  2  1  0
  2  3  2  0
  3  4  1  0
  4  5  2  0
  5  6  1  0
  6  7  2  0
  6  8  1  0
  8  9  1  0
  9 10  1  0
 10 11  2  0
 11 12  1  0
 12 13  1  0
 12 14  2  0
 14 15  1  0
 15 16  1  0
 15 17  2  0
  5 18  1  0
 18 19  2  0
 19 20  1  0
 19  2  1  0
 17 10  1  0
M  END
>  <Compound_ID>  (517) 
C08488050

>  <Active>  (517) 
0

>  <Smiles>  (517) 
Cc1ccc(C(=O)CSc2nc(N)cc(N)n2)cc1C

>  <canonical_smi>  (517) 
Cc1ccc(C(=O)CSc2nc(N)cc(N)n2)cc1C

>  <Set>  (517) 
G2 inactive

>  <Set_type>  (517) 
Test

>  <MW>  (517) 
288.38

>  <HBD>  (517) 
2

>  <HBA>  (517) 
6

>  <NRB>  (517) 
4

>  <NR>  (517) 
2

>  <NAR>  (517) 
2

>  <PSA>  (517) 
94.89

>  <Standard Type>  (517) 
nan

>  <Standard Relation>  (517) 
nan

>  <Standard Units>  (517) 
nan

>  <Standard Value>  (517) 
nan

>  <Assay ChEMBL ID>  (517) 
nan

>  <Assay Description>  (517) 
nan

>  <BAO Label>  (517) 
nan

$$$$

     RDKit          2D

 19 20  0  0  0  0  0  0  0  0999 V2000
    3.0000    0.0000    0.0000 C   0  0  0  0  0  0  0  0  0  0  0  0
    1.5000    0.0000    0.0000 C   0  0  0  0  0  0  0  0  0  0  0  0
    0.7500   -1.2990    0.0000 N   0  0  0  0  0  0  0  0  0  0  0  0
   -0.7500   -1.2990    0.0000 N   0  0  0  0  0  0  0  0  0  0  0  0
   -1.5000    0.0000    0.0000 C   0  0  0  0  0  0  0  0  0  0  0  0
   -3.0000    0.0000    0.0000 N   0  0  0  0  0  0  0  0  0  0  0  0
   -3.7500   -1.2990    0.0000 C   0  0  0  0  0  0  0  0  0  0  0  0
   -5.2500   -1.2990    0.0000 C   0  0  0  0  0  0  0  0  0  0  0  0
   -6.0000   -2.5981    0.0000 C   0  0  0  0  0  0  0  0  0  0  0  0
   -5.2500   -3.8971    0.0000 C   0  0  0  0  0  0  0  0  0  0  0  0
   -3.7500   -3.8971    0.0000 C   0  0  0  0  0  0  0  0  0  0  0  0
   -3.0000   -2.5981    0.0000 C   0  0  0  0  0  0  0  0  0  0  0  0
   -1.5000   -2.5981    0.0000 O   0  0  0  0  0  0  0  0  0  0  0  0
   -0.7500    1.2990    0.0000 C   0  0  0  0  0  0  0  0  0  0  0  0
   -1.5000    2.5981    0.0000 C   0  0  0  0  0  0  0  0  0  0  0  0
   -3.0000    2.5981    0.0000 N   0  0  0  0  0  0  0  0  0  0  0  0
   -0.7500    3.8971    0.0000 S   0  0  0  0  0  0  0  0  0  0  0  0
    0.7500    1.2990    0.0000 C   0  0  0  0  0  0  0  0  0  0  0  0
    1.5000    2.5981    0.0000 C   0  0  0  0  0  0  0  0  0  0  0  0
  1  2  1  0
  2  3  2  0
  3  4  1  0
  4  5  2  0
  5  6  1  0
  7  6  1  1
  7  8  1  0
  8  9  1  0
  9 10  1  0
 10 11  1  0
 11 12  1  0
 12 13  1  1
  5 14  1  0
 14 15  1  0
 15 16  1  0
 15 17  2  0
 14 18  2  0
 18 19  1  0
 18  2  1  0
 12  7  1  0
M  END
>  <Compound_ID>  (518) 
C52010582

>  <Active>  (518) 
0

>  <Smiles>  (518) 
Cc1nnc(N[C@@H]2CCCC[C@@H]2O)c(C(N)=S)c1C

>  <canonical_smi>  (518) 
Cc1nnc(N[C@@H]2CCCC[C@@H]2O)c(C(N)=S)c1C

>  <Set>  (518) 
G2 inactive

>  <Set_type>  (518) 
Test

>  <MW>  (518) 
280.4

>  <HBD>  (518) 
3

>  <HBA>  (518) 
6

>  <NRB>  (518) 
3

>  <NR>  (518) 
2

>  <NAR>  (518) 
1

>  <PSA>  (518) 
84.06

>  <Standard Type>  (518) 
nan

>  <Standard Relation>  (518) 
nan

>  <Standard Units>  (518) 
nan

>  <Standard Value>  (518) 
nan

>  <Assay ChEMBL ID>  (518) 
nan

>  <Assay Description>  (518) 
nan

>  <BAO Label>  (518) 
nan

$$$$

     RDKit          2D

 19 20  0  0  0  0  0  0  0  0999 V2000
   -0.7360   -6.1923    0.0000 C   0  0  0  0  0  0  0  0  0  0  0  0
    0.4775   -7.0740    0.0000 C   0  0  0  0  0  0  0  0  0  0  0  0
    1.8478   -6.4639    0.0000 S   0  0  0  0  0  0  0  0  0  0  0  0
    2.0046   -4.9721    0.0000 C   0  0  0  0  0  0  0  0  0  0  0  0
    3.3037   -4.2221    0.0000 N   0  0  0  0  0  0  0  0  0  0  0  0
    2.9918   -2.7549    0.0000 N   0  0  0  0  0  0  0  0  0  0  0  0
    1.5000   -2.5981    0.0000 C   0  0  0  0  0  0  0  0  0  0  0  0
    0.7500   -1.2990    0.0000 C   0  0  0  0  0  0  0  0  0  0  0  0
    1.5000    0.0000    0.0000 C   0  0  0  0  0  0  0  0  0  0  0  0
    0.7500    1.2990    0.0000 C   0  0  0  0  0  0  0  0  0  0  0  0
   -0.7500    1.2990    0.0000 C   0  0  0  0  0  0  0  0  0  0  0  0
   -1.5000    0.0000    0.0000 C   0  0  0  0  0  0  0  0  0  0  0  0
   -0.7500   -1.2990    0.0000 C   0  0  0  0  0  0  0  0  0  0  0  0
   -1.5000   -2.5981    0.0000 Br  0  0  0  0  0  0  0  0  0  0  0  0
    0.8899   -3.9684    0.0000 N   0  0  0  0  0  0  0  0  0  0  0  0
   -0.5773   -4.2803    0.0000 N   0  0  0  0  0  0  0  0  0  0  0  0
    0.3207   -8.5658    0.0000 C   0  0  0  0  0  0  0  0  0  0  0  0
    1.5342   -9.4474    0.0000 N   0  0  0  0  0  0  0  0  0  0  0  0
   -1.0496   -9.1759    0.0000 O   0  0  0  0  0  0  0  0  0  0  0  0
  2  1  1  1
  2  3  1  0
  3  4  1  0
  4  5  2  0
  5  6  1  0
  6  7  2  0
  7  8  1  0
  8  9  2  0
  9 10  1  0
 10 11  2  0
 11 12  1  0
 12 13  2  0
 13 14  1  0
  7 15  1  0
 15 16  1  0
  2 17  1  0
 17 18  1  0
 17 19  2  0
 15  4  1  0
 13  8  1  0
M  END
>  <Compound_ID>  (519) 
C05449963

>  <Active>  (519) 
0

>  <Smiles>  (519) 
C[C@@H](Sc1nnc(-c2ccccc2Br)n1N)C(N)=O

>  <canonical_smi>  (519) 
C[C@@H](Sc1nnc(-c2ccccc2Br)n1N)C(N)=O

>  <Set>  (519) 
G2 inactive

>  <Set_type>  (519) 
Test

>  <MW>  (519) 
342.22

>  <HBD>  (519) 
2

>  <HBA>  (519) 
5

>  <NRB>  (519) 
4

>  <NR>  (519) 
2

>  <NAR>  (519) 
2

>  <PSA>  (519) 
99.82

>  <Standard Type>  (519) 
nan

>  <Standard Relation>  (519) 
nan

>  <Standard Units>  (519) 
nan

>  <Standard Value>  (519) 
nan

>  <Assay ChEMBL ID>  (519) 
nan

>  <Assay Description>  (519) 
nan

>  <BAO Label>  (519) 
nan

$$$$

     RDKit          2D

 21 23  0  0  0  0  0  0  0  0999 V2000
    3.7500   -1.2990    0.0000 N   0  0  0  0  0  4  0  0  0  0  0  0
    3.0000    0.0000    0.0000 C   0  0  0  0  0  0  0  0  0  0  0  0
    1.5000    0.0000    0.0000 C   0  0  0  0  0  0  0  0  0  0  0  0
    0.7500   -1.2990    0.0000 C   0  0  0  0  0  0  0  0  0  0  0  0
   -0.7500   -1.2990    0.0000 C   0  0  0  0  0  0  0  0  0  0  0  0
   -1.5000    0.0000    0.0000 C   0  0  0  0  0  0  0  0  0  0  0  0
   -0.7500    1.2990    0.0000 N   0  0  0  0  0  0  0  0  0  0  0  0
    0.7500    1.2990    0.0000 C   0  0  0  0  0  0  0  0  0  0  0  0
    1.5000    2.5981    0.0000 N   0  0  0  0  0  0  0  0  0  0  0  0
    3.0000    2.5981    0.0000 C   0  0  0  0  0  0  0  0  0  0  0  0
    3.7500    3.8971    0.0000 C   0  0  0  0  0  0  0  0  0  0  0  0
    3.0000    5.1962    0.0000 N   0  0  0  0  0  0  0  0  0  0  0  0
    3.7500    6.4952    0.0000 C   0  0  0  0  0  0  0  0  0  0  0  0
    5.2500    6.4952    0.0000 C   0  0  0  0  0  0  0  0  0  0  0  0
    6.0000    7.7942    0.0000 C   0  0  0  0  0  0  0  0  0  0  0  0
    5.2500    9.0933    0.0000 C   0  0  0  0  0  0  0  0  0  0  0  0
    3.7500    9.0933    0.0000 C   0  0  0  0  0  0  0  0  0  0  0  0
    3.0000    7.7942    0.0000 C   0  0  0  0  0  0  0  0  0  0  0  0
    1.5000    7.7942    0.0000 Cl  0  0  0  0  0  0  0  0  0  0  0  0
    1.5000    5.1962    0.0000 C   0  0  0  0  0  0  0  0  0  0  0  0
    0.7500    3.8971    0.0000 C   0  0  0  0  0  0  0  0  0  0  0  0
  1  2  1  0
  2  3  1  0
  3  4  2  0
  4  5  1  0
  5  6  2  0
  6  7  1  0
  7  8  2  0
  8  9  1  0
  9 10  1  0
 10 11  1  0
 11 12  1  0
 12 13  1  0
 13 14  2  0
 14 15  1  0
 15 16  2  0
 16 17  1  0
 17 18  2  0
 18 19  1  0
 12 20  1  0
 20 21  1  0
  8  3  1  0
 21  9  1  0
 18 13  1  0
M  CHG  1   1   1
M  END
>  <Compound_ID>  (520) 
C35719738

>  <Active>  (520) 
0

>  <Smiles>  (520) 
[NH3+]Cc1cccnc1N1CCN(c2ccccc2Cl)CC1

>  <canonical_smi>  (520) 
[NH3+]Cc1cccnc1N1CCN(c2ccccc2Cl)CC1

>  <Set>  (520) 
G2 inactive

>  <Set_type>  (520) 
Test

>  <MW>  (520) 
303.82

>  <HBD>  (520) 
1

>  <HBA>  (520) 
3

>  <NRB>  (520) 
3

>  <NR>  (520) 
3

>  <NAR>  (520) 
2

>  <PSA>  (520) 
47.01

>  <Standard Type>  (520) 
nan

>  <Standard Relation>  (520) 
nan

>  <Standard Units>  (520) 
nan

>  <Standard Value>  (520) 
nan

>  <Assay ChEMBL ID>  (520) 
nan

>  <Assay Description>  (520) 
nan

>  <BAO Label>  (520) 
nan

$$$$

     RDKit          2D

 22 23  0  0  0  0  0  0  0  0999 V2000
    5.2500   -2.7990    0.0000 C   0  0  0  0  0  0  0  0  0  0  0  0
    5.2500   -1.2990    0.0000 C   0  0  0  0  0  0  0  0  0  0  0  0
    5.2500    0.2010    0.0000 C   0  0  0  0  0  0  0  0  0  0  0  0
    6.7500   -1.2990    0.0000 C   0  0  0  0  0  0  0  0  0  0  0  0
    3.7500   -1.2990    0.0000 O   0  0  0  0  0  0  0  0  0  0  0  0
    3.0000    0.0000    0.0000 C   0  0  0  0  0  0  0  0  0  0  0  0
    3.7500    1.2990    0.0000 O   0  0  0  0  0  0  0  0  0  0  0  0
    1.5000    0.0000    0.0000 N   0  0  0  0  0  0  0  0  0  0  0  0
    0.7500   -1.2990    0.0000 C   0  0  0  0  0  0  0  0  0  0  0  0
   -0.7500   -1.2990    0.0000 C   0  0  0  0  0  0  0  0  0  0  0  0
   -1.5000    0.0000    0.0000 C   0  0  0  0  0  0  0  0  0  0  0  0
   -3.0000    0.0000    0.0000 N   0  0  0  0  0  4  0  0  0  0  0  0
   -0.7500    1.2990    0.0000 C   0  0  0  0  0  0  0  0  0  0  0  0
   -1.5000    2.5981    0.0000 C   0  0  0  0  0  0  0  0  0  0  0  0
   -0.7500    3.8971    0.0000 C   0  0  0  0  0  0  0  0  0  0  0  0
   -1.5000    5.1962    0.0000 C   0  0  0  0  0  0  0  0  0  0  0  0
   -0.7500    6.4952    0.0000 F   0  0  0  0  0  0  0  0  0  0  0  0
   -3.0000    5.1962    0.0000 C   0  0  0  0  0  0  0  0  0  0  0  0
   -3.7500    3.8971    0.0000 C   0  0  0  0  0  0  0  0  0  0  0  0
   -5.2500    3.8971    0.0000 F   0  0  0  0  0  0  0  0  0  0  0  0
   -3.0000    2.5981    0.0000 C   0  0  0  0  0  0  0  0  0  0  0  0
    0.7500    1.2990    0.0000 C   0  0  0  0  0  0  0  0  0  0  0  0
  1  2  1  0
  2  3  1  0
  2  4  1  0
  2  5  1  0
  5  6  1  0
  6  7  2  0
  6  8  1  0
  8  9  1  0
  9 10  1  0
 10 11  1  0
 11 12  1  1
 11 13  1  0
 13 14  1  1
 14 15  2  0
 15 16  1  0
 16 17  1  0
 16 18  2  0
 18 19  1  0
 19 20  1  0
 19 21  2  0
 13 22  1  0
 22  8  1  0
 21 14  1  0
M  CHG  1  12   1
M  END
>  <Compound_ID>  (521) 
C44136342

>  <Active>  (521) 
0

>  <Smiles>  (521) 
CC(C)(C)OC(=O)N1CC[C@@H]([NH3+])[C@@H](c2cc(F)cc(F)c2)C1

>  <canonical_smi>  (521) 
CC(C)(C)OC(=O)N1CC[C@@H]([NH3+])[C@@H](c2cc(F)cc(F)c2)C1

>  <Set>  (521) 
G2 inactive

>  <Set_type>  (521) 
Test

>  <MW>  (521) 
313.37

>  <HBD>  (521) 
1

>  <HBA>  (521) 
2

>  <NRB>  (521) 
1

>  <NR>  (521) 
2

>  <NAR>  (521) 
1

>  <PSA>  (521) 
57.18

>  <Standard Type>  (521) 
nan

>  <Standard Relation>  (521) 
nan

>  <Standard Units>  (521) 
nan

>  <Standard Value>  (521) 
nan

>  <Assay ChEMBL ID>  (521) 
nan

>  <Assay Description>  (521) 
nan

>  <BAO Label>  (521) 
nan

$$$$

     RDKit          2D

 20 22  0  0  0  0  0  0  0  0999 V2000
    4.6740   -4.8322    0.0000 C   0  0  0  0  0  0  0  0  0  0  0  0
    3.3037   -4.2221    0.0000 N   0  0  0  0  0  0  0  0  0  0  0  0
    2.9918   -2.7549    0.0000 N   0  0  0  0  0  4  0  0  0  0  0  0
    1.5000   -2.5981    0.0000 C   0  0  0  0  0  0  0  0  0  0  0  0
    0.7500   -1.2990    0.0000 C   0  0  0  0  0  0  0  0  0  0  0  0
    1.5000    0.0000    0.0000 C   0  0  0  0  0  0  0  0  0  0  0  0
    0.7500    1.2990    0.0000 C   0  0  0  0  0  0  0  0  0  0  0  0
   -0.7500    1.2990    0.0000 O   0  0  0  0  0  0  0  0  0  0  0  0
   -1.5000    0.0000    0.0000 C   0  0  0  0  0  0  0  0  0  0  0  0
   -0.7500   -1.2990    0.0000 C   0  0  0  0  0  0  0  0  0  0  0  0
    0.8899   -3.9684    0.0000 C   0  0  0  0  0  0  0  0  0  0  0  0
   -0.5773   -4.2803    0.0000 C   0  0  0  0  0  0  0  0  0  0  0  0
   -1.5810   -3.1655    0.0000 C   0  0  0  0  0  0  0  0  0  0  0  0
   -3.0482   -3.4774    0.0000 C   0  0  0  0  0  0  0  0  0  0  0  0
   -3.5118   -4.9040    0.0000 C   0  0  0  0  0  0  0  0  0  0  0  0
   -4.9790   -5.2159    0.0000 Br  0  0  0  0  0  0  0  0  0  0  0  0
   -2.5081   -6.0187    0.0000 C   0  0  0  0  0  0  0  0  0  0  0  0
   -1.0409   -5.7068    0.0000 C   0  0  0  0  0  0  0  0  0  0  0  0
    2.0046   -4.9721    0.0000 C   0  0  0  0  0  0  0  0  0  0  0  0
    1.8478   -6.4639    0.0000 N   0  0  0  0  0  0  0  0  0  0  0  0
  1  2  1  0
  2  3  1  0
  3  4  2  0
  4  5  1  0
  5  6  1  0
  6  7  1  0
  7  8  1  0
  8  9  1  0
  9 10  1  0
  4 11  1  0
 11 12  1  0
 12 13  2  0
 13 14  1  0
 14 15  2  0
 15 16  1  0
 15 17  1  0
 17 18  2  0
 11 19  2  0
 19 20  1  0
 19  2  1  0
 10  5  1  0
 18 12  1  0
M  CHG  1   3   1
M  END
>  <Compound_ID>  (522) 
C61672527

>  <Active>  (522) 
0

>  <Smiles>  (522) 
Cn1[nH+]c(C2CCOCC2)c(-c2ccc(Br)cc2)c1N

>  <canonical_smi>  (522) 
Cn1[nH+]c(C2CCOCC2)c(-c2ccc(Br)cc2)c1N

>  <Set>  (522) 
G2 inactive

>  <Set_type>  (522) 
Test

>  <MW>  (522) 
337.24

>  <HBD>  (522) 
1

>  <HBA>  (522) 
2

>  <NRB>  (522) 
2

>  <NR>  (522) 
3

>  <NAR>  (522) 
2

>  <PSA>  (522) 
54.32

>  <Standard Type>  (522) 
nan

>  <Standard Relation>  (522) 
nan

>  <Standard Units>  (522) 
nan

>  <Standard Value>  (522) 
nan

>  <Assay ChEMBL ID>  (522) 
nan

>  <Assay Description>  (522) 
nan

>  <BAO Label>  (522) 
nan

$$$$

     RDKit          2D

 14 14  0  0  0  0  0  0  0  0999 V2000
    2.3907    1.0037    0.0000 C   0  0  0  0  0  0  0  0  0  0  0  0
    1.2760    0.0000    0.0000 C   0  0  0  0  0  0  0  0  0  0  0  0
    2.3907   -1.0037    0.0000 C   0  0  0  0  0  0  0  0  0  0  0  0
    0.3943    1.2135    0.0000 C   0  0  0  0  0  0  0  0  0  0  0  0
   -1.0323    0.7500    0.0000 C   0  0  0  0  0  0  0  0  0  0  0  0
   -2.2458    1.6317    0.0000 C   0  0  0  0  0  0  0  0  0  0  0  0
   -3.6161    1.0216    0.0000 O   0  0  0  0  0  0  0  0  0  0  0  0
   -2.0890    3.1235    0.0000 N   0  0  0  0  0  0  0  0  0  0  0  0
   -3.3025    4.0051    0.0000 N   0  0  0  0  0  0  0  0  0  0  0  0
   -1.0323   -0.7500    0.0000 C   0  0  0  0  0  0  0  0  0  0  0  0
   -1.3442   -2.2172    0.0000 C   0  0  0  0  0  0  0  0  0  0  0  0
   -2.5241   -0.5932    0.0000 C   0  0  0  0  0  0  0  0  0  0  0  0
    0.3943   -1.2135    0.0000 N   0  0  0  0  0  0  0  0  0  0  0  0
    0.8578   -2.6401    0.0000 O   0  0  0  0  0  0  0  0  0  0  0  0
  1  2  1  0
  2  3  1  0
  2  4  1  0
  4  5  1  0
  5  6  1  1
  6  7  2  0
  6  8  1  0
  8  9  1  0
  5 10  1  0
 10 11  1  0
 10 12  1  0
 10 13  1  0
 13 14  1  0
 13  2  1  0
M  END
>  <Compound_ID>  (523) 
C27788522

>  <Active>  (523) 
0

>  <Smiles>  (523) 
CC1(C)C[C@H](C(=O)NN)C(C)(C)N1O

>  <canonical_smi>  (523) 
CC1(C)C[C@H](C(=O)NN)C(C)(C)N1O

>  <Set>  (523) 
G2 inactive

>  <Set_type>  (523) 
Test

>  <MW>  (523) 
201.27

>  <HBD>  (523) 
3

>  <HBA>  (523) 
4

>  <NRB>  (523) 
1

>  <NR>  (523) 
1

>  <NAR>  (523) 
0

>  <PSA>  (523) 
78.59

>  <Standard Type>  (523) 
nan

>  <Standard Relation>  (523) 
nan

>  <Standard Units>  (523) 
nan

>  <Standard Value>  (523) 
nan

>  <Assay ChEMBL ID>  (523) 
nan

>  <Assay Description>  (523) 
nan

>  <BAO Label>  (523) 
nan

$$$$

     RDKit          2D

 21 23  0  0  0  0  0  0  0  0999 V2000
   -5.0247   -7.0054    0.0000 C   0  0  0  0  0  0  0  0  0  0  0  0
   -4.2299   -5.7333    0.0000 C   0  0  0  0  0  0  0  0  0  0  0  0
   -2.7308   -5.7856    0.0000 C   0  0  0  0  0  0  0  0  0  0  0  0
   -1.9359   -4.5136    0.0000 C   0  0  0  0  0  0  0  0  0  0  0  0
   -2.6401   -3.1891    0.0000 C   0  0  0  0  0  0  0  0  0  0  0  0
   -2.8489   -1.7037    0.0000 N   0  0  0  0  0  4  0  0  0  0  0  0
   -1.2135   -2.7256    0.0000 C   0  0  0  0  0  0  0  0  0  0  0  0
   -0.0000   -3.6073    0.0000 N   0  0  0  0  0  0  0  0  0  0  0  0
    1.2135   -2.7256    0.0000 N   0  0  0  0  0  0  0  0  0  0  0  0
    0.7500   -1.2990    0.0000 C   0  0  0  0  0  0  0  0  0  0  0  0
    1.5000    0.0000    0.0000 C   0  0  0  0  0  0  0  0  0  0  0  0
    0.7500    1.2990    0.0000 C   0  0  0  0  0  0  0  0  0  0  0  0
   -0.7500    1.2990    0.0000 C   0  0  0  0  0  0  0  0  0  0  0  0
   -1.5000    2.5981    0.0000 C   0  0  0  0  0  0  0  0  0  0  0  0
   -2.2500    3.8971    0.0000 F   0  0  0  0  0  0  0  0  0  0  0  0
   -0.2010    3.3481    0.0000 F   0  0  0  0  0  0  0  0  0  0  0  0
   -2.7990    1.8481    0.0000 F   0  0  0  0  0  0  0  0  0  0  0  0
   -1.5000    0.0000    0.0000 C   0  0  0  0  0  0  0  0  0  0  0  0
   -0.7500   -1.2990    0.0000 N   0  0  0  0  0  0  0  0  0  0  0  0
   -4.1392   -3.1368    0.0000 C   0  0  0  0  0  0  0  0  0  0  0  0
   -4.9341   -4.4089    0.0000 C   0  0  0  0  0  0  0  0  0  0  0  0
  1  2  1  0
  2  3  1  0
  3  4  1  0
  4  5  1  0
  5  6  1  0
  5  7  1  0
  7  8  2  0
  8  9  1  0
  9 10  2  0
 10 11  1  0
 11 12  2  0
 12 13  1  0
 13 14  1  0
 14 15  1  0
 14 16  1  0
 14 17  1  0
 13 18  2  0
 18 19  1  0
  5 20  1  0
 20 21  1  0
 21  2  1  0
 19  7  1  0
 19 10  1  0
M  CHG  1   6   1
M  END
>  <Compound_ID>  (524) 
C41033404

>  <Active>  (524) 
0

>  <Smiles>  (524) 
CC1CCC([NH3+])(c2nnc3ccc(C(F)(F)F)cn23)CC1

>  <canonical_smi>  (524) 
CC1CCC([NH3+])(c2nnc3ccc(C(F)(F)F)cn23)CC1

>  <Set>  (524) 
G2 inactive

>  <Set_type>  (524) 
Test

>  <MW>  (524) 
299.32

>  <HBD>  (524) 
1

>  <HBA>  (524) 
2

>  <NRB>  (524) 
1

>  <NR>  (524) 
3

>  <NAR>  (524) 
2

>  <PSA>  (524) 
57.83

>  <Standard Type>  (524) 
nan

>  <Standard Relation>  (524) 
nan

>  <Standard Units>  (524) 
nan

>  <Standard Value>  (524) 
nan

>  <Assay ChEMBL ID>  (524) 
nan

>  <Assay Description>  (524) 
nan

>  <BAO Label>  (524) 
nan

$$$$

     RDKit          2D

 24 24  0  0  0  0  0  0  0  0999 V2000
    3.7500   -1.2990    0.0000 C   0  0  0  0  0  0  0  0  0  0  0  0
    3.0000    0.0000    0.0000 C   0  0  0  0  0  0  0  0  0  0  0  0
    3.7500    1.2990    0.0000 C   0  0  0  0  0  0  0  0  0  0  0  0
    1.5000    0.0000    0.0000 C   0  0  0  0  0  0  0  0  0  0  0  0
    0.7500   -1.2990    0.0000 C   0  0  0  0  0  0  0  0  0  0  0  0
   -0.7500   -1.2990    0.0000 C   0  0  0  0  0  0  0  0  0  0  0  0
   -1.5000   -2.5981    0.0000 C   0  0  0  0  0  0  0  0  0  0  0  0
   -0.7500   -3.8971    0.0000 O   0  0  0  0  0  0  0  0  0  0  0  0
   -3.0000   -2.5981    0.0000 O   0  0  0  0  0  0  0  0  0  0  0  0
   -3.7500   -3.8971    0.0000 C   0  0  0  0  0  0  0  0  0  0  0  0
   -5.2500   -3.8971    0.0000 C   0  0  0  0  0  0  0  0  0  0  0  0
   -3.0000   -5.1962    0.0000 C   0  0  0  0  0  0  0  0  0  0  0  0
   -1.5000   -5.1962    0.0000 O   0  0  0  0  0  0  0  0  0  0  0  0
   -3.7500   -6.4952    0.0000 N   0  0  0  0  0  0  0  0  0  0  0  0
   -3.0000   -7.7942    0.0000 C   0  0  0  0  0  0  0  0  0  0  0  0
   -3.7500   -9.0933    0.0000 N   0  0  0  0  0  0  0  0  0  0  0  0
   -1.5000   -7.7942    0.0000 O   0  0  0  0  0  0  0  0  0  0  0  0
   -1.5000    0.0000    0.0000 C   0  0  0  0  0  0  0  0  0  0  0  0
   -3.0000    0.0000    0.0000 O   0  0  0  0  0  0  0  0  0  0  0  0
   -0.7500    1.2990    0.0000 C   0  0  0  0  0  0  0  0  0  0  0  0
   -1.5000    2.5981    0.0000 C   0  0  0  0  0  0  0  0  0  0  0  0
   -0.7500    3.8971    0.0000 C   0  0  0  0  0  0  0  0  0  0  0  0
   -3.0000    2.5981    0.0000 C   0  0  0  0  0  0  0  0  0  0  0  0
    0.7500    1.2990    0.0000 C   0  0  0  0  0  0  0  0  0  0  0  0
  1  2  1  0
  2  3  1  0
  2  4  1  0
  4  5  2  0
  5  6  1  0
  6  7  1  0
  7  8  2  0
  7  9  1  0
  9 10  1  0
 10 11  1  1
 10 12  1  0
 12 13  2  0
 12 14  1  0
 14 15  1  0
 15 16  1  0
 15 17  2  0
  6 18  2  0
 18 19  1  0
 18 20  1  0
 20 21  1  0
 21 22  1  0
 21 23  1  0
 20 24  2  0
 24  4  1  0
M  END
>  <Compound_ID>  (525) 
C07204894

>  <Active>  (525) 
0

>  <Smiles>  (525) 
CC(C)c1cc(C(=O)O[C@H](C)C(=O)NC(N)=O)c(O)c(C(C)C)c1

>  <canonical_smi>  (525) 
CC(C)c1cc(C(=O)O[C@H](C)C(=O)NC(N)=O)c(O)c(C(C)C)c1

>  <Set>  (525) 
G2 inactive

>  <Set_type>  (525) 
Test

>  <MW>  (525) 
336.39

>  <HBD>  (525) 
3

>  <HBA>  (525) 
5

>  <NRB>  (525) 
5

>  <NR>  (525) 
1

>  <NAR>  (525) 
1

>  <PSA>  (525) 
118.72

>  <Standard Type>  (525) 
nan

>  <Standard Relation>  (525) 
nan

>  <Standard Units>  (525) 
nan

>  <Standard Value>  (525) 
nan

>  <Assay ChEMBL ID>  (525) 
nan

>  <Assay Description>  (525) 
nan

>  <BAO Label>  (525) 
nan

$$$$

     RDKit          2D

 21 23  0  0  0  0  0  0  0  0999 V2000
    4.6740   -4.8322    0.0000 N   0  0  0  0  0  0  0  0  0  0  0  0
    3.3037   -4.2221    0.0000 C   0  0  0  0  0  0  0  0  0  0  0  0
    2.9918   -2.7549    0.0000 N   0  0  0  0  0  0  0  0  0  0  0  0
    1.5000   -2.5981    0.0000 C   0  0  0  0  0  0  0  0  0  0  0  0
    0.7500   -1.2990    0.0000 C   0  0  0  0  0  0  0  0  0  0  0  0
    1.5000    0.0000    0.0000 C   0  0  0  0  0  0  0  0  0  0  0  0
    0.7500    1.2990    0.0000 C   0  0  0  0  0  0  0  0  0  0  0  0
   -0.7500    1.2990    0.0000 C   0  0  0  0  0  0  0  0  0  0  0  0
   -1.5000    0.0000    0.0000 C   0  0  0  0  0  0  0  0  0  0  0  0
   -0.7500   -1.2990    0.0000 C   0  0  0  0  0  0  0  0  0  0  0  0
    0.8899   -3.9684    0.0000 C   0  0  0  0  0  0  0  0  0  0  0  0
    2.0046   -4.9721    0.0000 N   0  0  0  0  0  0  0  0  0  0  0  0
    1.8478   -6.4639    0.0000 N   0  0  0  0  0  0  0  0  0  0  0  0
    0.4775   -7.0740    0.0000 C   0  0  0  0  0  0  0  0  0  0  0  0
    0.3207   -8.5658    0.0000 C   0  0  0  0  0  0  0  0  0  0  0  0
   -1.0496   -9.1759    0.0000 C   0  0  0  0  0  0  0  0  0  0  0  0
   -1.2064  -10.6676    0.0000 C   0  0  0  0  0  0  0  0  0  0  0  0
    0.0071  -11.5493    0.0000 C   0  0  0  0  0  0  0  0  0  0  0  0
   -0.1497  -13.0411    0.0000 Cl  0  0  0  0  0  0  0  0  0  0  0  0
    1.3774  -10.9392    0.0000 C   0  0  0  0  0  0  0  0  0  0  0  0
    1.5342   -9.4474    0.0000 C   0  0  0  0  0  0  0  0  0  0  0  0
  1  2  1  0
  2  3  2  0
  3  4  1  0
  4  5  1  0
  5  6  2  0
  6  7  1  0
  7  8  2  0
  8  9  1  0
  9 10  2  0
  4 11  2  0
 11 12  1  0
 12 13  1  0
 13 14  2  0
 14 15  1  0
 15 16  2  0
 16 17  1  0
 17 18  2  0
 18 19  1  0
 18 20  1  0
 20 21  2  0
 12  2  1  0
 21 15  1  0
 10  5  1  0
M  END
>  <Compound_ID>  (526) 
C05646867

>  <Active>  (526) 
0

>  <Smiles>  (526) 
Nc1nc(-c2ccccc2)cn1/N=C/c1ccc(Cl)cc1

>  <canonical_smi>  (526) 
Nc1nc(-c2ccccc2)cn1/N=C/c1ccc(Cl)cc1

>  <Set>  (526) 
G2 inactive

>  <Set_type>  (526) 
Test

>  <MW>  (526) 
296.76

>  <HBD>  (526) 
1

>  <HBA>  (526) 
2

>  <NRB>  (526) 
3

>  <NR>  (526) 
3

>  <NAR>  (526) 
3

>  <PSA>  (526) 
56.2

>  <Standard Type>  (526) 
nan

>  <Standard Relation>  (526) 
nan

>  <Standard Units>  (526) 
nan

>  <Standard Value>  (526) 
nan

>  <Assay ChEMBL ID>  (526) 
nan

>  <Assay Description>  (526) 
nan

>  <BAO Label>  (526) 
nan

$$$$

     RDKit          2D

 22 24  0  0  0  0  0  0  0  0999 V2000
    3.0000    0.0000    0.0000 C   0  0  0  0  0  0  0  0  0  0  0  0
    1.5000    0.0000    0.0000 C   0  0  0  0  0  0  0  0  0  0  0  0
    0.7500   -1.2990    0.0000 N   0  0  0  0  0  0  0  0  0  0  0  0
   -0.7500   -1.2990    0.0000 C   0  0  0  0  0  0  0  0  0  0  0  0
   -1.5000   -2.5981    0.0000 O   0  0  0  0  0  0  0  0  0  0  0  0
   -1.5000    0.0000    0.0000 N   0  0  0  0  0  0  0  0  0  0  0  0
   -3.0000    0.0000    0.0000 C   0  0  0  0  0  0  0  0  0  0  0  0
   -0.7500    1.2990    0.0000 C   0  0  0  0  0  0  0  0  0  0  0  0
   -1.5000    2.5981    0.0000 N   0  0  0  0  0  4  0  0  0  0  0  0
   -0.7500    3.8971    0.0000 C   0  0  0  0  0  0  0  0  0  0  0  0
   -1.5000    5.1962    0.0000 O   0  0  0  0  0  0  0  0  0  0  0  0
    0.7500    3.8971    0.0000 N   0  0  0  0  0  0  0  0  0  0  0  0
    1.5000    5.1962    0.0000 C   0  0  0  0  0  0  0  0  0  0  0  0
    1.5000    2.5981    0.0000 C   0  0  0  0  0  0  0  0  0  0  0  0
    3.0000    2.5981    0.0000 C   0  0  0  0  0  0  0  0  0  0  0  0
    3.7500    1.2990    0.0000 C   0  0  0  0  0  0  0  0  0  0  0  0
    5.2500    1.2990    0.0000 C   0  0  0  0  0  0  0  0  0  0  0  0
    6.0000    2.5981    0.0000 C   0  0  0  0  0  0  0  0  0  0  0  0
    5.2500    3.8971    0.0000 C   0  0  0  0  0  0  0  0  0  0  0  0
    6.0000    5.1962    0.0000 O   0  0  0  0  0  0  0  0  0  0  0  0
    3.7500    3.8971    0.0000 C   0  0  0  0  0  0  0  0  0  0  0  0
    0.7500    1.2990    0.0000 C   0  0  0  0  0  0  0  0  0  0  0  0
  2  1  1  1
  2  3  1  0
  3  4  1  0
  4  5  2  0
  4  6  1  0
  6  7  1  0
  8  6  1  1
  8  9  1  0
  9 10  2  0
 10 11  1  0
 10 12  1  0
 12 13  1  0
 12 14  1  0
 14 15  1  1
 15 16  2  0
 16 17  1  0
 17 18  2  0
 18 19  1  0
 19 20  1  0
 19 21  2  0
 22 14  1  6
 22  2  1  0
 22  8  1  0
 21 15  1  0
M  CHG  1   9   1
M  END
>  <Compound_ID>  (527) 
C00525524

>  <Active>  (527) 
0

>  <Smiles>  (527) 
C[C@H]1NC(=O)N(C)[C@H]2[NH+]=C(O)N(C)[C@@H](c3cccc(O)c3)[C@H]12

>  <canonical_smi>  (527) 
C[C@H]1NC(=O)N(C)[C@H]2[NH+]=C(O)N(C)[C@@H](c3cccc(O)c3)[C@@H]21

>  <Set>  (527) 
G2 inactive

>  <Set_type>  (527) 
Test

>  <MW>  (527) 
305.36

>  <HBD>  (527) 
4

>  <HBA>  (527) 
4

>  <NRB>  (527) 
1

>  <NR>  (527) 
3

>  <NAR>  (527) 
1

>  <PSA>  (527) 
90.01

>  <Standard Type>  (527) 
nan

>  <Standard Relation>  (527) 
nan

>  <Standard Units>  (527) 
nan

>  <Standard Value>  (527) 
nan

>  <Assay ChEMBL ID>  (527) 
nan

>  <Assay Description>  (527) 
nan

>  <BAO Label>  (527) 
nan

$$$$

     RDKit          2D

 19 20  0  0  0  0  0  0  0  0999 V2000
    2.4227   -6.8783    0.0000 C   0  0  0  0  0  0  0  0  0  0  0  0
    3.8899   -6.5665    0.0000 C   0  0  0  0  0  0  0  0  0  0  0  0
    5.0046   -7.5702    0.0000 N   0  0  0  0  0  0  0  0  0  0  0  0
    6.3037   -6.8202    0.0000 C   0  0  0  0  0  0  0  0  0  0  0  0
    7.6740   -7.4303    0.0000 O   0  0  0  0  0  0  0  0  0  0  0  0
    5.9918   -5.3529    0.0000 S   0  0  0  0  0  0  0  0  0  0  0  0
    4.5000   -5.1962    0.0000 C   0  0  0  0  0  0  0  0  0  0  0  0
    3.7500   -3.8971    0.0000 S   0  0  0  0  0  0  0  0  0  0  0  0
    2.4510   -4.6471    0.0000 O   0  0  0  0  0  0  0  0  0  0  0  0
    5.0490   -3.1471    0.0000 O   0  0  0  0  0  0  0  0  0  0  0  0
    3.0000   -2.5981    0.0000 N   0  0  0  0  0  0  0  0  0  0  0  0
    1.5000   -2.5981    0.0000 C   0  0  0  0  0  0  0  0  0  0  0  0
    0.7500   -3.8971    0.0000 C   0  0  0  0  0  0  0  0  0  0  0  0
    0.7500   -1.2990    0.0000 C   0  0  0  0  0  0  0  0  0  0  0  0
    1.5000    0.0000    0.0000 C   0  0  0  0  0  0  0  0  0  0  0  0
    0.7500    1.2990    0.0000 C   0  0  0  0  0  0  0  0  0  0  0  0
   -0.7500    1.2990    0.0000 C   0  0  0  0  0  0  0  0  0  0  0  0
   -1.5000    0.0000    0.0000 N   0  0  0  0  0  4  0  0  0  0  0  0
   -0.7500   -1.2990    0.0000 C   0  0  0  0  0  0  0  0  0  0  0  0
  1  2  1  0
  2  3  1  0
  3  4  1  0
  4  5  2  0
  4  6  1  0
  6  7  1  0
  7  8  1  0
  8  9  2  0
  8 10  2  0
  8 11  1  0
 11 12  1  0
 12 13  1  1
 12 14  1  0
 14 15  1  6
 15 16  1  0
 16 17  1  0
 17 18  1  0
 18 19  1  0
  7  2  2  0
 19 14  1  0
M  CHG  1  18   1
M  END
>  <Compound_ID>  (528) 
C50163383

>  <Active>  (528) 
0

>  <Smiles>  (528) 
Cc1[nH]c(=O)sc1S(=O)(=O)N[C@@H](C)[C@H]1CCC[NH2+]C1

>  <canonical_smi>  (528) 
Cc1[nH]c(=O)sc1S(=O)(=O)N[C@@H](C)[C@H]1CCC[NH2+]C1

>  <Set>  (528) 
G2 inactive

>  <Set_type>  (528) 
Test

>  <MW>  (528) 
306.43

>  <HBD>  (528) 
3

>  <HBA>  (528) 
3

>  <NRB>  (528) 
4

>  <NR>  (528) 
2

>  <NAR>  (528) 
1

>  <PSA>  (528) 
95.64

>  <Standard Type>  (528) 
nan

>  <Standard Relation>  (528) 
nan

>  <Standard Units>  (528) 
nan

>  <Standard Value>  (528) 
nan

>  <Assay ChEMBL ID>  (528) 
nan

>  <Assay Description>  (528) 
nan

>  <BAO Label>  (528) 
nan

$$$$

     RDKit          2D

 26 29  0  0  0  0  0  0  0  0999 V2000
    3.8556   -6.5389    0.0000 H   0  0  0  0  0  0  0  0  0  0  0  0
    2.3638   -6.3821    0.0000 N   0  0  0  0  0  0  0  0  0  0  0  0
    1.7537   -5.0118    0.0000 C   0  0  0  0  0  0  0  0  0  0  0  0
    2.5037   -3.7128    0.0000 N   0  0  0  0  0  0  0  0  0  0  0  0
    1.5000   -2.5981    0.0000 C   0  0  0  0  0  0  0  0  0  0  0  0
    0.7500   -1.2990    0.0000 C   0  0  0  0  0  0  0  0  0  0  0  0
    1.5000    0.0000    0.0000 C   0  0  0  0  0  0  0  0  0  0  0  0
    0.7500    1.2990    0.0000 C   0  0  0  0  0  0  0  0  0  0  0  0
   -0.7500    1.2990    0.0000 N   0  0  0  0  0  0  0  0  0  0  0  0
   -1.5000    0.0000    0.0000 C   0  0  0  0  0  0  0  0  0  0  0  0
   -0.7500   -1.2990    0.0000 C   0  0  0  0  0  0  0  0  0  0  0  0
    2.7135   -1.7164    0.0000 C   0  0  0  0  0  0  0  0  0  0  0  0
    4.0838   -2.3265    0.0000 C   0  0  0  0  0  0  0  0  0  0  0  0
    5.2974   -1.4448    0.0000 C   0  0  0  0  0  0  0  0  0  0  0  0
    5.1406    0.0470    0.0000 C   0  0  0  0  0  0  0  0  0  0  0  0
    3.7703    0.6571    0.0000 C   0  0  0  0  0  0  0  0  0  0  0  0
    3.6135    2.1488    0.0000 C   0  0  0  0  0  0  0  0  0  0  0  0
    2.3144    2.8988    0.0000 C   0  0  0  0  0  0  0  0  0  0  0  0
    2.6263    4.3661    0.0000 C   0  0  0  0  0  0  0  0  0  0  0  0
    4.1181    4.5229    0.0000 S   0  0  0  0  0  0  0  0  0  0  0  0
    4.7282    3.1525    0.0000 C   0  0  0  0  0  0  0  0  0  0  0  0
    2.5567   -0.2246    0.0000 C   0  0  0  0  0  0  0  0  0  0  0  0
    0.1297   -3.2082    0.0000 C   0  0  0  0  0  0  0  0  0  0  0  0
   -1.1694   -2.4582    0.0000 O   0  0  0  0  0  0  0  0  0  0  0  0
    0.2865   -4.7000    0.0000 N   0  0  0  0  0  0  0  0  0  0  0  0
   -0.8282   -5.7037    0.0000 C   0  0  0  0  0  0  0  0  0  0  0  0
  1  2  1  0
  2  3  2  0
  3  4  1  0
  4  5  1  0
  5  6  1  6
  6  7  2  0
  7  8  1  0
  8  9  2  0
  9 10  1  0
 10 11  2  0
  5 12  1  0
 12 13  2  0
 13 14  1  0
 14 15  2  0
 15 16  1  0
 16 17  1  0
 17 18  1  0
 18 19  2  0
 19 20  1  0
 20 21  1  0
 16 22  2  0
  5 23  1  0
 23 24  2  0
 23 25  1  0
 25 26  1  0
 25  3  1  0
 11  6  1  0
 22 12  1  0
 21 17  2  0
M  END
>  <Compound_ID>  (529) 
C34804561

>  <Active>  (529) 
0

>  <Smiles>  (529) 
[H]/N=C1\N[C@](c2ccncc2)(c2cccc(-c3ccsc3)c2)C(=O)N1C

>  <canonical_smi>  (529) 
[H]/N=C1\N[C@](c2ccncc2)(c2cccc(-c3ccsc3)c2)C(=O)N1C

>  <Set>  (529) 
G2 inactive

>  <Set_type>  (529) 
Test

>  <MW>  (529) 
348.43

>  <HBD>  (529) 
2

>  <HBA>  (529) 
3

>  <NRB>  (529) 
3

>  <NR>  (529) 
4

>  <NAR>  (529) 
3

>  <PSA>  (529) 
69.08

>  <Standard Type>  (529) 
nan

>  <Standard Relation>  (529) 
nan

>  <Standard Units>  (529) 
nan

>  <Standard Value>  (529) 
nan

>  <Assay ChEMBL ID>  (529) 
nan

>  <Assay Description>  (529) 
nan

>  <BAO Label>  (529) 
nan

$$$$

     RDKit          2D

 22 23  0  0  0  0  0  0  0  0999 V2000
    4.8187    6.0424    0.0000 C   0  0  0  0  0  0  0  0  0  0  0  0
    3.8835    4.8697    0.0000 C   0  0  0  0  0  0  0  0  0  0  0  0
    4.4315    3.4734    0.0000 C   0  0  0  0  0  0  0  0  0  0  0  0
    3.4962    2.3006    0.0000 C   0  0  0  0  0  0  0  0  0  0  0  0
    4.0442    0.9043    0.0000 C   0  0  0  0  0  0  0  0  0  0  0  0
    2.0130    2.5242    0.0000 C   0  0  0  0  0  0  0  0  0  0  0  0
    1.0777    1.3515    0.0000 C   0  0  0  0  0  0  0  0  0  0  0  0
    1.7286    0.0000    0.0000 C   0  0  0  0  0  0  0  0  0  0  0  0
    1.0777   -1.3515    0.0000 C   0  0  0  0  0  0  0  0  0  0  0  0
    2.0130   -2.5242    0.0000 C   0  0  0  0  0  0  0  0  0  0  0  0
    0.8402   -3.4594    0.0000 F   0  0  0  0  0  0  0  0  0  0  0  0
    3.1857   -1.5890    0.0000 F   0  0  0  0  0  0  0  0  0  0  0  0
    2.9482   -3.6969    0.0000 C   0  0  0  0  0  0  0  0  0  0  0  0
    4.4315   -3.4734    0.0000 F   0  0  0  0  0  0  0  0  0  0  0  0
    2.4002   -5.0933    0.0000 F   0  0  0  0  0  0  0  0  0  0  0  0
   -0.3846   -1.6852    0.0000 N   0  0  0  0  0  0  0  0  0  0  0  0
   -1.5574   -0.7500    0.0000 C   0  0  0  0  0  0  0  0  0  0  0  0
   -1.5574    0.7500    0.0000 C   0  0  0  0  0  0  0  0  0  0  0  0
   -0.3846    1.6852    0.0000 N   0  0  0  0  0  0  0  0  0  0  0  0
    1.4650    3.9205    0.0000 C   0  0  0  0  0  0  0  0  0  0  0  0
   -0.0183    4.1441    0.0000 O   0  0  0  0  0  0  0  0  0  0  0  0
    2.4002    5.0933    0.0000 N   0  0  0  0  0  0  0  0  0  0  0  0
  1  2  2  0
  2  3  1  0
  3  4  2  0
  4  5  1  0
  4  6  1  0
  6  7  1  1
  7  8  2  0
  8  9  1  0
  9 10  1  0
 10 11  1  0
 10 12  1  0
 10 13  1  0
 13 14  1  0
 13 15  1  0
  9 16  2  0
 16 17  1  0
 17 18  1  0
 18 19  1  0
  6 20  1  0
 20 21  2  0
 20 22  1  0
 22  2  1  0
 19  7  1  0
M  END
>  <Compound_ID>  (530) 
C39215201

>  <Active>  (530) 
0

>  <Smiles>  (530) 
C=C1C=C(C)[C@@H](C2=CC(C(F)(F)C(F)F)=NCCN2)C(=O)N1

>  <canonical_smi>  (530) 
C=C1C=C(C)[C@@H](C2=CC(C(F)(F)C(F)F)=NCCN2)C(=O)N1

>  <Set>  (530) 
G2 inactive

>  <Set_type>  (530) 
Test

>  <MW>  (530) 
317.29

>  <HBD>  (530) 
2

>  <HBA>  (530) 
2

>  <NRB>  (530) 
3

>  <NR>  (530) 
2

>  <NAR>  (530) 
0

>  <PSA>  (530) 
53.49

>  <Standard Type>  (530) 
nan

>  <Standard Relation>  (530) 
nan

>  <Standard Units>  (530) 
nan

>  <Standard Value>  (530) 
nan

>  <Assay ChEMBL ID>  (530) 
nan

>  <Assay Description>  (530) 
nan

>  <BAO Label>  (530) 
nan

$$$$

     RDKit          2D

 28 30  0  0  0  0  0  0  0  0999 V2000
    3.0000    0.0000    0.0000 C   0  0  0  0  0  0  0  0  0  0  0  0
    1.5000    0.0000    0.0000 C   0  0  0  0  0  0  0  0  0  0  0  0
    0.7500   -1.2990    0.0000 C   0  0  0  0  0  0  0  0  0  0  0  0
   -0.7500   -1.2990    0.0000 C   0  0  0  0  0  0  0  0  0  0  0  0
   -1.5000    0.0000    0.0000 C   0  0  0  0  0  0  0  0  0  0  0  0
   -3.0000    0.0000    0.0000 O   0  0  0  0  0  0  0  0  0  0  0  0
   -0.7500    1.2990    0.0000 C   0  0  0  0  0  0  0  0  0  0  0  0
   -1.5000    2.5981    0.0000 C   0  0  0  0  0  0  0  0  0  0  0  0
   -3.0000    2.5981    0.0000 O   0  0  0  0  0  0  0  0  0  0  0  0
   -0.7500    3.8971    0.0000 N   0  0  0  0  0  0  0  0  0  0  0  0
   -1.5000    5.1962    0.0000 N   0  0  0  0  0  0  0  0  0  0  0  0
   -0.7500    6.4952    0.0000 C   0  0  0  0  0  0  0  0  0  0  0  0
    0.7500    6.4952    0.0000 O   0  0  0  0  0  0  0  0  0  0  0  0
   -1.5000    7.7942    0.0000 C   0  0  0  0  0  0  0  0  0  0  0  0
   -0.7500    9.0933    0.0000 C   0  0  0  0  0  0  0  0  0  0  0  0
   -1.5000   10.3923    0.0000 C   0  0  0  0  0  0  0  0  0  0  0  0
   -3.0000   10.3923    0.0000 C   0  0  0  0  0  0  0  0  0  0  0  0
   -3.7500   11.6913    0.0000 S   0  0  0  0  0  0  0  0  0  0  0  0
   -2.4510   12.4413    0.0000 O   0  0  0  0  0  0  0  0  0  0  0  0
   -5.0490   10.9413    0.0000 O   0  0  0  0  0  0  0  0  0  0  0  0
   -4.5000   12.9904    0.0000 N   0  0  0  0  0  0  0  0  0  0  0  0
   -5.9918   13.1472    0.0000 C   0  0  0  0  0  0  0  0  0  0  0  0
   -6.3037   14.6144    0.0000 C   0  0  0  0  0  0  0  0  0  0  0  0
   -5.0046   15.3644    0.0000 C   0  0  0  0  0  0  0  0  0  0  0  0
   -3.8899   14.3607    0.0000 C   0  0  0  0  0  0  0  0  0  0  0  0
   -3.7500    9.0933    0.0000 C   0  0  0  0  0  0  0  0  0  0  0  0
   -3.0000    7.7942    0.0000 C   0  0  0  0  0  0  0  0  0  0  0  0
    0.7500    1.2990    0.0000 C   0  0  0  0  0  0  0  0  0  0  0  0
  1  2  1  0
  2  3  2  0
  3  4  1  0
  4  5  2  0
  5  6  1  0
  5  7  1  0
  7  8  1  0
  8  9  2  0
  8 10  1  0
 10 11  1  0
 11 12  1  0
 12 13  2  0
 12 14  1  0
 14 15  2  0
 15 16  1  0
 16 17  2  0
 17 18  1  0
 18 19  2  0
 18 20  2  0
 18 21  1  0
 21 22  1  0
 22 23  1  0
 23 24  1  0
 24 25  1  0
 17 26  1  0
 26 27  2  0
  7 28  2  0
 28  2  1  0
 27 14  1  0
 25 21  1  0
M  END
>  <Compound_ID>  (531) 
C17458053

>  <Active>  (531) 
0

>  <Smiles>  (531) 
Cc1ccc(O)c(C(=O)NNC(=O)c2ccc(S(=O)(=O)N3CCCC3)cc2)c1

>  <canonical_smi>  (531) 
Cc1ccc(O)c(C(=O)NNC(=O)c2ccc(S(=O)(=O)N3CCCC3)cc2)c1

>  <Set>  (531) 
G2 inactive

>  <Set_type>  (531) 
Test

>  <MW>  (531) 
403.46

>  <HBD>  (531) 
3

>  <HBA>  (531) 
5

>  <NRB>  (531) 
4

>  <NR>  (531) 
3

>  <NAR>  (531) 
2

>  <PSA>  (531) 
115.81

>  <Standard Type>  (531) 
nan

>  <Standard Relation>  (531) 
nan

>  <Standard Units>  (531) 
nan

>  <Standard Value>  (531) 
nan

>  <Assay ChEMBL ID>  (531) 
nan

>  <Assay Description>  (531) 
nan

>  <BAO Label>  (531) 
nan

$$$$

     RDKit          2D

 24 26  0  0  0  0  0  0  0  0999 V2000
   -2.0143    8.6263    0.0000 C   0  0  0  0  0  0  0  0  0  0  0  0
   -0.8995    7.6226    0.0000 C   0  0  0  0  0  0  0  0  0  0  0  0
   -1.2114    6.1554    0.0000 O   0  0  0  0  0  0  0  0  0  0  0  0
   -0.0967    5.1517    0.0000 C   0  0  0  0  0  0  0  0  0  0  0  0
    1.3299    5.6152    0.0000 O   0  0  0  0  0  0  0  0  0  0  0  0
   -0.4086    3.6844    0.0000 C   0  0  0  0  0  0  0  0  0  0  0  0
    0.7062    2.6807    0.0000 C   0  0  0  0  0  0  0  0  0  0  0  0
    2.1328    3.1443    0.0000 C   0  0  0  0  0  0  0  0  0  0  0  0
    3.2475    2.1406    0.0000 C   0  0  0  0  0  0  0  0  0  0  0  0
    4.6741    2.6041    0.0000 C   0  0  0  0  0  0  0  0  0  0  0  0
    4.9859    4.0713    0.0000 C   0  0  0  0  0  0  0  0  0  0  0  0
    6.4125    4.5348    0.0000 Cl  0  0  0  0  0  0  0  0  0  0  0  0
    3.8712    5.0750    0.0000 C   0  0  0  0  0  0  0  0  0  0  0  0
    2.4446    4.6115    0.0000 C   0  0  0  0  0  0  0  0  0  0  0  0
    0.3943    1.2135    0.0000 C   0  0  0  0  0  0  0  0  0  0  0  0
    1.2760    0.0000    0.0000 C   0  0  0  0  0  0  0  0  0  0  0  0
    2.7760    0.0000    0.0000 O   0  0  0  0  0  0  0  0  0  0  0  0
    0.3943   -1.2135    0.0000 N   0  0  0  0  0  0  0  0  0  0  0  0
   -1.0323   -0.7500    0.0000 N   0  0  0  0  0  0  0  0  0  0  0  0
   -1.0323    0.7500    0.0000 C   0  0  0  0  0  0  0  0  0  0  0  0
   -2.1470    1.7537    0.0000 C   0  0  0  0  0  0  0  0  0  0  0  0
   -1.8351    3.2209    0.0000 C   0  0  0  0  0  0  0  0  0  0  0  0
   -3.3342    3.2733    0.0000 C   0  0  0  0  0  0  0  0  0  0  0  0
   -2.0439    4.7063    0.0000 O   0  0  0  0  0  0  0  0  0  0  0  0
  1  2  1  0
  2  3  1  0
  3  4  1  0
  4  5  2  0
  6  4  1  1
  6  7  1  0
  7  8  1  1
  8  9  2  0
  9 10  1  0
 10 11  2  0
 11 12  1  0
 11 13  1  0
 13 14  2  0
  7 15  1  0
 15 16  1  0
 16 17  1  0
 16 18  2  0
 18 19  1  0
 19 20  1  0
 20 21  1  0
 21 22  1  0
 22 23  1  6
 22 24  1  0
 22  6  1  0
 14  8  1  0
 20 15  2  0
M  END
>  <Compound_ID>  (532) 
C06667965

>  <Active>  (532) 
0

>  <Smiles>  (532) 
CCOC(=O)[C@H]1[C@@H](c2ccc(Cl)cc2)c2c(O)n[nH]c2C[C@@]1(C)O

>  <canonical_smi>  (532) 
CCOC(=O)[C@H]1[C@@H](c2ccc(Cl)cc2)c2c(O)n[nH]c2C[C@@]1(C)O

>  <Set>  (532) 
G2 inactive

>  <Set_type>  (532) 
Test

>  <MW>  (532) 
350.8

>  <HBD>  (532) 
3

>  <HBA>  (532) 
5

>  <NRB>  (532) 
3

>  <NR>  (532) 
3

>  <NAR>  (532) 
2

>  <PSA>  (532) 
95.44

>  <Standard Type>  (532) 
nan

>  <Standard Relation>  (532) 
nan

>  <Standard Units>  (532) 
nan

>  <Standard Value>  (532) 
nan

>  <Assay ChEMBL ID>  (532) 
nan

>  <Assay Description>  (532) 
nan

>  <BAO Label>  (532) 
nan

$$$$

     RDKit          2D

 25 27  0  0  0  0  0  0  0  0999 V2000
   -2.9716  -10.0434    0.0000 C   0  0  0  0  0  0  0  0  0  0  0  0
   -2.5081   -8.6168    0.0000 C   0  0  0  0  0  0  0  0  0  0  0  0
   -3.5118   -7.5021    0.0000 C   0  0  0  0  0  0  0  0  0  0  0  0
   -1.0409   -8.3049    0.0000 C   0  0  0  0  0  0  0  0  0  0  0  0
   -0.5773   -6.8783    0.0000 C   0  0  0  0  0  0  0  0  0  0  0  0
    0.8899   -6.5665    0.0000 C   0  0  0  0  0  0  0  0  0  0  0  0
    2.0046   -7.5702    0.0000 C   0  0  0  0  0  0  0  0  0  0  0  0
    3.3037   -6.8202    0.0000 C   0  0  0  0  0  0  0  0  0  0  0  0
    2.9918   -5.3529    0.0000 C   0  0  0  0  0  0  0  0  0  0  0  0
    1.5000   -5.1962    0.0000 C   0  0  0  0  0  0  0  0  0  0  0  0
    0.7500   -3.8971    0.0000 N   0  0  0  0  0  0  0  0  0  0  0  0
    1.5000   -2.5981    0.0000 C   0  0  0  0  0  0  0  0  0  0  0  0
    3.0000   -2.5981    0.0000 O   0  0  0  0  0  0  0  0  0  0  0  0
    0.7500   -1.2990    0.0000 C   0  0  0  0  0  0  0  0  0  0  0  0
    1.5000    0.0000    0.0000 C   0  0  0  0  0  0  0  0  0  0  0  0
    0.7500    1.2990    0.0000 C   0  0  0  0  0  0  0  0  0  0  0  0
   -0.7500    1.2990    0.0000 C   0  0  0  0  0  0  0  0  0  0  0  0
   -1.5000    0.0000    0.0000 C   0  0  0  0  0  0  0  0  0  0  0  0
   -0.7500   -1.2990    0.0000 C   0  0  0  0  0  0  0  0  0  0  0  0
   -2.2418    1.4558    0.0000 N   0  0  0  0  0  0  0  0  0  0  0  0
   -2.5537    2.9231    0.0000 C   0  0  0  0  0  0  0  0  0  0  0  0
   -3.9240    3.5332    0.0000 O   0  0  0  0  0  0  0  0  0  0  0  0
   -1.2546    3.6731    0.0000 N   0  0  0  0  0  0  0  0  0  0  0  0
   -0.1399    2.6694    0.0000 C   0  0  0  0  0  0  0  0  0  0  0  0
    1.3273    2.9812    0.0000 O   0  0  0  0  0  0  0  0  0  0  0  0
  1  2  1  0
  2  3  1  0
  2  4  1  0
  4  5  1  0
  6  5  1  1
  6  7  1  0
  7  8  1  0
  8  9  1  0
  9 10  1  0
 10 11  1  6
 11 12  1  0
 12 13  2  0
 12 14  1  0
 14 15  1  0
 15 16  1  0
 16 17  1  0
 17 18  1  0
 18 19  1  0
 17 20  1  0
 20 21  1  0
 21 22  2  0
 21 23  1  0
 23 24  1  0
 24 25  2  0
 10  6  1  0
 19 14  1  0
 24 17  1  0
M  END
>  <Compound_ID>  (533) 
C67277129

>  <Active>  (533) 
0

>  <Smiles>  (533) 
CC(C)CC[C@@H]1CCC[C@H]1NC(=O)C1CCC2(CC1)NC(=O)NC2=O

>  <canonical_smi>  (533) 
CC(C)CC[C@@H]1CCC[C@H]1NC(=O)C1CCC2(CC1)NC(=O)NC2=O

>  <Set>  (533) 
G2 inactive

>  <Set_type>  (533) 
Test

>  <MW>  (533) 
349.48

>  <HBD>  (533) 
3

>  <HBA>  (533) 
3

>  <NRB>  (533) 
5

>  <NR>  (533) 
3

>  <NAR>  (533) 
0

>  <PSA>  (533) 
87.3

>  <Standard Type>  (533) 
nan

>  <Standard Relation>  (533) 
nan

>  <Standard Units>  (533) 
nan

>  <Standard Value>  (533) 
nan

>  <Assay ChEMBL ID>  (533) 
nan

>  <Assay Description>  (533) 
nan

>  <BAO Label>  (533) 
nan

$$$$

     RDKit          2D

 23 26  0  0  0  0  0  0  0  0999 V2000
    3.0000    0.0000    0.0000 C   0  0  0  0  0  0  0  0  0  0  0  0
    1.5000    0.0000    0.0000 N   0  0  0  0  0  0  0  0  0  0  0  0
    0.7500   -1.2990    0.0000 C   0  0  0  0  0  0  0  0  0  0  0  0
   -0.7500   -1.2990    0.0000 C   0  0  0  0  0  0  0  0  0  0  0  0
   -1.5000    0.0000    0.0000 C   0  0  0  0  0  0  0  0  0  0  0  0
   -0.7500    1.2990    0.0000 C   0  0  0  0  0  0  0  0  0  0  0  0
    0.7500    1.2990    0.0000 C   0  0  0  0  0  0  0  0  0  0  0  0
   -1.5000    2.5981    0.0000 C   0  0  0  0  0  0  0  0  0  0  0  0
   -0.7500    3.8971    0.0000 N   0  0  0  0  0  0  0  0  0  0  0  0
   -1.5000    5.1962    0.0000 C   0  0  0  0  0  0  0  0  0  0  0  0
   -0.7500    6.4952    0.0000 C   0  0  0  0  0  0  0  0  0  0  0  0
    0.7500    6.4952    0.0000 C   0  0  0  0  0  0  0  0  0  0  0  0
    1.5000    7.7942    0.0000 C   0  0  0  0  0  0  0  0  0  0  0  0
    0.7500    9.0933    0.0000 C   0  0  0  0  0  0  0  0  0  0  0  0
   -0.7500    9.0933    0.0000 C   0  0  0  0  0  0  0  0  0  0  0  0
   -1.5000    7.7942    0.0000 C   0  0  0  0  0  0  0  0  0  0  0  0
   -3.0000    2.5981    0.0000 N   0  0  0  0  0  0  0  0  0  0  0  0
   -3.7500    1.2990    0.0000 C   0  0  0  0  0  0  0  0  0  0  0  0
   -5.2172    0.9872    0.0000 N   0  0  0  0  0  0  0  0  0  0  0  0
   -5.3740   -0.5046    0.0000 N   0  0  0  0  0  0  0  0  0  0  0  0
   -4.0037   -1.1147    0.0000 C   0  0  0  0  0  0  0  0  0  0  0  0
   -3.6918   -2.5819    0.0000 N   0  0  0  0  0  4  0  0  0  0  0  0
   -3.0000    0.0000    0.0000 C   0  0  0  0  0  0  0  0  0  0  0  0
  1  2  1  0
  2  3  1  0
  3  4  1  0
  4  5  1  0
  5  6  2  0
  6  7  1  0
  6  8  1  0
  8  9  1  6
  9 10  1  0
 10 11  1  0
 11 12  2  0
 12 13  1  0
 13 14  2  0
 14 15  1  0
 15 16  2  0
  8 17  1  0
 17 18  2  0
 18 19  1  0
 19 20  2  0
 20 21  1  0
 21 22  1  0
 21 23  2  0
  7  2  1  0
 16 11  1  0
 23 18  1  0
 23  5  1  0
M  CHG  1  22   1
M  END
>  <Compound_ID>  (534) 
C39443738

>  <Active>  (534) 
0

>  <Smiles>  (534) 
CN1CCC2=C(C1)[C@@H](NCc1ccccc1)N=C1N=NC([NH3+])=C12

>  <canonical_smi>  (534) 
CN1CCC2=C(C1)[C@@H](NCc1ccccc1)N=C1N=NC([NH3+])=C12

>  <Set>  (534) 
G2 inactive

>  <Set_type>  (534) 
Test

>  <MW>  (534) 
309.4

>  <HBD>  (534) 
2

>  <HBA>  (534) 
2

>  <NRB>  (534) 
3

>  <NR>  (534) 
4

>  <NAR>  (534) 
1

>  <PSA>  (534) 
79.99

>  <Standard Type>  (534) 
nan

>  <Standard Relation>  (534) 
nan

>  <Standard Units>  (534) 
nan

>  <Standard Value>  (534) 
nan

>  <Assay ChEMBL ID>  (534) 
nan

>  <Assay Description>  (534) 
nan

>  <BAO Label>  (534) 
nan

$$$$

     RDKit          2D

 20 21  0  0  0  0  0  0  0  0999 V2000
    8.2500    1.2990    0.0000 N   0  0  0  0  0  0  0  0  0  0  0  0
    7.5000   -0.0000    0.0000 S   0  0  0  0  0  0  0  0  0  0  0  0
    8.7990   -0.7500    0.0000 O   0  0  0  0  0  0  0  0  0  0  0  0
    6.2010    0.7500    0.0000 O   0  0  0  0  0  0  0  0  0  0  0  0
    6.7500   -1.2990    0.0000 C   0  0  0  0  0  0  0  0  0  0  0  0
    5.2500   -1.2990    0.0000 C   0  0  0  0  0  0  0  0  0  0  0  0
    4.5000   -2.5981    0.0000 N   0  0  0  0  0  0  0  0  0  0  0  0
    3.0000   -2.5981    0.0000 S   0  0  0  0  0  0  0  0  0  0  0  0
    3.0000   -4.0981    0.0000 O   0  0  0  0  0  0  0  0  0  0  0  0
    3.0000   -1.0981    0.0000 O   0  0  0  0  0  0  0  0  0  0  0  0
    1.5000   -2.5981    0.0000 C   0  0  0  0  0  0  0  0  0  0  0  0
    0.7500   -3.8971    0.0000 C   0  0  0  0  0  0  0  0  0  0  0  0
   -0.7500   -3.8971    0.0000 C   0  0  0  0  0  0  0  0  0  0  0  0
   -1.5000   -2.5981    0.0000 C   0  0  0  0  0  0  0  0  0  0  0  0
   -0.7500   -1.2990    0.0000 C   0  0  0  0  0  0  0  0  0  0  0  0
    0.7500   -1.2990    0.0000 C   0  0  0  0  0  0  0  0  0  0  0  0
    1.5000    0.0000    0.0000 C   0  0  0  0  0  0  0  0  0  0  0  0
    0.7500    1.2990    0.0000 C   0  0  0  0  0  0  0  0  0  0  0  0
   -0.7500    1.2990    0.0000 N   0  0  0  0  0  0  0  0  0  0  0  0
   -1.5000    0.0000    0.0000 C   0  0  0  0  0  0  0  0  0  0  0  0
  1  2  1  0
  2  3  2  0
  2  4  2  0
  2  5  1  0
  5  6  1  0
  6  7  1  0
  7  8  1  0
  8  9  2  0
  8 10  2  0
  8 11  1  0
 11 12  2  0
 12 13  1  0
 13 14  2  0
 14 15  1  0
 15 16  2  0
 16 17  1  0
 17 18  1  0
 18 19  1  0
 19 20  1  0
 16 11  1  0
 20 15  1  0
M  END
>  <Compound_ID>  (535) 
C36201649

>  <Active>  (535) 
0

>  <Smiles>  (535) 
NS(=O)(=O)CCNS(=O)(=O)c1cccc2c1CCNC2

>  <canonical_smi>  (535) 
NS(=O)(=O)CCNS(=O)(=O)c1cccc2c1CCNC2

>  <Set>  (535) 
G2 inactive

>  <Set_type>  (535) 
Test

>  <MW>  (535) 
319.41

>  <HBD>  (535) 
3

>  <HBA>  (535) 
5

>  <NRB>  (535) 
5

>  <NR>  (535) 
2

>  <NAR>  (535) 
1

>  <PSA>  (535) 
118.36

>  <Standard Type>  (535) 
nan

>  <Standard Relation>  (535) 
nan

>  <Standard Units>  (535) 
nan

>  <Standard Value>  (535) 
nan

>  <Assay ChEMBL ID>  (535) 
nan

>  <Assay Description>  (535) 
nan

>  <BAO Label>  (535) 
nan

$$$$

     RDKit          2D

 24 26  0  0  0  0  0  0  0  0999 V2000
    3.0000    0.0000    0.0000 C   0  0  0  0  0  0  0  0  0  0  0  0
    1.5000    0.0000    0.0000 C   0  0  0  0  0  0  0  0  0  0  0  0
    0.7500   -1.2990    0.0000 C   0  0  0  0  0  0  0  0  0  0  0  0
   -0.7500   -1.2990    0.0000 C   0  0  0  0  0  0  0  0  0  0  0  0
   -1.5000    0.0000    0.0000 C   0  0  0  0  0  0  0  0  0  0  0  0
   -3.0000    0.0000    0.0000 N   0  0  0  0  0  0  0  0  0  0  0  0
   -3.7500   -1.2990    0.0000 C   0  0  0  0  0  0  0  0  0  0  0  0
   -5.2500   -1.2990    0.0000 N   0  0  0  0  0  0  0  0  0  0  0  0
   -6.0000   -2.5981    0.0000 C   0  0  0  0  0  0  0  0  0  0  0  0
   -5.2500   -3.8971    0.0000 N   0  0  0  0  0  0  0  0  0  0  0  0
   -3.7500   -3.8971    0.0000 C   0  0  0  0  0  0  0  0  0  0  0  0
   -3.0000   -5.1962    0.0000 O   0  0  0  0  0  0  0  0  0  0  0  0
   -3.7500   -6.4952    0.0000 C   0  0  0  0  0  0  0  0  0  0  0  0
   -5.2500   -6.4952    0.0000 C   0  0  0  0  0  0  0  0  0  0  0  0
   -6.0000   -7.7942    0.0000 C   0  0  0  0  0  0  0  0  0  0  0  0
   -5.2500   -9.0933    0.0000 C   0  0  0  0  0  0  0  0  0  0  0  0
   -6.0000  -10.3923    0.0000 Br  0  0  0  0  0  0  0  0  0  0  0  0
   -3.7500   -9.0933    0.0000 C   0  0  0  0  0  0  0  0  0  0  0  0
   -3.0000   -7.7942    0.0000 C   0  0  0  0  0  0  0  0  0  0  0  0
   -3.0000   -2.5981    0.0000 C   0  0  0  0  0  0  0  0  0  0  0  0
   -1.5000   -2.5981    0.0000 N   0  0  0  0  0  0  0  0  0  0  0  0
   -0.7500    1.2990    0.0000 C   0  0  0  0  0  0  0  0  0  0  0  0
   -1.5000    2.5981    0.0000 C   0  0  0  0  0  0  0  0  0  0  0  0
    0.7500    1.2990    0.0000 C   0  0  0  0  0  0  0  0  0  0  0  0
  1  2  1  0
  2  3  2  0
  3  4  1  0
  4  5  2  0
  5  6  1  0
  6  7  1  0
  7  8  2  0
  8  9  1  0
  9 10  2  0
 10 11  1  0
 11 12  1  0
 12 13  1  0
 13 14  2  0
 14 15  1  0
 15 16  2  0
 16 17  1  0
 16 18  1  0
 18 19  2  0
 11 20  2  0
 20 21  1  0
  5 22  1  0
 22 23  1  0
 22 24  2  0
 24  2  1  0
 20  7  1  0
 19 13  1  0
M  END
>  <Compound_ID>  (536) 
C40755596

>  <Active>  (536) 
0

>  <Smiles>  (536) 
Cc1ccc(Nc2ncnc(Oc3ccc(Br)cc3)c2N)c(C)c1

>  <canonical_smi>  (536) 
Cc1ccc(Nc2ncnc(Oc3ccc(Br)cc3)c2N)c(C)c1

>  <Set>  (536) 
G2 inactive

>  <Set_type>  (536) 
Test

>  <MW>  (536) 
385.27

>  <HBD>  (536) 
2

>  <HBA>  (536) 
5

>  <NRB>  (536) 
4

>  <NR>  (536) 
3

>  <NAR>  (536) 
3

>  <PSA>  (536) 
73.06

>  <Standard Type>  (536) 
nan

>  <Standard Relation>  (536) 
nan

>  <Standard Units>  (536) 
nan

>  <Standard Value>  (536) 
nan

>  <Assay ChEMBL ID>  (536) 
nan

>  <Assay Description>  (536) 
nan

>  <BAO Label>  (536) 
nan

$$$$

     RDKit          2D

 24 26  0  0  0  0  0  0  0  0999 V2000
    3.7500   -1.2990    0.0000 O   0  0  0  0  0  0  0  0  0  0  0  0
    3.0000    0.0000    0.0000 C   0  0  0  0  0  0  0  0  0  0  0  0
    1.5000    0.0000    0.0000 C   0  0  0  0  0  0  0  0  0  0  0  0
    0.7500   -1.2990    0.0000 O   0  0  0  0  0  0  0  0  0  0  0  0
   -0.7500   -1.2990    0.0000 C   0  0  0  0  0  0  0  0  0  0  0  0
   -1.5000   -2.5981    0.0000 O   0  0  0  0  0  0  0  0  0  0  0  0
   -0.7500   -3.8971    0.0000 C   0  0  0  0  0  0  0  0  0  0  0  0
    0.7500   -3.8971    0.0000 C   0  0  0  0  0  0  0  0  0  0  0  0
    1.5000   -5.1962    0.0000 C   0  0  0  0  0  0  0  0  0  0  0  0
    0.7500   -6.4952    0.0000 C   0  0  0  0  0  0  0  0  0  0  0  0
    1.5000   -7.7942    0.0000 Cl  0  0  0  0  0  0  0  0  0  0  0  0
   -0.7500   -6.4952    0.0000 C   0  0  0  0  0  0  0  0  0  0  0  0
   -1.5000   -5.1962    0.0000 C   0  0  0  0  0  0  0  0  0  0  0  0
   -3.0000   -5.1962    0.0000 C   0  0  0  0  0  0  0  0  0  0  0  0
   -3.8817   -6.4097    0.0000 C   0  0  0  0  0  0  0  0  0  0  0  0
   -5.3083   -5.9462    0.0000 C   0  0  0  0  0  0  0  0  0  0  0  0
   -5.3083   -4.4462    0.0000 C   0  0  0  0  0  0  0  0  0  0  0  0
   -3.8817   -3.9826    0.0000 C   0  0  0  0  0  0  0  0  0  0  0  0
   -1.5000    0.0000    0.0000 C   0  0  0  0  0  0  0  0  0  0  0  0
   -3.0000    0.0000    0.0000 O   0  0  0  0  0  0  0  0  0  0  0  0
   -0.7500    1.2990    0.0000 C   0  0  0  0  0  0  0  0  0  0  0  0
   -1.5000    2.5981    0.0000 O   0  0  0  0  0  0  0  0  0  0  0  0
    0.7500    1.2990    0.0000 C   0  0  0  0  0  0  0  0  0  0  0  0
    1.5000    2.5981    0.0000 O   0  0  0  0  0  0  0  0  0  0  0  0
  1  2  1  0
  3  2  1  6
  3  4  1  0
  4  5  1  0
  5  6  1  1
  6  7  1  0
  7  8  2  0
  8  9  1  0
  9 10  2  0
 10 11  1  0
 10 12  1  0
 12 13  2  0
 13 14  1  0
 14 15  1  0
 15 16  1  0
 16 17  1  0
 17 18  1  0
  5 19  1  0
 19 20  1  1
 19 21  1  0
 21 22  1  1
 21 23  1  0
 23 24  1  1
 23  3  1  0
 13  7  1  0
 18 14  1  0
M  END
>  <Compound_ID>  (537) 
C38599760

>  <Active>  (537) 
0

>  <Smiles>  (537) 
OC[C@@H]1O[C@@H](Oc2ccc(Cl)cc2C2CCCC2)[C@@H](O)[C@@H](O)[C@H]1O

>  <canonical_smi>  (537) 
OC[C@@H]1O[C@@H](Oc2ccc(Cl)cc2C2CCCC2)[C@@H](O)[C@@H](O)[C@H]1O

>  <Set>  (537) 
G2 inactive

>  <Set_type>  (537) 
Test

>  <MW>  (537) 
358.82

>  <HBD>  (537) 
4

>  <HBA>  (537) 
6

>  <NRB>  (537) 
4

>  <NR>  (537) 
3

>  <NAR>  (537) 
1

>  <PSA>  (537) 
99.38

>  <Standard Type>  (537) 
nan

>  <Standard Relation>  (537) 
nan

>  <Standard Units>  (537) 
nan

>  <Standard Value>  (537) 
nan

>  <Assay ChEMBL ID>  (537) 
nan

>  <Assay Description>  (537) 
nan

>  <BAO Label>  (537) 
nan

$$$$

     RDKit          2D

 17 18  0  0  0  0  0  0  0  0999 V2000
   -4.2437   10.6337    0.0000 N   0  0  0  0  0  0  0  0  0  0  0  0
   -4.5556    9.1664    0.0000 C   0  0  0  0  0  0  0  0  0  0  0  0
   -5.9821    8.7029    0.0000 O   0  0  0  0  0  0  0  0  0  0  0  0
   -3.4408    8.1628    0.0000 C   0  0  0  0  0  0  0  0  0  0  0  0
   -3.7527    6.6955    0.0000 C   0  0  0  0  0  0  0  0  0  0  0  0
   -2.6380    5.6918    0.0000 N   0  0  0  0  0  4  0  0  0  0  0  0
   -2.9499    4.2246    0.0000 C   0  0  0  0  0  0  0  0  0  0  0  0
   -1.8351    3.2209    0.0000 C   0  0  0  0  0  0  0  0  0  0  0  0
   -0.4086    3.6844    0.0000 N   0  0  0  0  0  0  0  0  0  0  0  0
    0.7062    2.6807    0.0000 C   0  0  0  0  0  0  0  0  0  0  0  0
    2.1328    3.1443    0.0000 O   0  0  0  0  0  1  0  0  0  0  0  0
    0.3943    1.2135    0.0000 C   0  0  0  0  0  0  0  0  0  0  0  0
    1.2760    0.0000    0.0000 S   0  0  0  0  0  0  0  0  0  0  0  0
    0.3943   -1.2135    0.0000 C   0  0  0  0  0  0  0  0  0  0  0  0
   -1.0323   -0.7500    0.0000 C   0  0  0  0  0  0  0  0  0  0  0  0
   -1.0323    0.7500    0.0000 C   0  0  0  0  0  0  0  0  0  0  0  0
   -2.1470    1.7537    0.0000 N   0  0  0  0  0  0  0  0  0  0  0  0
  1  2  1  0
  2  3  2  0
  2  4  1  0
  4  5  1  0
  5  6  1  0
  6  7  1  0
  7  8  1  0
  8  9  2  0
  9 10  1  0
 10 11  1  0
 10 12  2  0
 12 13  1  0
 13 14  1  0
 14 15  2  0
 15 16  1  0
 16 17  2  0
 17  8  1  0
 16 12  1  0
M  CHG  2   6   1  11  -1
M  END
>  <Compound_ID>  (538) 
C36747228

>  <Active>  (538) 
0

>  <Smiles>  (538) 
NC(=O)CC[NH2+]Cc1nc([O-])c2sccc2n1

>  <canonical_smi>  (538) 
NC(=O)CC[NH2+]Cc1nc([O-])c2sccc2n1

>  <Set>  (538) 
G2 inactive

>  <Set_type>  (538) 
Test

>  <MW>  (538) 
252.3

>  <HBD>  (538) 
2

>  <HBA>  (538) 
4

>  <NRB>  (538) 
5

>  <NR>  (538) 
2

>  <NAR>  (538) 
2

>  <PSA>  (538) 
108.54

>  <Standard Type>  (538) 
nan

>  <Standard Relation>  (538) 
nan

>  <Standard Units>  (538) 
nan

>  <Standard Value>  (538) 
nan

>  <Assay ChEMBL ID>  (538) 
nan

>  <Assay Description>  (538) 
nan

>  <BAO Label>  (538) 
nan

$$$$

     RDKit          2D

 27 30  0  0  0  0  0  0  0  0999 V2000
   -0.9044   -5.9431    0.0000 C   0  0  0  0  0  0  0  0  0  0  0  0
    0.5628   -6.2550    0.0000 O   0  0  0  0  0  0  0  0  0  0  0  0
    1.5665   -5.1403    0.0000 C   0  0  0  0  0  0  0  0  0  0  0  0
    1.2546   -3.6731    0.0000 C   0  0  0  0  0  0  0  0  0  0  0  0
    0.1399   -2.6694    0.0000 O   0  0  0  0  0  0  0  0  0  0  0  0
    0.7500   -1.2990    0.0000 C   0  0  0  0  0  0  0  0  0  0  0  0
    1.5000    0.0000    0.0000 C   0  0  0  0  0  0  0  0  0  0  0  0
    0.7500    1.2990    0.0000 C   0  0  0  0  0  0  0  0  0  0  0  0
   -0.7500    1.2990    0.0000 C   0  0  0  0  0  0  0  0  0  0  0  0
   -1.5000    0.0000    0.0000 C   0  0  0  0  0  0  0  0  0  0  0  0
   -0.7500   -1.2990    0.0000 C   0  0  0  0  0  0  0  0  0  0  0  0
    2.2418   -1.4558    0.0000 O   0  0  0  0  0  0  0  0  0  0  0  0
    2.5537   -2.9231    0.0000 C   0  0  0  0  0  0  0  0  0  0  0  0
    3.6684   -3.9267    0.0000 O   0  0  0  0  0  0  0  0  0  0  0  0
    3.0583   -5.2971    0.0000 C   0  0  0  0  0  0  0  0  0  0  0  0
    3.8083   -6.5961    0.0000 C   0  0  0  0  0  0  0  0  0  0  0  0
    3.0583   -7.8951    0.0000 C   0  0  0  0  0  0  0  0  0  0  0  0
    1.5583   -7.8951    0.0000 C   0  0  0  0  0  0  0  0  0  0  0  0
    0.0583   -7.8951    0.0000 N   0  0  0  0  0  0  0  0  0  0  0  0
    3.8083   -9.1942    0.0000 C   0  0  0  0  0  0  0  0  0  0  0  0
    3.0583  -10.4932    0.0000 N   0  0  0  0  0  0  0  0  0  0  0  0
    5.3083   -9.1942    0.0000 S   0  0  0  0  0  0  0  0  0  0  0  0
    6.0583   -7.8951    0.0000 C   0  0  0  0  0  0  0  0  0  0  0  0
    7.5583   -7.8951    0.0000 N   0  0  0  0  0  0  0  0  0  0  0  0
    5.3083   -6.5961    0.0000 C   0  0  0  0  0  0  0  0  0  0  0  0
    6.0583   -5.2971    0.0000 C   0  0  0  0  0  0  0  0  0  0  0  0
    6.8083   -3.9980    0.0000 N   0  0  0  0  0  0  0  0  0  0  0  0
  1  2  1  0
  3  2  1  1
  3  4  1  0
  4  5  1  1
  5  6  1  0
  6  7  1  0
  7  8  1  0
  8  9  1  0
  9 10  1  0
 10 11  1  0
  6 12  1  0
 13 12  1  6
 13 14  1  0
 14 15  1  0
 15 16  1  6
 16 17  1  0
 17 18  1  0
 18 19  3  0
 17 20  2  0
 20 21  1  0
 20 22  1  0
 22 23  1  0
 23 24  1  0
 23 25  2  0
 25 26  1  0
 26 27  3  0
 15  3  1  0
 25 16  1  0
 13  4  1  0
 11  6  1  0
M  END
>  <Compound_ID>  (539) 
C20840677

>  <Active>  (539) 
0

>  <Smiles>  (539) 
CO[C@H]1[C@H]2OC3(CCCCC3)O[C@@H]2O[C@@H]1C1C(C#N)=C(N)SC(N)=C1C#N

>  <canonical_smi>  (539) 
CO[C@@H]1[C@@H](C2C(C#N)=C(N)SC(N)=C2C#N)O[C@H]2OC3(CCCCC3)O[C@@H]21

>  <Set>  (539) 
G2 inactive

>  <Set_type>  (539) 
Test

>  <MW>  (539) 
390.47

>  <HBD>  (539) 
2

>  <HBA>  (539) 
9

>  <NRB>  (539) 
2

>  <NR>  (539) 
4

>  <NAR>  (539) 
0

>  <PSA>  (539) 
136.54

>  <Standard Type>  (539) 
nan

>  <Standard Relation>  (539) 
nan

>  <Standard Units>  (539) 
nan

>  <Standard Value>  (539) 
nan

>  <Assay ChEMBL ID>  (539) 
nan

>  <Assay Description>  (539) 
nan

>  <BAO Label>  (539) 
nan

$$$$

     RDKit          2D

 28 30  0  0  0  0  0  0  0  0999 V2000
    4.5000    0.0000    0.0000 C   0  0  0  0  0  0  0  0  0  0  0  0
    3.0000    0.0000    0.0000 C   0  0  0  0  0  0  0  0  0  0  0  0
    1.5000    0.0000    0.0000 C   0  0  0  0  0  0  0  0  0  0  0  0
    0.7500   -1.2990    0.0000 C   0  0  0  0  0  0  0  0  0  0  0  0
   -0.7500   -1.2990    0.0000 C   0  0  0  0  0  0  0  0  0  0  0  0
   -1.5000    0.0000    0.0000 C   0  0  0  0  0  0  0  0  0  0  0  0
   -0.7500    1.2990    0.0000 C   0  0  0  0  0  0  0  0  0  0  0  0
   -1.5000    2.5981    0.0000 N   0  0  0  0  0  0  0  0  0  0  0  0
   -0.7500    3.8971    0.0000 C   0  0  0  0  0  0  0  0  0  0  0  0
    0.7500    3.8971    0.0000 O   0  0  0  0  0  0  0  0  0  0  0  0
   -1.5000    5.1962    0.0000 C   0  0  0  0  0  0  0  0  0  0  0  0
   -0.7500    6.4952    0.0000 N   0  0  0  0  0  0  0  0  0  0  0  0
   -1.5000    7.7942    0.0000 C   0  0  0  0  0  0  0  0  0  0  0  0
   -3.0000    7.7942    0.0000 O   0  0  0  0  0  0  0  0  0  0  0  0
   -0.7500    9.0933    0.0000 C   0  0  0  0  0  0  0  0  0  0  0  0
   -1.3601   10.4636    0.0000 C   0  0  0  0  0  0  0  0  0  0  0  0
   -0.2454   11.4673    0.0000 N   0  0  0  0  0  0  0  0  0  0  0  0
    1.0537   10.7173    0.0000 N   0  0  0  0  0  0  0  0  0  0  0  0
    2.4240   11.3274    0.0000 C   0  0  0  0  0  0  0  0  0  0  0  0
    3.6375   10.4457    0.0000 C   0  0  0  0  0  0  0  0  0  0  0  0
    5.0078   11.0558    0.0000 C   0  0  0  0  0  0  0  0  0  0  0  0
    5.1646   12.5476    0.0000 C   0  0  0  0  0  0  0  0  0  0  0  0
    6.5349   13.1577    0.0000 O   0  0  0  0  0  1  0  0  0  0  0  0
    3.9511   13.4293    0.0000 N   0  0  0  0  0  0  0  0  0  0  0  0
    2.5808   12.8192    0.0000 N   0  0  0  0  0  0  0  0  0  0  0  0
    0.7418    9.2501    0.0000 C   0  0  0  0  0  0  0  0  0  0  0  0
    1.7455    8.1353    0.0000 C   0  0  0  0  0  0  0  0  0  0  0  0
    0.7500    1.2990    0.0000 C   0  0  0  0  0  0  0  0  0  0  0  0
  1  2  3  0
  2  3  1  0
  3  4  2  0
  4  5  1  0
  5  6  2  0
  6  7  1  0
  7  8  1  0
  8  9  1  0
  9 10  2  0
  9 11  1  0
 11 12  1  0
 12 13  1  0
 13 14  2  0
 13 15  1  0
 15 16  2  0
 16 17  1  0
 17 18  1  0
 18 19  1  0
 19 20  2  0
 20 21  1  0
 21 22  2  0
 22 23  1  0
 22 24  1  0
 24 25  2  0
 18 26  1  0
 26 27  1  6
  7 28  2  0
 28  3  1  0
 26 15  1  0
 25 19  1  0
M  CHG  1  23  -1
M  END
>  <Compound_ID>  (540) 
C64120283

>  <Active>  (540) 
0

>  <Smiles>  (540) 
C#Cc1cccc(NC(=O)CNC(=O)C2=CNN(c3ccc([O-])nn3)[C@@H]2C)c1

>  <canonical_smi>  (540) 
C#Cc1cccc(NC(=O)CNC(=O)C2=CNN(c3ccc([O-])nn3)[C@@H]2C)c1

>  <Set>  (540) 
G2 inactive

>  <Set_type>  (540) 
Test

>  <MW>  (540) 
377.38

>  <HBD>  (540) 
3

>  <HBA>  (540) 
7

>  <NRB>  (540) 
5

>  <NR>  (540) 
3

>  <NAR>  (540) 
2

>  <PSA>  (540) 
122.31

>  <Standard Type>  (540) 
nan

>  <Standard Relation>  (540) 
nan

>  <Standard Units>  (540) 
nan

>  <Standard Value>  (540) 
nan

>  <Assay ChEMBL ID>  (540) 
nan

>  <Assay Description>  (540) 
nan

>  <BAO Label>  (540) 
nan

$$$$

     RDKit          2D

 29 31  0  0  0  0  0  0  0  0999 V2000
    4.6740   -4.8322    0.0000 C   0  0  0  0  0  0  0  0  0  0  0  0
    3.3037   -4.2221    0.0000 C   0  0  0  0  0  0  0  0  0  0  0  0
    2.9918   -2.7549    0.0000 N   0  0  0  0  0  0  0  0  0  0  0  0
    1.5000   -2.5981    0.0000 N   0  0  0  0  0  0  0  0  0  0  0  0
    0.7500   -1.2990    0.0000 C   0  0  0  0  0  0  0  0  0  0  0  0
    1.5000    0.0000    0.0000 C   0  0  0  0  0  0  0  0  0  0  0  0
    0.7500    1.2990    0.0000 C   0  0  0  0  0  0  0  0  0  0  0  0
   -0.7500    1.2990    0.0000 C   0  0  0  0  0  0  0  0  0  0  0  0
   -1.5000    0.0000    0.0000 C   0  0  0  0  0  0  0  0  0  0  0  0
   -0.7500   -1.2990    0.0000 C   0  0  0  0  0  0  0  0  0  0  0  0
    0.8899   -3.9684    0.0000 C   0  0  0  0  0  0  0  0  0  0  0  0
   -0.5773   -4.2803    0.0000 Cl  0  0  0  0  0  0  0  0  0  0  0  0
    2.0046   -4.9721    0.0000 C   0  0  0  0  0  0  0  0  0  0  0  0
    1.8478   -6.4639    0.0000 C   0  0  0  0  0  0  0  0  0  0  0  0
    3.0613   -7.3456    0.0000 N   0  0  0  0  0  0  0  0  0  0  0  0
    2.9046   -8.8373    0.0000 N   0  0  0  0  0  0  0  0  0  0  0  0
    4.1181   -9.7190    0.0000 C   0  0  0  0  0  0  0  0  0  0  0  0
    5.4884   -9.1089    0.0000 O   0  0  0  0  0  0  0  0  0  0  0  0
    3.9613  -11.2108    0.0000 C   0  0  0  0  0  0  0  0  0  0  0  0
    5.1748  -12.0925    0.0000 C   0  0  0  0  0  0  0  0  0  0  0  0
    5.0180  -13.5843    0.0000 N   0  0  0  0  0  0  0  0  0  0  0  0
    6.2315  -14.4659    0.0000 C   0  0  0  0  0  0  0  0  0  0  0  0
    6.0748  -15.9577    0.0000 N   0  0  0  0  0  0  0  0  0  0  0  0
    7.2883  -16.8394    0.0000 N   0  0  0  0  0  0  0  0  0  0  0  0
    8.6586  -16.2293    0.0000 C   0  0  0  0  0  0  0  0  0  0  0  0
    9.8721  -17.1110    0.0000 O   0  0  0  0  0  0  0  0  0  0  0  0
    8.8154  -14.7375    0.0000 N   0  0  0  0  0  0  0  0  0  0  0  0
    7.6019  -13.8558    0.0000 C   0  0  0  0  0  0  0  0  0  0  0  0
    7.7587  -12.3640    0.0000 O   0  0  0  0  0  0  0  0  0  0  0  0
  2  1  1  1
  2  3  1  0
  3  4  1  0
  4  5  1  0
  5  6  2  0
  6  7  1  0
  7  8  2  0
  8  9  1  0
  9 10  2  0
  4 11  1  0
 11 12  1  6
 11 13  1  0
 13 14  1  6
 14 15  2  0
 15 16  1  0
 16 17  1  0
 17 18  2  0
 17 19  1  0
 19 20  1  0
 20 21  1  0
 22 21  1  6
 22 23  1  0
 23 24  2  0
 24 25  1  0
 25 26  2  0
 25 27  1  0
 27 28  1  0
 28 29  2  0
 13  2  1  0
 28 22  1  0
 10  5  1  0
M  END
>  <Compound_ID>  (541) 
C38810931

>  <Active>  (541) 
0

>  <Smiles>  (541) 
C[C@@H]1NN(c2ccccc2)[C@@H](Cl)[C@H]1/C=N/NC(=O)CCN[C@H]1N=NC(=O)NC1=O

>  <canonical_smi>  (541) 
C[C@@H]1NN(c2ccccc2)[C@@H](Cl)[C@H]1/C=N/NC(=O)CCN[C@H]1N=NC(=O)NC1=O

>  <Set>  (541) 
G2 inactive

>  <Set_type>  (541) 
Test

>  <MW>  (541) 
420.86

>  <HBD>  (541) 
4

>  <HBA>  (541) 
6

>  <NRB>  (541) 
7

>  <NR>  (541) 
3

>  <NAR>  (541) 
1

>  <PSA>  (541) 
139.65

>  <Standard Type>  (541) 
nan

>  <Standard Relation>  (541) 
nan

>  <Standard Units>  (541) 
nan

>  <Standard Value>  (541) 
nan

>  <Assay ChEMBL ID>  (541) 
nan

>  <Assay Description>  (541) 
nan

>  <BAO Label>  (541) 
nan

$$$$

     RDKit          2D

 28 29  0  0  0  0  0  0  0  0999 V2000
    5.2500   -1.2990    0.0000 C   0  0  0  0  0  0  0  0  0  0  0  0
    3.7500   -1.2990    0.0000 C   0  0  0  0  0  0  0  0  0  0  0  0
    3.0000   -2.5981    0.0000 C   0  0  0  0  0  0  0  0  0  0  0  0
    3.0000    0.0000    0.0000 C   0  0  0  0  0  0  0  0  0  0  0  0
    1.5000    0.0000    0.0000 N   0  0  0  0  0  0  0  0  0  0  0  0
    0.7500   -1.2990    0.0000 C   0  0  0  0  0  0  0  0  0  0  0  0
    1.5000   -2.5981    0.0000 N   0  0  0  0  0  0  0  0  0  0  0  0
   -0.7500   -1.2990    0.0000 C   0  0  0  0  0  0  0  0  0  0  0  0
   -1.5000   -2.5981    0.0000 C   0  0  0  0  0  0  0  0  0  0  0  0
   -0.7500   -3.8971    0.0000 O   0  0  0  0  0  0  0  0  0  0  0  0
   -3.0000   -2.5981    0.0000 C   0  0  0  0  0  0  0  0  0  0  0  0
   -3.7500   -3.8971    0.0000 O   0  0  0  0  0  0  0  0  0  0  0  0
   -5.2500   -3.8971    0.0000 C   0  0  0  0  0  0  0  0  0  0  0  0
   -6.0000   -2.5981    0.0000 O   0  0  0  0  0  0  0  0  0  0  0  0
   -6.0000   -5.1962    0.0000 C   0  0  0  0  0  0  0  0  0  0  0  0
   -7.5000   -5.1962    0.0000 C   0  0  0  0  0  0  0  0  0  0  0  0
   -8.2500   -6.4952    0.0000 C   0  0  0  0  0  0  0  0  0  0  0  0
   -7.5000   -7.7942    0.0000 C   0  0  0  0  0  0  0  0  0  0  0  0
   -8.2500   -9.0933    0.0000 O   0  0  0  0  0  0  0  0  0  0  0  0
   -6.0000   -7.7942    0.0000 C   0  0  0  0  0  0  0  0  0  0  0  0
   -5.2500   -6.4952    0.0000 C   0  0  0  0  0  0  0  0  0  0  0  0
   -3.7500   -6.4952    0.0000 O   0  0  0  0  0  0  0  0  0  0  0  0
   -1.5000    0.0000    0.0000 C   0  0  0  0  0  0  0  0  0  0  0  0
   -3.0000    0.0000    0.0000 O   0  0  0  0  0  0  0  0  0  0  0  0
   -0.7500    1.2990    0.0000 N   0  0  0  0  0  0  0  0  0  0  0  0
   -1.5000    2.5981    0.0000 C   0  0  0  0  0  0  0  0  0  0  0  0
    0.7500    1.2990    0.0000 C   0  0  0  0  0  0  0  0  0  0  0  0
    1.5000    2.5981    0.0000 O   0  0  0  0  0  0  0  0  0  0  0  0
  1  2  1  0
  2  3  1  0
  2  4  1  0
  4  5  1  0
  5  6  1  0
  6  7  1  0
  6  8  2  0
  8  9  1  0
  9 10  2  0
  9 11  1  0
 11 12  1  0
 12 13  1  0
 13 14  2  0
 13 15  1  0
 15 16  2  0
 16 17  1  0
 17 18  2  0
 18 19  1  0
 18 20  1  0
 20 21  2  0
 21 22  1  0
  8 23  1  0
 23 24  2  0
 23 25  1  0
 25 26  1  0
 25 27  1  0
 27 28  2  0
 27  5  1  0
 21 15  1  0
M  END
>  <Compound_ID>  (542) 
C06080921

>  <Active>  (542) 
0

>  <Smiles>  (542) 
CC(C)Cn1c(N)c(C(=O)COC(=O)c2ccc(O)cc2O)c(=O)n(C)c1=O

>  <canonical_smi>  (542) 
CC(C)Cn1c(N)c(C(=O)COC(=O)c2ccc(O)cc2O)c(=O)n(C)c1=O

>  <Set>  (542) 
G2 inactive

>  <Set_type>  (542) 
Test

>  <MW>  (542) 
391.38

>  <HBD>  (542) 
3

>  <HBA>  (542) 
8

>  <NRB>  (542) 
6

>  <NR>  (542) 
2

>  <NAR>  (542) 
2

>  <PSA>  (542) 
153.85

>  <Standard Type>  (542) 
nan

>  <Standard Relation>  (542) 
nan

>  <Standard Units>  (542) 
nan

>  <Standard Value>  (542) 
nan

>  <Assay ChEMBL ID>  (542) 
nan

>  <Assay Description>  (542) 
nan

>  <BAO Label>  (542) 
nan

$$$$

     RDKit          2D

 18 20  0  0  0  0  0  0  0  0999 V2000
    3.7500   -1.2990    0.0000 N   0  0  0  0  0  0  0  0  0  0  0  0
    3.0000    0.0000    0.0000 N   0  0  0  0  0  0  0  0  0  0  0  0
    1.5000    0.0000    0.0000 C   0  0  0  0  0  0  0  0  0  0  0  0
    0.7500   -1.2990    0.0000 N   0  0  0  0  0  0  0  0  0  0  0  0
   -0.7500   -1.2990    0.0000 C   0  0  0  0  0  0  0  0  0  0  0  0
   -1.5000    0.0000    0.0000 N   0  0  0  0  0  0  0  0  0  0  0  0
   -0.7500    1.2990    0.0000 C   0  0  0  0  0  0  0  0  0  0  0  0
    0.7500    1.2990    0.0000 C   0  0  0  0  0  0  0  0  0  0  0  0
    1.2135    2.7256    0.0000 C   0  0  0  0  0  0  0  0  0  0  0  0
    0.0000    3.6073    0.0000 N   0  0  0  0  0  0  0  0  0  0  0  0
   -1.2135    2.7256    0.0000 N   0  0  0  0  0  0  0  0  0  0  0  0
   -2.6401    3.1891    0.0000 C   0  0  0  0  0  0  0  0  0  0  0  0
   -2.9520    4.6564    0.0000 C   0  0  0  0  0  0  0  0  0  0  0  0
   -4.3786    5.1199    0.0000 C   0  0  0  0  0  0  0  0  0  0  0  0
   -5.4933    4.1162    0.0000 C   0  0  0  0  0  0  0  0  0  0  0  0
   -5.1814    2.6490    0.0000 C   0  0  0  0  0  0  0  0  0  0  0  0
   -3.7548    2.1855    0.0000 C   0  0  0  0  0  0  0  0  0  0  0  0
   -3.4430    0.7182    0.0000 F   0  0  0  0  0  0  0  0  0  0  0  0
  1  2  1  0
  2  3  1  0
  3  4  2  0
  4  5  1  0
  5  6  2  0
  6  7  1  0
  7  8  2  0
  8  9  1  0
  9 10  2  0
 10 11  1  0
 11 12  1  0
 12 13  2  0
 13 14  1  0
 14 15  2  0
 15 16  1  0
 16 17  2  0
 17 18  1  0
  8  3  1  0
 17 12  1  0
 11  7  1  0
M  END
>  <Compound_ID>  (543) 
C62203239

>  <Active>  (543) 
0

>  <Smiles>  (543) 
NNc1ncnc2c1cnn2-c1ccccc1F

>  <canonical_smi>  (543) 
NNc1ncnc2c1cnn2-c1ccccc1F

>  <Set>  (543) 
G2 inactive

>  <Set_type>  (543) 
Test

>  <MW>  (543) 
244.23

>  <HBD>  (543) 
2

>  <HBA>  (543) 
5

>  <NRB>  (543) 
2

>  <NR>  (543) 
3

>  <NAR>  (543) 
3

>  <PSA>  (543) 
81.65

>  <Standard Type>  (543) 
nan

>  <Standard Relation>  (543) 
nan

>  <Standard Units>  (543) 
nan

>  <Standard Value>  (543) 
nan

>  <Assay ChEMBL ID>  (543) 
nan

>  <Assay Description>  (543) 
nan

>  <BAO Label>  (543) 
nan

$$$$

     RDKit          2D

 28 30  0  0  0  0  0  0  0  0999 V2000
    4.5000   -7.7942    0.0000 C   0  0  0  0  0  0  0  0  0  0  0  0
    3.7500   -6.4952    0.0000 C   0  0  0  0  0  0  0  0  0  0  0  0
    2.2500   -6.4952    0.0000 C   0  0  0  0  0  0  0  0  0  0  0  0
    1.5000   -5.1962    0.0000 C   0  0  0  0  0  0  0  0  0  0  0  0
   -0.0000   -5.1962    0.0000 C   0  0  0  0  0  0  0  0  0  0  0  0
    2.2500   -3.8971    0.0000 C   0  0  0  0  0  0  0  0  0  0  0  0
    1.5000   -2.5981    0.0000 S   0  0  0  0  0  0  0  0  0  0  0  0
    0.2010   -3.3481    0.0000 O   0  0  0  0  0  0  0  0  0  0  0  0
    2.7990   -1.8481    0.0000 O   0  0  0  0  0  0  0  0  0  0  0  0
    0.7500   -1.2990    0.0000 N   0  0  0  0  0  0  0  0  0  0  0  0
    1.5000    0.0000    0.0000 C   0  0  0  0  0  0  0  0  0  0  0  0
    0.7500    1.2990    0.0000 C   0  0  0  0  0  0  0  0  0  0  0  0
   -0.7500    1.2990    0.0000 C   0  0  0  0  0  0  0  0  0  0  0  0
   -1.5000    0.0000    0.0000 C   0  0  0  0  0  0  0  0  0  0  0  0
   -3.0000    0.0000    0.0000 C   0  0  0  0  0  0  0  0  0  0  0  0
   -3.7500   -1.2990    0.0000 C   0  0  0  0  0  0  0  0  0  0  0  0
   -3.0000   -2.5981    0.0000 C   0  0  0  0  0  0  0  0  0  0  0  0
   -1.5000   -2.5981    0.0000 C   0  0  0  0  0  0  0  0  0  0  0  0
   -0.7500   -3.8971    0.0000 F   0  0  0  0  0  0  0  0  0  0  0  0
   -0.7500   -1.2990    0.0000 C   0  0  0  0  0  0  0  0  0  0  0  0
    3.7500   -3.8971    0.0000 C   0  0  0  0  0  0  0  0  0  0  0  0
    4.5000   -2.5981    0.0000 C   0  0  0  0  0  0  0  0  0  0  0  0
    4.5000   -5.1962    0.0000 C   0  0  0  0  0  0  0  0  0  0  0  0
    6.0000   -5.1962    0.0000 N   0  0  0  0  0  2  0  0  0  0  0  0
    6.7500   -6.4952    0.0000 S   0  0  0  0  0  0  0  0  0  0  0  0
    7.5000   -7.7942    0.0000 C   0  0  0  0  0  0  0  0  0  0  0  0
    5.4510   -7.2452    0.0000 O   0  0  0  0  0  0  0  0  0  0  0  0
    8.0490   -5.7452    0.0000 O   0  0  0  0  0  0  0  0  0  0  0  0
  1  2  1  0
  2  3  2  0
  3  4  1  0
  4  5  1  0
  4  6  2  0
  6  7  1  0
  7  8  2  0
  7  9  2  0
  7 10  1  0
 10 11  1  0
 11 12  1  0
 12 13  1  0
 13 14  1  0
 14 15  2  0
 15 16  1  0
 16 17  2  0
 17 18  1  0
 18 19  1  0
 18 20  2  0
  6 21  1  0
 21 22  1  0
 21 23  2  0
 23 24  1  0
 24 25  1  0
 25 26  1  0
 25 27  2  0
 25 28  2  0
 23  2  1  0
 20 10  1  0
 20 14  1  0
M  CHG  1  24  -1
M  END
>  <Compound_ID>  (544) 
C59772987

>  <Active>  (544) 
0

>  <Smiles>  (544) 
Cc1cc(C)c(S(=O)(=O)N2CCCc3cccc(F)c32)c(C)c1[N-]S(C)(=O)=O

>  <canonical_smi>  (544) 
Cc1cc(C)c(S(=O)(=O)N2CCCc3cccc(F)c32)c(C)c1[N-]S(C)(=O)=O

>  <Set>  (544) 
G2 inactive

>  <Set_type>  (544) 
Test

>  <MW>  (544) 
425.53

>  <HBD>  (544) 
0

>  <HBA>  (544) 
4

>  <NRB>  (544) 
4

>  <NR>  (544) 
3

>  <NAR>  (544) 
2

>  <PSA>  (544) 
85.62

>  <Standard Type>  (544) 
nan

>  <Standard Relation>  (544) 
nan

>  <Standard Units>  (544) 
nan

>  <Standard Value>  (544) 
nan

>  <Assay ChEMBL ID>  (544) 
nan

>  <Assay Description>  (544) 
nan

>  <BAO Label>  (544) 
nan

$$$$

     RDKit          2D

 31 34  0  0  0  0  0  0  0  0999 V2000
   -2.4240   -6.1312    0.0000 C   0  0  0  0  0  0  0  0  0  0  0  0
   -1.0537   -5.5211    0.0000 C   0  0  0  0  0  0  0  0  0  0  0  0
   -0.7418   -4.0539    0.0000 C   0  0  0  0  0  0  0  0  0  0  0  0
    0.7500   -3.8971    0.0000 C   0  0  0  0  0  0  0  0  0  0  0  0
    1.5000   -2.5981    0.0000 C   0  0  0  0  0  0  0  0  0  0  0  0
    0.7500   -1.2990    0.0000 C   0  0  0  0  0  0  0  0  0  0  0  0
    1.5000    0.0000    0.0000 C   0  0  0  0  0  0  0  0  0  0  0  0
    3.0000    0.0000    0.0000 O   0  0  0  0  0  0  0  0  0  0  0  0
    0.7500    1.2990    0.0000 N   0  0  0  0  0  0  0  0  0  0  0  0
   -0.7500    1.2990    0.0000 C   0  0  0  0  0  0  0  0  0  0  0  0
   -1.5000    2.5981    0.0000 O   0  0  0  0  0  1  0  0  0  0  0  0
   -1.5000    0.0000    0.0000 N   0  0  0  0  0  0  0  0  0  0  0  0
   -3.0000    0.0000    0.0000 C   0  0  0  0  0  0  0  0  0  0  0  0
   -3.7500    1.2990    0.0000 C   0  0  0  0  0  0  0  0  0  0  0  0
   -5.2500    1.2990    0.0000 C   0  0  0  0  0  0  0  0  0  0  0  0
   -6.0000    0.0000    0.0000 C   0  0  0  0  0  0  0  0  0  0  0  0
   -7.5000    0.0000    0.0000 Cl  0  0  0  0  0  0  0  0  0  0  0  0
   -5.2500   -1.2990    0.0000 C   0  0  0  0  0  0  0  0  0  0  0  0
   -3.7500   -1.2990    0.0000 C   0  0  0  0  0  0  0  0  0  0  0  0
   -0.7500   -1.2990    0.0000 C   0  0  0  0  0  0  0  0  0  0  0  0
   -1.5000   -2.5981    0.0000 O   0  0  0  0  0  0  0  0  0  0  0  0
    1.3601   -5.2674    0.0000 C   0  0  0  0  0  0  0  0  0  0  0  0
    2.8273   -5.5793    0.0000 C   0  0  0  0  0  0  0  0  0  0  0  0
    0.2454   -6.2711    0.0000 N   0  0  0  0  0  0  0  0  0  0  0  0
    0.4022   -7.7629    0.0000 C   0  0  0  0  0  0  0  0  0  0  0  0
    1.7725   -8.3730    0.0000 C   0  0  0  0  0  0  0  0  0  0  0  0
    1.9293   -9.8648    0.0000 C   0  0  0  0  0  0  0  0  0  0  0  0
    0.7158  -10.7465    0.0000 C   0  0  0  0  0  0  0  0  0  0  0  0
    0.8726  -12.2383    0.0000 Cl  0  0  0  0  0  0  0  0  0  0  0  0
   -0.6546  -10.1364    0.0000 C   0  0  0  0  0  0  0  0  0  0  0  0
   -0.8113   -8.6446    0.0000 C   0  0  0  0  0  0  0  0  0  0  0  0
  1  2  1  0
  2  3  2  0
  3  4  1  0
  4  5  1  0
  5  6  2  0
  6  7  1  0
  7  8  2  0
  7  9  1  0
  9 10  2  0
 10 11  1  0
 10 12  1  0
 12 13  1  0
 13 14  2  0
 14 15  1  0
 15 16  2  0
 16 17  1  0
 16 18  1  0
 18 19  2  0
 12 20  1  0
 20 21  2  0
  4 22  2  0
 22 23  1  0
 22 24  1  0
 24 25  1  0
 25 26  2  0
 26 27  1  0
 27 28  2  0
 28 29  1  0
 28 30  1  0
 30 31  2  0
 24  2  1  0
 31 25  1  0
 20  6  1  0
 19 13  1  0
M  CHG  1  11  -1
M  END
>  <Compound_ID>  (545) 
C13616181

>  <Active>  (545) 
0

>  <Smiles>  (545) 
Cc1cc(/C=C2/C(=O)N=C([O-])N(c3ccc(Cl)cc3)C2=O)c(C)n1-c1ccc(Cl)cc1

>  <canonical_smi>  (545) 
Cc1cc(/C=C2/C(=O)N=C([O-])N(c3ccc(Cl)cc3)C2=O)c(C)n1-c1ccc(Cl)cc1

>  <Set>  (545) 
G2 inactive

>  <Set_type>  (545) 
Test

>  <MW>  (545) 
453.31

>  <HBD>  (545) 
0

>  <HBA>  (545) 
3

>  <NRB>  (545) 
3

>  <NR>  (545) 
4

>  <NAR>  (545) 
3

>  <PSA>  (545) 
77.73

>  <Standard Type>  (545) 
nan

>  <Standard Relation>  (545) 
nan

>  <Standard Units>  (545) 
nan

>  <Standard Value>  (545) 
nan

>  <Assay ChEMBL ID>  (545) 
nan

>  <Assay Description>  (545) 
nan

>  <BAO Label>  (545) 
nan

$$$$

     RDKit          2D

 25 27  0  0  0  0  0  0  0  0999 V2000
    3.7500   -1.2990    0.0000 C   0  0  0  0  0  0  0  0  0  0  0  0
    3.0000    0.0000    0.0000 S   0  0  0  0  0  0  0  0  0  0  0  0
    1.5000    0.0000    0.0000 C   0  0  0  0  0  0  0  0  0  0  0  0
    0.7500   -1.2990    0.0000 C   0  0  0  0  0  0  0  0  0  0  0  0
   -0.7500   -1.2990    0.0000 N   0  0  0  0  0  0  0  0  0  0  0  0
   -1.5000    0.0000    0.0000 C   0  0  0  0  0  0  0  0  0  0  0  0
   -3.0000    0.0000    0.0000 C   0  0  0  0  0  0  0  0  0  0  0  0
   -3.7500    1.2990    0.0000 C   0  0  0  0  0  0  0  0  0  0  0  0
   -3.0000    2.5981    0.0000 N   0  0  0  0  0  0  0  0  0  0  0  0
   -3.7500    3.8971    0.0000 O   0  0  0  0  0  1  0  0  0  0  0  0
   -1.5000    2.5981    0.0000 C   0  0  0  0  0  0  0  0  0  0  0  0
   -0.7500    3.8971    0.0000 O   0  0  0  0  0  0  0  0  0  0  0  0
   -0.7500    1.2990    0.0000 C   0  0  0  0  0  0  0  0  0  0  0  0
    0.7500    1.2990    0.0000 C   0  0  0  0  0  0  0  0  0  0  0  0
   -5.2500    1.2990    0.0000 C   0  0  0  0  0  0  0  0  0  0  0  0
   -6.0000    2.5981    0.0000 O   0  0  0  0  0  0  0  0  0  0  0  0
   -6.0000    0.0000    0.0000 C   0  0  0  0  0  0  0  0  0  0  0  0
   -5.2500   -1.2990    0.0000 C   0  0  0  0  0  0  0  0  0  0  0  0
   -6.0000   -2.5981    0.0000 S   0  0  0  0  0  0  0  0  0  0  0  0
   -4.7010   -3.3481    0.0000 O   0  0  0  0  0  0  0  0  0  0  0  0
   -7.2990   -1.8481    0.0000 O   0  0  0  0  0  0  0  0  0  0  0  0
   -6.7500   -3.8971    0.0000 C   0  0  0  0  0  0  0  0  0  0  0  0
   -6.0000   -5.1962    0.0000 C   0  0  0  0  0  0  0  0  0  0  0  0
   -8.2500   -3.8971    0.0000 C   0  0  0  0  0  0  0  0  0  0  0  0
   -3.7500   -1.2990    0.0000 N   0  0  0  0  0  0  0  0  0  0  0  0
  1  2  1  0
  2  3  1  0
  3  4  2  0
  4  5  1  0
  5  6  2  0
  6  7  1  0
  7  8  2  0
  8  9  1  0
  9 10  1  0
  9 11  1  0
 11 12  2  0
 11 13  1  0
 13 14  2  0
  8 15  1  0
 15 16  2  0
 15 17  1  0
 17 18  1  0
 18 19  1  1
 19 20  2  0
 19 21  2  0
 19 22  1  0
 22 23  1  0
 22 24  1  0
 18 25  1  0
 14  3  1  0
 13  6  1  0
 25  7  1  0
M  CHG  1  10  -1
M  END
>  <Compound_ID>  (546) 
C39452251

>  <Active>  (546) 
0

>  <Smiles>  (546) 
CSc1cnc2c3c(n([O-])c(=O)c2c1)C(=O)C[C@H](S(=O)(=O)C(C)C)N3

>  <canonical_smi>  (546) 
CSc1cnc2c3c(n([O-])c(=O)c2c1)C(=O)C[C@H](S(=O)(=O)C(C)C)N3

>  <Set>  (546) 
G2 inactive

>  <Set_type>  (546) 
Test

>  <MW>  (546) 
382.44

>  <HBD>  (546) 
1

>  <HBA>  (546) 
8

>  <NRB>  (546) 
3

>  <NR>  (546) 
3

>  <NAR>  (546) 
2

>  <PSA>  (546) 
121.19

>  <Standard Type>  (546) 
nan

>  <Standard Relation>  (546) 
nan

>  <Standard Units>  (546) 
nan

>  <Standard Value>  (546) 
nan

>  <Assay ChEMBL ID>  (546) 
nan

>  <Assay Description>  (546) 
nan

>  <BAO Label>  (546) 
nan

$$$$

     RDKit          2D

 32 34  0  0  0  0  0  0  0  0999 V2000
    5.2500   -1.2990    0.0000 C   0  0  0  0  0  0  0  0  0  0  0  0
    3.7500   -1.2990    0.0000 O   0  0  0  0  0  0  0  0  0  0  0  0
    3.0000    0.0000    0.0000 C   0  0  0  0  0  0  0  0  0  0  0  0
    3.7500    1.2990    0.0000 O   0  0  0  0  0  0  0  0  0  0  0  0
    1.5000    0.0000    0.0000 C   0  0  0  0  0  0  0  0  0  0  0  0
    0.7500   -1.2990    0.0000 C   0  0  0  0  0  0  0  0  0  0  0  0
   -0.7500   -1.2990    0.0000 C   0  0  0  0  0  0  0  0  0  0  0  0
   -1.5000    0.0000    0.0000 C   0  0  0  0  0  0  0  0  0  0  0  0
   -3.0000    0.0000    0.0000 C   0  0  0  0  0  0  0  0  0  0  0  0
   -3.8817   -1.2135    0.0000 C   0  0  0  0  0  0  0  0  0  0  0  0
   -3.4182   -2.6401    0.0000 C   0  0  0  0  0  0  0  0  0  0  0  0
   -1.9509   -2.9520    0.0000 O   0  0  0  0  0  0  0  0  0  0  0  0
   -4.4218   -3.7548    0.0000 C   0  0  0  0  0  0  0  0  0  0  0  0
   -5.9136   -3.5980    0.0000 C   0  0  0  0  0  0  0  0  0  0  0  0
   -6.8164   -2.4001    0.0000 C   0  0  0  0  0  0  0  0  0  0  0  0
   -6.5237   -4.9684    0.0000 N   0  0  0  0  0  0  0  0  0  0  0  0
   -5.4090   -5.9720    0.0000 N   0  0  0  0  0  0  0  0  0  0  0  0
   -4.1100   -5.2220    0.0000 C   0  0  0  0  0  0  0  0  0  0  0  0
   -2.7397   -5.8322    0.0000 C   0  0  0  0  0  0  0  0  0  0  0  0
   -5.3083   -0.7500    0.0000 C   0  0  0  0  0  0  0  0  0  0  0  0
   -6.6202   -1.4772    0.0000 O   0  0  0  0  0  1  0  0  0  0  0  0
   -5.3083    0.7500    0.0000 C   0  0  0  0  0  0  0  0  0  0  0  0
   -6.5218    1.6317    0.0000 O   0  0  0  0  0  0  0  0  0  0  0  0
   -3.8817    1.2135    0.0000 N   0  0  0  0  0  0  0  0  0  0  0  0
   -3.4182    2.6401    0.0000 C   0  0  0  0  0  0  0  0  0  0  0  0
   -4.4218    3.7548    0.0000 C   0  0  0  0  0  0  0  0  0  0  0  0
   -3.9583    5.1814    0.0000 C   0  0  0  0  0  0  0  0  0  0  0  0
   -4.9620    6.2961    0.0000 N   0  0  0  0  0  4  0  0  0  0  0  0
   -4.4985    7.7227    0.0000 C   0  0  0  0  0  0  0  0  0  0  0  0
   -6.4292    5.9843    0.0000 C   0  0  0  0  0  0  0  0  0  0  0  0
   -0.7500    1.2990    0.0000 C   0  0  0  0  0  0  0  0  0  0  0  0
    0.7500    1.2990    0.0000 C   0  0  0  0  0  0  0  0  0  0  0  0
  1  2  1  0
  2  3  1  0
  3  4  2  0
  3  5  1  0
  5  6  2  0
  6  7  1  0
  7  8  2  0
  9  8  1  6
  9 10  1  0
 10 11  1  0
 11 12  2  0
 11 13  1  0
 13 14  2  0
 14 15  1  0
 14 16  1  0
 16 17  2  0
 17 18  1  0
 18 19  1  1
 10 20  2  0
 20 21  1  0
 20 22  1  0
 22 23  2  0
 22 24  1  0
 24 25  1  0
 25 26  1  0
 26 27  1  0
 27 28  1  0
 28 29  1  0
 28 30  1  0
  8 31  1  0
 31 32  2  0
 32  5  1  0
 24  9  1  0
 18 13  1  0
M  CHG  2  21  -1  28   1
M  END
>  <Compound_ID>  (547) 
C39148706

>  <Active>  (547) 
0

>  <Smiles>  (547) 
COC(=O)c1ccc([C@@H]2C(C(=O)C3=C(C)N=N[C@@H]3C)=C([O-])C(=O)N2CCC[NH+](C)C)cc1

>  <canonical_smi>  (547) 
COC(=O)c1ccc([C@@H]2C(C(=O)C3=C(C)N=N[C@@H]3C)=C([O-])C(=O)N2CCC[NH+](C)C)cc1

>  <Set>  (547) 
G2 inactive

>  <Set_type>  (547) 
Test

>  <MW>  (547) 
440.5

>  <HBD>  (547) 
1

>  <HBA>  (547) 
5

>  <NRB>  (547) 
8

>  <NR>  (547) 
3

>  <NAR>  (547) 
1

>  <PSA>  (547) 
115.9

>  <Standard Type>  (547) 
nan

>  <Standard Relation>  (547) 
nan

>  <Standard Units>  (547) 
nan

>  <Standard Value>  (547) 
nan

>  <Assay ChEMBL ID>  (547) 
nan

>  <Assay Description>  (547) 
nan

>  <BAO Label>  (547) 
nan

$$$$

     RDKit          2D

 29 32  0  0  0  0  0  0  0  0999 V2000
    3.7500   -1.2990    0.0000 C   0  0  0  0  0  0  0  0  0  0  0  0
    3.0000    0.0000    0.0000 O   0  0  0  0  0  0  0  0  0  0  0  0
    1.5000    0.0000    0.0000 C   0  0  0  0  0  0  0  0  0  0  0  0
    0.7500   -1.2990    0.0000 C   0  0  0  0  0  0  0  0  0  0  0  0
   -0.7500   -1.2990    0.0000 C   0  0  0  0  0  0  0  0  0  0  0  0
   -1.5000   -2.5981    0.0000 C   0  0  0  0  0  0  0  0  0  0  0  0
   -0.7500   -3.8971    0.0000 O   0  0  0  0  0  0  0  0  0  0  0  0
   -3.0000   -2.5981    0.0000 N   0  0  0  0  0  0  0  0  0  0  0  0
   -3.7500   -1.2990    0.0000 C   0  0  0  0  0  0  0  0  0  0  0  0
   -5.2500   -1.2990    0.0000 C   0  0  0  0  0  0  0  0  0  0  0  0
   -6.0000   -2.5981    0.0000 N   0  0  0  0  0  0  0  0  0  0  0  0
   -5.2500   -3.8971    0.0000 C   0  0  0  0  0  0  0  0  0  0  0  0
   -6.0000   -5.1962    0.0000 O   0  0  0  0  0  0  0  0  0  0  0  0
   -3.7500   -3.8971    0.0000 C   0  0  0  0  0  0  0  0  0  0  0  0
   -1.5000    0.0000    0.0000 C   0  0  0  0  0  0  0  0  0  0  0  0
   -0.7500    1.2990    0.0000 C   0  0  0  0  0  0  0  0  0  0  0  0
    0.7500    1.2990    0.0000 C   0  0  0  0  0  0  0  0  0  0  0  0
    1.5000    2.5981    0.0000 O   0  0  0  0  0  0  0  0  0  0  0  0
    0.7500    3.8971    0.0000 C   0  0  0  0  0  0  0  0  0  0  0  0
    1.5000    5.1962    0.0000 C   0  0  0  0  0  0  0  0  0  0  0  0
    0.7500    6.4952    0.0000 C   0  0  0  0  0  0  0  0  0  0  0  0
   -0.7500    6.4952    0.0000 N   0  0  0  0  0  4  0  0  0  0  0  0
   -1.5000    7.7942    0.0000 C   0  0  0  0  0  0  0  0  0  0  0  0
   -2.9918    7.9510    0.0000 C   0  0  0  0  0  0  0  0  0  0  0  0
   -3.3037    9.4182    0.0000 C   0  0  0  0  0  0  0  0  0  0  0  0
   -2.0046   10.1682    0.0000 C   0  0  0  0  0  0  0  0  0  0  0  0
   -0.8899    9.1645    0.0000 C   0  0  0  0  0  0  0  0  0  0  0  0
   -1.5000    5.1962    0.0000 C   0  0  0  0  0  0  0  0  0  0  0  0
   -0.7500    3.8971    0.0000 C   0  0  0  0  0  0  0  0  0  0  0  0
  1  2  1  0
  2  3  1  0
  3  4  2  0
  4  5  1  0
  5  6  1  0
  6  7  2  0
  6  8  1  0
  8  9  1  0
  9 10  1  0
 10 11  1  0
 11 12  1  0
 12 13  2  0
 12 14  1  0
  5 15  2  0
 15 16  1  0
 16 17  2  0
 17 18  1  0
 18 19  1  0
 19 20  1  0
 20 21  1  0
 21 22  1  0
 22 23  1  0
 23 24  1  0
 24 25  1  0
 25 26  1  0
 26 27  1  0
 22 28  1  0
 28 29  1  0
 17  3  1  0
 29 19  1  0
 14  8  1  0
 27 23  1  0
M  CHG  1  22   1
M  END
>  <Compound_ID>  (548) 
C12747156

>  <Active>  (548) 
0

>  <Smiles>  (548) 
COc1cc(C(=O)N2CCNC(=O)C2)ccc1OC1CC[NH+](C2CCCC2)CC1

>  <canonical_smi>  (548) 
COc1cc(C(=O)N2CCNC(=O)C2)ccc1OC1CC[NH+](C2CCCC2)CC1

>  <Set>  (548) 
G2 inactive

>  <Set_type>  (548) 
Test

>  <MW>  (548) 
402.52

>  <HBD>  (548) 
2

>  <HBA>  (548) 
4

>  <NRB>  (548) 
5

>  <NR>  (548) 
4

>  <NAR>  (548) 
1

>  <PSA>  (548) 
72.31

>  <Standard Type>  (548) 
nan

>  <Standard Relation>  (548) 
nan

>  <Standard Units>  (548) 
nan

>  <Standard Value>  (548) 
nan

>  <Assay ChEMBL ID>  (548) 
nan

>  <Assay Description>  (548) 
nan

>  <BAO Label>  (548) 
nan

$$$$

     RDKit          2D

 32 35  0  0  0  0  0  0  0  0999 V2000
   -9.7500   -3.8971    0.0000 C   0  0  0  0  0  0  0  0  0  0  0  0
   -8.2500   -3.8971    0.0000 C   0  0  0  0  0  0  0  0  0  0  0  0
   -7.5000   -2.5981    0.0000 C   0  0  0  0  0  0  0  0  0  0  0  0
   -6.0000   -2.5981    0.0000 C   0  0  0  0  0  0  0  0  0  0  0  0
   -5.2500   -3.8971    0.0000 C   0  0  0  0  0  0  0  0  0  0  0  0
   -6.0000   -5.1962    0.0000 C   0  0  0  0  0  0  0  0  0  0  0  0
   -5.2500   -6.4952    0.0000 N   0  0  0  0  0  0  0  0  0  0  0  0
   -3.7500   -6.4952    0.0000 C   0  0  0  0  0  0  0  0  0  0  0  0
   -3.0000   -5.1962    0.0000 S   0  0  0  0  0  0  0  0  0  0  0  0
   -3.0000   -7.7942    0.0000 N   0  0  0  0  0  0  0  0  0  0  0  0
   -3.7500   -9.0933    0.0000 C   0  0  0  0  0  0  0  0  0  0  0  0
   -5.2500   -9.0933    0.0000 C   0  0  0  0  0  0  0  0  0  0  0  0
   -6.0000  -10.3923    0.0000 N   0  0  0  0  0  4  0  0  0  0  0  0
   -7.5000  -10.3923    0.0000 C   0  0  0  0  0  0  0  0  0  0  0  0
   -5.2500  -11.6913    0.0000 C   0  0  0  0  0  0  0  0  0  0  0  0
   -1.5000   -7.7942    0.0000 C   0  0  0  0  0  0  0  0  0  0  0  0
   -0.7500   -6.4952    0.0000 C   0  0  0  0  0  0  0  0  0  0  0  0
   -1.5000   -5.1962    0.0000 C   0  0  0  0  0  0  0  0  0  0  0  0
   -0.7500   -3.8971    0.0000 C   0  0  0  0  0  0  0  0  0  0  0  0
   -1.5000   -2.5981    0.0000 C   0  0  0  0  0  0  0  0  0  0  0  0
   -0.7500   -1.2990    0.0000 C   0  0  0  0  0  0  0  0  0  0  0  0
    0.7500   -1.2990    0.0000 C   0  0  0  0  0  0  0  0  0  0  0  0
    1.5000   -2.5981    0.0000 C   0  0  0  0  0  0  0  0  0  0  0  0
    0.7500   -3.8971    0.0000 C   0  0  0  0  0  0  0  0  0  0  0  0
    1.5000   -5.1962    0.0000 N   0  0  0  0  0  0  0  0  0  0  0  0
    0.7500   -6.4952    0.0000 C   0  0  0  0  0  0  0  0  0  0  0  0
    1.5000   -7.7942    0.0000 O   0  0  0  0  0  0  0  0  0  0  0  0
    1.5000    0.0000    0.0000 O   0  0  0  0  0  0  0  0  0  0  0  0
    0.7500    1.2990    0.0000 C   0  0  0  0  0  0  0  0  0  0  0  0
   -0.7500    1.2990    0.0000 C   0  0  0  0  0  0  0  0  0  0  0  0
   -1.5000    0.0000    0.0000 O   0  0  0  0  0  0  0  0  0  0  0  0
   -7.5000   -5.1962    0.0000 C   0  0  0  0  0  0  0  0  0  0  0  0
  1  2  1  0
  2  3  2  0
  3  4  1  0
  4  5  2  0
  5  6  1  0
  6  7  1  0
  7  8  1  0
  8  9  2  0
  8 10  1  0
 10 11  1  0
 11 12  1  0
 12 13  1  0
 13 14  1  0
 13 15  1  0
 10 16  1  0
 16 17  1  0
 17 18  2  0
 18 19  1  0
 19 20  2  0
 20 21  1  0
 21 22  2  0
 22 23  1  0
 23 24  2  0
 24 25  1  0
 25 26  1  0
 26 27  2  0
 22 28  1  0
 28 29  1  0
 29 30  1  0
 30 31  1  0
  6 32  2  0
 32  2  1  0
 26 17  1  0
 24 19  1  0
 31 21  1  0
M  CHG  1  13   1
M  END
>  <Compound_ID>  (549) 
C00891532

>  <Active>  (549) 
0

>  <Smiles>  (549) 
Cc1cccc(NC(=S)N(CC[NH+](C)C)Cc2cc3cc4c(cc3[nH]c2=O)OCCO4)c1

>  <canonical_smi>  (549) 
Cc1cccc(NC(=S)N(CC[NH+](C)C)Cc2cc3cc4c(cc3[nH]c2=O)OCCO4)c1

>  <Set>  (549) 
G2 inactive

>  <Set_type>  (549) 
Test

>  <MW>  (549) 
453.59

>  <HBD>  (549) 
3

>  <HBA>  (549) 
6

>  <NRB>  (549) 
6

>  <NR>  (549) 
4

>  <NAR>  (549) 
3

>  <PSA>  (549) 
71.03

>  <Standard Type>  (549) 
nan

>  <Standard Relation>  (549) 
nan

>  <Standard Units>  (549) 
nan

>  <Standard Value>  (549) 
nan

>  <Assay ChEMBL ID>  (549) 
nan

>  <Assay Description>  (549) 
nan

>  <BAO Label>  (549) 
nan

$$$$

     RDKit          2D

 31 34  0  0  0  0  0  0  0  0999 V2000
   -3.0000   -5.1962    0.0000 N   0  0  0  0  0  0  0  0  0  0  0  0
   -1.5000   -5.1962    0.0000 C   0  0  0  0  0  0  0  0  0  0  0  0
   -0.7500   -6.4952    0.0000 O   0  0  0  0  0  0  0  0  0  0  0  0
   -0.7500   -3.8971    0.0000 C   0  0  0  0  0  0  0  0  0  0  0  0
    0.7500   -3.8971    0.0000 C   0  0  0  0  0  0  0  0  0  0  0  0
    1.5000   -2.5981    0.0000 N   0  0  0  0  0  0  0  0  0  0  0  0
    3.0000   -2.5981    0.0000 C   0  0  0  0  0  0  0  0  0  0  0  0
    3.7500   -1.2990    0.0000 O   0  0  0  0  0  0  0  0  0  0  0  0
    3.7500   -3.8971    0.0000 C   0  0  0  0  0  0  0  0  0  0  0  0
    5.2500   -3.8971    0.0000 O   0  0  0  0  0  0  0  0  0  0  0  0
    6.0000   -5.1962    0.0000 C   0  0  0  0  0  0  0  0  0  0  0  0
    5.2500   -6.4952    0.0000 O   0  0  0  0  0  0  0  0  0  0  0  0
    7.5000   -5.1962    0.0000 C   0  0  0  0  0  0  0  0  0  0  0  0
    8.2500   -6.4952    0.0000 C   0  0  0  0  0  0  0  0  0  0  0  0
    9.7500   -6.4952    0.0000 C   0  0  0  0  0  0  0  0  0  0  0  0
   10.5000   -5.1962    0.0000 C   0  0  0  0  0  0  0  0  0  0  0  0
   12.0000   -5.1962    0.0000 C   0  0  0  0  0  0  0  0  0  0  0  0
   12.7500   -6.4952    0.0000 C   0  0  0  0  0  0  0  0  0  0  0  0
   14.2500   -6.4952    0.0000 C   0  0  0  0  0  0  0  0  0  0  0  0
   15.0000   -7.7942    0.0000 C   0  0  0  0  0  0  0  0  0  0  0  0
   14.2500   -9.0933    0.0000 C   0  0  0  0  0  0  0  0  0  0  0  0
   12.7500   -9.0933    0.0000 C   0  0  0  0  0  0  0  0  0  0  0  0
   12.0000   -7.7942    0.0000 C   0  0  0  0  0  0  0  0  0  0  0  0
   10.5000   -7.7942    0.0000 N   0  0  0  0  0  0  0  0  0  0  0  0
    0.7500   -1.2990    0.0000 C   0  0  0  0  0  0  0  0  0  0  0  0
    1.5000    0.0000    0.0000 C   0  0  0  0  0  0  0  0  0  0  0  0
    0.7500    1.2990    0.0000 C   0  0  0  0  0  0  0  0  0  0  0  0
   -0.7500    1.2990    0.0000 C   0  0  0  0  0  0  0  0  0  0  0  0
   -1.5000    0.0000    0.0000 C   0  0  0  0  0  0  0  0  0  0  0  0
   -0.7500   -1.2990    0.0000 C   0  0  0  0  0  0  0  0  0  0  0  0
   -1.5000   -2.5981    0.0000 O   0  0  0  0  0  0  0  0  0  0  0  0
  1  2  1  0
  2  3  2  0
  4  2  1  1
  4  5  1  0
  5  6  1  0
  6  7  1  0
  7  8  2  0
  7  9  1  0
  9 10  1  0
 10 11  1  0
 11 12  2  0
 11 13  1  0
 13 14  2  0
 14 15  1  0
 15 16  2  0
 16 17  1  0
 17 18  2  0
 18 19  1  0
 19 20  2  0
 20 21  1  0
 21 22  2  0
 22 23  1  0
 23 24  2  0
  6 25  1  0
 25 26  2  0
 26 27  1  0
 27 28  2  0
 28 29  1  0
 29 30  2  0
 30 31  1  0
 31  4  1  0
 24 15  1  0
 30 25  1  0
 23 18  1  0
M  END
>  <Compound_ID>  (550) 
C12036033

>  <Active>  (550) 
0

>  <Smiles>  (550) 
NC(=O)[C@@H]1CN(C(=O)COC(=O)/C=C/c2ccc3ccccc3n2)c2ccccc2O1

>  <canonical_smi>  (550) 
NC(=O)[C@@H]1CN(C(=O)COC(=O)/C=C/c2ccc3ccccc3n2)c2ccccc2O1

>  <Set>  (550) 
G2 inactive

>  <Set_type>  (550) 
Test

>  <MW>  (550) 
417.42

>  <HBD>  (550) 
1

>  <HBA>  (550) 
6

>  <NRB>  (550) 
5

>  <NR>  (550) 
4

>  <NAR>  (550) 
3

>  <PSA>  (550) 
111.82

>  <Standard Type>  (550) 
nan

>  <Standard Relation>  (550) 
nan

>  <Standard Units>  (550) 
nan

>  <Standard Value>  (550) 
nan

>  <Assay ChEMBL ID>  (550) 
nan

>  <Assay Description>  (550) 
nan

>  <BAO Label>  (550) 
nan

$$$$

     RDKit          2D

 35 39  0  0  0  0  0  0  0  0999 V2000
   13.8737  -12.3027    0.0000 C   0  0  0  0  0  0  0  0  0  0  0  0
   12.4471  -11.8392    0.0000 C   0  0  0  0  0  0  0  0  0  0  0  0
   11.3324  -12.8429    0.0000 C   0  0  0  0  0  0  0  0  0  0  0  0
    9.9058  -12.3794    0.0000 C   0  0  0  0  0  0  0  0  0  0  0  0
    9.5939  -10.9121    0.0000 C   0  0  0  0  0  0  0  0  0  0  0  0
    8.1673  -10.4486    0.0000 C   0  0  0  0  0  0  0  0  0  0  0  0
    7.8555   -8.9814    0.0000 C   0  0  0  0  0  0  0  0  0  0  0  0
    6.4289   -8.5179    0.0000 C   0  0  0  0  0  0  0  0  0  0  0  0
    6.1170   -7.0506    0.0000 C   0  0  0  0  0  0  0  0  0  0  0  0
    4.6904   -6.5871    0.0000 N   0  0  0  0  0  0  0  0  0  0  0  0
    4.3786   -5.1199    0.0000 C   0  0  0  0  0  0  0  0  0  0  0  0
    5.4933   -4.1162    0.0000 O   0  0  0  0  0  0  0  0  0  0  0  0
    2.9520   -4.6564    0.0000 O   0  0  0  0  0  0  0  0  0  0  0  0
    2.6401   -3.1891    0.0000 C   0  0  0  0  0  0  0  0  0  0  0  0
    1.2135   -2.7256    0.0000 C   0  0  0  0  0  0  0  0  0  0  0  0
    0.7500   -1.2990    0.0000 C   0  0  0  0  0  0  0  0  0  0  0  0
    1.5000    0.0000    0.0000 C   0  0  0  0  0  0  0  0  0  0  0  0
    0.7500    1.2990    0.0000 C   0  0  0  0  0  0  0  0  0  0  0  0
   -0.7500    1.2990    0.0000 C   0  0  0  0  0  0  0  0  0  0  0  0
   -1.5000    0.0000    0.0000 C   0  0  0  0  0  0  0  0  0  0  0  0
   -0.7500   -1.2990    0.0000 C   0  0  0  0  0  0  0  0  0  0  0  0
   -1.2135   -2.7256    0.0000 C   0  0  0  0  0  0  0  0  0  0  0  0
   -2.5838   -3.3357    0.0000 C   0  0  0  0  0  0  0  0  0  0  0  0
   -2.7406   -4.8275    0.0000 C   0  0  0  0  0  0  0  0  0  0  0  0
   -1.5271   -5.7092    0.0000 C   0  0  0  0  0  0  0  0  0  0  0  0
   -0.1568   -5.0991    0.0000 C   0  0  0  0  0  0  0  0  0  0  0  0
   -0.0000   -3.6073    0.0000 C   0  0  0  0  0  0  0  0  0  0  0  0
    7.2317   -6.0469    0.0000 C   0  0  0  0  0  0  0  0  0  0  0  0
    6.9199   -4.5797    0.0000 O   0  0  0  0  0  0  0  0  0  0  0  0
    8.6583   -6.5105    0.0000 O   0  0  0  0  0  1  0  0  0  0  0  0
    8.9702   -7.9777    0.0000 C   0  0  0  0  0  0  0  0  0  0  0  0
   10.3968   -8.4412    0.0000 C   0  0  0  0  0  0  0  0  0  0  0  0
   10.7086   -9.9084    0.0000 C   0  0  0  0  0  0  0  0  0  0  0  0
   12.1352  -10.3720    0.0000 N   0  0  0  0  0  0  0  0  0  0  0  0
   13.2499   -9.3683    0.0000 C   0  0  0  0  0  0  0  0  0  0  0  0
  2  1  1  6
  2  3  1  0
  3  4  1  0
  4  5  1  0
  5  6  2  0
  6  7  1  0
  7  8  1  0
  9  8  1  6
  9 10  1  0
 10 11  1  0
 11 12  2  0
 11 13  1  0
 13 14  1  0
 14 15  1  0
 15 16  1  0
 16 17  2  0
 17 18  1  0
 18 19  2  0
 19 20  1  0
 20 21  2  0
 21 22  1  0
 22 23  2  0
 23 24  1  0
 24 25  2  0
 25 26  1  0
 26 27  2  0
  9 28  1  0
 28 29  2  0
 28 30  1  0
  7 31  2  0
 31 32  1  0
 32 33  2  0
 33 34  1  0
 34 35  1  0
 34  2  1  0
 33  5  1  0
 27 15  1  0
 21 16  1  0
 27 22  1  0
M  CHG  1  30  -1
M  END
>  <Compound_ID>  (551) 
C44325654

>  <Active>  (551) 
0

>  <Smiles>  (551) 
C[C@@H]1CCc2cc(C[C@H](NC(=O)OCC3c4ccccc4-c4ccccc43)C(=O)[O-])ccc2N1C

>  <canonical_smi>  (551) 
C[C@@H]1CCc2cc(C[C@H](NC(=O)OCC3c4ccccc4-c4ccccc43)C(=O)[O-])ccc2N1C

>  <Set>  (551) 
G2 inactive

>  <Set_type>  (551) 
Test

>  <MW>  (551) 
469.56

>  <HBD>  (551) 
1

>  <HBA>  (551) 
5

>  <NRB>  (551) 
6

>  <NR>  (551) 
5

>  <NAR>  (551) 
3

>  <PSA>  (551) 
81.7

>  <Standard Type>  (551) 
nan

>  <Standard Relation>  (551) 
nan

>  <Standard Units>  (551) 
nan

>  <Standard Value>  (551) 
nan

>  <Assay ChEMBL ID>  (551) 
nan

>  <Assay Description>  (551) 
nan

>  <BAO Label>  (551) 
nan

$$$$

     RDKit          2D

 24 25  0  0  0  0  0  0  0  0999 V2000
    2.6491    0.9642    0.0000 C   0  0  0  0  0  0  0  0  0  0  0  0
    1.5000    0.0000    0.0000 C   0  0  0  0  0  0  0  0  0  0  0  0
    2.6491   -0.9642    0.0000 C   0  0  0  0  0  0  0  0  0  0  0  0
    0.7500   -1.2990    0.0000 C   0  0  0  0  0  0  0  0  0  0  0  0
   -0.7500   -1.2990    0.0000 C   0  0  0  0  0  0  0  0  0  0  0  0
   -1.5000   -2.5981    0.0000 N   0  0  0  0  0  0  0  0  0  0  0  0
   -3.0000   -2.5981    0.0000 C   0  0  0  0  0  0  0  0  0  0  0  0
   -3.7500   -1.2990    0.0000 O   0  0  0  0  0  0  0  0  0  0  0  0
   -3.7500   -3.8971    0.0000 N   0  0  0  0  0  0  0  0  0  0  0  0
   -5.2500   -3.8971    0.0000 C   0  0  0  0  0  0  0  0  0  0  0  0
   -6.0000   -2.5981    0.0000 C   0  0  0  0  0  0  0  0  0  0  0  0
   -7.5000   -2.5981    0.0000 C   0  0  0  0  0  0  0  0  0  0  0  0
   -8.2500   -3.8971    0.0000 C   0  0  0  0  0  0  0  0  0  0  0  0
   -7.5000   -5.1962    0.0000 C   0  0  0  0  0  0  0  0  0  0  0  0
   -6.0000   -5.1962    0.0000 C   0  0  0  0  0  0  0  0  0  0  0  0
   -5.2500   -6.4952    0.0000 S   0  0  0  0  0  0  0  0  0  0  0  0
   -4.5000   -7.7942    0.0000 C   0  0  0  0  0  0  0  0  0  0  0  0
   -3.9510   -5.7452    0.0000 O   0  0  0  0  0  0  0  0  0  0  0  0
   -6.5490   -7.2452    0.0000 O   0  0  0  0  0  0  0  0  0  0  0  0
   -1.5000    0.0000    0.0000 C   0  0  0  0  0  0  0  0  0  0  0  0
   -0.7500    1.2990    0.0000 C   0  0  0  0  0  0  0  0  0  0  0  0
   -2.1595    1.8121    0.0000 C   0  0  0  0  0  0  0  0  0  0  0  0
   -0.4895    2.7762    0.0000 C   0  0  0  0  0  0  0  0  0  0  0  0
    0.7500    1.2990    0.0000 N   0  0  0  0  0  4  0  0  0  0  0  0
  1  2  1  0
  2  3  1  0
  2  4  1  0
  4  5  1  0
  5  6  1  0
  6  7  1  0
  7  8  2  0
  7  9  1  0
  9 10  1  0
 10 11  2  0
 11 12  1  0
 12 13  2  0
 13 14  1  0
 14 15  2  0
 15 16  1  0
 16 17  1  0
 16 18  2  0
 16 19  2  0
  5 20  1  0
 20 21  1  0
 21 22  1  0
 21 23  1  0
 21 24  1  0
 24  2  1  0
 15 10  1  0
M  CHG  1  24   1
M  END
>  <Compound_ID>  (552) 
C43929637

>  <Active>  (552) 
0

>  <Smiles>  (552) 
CC1(C)CC(NC(=O)Nc2ccccc2S(C)(=O)=O)CC(C)(C)[NH2+]1

>  <canonical_smi>  (552) 
CC1(C)CC(NC(=O)Nc2ccccc2S(C)(=O)=O)CC(C)(C)[NH2+]1

>  <Set>  (552) 
G2 inactive

>  <Set_type>  (552) 
Test

>  <MW>  (552) 
354.5

>  <HBD>  (552) 
3

>  <HBA>  (552) 
3

>  <NRB>  (552) 
3

>  <NR>  (552) 
2

>  <NAR>  (552) 
1

>  <PSA>  (552) 
91.88

>  <Standard Type>  (552) 
nan

>  <Standard Relation>  (552) 
nan

>  <Standard Units>  (552) 
nan

>  <Standard Value>  (552) 
nan

>  <Assay ChEMBL ID>  (552) 
nan

>  <Assay Description>  (552) 
nan

>  <BAO Label>  (552) 
nan

$$$$

     RDKit          2D

 18 19  0  0  0  0  0  0  0  0999 V2000
   -4.7875   -2.9605    0.0000 C   0  0  0  0  0  0  0  0  0  0  0  0
   -3.3456   -3.3740    0.0000 C   0  0  0  0  0  0  0  0  0  0  0  0
   -2.8326   -4.7835    0.0000 N   0  0  0  0  0  0  0  0  0  0  0  0
   -1.3335   -4.7312    0.0000 N   0  0  0  0  0  0  0  0  0  0  0  0
   -0.4100   -5.9132    0.0000 C   0  0  0  0  0  0  0  0  0  0  0  0
   -0.9200   -3.2893    0.0000 C   0  0  0  0  0  0  0  0  0  0  0  0
    0.4895   -2.7762    0.0000 N   0  0  0  0  0  0  0  0  0  0  0  0
    0.7500   -1.2990    0.0000 C   0  0  0  0  0  0  0  0  0  0  0  0
    2.1595   -1.8121    0.0000 C   0  0  0  0  0  0  0  0  0  0  0  0
    2.4200   -3.2893    0.0000 O   0  0  0  0  0  0  0  0  0  0  0  0
    1.5000    0.0000    0.0000 C   0  0  0  0  0  0  0  0  0  0  0  0
    0.7500    1.2990    0.0000 C   0  0  0  0  0  0  0  0  0  0  0  0
   -0.7500    1.2990    0.0000 C   0  0  0  0  0  0  0  0  0  0  0  0
   -1.5000    0.0000    0.0000 C   0  0  0  0  0  0  0  0  0  0  0  0
   -3.0000    0.0000    0.0000 C   0  0  0  0  0  0  0  0  0  0  0  0
   -0.7500   -1.2990    0.0000 C   0  0  0  0  0  0  0  0  0  0  0  0
   -2.1636   -2.4505    0.0000 C   0  0  0  0  0  0  0  0  0  0  0  0
   -2.2159   -0.9514    0.0000 N   0  0  0  0  0  0  0  0  0  0  0  0
  1  2  1  0
  2  3  2  0
  3  4  1  0
  4  5  1  0
  4  6  1  0
  6  7  1  0
  7  8  1  0
  8  9  1  1
  9 10  1  0
  8 11  1  0
 11 12  1  0
 12 13  1  0
 13 14  1  0
 14 15  1  6
 14 16  1  0
  6 17  2  0
 17 18  1  0
 17  2  1  0
 16  8  1  0
M  END
>  <Compound_ID>  (553) 
C53115088

>  <Active>  (553) 
0

>  <Smiles>  (553) 
Cc1nn(C)c(N[C@@]2(CO)CCC[C@@H](C)C2)c1N

>  <canonical_smi>  (553) 
Cc1nn(C)c(N[C@@]2(CO)CCC[C@@H](C)C2)c1N

>  <Set>  (553) 
G2 inactive

>  <Set_type>  (553) 
Test

>  <MW>  (553) 
252.36

>  <HBD>  (553) 
3

>  <HBA>  (553) 
4

>  <NRB>  (553) 
3

>  <NR>  (553) 
2

>  <NAR>  (553) 
1

>  <PSA>  (553) 
76.1

>  <Standard Type>  (553) 
nan

>  <Standard Relation>  (553) 
nan

>  <Standard Units>  (553) 
nan

>  <Standard Value>  (553) 
nan

>  <Assay ChEMBL ID>  (553) 
nan

>  <Assay Description>  (553) 
nan

>  <BAO Label>  (553) 
nan

$$$$

     RDKit          2D

 18 18  0  0  0  0  0  0  0  0999 V2000
   10.5000   -5.1962    0.0000 C   0  0  0  0  0  0  0  0  0  0  0  0
    9.7500   -3.8971    0.0000 C   0  0  0  0  0  0  0  0  0  0  0  0
   10.5000   -2.5981    0.0000 C   0  0  0  0  0  0  0  0  0  0  0  0
    8.2500   -3.8971    0.0000 N   0  0  0  0  0  0  0  0  0  0  0  0
    7.5000   -2.5981    0.0000 N   0  0  0  0  0  0  0  0  0  0  0  0
    6.0000   -2.5981    0.0000 C   0  0  0  0  0  0  0  0  0  0  0  0
    5.2500   -3.8971    0.0000 N   0  0  0  0  0  0  0  0  0  0  0  0
    5.2500   -1.2990    0.0000 N   0  0  0  0  0  4  0  0  0  0  0  0
    3.7500   -1.2990    0.0000 C   0  0  0  0  0  0  0  0  0  0  0  0
    3.0000   -2.5981    0.0000 S   0  0  0  0  0  1  0  0  0  0  0  0
    3.0000    0.0000    0.0000 N   0  0  0  0  0  0  0  0  0  0  0  0
    1.5000    0.0000    0.0000 C   0  0  0  0  0  0  0  0  0  0  0  0
    0.7500   -1.2990    0.0000 C   0  0  0  0  0  0  0  0  0  0  0  0
   -0.7500   -1.2990    0.0000 C   0  0  0  0  0  0  0  0  0  0  0  0
   -1.5000    0.0000    0.0000 C   0  0  0  0  0  0  0  0  0  0  0  0
   -3.0000    0.0000    0.0000 C   0  0  0  0  0  0  0  0  0  0  0  0
   -0.7500    1.2990    0.0000 C   0  0  0  0  0  0  0  0  0  0  0  0
    0.7500    1.2990    0.0000 C   0  0  0  0  0  0  0  0  0  0  0  0
  1  2  1  0
  2  3  1  0
  2  4  2  0
  4  5  1  0
  5  6  2  0
  6  7  1  0
  6  8  1  0
  8  9  2  0
  9 10  1  0
  9 11  1  0
 11 12  1  0
 12 13  2  0
 13 14  1  0
 14 15  2  0
 15 16  1  0
 15 17  1  0
 17 18  2  0
 18 12  1  0
M  CHG  2   8   1  10  -1
M  END
>  <Compound_ID>  (554) 
C15973671

>  <Active>  (554) 
0

>  <Smiles>  (554) 
CC(C)=N/N=C(N)/[NH+]=C(\[S-])Nc1ccc(C)cc1

>  <canonical_smi>  (554) 
CC(C)=N/N=C(N)/[NH+]=C(\[S-])Nc1ccc(C)cc1

>  <Set>  (554) 
G2 inactive

>  <Set_type>  (554) 
Test

>  <MW>  (554) 
263.37

>  <HBD>  (554) 
3

>  <HBA>  (554) 
3

>  <NRB>  (554) 
2

>  <NR>  (554) 
1

>  <NAR>  (554) 
1

>  <PSA>  (554) 
76.74

>  <Standard Type>  (554) 
nan

>  <Standard Relation>  (554) 
nan

>  <Standard Units>  (554) 
nan

>  <Standard Value>  (554) 
nan

>  <Assay ChEMBL ID>  (554) 
nan

>  <Assay Description>  (554) 
nan

>  <BAO Label>  (554) 
nan

$$$$

     RDKit          2D

 27 30  0  0  0  0  0  0  0  0999 V2000
   -2.9499    4.2246    0.0000 O   0  0  0  0  0  0  0  0  0  0  0  0
   -1.8351    3.2209    0.0000 C   0  0  0  0  0  0  0  0  0  0  0  0
   -2.1470    1.7537    0.0000 C   0  0  0  0  0  0  0  0  0  0  0  0
   -1.0323    0.7500    0.0000 C   0  0  0  0  0  0  0  0  0  0  0  0
    0.3943    1.2135    0.0000 C   0  0  0  0  0  0  0  0  0  0  0  0
    0.7062    2.6807    0.0000 C   0  0  0  0  0  0  0  0  0  0  0  0
   -0.4086    3.6844    0.0000 C   0  0  0  0  0  0  0  0  0  0  0  0
   -0.0967    5.1517    0.0000 C   0  0  0  0  0  0  0  0  0  0  0  0
    1.3299    5.6152    0.0000 C   0  0  0  0  0  0  0  0  0  0  0  0
    2.4446    4.6115    0.0000 C   0  0  0  0  0  0  0  0  0  0  0  0
    3.8712    5.0750    0.0000 C   0  0  0  0  0  0  0  0  0  0  0  0
    4.1831    6.5422    0.0000 C   0  0  0  0  0  0  0  0  0  0  0  0
    5.6097    7.0058    0.0000 C   0  0  0  0  0  0  0  0  0  0  0  0
    7.0362    7.4693    0.0000 F   0  0  0  0  0  0  0  0  0  0  0  0
    6.0732    5.5792    0.0000 F   0  0  0  0  0  0  0  0  0  0  0  0
    5.1461    8.4324    0.0000 F   0  0  0  0  0  0  0  0  0  0  0  0
    3.0684    7.5459    0.0000 C   0  0  0  0  0  0  0  0  0  0  0  0
    1.6418    7.0824    0.0000 C   0  0  0  0  0  0  0  0  0  0  0  0
   -1.2114    6.1554    0.0000 N   0  0  0  0  0  4  0  0  0  0  0  0
   -0.8995    7.6226    0.0000 C   0  0  0  0  0  0  0  0  0  0  0  0
   -2.0143    8.6263    0.0000 C   0  0  0  0  0  0  0  0  0  0  0  0
   -3.4408    8.1628    0.0000 C   0  0  0  0  0  0  0  0  0  0  0  0
   -3.7527    6.6955    0.0000 C   0  0  0  0  0  0  0  0  0  0  0  0
   -2.6380    5.6918    0.0000 C   0  0  0  0  0  0  0  0  0  0  0  0
    1.2760    0.0000    0.0000 O   0  0  0  0  0  0  0  0  0  0  0  0
    0.3943   -1.2135    0.0000 C   0  0  0  0  0  0  0  0  0  0  0  0
   -1.0323   -0.7500    0.0000 O   0  0  0  0  0  0  0  0  0  0  0  0
  1  2  1  0
  2  3  2  0
  3  4  1  0
  4  5  2  0
  5  6  1  0
  6  7  2  0
  7  8  1  0
  8  9  1  0
  9 10  2  0
 10 11  1  0
 11 12  2  0
 12 13  1  0
 13 14  1  0
 13 15  1  0
 13 16  1  0
 12 17  1  0
 17 18  2  0
  8 19  1  6
 19 20  1  0
 20 21  1  0
 21 22  1  0
 22 23  1  0
 23 24  1  0
  5 25  1  0
 25 26  1  0
 26 27  1  0
  7  2  1  0
 18  9  1  0
 24 19  1  0
 27  4  1  0
M  CHG  1  19   1
M  END
>  <Compound_ID>  (555) 
C04377857

>  <Active>  (555) 
0

>  <Smiles>  (555) 
Oc1cc2c(cc1[C@@H](c1ccc(C(F)(F)F)cc1)[NH+]1CCCCC1)OCO2

>  <canonical_smi>  (555) 
Oc1cc2c(cc1[C@@H](c1ccc(C(F)(F)F)cc1)[NH+]1CCCCC1)OCO2

>  <Set>  (555) 
G2 inactive

>  <Set_type>  (555) 
Test

>  <MW>  (555) 
380.39

>  <HBD>  (555) 
2

>  <HBA>  (555) 
3

>  <NRB>  (555) 
3

>  <NR>  (555) 
4

>  <NAR>  (555) 
2

>  <PSA>  (555) 
43.13

>  <Standard Type>  (555) 
nan

>  <Standard Relation>  (555) 
nan

>  <Standard Units>  (555) 
nan

>  <Standard Value>  (555) 
nan

>  <Assay ChEMBL ID>  (555) 
nan

>  <Assay Description>  (555) 
nan

>  <BAO Label>  (555) 
nan

$$$$

     RDKit          2D

 16 17  0  0  0  0  0  0  0  0999 V2000
   -2.5981   -8.1073    0.0000 C   0  0  0  0  0  0  0  0  0  0  0  0
   -1.2990   -7.3573    0.0000 C   0  0  0  0  0  0  0  0  0  0  0  0
   -1.2990   -5.8573    0.0000 C   0  0  0  0  0  0  0  0  0  0  0  0
   -2.5981   -5.1073    0.0000 C   0  0  0  0  0  0  0  0  0  0  0  0
   -3.8971   -4.3573    0.0000 N   0  0  0  0  0  0  0  0  0  0  0  0
   -0.0000   -5.1073    0.0000 S   0  0  0  0  0  0  0  0  0  0  0  0
   -0.0000   -3.6073    0.0000 C   0  0  0  0  0  0  0  0  0  0  0  0
    1.2135   -2.7256    0.0000 N   0  0  0  0  0  0  0  0  0  0  0  0
    0.7500   -1.2990    0.0000 C   0  0  0  0  0  0  0  0  0  0  0  0
    1.5000    0.0000    0.0000 C   0  0  0  0  0  0  0  0  0  0  0  0
    0.7500    1.2990    0.0000 C   0  0  0  0  0  0  0  0  0  0  0  0
    1.5000    2.5981    0.0000 N   0  0  0  0  0  0  0  0  0  0  0  0
   -0.7500    1.2990    0.0000 C   0  0  0  0  0  0  0  0  0  0  0  0
   -1.5000    0.0000    0.0000 C   0  0  0  0  0  0  0  0  0  0  0  0
   -0.7500   -1.2990    0.0000 C   0  0  0  0  0  0  0  0  0  0  0  0
   -1.2135   -2.7256    0.0000 O   0  0  0  0  0  0  0  0  0  0  0  0
  1  2  1  0
  3  2  1  1
  3  4  1  0
  4  5  3  0
  3  6  1  0
  6  7  1  0
  7  8  2  0
  8  9  1  0
  9 10  2  0
 10 11  1  0
 11 12  1  0
 11 13  2  0
 13 14  1  0
 14 15  2  0
 15 16  1  0
 16  7  1  0
 15  9  1  0
M  END
>  <Compound_ID>  (556) 
C43554062

>  <Active>  (556) 
0

>  <Smiles>  (556) 
CC[C@@H](C#N)Sc1nc2cc(N)ccc2o1

>  <canonical_smi>  (556) 
CC[C@@H](C#N)Sc1nc2cc(N)ccc2o1

>  <Set>  (556) 
G2 inactive

>  <Set_type>  (556) 
Test

>  <MW>  (556) 
233.3

>  <HBD>  (556) 
1

>  <HBA>  (556) 
5

>  <NRB>  (556) 
3

>  <NR>  (556) 
2

>  <NAR>  (556) 
2

>  <PSA>  (556) 
75.84

>  <Standard Type>  (556) 
nan

>  <Standard Relation>  (556) 
nan

>  <Standard Units>  (556) 
nan

>  <Standard Value>  (556) 
nan

>  <Assay ChEMBL ID>  (556) 
nan

>  <Assay Description>  (556) 
nan

>  <BAO Label>  (556) 
nan

$$$$

     RDKit          2D

 16 17  0  0  0  0  0  0  0  0999 V2000
    3.0000    0.0000    0.0000 C   0  0  0  0  0  0  0  0  0  0  0  0
    1.5000    0.0000    0.0000 C   0  0  0  0  0  0  0  0  0  0  0  0
    0.7500   -1.2990    0.0000 C   0  0  0  0  0  0  0  0  0  0  0  0
   -0.7500   -1.2990    0.0000 C   0  0  0  0  0  0  0  0  0  0  0  0
   -1.5000    0.0000    0.0000 C   0  0  0  0  0  0  0  0  0  0  0  0
   -3.0000    0.0000    0.0000 C   0  0  0  0  0  0  0  0  0  0  0  0
   -4.5000    0.0000    0.0000 N   0  0  0  0  0  0  0  0  0  0  0  0
   -0.7500    1.2990    0.0000 C   0  0  0  0  0  0  0  0  0  0  0  0
    0.7500    1.2990    0.0000 C   0  0  0  0  0  0  0  0  0  0  0  0
    1.5000    2.5981    0.0000 N   0  0  0  0  0  0  0  0  0  0  0  0
    0.7500    3.8971    0.0000 C   0  0  0  0  0  0  0  0  0  0  0  0
   -0.7418    4.0539    0.0000 C   0  0  0  0  0  0  0  0  0  0  0  0
   -1.0537    5.5211    0.0000 O   0  0  0  0  0  0  0  0  0  0  0  0
    0.2454    6.2711    0.0000 C   0  0  0  0  0  0  0  0  0  0  0  0
    1.3601    5.2674    0.0000 C   0  0  0  0  0  0  0  0  0  0  0  0
    2.8273    5.5793    0.0000 O   0  0  0  0  0  0  0  0  0  0  0  0
  1  2  1  0
  2  3  2  0
  3  4  1  0
  4  5  2  0
  5  6  1  0
  6  7  3  0
  5  8  1  0
  8  9  2  0
  9 10  1  0
 11 10  1  6
 11 12  1  0
 12 13  1  0
 13 14  1  0
 14 15  1  0
 15 16  1  6
  9  2  1  0
 15 11  1  0
M  END
>  <Compound_ID>  (557) 
C50430137

>  <Active>  (557) 
0

>  <Smiles>  (557) 
Cc1ccc(C#N)cc1N[C@@H]1COC[C@@H]1O

>  <canonical_smi>  (557) 
Cc1ccc(C#N)cc1N[C@@H]1COC[C@@H]1O

>  <Set>  (557) 
G2 inactive

>  <Set_type>  (557) 
Test

>  <MW>  (557) 
218.26

>  <HBD>  (557) 
2

>  <HBA>  (557) 
4

>  <NRB>  (557) 
2

>  <NR>  (557) 
2

>  <NAR>  (557) 
1

>  <PSA>  (557) 
65.28

>  <Standard Type>  (557) 
nan

>  <Standard Relation>  (557) 
nan

>  <Standard Units>  (557) 
nan

>  <Standard Value>  (557) 
nan

>  <Assay ChEMBL ID>  (557) 
nan

>  <Assay Description>  (557) 
nan

>  <BAO Label>  (557) 
nan

$$$$

     RDKit          2D

 24 25  0  0  0  0  0  0  0  0999 V2000
   -3.0000   -2.5981    0.0000 C   0  0  0  0  0  0  0  0  0  0  0  0
   -1.5000   -2.5981    0.0000 C   0  0  0  0  0  0  0  0  0  0  0  0
   -0.7500   -3.8971    0.0000 C   0  0  0  0  0  0  0  0  0  0  0  0
   -1.5000   -5.1962    0.0000 C   0  0  0  0  0  0  0  0  0  0  0  0
   -0.7500   -6.4952    0.0000 C   0  0  0  0  0  0  0  0  0  0  0  0
   -1.5000   -7.7942    0.0000 C   0  0  0  0  0  0  0  0  0  0  0  0
   -3.0000   -7.7942    0.0000 O   0  0  0  0  0  0  0  0  0  0  0  0
   -0.7500   -9.0933    0.0000 N   0  0  0  0  0  0  0  0  0  0  0  0
   -1.5000  -10.3923    0.0000 C   0  0  0  0  0  0  0  0  0  0  0  0
   -0.7500  -11.6913    0.0000 C   0  0  0  0  0  0  0  0  0  0  0  0
   -3.0000  -10.3923    0.0000 C   0  0  0  0  0  0  0  0  0  0  0  0
   -3.7500   -9.0933    0.0000 O   0  0  0  0  0  0  0  0  0  0  0  0
   -3.7500  -11.6913    0.0000 O   0  0  0  0  0  1  0  0  0  0  0  0
    0.7500   -3.8971    0.0000 C   0  0  0  0  0  0  0  0  0  0  0  0
    1.5000   -5.1962    0.0000 O   0  0  0  0  0  0  0  0  0  0  0  0
    1.5000   -2.5981    0.0000 O   0  0  0  0  0  0  0  0  0  0  0  0
    0.7500   -1.2990    0.0000 C   0  0  0  0  0  0  0  0  0  0  0  0
    1.5000    0.0000    0.0000 C   0  0  0  0  0  0  0  0  0  0  0  0
    3.0000    0.0000    0.0000 C   0  0  0  0  0  0  0  0  0  0  0  0
    0.7500    1.2990    0.0000 C   0  0  0  0  0  0  0  0  0  0  0  0
    1.5000    2.5981    0.0000 O   0  0  0  0  0  0  0  0  0  0  0  0
   -0.7500    1.2990    0.0000 C   0  0  0  0  0  0  0  0  0  0  0  0
   -1.5000    0.0000    0.0000 C   0  0  0  0  0  0  0  0  0  0  0  0
   -0.7500   -1.2990    0.0000 C   0  0  0  0  0  0  0  0  0  0  0  0
  1  2  1  0
  2  3  2  0
  3  4  1  0
  4  5  1  0
  5  6  1  0
  6  7  2  0
  6  8  1  0
  8  9  1  0
  9 10  1  6
  9 11  1  0
 11 12  2  0
 11 13  1  0
  3 14  1  0
 14 15  2  0
 14 16  1  0
 16 17  1  0
 17 18  2  0
 18 19  1  0
 18 20  1  0
 20 21  1  0
 20 22  2  0
 22 23  1  0
 23 24  2  0
 24  2  1  0
 24 17  1  0
M  CHG  1  13  -1
M  END
>  <Compound_ID>  (558) 
C11865400

>  <Active>  (558) 
0

>  <Smiles>  (558) 
Cc1c(CCC(=O)N[C@H](C)C(=O)[O-])c(=O)oc2c(C)c(O)ccc12

>  <canonical_smi>  (558) 
Cc1c(CCC(=O)N[C@H](C)C(=O)[O-])c(=O)oc2c(C)c(O)ccc12

>  <Set>  (558) 
G2 inactive

>  <Set_type>  (558) 
Test

>  <MW>  (558) 
332.33

>  <HBD>  (558) 
2

>  <HBA>  (558) 
6

>  <NRB>  (558) 
5

>  <NR>  (558) 
2

>  <NAR>  (558) 
2

>  <PSA>  (558) 
119.67

>  <Standard Type>  (558) 
nan

>  <Standard Relation>  (558) 
nan

>  <Standard Units>  (558) 
nan

>  <Standard Value>  (558) 
nan

>  <Assay ChEMBL ID>  (558) 
nan

>  <Assay Description>  (558) 
nan

>  <BAO Label>  (558) 
nan

$$$$

     RDKit          2D

 21 22  0  0  0  0  0  0  0  0999 V2000
    6.0000   -2.5981    0.0000 N   0  0  0  0  0  0  0  0  0  0  0  0
    5.2500   -1.2990    0.0000 C   0  0  0  0  0  0  0  0  0  0  0  0
    6.0000    0.0000    0.0000 S   0  0  0  0  0  0  0  0  0  0  0  0
    3.7500   -1.2990    0.0000 C   0  0  0  0  0  0  0  0  0  0  0  0
    3.0000    0.0000    0.0000 O   0  0  0  0  0  0  0  0  0  0  0  0
    1.5000    0.0000    0.0000 C   0  0  0  0  0  0  0  0  0  0  0  0
    0.7500   -1.2990    0.0000 C   0  0  0  0  0  0  0  0  0  0  0  0
   -0.7500   -1.2990    0.0000 C   0  0  0  0  0  0  0  0  0  0  0  0
   -1.5000    0.0000    0.0000 C   0  0  0  0  0  0  0  0  0  0  0  0
   -0.7500    1.2990    0.0000 C   0  0  0  0  0  0  0  0  0  0  0  0
   -1.5000    2.5981    0.0000 N   0  0  0  0  0  2  0  0  0  0  0  0
   -0.7500    3.8971    0.0000 S   0  0  0  0  0  0  0  0  0  0  0  0
   -2.0490    4.6471    0.0000 O   0  0  0  0  0  0  0  0  0  0  0  0
    0.5490    3.1471    0.0000 O   0  0  0  0  0  0  0  0  0  0  0  0
    0.0000    5.1962    0.0000 N   0  0  0  0  0  0  0  0  0  0  0  0
    1.5000    5.1962    0.0000 C   0  0  0  0  0  0  0  0  0  0  0  0
    2.2500    6.4952    0.0000 C   0  0  0  0  0  0  0  0  0  0  0  0
    1.5000    7.7942    0.0000 O   0  0  0  0  0  0  0  0  0  0  0  0
    0.0000    7.7942    0.0000 C   0  0  0  0  0  0  0  0  0  0  0  0
   -0.7500    6.4952    0.0000 C   0  0  0  0  0  0  0  0  0  0  0  0
    0.7500    1.2990    0.0000 C   0  0  0  0  0  0  0  0  0  0  0  0
  1  2  1  0
  2  3  2  0
  2  4  1  0
  4  5  1  0
  5  6  1  0
  6  7  2  0
  7  8  1  0
  8  9  2  0
  9 10  1  0
 10 11  1  0
 11 12  1  0
 12 13  2  0
 12 14  2  0
 12 15  1  0
 15 16  1  0
 16 17  1  0
 17 18  1  0
 18 19  1  0
 19 20  1  0
 10 21  2  0
 21  6  1  0
 20 15  1  0
M  CHG  1  11  -1
M  END
>  <Compound_ID>  (559) 
C36682910

>  <Active>  (559) 
0

>  <Smiles>  (559) 
NC(=S)COc1cccc([N-]S(=O)(=O)N2CCOCC2)c1

>  <canonical_smi>  (559) 
NC(=S)COc1cccc([N-]S(=O)(=O)N2CCOCC2)c1

>  <Set>  (559) 
G2 inactive

>  <Set_type>  (559) 
Test

>  <MW>  (559) 
330.41

>  <HBD>  (559) 
1

>  <HBA>  (559) 
6

>  <NRB>  (559) 
6

>  <NR>  (559) 
2

>  <NAR>  (559) 
1

>  <PSA>  (559) 
95.96

>  <Standard Type>  (559) 
nan

>  <Standard Relation>  (559) 
nan

>  <Standard Units>  (559) 
nan

>  <Standard Value>  (559) 
nan

>  <Assay ChEMBL ID>  (559) 
nan

>  <Assay Description>  (559) 
nan

>  <BAO Label>  (559) 
nan

$$$$

     RDKit          2D

 22 24  0  0  0  0  0  0  0  0999 V2000
    5.2500   -1.2990    0.0000 C   0  0  0  0  0  0  0  0  0  0  0  0
    3.7500   -1.2990    0.0000 C   0  0  0  0  0  0  0  0  0  0  0  0
    3.0000    0.0000    0.0000 O   0  0  0  0  0  0  0  0  0  0  0  0
    1.5000    0.0000    0.0000 C   0  0  0  0  0  0  0  0  0  0  0  0
    0.7500   -1.2990    0.0000 C   0  0  0  0  0  0  0  0  0  0  0  0
   -0.7500   -1.2990    0.0000 C   0  0  0  0  0  0  0  0  0  0  0  0
   -1.5000    0.0000    0.0000 C   0  0  0  0  0  0  0  0  0  0  0  0
   -2.9672    0.3119    0.0000 N   0  0  0  0  0  0  0  0  0  0  0  0
   -3.1240    1.8037    0.0000 C   0  0  0  0  0  0  0  0  0  0  0  0
   -4.4231    2.5537    0.0000 N   0  0  0  0  0  0  0  0  0  0  0  0
   -5.7221    1.8037    0.0000 C   0  0  0  0  0  0  0  0  0  0  0  0
   -5.7221    0.3037    0.0000 O   0  0  0  0  0  1  0  0  0  0  0  0
   -7.0211    2.5537    0.0000 C   0  0  0  0  0  0  0  0  0  0  0  0
   -8.3202    1.8037    0.0000 N   0  0  0  0  0  4  0  0  0  0  0  0
   -9.6192    2.5537    0.0000 C   0  0  0  0  0  0  0  0  0  0  0  0
  -10.9182    1.8037    0.0000 C   0  0  0  0  0  0  0  0  0  0  0  0
  -10.9182    0.3037    0.0000 C   0  0  0  0  0  0  0  0  0  0  0  0
   -9.6192   -0.4463    0.0000 C   0  0  0  0  0  0  0  0  0  0  0  0
   -8.3202    0.3037    0.0000 C   0  0  0  0  0  0  0  0  0  0  0  0
   -1.7537    2.4138    0.0000 S   0  0  0  0  0  0  0  0  0  0  0  0
   -0.7500    1.2990    0.0000 C   0  0  0  0  0  0  0  0  0  0  0  0
    0.7500    1.2990    0.0000 C   0  0  0  0  0  0  0  0  0  0  0  0
  1  2  1  0
  2  3  1  0
  3  4  1  0
  4  5  2  0
  5  6  1  0
  6  7  2  0
  7  8  1  0
  8  9  2  0
  9 10  1  0
 10 11  2  0
 11 12  1  0
 11 13  1  0
 13 14  1  0
 14 15  1  0
 15 16  1  0
 16 17  1  0
 17 18  1  0
 18 19  1  0
  9 20  1  0
 20 21  1  0
 21 22  2  0
 22  4  1  0
 21  7  1  0
 19 14  1  0
M  CHG  2  12  -1  14   1
M  END
>  <Compound_ID>  (560) 
C49622769

>  <Active>  (560) 
0

>  <Smiles>  (560) 
CCOc1ccc2nc(/N=C(\[O-])C[NH+]3CCCCC3)sc2c1

>  <canonical_smi>  (560) 
CCOc1ccc2nc(/N=C(\[O-])C[NH+]3CCCCC3)sc2c1

>  <Set>  (560) 
G2 inactive

>  <Set_type>  (560) 
Test

>  <MW>  (560) 
319.43

>  <HBD>  (560) 
1

>  <HBA>  (560) 
3

>  <NRB>  (560) 
5

>  <NR>  (560) 
3

>  <NAR>  (560) 
2

>  <PSA>  (560) 
61.98

>  <Standard Type>  (560) 
nan

>  <Standard Relation>  (560) 
nan

>  <Standard Units>  (560) 
nan

>  <Standard Value>  (560) 
nan

>  <Assay ChEMBL ID>  (560) 
nan

>  <Assay Description>  (560) 
nan

>  <BAO Label>  (560) 
nan

$$$$

     RDKit          2D

 22 23  0  0  0  0  0  0  0  0999 V2000
    0.5986   -7.8150    0.0000 C   0  0  0  0  0  0  0  0  0  0  0  0
    1.7133   -6.8113    0.0000 C   0  0  0  0  0  0  0  0  0  0  0  0
    3.1399   -7.2748    0.0000 C   0  0  0  0  0  0  0  0  0  0  0  0
    4.2546   -6.2711    0.0000 C   0  0  0  0  0  0  0  0  0  0  0  0
    5.1363   -7.4847    0.0000 C   0  0  0  0  0  0  0  0  0  0  0  0
    5.5537   -5.5211    0.0000 N   0  0  0  0  0  0  0  0  0  0  0  0
    5.2418   -4.0539    0.0000 C   0  0  0  0  0  0  0  0  0  0  0  0
    6.2455   -2.9392    0.0000 O   0  0  0  0  0  0  0  0  0  0  0  0
    3.7500   -3.8971    0.0000 N   0  0  0  0  0  0  0  0  0  0  0  0
    3.0000   -2.5981    0.0000 C   0  0  0  0  0  0  0  0  0  0  0  0
    1.5000   -2.5981    0.0000 C   0  0  0  0  0  0  0  0  0  0  0  0
    0.7500   -3.8971    0.0000 O   0  0  0  0  0  0  0  0  0  0  0  0
    0.7500   -1.2990    0.0000 N   0  0  0  0  0  0  0  0  0  0  0  0
    1.5000    0.0000    0.0000 C   0  0  0  0  0  0  0  0  0  0  0  0
    0.7500    1.2990    0.0000 C   0  0  0  0  0  0  0  0  0  0  0  0
   -0.7500    1.2990    0.0000 C   0  0  0  0  0  0  0  0  0  0  0  0
   -1.5000    0.0000    0.0000 C   0  0  0  0  0  0  0  0  0  0  0  0
   -0.7500   -1.2990    0.0000 C   0  0  0  0  0  0  0  0  0  0  0  0
   -1.5000   -2.5981    0.0000 C   0  0  0  0  0  0  0  0  0  0  0  0
   -3.0000   -2.5981    0.0000 C   0  0  0  0  0  0  0  0  0  0  0  0
    3.1399   -5.2674    0.0000 C   0  0  0  0  0  0  0  0  0  0  0  0
    1.6727   -5.5793    0.0000 O   0  0  0  0  0  0  0  0  0  0  0  0
  1  2  1  0
  2  3  1  0
  3  4  1  0
  4  5  1  1
  4  6  1  0
  6  7  1  0
  7  8  2  0
  7  9  1  0
  9 10  1  0
 10 11  1  0
 11 12  2  0
 11 13  1  0
 13 14  1  0
 14 15  1  0
 15 16  1  0
 16 17  1  0
 17 18  1  0
 18 19  1  6
 19 20  1  0
  9 21  1  0
 21 22  2  0
 21  4  1  0
 18 13  1  0
M  END
>  <Compound_ID>  (561) 
C60708355

>  <Active>  (561) 
0

>  <Smiles>  (561) 
CCC[C@@]1(C)NC(=O)N(CC(=O)N2CCCC[C@H]2CC)C1=O

>  <canonical_smi>  (561) 
CCC[C@@]1(C)NC(=O)N(CC(=O)N2CCCC[C@H]2CC)C1=O

>  <Set>  (561) 
G2 inactive

>  <Set_type>  (561) 
Test

>  <MW>  (561) 
309.41

>  <HBD>  (561) 
1

>  <HBA>  (561) 
3

>  <NRB>  (561) 
5

>  <NR>  (561) 
2

>  <NAR>  (561) 
0

>  <PSA>  (561) 
69.72

>  <Standard Type>  (561) 
nan

>  <Standard Relation>  (561) 
nan

>  <Standard Units>  (561) 
nan

>  <Standard Value>  (561) 
nan

>  <Assay ChEMBL ID>  (561) 
nan

>  <Assay Description>  (561) 
nan

>  <BAO Label>  (561) 
nan

$$$$

     RDKit          2D

 16 17  0  0  0  0  0  0  0  0999 V2000
    3.7500   -3.8971    0.0000 C   0  0  0  0  0  0  0  0  0  0  0  0
    3.0000   -2.5981    0.0000 C   0  0  0  0  0  0  0  0  0  0  0  0
    1.5000   -2.5981    0.0000 C   0  0  0  0  0  0  0  0  0  0  0  0
    0.7500   -3.8971    0.0000 C   0  0  0  0  0  0  0  0  0  0  0  0
   -0.7500   -3.8971    0.0000 C   0  0  0  0  0  0  0  0  0  0  0  0
   -1.5000   -5.1962    0.0000 C   0  0  0  0  0  0  0  0  0  0  0  0
   -3.0000   -5.1962    0.0000 C   0  0  0  0  0  0  0  0  0  0  0  0
   -0.7500   -6.4952    0.0000 O   0  0  0  0  0  0  0  0  0  0  0  0
   -1.5000   -2.5981    0.0000 C   0  0  0  0  0  0  0  0  0  0  0  0
   -0.7500   -1.2990    0.0000 C   0  0  0  0  0  0  0  0  0  0  0  0
    0.7500   -1.2990    0.0000 C   0  0  0  0  0  0  0  0  0  0  0  0
    1.5000    0.0000    0.0000 N   0  0  0  0  0  0  0  0  0  0  0  0
    0.7500    1.2990    0.0000 C   0  0  0  0  0  0  0  0  0  0  0  0
    1.5000    2.5981    0.0000 O   0  0  0  0  0  0  0  0  0  0  0  0
   -0.7500    1.2990    0.0000 C   0  0  0  0  0  0  0  0  0  0  0  0
   -1.5000    0.0000    0.0000 C   0  0  0  0  0  0  0  0  0  0  0  0
  1  2  1  0
  2  3  1  0
  3  4  2  0
  4  5  1  0
  5  6  1  0
  6  7  1  6
  6  8  1  0
  5  9  2  0
  9 10  1  0
 10 11  2  0
 11 12  1  0
 12 13  1  0
 13 14  2  0
 13 15  1  0
 15 16  1  0
 11  3  1  0
 16 10  1  0
M  END
>  <Compound_ID>  (562) 
C58113461

>  <Active>  (562) 
0

>  <Smiles>  (562) 
CCc1cc([C@@H](C)O)cc2c1NC(=O)CC2

>  <canonical_smi>  (562) 
CCc1cc([C@@H](C)O)cc2c1NC(=O)CC2

>  <Set>  (562) 
G2 inactive

>  <Set_type>  (562) 
Test

>  <MW>  (562) 
219.28

>  <HBD>  (562) 
2

>  <HBA>  (562) 
2

>  <NRB>  (562) 
2

>  <NR>  (562) 
2

>  <NAR>  (562) 
1

>  <PSA>  (562) 
49.33

>  <Standard Type>  (562) 
nan

>  <Standard Relation>  (562) 
nan

>  <Standard Units>  (562) 
nan

>  <Standard Value>  (562) 
nan

>  <Assay ChEMBL ID>  (562) 
nan

>  <Assay Description>  (562) 
nan

>  <BAO Label>  (562) 
nan

$$$$

     RDKit          2D

 23 24  0  0  0  0  0  0  0  0999 V2000
    3.7500   -1.2990    0.0000 C   0  0  0  0  0  0  0  0  0  0  0  0
    3.0000    0.0000    0.0000 C   0  0  0  0  0  0  0  0  0  0  0  0
    1.5000    0.0000    0.0000 N   0  0  0  0  0  4  0  0  0  0  0  0
    0.7500   -1.2990    0.0000 C   0  0  0  0  0  0  0  0  0  0  0  0
   -0.7500   -1.2990    0.0000 C   0  0  0  0  0  0  0  0  0  0  0  0
   -1.5000    0.0000    0.0000 N   0  0  0  0  0  0  0  0  0  0  0  0
   -3.0000    0.0000    0.0000 C   0  0  0  0  0  0  0  0  0  0  0  0
   -3.7500    1.2990    0.0000 C   0  0  0  0  0  0  0  0  0  0  0  0
   -5.2500    1.2990    0.0000 C   0  0  0  0  0  0  0  0  0  0  0  0
   -6.0000    0.0000    0.0000 O   0  0  0  0  0  0  0  0  0  0  0  0
   -6.0000    2.5981    0.0000 C   0  0  0  0  0  0  0  0  0  0  0  0
   -5.2500    3.8971    0.0000 C   0  0  0  0  0  0  0  0  0  0  0  0
   -6.0000    5.1962    0.0000 C   0  0  0  0  0  0  0  0  0  0  0  0
   -7.5000    5.1962    0.0000 C   0  0  0  0  0  0  0  0  0  0  0  0
   -8.2500    6.4952    0.0000 O   0  0  0  0  0  0  0  0  0  0  0  0
   -7.5000    7.7942    0.0000 C   0  0  0  0  0  0  0  0  0  0  0  0
   -8.2500    9.0933    0.0000 C   0  0  0  0  0  0  0  0  0  0  0  0
   -6.0000    7.7942    0.0000 C   0  0  0  0  0  0  0  0  0  0  0  0
   -8.2500    3.8971    0.0000 C   0  0  0  0  0  0  0  0  0  0  0  0
   -9.7500    3.8971    0.0000 N   0  0  0  0  0  0  0  0  0  0  0  0
   -7.5000    2.5981    0.0000 C   0  0  0  0  0  0  0  0  0  0  0  0
   -0.7500    1.2990    0.0000 C   0  0  0  0  0  0  0  0  0  0  0  0
    0.7500    1.2990    0.0000 C   0  0  0  0  0  0  0  0  0  0  0  0
  1  2  1  0
  2  3  1  0
  3  4  1  0
  4  5  1  0
  5  6  1  0
  6  7  1  0
  7  8  1  0
  8  9  1  0
  9 10  1  6
  9 11  1  0
 11 12  2  0
 12 13  1  0
 13 14  2  0
 14 15  1  0
 15 16  1  0
 16 17  1  0
 16 18  1  0
 14 19  1  0
 19 20  1  0
 19 21  2  0
  6 22  1  0
 22 23  1  0
 23  3  1  0
 21 11  1  0
M  CHG  1   3   1
M  END
>  <Compound_ID>  (563) 
C57663316

>  <Active>  (563) 
0

>  <Smiles>  (563) 
CC[NH+]1CCN(CC[C@H](O)c2ccc(OC(C)C)c(N)c2)CC1

>  <canonical_smi>  (563) 
CC[NH+]1CCN(CC[C@H](O)c2ccc(OC(C)C)c(N)c2)CC1

>  <Set>  (563) 
G2 inactive

>  <Set_type>  (563) 
Test

>  <MW>  (563) 
322.47

>  <HBD>  (563) 
3

>  <HBA>  (563) 
4

>  <NRB>  (563) 
7

>  <NR>  (563) 
2

>  <NAR>  (563) 
1

>  <PSA>  (563) 
63.16

>  <Standard Type>  (563) 
nan

>  <Standard Relation>  (563) 
nan

>  <Standard Units>  (563) 
nan

>  <Standard Value>  (563) 
nan

>  <Assay ChEMBL ID>  (563) 
nan

>  <Assay Description>  (563) 
nan

>  <BAO Label>  (563) 
nan

$$$$

     RDKit          2D

 22 24  0  0  0  0  0  0  0  0999 V2000
   -8.6640    3.2626    0.0000 C   0  0  0  0  0  0  0  0  0  0  0  0
   -7.9140    1.9635    0.0000 O   0  0  0  0  0  0  0  0  0  0  0  0
   -6.4140    1.9635    0.0000 C   0  0  0  0  0  0  0  0  0  0  0  0
   -5.6640    3.2626    0.0000 C   0  0  0  0  0  0  0  0  0  0  0  0
   -4.1640    3.2626    0.0000 C   0  0  0  0  0  0  0  0  0  0  0  0
   -3.4140    4.5616    0.0000 O   0  0  0  0  0  0  0  0  0  0  0  0
   -4.1640    5.8606    0.0000 C   0  0  0  0  0  0  0  0  0  0  0  0
   -3.4140    1.9635    0.0000 C   0  0  0  0  0  0  0  0  0  0  0  0
   -1.9140    1.9635    0.0000 N   0  0  0  0  0  0  0  0  0  0  0  0
   -1.0323    3.1771    0.0000 C   0  0  0  0  0  0  0  0  0  0  0  0
   -1.4958    4.6036    0.0000 N   0  0  0  0  0  4  0  0  0  0  0  0
    0.3943    2.7135    0.0000 S   0  0  0  0  0  0  0  0  0  0  0  0
    0.3943    1.2135    0.0000 C   0  0  0  0  0  0  0  0  0  0  0  0
    1.2760    0.0000    0.0000 C   0  0  0  0  0  0  0  0  0  0  0  0
    0.3943   -1.2135    0.0000 S   0  0  0  0  0  0  0  0  0  0  0  0
    1.6933   -1.9635    0.0000 O   0  0  0  0  0  0  0  0  0  0  0  0
   -0.2158   -2.5838    0.0000 O   0  0  0  0  0  0  0  0  0  0  0  0
   -1.0323   -0.7500    0.0000 C   0  0  0  0  0  0  0  0  0  0  0  0
   -1.0323    0.7500    0.0000 C   0  0  0  0  0  0  0  0  0  0  0  0
   -4.1640    0.6645    0.0000 C   0  0  0  0  0  0  0  0  0  0  0  0
   -5.6640    0.6645    0.0000 C   0  0  0  0  0  0  0  0  0  0  0  0
   -6.4140   -0.6346    0.0000 Cl  0  0  0  0  0  0  0  0  0  0  0  0
  1  2  1  0
  2  3  1  0
  3  4  2  0
  4  5  1  0
  5  6  1  0
  6  7  1  0
  5  8  2  0
  8  9  1  0
  9 10  1  0
 10 11  2  0
 10 12  1  0
 12 13  1  0
 13 14  1  1
 14 15  1  0
 15 16  2  0
 15 17  2  0
 15 18  1  0
 19 18  1  6
  8 20  1  0
 20 21  2  0
 21 22  1  0
 21  3  1  0
 19  9  1  0
 19 13  1  0
M  CHG  1  11   1
M  END
>  <Compound_ID>  (564) 
C26505266

>  <Active>  (564) 
0

>  <Smiles>  (564) 
COc1cc(OC)c(N2C(=[NH2+])S[C@H]3CS(=O)(=O)C[C@@H]32)cc1Cl

>  <canonical_smi>  (564) 
COc1cc(OC)c(N2C(=[NH2+])S[C@H]3CS(=O)(=O)C[C@@H]32)cc1Cl

>  <Set>  (564) 
G2 inactive

>  <Set_type>  (564) 
Test

>  <MW>  (564) 
363.87

>  <HBD>  (564) 
1

>  <HBA>  (564) 
6

>  <NRB>  (564) 
3

>  <NR>  (564) 
3

>  <NAR>  (564) 
1

>  <PSA>  (564) 
81.43

>  <Standard Type>  (564) 
nan

>  <Standard Relation>  (564) 
nan

>  <Standard Units>  (564) 
nan

>  <Standard Value>  (564) 
nan

>  <Assay ChEMBL ID>  (564) 
nan

>  <Assay Description>  (564) 
nan

>  <BAO Label>  (564) 
nan

$$$$

     RDKit          2D

 18 19  0  0  0  0  0  0  0  0999 V2000
    3.0000    0.0000    0.0000 C   0  0  0  0  0  0  0  0  0  0  0  0
    1.5000    0.0000    0.0000 C   0  0  0  0  0  0  0  0  0  0  0  0
    0.7500   -1.2990    0.0000 C   0  0  0  0  0  0  0  0  0  0  0  0
   -0.7500   -1.2990    0.0000 C   0  0  0  0  0  0  0  0  0  0  0  0
   -1.5000    0.0000    0.0000 N   0  0  0  0  0  0  0  0  0  0  0  0
   -3.0000    0.0000    0.0000 C   0  0  0  0  0  0  0  0  0  0  0  0
   -3.7500   -1.2990    0.0000 C   0  0  0  0  0  0  0  0  0  0  0  0
   -3.1399   -2.6694    0.0000 N   0  0  0  0  0  0  0  0  0  0  0  0
   -4.2546   -3.6731    0.0000 C   0  0  0  0  0  0  0  0  0  0  0  0
   -4.0978   -5.1648    0.0000 C   0  0  0  0  0  0  0  0  0  0  0  0
   -2.6060   -5.0080    0.0000 C   0  0  0  0  0  0  0  0  0  0  0  0
   -5.5896   -5.3216    0.0000 C   0  0  0  0  0  0  0  0  0  0  0  0
   -3.9410   -6.6566    0.0000 N   0  0  0  0  0  4  0  0  0  0  0  0
   -5.5537   -2.9231    0.0000 N   0  0  0  0  0  0  0  0  0  0  0  0
   -5.2418   -1.4558    0.0000 O   0  0  0  0  0  0  0  0  0  0  0  0
   -0.7500    1.2990    0.0000 C   0  0  0  0  0  0  0  0  0  0  0  0
   -1.5000    2.5981    0.0000 O   0  0  0  0  0  0  0  0  0  0  0  0
    0.7500    1.2990    0.0000 C   0  0  0  0  0  0  0  0  0  0  0  0
  1  2  1  0
  2  3  1  0
  3  4  2  0
  4  5  1  0
  5  6  1  0
  6  7  1  0
  7  8  2  0
  8  9  1  0
  9 10  1  0
 10 11  1  0
 10 12  1  0
 10 13  1  0
  9 14  2  0
 14 15  1  0
  5 16  1  0
 16 17  2  0
 16 18  1  0
 18  2  2  0
 15  7  1  0
M  CHG  1  13   1
M  END
>  <Compound_ID>  (565) 
C61909284

>  <Active>  (565) 
0

>  <Smiles>  (565) 
Cc1ccn(Cc2nc(C(C)(C)[NH3+])no2)c(=O)c1

>  <canonical_smi>  (565) 
Cc1ccn(Cc2nc(C(C)(C)[NH3+])no2)c(=O)c1

>  <Set>  (565) 
G2 inactive

>  <Set_type>  (565) 
Test

>  <MW>  (565) 
249.29

>  <HBD>  (565) 
1

>  <HBA>  (565) 
4

>  <NRB>  (565) 
3

>  <NR>  (565) 
2

>  <NAR>  (565) 
2

>  <PSA>  (565) 
88.56

>  <Standard Type>  (565) 
nan

>  <Standard Relation>  (565) 
nan

>  <Standard Units>  (565) 
nan

>  <Standard Value>  (565) 
nan

>  <Assay ChEMBL ID>  (565) 
nan

>  <Assay Description>  (565) 
nan

>  <BAO Label>  (565) 
nan

$$$$

     RDKit          2D

 20 20  0  0  0  0  0  0  0  0999 V2000
    7.5000    0.0000    0.0000 C   0  0  0  0  0  0  0  0  0  0  0  0
    6.0000    0.0000    0.0000 C   0  0  0  0  0  0  0  0  0  0  0  0
    5.2500    1.2990    0.0000 C   0  0  0  0  0  0  0  0  0  0  0  0
    5.2500   -1.2990    0.0000 C   0  0  0  0  0  0  0  0  0  0  0  0
    3.7500   -1.2990    0.0000 C   0  0  0  0  0  0  0  0  0  0  0  0
    3.0000   -2.5981    0.0000 N   0  0  0  0  0  0  0  0  0  0  0  0
    3.7500   -3.8971    0.0000 C   0  0  0  0  0  0  0  0  0  0  0  0
    3.0000   -5.1962    0.0000 N   0  0  0  0  0  0  0  0  0  0  0  0
    5.2500   -3.8971    0.0000 O   0  0  0  0  0  0  0  0  0  0  0  0
    3.0000    0.0000    0.0000 C   0  0  0  0  0  0  0  0  0  0  0  0
    3.7500    1.2990    0.0000 O   0  0  0  0  0  0  0  0  0  0  0  0
    1.5000    0.0000    0.0000 N   0  0  0  0  0  0  0  0  0  0  0  0
    0.7500   -1.2990    0.0000 C   0  0  0  0  0  0  0  0  0  0  0  0
   -0.7500   -1.2990    0.0000 C   0  0  0  0  0  0  0  0  0  0  0  0
   -1.5000    0.0000    0.0000 C   0  0  0  0  0  0  0  0  0  0  0  0
   -0.7500    1.2990    0.0000 C   0  0  0  0  0  0  0  0  0  0  0  0
   -1.5000    2.5981    0.0000 C   0  0  0  0  0  0  0  0  0  0  0  0
   -3.0000    2.5981    0.0000 O   0  0  0  0  0  0  0  0  0  0  0  0
   -0.7500    3.8971    0.0000 O   0  0  0  0  0  1  0  0  0  0  0  0
    0.7500    1.2990    0.0000 C   0  0  0  0  0  0  0  0  0  0  0  0
  1  2  1  0
  2  3  1  0
  2  4  1  0
  5  4  1  1
  5  6  1  0
  6  7  1  0
  7  8  1  0
  7  9  2  0
  5 10  1  0
 10 11  2  0
 10 12  1  0
 12 13  1  0
 13 14  1  0
 14 15  1  0
 15 16  1  0
 16 17  1  1
 17 18  2  0
 17 19  1  0
 16 20  1  0
 20 12  1  0
M  CHG  1  19  -1
M  END
>  <Compound_ID>  (566) 
C37435915

>  <Active>  (566) 
0

>  <Smiles>  (566) 
CC(C)C[C@@H](NC(N)=O)C(=O)N1CCC[C@@H](C(=O)[O-])C1

>  <canonical_smi>  (566) 
CC(C)C[C@@H](NC(N)=O)C(=O)N1CCC[C@@H](C(=O)[O-])C1

>  <Set>  (566) 
G2 inactive

>  <Set_type>  (566) 
Test

>  <MW>  (566) 
284.34

>  <HBD>  (566) 
2

>  <HBA>  (566) 
4

>  <NRB>  (566) 
5

>  <NR>  (566) 
1

>  <NAR>  (566) 
0

>  <PSA>  (566) 
115.56

>  <Standard Type>  (566) 
nan

>  <Standard Relation>  (566) 
nan

>  <Standard Units>  (566) 
nan

>  <Standard Value>  (566) 
nan

>  <Assay ChEMBL ID>  (566) 
nan

>  <Assay Description>  (566) 
nan

>  <BAO Label>  (566) 
nan

$$$$

     RDKit          2D

 29 32  0  0  0  0  0  0  0  0999 V2000
    3.7500   -6.4952    0.0000 C   0  0  0  0  0  0  0  0  0  0  0  0
    3.0000   -5.1962    0.0000 C   0  0  0  0  0  0  0  0  0  0  0  0
    1.5000   -5.1962    0.0000 C   0  0  0  0  0  0  0  0  0  0  0  0
    0.7500   -6.4952    0.0000 C   0  0  0  0  0  0  0  0  0  0  0  0
    0.7500   -3.8971    0.0000 C   0  0  0  0  0  0  0  0  0  0  0  0
   -0.7500   -3.8971    0.0000 C   0  0  0  0  0  0  0  0  0  0  0  0
   -1.5000   -5.1962    0.0000 O   0  0  0  0  0  0  0  0  0  0  0  0
   -3.0000   -5.1962    0.0000 C   0  0  0  0  0  0  0  0  0  0  0  0
   -3.7500   -6.4952    0.0000 C   0  0  0  0  0  0  0  0  0  0  0  0
   -3.0000   -7.7942    0.0000 O   0  0  0  0  0  0  0  0  0  0  0  0
   -5.2500   -6.4952    0.0000 N   0  0  0  0  0  0  0  0  0  0  0  0
   -6.0000   -7.7942    0.0000 C   0  0  0  0  0  0  0  0  0  0  0  0
   -5.3899   -9.1645    0.0000 N   0  0  0  0  0  0  0  0  0  0  0  0
   -6.5046  -10.1682    0.0000 C   0  0  0  0  0  0  0  0  0  0  0  0
   -7.8037   -9.4182    0.0000 C   0  0  0  0  0  0  0  0  0  0  0  0
   -7.4918   -7.9510    0.0000 S   0  0  0  0  0  0  0  0  0  0  0  0
   -1.5000   -2.5981    0.0000 C   0  0  0  0  0  0  0  0  0  0  0  0
   -0.7500   -1.2990    0.0000 C   0  0  0  0  0  0  0  0  0  0  0  0
    0.7500   -1.2990    0.0000 C   0  0  0  0  0  0  0  0  0  0  0  0
    1.5000   -2.5981    0.0000 C   0  0  0  0  0  0  0  0  0  0  0  0
    3.0000   -2.5981    0.0000 O   0  0  0  0  0  0  0  0  0  0  0  0
    3.7500   -3.8971    0.0000 C   0  0  0  0  0  0  0  0  0  0  0  0
    5.2500   -3.8971    0.0000 O   0  0  0  0  0  0  0  0  0  0  0  0
    1.5000    0.0000    0.0000 C   0  0  0  0  0  0  0  0  0  0  0  0
    0.7500    1.2990    0.0000 C   0  0  0  0  0  0  0  0  0  0  0  0
   -0.7500    1.2990    0.0000 C   0  0  0  0  0  0  0  0  0  0  0  0
   -2.1595    1.8121    0.0000 C   0  0  0  0  0  0  0  0  0  0  0  0
   -0.4895    2.7762    0.0000 C   0  0  0  0  0  0  0  0  0  0  0  0
   -1.5000    0.0000    0.0000 O   0  0  0  0  0  0  0  0  0  0  0  0
  1  2  1  0
  2  3  2  0
  3  4  1  0
  3  5  1  0
  5  6  2  0
  6  7  1  0
  7  8  1  0
  8  9  1  0
  9 10  2  0
  9 11  1  0
 11 12  1  0
 12 13  2  0
 13 14  1  0
 14 15  2  0
 15 16  1  0
  6 17  1  0
 17 18  2  0
 18 19  1  0
 19 20  2  0
 20 21  1  0
 21 22  1  0
 22 23  2  0
 19 24  1  0
 24 25  1  0
 25 26  1  0
 26 27  1  0
 26 28  1  0
 26 29  1  0
 22  2  1  0
 20  5  1  0
 16 12  1  0
 29 18  1  0
M  END
>  <Compound_ID>  (567) 
C06624534

>  <Active>  (567) 
0

>  <Smiles>  (567) 
Cc1c(C)c2c(OCC(=O)Nc3nccs3)cc3c(c2oc1=O)CCC(C)(C)O3

>  <canonical_smi>  (567) 
Cc1c(C)c2c(OCC(=O)Nc3nccs3)cc3c(c2oc1=O)CCC(C)(C)O3

>  <Set>  (567) 
G2 inactive

>  <Set_type>  (567) 
Test

>  <MW>  (567) 
414.48

>  <HBD>  (567) 
1

>  <HBA>  (567) 
6

>  <NRB>  (567) 
4

>  <NR>  (567) 
4

>  <NAR>  (567) 
3

>  <PSA>  (567) 
90.66

>  <Standard Type>  (567) 
nan

>  <Standard Relation>  (567) 
nan

>  <Standard Units>  (567) 
nan

>  <Standard Value>  (567) 
nan

>  <Assay ChEMBL ID>  (567) 
nan

>  <Assay Description>  (567) 
nan

>  <BAO Label>  (567) 
nan

$$$$

     RDKit          2D

 30 33  0  0  0  0  0  0  0  0999 V2000
    3.0000    0.0000    0.0000 C   0  0  0  0  0  0  0  0  0  0  0  0
    1.5000    0.0000    0.0000 C   0  0  0  0  0  0  0  0  0  0  0  0
    0.7500   -1.2990    0.0000 C   0  0  0  0  0  0  0  0  0  0  0  0
    1.5000   -2.5981    0.0000 C   0  0  0  0  0  0  0  0  0  0  0  0
    0.7500   -3.8971    0.0000 N   0  0  0  0  0  0  0  0  0  0  0  0
    1.3601   -5.2674    0.0000 C   0  0  0  0  0  0  0  0  0  0  0  0
    2.8273   -5.5793    0.0000 O   0  0  0  0  0  0  0  0  0  0  0  0
    0.2454   -6.2711    0.0000 N   0  0  0  0  0  0  0  0  0  0  0  0
   -1.0537   -5.5211    0.0000 C   0  0  0  0  0  0  0  0  0  0  0  0
   -1.6638   -6.8914    0.0000 C   0  0  0  0  0  0  0  0  0  0  0  0
   -3.1555   -7.0482    0.0000 C   0  0  0  0  0  0  0  0  0  0  0  0
   -3.7656   -8.4186    0.0000 C   0  0  0  0  0  0  0  0  0  0  0  0
   -2.8840   -9.6321    0.0000 C   0  0  0  0  0  0  0  0  0  0  0  0
   -1.3922   -9.4753    0.0000 C   0  0  0  0  0  0  0  0  0  0  0  0
   -0.7821   -8.1050    0.0000 C   0  0  0  0  0  0  0  0  0  0  0  0
   -2.4802   -5.0576    0.0000 C   0  0  0  0  0  0  0  0  0  0  0  0
   -2.7921   -3.5904    0.0000 C   0  0  0  0  0  0  0  0  0  0  0  0
   -4.2187   -3.1269    0.0000 C   0  0  0  0  0  0  0  0  0  0  0  0
   -5.3334   -4.1306    0.0000 C   0  0  0  0  0  0  0  0  0  0  0  0
   -5.0215   -5.5978    0.0000 C   0  0  0  0  0  0  0  0  0  0  0  0
   -3.5950   -6.0613    0.0000 C   0  0  0  0  0  0  0  0  0  0  0  0
   -0.7418   -4.0539    0.0000 C   0  0  0  0  0  0  0  0  0  0  0  0
   -1.7455   -2.9392    0.0000 O   0  0  0  0  0  0  0  0  0  0  0  0
   -0.7500   -1.2990    0.0000 C   0  0  0  0  0  0  0  0  0  0  0  0
   -1.5000    0.0000    0.0000 C   0  0  0  0  0  0  0  0  0  0  0  0
   -0.7500    1.2990    0.0000 C   0  0  0  0  0  0  0  0  0  0  0  0
    0.7500    1.2990    0.0000 C   0  0  0  0  0  0  0  0  0  0  0  0
    1.5000    2.5981    0.0000 N   0  0  0  0  0  4  0  0  0  0  0  0
    3.0000    2.5981    0.0000 O   0  0  0  0  0  0  0  0  0  0  0  0
    0.7500    3.8971    0.0000 O   0  0  0  0  0  1  0  0  0  0  0  0
  1  2  1  0
  2  3  2  0
  3  4  1  0
  4  5  1  0
  5  6  1  0
  6  7  2  0
  6  8  1  0
  8  9  1  0
  9 10  1  0
 10 11  2  0
 11 12  1  0
 12 13  2  0
 13 14  1  0
 14 15  2  0
  9 16  1  0
 16 17  2  0
 17 18  1  0
 18 19  2  0
 19 20  1  0
 20 21  2  0
  9 22  1  0
 22 23  2  0
  3 24  1  0
 24 25  2  0
 25 26  1  0
 26 27  2  0
 27 28  1  0
 28 29  2  0
 28 30  1  0
 27  2  1  0
 22  5  1  0
 15 10  1  0
 21 16  1  0
M  CHG  2  28   1  30  -1
M  END
>  <Compound_ID>  (568) 
C40116929

>  <Active>  (568) 
0

>  <Smiles>  (568) 
Cc1c(CN2C(=O)NC(c3ccccc3)(c3ccccc3)C2=O)cccc1[N+](=O)[O-]

>  <canonical_smi>  (568) 
Cc1c(CN2C(=O)NC(c3ccccc3)(c3ccccc3)C2=O)cccc1[N+](=O)[O-]

>  <Set>  (568) 
G2 inactive

>  <Set_type>  (568) 
Test

>  <MW>  (568) 
401.42

>  <HBD>  (568) 
1

>  <HBA>  (568) 
4

>  <NRB>  (568) 
5

>  <NR>  (568) 
4

>  <NAR>  (568) 
3

>  <PSA>  (568) 
92.55

>  <Standard Type>  (568) 
nan

>  <Standard Relation>  (568) 
nan

>  <Standard Units>  (568) 
nan

>  <Standard Value>  (568) 
nan

>  <Assay ChEMBL ID>  (568) 
nan

>  <Assay Description>  (568) 
nan

>  <BAO Label>  (568) 
nan

$$$$

     RDKit          2D

 29 32  0  0  0  0  0  0  0  0999 V2000
   -5.1962   -8.1073    0.0000 O   0  0  0  0  0  0  0  0  0  0  0  0
   -5.1962   -9.6073    0.0000 C   0  0  0  0  0  0  0  0  0  0  0  0
   -3.8971  -10.3573    0.0000 N   0  0  0  0  0  0  0  0  0  0  0  0
   -2.5981   -9.6073    0.0000 C   0  0  0  0  0  0  0  0  0  0  0  0
   -1.2990  -10.3573    0.0000 C   0  0  0  0  0  0  0  0  0  0  0  0
    0.0000   -9.6073    0.0000 C   0  0  0  0  0  0  0  0  0  0  0  0
    0.0000   -8.1073    0.0000 C   0  0  0  0  0  0  0  0  0  0  0  0
   -1.2990   -7.3573    0.0000 C   0  0  0  0  0  0  0  0  0  0  0  0
   -1.2990   -5.8573    0.0000 C   0  0  0  0  0  0  0  0  0  0  0  0
   -2.5981   -5.1073    0.0000 O   0  0  0  0  0  0  0  0  0  0  0  0
   -0.0000   -5.1073    0.0000 N   0  0  0  0  0  0  0  0  0  0  0  0
   -0.0000   -3.6073    0.0000 C   0  0  0  0  0  0  0  0  0  0  0  0
    1.2135   -2.7256    0.0000 N   0  0  0  0  0  0  0  0  0  0  0  0
    0.7500   -1.2990    0.0000 C   0  0  0  0  0  0  0  0  0  0  0  0
    1.5000    0.0000    0.0000 C   0  0  0  0  0  0  0  0  0  0  0  0
    0.7500    1.2990    0.0000 C   0  0  0  0  0  0  0  0  0  0  0  0
   -0.7500    1.2990    0.0000 C   0  0  0  0  0  0  0  0  0  0  0  0
   -1.5000    0.0000    0.0000 C   0  0  0  0  0  0  0  0  0  0  0  0
   -0.7500   -1.2990    0.0000 C   0  0  0  0  0  0  0  0  0  0  0  0
   -1.2135   -2.7256    0.0000 S   0  0  0  0  0  0  0  0  0  0  0  0
   -2.5981   -8.1073    0.0000 C   0  0  0  0  0  0  0  0  0  0  0  0
   -6.4952  -10.3573    0.0000 N   0  0  0  0  0  0  0  0  0  0  0  0
   -7.7942   -9.6073    0.0000 C   0  0  0  0  0  0  0  0  0  0  0  0
   -9.1645  -10.2174    0.0000 C   0  0  0  0  0  0  0  0  0  0  0  0
  -10.1682   -9.1027    0.0000 C   0  0  0  0  0  0  0  0  0  0  0  0
   -9.4182   -7.8037    0.0000 S   0  0  0  0  0  0  0  0  0  0  0  0
  -10.7886   -7.1935    0.0000 O   0  0  0  0  0  0  0  0  0  0  0  0
   -8.9547   -6.3771    0.0000 O   0  0  0  0  0  0  0  0  0  0  0  0
   -7.9510   -8.1155    0.0000 C   0  0  0  0  0  0  0  0  0  0  0  0
  1  2  2  0
  2  3  1  0
  3  4  1  0
  4  5  2  0
  5  6  1  0
  6  7  2  0
  7  8  1  0
  8  9  1  0
  9 10  2  0
  9 11  1  0
 11 12  2  0
 12 13  1  0
 13 14  1  0
 14 15  2  0
 15 16  1  0
 16 17  2  0
 17 18  1  0
 18 19  2  0
 19 20  1  0
  8 21  2  0
  2 22  1  0
 23 22  1  1
 23 24  1  0
 24 25  1  0
 25 26  1  0
 26 27  2  0
 26 28  2  0
 26 29  1  0
 21  4  1  0
 29 23  1  0
 20 12  1  0
 19 14  1  0
M  END
>  <Compound_ID>  (569) 
C31813417

>  <Active>  (569) 
0

>  <Smiles>  (569) 
O=C(Nc1cccc(C(=O)/N=c2/[nH]c3ccccc3s2)c1)N[C@H]1CCS(=O)(=O)C1

>  <canonical_smi>  (569) 
O=C(Nc1cccc(C(=O)/N=c2/[nH]c3ccccc3s2)c1)N[C@H]1CCS(=O)(=O)C1

>  <Set>  (569) 
G2 inactive

>  <Set_type>  (569) 
Test

>  <MW>  (569) 
430.51

>  <HBD>  (569) 
3

>  <HBA>  (569) 
4

>  <NRB>  (569) 
3

>  <NR>  (569) 
4

>  <NAR>  (569) 
3

>  <PSA>  (569) 
120.49

>  <Standard Type>  (569) 
nan

>  <Standard Relation>  (569) 
nan

>  <Standard Units>  (569) 
nan

>  <Standard Value>  (569) 
nan

>  <Assay ChEMBL ID>  (569) 
nan

>  <Assay Description>  (569) 
nan

>  <BAO Label>  (569) 
nan

$$$$

     RDKit          2D

 34 37  0  0  0  0  0  0  0  0999 V2000
    3.0000    0.0000    0.0000 C   0  0  0  0  0  0  0  0  0  0  0  0
    1.5000    0.0000    0.0000 C   0  0  0  0  0  0  0  0  0  0  0  0
    0.7500   -1.2990    0.0000 C   0  0  0  0  0  0  0  0  0  0  0  0
    1.5000   -2.5981    0.0000 C   0  0  0  0  0  0  0  0  0  0  0  0
    3.0000   -2.5981    0.0000 O   0  0  0  0  0  0  0  0  0  0  0  0
    0.7500   -3.8971    0.0000 N   0  0  0  0  0  0  0  0  0  0  0  0
    1.5000   -5.1962    0.0000 C   0  0  0  0  0  0  0  0  0  0  0  0
    2.9918   -5.3529    0.0000 C   0  0  0  0  0  0  0  0  0  0  0  0
    3.3037   -6.8202    0.0000 C   0  0  0  0  0  0  0  0  0  0  0  0
    4.6740   -7.4303    0.0000 C   0  0  0  0  0  0  0  0  0  0  0  0
    2.0046   -7.5702    0.0000 O   0  0  0  0  0  0  0  0  0  0  0  0
    0.8899   -6.5665    0.0000 N   0  0  0  0  0  0  0  0  0  0  0  0
   -0.7500   -1.2990    0.0000 C   0  0  0  0  0  0  0  0  0  0  0  0
   -1.5000   -2.5981    0.0000 C   0  0  0  0  0  0  0  0  0  0  0  0
   -0.8899   -3.9684    0.0000 C   0  0  0  0  0  0  0  0  0  0  0  0
   -2.0046   -4.9721    0.0000 C   0  0  0  0  0  0  0  0  0  0  0  0
   -1.8478   -6.4639    0.0000 C   0  0  0  0  0  0  0  0  0  0  0  0
   -1.6910   -7.9557    0.0000 N   0  0  0  0  0  0  0  0  0  0  0  0
   -3.3037   -4.2221    0.0000 N   0  0  0  0  0  0  0  0  0  0  0  0
   -4.6740   -4.8322    0.0000 C   0  0  0  0  0  0  0  0  0  0  0  0
   -2.9918   -2.7549    0.0000 C   0  0  0  0  0  0  0  0  0  0  0  0
   -3.9955   -1.6402    0.0000 C   0  0  0  0  0  0  0  0  0  0  0  0
   -1.5000    0.0000    0.0000 N   0  0  0  0  0  0  0  0  0  0  0  0
   -0.7500    1.2990    0.0000 C   0  0  0  0  0  0  0  0  0  0  0  0
   -1.5000    2.5981    0.0000 S   0  0  0  0  0  0  0  0  0  0  0  0
    0.7500    1.2990    0.0000 N   0  0  0  0  0  0  0  0  0  0  0  0
    1.5000    2.5981    0.0000 C   0  0  0  0  0  0  0  0  0  0  0  0
    3.0000    2.5981    0.0000 C   0  0  0  0  0  0  0  0  0  0  0  0
    3.7500    3.8971    0.0000 C   0  0  0  0  0  0  0  0  0  0  0  0
    5.2500    3.8971    0.0000 C   0  0  0  0  0  0  0  0  0  0  0  0
    3.0000    5.1962    0.0000 C   0  0  0  0  0  0  0  0  0  0  0  0
    1.5000    5.1962    0.0000 C   0  0  0  0  0  0  0  0  0  0  0  0
    0.7500    3.8971    0.0000 C   0  0  0  0  0  0  0  0  0  0  0  0
   -0.7500    3.8971    0.0000 C   0  0  0  0  0  0  0  0  0  0  0  0
  1  2  1  0
  2  3  2  0
  3  4  1  0
  4  5  2  0
  4  6  1  0
  6  7  1  0
  7  8  1  0
  8  9  2  0
  9 10  1  0
  9 11  1  0
 11 12  1  0
  3 13  1  0
 13 14  1  6
 14 15  1  0
 15 16  2  0
 16 17  1  0
 17 18  3  0
 16 19  1  0
 19 20  1  0
 19 21  1  0
 21 22  1  0
 13 23  1  0
 23 24  1  0
 24 25  2  0
 24 26  1  0
 26 27  1  0
 27 28  2  0
 28 29  1  0
 29 30  1  0
 29 31  2  0
 31 32  1  0
 32 33  2  0
 33 34  1  0
 26  2  1  0
 33 27  1  0
 12  7  2  0
 21 14  2  0
M  END
>  <Compound_ID>  (570) 
C12512584

>  <Active>  (570) 
0

>  <Smiles>  (570) 
CC1=C(C(=O)Nc2cc(C)on2)[C@H](c2cc(C#N)n(C)c2C)NC(=S)N1c1cc(C)ccc1C

>  <canonical_smi>  (570) 
CC1=C(C(=O)Nc2cc(C)on2)[C@H](c2cc(C#N)n(C)c2C)NC(=S)N1c1cc(C)ccc1C

>  <Set>  (570) 
G2 inactive

>  <Set_type>  (570) 
Test

>  <MW>  (570) 
474.59

>  <HBD>  (570) 
2

>  <HBA>  (570) 
7

>  <NRB>  (570) 
4

>  <NR>  (570) 
4

>  <NAR>  (570) 
3

>  <PSA>  (570) 
99.12

>  <Standard Type>  (570) 
nan

>  <Standard Relation>  (570) 
nan

>  <Standard Units>  (570) 
nan

>  <Standard Value>  (570) 
nan

>  <Assay ChEMBL ID>  (570) 
nan

>  <Assay Description>  (570) 
nan

>  <BAO Label>  (570) 
nan

$$$$

     RDKit          2D

 31 34  0  0  0  0  0  0  0  0999 V2000
   10.7934  -11.0321    0.0000 N   0  0  0  0  0  0  0  0  0  0  0  0
    9.9118   -9.8186    0.0000 C   0  0  0  0  0  0  0  0  0  0  0  0
   10.5219   -8.4483    0.0000 N   0  0  0  0  0  4  0  0  0  0  0  0
    8.4200   -9.9754    0.0000 C   0  0  0  0  0  0  0  0  0  0  0  0
    7.8099  -11.3457    0.0000 C   0  0  0  0  0  0  0  0  0  0  0  0
    6.3181  -11.5025    0.0000 C   0  0  0  0  0  0  0  0  0  0  0  0
    5.4364  -10.2890    0.0000 C   0  0  0  0  0  0  0  0  0  0  0  0
    3.9446  -10.4458    0.0000 O   0  0  0  0  0  0  0  0  0  0  0  0
    6.0465   -8.9186    0.0000 C   0  0  0  0  0  0  0  0  0  0  0  0
    5.1648   -7.7051    0.0000 C   0  0  0  0  0  0  0  0  0  0  0  0
    3.6731   -7.8619    0.0000 N   0  0  0  0  0  0  0  0  0  0  0  0
    2.9231   -9.1610    0.0000 C   0  0  0  0  0  0  0  0  0  0  0  0
    1.4558   -8.8491    0.0000 C   0  0  0  0  0  0  0  0  0  0  0  0
    1.2990   -7.3573    0.0000 C   0  0  0  0  0  0  0  0  0  0  0  0
    0.0000   -6.6073    0.0000 N   0  0  0  0  0  0  0  0  0  0  0  0
   -0.0000   -5.1073    0.0000 S   0  0  0  0  0  0  0  0  0  0  0  0
   -1.5000   -5.1073    0.0000 O   0  0  0  0  0  0  0  0  0  0  0  0
    1.5000   -5.1073    0.0000 O   0  0  0  0  0  0  0  0  0  0  0  0
   -0.0000   -3.6073    0.0000 C   0  0  0  0  0  0  0  0  0  0  0  0
    1.2135   -2.7256    0.0000 C   0  0  0  0  0  0  0  0  0  0  0  0
    0.7500   -1.2990    0.0000 C   0  0  0  0  0  0  0  0  0  0  0  0
    1.5000    0.0000    0.0000 C   0  0  0  0  0  0  0  0  0  0  0  0
    0.7500    1.2990    0.0000 C   0  0  0  0  0  0  0  0  0  0  0  0
   -0.7500    1.2990    0.0000 N   0  0  0  0  0  0  0  0  0  0  0  0
   -1.5000    0.0000    0.0000 C   0  0  0  0  0  0  0  0  0  0  0  0
   -3.0000    0.0000    0.0000 Cl  0  0  0  0  0  0  0  0  0  0  0  0
   -0.7500   -1.2990    0.0000 C   0  0  0  0  0  0  0  0  0  0  0  0
   -1.2135   -2.7256    0.0000 S   0  0  0  0  0  0  0  0  0  0  0  0
    2.6694   -6.7472    0.0000 C   0  0  0  0  0  0  0  0  0  0  0  0
    2.9812   -5.2800    0.0000 O   0  0  0  0  0  0  0  0  0  0  0  0
    7.5383   -8.7619    0.0000 C   0  0  0  0  0  0  0  0  0  0  0  0
  1  2  1  0
  2  3  2  0
  2  4  1  0
  4  5  2  0
  5  6  1  0
  6  7  2  0
  7  8  1  0
  7  9  1  0
  9 10  1  0
 10 11  1  0
 11 12  1  0
 12 13  1  0
 13 14  1  0
 14 15  1  6
 15 16  1  0
 16 17  2  0
 16 18  2  0
 16 19  1  0
 19 20  2  0
 20 21  1  0
 21 22  2  0
 22 23  1  0
 23 24  2  0
 24 25  1  0
 25 26  1  0
 25 27  2  0
 27 28  1  0
 14 29  1  0
 29 30  2  0
  9 31  2  0
 31  4  1  0
 29 11  1  0
 28 19  1  0
 27 21  1  0
M  CHG  1   3   1
M  END
>  <Compound_ID>  (571) 
C26663294

>  <Active>  (571) 
0

>  <Smiles>  (571) 
NC(=[NH2+])c1ccc(O)c(CN2CC[C@H](NS(=O)(=O)c3cc4ccnc(Cl)c4s3)C2=O)c1

>  <canonical_smi>  (571) 
NC(=[NH2+])c1ccc(O)c(CN2CC[C@H](NS(=O)(=O)c3cc4ccnc(Cl)c4s3)C2=O)c1

>  <Set>  (571) 
G2 inactive

>  <Set_type>  (571) 
Test

>  <MW>  (571) 
480.98

>  <HBD>  (571) 
4

>  <HBA>  (571) 
6

>  <NRB>  (571) 
6

>  <NR>  (571) 
4

>  <NAR>  (571) 
3

>  <PSA>  (571) 
151.21

>  <Standard Type>  (571) 
nan

>  <Standard Relation>  (571) 
nan

>  <Standard Units>  (571) 
nan

>  <Standard Value>  (571) 
nan

>  <Assay ChEMBL ID>  (571) 
nan

>  <Assay Description>  (571) 
nan

>  <BAO Label>  (571) 
nan

$$$$

     RDKit          2D

 31 34  0  0  0  0  0  0  0  0999 V2000
    6.0000  -12.9904    0.0000 C   0  0  0  0  0  0  0  0  0  0  0  0
    5.2500  -11.6913    0.0000 C   0  0  0  0  0  0  0  0  0  0  0  0
    3.7500  -11.6913    0.0000 C   0  0  0  0  0  0  0  0  0  0  0  0
    3.0000  -10.3923    0.0000 C   0  0  0  0  0  0  0  0  0  0  0  0
    3.7500   -9.0933    0.0000 C   0  0  0  0  0  0  0  0  0  0  0  0
    3.0000   -7.7942    0.0000 O   0  0  0  0  0  0  0  0  0  0  0  0
    3.7500   -6.4952    0.0000 C   0  0  0  0  0  0  0  0  0  0  0  0
    5.2500   -6.4952    0.0000 C   0  0  0  0  0  0  0  0  0  0  0  0
    3.0000   -5.1962    0.0000 C   0  0  0  0  0  0  0  0  0  0  0  0
    3.7500   -3.8971    0.0000 O   0  0  0  0  0  0  0  0  0  0  0  0
    1.5000   -5.1962    0.0000 N   0  0  0  0  0  0  0  0  0  0  0  0
    0.7500   -3.8971    0.0000 N   0  0  0  0  0  0  0  0  0  0  0  0
    1.5000   -2.5981    0.0000 C   0  0  0  0  0  0  0  0  0  0  0  0
    3.0000   -2.5981    0.0000 O   0  0  0  0  0  0  0  0  0  0  0  0
    0.7500   -1.2990    0.0000 C   0  0  0  0  0  0  0  0  0  0  0  0
    1.5000    0.0000    0.0000 C   0  0  0  0  0  0  0  0  0  0  0  0
    0.7500    1.2990    0.0000 C   0  0  0  0  0  0  0  0  0  0  0  0
   -0.7500    1.2990    0.0000 C   0  0  0  0  0  0  0  0  0  0  0  0
   -1.5000    0.0000    0.0000 C   0  0  0  0  0  0  0  0  0  0  0  0
   -0.7500   -1.2990    0.0000 C   0  0  0  0  0  0  0  0  0  0  0  0
   -1.5000   -2.5981    0.0000 N   0  0  0  0  0  0  0  0  0  0  0  0
   -0.7500   -3.8971    0.0000 C   0  0  0  0  0  0  0  0  0  0  0  0
   -1.5000   -5.1962    0.0000 C   0  0  0  0  0  0  0  0  0  0  0  0
   -3.0000   -5.1962    0.0000 C   0  0  0  0  0  0  0  0  0  0  0  0
   -3.7500   -6.4952    0.0000 C   0  0  0  0  0  0  0  0  0  0  0  0
   -3.0000   -7.7942    0.0000 C   0  0  0  0  0  0  0  0  0  0  0  0
   -3.7500   -9.0933    0.0000 O   0  0  0  0  0  0  0  0  0  0  0  0
   -1.5000   -7.7942    0.0000 C   0  0  0  0  0  0  0  0  0  0  0  0
   -0.7500   -6.4952    0.0000 C   0  0  0  0  0  0  0  0  0  0  0  0
    5.2500   -9.0933    0.0000 C   0  0  0  0  0  0  0  0  0  0  0  0
    6.0000  -10.3923    0.0000 C   0  0  0  0  0  0  0  0  0  0  0  0
  1  2  1  0
  2  3  2  0
  3  4  1  0
  4  5  2  0
  5  6  1  0
  6  7  1  0
  7  8  1  6
  7  9  1  0
  9 10  2  0
  9 11  1  0
 11 12  1  0
 12 13  1  0
 13 14  2  0
 13 15  1  0
 15 16  2  0
 16 17  1  0
 17 18  2  0
 18 19  1  0
 19 20  2  0
 20 21  1  0
 21 22  1  0
 22 23  1  1
 23 24  2  0
 24 25  1  0
 25 26  2  0
 26 27  1  0
 26 28  1  0
 28 29  2  0
  5 30  1  0
 30 31  2  0
 31  2  1  0
 22 12  1  0
 29 23  1  0
 20 15  1  0
M  END
>  <Compound_ID>  (572) 
C39920296

>  <Active>  (572) 
0

>  <Smiles>  (572) 
Cc1ccc(O[C@@H](C)C(=O)NN2C(=O)c3ccccc3N[C@@H]2c2ccc(O)cc2)cc1

>  <canonical_smi>  (572) 
Cc1ccc(O[C@@H](C)C(=O)NN2C(=O)c3ccccc3N[C@@H]2c2ccc(O)cc2)cc1

>  <Set>  (572) 
G2 inactive

>  <Set_type>  (572) 
Test

>  <MW>  (572) 
417.47

>  <HBD>  (572) 
3

>  <HBA>  (572) 
5

>  <NRB>  (572) 
5

>  <NR>  (572) 
4

>  <NAR>  (572) 
3

>  <PSA>  (572) 
90.9

>  <Standard Type>  (572) 
nan

>  <Standard Relation>  (572) 
nan

>  <Standard Units>  (572) 
nan

>  <Standard Value>  (572) 
nan

>  <Assay ChEMBL ID>  (572) 
nan

>  <Assay Description>  (572) 
nan

>  <BAO Label>  (572) 
nan

$$$$

     RDKit          2D

 27 30  0  0  0  0  0  0  0  0999 V2000
   -3.7500   -6.4952    0.0000 C   0  0  0  0  0  0  0  0  0  0  0  0
   -3.0000   -7.7942    0.0000 O   0  0  0  0  0  0  0  0  0  0  0  0
   -1.5000   -7.7942    0.0000 C   0  0  0  0  0  0  0  0  0  0  0  0
   -0.7500   -6.4952    0.0000 C   0  0  0  0  0  0  0  0  0  0  0  0
    0.7500   -6.4952    0.0000 C   0  0  0  0  0  0  0  0  0  0  0  0
    1.5000   -5.1962    0.0000 C   0  0  0  0  0  0  0  0  0  0  0  0
    0.7500   -3.8971    0.0000 N   0  0  0  0  0  0  0  0  0  0  0  0
    1.5000   -2.5981    0.0000 N   0  0  0  0  0  0  0  0  0  0  0  0
    0.7500   -1.2990    0.0000 C   0  0  0  0  0  0  0  0  0  0  0  0
    1.5000    0.0000    0.0000 N   0  0  0  0  0  0  0  0  0  0  0  0
    0.7500    1.2990    0.0000 N   0  0  0  0  0  0  0  0  0  0  0  0
   -0.7500    1.2990    0.0000 C   0  0  0  0  0  0  0  0  0  0  0  0
   -1.5000    0.0000    0.0000 C   0  0  0  0  0  0  0  0  0  0  0  0
   -0.7500   -1.2990    0.0000 N   0  0  0  0  0  0  0  0  0  0  0  0
   -2.9672    0.3119    0.0000 N   0  0  0  0  0  0  0  0  0  0  0  0
   -3.1240    1.8037    0.0000 C   0  0  0  0  0  0  0  0  0  0  0  0
   -4.3375    2.6853    0.0000 C   0  0  0  0  0  0  0  0  0  0  0  0
   -5.7079    2.0752    0.0000 C   0  0  0  0  0  0  0  0  0  0  0  0
   -4.1807    4.1771    0.0000 C   0  0  0  0  0  0  0  0  0  0  0  0
   -2.8104    4.7872    0.0000 C   0  0  0  0  0  0  0  0  0  0  0  0
   -1.5969    3.9055    0.0000 C   0  0  0  0  0  0  0  0  0  0  0  0
   -1.7537    2.4138    0.0000 C   0  0  0  0  0  0  0  0  0  0  0  0
    1.5000   -7.7942    0.0000 C   0  0  0  0  0  0  0  0  0  0  0  0
    0.7500   -9.0933    0.0000 C   0  0  0  0  0  0  0  0  0  0  0  0
    1.5000  -10.3923    0.0000 Br  0  0  0  0  0  0  0  0  0  0  0  0
   -0.7500   -9.0933    0.0000 C   0  0  0  0  0  0  0  0  0  0  0  0
   -1.5000  -10.3923    0.0000 O   0  0  0  0  0  0  0  0  0  0  0  0
  1  2  1  0
  2  3  1  0
  3  4  2  0
  4  5  1  0
  5  6  2  0
  6  7  1  0
  7  8  1  0
  8  9  1  0
  9 10  2  0
 10 11  1  0
 11 12  2  0
 12 13  1  0
 13 14  2  0
 13 15  1  0
 15 16  1  0
 16 17  2  0
 17 18  1  0
 17 19  1  0
 19 20  2  0
 20 21  1  0
 21 22  2  0
  5 23  1  0
 23 24  2  0
 24 25  1  0
 24 26  1  0
 26 27  2  0
 26  3  1  0
 14  9  1  0
 22 16  1  0
 22 12  1  0
M  END
>  <Compound_ID>  (573) 
C16671882

>  <Active>  (573) 
0

>  <Smiles>  (573) 
COC1=C/C(=C\NNc2nnc3c(n2)[nH]c2c(C)cccc23)C=C(Br)C1=O

>  <canonical_smi>  (573) 
COC1=C/C(=C\NNc2nnc3c(n2)[nH]c2c(C)cccc23)C=C(Br)C1=O

>  <Set>  (573) 
G2 inactive

>  <Set_type>  (573) 
Test

>  <MW>  (573) 
427.26

>  <HBD>  (573) 
3

>  <HBA>  (573) 
7

>  <NRB>  (573) 
4

>  <NR>  (573) 
4

>  <NAR>  (573) 
3

>  <PSA>  (573) 
104.82

>  <Standard Type>  (573) 
nan

>  <Standard Relation>  (573) 
nan

>  <Standard Units>  (573) 
nan

>  <Standard Value>  (573) 
nan

>  <Assay ChEMBL ID>  (573) 
nan

>  <Assay Description>  (573) 
nan

>  <BAO Label>  (573) 
nan

$$$$

     RDKit          2D

 30 33  0  0  0  0  0  0  0  0999 V2000
   -1.5000   -7.7942    0.0000 O   0  0  0  0  0  0  0  0  0  0  0  0
   -0.7500   -6.4952    0.0000 C   0  0  0  0  0  0  0  0  0  0  0  0
   -1.5000   -5.1962    0.0000 C   0  0  0  0  0  0  0  0  0  0  0  0
   -0.7500   -3.8971    0.0000 C   0  0  0  0  0  0  0  0  0  0  0  0
   -1.5000   -2.5981    0.0000 C   0  0  0  0  0  0  0  0  0  0  0  0
   -3.0000   -2.5981    0.0000 C   0  0  0  0  0  0  0  0  0  0  0  0
   -3.8817   -3.8116    0.0000 N   0  0  0  0  0  0  0  0  0  0  0  0
   -5.3083   -3.3481    0.0000 N   0  0  0  0  0  0  0  0  0  0  0  0
   -5.3083   -1.8481    0.0000 C   0  0  0  0  0  0  0  0  0  0  0  0
   -6.5218   -0.9664    0.0000 S   0  0  0  0  0  0  0  0  0  0  0  0
   -6.3650    0.5254    0.0000 C   0  0  0  0  0  0  0  0  0  0  0  0
   -7.5785    1.4071    0.0000 C   0  0  0  0  0  0  0  0  0  0  0  0
   -7.4217    2.8988    0.0000 C   0  0  0  0  0  0  0  0  0  0  0  0
   -8.6353    3.7805    0.0000 C   0  0  0  0  0  0  0  0  0  0  0  0
  -10.0056    3.1704    0.0000 C   0  0  0  0  0  0  0  0  0  0  0  0
  -10.1624    1.6786    0.0000 C   0  0  0  0  0  0  0  0  0  0  0  0
   -8.9488    0.7970    0.0000 C   0  0  0  0  0  0  0  0  0  0  0  0
   -9.1056   -0.6948    0.0000 Cl  0  0  0  0  0  0  0  0  0  0  0  0
   -3.8817   -1.3846    0.0000 N   0  0  0  0  0  0  0  0  0  0  0  0
   -3.4182    0.0420    0.0000 C   0  0  0  0  0  0  0  0  0  0  0  0
   -4.4218    1.1568    0.0000 C   0  0  0  0  0  0  0  0  0  0  0  0
   -3.9583    2.5833    0.0000 C   0  0  0  0  0  0  0  0  0  0  0  0
   -2.4911    2.8952    0.0000 C   0  0  0  0  0  0  0  0  0  0  0  0
   -2.0276    4.3218    0.0000 F   0  0  0  0  0  0  0  0  0  0  0  0
   -1.4874    1.7805    0.0000 C   0  0  0  0  0  0  0  0  0  0  0  0
   -1.9509    0.3539    0.0000 C   0  0  0  0  0  0  0  0  0  0  0  0
    0.7500   -3.8971    0.0000 N   0  0  0  0  0  0  0  0  0  0  0  0
    1.5000   -5.1962    0.0000 C   0  0  0  0  0  0  0  0  0  0  0  0
    3.0000   -5.1962    0.0000 O   0  0  0  0  0  0  0  0  0  0  0  0
    0.7500   -6.4952    0.0000 N   0  0  0  0  0  0  0  0  0  0  0  0
  1  2  2  0
  2  3  1  0
  3  4  2  0
  4  5  1  0
  6  5  1  6
  6  7  1  0
  7  8  1  0
  8  9  2  0
  9 10  1  0
 10 11  1  0
 11 12  1  0
 12 13  2  0
 13 14  1  0
 14 15  2  0
 15 16  1  0
 16 17  2  0
 17 18  1  0
  9 19  1  0
 19 20  1  0
 20 21  2  0
 21 22  1  0
 22 23  2  0
 23 24  1  0
 23 25  1  0
 25 26  2  0
  4 27  1  0
 27 28  1  0
 28 29  2  0
 28 30  1  0
 30  2  1  0
 19  6  1  0
 26 20  1  0
 17 12  1  0
M  END
>  <Compound_ID>  (574) 
C39362923

>  <Active>  (574) 
0

>  <Smiles>  (574) 
O=c1cc(C[C@@H]2NN=C(SCc3ccccc3Cl)N2c2ccc(F)cc2)[nH]c(=O)[nH]1

>  <canonical_smi>  (574) 
O=c1cc(C[C@@H]2NN=C(SCc3ccccc3Cl)N2c2ccc(F)cc2)[nH]c(=O)[nH]1

>  <Set>  (574) 
G2 inactive

>  <Set_type>  (574) 
Test

>  <MW>  (574) 
445.91

>  <HBD>  (574) 
3

>  <HBA>  (574) 
5

>  <NRB>  (574) 
5

>  <NR>  (574) 
4

>  <NAR>  (574) 
3

>  <PSA>  (574) 
93.35

>  <Standard Type>  (574) 
nan

>  <Standard Relation>  (574) 
nan

>  <Standard Units>  (574) 
nan

>  <Standard Value>  (574) 
nan

>  <Assay ChEMBL ID>  (574) 
nan

>  <Assay Description>  (574) 
nan

>  <BAO Label>  (574) 
nan

$$$$

     RDKit          2D

 32 36  0  0  0  0  0  0  0  0999 V2000
   -1.7024   10.0935    0.0000 N   0  0  0  0  0  0  0  0  0  0  0  0
   -2.0143    8.6263    0.0000 C   0  0  0  0  0  0  0  0  0  0  0  0
   -3.4408    8.1628    0.0000 O   0  0  0  0  0  0  0  0  0  0  0  0
   -0.8995    7.6226    0.0000 C   0  0  0  0  0  0  0  0  0  0  0  0
    0.5271    8.0861    0.0000 C   0  0  0  0  0  0  0  0  0  0  0  0
    1.6418    7.0824    0.0000 N   0  0  0  0  0  0  0  0  0  0  0  0
    1.3299    5.6152    0.0000 C   0  0  0  0  0  0  0  0  0  0  0  0
   -0.0967    5.1517    0.0000 C   0  0  0  0  0  0  0  0  0  0  0  0
   -0.4086    3.6844    0.0000 C   0  0  0  0  0  0  0  0  0  0  0  0
   -1.8351    3.2209    0.0000 C   0  0  0  0  0  0  0  0  0  0  0  0
   -2.1470    1.7537    0.0000 C   0  0  0  0  0  0  0  0  0  0  0  0
   -3.5736    1.2902    0.0000 F   0  0  0  0  0  0  0  0  0  0  0  0
   -1.0323    0.7500    0.0000 C   0  0  0  0  0  0  0  0  0  0  0  0
    0.3943    1.2135    0.0000 C   0  0  0  0  0  0  0  0  0  0  0  0
    0.7062    2.6807    0.0000 C   0  0  0  0  0  0  0  0  0  0  0  0
    1.2760    0.0000    0.0000 C   0  0  0  0  0  0  0  0  0  0  0  0
    0.3943   -1.2135    0.0000 C   0  0  0  0  0  0  0  0  0  0  0  0
    0.8578   -2.6401    0.0000 C   0  0  0  0  0  0  0  0  0  0  0  0
   -0.1459   -3.7548    0.0000 N   0  0  0  0  0  0  0  0  0  0  0  0
    0.3177   -5.1814    0.0000 C   0  0  0  0  0  0  0  0  0  0  0  0
    1.7849   -5.4933    0.0000 O   0  0  0  0  0  0  0  0  0  0  0  0
   -0.6860   -6.2961    0.0000 C   0  0  0  0  0  0  0  0  0  0  0  0
   -2.1778   -6.1393    0.0000 S   0  0  0  0  0  0  0  0  0  0  0  0
   -2.7879   -7.5097    0.0000 C   0  0  0  0  0  0  0  0  0  0  0  0
   -1.6732   -8.5134    0.0000 C   0  0  0  0  0  0  0  0  0  0  0  0
   -0.3742   -7.7634    0.0000 C   0  0  0  0  0  0  0  0  0  0  0  0
    0.9249   -8.5134    0.0000 C   0  0  0  0  0  0  0  0  0  0  0  0
    0.9249  -10.0134    0.0000 C   0  0  0  0  0  0  0  0  0  0  0  0
   -0.3742  -10.7634    0.0000 C   0  0  0  0  0  0  0  0  0  0  0  0
   -1.6732  -10.0134    0.0000 C   0  0  0  0  0  0  0  0  0  0  0  0
   -1.0323   -0.7500    0.0000 O   0  0  0  0  0  0  0  0  0  0  0  0
   -1.2114    6.1554    0.0000 C   0  0  0  0  0  0  0  0  0  0  0  0
  1  2  1  0
  2  3  2  0
  2  4  1  0
  4  5  2  0
  5  6  1  0
  6  7  2  0
  7  8  1  0
  8  9  1  0
  9 10  2  0
 10 11  1  0
 11 12  1  0
 11 13  2  0
 13 14  1  0
 14 15  2  0
 14 16  1  0
 16 17  1  0
 17 18  1  1
 18 19  1  0
 19 20  1  0
 20 21  2  0
 20 22  1  0
 22 23  1  0
 23 24  1  0
 24 25  2  0
 25 26  1  0
 26 27  1  0
 27 28  1  0
 28 29  1  0
 29 30  1  0
 17 31  1  0
  8 32  2  0
 32  4  1  0
 15  9  1  0
 26 22  2  0
 31 13  1  0
 30 25  1  0
M  END
>  <Compound_ID>  (575) 
C11814477

>  <Active>  (575) 
0

>  <Smiles>  (575) 
NC(=O)c1cncc(-c2cc(F)c3c(c2)C[C@@H](CNC(=O)c2scc4c2CCCC4)O3)c1

>  <canonical_smi>  (575) 
NC(=O)c1cncc(-c2cc(F)c3c(c2)C[C@@H](CNC(=O)c2scc4c2CCCC4)O3)c1

>  <Set>  (575) 
G2 inactive

>  <Set_type>  (575) 
Test

>  <MW>  (575) 
451.52

>  <HBD>  (575) 
2

>  <HBA>  (575) 
4

>  <NRB>  (575) 
5

>  <NR>  (575) 
5

>  <NAR>  (575) 
3

>  <PSA>  (575) 
94.31

>  <Standard Type>  (575) 
nan

>  <Standard Relation>  (575) 
nan

>  <Standard Units>  (575) 
nan

>  <Standard Value>  (575) 
nan

>  <Assay ChEMBL ID>  (575) 
nan

>  <Assay Description>  (575) 
nan

>  <BAO Label>  (575) 
nan

$$$$

     RDKit          2D

 29 32  0  0  0  0  0  0  0  0999 V2000
    3.8173    0.5402    0.0000 C   0  0  0  0  0  0  0  0  0  0  0  0
    2.3907    1.0037    0.0000 C   0  0  0  0  0  0  0  0  0  0  0  0
    2.0788    2.4709    0.0000 O   0  0  0  0  0  0  0  0  0  0  0  0
    1.2760    0.0000    0.0000 C   0  0  0  0  0  0  0  0  0  0  0  0
    2.3907   -1.0037    0.0000 C   0  0  0  0  0  0  0  0  0  0  0  0
    2.0788   -2.4709    0.0000 O   0  0  0  0  0  0  0  0  0  0  0  0
    3.8173   -0.5402    0.0000 O   0  0  0  0  0  1  0  0  0  0  0  0
    0.3943    1.2135    0.0000 N   0  0  0  0  0  4  0  0  0  0  0  0
   -1.0323    0.7500    0.0000 C   0  0  0  0  0  0  0  0  0  0  0  0
   -2.2458    1.6317    0.0000 C   0  0  0  0  0  0  0  0  0  0  0  0
   -2.0890    3.1235    0.0000 C   0  0  0  0  0  0  0  0  0  0  0  0
   -3.3025    4.0051    0.0000 C   0  0  0  0  0  0  0  0  0  0  0  0
   -4.6729    3.3950    0.0000 C   0  0  0  0  0  0  0  0  0  0  0  0
   -5.8864    4.2767    0.0000 Br  0  0  0  0  0  0  0  0  0  0  0  0
   -4.8297    1.9033    0.0000 C   0  0  0  0  0  0  0  0  0  0  0  0
   -3.6161    1.0216    0.0000 C   0  0  0  0  0  0  0  0  0  0  0  0
   -1.0323   -0.7500    0.0000 C   0  0  0  0  0  0  0  0  0  0  0  0
   -1.9140   -1.9635    0.0000 C   0  0  0  0  0  0  0  0  0  0  0  0
   -3.4140   -1.9635    0.0000 O   0  0  0  0  0  0  0  0  0  0  0  0
   -1.0323   -3.1771    0.0000 N   0  0  0  0  0  0  0  0  0  0  0  0
   -1.4958   -4.6036    0.0000 C   0  0  0  0  0  0  0  0  0  0  0  0
   -2.9630   -4.9155    0.0000 C   0  0  0  0  0  0  0  0  0  0  0  0
   -3.4266   -6.3421    0.0000 C   0  0  0  0  0  0  0  0  0  0  0  0
   -2.4229   -7.4568    0.0000 C   0  0  0  0  0  0  0  0  0  0  0  0
   -0.9556   -7.1449    0.0000 C   0  0  0  0  0  0  0  0  0  0  0  0
   -0.4921   -5.7184    0.0000 C   0  0  0  0  0  0  0  0  0  0  0  0
    0.3943   -2.7135    0.0000 C   0  0  0  0  0  0  0  0  0  0  0  0
    1.6078   -3.5952    0.0000 O   0  0  0  0  0  0  0  0  0  0  0  0
    0.3943   -1.2135    0.0000 C   0  0  0  0  0  0  0  0  0  0  0  0
  2  1  1  1
  2  3  1  0
  2  4  1  0
  4  5  1  1
  5  6  2  0
  5  7  1  0
  4  8  1  0
  8  9  1  0
  9 10  1  6
 10 11  2  0
 11 12  1  0
 12 13  2  0
 13 14  1  0
 13 15  1  0
 15 16  2  0
  9 17  1  0
 17 18  1  6
 18 19  2  0
 18 20  1  0
 20 21  1  0
 21 22  1  0
 22 23  1  0
 23 24  1  0
 24 25  1  0
 25 26  1  0
 20 27  1  0
 27 28  2  0
 29 27  1  1
 29  4  1  0
 16 10  1  0
 29 17  1  0
 26 21  1  0
M  CHG  2   7  -1   8   1
M  END
>  <Compound_ID>  (576) 
C34262061

>  <Active>  (576) 
0

>  <Smiles>  (576) 
C[C@H](O)[C@@]1(C(=O)[O-])[NH2+][C@@H](c2ccc(Br)cc2)[C@H]2C(=O)N(C3CCCCC3)C(=O)[C@@H]21

>  <canonical_smi>  (576) 
C[C@H](O)[C@@]1(C(=O)[O-])[NH2+][C@@H](c2ccc(Br)cc2)[C@H]2C(=O)N(C3CCCCC3)C(=O)[C@@H]21

>  <Set>  (576) 
G2 inactive

>  <Set_type>  (576) 
Test

>  <MW>  (576) 
465.34

>  <HBD>  (576) 
2

>  <HBA>  (576) 
5

>  <NRB>  (576) 
4

>  <NR>  (576) 
4

>  <NAR>  (576) 
1

>  <PSA>  (576) 
114.35

>  <Standard Type>  (576) 
nan

>  <Standard Relation>  (576) 
nan

>  <Standard Units>  (576) 
nan

>  <Standard Value>  (576) 
nan

>  <Assay ChEMBL ID>  (576) 
nan

>  <Assay Description>  (576) 
nan

>  <BAO Label>  (576) 
nan

$$$$

     RDKit          2D

 20 22  0  0  0  0  0  0  0  0999 V2000
    3.7500   -6.4952    0.0000 O   0  0  0  0  0  0  0  0  0  0  0  0
    3.0000   -7.7942    0.0000 C   0  0  0  0  0  0  0  0  0  0  0  0
    3.7500   -9.0933    0.0000 C   0  0  0  0  0  0  0  0  0  0  0  0
    3.0000  -10.3923    0.0000 C   0  0  0  0  0  0  0  0  0  0  0  0
    1.5000  -10.3923    0.0000 C   0  0  0  0  0  0  0  0  0  0  0  0
    0.7500   -9.0933    0.0000 C   0  0  0  0  0  0  0  0  0  0  0  0
    1.5000   -7.7942    0.0000 C   0  0  0  0  0  0  0  0  0  0  0  0
    0.7500   -6.4952    0.0000 N   0  0  0  0  0  4  0  0  0  0  0  0
    1.5000   -5.1962    0.0000 C   0  0  0  0  0  0  0  0  0  0  0  0
    0.7500   -3.8971    0.0000 C   0  0  0  0  0  0  0  0  0  0  0  0
   -0.7500   -3.8971    0.0000 C   0  0  0  0  0  0  0  0  0  0  0  0
   -1.5000   -2.5981    0.0000 C   0  0  0  0  0  0  0  0  0  0  0  0
   -3.0000   -2.5981    0.0000 Br  0  0  0  0  0  0  0  0  0  0  0  0
   -0.7500   -1.2990    0.0000 C   0  0  0  0  0  0  0  0  0  0  0  0
    0.7500   -1.2990    0.0000 C   0  0  0  0  0  0  0  0  0  0  0  0
    1.5000   -2.5981    0.0000 C   0  0  0  0  0  0  0  0  0  0  0  0
    1.5000    0.0000    0.0000 O   0  0  0  0  0  0  0  0  0  0  0  0
    0.7500    1.2990    0.0000 C   0  0  0  0  0  0  0  0  0  0  0  0
   -0.7500    1.2990    0.0000 C   0  0  0  0  0  0  0  0  0  0  0  0
   -1.5000    0.0000    0.0000 O   0  0  0  0  0  0  0  0  0  0  0  0
  2  1  1  1
  2  3  1  0
  3  4  1  0
  4  5  1  0
  5  6  1  0
  6  7  1  0
  7  8  1  1
  8  9  1  0
  9 10  1  0
 10 11  2  0
 11 12  1  0
 12 13  1  0
 12 14  2  0
 14 15  1  0
 15 16  2  0
 15 17  1  0
 17 18  1  0
 18 19  1  0
 19 20  1  0
  7  2  1  0
 16 10  1  0
 20 14  1  0
M  CHG  1   8   1
M  END
>  <Compound_ID>  (577) 
C51995604

>  <Active>  (577) 
0

>  <Smiles>  (577) 
O[C@H]1CCCC[C@H]1[NH2+]Cc1cc(Br)c2c(c1)OCCO2

>  <canonical_smi>  (577) 
O[C@H]1CCCC[C@H]1[NH2+]Cc1cc(Br)c2c(c1)OCCO2

>  <Set>  (577) 
G2 inactive

>  <Set_type>  (577) 
Test

>  <MW>  (577) 
343.24

>  <HBD>  (577) 
2

>  <HBA>  (577) 
3

>  <NRB>  (577) 
3

>  <NR>  (577) 
3

>  <NAR>  (577) 
1

>  <PSA>  (577) 
55.3

>  <Standard Type>  (577) 
nan

>  <Standard Relation>  (577) 
nan

>  <Standard Units>  (577) 
nan

>  <Standard Value>  (577) 
nan

>  <Assay ChEMBL ID>  (577) 
nan

>  <Assay Description>  (577) 
nan

>  <BAO Label>  (577) 
nan

$$$$

     RDKit          2D

 21 23  0  0  0  0  0  0  0  0999 V2000
   -9.4612   -4.0396    0.0000 C   0  0  0  0  0  0  0  0  0  0  0  0
   -8.0346   -3.5760    0.0000 N   0  0  0  0  0  4  0  0  0  0  0  0
   -6.9199   -4.5797    0.0000 C   0  0  0  0  0  0  0  0  0  0  0  0
   -5.4933   -4.1162    0.0000 C   0  0  0  0  0  0  0  0  0  0  0  0
   -5.1814   -2.6490    0.0000 C   0  0  0  0  0  0  0  0  0  0  0  0
   -3.7548   -2.1855    0.0000 C   0  0  0  0  0  0  0  0  0  0  0  0
   -2.6401   -3.1891    0.0000 N   0  0  0  0  0  0  0  0  0  0  0  0
   -1.2135   -2.7256    0.0000 C   0  0  0  0  0  0  0  0  0  0  0  0
   -0.0000   -3.6073    0.0000 C   0  0  0  0  0  0  0  0  0  0  0  0
    0.0000   -5.1073    0.0000 O   0  0  0  0  0  0  0  0  0  0  0  0
    1.2135   -2.7256    0.0000 N   0  0  0  0  0  0  0  0  0  0  0  0
    0.7500   -1.2990    0.0000 C   0  0  0  0  0  0  0  0  0  0  0  0
    1.5000    0.0000    0.0000 C   0  0  0  0  0  0  0  0  0  0  0  0
    3.0000    0.0000    0.0000 C   0  0  0  0  0  0  0  0  0  0  0  0
    0.7500    1.2990    0.0000 C   0  0  0  0  0  0  0  0  0  0  0  0
   -0.7500    1.2990    0.0000 C   0  0  0  0  0  0  0  0  0  0  0  0
   -1.5000    2.5981    0.0000 Br  0  0  0  0  0  0  0  0  0  0  0  0
   -1.5000    0.0000    0.0000 C   0  0  0  0  0  0  0  0  0  0  0  0
   -0.7500   -1.2990    0.0000 C   0  0  0  0  0  0  0  0  0  0  0  0
   -2.9520   -4.6564    0.0000 C   0  0  0  0  0  0  0  0  0  0  0  0
   -4.3786   -5.1199    0.0000 C   0  0  0  0  0  0  0  0  0  0  0  0
  1  2  1  0
  2  3  1  0
  3  4  1  0
  4  5  1  0
  5  6  1  0
  6  7  1  0
  8  7  1  6
  8  9  1  0
  9 10  2  0
  9 11  1  0
 11 12  1  0
 12 13  2  0
 13 14  1  0
 13 15  1  0
 15 16  2  0
 16 17  1  0
 16 18  1  0
 18 19  2  0
  7 20  1  0
 20 21  1  0
 21  4  1  0
 19  8  1  0
 19 12  1  0
M  CHG  1   2   1
M  END
>  <Compound_ID>  (578) 
C63159180

>  <Active>  (578) 
0

>  <Smiles>  (578) 
C[NH2+]CC1CCN([C@H]2C(=O)Nc3c(C)cc(Br)cc32)CC1

>  <canonical_smi>  (578) 
C[NH2+]CC1CCN([C@H]2C(=O)Nc3c(C)cc(Br)cc32)CC1

>  <Set>  (578) 
G2 inactive

>  <Set_type>  (578) 
Test

>  <MW>  (578) 
353.28

>  <HBD>  (578) 
2

>  <HBA>  (578) 
2

>  <NRB>  (578) 
3

>  <NR>  (578) 
3

>  <NAR>  (578) 
1

>  <PSA>  (578) 
48.95

>  <Standard Type>  (578) 
nan

>  <Standard Relation>  (578) 
nan

>  <Standard Units>  (578) 
nan

>  <Standard Value>  (578) 
nan

>  <Assay ChEMBL ID>  (578) 
nan

>  <Assay Description>  (578) 
nan

>  <BAO Label>  (578) 
nan

$$$$

     RDKit          2D

 22 23  0  0  0  0  0  0  0  0999 V2000
    3.7500   -1.2990    0.0000 N   0  0  0  0  0  0  0  0  0  0  0  0
    3.0000    0.0000    0.0000 N   0  0  0  0  0  0  0  0  0  0  0  0
    1.5000    0.0000    0.0000 C   0  0  0  0  0  0  0  0  0  0  0  0
    0.7500   -1.2990    0.0000 C   0  0  0  0  0  0  0  0  0  0  0  0
   -0.7500   -1.2990    0.0000 C   0  0  0  0  0  0  0  0  0  0  0  0
   -1.5000    0.0000    0.0000 C   0  0  0  0  0  0  0  0  0  0  0  0
   -3.0000    0.0000    0.0000 N   0  0  0  0  0  4  0  0  0  0  0  0
   -3.7500   -1.2990    0.0000 O   0  0  0  0  0  0  0  0  0  0  0  0
   -3.7500    1.2990    0.0000 O   0  0  0  0  0  1  0  0  0  0  0  0
   -0.7500    1.2990    0.0000 C   0  0  0  0  0  0  0  0  0  0  0  0
    0.7500    1.2990    0.0000 C   0  0  0  0  0  0  0  0  0  0  0  0
    1.5000    2.5981    0.0000 S   0  0  0  0  0  0  0  0  0  0  0  0
    0.2010    3.3481    0.0000 O   0  0  0  0  0  0  0  0  0  0  0  0
    2.7990    1.8481    0.0000 O   0  0  0  0  0  0  0  0  0  0  0  0
    2.2500    3.8971    0.0000 N   0  0  0  0  0  0  0  0  0  0  0  0
    3.7500    3.8971    0.0000 C   0  0  0  0  0  0  0  0  0  0  0  0
    4.5000    2.5981    0.0000 C   0  0  0  0  0  0  0  0  0  0  0  0
    6.0000    2.5981    0.0000 C   0  0  0  0  0  0  0  0  0  0  0  0
    6.7500    3.8971    0.0000 C   0  0  0  0  0  0  0  0  0  0  0  0
    8.2500    3.8971    0.0000 Cl  0  0  0  0  0  0  0  0  0  0  0  0
    6.0000    5.1962    0.0000 C   0  0  0  0  0  0  0  0  0  0  0  0
    4.5000    5.1962    0.0000 C   0  0  0  0  0  0  0  0  0  0  0  0
  1  2  1  0
  2  3  1  0
  3  4  2  0
  4  5  1  0
  5  6  2  0
  6  7  1  0
  7  8  2  0
  7  9  1  0
  6 10  1  0
 10 11  2  0
 11 12  1  0
 12 13  2  0
 12 14  2  0
 12 15  1  0
 15 16  1  0
 16 17  2  0
 17 18  1  0
 18 19  2  0
 19 20  1  0
 19 21  1  0
 21 22  2  0
 11  3  1  0
 22 16  1  0
M  CHG  2   7   1   9  -1
M  END
>  <Compound_ID>  (579) 
C03885823

>  <Active>  (579) 
0

>  <Smiles>  (579) 
NNc1ccc([N+](=O)[O-])cc1S(=O)(=O)Nc1ccc(Cl)cc1

>  <canonical_smi>  (579) 
NNc1ccc([N+](=O)[O-])cc1S(=O)(=O)Nc1ccc(Cl)cc1

>  <Set>  (579) 
G2 inactive

>  <Set_type>  (579) 
Test

>  <MW>  (579) 
342.76

>  <HBD>  (579) 
3

>  <HBA>  (579) 
6

>  <NRB>  (579) 
5

>  <NR>  (579) 
2

>  <NAR>  (579) 
2

>  <PSA>  (579) 
127.36

>  <Standard Type>  (579) 
nan

>  <Standard Relation>  (579) 
nan

>  <Standard Units>  (579) 
nan

>  <Standard Value>  (579) 
nan

>  <Assay ChEMBL ID>  (579) 
nan

>  <Assay Description>  (579) 
nan

>  <BAO Label>  (579) 
nan

$$$$

     RDKit          2D

 28 32  0  0  0  0  0  0  0  0999 V2000
   -0.4704   -8.0826    0.0000 H   0  0  0  0  0  0  0  0  0  0  0  0
   -1.6839   -7.2010    0.0000 N   0  0  0  0  0  0  0  0  0  0  0  0
   -1.5271   -5.7092    0.0000 C   0  0  0  0  0  0  0  0  0  0  0  0
   -0.1568   -5.0991    0.0000 N   0  0  0  0  0  0  0  0  0  0  0  0
   -0.0000   -3.6073    0.0000 C   0  0  0  0  0  0  0  0  0  0  0  0
    1.2135   -2.7256    0.0000 N   0  0  0  0  0  0  0  0  0  0  0  0
    0.7500   -1.2990    0.0000 C   0  0  0  0  0  0  0  0  0  0  0  0
    1.5000    0.0000    0.0000 C   0  0  0  0  0  0  0  0  0  0  0  0
    0.7500    1.2990    0.0000 C   0  0  0  0  0  0  0  0  0  0  0  0
   -0.7500    1.2990    0.0000 C   0  0  0  0  0  0  0  0  0  0  0  0
   -1.5000    0.0000    0.0000 C   0  0  0  0  0  0  0  0  0  0  0  0
   -0.7500   -1.2990    0.0000 C   0  0  0  0  0  0  0  0  0  0  0  0
   -1.2135   -2.7256    0.0000 N   0  0  0  0  0  0  0  0  0  0  0  0
   -2.5838   -3.3357    0.0000 C   0  0  0  0  0  0  0  0  0  0  0  0
   -3.7974   -2.4540    0.0000 C   0  0  0  0  0  0  0  0  0  0  0  0
   -3.7974   -0.9540    0.0000 C   0  0  0  0  0  0  0  0  0  0  0  0
   -5.2240   -0.4905    0.0000 N   0  0  0  0  0  0  0  0  0  0  0  0
   -6.1056   -1.7040    0.0000 N   0  0  0  0  0  0  0  0  0  0  0  0
   -5.2240   -2.9176    0.0000 C   0  0  0  0  0  0  0  0  0  0  0  0
   -5.6875   -4.3442    0.0000 C   0  0  0  0  0  0  0  0  0  0  0  0
   -4.6838   -5.4589    0.0000 C   0  0  0  0  0  0  0  0  0  0  0  0
   -5.1473   -6.8855    0.0000 C   0  0  0  0  0  0  0  0  0  0  0  0
   -6.6145   -7.1973    0.0000 C   0  0  0  0  0  0  0  0  0  0  0  0
   -7.0781   -8.6239    0.0000 O   0  0  0  0  0  0  0  0  0  0  0  0
   -8.5453   -8.9358    0.0000 C   0  0  0  0  0  0  0  0  0  0  0  0
   -7.6182   -6.0826    0.0000 C   0  0  0  0  0  0  0  0  0  0  0  0
   -7.1547   -4.6560    0.0000 C   0  0  0  0  0  0  0  0  0  0  0  0
   -2.7406   -4.8275    0.0000 N   0  0  0  0  0  0  0  0  0  0  0  0
  1  2  1  0
  2  3  2  0
  3  4  1  0
  5  4  1  6
  5  6  1  0
  6  7  1  0
  7  8  2  0
  8  9  1  0
  9 10  2  0
 10 11  1  0
 11 12  2  0
 12 13  1  0
 13 14  1  0
 14 15  1  0
 15 16  1  6
 16 17  2  0
 17 18  1  0
 18 19  2  0
 19 20  1  0
 20 21  2  0
 21 22  1  0
 22 23  2  0
 23 24  1  0
 24 25  1  0
 23 26  1  0
 26 27  2  0
 14 28  1  1
 28  3  1  0
 13  5  1  0
 19 15  1  0
 27 20  1  0
 12  7  1  0
M  END
>  <Compound_ID>  (580) 
C39217323

>  <Active>  (580) 
0

>  <Smiles>  (580) 
[H]/N=C1\N[C@H]2Nc3ccccc3N2[C@H]([C@H]2C=NN=C2c2ccc(OC)cc2)N1

>  <canonical_smi>  (580) 
[H]/N=C1\N[C@H]2Nc3ccccc3N2[C@H]([C@H]2C=NN=C2c2ccc(OC)cc2)N1

>  <Set>  (580) 
G2 inactive

>  <Set_type>  (580) 
Test

>  <MW>  (580) 
361.41

>  <HBD>  (580) 
4

>  <HBA>  (580) 
5

>  <NRB>  (580) 
3

>  <NR>  (580) 
5

>  <NAR>  (580) 
2

>  <PSA>  (580) 
97.13

>  <Standard Type>  (580) 
nan

>  <Standard Relation>  (580) 
nan

>  <Standard Units>  (580) 
nan

>  <Standard Value>  (580) 
nan

>  <Assay ChEMBL ID>  (580) 
nan

>  <Assay Description>  (580) 
nan

>  <BAO Label>  (580) 
nan

$$$$

     RDKit          2D

 21 23  0  0  0  0  0  0  0  0999 V2000
    3.0000    0.0000    0.0000 C   0  0  0  0  0  0  0  0  0  0  0  0
    1.5000    0.0000    0.0000 C   0  0  0  0  0  0  0  0  0  0  0  0
    0.7500   -1.2990    0.0000 C   0  0  0  0  0  0  0  0  0  0  0  0
   -0.7500   -1.2990    0.0000 C   0  0  0  0  0  0  0  0  0  0  0  0
   -1.5000   -2.5981    0.0000 N   0  0  0  0  0  0  0  0  0  0  0  0
   -1.5000    0.0000    0.0000 C   0  0  0  0  0  0  0  0  0  0  0  0
   -0.7500    1.2990    0.0000 C   0  0  0  0  0  0  0  0  0  0  0  0
    0.7500    1.2990    0.0000 C   0  0  0  0  0  0  0  0  0  0  0  0
    1.5000    2.5981    0.0000 C   0  0  0  0  0  0  0  0  0  0  0  0
    0.8899    3.9684    0.0000 N   0  0  0  0  0  0  0  0  0  0  0  0
    2.0046    4.9721    0.0000 N   0  0  0  0  0  0  0  0  0  0  0  0
    3.3037    4.2221    0.0000 N   0  0  0  0  0  0  0  0  0  0  0  0
    2.9918    2.7549    0.0000 N   0  0  0  0  0  0  0  0  0  0  0  0
    3.9955    1.6402    0.0000 C   0  0  0  0  0  0  0  0  0  0  0  0
    5.4627    1.9520    0.0000 C   0  0  0  0  0  0  0  0  0  0  0  0
    6.4664    0.8373    0.0000 C   0  0  0  0  0  0  0  0  0  0  0  0
    7.9336    1.1492    0.0000 C   0  0  0  0  0  0  0  0  0  0  0  0
    8.3971    2.5758    0.0000 C   0  0  0  0  0  0  0  0  0  0  0  0
    7.3934    3.6905    0.0000 C   0  0  0  0  0  0  0  0  0  0  0  0
    7.8570    5.1171    0.0000 Br  0  0  0  0  0  0  0  0  0  0  0  0
    5.9262    3.3786    0.0000 C   0  0  0  0  0  0  0  0  0  0  0  0
  1  2  1  0
  2  3  2  0
  3  4  1  0
  4  5  1  0
  4  6  2  0
  6  7  1  0
  7  8  2  0
  8  9  1  0
  9 10  2  0
 10 11  1  0
 11 12  2  0
 12 13  1  0
 13 14  1  0
 14 15  1  0
 15 16  2  0
 16 17  1  0
 17 18  2  0
 18 19  1  0
 19 20  1  0
 19 21  2  0
  8  2  1  0
 13  9  1  0
 21 15  1  0
M  END
>  <Compound_ID>  (581) 
C44749563

>  <Active>  (581) 
0

>  <Smiles>  (581) 
Cc1cc(N)ccc1-c1nnnn1Cc1cccc(Br)c1

>  <canonical_smi>  (581) 
Cc1cc(N)ccc1-c1nnnn1Cc1cccc(Br)c1

>  <Set>  (581) 
G2 inactive

>  <Set_type>  (581) 
Test

>  <MW>  (581) 
344.22

>  <HBD>  (581) 
1

>  <HBA>  (581) 
4

>  <NRB>  (581) 
3

>  <NR>  (581) 
3

>  <NAR>  (581) 
3

>  <PSA>  (581) 
69.62

>  <Standard Type>  (581) 
nan

>  <Standard Relation>  (581) 
nan

>  <Standard Units>  (581) 
nan

>  <Standard Value>  (581) 
nan

>  <Assay ChEMBL ID>  (581) 
nan

>  <Assay Description>  (581) 
nan

>  <BAO Label>  (581) 
nan

$$$$

     RDKit          2D

 24 27  0  0  0  0  0  0  0  0999 V2000
    3.7500   -1.2990    0.0000 C   0  0  0  0  0  0  0  0  0  0  0  0
    3.0000   -2.5981    0.0000 C   0  0  0  0  0  0  0  0  0  0  0  0
    3.7500   -3.8971    0.0000 C   0  0  0  0  0  0  0  0  0  0  0  0
    5.2500   -3.8971    0.0000 Cl  0  0  0  0  0  0  0  0  0  0  0  0
    3.0000   -5.1962    0.0000 C   0  0  0  0  0  0  0  0  0  0  0  0
    1.5000   -5.1962    0.0000 C   0  0  0  0  0  0  0  0  0  0  0  0
    0.7500   -3.8971    0.0000 C   0  0  0  0  0  0  0  0  0  0  0  0
    1.5000   -2.5981    0.0000 C   0  0  0  0  0  0  0  0  0  0  0  0
    0.7500   -1.2990    0.0000 N   0  0  0  0  0  0  0  0  0  0  0  0
    1.5000    0.0000    0.0000 C   0  0  0  0  0  0  0  0  0  0  0  0
    0.7500    1.2990    0.0000 C   0  0  0  0  0  0  0  0  0  0  0  0
   -0.7500    1.2990    0.0000 C   0  0  0  0  0  0  0  0  0  0  0  0
   -1.5000    0.0000    0.0000 N   0  0  0  0  0  0  0  0  0  0  0  0
   -0.7500   -1.2990    0.0000 C   0  0  0  0  0  0  0  0  0  0  0  0
   -1.7537   -2.4138    0.0000 N   0  0  0  0  0  0  0  0  0  0  0  0
   -3.1240   -1.8037    0.0000 C   0  0  0  0  0  0  0  0  0  0  0  0
   -2.9672   -0.3119    0.0000 C   0  0  0  0  0  0  0  0  0  0  0  0
   -4.1807    0.5698    0.0000 C   0  0  0  0  0  0  0  0  0  0  0  0
   -4.0240    2.0616    0.0000 O   0  0  0  0  0  0  0  0  0  0  0  0
   -5.5511   -0.0403    0.0000 N   0  0  0  0  0  0  0  0  0  0  0  0
   -5.7079   -1.5321    0.0000 C   0  0  0  0  0  0  0  0  0  0  0  0
   -7.0782   -2.1422    0.0000 O   0  0  0  0  0  0  0  0  0  0  0  0
   -4.4943   -2.4138    0.0000 N   0  0  0  0  0  0  0  0  0  0  0  0
   -4.6511   -3.9055    0.0000 C   0  0  0  0  0  0  0  0  0  0  0  0
  1  2  1  0
  2  3  2  0
  3  4  1  0
  3  5  1  0
  5  6  2  0
  6  7  1  0
  7  8  2  0
  8  9  1  0
  9 10  1  0
 10 11  1  0
 11 12  1  0
 12 13  1  0
 13 14  1  0
 14 15  2  0
 15 16  1  0
 16 17  2  0
 17 18  1  0
 18 19  2  0
 18 20  1  0
 20 21  1  0
 21 22  2  0
 21 23  1  0
 23 24  1  0
  8  2  1  0
 14  9  1  0
 23 16  1  0
 17 13  1  0
M  END
>  <Compound_ID>  (582) 
C04249381

>  <Active>  (582) 
0

>  <Smiles>  (582) 
Cc1c(Cl)cccc1N1CCCn2c1nc1c2c(=O)[nH]c(=O)n1C

>  <canonical_smi>  (582) 
Cc1c(Cl)cccc1N1CCCn2c1nc1c2c(=O)[nH]c(=O)n1C

>  <Set>  (582) 
G2 inactive

>  <Set_type>  (582) 
Test

>  <MW>  (582) 
345.79

>  <HBD>  (582) 
1

>  <HBA>  (582) 
4

>  <NRB>  (582) 
1

>  <NR>  (582) 
4

>  <NAR>  (582) 
3

>  <PSA>  (582) 
75.92

>  <Standard Type>  (582) 
nan

>  <Standard Relation>  (582) 
nan

>  <Standard Units>  (582) 
nan

>  <Standard Value>  (582) 
nan

>  <Assay ChEMBL ID>  (582) 
nan

>  <Assay Description>  (582) 
nan

>  <BAO Label>  (582) 
nan

$$$$

     RDKit          2D

 21 22  0  0  0  0  0  0  0  0999 V2000
    3.7500    1.2990    0.0000 O   0  0  0  0  0  0  0  0  0  0  0  0
    3.0000    0.0000    0.0000 N   0  0  0  0  0  4  0  0  0  0  0  0
    3.7500   -1.2990    0.0000 O   0  0  0  0  0  1  0  0  0  0  0  0
    1.5000    0.0000    0.0000 C   0  0  0  0  0  0  0  0  0  0  0  0
    0.7500   -1.2990    0.0000 C   0  0  0  0  0  0  0  0  0  0  0  0
   -0.7500   -1.2990    0.0000 C   0  0  0  0  0  0  0  0  0  0  0  0
   -1.5000   -2.5981    0.0000 N   0  0  0  0  0  0  0  0  0  0  0  0
   -3.0000   -2.5981    0.0000 C   0  0  0  0  0  0  0  0  0  0  0  0
   -3.7500   -3.8971    0.0000 C   0  0  0  0  0  0  0  0  0  0  0  0
   -5.2500   -3.8971    0.0000 C   0  0  0  0  0  0  0  0  0  0  0  0
   -6.0000   -5.1962    0.0000 C   0  0  0  0  0  0  0  0  0  0  0  0
   -5.2500   -6.4952    0.0000 C   0  0  0  0  0  0  0  0  0  0  0  0
   -6.0000   -7.7942    0.0000 O   0  0  0  0  0  0  0  0  0  0  0  0
   -3.7500   -6.4952    0.0000 C   0  0  0  0  0  0  0  0  0  0  0  0
   -3.0000   -7.7942    0.0000 O   0  0  0  0  0  0  0  0  0  0  0  0
   -3.0000   -5.1962    0.0000 C   0  0  0  0  0  0  0  0  0  0  0  0
   -1.5000    0.0000    0.0000 C   0  0  0  0  0  0  0  0  0  0  0  0
   -3.0000    0.0000    0.0000 F   0  0  0  0  0  0  0  0  0  0  0  0
   -0.7500    1.2990    0.0000 C   0  0  0  0  0  0  0  0  0  0  0  0
    0.7500    1.2990    0.0000 C   0  0  0  0  0  0  0  0  0  0  0  0
    1.5000    2.5981    0.0000 F   0  0  0  0  0  0  0  0  0  0  0  0
  1  2  2  0
  2  3  1  0
  2  4  1  0
  4  5  2  0
  5  6  1  0
  6  7  1  0
  7  8  1  0
  8  9  1  0
  9 10  2  0
 10 11  1  0
 11 12  2  0
 12 13  1  0
 12 14  1  0
 14 15  1  0
 14 16  2  0
  6 17  2  0
 17 18  1  0
 17 19  1  0
 19 20  2  0
 20 21  1  0
 20  4  1  0
 16  9  1  0
M  CHG  2   2   1   3  -1
M  END
>  <Compound_ID>  (583) 
C37076763

>  <Active>  (583) 
0

>  <Smiles>  (583) 
O=[N+]([O-])c1cc(NCc2ccc(O)c(O)c2)c(F)cc1F

>  <canonical_smi>  (583) 
O=[N+]([O-])c1cc(NCc2ccc(O)c(O)c2)c(F)cc1F

>  <Set>  (583) 
G2 inactive

>  <Set_type>  (583) 
Test

>  <MW>  (583) 
296.23

>  <HBD>  (583) 
3

>  <HBA>  (583) 
5

>  <NRB>  (583) 
4

>  <NR>  (583) 
2

>  <NAR>  (583) 
2

>  <PSA>  (583) 
95.63

>  <Standard Type>  (583) 
nan

>  <Standard Relation>  (583) 
nan

>  <Standard Units>  (583) 
nan

>  <Standard Value>  (583) 
nan

>  <Assay ChEMBL ID>  (583) 
nan

>  <Assay Description>  (583) 
nan

>  <BAO Label>  (583) 
nan

$$$$

     RDKit          2D

 34 39  0  0  0  0  0  0  0  0999 V2000
   -3.2866    7.1152    0.0000 C   0  0  0  0  0  0  0  0  0  0  0  0
   -3.5985    5.6480    0.0000 C   0  0  0  0  0  0  0  0  0  0  0  0
   -5.0251    5.1844    0.0000 C   0  0  0  0  0  0  0  0  0  0  0  0
   -5.3369    3.7172    0.0000 C   0  0  0  0  0  0  0  0  0  0  0  0
   -6.7635    3.2537    0.0000 C   0  0  0  0  0  0  0  0  0  0  0  0
   -4.2222    2.7135    0.0000 C   0  0  0  0  0  0  0  0  0  0  0  0
   -2.7956    3.1771    0.0000 C   0  0  0  0  0  0  0  0  0  0  0  0
   -2.4838    4.6443    0.0000 C   0  0  0  0  0  0  0  0  0  0  0  0
   -1.9140    1.9635    0.0000 C   0  0  0  0  0  0  0  0  0  0  0  0
   -2.7956    0.7500    0.0000 C   0  0  0  0  0  0  0  0  0  0  0  0
   -2.3321   -0.6766    0.0000 O   0  0  0  0  0  0  0  0  0  0  0  0
   -4.2222    1.2135    0.0000 N   0  0  0  0  0  0  0  0  0  0  0  0
   -1.0323    3.1771    0.0000 C   0  0  0  0  0  0  0  0  0  0  0  0
   -1.0323    4.6771    0.0000 C   0  0  0  0  0  0  0  0  0  0  0  0
   -2.2458    5.5587    0.0000 O   0  0  0  0  0  0  0  0  0  0  0  0
    0.3943    5.1406    0.0000 N   0  0  0  0  0  0  0  0  0  0  0  0
    0.8578    6.5672    0.0000 C   0  0  0  0  0  0  0  0  0  0  0  0
    2.3250    6.8790    0.0000 C   0  0  0  0  0  0  0  0  0  0  0  0
    2.7886    8.3056    0.0000 C   0  0  0  0  0  0  0  0  0  0  0  0
    1.7849    9.4203    0.0000 C   0  0  0  0  0  0  0  0  0  0  0  0
    2.2484   10.8469    0.0000 N   0  0  0  0  0  4  0  0  0  0  0  0
    1.2447   11.9616    0.0000 O   0  0  0  0  0  0  0  0  0  0  0  0
    3.7156   11.1588    0.0000 O   0  0  0  0  0  1  0  0  0  0  0  0
    0.3177    9.1085    0.0000 C   0  0  0  0  0  0  0  0  0  0  0  0
   -0.1459    7.6819    0.0000 C   0  0  0  0  0  0  0  0  0  0  0  0
   -1.6131    7.3700    0.0000 C   0  0  0  0  0  0  0  0  0  0  0  0
    1.2760    3.9271    0.0000 C   0  0  0  0  0  0  0  0  0  0  0  0
    2.7760    3.9271    0.0000 O   0  0  0  0  0  0  0  0  0  0  0  0
    0.3943    2.7135    0.0000 C   0  0  0  0  0  0  0  0  0  0  0  0
    0.3943    1.2135    0.0000 C   0  0  0  0  0  0  0  0  0  0  0  0
    1.2760    0.0000    0.0000 C   0  0  0  0  0  0  0  0  0  0  0  0
    0.3943   -1.2135    0.0000 C   0  0  0  0  0  0  0  0  0  0  0  0
   -1.0323   -0.7500    0.0000 C   0  0  0  0  0  0  0  0  0  0  0  0
   -1.0323    0.7500    0.0000 N   0  0  0  0  0  0  0  0  0  0  0  0
  1  2  1  0
  2  3  2  0
  3  4  1  0
  4  5  1  0
  4  6  2  0
  6  7  1  0
  7  8  2  0
  7  9  1  0
  9 10  1  0
 10 11  2  0
 10 12  1  0
  9 13  1  0
 13 14  1  1
 14 15  2  0
 14 16  1  0
 16 17  1  0
 17 18  2  0
 18 19  1  0
 19 20  2  0
 20 21  1  0
 21 22  2  0
 21 23  1  0
 20 24  1  0
 24 25  2  0
 25 26  1  0
 16 27  1  0
 27 28  2  0
 29 27  1  6
 29 30  1  0
 30 31  1  1
 31 32  1  0
 32 33  1  0
 33 34  1  0
  8  2  1  0
  9 34  1  1
 12  6  1  0
 29 13  1  0
 34 30  1  0
 25 17  1  0
M  CHG  2  21   1  23  -1
M  END
>  <Compound_ID>  (584) 
C34793152

>  <Active>  (584) 
0

>  <Smiles>  (584) 
Cc1cc(C)c2c(c1)[C@@]1(C(=O)N2)[C@H]2C(=O)N(c3ccc([N+](=O)[O-])cc3C)C(=O)[C@@H]2[C@H]2CCCN21

>  <canonical_smi>  (584) 
Cc1cc(C)c2c(c1)[C@@]1(C(=O)N2)[C@H]2C(=O)N(c3ccc([N+](=O)[O-])cc3C)C(=O)[C@@H]2[C@H]2CCCN21

>  <Set>  (584) 
G2 inactive

>  <Set_type>  (584) 
Test

>  <MW>  (584) 
460.49

>  <HBD>  (584) 
1

>  <HBA>  (584) 
6

>  <NRB>  (584) 
2

>  <NR>  (584) 
6

>  <NAR>  (584) 
2

>  <PSA>  (584) 
112.86

>  <Standard Type>  (584) 
nan

>  <Standard Relation>  (584) 
nan

>  <Standard Units>  (584) 
nan

>  <Standard Value>  (584) 
nan

>  <Assay ChEMBL ID>  (584) 
nan

>  <Assay Description>  (584) 
nan

>  <BAO Label>  (584) 
nan

$$$$

     RDKit          2D

 21 23  0  0  0  0  0  0  0  0999 V2000
    3.0000    0.0000    0.0000 O   0  0  0  0  0  0  0  0  0  0  0  0
    1.5000    0.0000    0.0000 C   0  0  0  0  0  0  0  0  0  0  0  0
    0.7500   -1.2990    0.0000 C   0  0  0  0  0  0  0  0  0  0  0  0
   -0.7500   -1.2990    0.0000 O   0  0  0  0  0  0  0  0  0  0  0  0
   -1.5000    0.0000    0.0000 C   0  0  0  0  0  0  0  0  0  0  0  0
   -3.0000    0.0000    0.0000 C   0  0  0  0  0  0  0  0  0  0  0  0
   -3.7500    1.2990    0.0000 C   0  0  0  0  0  0  0  0  0  0  0  0
   -5.2500    1.2990    0.0000 N   0  0  0  0  0  0  0  0  0  0  0  0
   -6.0000    2.5981    0.0000 C   0  0  0  0  0  0  0  0  0  0  0  0
   -5.0869    3.7881    0.0000 C   0  0  0  0  0  0  0  0  0  0  0  0
   -5.2826    5.2753    0.0000 C   0  0  0  0  0  0  0  0  0  0  0  0
   -6.4727    6.1884    0.0000 C   0  0  0  0  0  0  0  0  0  0  0  0
   -7.9598    5.9926    0.0000 C   0  0  0  0  0  0  0  0  0  0  0  0
   -8.8730    4.8026    0.0000 C   0  0  0  0  0  0  0  0  0  0  0  0
   -8.6772    3.3154    0.0000 C   0  0  0  0  0  0  0  0  0  0  0  0
   -7.4872    2.4023    0.0000 C   0  0  0  0  0  0  0  0  0  0  0  0
   -3.0000    2.5981    0.0000 C   0  0  0  0  0  0  0  0  0  0  0  0
   -3.7500    3.8971    0.0000 Cl  0  0  0  0  0  0  0  0  0  0  0  0
   -1.5000    2.5981    0.0000 C   0  0  0  0  0  0  0  0  0  0  0  0
   -0.7500    1.2990    0.0000 C   0  0  0  0  0  0  0  0  0  0  0  0
    0.7500    1.2990    0.0000 N   0  0  0  0  0  0  0  0  0  0  0  0
  1  2  2  0
  2  3  1  0
  3  4  1  0
  4  5  1  0
  5  6  2  0
  6  7  1  0
  7  8  1  0
  8  9  1  0
  9 10  1  0
 10 11  1  0
 11 12  1  0
 12 13  1  0
 13 14  1  0
 14 15  1  0
 15 16  1  0
  7 17  2  0
 17 18  1  0
 17 19  1  0
 19 20  2  0
 20 21  1  0
 21  2  1  0
 20  5  1  0
 16  9  1  0
M  END
>  <Compound_ID>  (585) 
C36993238

>  <Active>  (585) 
0

>  <Smiles>  (585) 
O=C1COc2cc(NC3CCCCCCC3)c(Cl)cc2N1

>  <canonical_smi>  (585) 
O=C1COc2cc(NC3CCCCCCC3)c(Cl)cc2N1

>  <Set>  (585) 
G2 inactive

>  <Set_type>  (585) 
Test

>  <MW>  (585) 
308.81

>  <HBD>  (585) 
2

>  <HBA>  (585) 
3

>  <NRB>  (585) 
2

>  <NR>  (585) 
3

>  <NAR>  (585) 
1

>  <PSA>  (585) 
50.36

>  <Standard Type>  (585) 
nan

>  <Standard Relation>  (585) 
nan

>  <Standard Units>  (585) 
nan

>  <Standard Value>  (585) 
nan

>  <Assay ChEMBL ID>  (585) 
nan

>  <Assay Description>  (585) 
nan

>  <BAO Label>  (585) 
nan

$$$$

     RDKit          2D

 21 22  0  0  0  0  0  0  0  0999 V2000
    3.0000    0.0000    0.0000 C   0  0  0  0  0  0  0  0  0  0  0  0
    1.5000    0.0000    0.0000 C   0  0  0  0  0  0  0  0  0  0  0  0
    0.7500   -1.2990    0.0000 C   0  0  0  0  0  0  0  0  0  0  0  0
   -0.7500   -1.2990    0.0000 C   0  0  0  0  0  0  0  0  0  0  0  0
   -1.5000    0.0000    0.0000 C   0  0  0  0  0  0  0  0  0  0  0  0
   -0.7500    1.2990    0.0000 C   0  0  0  0  0  0  0  0  0  0  0  0
    0.7500    1.2990    0.0000 C   0  0  0  0  0  0  0  0  0  0  0  0
    1.5000    2.5981    0.0000 N   0  0  0  0  0  0  0  0  0  0  0  0
    0.7500    3.8971    0.0000 S   0  0  0  0  0  0  0  0  0  0  0  0
   -0.5490    3.1471    0.0000 O   0  0  0  0  0  0  0  0  0  0  0  0
    2.0490    4.6471    0.0000 O   0  0  0  0  0  0  0  0  0  0  0  0
    0.0000    5.1962    0.0000 C   0  0  0  0  0  0  0  0  0  0  0  0
    0.7500    6.4952    0.0000 C   0  0  0  0  0  0  0  0  0  0  0  0
   -0.0000    7.7942    0.0000 C   0  0  0  0  0  0  0  0  0  0  0  0
   -1.5000    7.7942    0.0000 C   0  0  0  0  0  0  0  0  0  0  0  0
   -2.2500    9.0933    0.0000 C   0  0  0  0  0  0  0  0  0  0  0  0
   -3.0000   10.3923    0.0000 C   0  0  0  0  0  0  0  0  0  0  0  0
   -3.7500   11.6913    0.0000 C   0  0  0  0  0  0  0  0  0  0  0  0
   -3.0000   12.9904    0.0000 O   0  0  0  0  0  0  0  0  0  0  0  0
   -2.2500    6.4952    0.0000 C   0  0  0  0  0  0  0  0  0  0  0  0
   -1.5000    5.1962    0.0000 C   0  0  0  0  0  0  0  0  0  0  0  0
  2  1  1  6
  2  3  1  0
  3  4  1  0
  4  5  1  0
  5  6  1  0
  6  7  1  0
  7  8  1  6
  8  9  1  0
  9 10  2  0
  9 11  2  0
  9 12  1  0
 12 13  2  0
 13 14  1  0
 14 15  2  0
 15 16  1  0
 16 17  3  0
 17 18  1  0
 18 19  1  0
 15 20  1  0
 20 21  2  0
  7  2  1  0
 21 12  1  0
M  END
>  <Compound_ID>  (586) 
C37577943

>  <Active>  (586) 
0

>  <Smiles>  (586) 
C[C@@H]1CCCC[C@@H]1NS(=O)(=O)c1ccc(C#CCO)cc1

>  <canonical_smi>  (586) 
C[C@@H]1CCCC[C@@H]1NS(=O)(=O)c1ccc(C#CCO)cc1

>  <Set>  (586) 
G2 inactive

>  <Set_type>  (586) 
Test

>  <MW>  (586) 
307.42

>  <HBD>  (586) 
2

>  <HBA>  (586) 
3

>  <NRB>  (586) 
3

>  <NR>  (586) 
2

>  <NAR>  (586) 
1

>  <PSA>  (586) 
66.4

>  <Standard Type>  (586) 
nan

>  <Standard Relation>  (586) 
nan

>  <Standard Units>  (586) 
nan

>  <Standard Value>  (586) 
nan

>  <Assay ChEMBL ID>  (586) 
nan

>  <Assay Description>  (586) 
nan

>  <BAO Label>  (586) 
nan

$$$$

     RDKit          2D

 20 21  0  0  0  0  0  0  0  0999 V2000
    3.7500   -1.2990    0.0000 C   0  0  0  0  0  0  0  0  0  0  0  0
    3.0000    0.0000    0.0000 C   0  0  0  0  0  0  0  0  0  0  0  0
    1.5000    0.0000    0.0000 C   0  0  0  0  0  0  0  0  0  0  0  0
    0.7500   -1.2990    0.0000 C   0  0  0  0  0  0  0  0  0  0  0  0
   -0.7500   -1.2990    0.0000 C   0  0  0  0  0  0  0  0  0  0  0  0
   -1.5000    0.0000    0.0000 C   0  0  0  0  0  0  0  0  0  0  0  0
   -0.7500    1.2990    0.0000 N   0  0  0  0  0  0  0  0  0  0  0  0
   -1.5000    2.5981    0.0000 S   0  0  0  0  0  0  0  0  0  0  0  0
   -2.7990    1.8481    0.0000 O   0  0  0  0  0  0  0  0  0  0  0  0
   -0.2010    3.3481    0.0000 O   0  0  0  0  0  0  0  0  0  0  0  0
   -2.2500    3.8971    0.0000 C   0  0  0  0  0  0  0  0  0  0  0  0
   -1.5000    5.1962    0.0000 C   0  0  0  0  0  0  0  0  0  0  0  0
   -2.2500    6.4952    0.0000 C   0  0  0  0  0  0  0  0  0  0  0  0
   -1.5000    7.7942    0.0000 N   0  0  0  0  0  0  0  0  0  0  0  0
   -3.7500    6.4952    0.0000 C   0  0  0  0  0  0  0  0  0  0  0  0
   -4.5000    7.7942    0.0000 F   0  0  0  0  0  0  0  0  0  0  0  0
   -4.5000    5.1962    0.0000 C   0  0  0  0  0  0  0  0  0  0  0  0
   -3.7500    3.8971    0.0000 C   0  0  0  0  0  0  0  0  0  0  0  0
   -4.5000    2.5981    0.0000 Cl  0  0  0  0  0  0  0  0  0  0  0  0
    0.7500    1.2990    0.0000 C   0  0  0  0  0  0  0  0  0  0  0  0
  1  2  1  0
  3  2  1  1
  3  4  1  0
  4  5  1  0
  5  6  1  0
  6  7  1  0
  7  8  1  0
  8  9  2  0
  8 10  2  0
  8 11  1  0
 11 12  2  0
 12 13  1  0
 13 14  1  0
 13 15  2  0
 15 16  1  0
 15 17  1  0
 17 18  2  0
 18 19  1  0
  7 20  1  0
 20  3  1  0
 18 11  1  0
M  END
>  <Compound_ID>  (587) 
C40314942

>  <Active>  (587) 
0

>  <Smiles>  (587) 
CC[C@H]1CCCN(S(=O)(=O)c2cc(N)c(F)cc2Cl)C1

>  <canonical_smi>  (587) 
CC[C@H]1CCCN(S(=O)(=O)c2cc(N)c(F)cc2Cl)C1

>  <Set>  (587) 
G2 inactive

>  <Set_type>  (587) 
Test

>  <MW>  (587) 
320.82

>  <HBD>  (587) 
1

>  <HBA>  (587) 
3

>  <NRB>  (587) 
3

>  <NR>  (587) 
2

>  <NAR>  (587) 
1

>  <PSA>  (587) 
63.4

>  <Standard Type>  (587) 
nan

>  <Standard Relation>  (587) 
nan

>  <Standard Units>  (587) 
nan

>  <Standard Value>  (587) 
nan

>  <Assay ChEMBL ID>  (587) 
nan

>  <Assay Description>  (587) 
nan

>  <BAO Label>  (587) 
nan

$$$$

     RDKit          2D

 32 33  0  0  0  0  0  0  0  0999 V2000
    1.5000   -5.1962    0.0000 C   0  0  0  0  0  0  0  0  0  0  0  0
    0.7500   -3.8971    0.0000 N   0  0  0  0  0  0  0  0  0  0  0  0
    1.5000   -2.5981    0.0000 C   0  0  0  0  0  0  0  0  0  0  0  0
    0.7500   -1.2990    0.0000 O   0  0  0  0  0  0  0  0  0  0  0  0
    3.0000   -2.5981    0.0000 C   0  0  0  0  0  0  0  0  0  0  0  0
    3.7500   -1.2990    0.0000 C   0  0  0  0  0  0  0  0  0  0  0  0
    5.2500   -1.2990    0.0000 C   0  0  0  0  0  0  0  0  0  0  0  0
    6.0000   -2.5981    0.0000 C   0  0  0  0  0  0  0  0  0  0  0  0
    7.5000   -2.5981    0.0000 Cl  0  0  0  0  0  0  0  0  0  0  0  0
    5.2500   -3.8971    0.0000 C   0  0  0  0  0  0  0  0  0  0  0  0
    3.7500   -3.8971    0.0000 C   0  0  0  0  0  0  0  0  0  0  0  0
   -0.7500   -3.8971    0.0000 C   0  0  0  0  0  0  0  0  0  0  0  0
   -1.5000   -2.5981    0.0000 C   0  0  0  0  0  0  0  0  0  0  0  0
   -0.7500   -1.2990    0.0000 O   0  0  0  0  0  0  0  0  0  0  0  0
   -3.0000   -2.5981    0.0000 N   0  0  0  0  0  0  0  0  0  0  0  0
   -3.7500   -1.2990    0.0000 C   0  0  0  0  0  0  0  0  0  0  0  0
   -5.0490   -2.0490    0.0000 C   0  0  0  0  0  0  0  0  0  0  0  0
   -2.4510   -0.5490    0.0000 C   0  0  0  0  0  0  0  0  0  0  0  0
   -4.5000    0.0000    0.0000 C   0  0  0  0  0  0  0  0  0  0  0  0
   -3.7500    1.2990    0.0000 C   0  0  0  0  0  0  0  0  0  0  0  0
   -5.0490    2.0490    0.0000 C   0  0  0  0  0  0  0  0  0  0  0  0
   -2.4510    0.5490    0.0000 C   0  0  0  0  0  0  0  0  0  0  0  0
   -3.0000    2.5981    0.0000 C   0  0  0  0  0  0  0  0  0  0  0  0
   -1.5000   -5.1962    0.0000 C   0  0  0  0  0  0  0  0  0  0  0  0
   -3.0000   -5.1962    0.0000 C   0  0  0  0  0  0  0  0  0  0  0  0
   -3.7500   -3.8971    0.0000 O   0  0  0  0  0  0  0  0  0  0  0  0
   -3.7500   -6.4952    0.0000 C   0  0  0  0  0  0  0  0  0  0  0  0
   -3.0000   -7.7942    0.0000 C   0  0  0  0  0  0  0  0  0  0  0  0
   -3.7500   -9.0933    0.0000 O   0  0  0  0  0  0  0  0  0  0  0  0
   -1.5000   -7.7942    0.0000 C   0  0  0  0  0  0  0  0  0  0  0  0
   -0.7500   -6.4952    0.0000 C   0  0  0  0  0  0  0  0  0  0  0  0
    0.7500   -6.4952    0.0000 O   0  0  0  0  0  0  0  0  0  0  0  0
  1  2  1  0
  2  3  1  0
  3  4  2  0
  3  5  1  0
  5  6  2  0
  6  7  1  0
  7  8  2  0
  8  9  1  0
  8 10  1  0
 10 11  2  0
 12  2  1  1
 12 13  1  0
 13 14  2  0
 13 15  1  0
 15 16  1  0
 16 17  1  0
 16 18  1  0
 16 19  1  0
 19 20  1  0
 20 21  1  0
 20 22  1  0
 20 23  1  0
 12 24  1  0
 24 25  2  0
 25 26  1  0
 25 27  1  0
 27 28  2  0
 28 29  1  0
 28 30  1  0
 30 31  2  0
 31 32  1  0
 11  5  1  0
 31 24  1  0
M  END
>  <Compound_ID>  (588) 
C36527822

>  <Active>  (588) 
0

>  <Smiles>  (588) 
CN(C(=O)c1ccc(Cl)cc1)[C@H](C(=O)NC(C)(C)CC(C)(C)C)c1c(O)cc(O)cc1O

>  <canonical_smi>  (588) 
CN(C(=O)c1ccc(Cl)cc1)[C@H](C(=O)NC(C)(C)CC(C)(C)C)c1c(O)cc(O)cc1O

>  <Set>  (588) 
G2 inactive

>  <Set_type>  (588) 
Test

>  <MW>  (588) 
462.97

>  <HBD>  (588) 
4

>  <HBA>  (588) 
5

>  <NRB>  (588) 
6

>  <NR>  (588) 
2

>  <NAR>  (588) 
2

>  <PSA>  (588) 
110.1

>  <Standard Type>  (588) 
nan

>  <Standard Relation>  (588) 
nan

>  <Standard Units>  (588) 
nan

>  <Standard Value>  (588) 
nan

>  <Assay ChEMBL ID>  (588) 
nan

>  <Assay Description>  (588) 
nan

>  <BAO Label>  (588) 
nan

$$$$

     RDKit          2D

 34 38  0  0  0  0  0  0  0  0999 V2000
    2.3907    1.0037    0.0000 C   0  0  0  0  0  0  0  0  0  0  0  0
    1.2760    0.0000    0.0000 C   0  0  0  0  0  0  0  0  0  0  0  0
    2.3907   -1.0037    0.0000 C   0  0  0  0  0  0  0  0  0  0  0  0
    0.3943    1.2135    0.0000 O   0  0  0  0  0  0  0  0  0  0  0  0
   -1.0323    0.7500    0.0000 C   0  0  0  0  0  0  0  0  0  0  0  0
   -2.4589    1.2135    0.0000 O   0  0  0  0  0  0  0  0  0  0  0  0
   -3.3405    0.0000    0.0000 C   0  0  0  0  0  0  0  0  0  0  0  0
   -4.8405    0.0000    0.0000 C   0  0  0  0  0  0  0  0  0  0  0  0
   -5.5905   -1.2990    0.0000 N   0  0  0  0  0  4  0  0  0  0  0  0
   -5.5905    1.2990    0.0000 C   0  0  0  0  0  0  0  0  0  0  0  0
   -7.0905    1.2990    0.0000 O   0  0  0  0  0  0  0  0  0  0  0  0
   -7.8405    2.5981    0.0000 C   0  0  0  0  0  0  0  0  0  0  0  0
   -9.1396    1.8481    0.0000 C   0  0  0  0  0  0  0  0  0  0  0  0
  -10.4386    2.5981    0.0000 C   0  0  0  0  0  0  0  0  0  0  0  0
  -11.7377    1.8481    0.0000 C   0  0  0  0  0  0  0  0  0  0  0  0
  -11.7377    0.3481    0.0000 C   0  0  0  0  0  0  0  0  0  0  0  0
  -10.4386   -0.4019    0.0000 C   0  0  0  0  0  0  0  0  0  0  0  0
   -9.1396    0.3481    0.0000 C   0  0  0  0  0  0  0  0  0  0  0  0
   -6.5415    3.3481    0.0000 C   0  0  0  0  0  0  0  0  0  0  0  0
   -5.2425    2.5981    0.0000 C   0  0  0  0  0  0  0  0  0  0  0  0
   -3.9434    3.3481    0.0000 C   0  0  0  0  0  0  0  0  0  0  0  0
   -3.9434    4.8481    0.0000 C   0  0  0  0  0  0  0  0  0  0  0  0
   -5.2425    5.5981    0.0000 C   0  0  0  0  0  0  0  0  0  0  0  0
   -6.5415    4.8481    0.0000 C   0  0  0  0  0  0  0  0  0  0  0  0
   -8.5905    3.8971    0.0000 C   0  0  0  0  0  0  0  0  0  0  0  0
   -7.8405    5.1962    0.0000 C   0  0  0  0  0  0  0  0  0  0  0  0
   -8.5905    6.4952    0.0000 C   0  0  0  0  0  0  0  0  0  0  0  0
  -10.0905    6.4952    0.0000 C   0  0  0  0  0  0  0  0  0  0  0  0
  -10.8405    5.1962    0.0000 C   0  0  0  0  0  0  0  0  0  0  0  0
  -10.0905    3.8971    0.0000 C   0  0  0  0  0  0  0  0  0  0  0  0
   -2.4589   -1.2135    0.0000 C   0  0  0  0  0  0  0  0  0  0  0  0
   -2.9224   -2.6401    0.0000 O   0  0  0  0  0  0  0  0  0  0  0  0
   -1.0323   -0.7500    0.0000 C   0  0  0  0  0  0  0  0  0  0  0  0
    0.3943   -1.2135    0.0000 O   0  0  0  0  0  0  0  0  0  0  0  0
  1  2  1  0
  2  3  1  0
  2  4  1  0
  5  4  1  1
  5  6  1  0
  7  6  1  6
  7  8  1  0
  8  9  1  6
  8 10  1  0
 10 11  1  0
 11 12  1  0
 12 13  1  0
 13 14  2  0
 14 15  1  0
 15 16  2  0
 16 17  1  0
 17 18  2  0
 12 19  1  0
 19 20  2  0
 20 21  1  0
 21 22  2  0
 22 23  1  0
 23 24  2  0
 12 25  1  0
 25 26  2  0
 26 27  1  0
 27 28  2  0
 28 29  1  0
 29 30  2  0
  7 31  1  0
 31 32  1  6
 31 33  1  0
 33 34  1  1
 34  2  1  0
 33  5  1  0
 18 13  1  0
 24 19  1  0
 30 25  1  0
M  CHG  1   9   1
M  END
>  <Compound_ID>  (589) 
C44135646

>  <Active>  (589) 
0

>  <Smiles>  (589) 
CC1(C)O[C@@H]2O[C@@H]([C@H]([NH3+])COC(c3ccccc3)(c3ccccc3)c3ccccc3)[C@@H](O)[C@@H]2O1

>  <canonical_smi>  (589) 
CC1(C)O[C@@H]2O[C@@H]([C@H]([NH3+])COC(c3ccccc3)(c3ccccc3)c3ccccc3)[C@@H](O)[C@@H]2O1

>  <Set>  (589) 
G2 inactive

>  <Set_type>  (589) 
Test

>  <MW>  (589) 
462.57

>  <HBD>  (589) 
2

>  <HBA>  (589) 
5

>  <NRB>  (589) 
7

>  <NR>  (589) 
5

>  <NAR>  (589) 
3

>  <PSA>  (589) 
84.79

>  <Standard Type>  (589) 
nan

>  <Standard Relation>  (589) 
nan

>  <Standard Units>  (589) 
nan

>  <Standard Value>  (589) 
nan

>  <Assay ChEMBL ID>  (589) 
nan

>  <Assay Description>  (589) 
nan

>  <BAO Label>  (589) 
nan

$$$$

     RDKit          2D

 21 23  0  0  0  0  0  0  0  0999 V2000
   -8.2500   -3.8971    0.0000 C   0  0  0  0  0  0  0  0  0  0  0  0
   -7.5000   -5.1962    0.0000 C   0  0  0  0  0  0  0  0  0  0  0  0
   -6.0000   -5.1962    0.0000 C   0  0  0  0  0  0  0  0  0  0  0  0
   -5.2500   -3.8971    0.0000 C   0  0  0  0  0  0  0  0  0  0  0  0
   -3.7500   -3.8971    0.0000 C   0  0  0  0  0  0  0  0  0  0  0  0
   -3.0000   -5.1962    0.0000 C   0  0  0  0  0  0  0  0  0  0  0  0
   -1.5000   -5.1962    0.0000 C   0  0  0  0  0  0  0  0  0  0  0  0
   -0.7500   -3.8971    0.0000 C   0  0  0  0  0  0  0  0  0  0  0  0
    0.7500   -3.8971    0.0000 C   0  0  0  0  0  0  0  0  0  0  0  0
    1.5000   -2.5981    0.0000 N   0  0  0  0  0  0  0  0  0  0  0  0
    3.0000   -2.5981    0.0000 C   0  0  0  0  0  0  0  0  0  0  0  0
    0.7500   -1.2990    0.0000 C   0  0  0  0  0  0  0  0  0  0  0  0
    1.5000    0.0000    0.0000 C   0  0  0  0  0  0  0  0  0  0  0  0
    0.7500    1.2990    0.0000 C   0  0  0  0  0  0  0  0  0  0  0  0
   -0.7500    1.2990    0.0000 C   0  0  0  0  0  0  0  0  0  0  0  0
   -1.5000    2.5981    0.0000 O   0  0  0  0  0  0  0  0  0  0  0  0
   -1.5000    0.0000    0.0000 C   0  0  0  0  0  0  0  0  0  0  0  0
   -0.7500   -1.2990    0.0000 C   0  0  0  0  0  0  0  0  0  0  0  0
   -1.5000   -2.5981    0.0000 O   0  0  0  0  0  0  0  0  0  0  0  0
   -3.7500   -6.4952    0.0000 C   0  0  0  0  0  0  0  0  0  0  0  0
   -5.2500   -6.4952    0.0000 C   0  0  0  0  0  0  0  0  0  0  0  0
  1  2  1  0
  2  3  1  0
  3  4  2  0
  4  5  1  0
  5  6  2  0
  6  7  1  0
  8  7  1  6
  8  9  1  0
  9 10  1  0
 10 11  1  0
 10 12  1  0
 12 13  2  0
 13 14  1  0
 14 15  2  0
 15 16  1  0
 15 17  1  0
 17 18  2  0
 18 19  1  0
  6 20  1  0
 20 21  2  0
 21  3  1  0
 19  8  1  0
 18 12  1  0
M  END
>  <Compound_ID>  (590) 
C62498125

>  <Active>  (590) 
0

>  <Smiles>  (590) 
CCc1ccc(C[C@H]2CN(C)c3ccc(O)cc3O2)cc1

>  <canonical_smi>  (590) 
CCc1ccc(C[C@H]2CN(C)c3ccc(O)cc3O2)cc1

>  <Set>  (590) 
G2 inactive

>  <Set_type>  (590) 
Test

>  <MW>  (590) 
283.37

>  <HBD>  (590) 
1

>  <HBA>  (590) 
3

>  <NRB>  (590) 
3

>  <NR>  (590) 
3

>  <NAR>  (590) 
2

>  <PSA>  (590) 
32.7

>  <Standard Type>  (590) 
nan

>  <Standard Relation>  (590) 
nan

>  <Standard Units>  (590) 
nan

>  <Standard Value>  (590) 
nan

>  <Assay ChEMBL ID>  (590) 
nan

>  <Assay Description>  (590) 
nan

>  <BAO Label>  (590) 
nan

$$$$

     RDKit          2D

 36 39  0  0  0  0  0  0  0  0999 V2000
    6.3821  -15.9113    0.0000 C   0  0  0  0  0  0  0  0  0  0  0  0
    4.8821  -15.9113    0.0000 C   0  0  0  0  0  0  0  0  0  0  0  0
    4.1321  -14.6123    0.0000 C   0  0  0  0  0  0  0  0  0  0  0  0
    2.6321  -14.6123    0.0000 S   0  0  0  0  0  0  0  0  0  0  0  0
    1.8821  -13.3132    0.0000 C   0  0  0  0  0  0  0  0  0  0  0  0
    0.3903  -13.1564    0.0000 N   0  0  0  0  0  0  0  0  0  0  0  0
    0.0784  -11.6892    0.0000 N   0  0  0  0  0  0  0  0  0  0  0  0
    1.3774  -10.9392    0.0000 C   0  0  0  0  0  0  0  0  0  0  0  0
    1.5342   -9.4474    0.0000 N   0  0  0  0  0  0  0  0  0  0  0  0
    0.3207   -8.5658    0.0000 C   0  0  0  0  0  0  0  0  0  0  0  0
   -1.0496   -9.1759    0.0000 O   0  0  0  0  0  1  0  0  0  0  0  0
    0.4775   -7.0740    0.0000 C   0  0  0  0  0  0  0  0  0  0  0  0
   -0.7360   -6.1923    0.0000 C   0  0  0  0  0  0  0  0  0  0  0  0
   -1.9495   -5.3106    0.0000 N   0  0  0  0  0  0  0  0  0  0  0  0
    1.8478   -6.4639    0.0000 C   0  0  0  0  0  0  0  0  0  0  0  0
    2.0046   -4.9721    0.0000 C   0  0  0  0  0  0  0  0  0  0  0  0
    0.8899   -3.9684    0.0000 C   0  0  0  0  0  0  0  0  0  0  0  0
    1.5000   -2.5981    0.0000 N   0  0  0  0  0  0  0  0  0  0  0  0
    0.7500   -1.2990    0.0000 C   0  0  0  0  0  0  0  0  0  0  0  0
    1.5000    0.0000    0.0000 C   0  0  0  0  0  0  0  0  0  0  0  0
    0.7500    1.2990    0.0000 C   0  0  0  0  0  0  0  0  0  0  0  0
   -0.7500    1.2990    0.0000 C   0  0  0  0  0  0  0  0  0  0  0  0
   -1.5000    0.0000    0.0000 C   0  0  0  0  0  0  0  0  0  0  0  0
   -0.7500   -1.2990    0.0000 C   0  0  0  0  0  0  0  0  0  0  0  0
    2.9918   -2.7549    0.0000 N   0  0  0  0  0  0  0  0  0  0  0  0
    3.3037   -4.2221    0.0000 C   0  0  0  0  0  0  0  0  0  0  0  0
    4.6740   -4.8322    0.0000 C   0  0  0  0  0  0  0  0  0  0  0  0
    4.8308   -6.3240    0.0000 C   0  0  0  0  0  0  0  0  0  0  0  0
    6.2011   -6.9341    0.0000 C   0  0  0  0  0  0  0  0  0  0  0  0
    7.4146   -6.0524    0.0000 C   0  0  0  0  0  0  0  0  0  0  0  0
    7.2578   -4.5606    0.0000 C   0  0  0  0  0  0  0  0  0  0  0  0
    8.4713   -3.6789    0.0000 N   0  0  0  0  0  4  0  0  0  0  0  0
    8.3145   -2.1872    0.0000 O   0  0  0  0  0  0  0  0  0  0  0  0
    9.8417   -4.2890    0.0000 O   0  0  0  0  0  1  0  0  0  0  0  0
    5.8875   -3.9505    0.0000 C   0  0  0  0  0  0  0  0  0  0  0  0
    2.4922  -11.9429    0.0000 S   0  0  0  0  0  0  0  0  0  0  0  0
  1  2  1  0
  2  3  1  0
  3  4  1  0
  4  5  1  0
  5  6  2  0
  6  7  1  0
  7  8  2  0
  8  9  1  0
  9 10  2  0
 10 11  1  0
 10 12  1  0
 12 13  1  0
 13 14  3  0
 12 15  2  0
 15 16  1  0
 16 17  2  0
 17 18  1  0
 18 19  1  0
 19 20  2  0
 20 21  1  0
 21 22  2  0
 22 23  1  0
 23 24  2  0
 18 25  1  0
 25 26  2  0
 26 27  1  0
 27 28  2  0
 28 29  1  0
 29 30  2  0
 30 31  1  0
 31 32  1  0
 32 33  2  0
 32 34  1  0
 31 35  2  0
  8 36  1  0
 36  5  1  0
 26 16  1  0
 35 27  1  0
 24 19  1  0
M  CHG  3  11  -1  32   1  34  -1
M  END
>  <Compound_ID>  (591) 
C39998029

>  <Active>  (591) 
0

>  <Smiles>  (591) 
CCCSc1nnc(/N=C([O-])/C(C#N)=C/c2cn(-c3ccccc3)nc2-c2cccc([N+](=O)[O-])c2)s1

>  <canonical_smi>  (591) 
CCCSc1nnc(/N=C([O-])/C(C#N)=C/c2cn(-c3ccccc3)nc2-c2cccc([N+](=O)[O-])c2)s1

>  <Set>  (591) 
G2 inactive

>  <Set_type>  (591) 
Test

>  <MW>  (591) 
516.59

>  <HBD>  (591) 
0

>  <HBA>  (591) 
8

>  <NRB>  (591) 
9

>  <NR>  (591) 
4

>  <NAR>  (591) 
4

>  <PSA>  (591) 
145.95

>  <Standard Type>  (591) 
nan

>  <Standard Relation>  (591) 
nan

>  <Standard Units>  (591) 
nan

>  <Standard Value>  (591) 
nan

>  <Assay ChEMBL ID>  (591) 
nan

>  <Assay Description>  (591) 
nan

>  <BAO Label>  (591) 
nan

$$$$

     RDKit          2D

 27 29  0  0  0  0  0  0  0  0999 V2000
   -7.5000  -10.3923    0.0000 C   0  0  0  0  0  0  0  0  0  0  0  0
   -6.0000  -10.3923    0.0000 O   0  0  0  0  0  0  0  0  0  0  0  0
   -5.2500   -9.0933    0.0000 C   0  0  0  0  0  0  0  0  0  0  0  0
   -3.7500   -9.0933    0.0000 C   0  0  0  0  0  0  0  0  0  0  0  0
   -3.0000  -10.3923    0.0000 C   0  0  0  0  0  0  0  0  0  0  0  0
   -3.0000   -7.7942    0.0000 N   0  0  0  0  0  0  0  0  0  0  0  0
   -3.7500   -6.4952    0.0000 C   0  0  0  0  0  0  0  0  0  0  0  0
   -5.2500   -6.4952    0.0000 N   0  0  0  0  0  0  0  0  0  0  0  0
   -6.0000   -5.1962    0.0000 C   0  0  0  0  0  0  0  0  0  0  0  0
   -7.5000   -5.1962    0.0000 N   0  0  0  0  0  0  0  0  0  0  0  0
   -5.2500   -3.8971    0.0000 C   0  0  0  0  0  0  0  0  0  0  0  0
   -6.0000   -2.5981    0.0000 N   0  0  0  0  0  4  0  0  0  0  0  0
   -7.5000   -2.5981    0.0000 O   0  0  0  0  0  0  0  0  0  0  0  0
   -5.2500   -1.2990    0.0000 O   0  0  0  0  0  1  0  0  0  0  0  0
   -3.7500   -3.8971    0.0000 C   0  0  0  0  0  0  0  0  0  0  0  0
   -3.0000   -2.5981    0.0000 N   0  0  0  0  0  0  0  0  0  0  0  0
   -1.5000   -2.5981    0.0000 C   0  0  0  0  0  0  0  0  0  0  0  0
   -0.7500   -3.8971    0.0000 C   0  0  0  0  0  0  0  0  0  0  0  0
    0.7500   -3.8971    0.0000 C   0  0  0  0  0  0  0  0  0  0  0  0
    1.5000   -2.5981    0.0000 C   0  0  0  0  0  0  0  0  0  0  0  0
    0.7500   -1.2990    0.0000 C   0  0  0  0  0  0  0  0  0  0  0  0
    1.5000    0.0000    0.0000 C   0  0  0  0  0  0  0  0  0  0  0  0
    0.7500    1.2990    0.0000 C   0  0  0  0  0  0  0  0  0  0  0  0
   -0.7500    1.2990    0.0000 C   0  0  0  0  0  0  0  0  0  0  0  0
   -1.5000    0.0000    0.0000 N   0  0  0  0  0  0  0  0  0  0  0  0
   -0.7500   -1.2990    0.0000 C   0  0  0  0  0  0  0  0  0  0  0  0
   -3.0000   -5.1962    0.0000 N   0  0  0  0  0  0  0  0  0  0  0  0
  1  2  1  0
  2  3  1  0
  3  4  1  0
  4  5  1  6
  4  6  1  0
  6  7  1  0
  7  8  2  0
  8  9  1  0
  9 10  1  0
  9 11  2  0
 11 12  1  0
 12 13  2  0
 12 14  1  0
 11 15  1  0
 15 16  1  0
 16 17  1  0
 17 18  2  0
 18 19  1  0
 19 20  2  0
 20 21  1  0
 21 22  2  0
 22 23  1  0
 23 24  2  0
 24 25  1  0
 25 26  2  0
 15 27  2  0
 27  7  1  0
 26 17  1  0
 26 21  1  0
M  CHG  2  12   1  14  -1
M  END
>  <Compound_ID>  (592) 
C41334162

>  <Active>  (592) 
0

>  <Smiles>  (592) 
COC[C@@H](C)Nc1nc(N)c([N+](=O)[O-])c(Nc2cccc3cccnc23)n1

>  <canonical_smi>  (592) 
COC[C@@H](C)Nc1nc(N)c([N+](=O)[O-])c(Nc2cccc3cccnc23)n1

>  <Set>  (592) 
G2 inactive

>  <Set_type>  (592) 
Test

>  <MW>  (592) 
369.39

>  <HBD>  (592) 
3

>  <HBA>  (592) 
9

>  <NRB>  (592) 
7

>  <NR>  (592) 
3

>  <NAR>  (592) 
3

>  <PSA>  (592) 
141.12

>  <Standard Type>  (592) 
nan

>  <Standard Relation>  (592) 
nan

>  <Standard Units>  (592) 
nan

>  <Standard Value>  (592) 
nan

>  <Assay ChEMBL ID>  (592) 
nan

>  <Assay Description>  (592) 
nan

>  <BAO Label>  (592) 
nan

$$$$

     RDKit          2D

 26 27  0  0  0  0  0  0  0  0999 V2000
    3.0000    0.0000    0.0000 C   0  0  0  0  0  0  0  0  0  0  0  0
    1.5000    0.0000    0.0000 C   0  0  0  0  0  0  0  0  0  0  0  0
    0.7500   -1.2990    0.0000 C   0  0  0  0  0  0  0  0  0  0  0  0
   -0.7500   -1.2990    0.0000 C   0  0  0  0  0  0  0  0  0  0  0  0
   -1.5000    0.0000    0.0000 N   0  0  0  0  0  4  0  0  0  0  0  0
   -3.0000    0.0000    0.0000 C   0  0  0  0  0  0  0  0  0  0  0  0
   -3.7500   -1.2990    0.0000 C   0  0  0  0  0  0  0  0  0  0  0  0
   -5.2500   -1.2990    0.0000 N   0  0  0  0  0  0  0  0  0  0  0  0
   -6.0000   -2.5981    0.0000 C   0  0  0  0  0  0  0  0  0  0  0  0
   -5.2500   -3.8971    0.0000 O   0  0  0  0  0  0  0  0  0  0  0  0
   -7.5000   -2.5981    0.0000 N   0  0  0  0  0  0  0  0  0  0  0  0
   -8.2500   -3.8971    0.0000 N   0  0  0  0  0  0  0  0  0  0  0  0
   -9.7500   -3.8971    0.0000 C   0  0  0  0  0  0  0  0  0  0  0  0
  -10.5000   -2.5981    0.0000 O   0  0  0  0  0  0  0  0  0  0  0  0
  -10.5000   -5.1962    0.0000 C   0  0  0  0  0  0  0  0  0  0  0  0
   -9.8899   -6.5665    0.0000 C   0  0  0  0  0  0  0  0  0  0  0  0
  -11.0046   -7.5702    0.0000 C   0  0  0  0  0  0  0  0  0  0  0  0
  -12.3037   -6.8202    0.0000 S   0  0  0  0  0  0  0  0  0  0  0  0
  -12.9138   -8.1905    0.0000 O   0  0  0  0  0  0  0  0  0  0  0  0
  -13.7302   -6.3566    0.0000 O   0  0  0  0  0  0  0  0  0  0  0  0
  -11.9918   -5.3529    0.0000 C   0  0  0  0  0  0  0  0  0  0  0  0
   -3.7500    1.2990    0.0000 C   0  0  0  0  0  0  0  0  0  0  0  0
   -5.2500    1.2990    0.0000 C   0  0  0  0  0  0  0  0  0  0  0  0
   -3.0000    2.5981    0.0000 C   0  0  0  0  0  0  0  0  0  0  0  0
   -0.7500    1.2990    0.0000 C   0  0  0  0  0  0  0  0  0  0  0  0
    0.7500    1.2990    0.0000 C   0  0  0  0  0  0  0  0  0  0  0  0
  1  2  1  0
  2  3  1  0
  3  4  1  0
  4  5  1  0
  5  6  1  0
  6  7  1  1
  7  8  1  0
  8  9  1  0
  9 10  2  0
  9 11  1  0
 11 12  1  0
 12 13  1  0
 13 14  2  0
 15 13  1  6
 15 16  1  0
 16 17  1  0
 17 18  1  0
 18 19  2  0
 18 20  2  0
 18 21  1  0
  6 22  1  0
 22 23  1  0
 22 24  1  0
  5 25  1  0
 25 26  1  0
 26  2  1  0
 21 15  1  0
M  CHG  1   5   1
M  END
>  <Compound_ID>  (593) 
C46254876

>  <Active>  (593) 
0

>  <Smiles>  (593) 
CC1CC[NH+]([C@@H](CNC(=O)NNC(=O)[C@@H]2CCS(=O)(=O)C2)C(C)C)CC1

>  <canonical_smi>  (593) 
CC1CC[NH+]([C@@H](CNC(=O)NNC(=O)[C@@H]2CCS(=O)(=O)C2)C(C)C)CC1

>  <Set>  (593) 
G2 inactive

>  <Set_type>  (593) 
Test

>  <MW>  (593) 
389.54

>  <HBD>  (593) 
4

>  <HBA>  (593) 
4

>  <NRB>  (593) 
5

>  <NR>  (593) 
2

>  <NAR>  (593) 
0

>  <PSA>  (593) 
108.81

>  <Standard Type>  (593) 
nan

>  <Standard Relation>  (593) 
nan

>  <Standard Units>  (593) 
nan

>  <Standard Value>  (593) 
nan

>  <Assay ChEMBL ID>  (593) 
nan

>  <Assay Description>  (593) 
nan

>  <BAO Label>  (593) 
nan

$$$$

     RDKit          2D

 29 31  0  0  0  0  0  0  0  0999 V2000
    6.3650   -5.7215    0.0000 C   0  0  0  0  0  0  0  0  0  0  0  0
    6.5218   -4.2298    0.0000 C   0  0  0  0  0  0  0  0  0  0  0  0
    5.3083   -3.3481    0.0000 N   0  0  0  0  0  0  0  0  0  0  0  0
    3.8817   -3.8116    0.0000 C   0  0  0  0  0  0  0  0  0  0  0  0
    3.4182   -5.2382    0.0000 O   0  0  0  0  0  0  0  0  0  0  0  0
    3.0000   -2.5981    0.0000 C   0  0  0  0  0  0  0  0  0  0  0  0
    1.5000   -2.5981    0.0000 C   0  0  0  0  0  0  0  0  0  0  0  0
    0.7500   -1.2990    0.0000 C   0  0  0  0  0  0  0  0  0  0  0  0
    1.5000    0.0000    0.0000 C   0  0  0  0  0  0  0  0  0  0  0  0
    0.7500    1.2990    0.0000 C   0  0  0  0  0  0  0  0  0  0  0  0
   -0.7500    1.2990    0.0000 C   0  0  0  0  0  0  0  0  0  0  0  0
   -1.5000    2.5981    0.0000 O   0  0  0  0  0  0  0  0  0  0  0  0
   -1.5000    0.0000    0.0000 C   0  0  0  0  0  0  0  0  0  0  0  0
   -3.0000    0.0000    0.0000 O   0  0  0  0  0  0  0  0  0  0  0  0
   -3.7500   -1.2990    0.0000 C   0  0  0  0  0  0  0  0  0  0  0  0
   -0.7500   -1.2990    0.0000 C   0  0  0  0  0  0  0  0  0  0  0  0
    3.8817   -1.3846    0.0000 S   0  0  0  0  0  0  0  0  0  0  0  0
    5.3083   -1.8481    0.0000 C   0  0  0  0  0  0  0  0  0  0  0  0
    6.5218   -0.9664    0.0000 N   0  0  0  0  0  0  0  0  0  0  0  0
    6.3650    0.5254    0.0000 C   0  0  0  0  0  0  0  0  0  0  0  0
    7.5785    1.4071    0.0000 C   0  0  0  0  0  0  0  0  0  0  0  0
    7.4217    2.8988    0.0000 C   0  0  0  0  0  0  0  0  0  0  0  0
    6.0514    3.5090    0.0000 C   0  0  0  0  0  0  0  0  0  0  0  0
    5.8946    5.0007    0.0000 C   0  0  0  0  0  0  0  0  0  0  0  0
    4.5243    5.6108    0.0000 O   0  0  0  0  0  0  0  0  0  0  0  0
    7.1081    5.8824    0.0000 O   0  0  0  0  0  1  0  0  0  0  0  0
    4.8379    2.6273    0.0000 C   0  0  0  0  0  0  0  0  0  0  0  0
    3.4676    3.2374    0.0000 O   0  0  0  0  0  0  0  0  0  0  0  0
    4.9947    1.1355    0.0000 C   0  0  0  0  0  0  0  0  0  0  0  0
  1  2  1  0
  2  3  1  0
  3  4  1  0
  4  5  2  0
  4  6  1  0
  6  7  2  0
  7  8  1  0
  8  9  2  0
  9 10  1  0
 10 11  2  0
 11 12  1  0
 11 13  1  0
 13 14  1  0
 14 15  1  0
 13 16  2  0
  6 17  1  0
 17 18  1  0
 18 19  2  0
 19 20  1  0
 20 21  2  0
 21 22  1  0
 22 23  2  0
 23 24  1  0
 24 25  2  0
 24 26  1  0
 23 27  1  0
 27 28  1  0
 27 29  2  0
 18  3  1  0
 29 20  1  0
 16  8  1  0
M  CHG  1  26  -1
M  END
>  <Compound_ID>  (594) 
C16928031

>  <Active>  (594) 
0

>  <Smiles>  (594) 
CCN1C(=O)/C(=C/c2ccc(O)c(OC)c2)S/C1=N\c1ccc(C(=O)[O-])c(O)c1

>  <canonical_smi>  (594) 
CCN1C(=O)/C(=C/c2ccc(O)c(OC)c2)S/C1=N\c1ccc(C(=O)[O-])c(O)c1

>  <Set>  (594) 
G2 inactive

>  <Set_type>  (594) 
Test

>  <MW>  (594) 
413.43

>  <HBD>  (594) 
2

>  <HBA>  (594) 
7

>  <NRB>  (594) 
5

>  <NR>  (594) 
3

>  <NAR>  (594) 
2

>  <PSA>  (594) 
122.49

>  <Standard Type>  (594) 
nan

>  <Standard Relation>  (594) 
nan

>  <Standard Units>  (594) 
nan

>  <Standard Value>  (594) 
nan

>  <Assay ChEMBL ID>  (594) 
nan

>  <Assay Description>  (594) 
nan

>  <BAO Label>  (594) 
nan

$$$$

     RDKit          2D

 21 22  0  0  0  0  0  0  0  0999 V2000
    3.0000    0.0000    0.0000 C   0  0  0  0  0  0  0  0  0  0  0  0
    1.5000    0.0000    0.0000 C   0  0  0  0  0  0  0  0  0  0  0  0
    0.7500   -1.2990    0.0000 C   0  0  0  0  0  0  0  0  0  0  0  0
   -0.7500   -1.2990    0.0000 C   0  0  0  0  0  0  0  0  0  0  0  0
   -1.5000   -2.5981    0.0000 C   0  0  0  0  0  0  0  0  0  0  0  0
   -1.5000    0.0000    0.0000 C   0  0  0  0  0  0  0  0  0  0  0  0
   -0.7500    1.2990    0.0000 C   0  0  0  0  0  0  0  0  0  0  0  0
   -1.5000    2.5981    0.0000 C   0  0  0  0  0  0  0  0  0  0  0  0
   -3.0000    2.5981    0.0000 O   0  0  0  0  0  0  0  0  0  0  0  0
   -0.7500    3.8971    0.0000 N   0  0  0  0  0  0  0  0  0  0  0  0
   -1.5000    5.1962    0.0000 C   0  0  0  0  0  0  0  0  0  0  0  0
   -0.7500    6.4952    0.0000 C   0  0  0  0  0  0  0  0  0  0  0  0
   -1.5000    7.7942    0.0000 C   0  0  0  0  0  0  0  0  0  0  0  0
   -0.7500    9.0933    0.0000 O   0  0  0  0  0  0  0  0  0  0  0  0
   -3.0000    7.7942    0.0000 N   0  0  0  0  0  0  0  0  0  0  0  0
   -3.7500    9.0933    0.0000 C   0  0  0  0  0  0  0  0  0  0  0  0
   -3.7500    6.4952    0.0000 C   0  0  0  0  0  0  0  0  0  0  0  0
   -5.2500    6.4952    0.0000 O   0  0  0  0  0  0  0  0  0  0  0  0
   -3.0000    5.1962    0.0000 N   0  0  0  0  0  0  0  0  0  0  0  0
   -3.7500    3.8971    0.0000 C   0  0  0  0  0  0  0  0  0  0  0  0
    0.7500    1.2990    0.0000 C   0  0  0  0  0  0  0  0  0  0  0  0
  1  2  1  0
  2  3  2  0
  3  4  1  0
  4  5  1  0
  4  6  2  0
  6  7  1  0
  7  8  1  0
  8  9  2  0
  8 10  1  0
 10 11  1  0
 11 12  2  0
 12 13  1  0
 13 14  2  0
 13 15  1  0
 15 16  1  0
 15 17  1  0
 17 18  2  0
 17 19  1  0
 19 20  1  0
  7 21  2  0
 21  2  1  0
 19 11  1  0
M  END
>  <Compound_ID>  (595) 
C02711236

>  <Active>  (595) 
0

>  <Smiles>  (595) 
Cc1cc(C)cc(C(=O)Nc2cc(=O)n(C)c(=O)n2C)c1

>  <canonical_smi>  (595) 
Cc1cc(C)cc(C(=O)Nc2cc(=O)n(C)c(=O)n2C)c1

>  <Set>  (595) 
G2 inactive

>  <Set_type>  (595) 
Test

>  <MW>  (595) 
287.32

>  <HBD>  (595) 
1

>  <HBA>  (595) 
3

>  <NRB>  (595) 
2

>  <NR>  (595) 
2

>  <NAR>  (595) 
2

>  <PSA>  (595) 
73.1

>  <Standard Type>  (595) 
nan

>  <Standard Relation>  (595) 
nan

>  <Standard Units>  (595) 
nan

>  <Standard Value>  (595) 
nan

>  <Assay ChEMBL ID>  (595) 
nan

>  <Assay Description>  (595) 
nan

>  <BAO Label>  (595) 
nan

$$$$

     RDKit          2D

 20 21  0  0  0  0  0  0  0  0999 V2000
    0.7500   -6.4952    0.0000 C   0  0  0  0  0  0  0  0  0  0  0  0
    1.5000   -5.1962    0.0000 C   0  0  0  0  0  0  0  0  0  0  0  0
    0.7500   -3.8971    0.0000 C   0  0  0  0  0  0  0  0  0  0  0  0
    1.5000   -2.5981    0.0000 N   0  0  0  0  0  0  0  0  0  0  0  0
    0.7500   -1.2990    0.0000 C   0  0  0  0  0  0  0  0  0  0  0  0
    1.5000    0.0000    0.0000 C   0  0  0  0  0  0  0  0  0  0  0  0
    0.7500    1.2990    0.0000 C   0  0  0  0  0  0  0  0  0  0  0  0
    1.5000    2.5981    0.0000 O   0  0  0  0  0  0  0  0  0  0  0  0
    3.0000    2.5981    0.0000 C   0  0  0  0  0  0  0  0  0  0  0  0
   -0.7500    1.2990    0.0000 C   0  0  0  0  0  0  0  0  0  0  0  0
   -1.5000    2.5981    0.0000 O   0  0  0  0  0  0  0  0  0  0  0  0
   -3.0000    2.5981    0.0000 C   0  0  0  0  0  0  0  0  0  0  0  0
   -1.5000    0.0000    0.0000 C   0  0  0  0  0  0  0  0  0  0  0  0
   -0.7500   -1.2990    0.0000 C   0  0  0  0  0  0  0  0  0  0  0  0
   -1.5000   -2.5981    0.0000 N   0  0  0  0  0  0  0  0  0  0  0  0
   -3.0000   -2.5981    0.0000 C   0  0  0  0  0  0  0  0  0  0  0  0
   -3.7500   -1.2990    0.0000 C   0  0  0  0  0  0  0  0  0  0  0  0
   -4.5000    0.0000    0.0000 N   0  0  0  0  0  0  0  0  0  0  0  0
   -0.7500   -3.8971    0.0000 C   0  0  0  0  0  0  0  0  0  0  0  0
   -1.5000   -5.1962    0.0000 O   0  0  0  0  0  0  0  0  0  0  0  0
  1  2  1  0
  3  2  1  6
  3  4  1  0
  4  5  1  0
  5  6  2  0
  6  7  1  0
  7  8  1  0
  8  9  1  0
  7 10  2  0
 10 11  1  0
 11 12  1  0
 10 13  1  0
 13 14  2  0
 14 15  1  0
 15 16  1  0
 16 17  1  0
 17 18  3  0
 15 19  1  0
 19 20  2  0
 19  3  1  0
 14  5  1  0
M  END
>  <Compound_ID>  (596) 
C57932329

>  <Active>  (596) 
0

>  <Smiles>  (596) 
CC[C@H]1Nc2cc(OC)c(OC)cc2N(CC#N)C1=O

>  <canonical_smi>  (596) 
CC[C@H]1Nc2cc(OC)c(OC)cc2N(CC#N)C1=O

>  <Set>  (596) 
G2 inactive

>  <Set_type>  (596) 
Test

>  <MW>  (596) 
275.31

>  <HBD>  (596) 
1

>  <HBA>  (596) 
5

>  <NRB>  (596) 
4

>  <NR>  (596) 
2

>  <NAR>  (596) 
1

>  <PSA>  (596) 
74.59

>  <Standard Type>  (596) 
nan

>  <Standard Relation>  (596) 
nan

>  <Standard Units>  (596) 
nan

>  <Standard Value>  (596) 
nan

>  <Assay ChEMBL ID>  (596) 
nan

>  <Assay Description>  (596) 
nan

>  <BAO Label>  (596) 
nan

$$$$

     RDKit          2D

 21 25  0  0  0  0  0  0  0  0999 V2000
    0.8050    6.0661    0.0000 C   0  0  0  0  0  0  0  0  0  0  0  0
   -0.4086    5.1844    0.0000 C   0  0  0  0  0  0  0  0  0  0  0  0
   -1.8351    5.6480    0.0000 N   0  0  0  0  0  0  0  0  0  0  0  0
   -2.7168    4.4344    0.0000 O   0  0  0  0  0  0  0  0  0  0  0  0
   -1.8351    3.2209    0.0000 C   0  0  0  0  0  0  0  0  0  0  0  0
   -2.1470    1.7537    0.0000 N   0  0  0  0  0  0  0  0  0  0  0  0
   -1.0323    0.7500    0.0000 C   0  0  0  0  0  0  0  0  0  0  0  0
    0.3943    1.2135    0.0000 C   0  0  0  0  0  0  0  0  0  0  0  0
    0.7062    2.6807    0.0000 C   0  0  0  0  0  0  0  0  0  0  0  0
    2.1328    3.1443    0.0000 C   0  0  0  0  0  0  0  0  0  0  0  0
    2.5963    4.5709    0.0000 N   0  0  0  0  0  0  0  0  0  0  0  0
    4.0963    4.5709    0.0000 C   0  0  0  0  0  0  0  0  0  0  0  0
    4.9780    5.7844    0.0000 C   0  0  0  0  0  0  0  0  0  0  0  0
    5.1347    7.2762    0.0000 C   0  0  0  0  0  0  0  0  0  0  0  0
    6.3483    6.3945    0.0000 C   0  0  0  0  0  0  0  0  0  0  0  0
    4.5598    3.1443    0.0000 N   0  0  0  0  0  0  0  0  0  0  0  0
    3.3463    2.2626    0.0000 N   0  0  0  0  0  0  0  0  0  0  0  0
   -0.4086    3.6844    0.0000 C   0  0  0  0  0  0  0  0  0  0  0  0
    1.2760    0.0000    0.0000 C   0  0  0  0  0  0  0  0  0  0  0  0
    0.3943   -1.2135    0.0000 C   0  0  0  0  0  0  0  0  0  0  0  0
   -1.0323   -0.7500    0.0000 C   0  0  0  0  0  0  0  0  0  0  0  0
  1  2  1  0
  2  3  2  0
  3  4  1  0
  4  5  1  0
  5  6  2  0
  6  7  1  0
  7  8  2  0
  8  9  1  0
  9 10  1  0
 10 11  2  0
 11 12  1  0
 12 13  1  0
 13 14  1  0
 14 15  1  0
 12 16  2  0
 16 17  1  0
  9 18  2  0
  8 19  1  0
 19 20  1  0
 20 21  1  0
 18  2  1  0
 18  5  1  0
 21  7  1  0
 17 10  1  0
 15 13  1  0
M  END
>  <Compound_ID>  (597) 
C65495255

>  <Active>  (597) 
0

>  <Smiles>  (597) 
Cc1noc2nc3c(c(-c4nc(C5CC5)n[nH]4)c12)CCC3

>  <canonical_smi>  (597) 
Cc1noc2nc3c(c(-c4nc(C5CC5)n[nH]4)c12)CCC3

>  <Set>  (597) 
G2 inactive

>  <Set_type>  (597) 
Test

>  <MW>  (597) 
281.32

>  <HBD>  (597) 
1

>  <HBA>  (597) 
5

>  <NRB>  (597) 
2

>  <NR>  (597) 
5

>  <NAR>  (597) 
3

>  <PSA>  (597) 
80.49

>  <Standard Type>  (597) 
nan

>  <Standard Relation>  (597) 
nan

>  <Standard Units>  (597) 
nan

>  <Standard Value>  (597) 
nan

>  <Assay ChEMBL ID>  (597) 
nan

>  <Assay Description>  (597) 
nan

>  <BAO Label>  (597) 
nan

$$$$

     RDKit          2D

 22 23  0  0  0  0  0  0  0  0999 V2000
    3.7500   -3.8971    0.0000 C   0  0  0  0  0  0  0  0  0  0  0  0
    3.0000   -2.5981    0.0000 C   0  0  0  0  0  0  0  0  0  0  0  0
    1.5000   -2.5981    0.0000 C   0  0  0  0  0  0  0  0  0  0  0  0
    0.7500   -1.2990    0.0000 C   0  0  0  0  0  0  0  0  0  0  0  0
    1.5000    0.0000    0.0000 C   0  0  0  0  0  0  0  0  0  0  0  0
    0.7500    1.2990    0.0000 C   0  0  0  0  0  0  0  0  0  0  0  0
   -0.7500    1.2990    0.0000 C   0  0  0  0  0  0  0  0  0  0  0  0
   -1.5000    0.0000    0.0000 C   0  0  0  0  0  0  0  0  0  0  0  0
   -0.7500   -1.2990    0.0000 C   0  0  0  0  0  0  0  0  0  0  0  0
    3.7500   -1.2990    0.0000 C   0  0  0  0  0  0  0  0  0  0  0  0
    5.2500   -1.2990    0.0000 N   0  0  0  0  0  0  0  0  0  0  0  0
    6.0000   -0.0000    0.0000 N   0  0  0  0  0  0  0  0  0  0  0  0
    7.5000   -0.0000    0.0000 C   0  0  0  0  0  0  0  0  0  0  0  0
    5.2500    1.2990    0.0000 C   0  0  0  0  0  0  0  0  0  0  0  0
    6.0000    2.5981    0.0000 C   0  0  0  0  0  0  0  0  0  0  0  0
    5.2500    3.8971    0.0000 C   0  0  0  0  0  0  0  0  0  0  0  0
    6.0000    5.1962    0.0000 O   0  0  0  0  0  0  0  0  0  0  0  0
    3.7500    3.8971    0.0000 N   0  0  0  0  0  0  0  0  0  0  0  0
    3.0000    5.1962    0.0000 C   0  0  0  0  0  0  0  0  0  0  0  0
    3.0000    2.5981    0.0000 C   0  0  0  0  0  0  0  0  0  0  0  0
    1.5000    2.5981    0.0000 O   0  0  0  0  0  0  0  0  0  0  0  0
    3.7500    1.2990    0.0000 N   0  0  0  0  0  0  0  0  0  0  0  0
  1  2  1  0
  2  3  2  0
  3  4  1  0
  4  5  2  0
  5  6  1  0
  6  7  2  0
  7  8  1  0
  8  9  2  0
  2 10  1  0
 10 11  2  0
 11 12  1  0
 12 13  1  0
 12 14  1  0
 14 15  2  0
 15 16  1  0
 16 17  2  0
 16 18  1  0
 18 19  1  0
 18 20  1  0
 20 21  2  0
 20 22  1  0
  9  4  1  0
 22 14  1  0
M  END
>  <Compound_ID>  (598) 
C04703181

>  <Active>  (598) 
0

>  <Smiles>  (598) 
CC(=C/c1ccccc1)/C=N/N(C)c1cc(=O)n(C)c(=O)[nH]1

>  <canonical_smi>  (598) 
CC(=C/c1ccccc1)/C=N/N(C)c1cc(=O)n(C)c(=O)[nH]1

>  <Set>  (598) 
G2 inactive

>  <Set_type>  (598) 
Test

>  <MW>  (598) 
298.35

>  <HBD>  (598) 
1

>  <HBA>  (598) 
3

>  <NRB>  (598) 
4

>  <NR>  (598) 
2

>  <NAR>  (598) 
2

>  <PSA>  (598) 
70.46

>  <Standard Type>  (598) 
nan

>  <Standard Relation>  (598) 
nan

>  <Standard Units>  (598) 
nan

>  <Standard Value>  (598) 
nan

>  <Assay ChEMBL ID>  (598) 
nan

>  <Assay Description>  (598) 
nan

>  <BAO Label>  (598) 
nan

$$$$

     RDKit          2D

 32 35  0  0  0  0  0  0  0  0999 V2000
    3.7156    7.2317    0.0000 C   0  0  0  0  0  0  0  0  0  0  0  0
    2.2484    6.9199    0.0000 C   0  0  0  0  0  0  0  0  0  0  0  0
    1.2447    8.0346    0.0000 C   0  0  0  0  0  0  0  0  0  0  0  0
    1.7849    5.4933    0.0000 C   0  0  0  0  0  0  0  0  0  0  0  0
    2.7886    4.3786    0.0000 C   0  0  0  0  0  0  0  0  0  0  0  0
    2.3250    2.9520    0.0000 C   0  0  0  0  0  0  0  0  0  0  0  0
    0.8578    2.6401    0.0000 C   0  0  0  0  0  0  0  0  0  0  0  0
    0.3943    1.2135    0.0000 N   0  0  0  0  0  0  0  0  0  0  0  0
    1.2760    0.0000    0.0000 C   0  0  0  0  0  0  0  0  0  0  0  0
    2.7760    0.0000    0.0000 S   0  0  0  0  0  0  0  0  0  0  0  0
    0.3943   -1.2135    0.0000 N   0  0  0  0  0  0  0  0  0  0  0  0
   -1.0323   -0.7500    0.0000 C   0  0  0  0  0  0  0  0  0  0  0  0
   -2.3313   -1.5000    0.0000 C   0  0  0  0  0  0  0  0  0  0  0  0
   -2.3313   -3.0000    0.0000 O   0  0  0  0  0  0  0  0  0  0  0  0
   -3.6304   -0.7500    0.0000 C   0  0  0  0  0  0  0  0  0  0  0  0
   -4.9294   -1.5000    0.0000 O   0  0  0  0  0  0  0  0  0  0  0  0
   -3.6304    0.7500    0.0000 C   0  0  0  0  0  0  0  0  0  0  0  0
   -2.3313    1.5000    0.0000 C   0  0  0  0  0  0  0  0  0  0  0  0
   -2.3313    3.0000    0.0000 C   0  0  0  0  0  0  0  0  0  0  0  0
   -1.0323    3.7500    0.0000 O   0  0  0  0  0  0  0  0  0  0  0  0
   -3.6304    3.7500    0.0000 N   0  0  0  0  0  0  0  0  0  0  0  0
   -3.6304    5.2500    0.0000 C   0  0  0  0  0  0  0  0  0  0  0  0
   -4.9294    6.0000    0.0000 C   0  0  0  0  0  0  0  0  0  0  0  0
   -4.9294    7.5000    0.0000 N   0  0  0  0  0  0  0  0  0  0  0  0
   -3.6304    8.2500    0.0000 C   0  0  0  0  0  0  0  0  0  0  0  0
   -3.6304    9.7500    0.0000 C   0  0  0  0  0  0  0  0  0  0  0  0
   -4.9294   10.5000    0.0000 O   0  0  0  0  0  0  0  0  0  0  0  0
   -6.2284    9.7500    0.0000 C   0  0  0  0  0  0  0  0  0  0  0  0
   -6.2284    8.2500    0.0000 C   0  0  0  0  0  0  0  0  0  0  0  0
   -1.0323    0.7500    0.0000 C   0  0  0  0  0  0  0  0  0  0  0  0
   -0.1459    3.7548    0.0000 C   0  0  0  0  0  0  0  0  0  0  0  0
    0.3177    5.1814    0.0000 C   0  0  0  0  0  0  0  0  0  0  0  0
  1  2  1  0
  2  3  1  0
  2  4  1  0
  4  5  2  0
  5  6  1  0
  6  7  2  0
  7  8  1  0
  8  9  1  0
  9 10  2  0
  9 11  1  0
 12 11  1  1
 12 13  1  0
 13 14  1  1
 13 15  1  0
 15 16  1  6
 15 17  1  0
 17 18  1  0
 18 19  1  1
 19 20  2  0
 19 21  1  0
 21 22  1  0
 22 23  1  0
 23 24  1  0
 24 25  1  0
 25 26  1  0
 26 27  1  0
 27 28  1  0
 28 29  1  0
 18 30  1  0
  7 31  1  0
 31 32  2  0
 32  4  1  0
 30  8  1  1
 30 12  1  0
 29 24  1  0
M  END
>  <Compound_ID>  (599) 
C20504112

>  <Active>  (599) 
0

>  <Smiles>  (599) 
CC(C)c1ccc(N2C(=S)N[C@H]3[C@@H](O)[C@H](O)C[C@@H](C(=O)NCCN4CCOCC4)[C@H]32)cc1

>  <canonical_smi>  (599) 
CC(C)c1ccc(N2C(=S)N[C@H]3[C@@H](O)[C@H](O)C[C@@H](C(=O)NCCN4CCOCC4)[C@H]32)cc1

>  <Set>  (599) 
G2 inactive

>  <Set_type>  (599) 
Test

>  <MW>  (599) 
462.62

>  <HBD>  (599) 
4

>  <HBA>  (599) 
8

>  <NRB>  (599) 
6

>  <NR>  (599) 
4

>  <NAR>  (599) 
1

>  <PSA>  (599) 
97.3

>  <Standard Type>  (599) 
nan

>  <Standard Relation>  (599) 
nan

>  <Standard Units>  (599) 
nan

>  <Standard Value>  (599) 
nan

>  <Assay ChEMBL ID>  (599) 
nan

>  <Assay Description>  (599) 
nan

>  <BAO Label>  (599) 
nan

$$$$

     RDKit          2D

 24 26  0  0  0  0  0  0  0  0999 V2000
    5.1443   -9.3075    0.0000 O   0  0  0  0  0  0  0  0  0  0  0  0
    3.7740   -8.6974    0.0000 C   0  0  0  0  0  0  0  0  0  0  0  0
    3.6172   -7.2057    0.0000 N   0  0  0  0  0  0  0  0  0  0  0  0
    4.8308   -6.3240    0.0000 N   0  0  0  0  0  0  0  0  0  0  0  0
    4.6740   -4.8322    0.0000 C   0  0  0  0  0  0  0  0  0  0  0  0
    3.3037   -4.2221    0.0000 C   0  0  0  0  0  0  0  0  0  0  0  0
    2.0046   -4.9721    0.0000 C   0  0  0  0  0  0  0  0  0  0  0  0
    0.8899   -3.9684    0.0000 C   0  0  0  0  0  0  0  0  0  0  0  0
    1.5000   -2.5981    0.0000 C   0  0  0  0  0  0  0  0  0  0  0  0
    0.7500   -1.2990    0.0000 C   0  0  0  0  0  0  0  0  0  0  0  0
    1.5000    0.0000    0.0000 C   0  0  0  0  0  0  0  0  0  0  0  0
    0.7500    1.2990    0.0000 C   0  0  0  0  0  0  0  0  0  0  0  0
   -0.7500    1.2990    0.0000 C   0  0  0  0  0  0  0  0  0  0  0  0
   -1.5000    0.0000    0.0000 C   0  0  0  0  0  0  0  0  0  0  0  0
   -3.0000    0.0000    0.0000 Cl  0  0  0  0  0  0  0  0  0  0  0  0
   -0.7500   -1.2990    0.0000 C   0  0  0  0  0  0  0  0  0  0  0  0
   -1.5000   -2.5981    0.0000 Cl  0  0  0  0  0  0  0  0  0  0  0  0
    2.9918   -2.7549    0.0000 O   0  0  0  0  0  0  0  0  0  0  0  0
    2.5605   -9.5791    0.0000 C   0  0  0  0  0  0  0  0  0  0  0  0
    1.1902   -8.9690    0.0000 C   0  0  0  0  0  0  0  0  0  0  0  0
   -0.0233   -9.8507    0.0000 N   0  0  0  0  0  0  0  0  0  0  0  0
    0.1335  -11.3425    0.0000 C   0  0  0  0  0  0  0  0  0  0  0  0
    1.5038  -11.9526    0.0000 C   0  0  0  0  0  0  0  0  0  0  0  0
    2.7173  -11.0709    0.0000 N   0  0  0  0  0  0  0  0  0  0  0  0
  1  2  2  0
  2  3  1  0
  3  4  1  0
  4  5  2  0
  5  6  1  0
  6  7  2  0
  7  8  1  0
  8  9  2  0
  9 10  1  0
 10 11  2  0
 11 12  1  0
 12 13  2  0
 13 14  1  0
 14 15  1  0
 14 16  2  0
 16 17  1  0
  9 18  1  0
  2 19  1  0
 19 20  2  0
 20 21  1  0
 21 22  2  0
 22 23  1  0
 23 24  2  0
 18  6  1  0
 24 19  1  0
 16 10  1  0
M  END
>  <Compound_ID>  (600) 
C67194087

>  <Active>  (600) 
0

>  <Smiles>  (600) 
O=C(N/N=C\c1ccc(-c2cccc(Cl)c2Cl)o1)c1cnccn1

>  <canonical_smi>  (600) 
O=C(N/N=C\c1ccc(-c2cccc(Cl)c2Cl)o1)c1cnccn1

>  <Set>  (600) 
G2 inactive

>  <Set_type>  (600) 
Test

>  <MW>  (600) 
361.19

>  <HBD>  (600) 
1

>  <HBA>  (600) 
4

>  <NRB>  (600) 
4

>  <NR>  (600) 
3

>  <NAR>  (600) 
3

>  <PSA>  (600) 
80.38

>  <Standard Type>  (600) 
nan

>  <Standard Relation>  (600) 
nan

>  <Standard Units>  (600) 
nan

>  <Standard Value>  (600) 
nan

>  <Assay ChEMBL ID>  (600) 
nan

>  <Assay Description>  (600) 
nan

>  <BAO Label>  (600) 
nan

$$$$

     RDKit          2D

 19 20  0  0  0  0  0  0  0  0999 V2000
    1.5000  -10.3923    0.0000 C   0  0  0  0  0  0  0  0  0  0  0  0
    0.7500   -9.0933    0.0000 C   0  0  0  0  0  0  0  0  0  0  0  0
   -0.7500   -9.0933    0.0000 C   0  0  0  0  0  0  0  0  0  0  0  0
    1.5000   -7.7942    0.0000 C   0  0  0  0  0  0  0  0  0  0  0  0
    0.7500   -6.4952    0.0000 C   0  0  0  0  0  0  0  0  0  0  0  0
    1.5000   -5.1962    0.0000 N   0  0  0  0  0  0  0  0  0  0  0  0
    3.0000   -5.1962    0.0000 C   0  0  0  0  0  0  0  0  0  0  0  0
    0.7500   -3.8971    0.0000 C   0  0  0  0  0  0  0  0  0  0  0  0
    1.5000   -2.5981    0.0000 C   0  0  0  0  0  0  0  0  0  0  0  0
    0.7500   -1.2990    0.0000 C   0  0  0  0  0  0  0  0  0  0  0  0
    1.5000    0.0000    0.0000 N   0  0  0  0  0  0  0  0  0  0  0  0
    0.7500    1.2990    0.0000 C   0  0  0  0  0  0  0  0  0  0  0  0
   -0.7500    1.2990    0.0000 N   0  0  0  0  0  0  0  0  0  0  0  0
   -1.5000    0.0000    0.0000 C   0  0  0  0  0  0  0  0  0  0  0  0
   -3.0000    0.0000    0.0000 O   0  0  0  0  0  0  0  0  0  0  0  0
   -0.7500   -1.2990    0.0000 C   0  0  0  0  0  0  0  0  0  0  0  0
   -1.5000   -2.5981    0.0000 C   0  0  0  0  0  0  0  0  0  0  0  0
   -0.7500   -3.8971    0.0000 C   0  0  0  0  0  0  0  0  0  0  0  0
   -1.5000   -5.1962    0.0000 N   0  0  0  0  0  0  0  0  0  0  0  0
  1  2  1  0
  2  3  1  0
  2  4  1  0
  4  5  1  0
  5  6  1  0
  6  7  1  0
  6  8  1  0
  8  9  2  0
  9 10  1  0
 10 11  1  0
 11 12  2  0
 12 13  1  0
 13 14  1  0
 14 15  2  0
 14 16  1  0
 16 17  1  0
 17 18  2  0
 18 19  1  0
 18  8  1  0
 16 10  2  0
M  END
>  <Compound_ID>  (601) 
C48923282

>  <Active>  (601) 
0

>  <Smiles>  (601) 
CC(C)CCN(C)c1cc2nc[nH]c(=O)c2cc1N

>  <canonical_smi>  (601) 
CC(C)CCN(C)c1cc2nc[nH]c(=O)c2cc1N

>  <Set>  (601) 
G2 inactive

>  <Set_type>  (601) 
Test

>  <MW>  (601) 
260.34

>  <HBD>  (601) 
2

>  <HBA>  (601) 
4

>  <NRB>  (601) 
4

>  <NR>  (601) 
2

>  <NAR>  (601) 
2

>  <PSA>  (601) 
75.01

>  <Standard Type>  (601) 
nan

>  <Standard Relation>  (601) 
nan

>  <Standard Units>  (601) 
nan

>  <Standard Value>  (601) 
nan

>  <Assay ChEMBL ID>  (601) 
nan

>  <Assay Description>  (601) 
nan

>  <BAO Label>  (601) 
nan

$$$$

     RDKit          2D

 19 20  0  0  0  0  0  0  0  0999 V2000
    5.2500   -1.2990    0.0000 C   0  0  0  0  0  0  0  0  0  0  0  0
    3.7500   -1.2990    0.0000 C   0  0  0  0  0  0  0  0  0  0  0  0
    3.0000    0.0000    0.0000 C   0  0  0  0  0  0  0  0  0  0  0  0
    1.5000    0.0000    0.0000 C   0  0  0  0  0  0  0  0  0  0  0  0
    0.7500   -1.2990    0.0000 C   0  0  0  0  0  0  0  0  0  0  0  0
    1.5000   -2.5981    0.0000 C   0  0  0  0  0  0  0  0  0  0  0  0
   -0.7500   -1.2990    0.0000 N   0  0  0  0  0  0  0  0  0  0  0  0
   -1.5000    0.0000    0.0000 C   0  0  0  0  0  0  0  0  0  0  0  0
   -3.0000    0.0000    0.0000 N   0  0  0  0  0  0  0  0  0  0  0  0
   -3.7500    1.2990    0.0000 C   0  0  0  0  0  0  0  0  0  0  0  0
   -3.0000    2.5981    0.0000 C   0  0  0  0  0  0  0  0  0  0  0  0
   -3.7500    3.8971    0.0000 C   0  0  0  0  0  0  0  0  0  0  0  0
   -5.2500    3.8971    0.0000 C   0  0  0  0  0  0  0  0  0  0  0  0
   -6.0000    5.1962    0.0000 C   0  0  0  0  0  0  0  0  0  0  0  0
   -6.0000    2.5981    0.0000 C   0  0  0  0  0  0  0  0  0  0  0  0
   -5.2500    1.2990    0.0000 N   0  0  0  0  0  0  0  0  0  0  0  0
   -0.7500    1.2990    0.0000 N   0  0  0  0  0  0  0  0  0  0  0  0
    0.7500    1.2990    0.0000 C   0  0  0  0  0  0  0  0  0  0  0  0
    1.5000    2.5981    0.0000 O   0  0  0  0  0  0  0  0  0  0  0  0
  1  2  1  0
  2  3  1  0
  3  4  1  0
  4  5  2  0
  5  6  1  0
  5  7  1  0
  7  8  2  0
  8  9  1  0
  9 10  1  0
 10 11  2  0
 11 12  1  0
 12 13  2  0
 13 14  1  0
 13 15  1  0
 15 16  2  0
  8 17  1  0
 17 18  1  0
 18 19  2  0
 18  4  1  0
 16 10  1  0
M  END
>  <Compound_ID>  (602) 
C16808587

>  <Active>  (602) 
0

>  <Smiles>  (602) 
CCCc1c(C)nc(Nc2ccc(C)cn2)[nH]c1=O

>  <canonical_smi>  (602) 
CCCc1c(C)nc(Nc2ccc(C)cn2)[nH]c1=O

>  <Set>  (602) 
G2 inactive

>  <Set_type>  (602) 
Test

>  <MW>  (602) 
258.32

>  <HBD>  (602) 
2

>  <HBA>  (602) 
4

>  <NRB>  (602) 
4

>  <NR>  (602) 
2

>  <NAR>  (602) 
2

>  <PSA>  (602) 
70.67

>  <Standard Type>  (602) 
nan

>  <Standard Relation>  (602) 
nan

>  <Standard Units>  (602) 
nan

>  <Standard Value>  (602) 
nan

>  <Assay ChEMBL ID>  (602) 
nan

>  <Assay Description>  (602) 
nan

>  <BAO Label>  (602) 
nan

$$$$

     RDKit          2D

 12 12  0  0  0  0  0  0  0  0999 V2000
    2.7760    0.0000    0.0000 C   0  0  0  0  0  0  0  0  0  0  0  0
    1.2760    0.0000    0.0000 C   0  0  0  0  0  0  0  0  0  0  0  0
    0.3943    1.2135    0.0000 C   0  0  0  0  0  0  0  0  0  0  0  0
   -1.0323    0.7500    0.0000 O   0  0  0  0  0  0  0  0  0  0  0  0
   -1.0323   -0.7500    0.0000 C   0  0  0  0  0  0  0  0  0  0  0  0
   -2.2458   -1.6317    0.0000 O   0  0  0  0  0  0  0  0  0  0  0  0
   -3.6161   -1.0216    0.0000 C   0  0  0  0  0  0  0  0  0  0  0  0
    0.3943   -1.2135    0.0000 C   0  0  0  0  0  0  0  0  0  0  0  0
    1.6933   -1.9635    0.0000 C   0  0  0  0  0  0  0  0  0  0  0  0
   -0.2158   -2.5838    0.0000 C   0  0  0  0  0  0  0  0  0  0  0  0
   -1.7076   -2.7406    0.0000 C   0  0  0  0  0  0  0  0  0  0  0  0
    0.6659   -3.7974    0.0000 O   0  0  0  0  0  0  0  0  0  0  0  0
  1  2  2  0
  2  3  1  0
  3  4  1  0
  4  5  1  0
  5  6  1  6
  6  7  1  0
  5  8  1  0
  8  9  1  1
  8 10  1  0
 10 11  1  0
 10 12  2  0
  8  2  1  0
M  END
>  <Compound_ID>  (603) 
C39072651

>  <Active>  (603) 
0

>  <Smiles>  (603) 
C=C1CO[C@@H](OC)[C@@]1(C)C(C)=O

>  <canonical_smi>  (603) 
C=C1CO[C@@H](OC)[C@@]1(C)C(C)=O

>  <Set>  (603) 
G2 inactive

>  <Set_type>  (603) 
Test

>  <MW>  (603) 
170.21

>  <HBD>  (603) 
0

>  <HBA>  (603) 
3

>  <NRB>  (603) 
2

>  <NR>  (603) 
1

>  <NAR>  (603) 
0

>  <PSA>  (603) 
35.53

>  <Standard Type>  (603) 
nan

>  <Standard Relation>  (603) 
nan

>  <Standard Units>  (603) 
nan

>  <Standard Value>  (603) 
nan

>  <Assay ChEMBL ID>  (603) 
nan

>  <Assay Description>  (603) 
nan

>  <BAO Label>  (603) 
nan

$$$$

     RDKit          2D

 35 39  0  0  0  0  0  0  0  0999 V2000
   -5.1814   -2.6490    0.0000 C   0  0  0  0  0  0  0  0  0  0  0  0
   -3.7548   -2.1855    0.0000 C   0  0  0  0  0  0  0  0  0  0  0  0
   -3.4430   -0.7182    0.0000 O   0  0  0  0  0  0  0  0  0  0  0  0
   -2.6401   -3.1891    0.0000 N   0  0  0  0  0  0  0  0  0  0  0  0
   -1.2135   -2.7256    0.0000 C   0  0  0  0  0  0  0  0  0  0  0  0
   -0.0000   -3.6073    0.0000 C   0  0  0  0  0  0  0  0  0  0  0  0
    1.2135   -2.7256    0.0000 N   0  0  0  0  0  0  0  0  0  0  0  0
    0.7500   -1.2990    0.0000 C   0  0  0  0  0  0  0  0  0  0  0  0
    1.5000    0.0000    0.0000 C   0  0  0  0  0  0  0  0  0  0  0  0
    0.7500    1.2990    0.0000 C   0  0  0  0  0  0  0  0  0  0  0  0
   -0.7500    1.2990    0.0000 C   0  0  0  0  0  0  0  0  0  0  0  0
   -1.5000    2.5981    0.0000 F   0  0  0  0  0  0  0  0  0  0  0  0
   -1.5000    0.0000    0.0000 C   0  0  0  0  0  0  0  0  0  0  0  0
   -0.7500   -1.2990    0.0000 C   0  0  0  0  0  0  0  0  0  0  0  0
    2.5838   -3.3357    0.0000 C   0  0  0  0  0  0  0  0  0  0  0  0
    2.7406   -4.8275    0.0000 C   0  0  0  0  0  0  0  0  0  0  0  0
    3.3982   -6.1757    0.0000 C   0  0  0  0  0  0  0  0  0  0  0  0
    4.1825   -4.4141    0.0000 C   0  0  0  0  0  0  0  0  0  0  0  0
    4.5454   -2.9586    0.0000 O   0  0  0  0  0  0  0  0  0  0  0  0
    5.2615   -5.4560    0.0000 N   0  0  0  0  0  0  0  0  0  0  0  0
    6.7034   -5.0426    0.0000 C   0  0  0  0  0  0  0  0  0  0  0  0
    7.2165   -3.6330    0.0000 C   0  0  0  0  0  0  0  0  0  0  0  0
    8.7155   -3.6854    0.0000 C   0  0  0  0  0  0  0  0  0  0  0  0
    9.1290   -5.1273    0.0000 C   0  0  0  0  0  0  0  0  0  0  0  0
    7.8854   -5.9661    0.0000 C   0  0  0  0  0  0  0  0  0  0  0  0
    1.5271   -5.7092    0.0000 N   0  0  0  0  0  0  0  0  0  0  0  0
    1.6839   -7.2010    0.0000 C   0  0  0  0  0  0  0  0  0  0  0  0
    0.4704   -8.0826    0.0000 C   0  0  0  0  0  0  0  0  0  0  0  0
    0.6272   -9.5744    0.0000 C   0  0  0  0  0  0  0  0  0  0  0  0
    1.9975  -10.1845    0.0000 C   0  0  0  0  0  0  0  0  0  0  0  0
    2.1543  -11.6763    0.0000 C   0  0  0  0  0  0  0  0  0  0  0  0
    3.2110   -9.3029    0.0000 C   0  0  0  0  0  0  0  0  0  0  0  0
    3.0542   -7.8111    0.0000 C   0  0  0  0  0  0  0  0  0  0  0  0
    0.1568   -5.0991    0.0000 C   0  0  0  0  0  0  0  0  0  0  0  0
   -1.0567   -5.9808    0.0000 O   0  0  0  0  0  0  0  0  0  0  0  0
  1  2  1  0
  2  3  2  0
  2  4  1  0
  4  5  1  0
  5  6  2  0
  6  7  1  0
  7  8  1  0
  8  9  2  0
  9 10  1  0
 10 11  2  0
 11 12  1  0
 11 13  1  0
 13 14  2  0
  7 15  1  0
 15 16  1  0
 16 17  1  1
 16 18  1  0
 18 19  2  0
 18 20  1  0
 20 21  1  0
 21 22  1  0
 22 23  1  0
 23 24  1  0
 24 25  1  0
 16 26  1  0
 26 27  1  0
 27 28  1  0
 28 29  1  0
 29 30  1  0
 30 31  1  0
 30 32  1  0
 32 33  1  0
 26 34  1  0
 34 35  2  0
 14  5  1  0
 25 21  1  0
 33 27  1  0
 34  6  1  0
 14  8  1  0
M  END
>  <Compound_ID>  (604) 
C21866487

>  <Active>  (604) 
0

>  <Smiles>  (604) 
CC(=O)Nc1c2n(c3ccc(F)cc13)C[C@](C)(C(=O)NC1CCCC1)N(C1CCC(C)CC1)C2=O

>  <canonical_smi>  (604) 
CC(=O)Nc1c2n(c3ccc(F)cc13)C[C@](C)(C(=O)NC1CCCC1)N(C1CCC(C)CC1)C2=O

>  <Set>  (604) 
G2 inactive

>  <Set_type>  (604) 
Test

>  <MW>  (604) 
482.6

>  <HBD>  (604) 
2

>  <HBA>  (604) 
3

>  <NRB>  (604) 
4

>  <NR>  (604) 
5

>  <NAR>  (604) 
2

>  <PSA>  (604) 
83.44

>  <Standard Type>  (604) 
nan

>  <Standard Relation>  (604) 
nan

>  <Standard Units>  (604) 
nan

>  <Standard Value>  (604) 
nan

>  <Assay ChEMBL ID>  (604) 
nan

>  <Assay Description>  (604) 
nan

>  <BAO Label>  (604) 
nan

$$$$

     RDKit          2D

 24 26  0  0  0  0  0  0  0  0999 V2000
   -6.0000   -5.1962    0.0000 C   0  0  0  0  0  0  0  0  0  0  0  0
   -5.2500   -6.4952    0.0000 C   0  0  0  0  0  0  0  0  0  0  0  0
   -3.7500   -6.4952    0.0000 N   0  0  0  0  0  0  0  0  0  0  0  0
   -3.0000   -5.1962    0.0000 N   0  0  0  0  0  0  0  0  0  0  0  0
   -1.5000   -5.1962    0.0000 C   0  0  0  0  0  0  0  0  0  0  0  0
   -0.7500   -6.4952    0.0000 O   0  0  0  0  0  0  0  0  0  0  0  0
   -0.7500   -3.8971    0.0000 C   0  0  0  0  0  0  0  0  0  0  0  0
    0.7500   -3.8971    0.0000 C   0  0  0  0  0  0  0  0  0  0  0  0
    1.5000   -2.5981    0.0000 O   0  0  0  0  0  0  0  0  0  0  0  0
    0.7500   -1.2990    0.0000 C   0  0  0  0  0  0  0  0  0  0  0  0
    1.5000    0.0000    0.0000 C   0  0  0  0  0  0  0  0  0  0  0  0
    0.7500    1.2990    0.0000 C   0  0  0  0  0  0  0  0  0  0  0  0
   -0.7500    1.2990    0.0000 C   0  0  0  0  0  0  0  0  0  0  0  0
   -1.5000    0.0000    0.0000 C   0  0  0  0  0  0  0  0  0  0  0  0
   -0.7500   -1.2990    0.0000 C   0  0  0  0  0  0  0  0  0  0  0  0
   -1.5000   -2.5981    0.0000 O   0  0  0  0  0  0  0  0  0  0  0  0
   -6.0000   -7.7942    0.0000 C   0  0  0  0  0  0  0  0  0  0  0  0
   -7.5000   -7.7942    0.0000 C   0  0  0  0  0  0  0  0  0  0  0  0
   -8.2500   -9.0933    0.0000 C   0  0  0  0  0  0  0  0  0  0  0  0
   -7.5000  -10.3923    0.0000 C   0  0  0  0  0  0  0  0  0  0  0  0
   -8.2500  -11.6913    0.0000 F   0  0  0  0  0  0  0  0  0  0  0  0
   -6.0000  -10.3923    0.0000 C   0  0  0  0  0  0  0  0  0  0  0  0
   -5.2500   -9.0933    0.0000 C   0  0  0  0  0  0  0  0  0  0  0  0
   -3.7500   -9.0933    0.0000 F   0  0  0  0  0  0  0  0  0  0  0  0
  1  2  1  0
  2  3  2  0
  3  4  1  0
  4  5  1  0
  5  6  2  0
  7  5  1  6
  7  8  1  0
  8  9  1  0
  9 10  1  0
 10 11  2  0
 11 12  1  0
 12 13  2  0
 13 14  1  0
 14 15  2  0
 15 16  1  0
  2 17  1  0
 17 18  2  0
 18 19  1  0
 19 20  2  0
 20 21  1  0
 20 22  1  0
 22 23  2  0
 23 24  1  0
 16  7  1  0
 23 17  1  0
 15 10  1  0
M  END
>  <Compound_ID>  (605) 
C06945677

>  <Active>  (605) 
0

>  <Smiles>  (605) 
C/C(=N\NC(=O)[C@H]1COc2ccccc2O1)c1ccc(F)cc1F

>  <canonical_smi>  (605) 
C/C(=N\NC(=O)[C@H]1COc2ccccc2O1)c1ccc(F)cc1F

>  <Set>  (605) 
G2 inactive

>  <Set_type>  (605) 
Test

>  <MW>  (605) 
332.31

>  <HBD>  (605) 
1

>  <HBA>  (605) 
3

>  <NRB>  (605) 
3

>  <NR>  (605) 
3

>  <NAR>  (605) 
2

>  <PSA>  (605) 
59.92

>  <Standard Type>  (605) 
nan

>  <Standard Relation>  (605) 
nan

>  <Standard Units>  (605) 
nan

>  <Standard Value>  (605) 
nan

>  <Assay ChEMBL ID>  (605) 
nan

>  <Assay Description>  (605) 
nan

>  <BAO Label>  (605) 
nan

$$$$

     RDKit          2D

 31 35  0  0  0  0  0  0  0  0999 V2000
    5.4240   -6.1312    0.0000 C   0  0  0  0  0  0  0  0  0  0  0  0
    4.0537   -5.5211    0.0000 C   0  0  0  0  0  0  0  0  0  0  0  0
    3.7418   -4.0539    0.0000 N   0  0  0  0  0  0  0  0  0  0  0  0
    2.2500   -3.8971    0.0000 C   0  0  0  0  0  0  0  0  0  0  0  0
    1.5000   -2.5981    0.0000 S   0  0  0  0  0  0  0  0  0  0  0  0
    0.2010   -3.3481    0.0000 O   0  0  0  0  0  0  0  0  0  0  0  0
    2.7990   -1.8481    0.0000 O   0  0  0  0  0  0  0  0  0  0  0  0
    0.7500   -1.2990    0.0000 N   0  0  0  0  0  0  0  0  0  0  0  0
    1.5000    0.0000    0.0000 C   0  0  0  0  0  0  0  0  0  0  0  0
    0.7500    1.2990    0.0000 C   0  0  0  0  0  0  0  0  0  0  0  0
   -0.7500    1.2990    0.0000 C   0  0  0  0  0  0  0  0  0  0  0  0
   -1.5000    0.0000    0.0000 C   0  0  0  0  0  0  0  0  0  0  0  0
   -0.7500   -1.2990    0.0000 C   0  0  0  0  0  0  0  0  0  0  0  0
   -2.2500    1.2990    0.0000 N   0  0  0  0  0  0  0  0  0  0  0  0
   -3.7500    1.2990    0.0000 C   0  0  0  0  0  0  0  0  0  0  0  0
   -4.5000    2.5981    0.0000 C   0  0  0  0  0  0  0  0  0  0  0  0
   -6.0000    2.5981    0.0000 C   0  0  0  0  0  0  0  0  0  0  0  0
   -6.7500    1.2990    0.0000 C   0  0  0  0  0  0  0  0  0  0  0  0
   -6.0000   -0.0000    0.0000 C   0  0  0  0  0  0  0  0  0  0  0  0
   -4.5000   -0.0000    0.0000 C   0  0  0  0  0  0  0  0  0  0  0  0
   -3.7500   -1.2990    0.0000 N   0  0  0  0  0  0  0  0  0  0  0  0
   -2.2500   -1.2990    0.0000 C   0  0  0  0  0  0  0  0  0  0  0  0
   -1.5000   -2.5981    0.0000 N   0  0  0  0  0  4  0  0  0  0  0  0
   -2.2500   -3.8971    0.0000 C   0  0  0  0  0  0  0  0  0  0  0  0
   -1.6399   -5.2674    0.0000 C   0  0  0  0  0  0  0  0  0  0  0  0
   -2.7546   -6.2711    0.0000 C   0  0  0  0  0  0  0  0  0  0  0  0
   -4.0537   -5.5211    0.0000 C   0  0  0  0  0  0  0  0  0  0  0  0
   -3.7418   -4.0539    0.0000 C   0  0  0  0  0  0  0  0  0  0  0  0
    1.6399   -5.2674    0.0000 C   0  0  0  0  0  0  0  0  0  0  0  0
    2.7546   -6.2711    0.0000 N   0  0  0  0  0  0  0  0  0  0  0  0
    2.5978   -7.7629    0.0000 C   0  0  0  0  0  0  0  0  0  0  0  0
  1  2  1  0
  2  3  2  0
  3  4  1  0
  4  5  1  0
  5  6  2  0
  5  7  2  0
  5  8  1  0
  8  9  1  0
  9 10  1  0
 10 11  1  0
 12 11  1  1
 12 13  1  0
 12 14  1  0
 14 15  1  0
 15 16  2  0
 16 17  1  0
 17 18  2  0
 18 19  1  0
 19 20  2  0
 20 21  1  0
 21 22  1  0
 22 23  2  0
 23 24  1  0
 24 25  1  0
 25 26  1  0
 26 27  1  0
 27 28  1  0
  4 29  2  0
 29 30  1  0
 30 31  1  0
 30  2  1  0
 13  8  1  0
 20 15  1  0
 28 24  1  0
 22 12  1  0
M  CHG  1  23   1
M  END
>  <Compound_ID>  (606) 
C65260032

>  <Active>  (606) 
0

>  <Smiles>  (606) 
Cc1nc(S(=O)(=O)N2CCC[C@]3(C2)Nc2ccccc2N/C3=[NH+]\C2CCCC2)cn1C

>  <canonical_smi>  (606) 
Cc1nc(S(=O)(=O)N2CCC[C@]3(C2)Nc2ccccc2N/C3=[NH+]\C2CCCC2)cn1C

>  <Set>  (606) 
G2 inactive

>  <Set_type>  (606) 
Test

>  <MW>  (606) 
443.6

>  <HBD>  (606) 
3

>  <HBA>  (606) 
5

>  <NRB>  (606) 
3

>  <NR>  (606) 
5

>  <NAR>  (606) 
2

>  <PSA>  (606) 
93.23

>  <Standard Type>  (606) 
nan

>  <Standard Relation>  (606) 
nan

>  <Standard Units>  (606) 
nan

>  <Standard Value>  (606) 
nan

>  <Assay ChEMBL ID>  (606) 
nan

>  <Assay Description>  (606) 
nan

>  <BAO Label>  (606) 
nan

$$$$

     RDKit          2D

 38 43  0  0  0  0  0  0  0  0999 V2000
   -6.5688   -4.8906    0.0000 C   0  0  0  0  0  0  0  0  0  0  0  0
   -5.2698   -5.6406    0.0000 O   0  0  0  0  0  0  0  0  0  0  0  0
   -3.9707   -4.8906    0.0000 C   0  0  0  0  0  0  0  0  0  0  0  0
   -2.7314   -5.7356    0.0000 C   0  0  0  0  0  0  0  0  0  0  0  0
   -2.9549   -7.2188    0.0000 C   0  0  0  0  0  0  0  0  0  0  0  0
   -1.2980   -5.2934    0.0000 C   0  0  0  0  0  0  0  0  0  0  0  0
   -0.7500   -3.8971    0.0000 C   0  0  0  0  0  0  0  0  0  0  0  0
    0.7500   -3.8971    0.0000 C   0  0  0  0  0  0  0  0  0  0  0  0
    1.5000   -5.1962    0.0000 O   0  0  0  0  0  0  0  0  0  0  0  0
    3.0000   -5.1962    0.0000 C   0  0  0  0  0  0  0  0  0  0  0  0
    1.5000   -2.5981    0.0000 C   0  0  0  0  0  0  0  0  0  0  0  0
    3.0000   -2.5981    0.0000 O   0  0  0  0  0  0  0  0  0  0  0  0
    0.7500   -1.2990    0.0000 C   0  0  0  0  0  0  0  0  0  0  0  0
    1.5000    0.0000    0.0000 C   0  0  0  0  0  0  0  0  0  0  0  0
    3.0000    0.0000    0.0000 O   0  0  0  0  0  0  0  0  0  0  0  0
    0.7500    1.2990    0.0000 C   0  0  0  0  0  0  0  0  0  0  0  0
   -0.7500    1.2990    0.0000 C   0  0  0  0  0  0  0  0  0  0  0  0
   -1.5000    2.5981    0.0000 O   0  0  0  0  0  0  0  0  0  0  0  0
   -0.7500    3.8971    0.0000 C   0  0  0  0  0  0  0  0  0  0  0  0
   -1.5000    0.0000    0.0000 C   0  0  0  0  0  0  0  0  0  0  0  0
   -2.2174    0.1081    0.0000 C   0  0  0  0  0  0  0  0  0  0  0  0
   -2.5512    1.5705    0.0000 C   0  0  0  0  0  0  0  0  0  0  0  0
   -1.4517    2.5908    0.0000 O   0  0  0  0  0  0  0  0  0  0  0  0
   -1.7854    4.0532    0.0000 C   0  0  0  0  0  0  0  0  0  0  0  0
   -3.9846    2.0127    0.0000 C   0  0  0  0  0  0  0  0  0  0  0  0
   -5.0842    0.9924    0.0000 C   0  0  0  0  0  0  0  0  0  0  0  0
   -6.5175    1.4345    0.0000 O   0  0  0  0  0  0  0  0  0  0  0  0
   -4.7504   -0.4700    0.0000 C   0  0  0  0  0  0  0  0  0  0  0  0
   -5.8500   -1.4902    0.0000 C   0  0  0  0  0  0  0  0  0  0  0  0
   -7.2833   -1.0481    0.0000 O   0  0  0  0  0  0  0  0  0  0  0  0
   -5.5162   -2.9526    0.0000 C   0  0  0  0  0  0  0  0  0  0  0  0
   -6.6158   -3.9729    0.0000 O   0  0  0  0  0  0  0  0  0  0  0  0
   -8.0491   -3.5308    0.0000 C   0  0  0  0  0  0  0  0  0  0  0  0
   -4.0828   -3.3948    0.0000 C   0  0  0  0  0  0  0  0  0  0  0  0
   -2.9832   -2.3745    0.0000 C   0  0  0  0  0  0  0  0  0  0  0  0
   -1.5000   -2.5981    0.0000 C   0  0  0  0  0  0  0  0  0  0  0  0
   -0.7500   -1.2990    0.0000 C   0  0  0  0  0  0  0  0  0  0  0  0
   -3.3170   -0.9121    0.0000 C   0  0  0  0  0  0  0  0  0  0  0  0
  1  2  1  0
  2  3  1  0
  3  4  2  0
  4  5  1  0
  4  6  1  0
  6  7  1  0
  7  8  2  0
  8  9  1  0
  9 10  1  0
  8 11  1  0
 11 12  2  0
 11 13  1  0
 13 14  1  0
 14 15  1  0
 14 16  2  0
 16 17  1  0
 17 18  1  0
 18 19  1  0
 17 20  2  0
 20 21  1  0
 21 22  1  0
 22 23  1  0
 23 24  1  0
 22 25  2  0
 25 26  1  0
 26 27  1  0
 26 28  2  0
 28 29  1  0
 29 30  2  0
 29 31  1  0
 31 32  1  0
 32 33  1  0
 31 34  2  0
 34 35  1  0
 35 36  2  0
 36 37  1  0
 35 38  1  0
 34  3  1  0
 36  7  1  0
 37 13  2  0
 37 20  1  0
 38 21  2  0
 38 28  1  0
M  END
>  <Compound_ID>  (607) 
C14806655

>  <Active>  (607) 
0

>  <Smiles>  (607) 
COC1=C(C)Cc2c(OC)c(=O)c3c(O)cc(OC)c4c5c(OC)cc(O)c6c(=O)c(OC)c1c(c2c34)c65

>  <canonical_smi>  (607) 
COC1=C(C)Cc2c(OC)c(=O)c3c(O)cc(OC)c4c5c(OC)cc(O)c6c(=O)c(OC)c1c(c2c34)c65

>  <Set>  (607) 
G2 inactive

>  <Set_type>  (607) 
Test

>  <MW>  (607) 
516.5

>  <HBD>  (607) 
2

>  <HBA>  (607) 
9

>  <NRB>  (607) 
5

>  <NR>  (607) 
6

>  <NAR>  (607) 
5

>  <PSA>  (607) 
120.75

>  <Standard Type>  (607) 
nan

>  <Standard Relation>  (607) 
nan

>  <Standard Units>  (607) 
nan

>  <Standard Value>  (607) 
nan

>  <Assay ChEMBL ID>  (607) 
nan

>  <Assay Description>  (607) 
nan

>  <BAO Label>  (607) 
nan

$$$$

     RDKit          2D

 26 28  0  0  0  0  0  0  0  0999 V2000
    6.0000   -5.1962    0.0000 C   0  0  0  0  0  0  0  0  0  0  0  0
    5.2500   -3.8971    0.0000 C   0  0  0  0  0  0  0  0  0  0  0  0
    6.0000   -2.5981    0.0000 N   0  0  0  0  0  0  0  0  0  0  0  0
    7.5000   -2.5981    0.0000 C   0  0  0  0  0  0  0  0  0  0  0  0
    8.2500   -3.8971    0.0000 O   0  0  0  0  0  0  0  0  0  0  0  0
    8.2500   -1.2990    0.0000 C   0  0  0  0  0  0  0  0  0  0  0  0
    9.7500   -1.2990    0.0000 C   0  0  0  0  0  0  0  0  0  0  0  0
   10.5000   -0.0000    0.0000 C   0  0  0  0  0  0  0  0  0  0  0  0
    9.7500    1.2990    0.0000 C   0  0  0  0  0  0  0  0  0  0  0  0
    8.2500    1.2990    0.0000 C   0  0  0  0  0  0  0  0  0  0  0  0
    7.5000   -0.0000    0.0000 C   0  0  0  0  0  0  0  0  0  0  0  0
    3.7500   -3.8971    0.0000 C   0  0  0  0  0  0  0  0  0  0  0  0
    3.0000   -5.1962    0.0000 O   0  0  0  0  0  0  0  0  0  0  0  0
    3.0000   -2.5981    0.0000 N   0  0  0  0  0  0  0  0  0  0  0  0
    1.5000   -2.5981    0.0000 C   0  0  0  0  0  0  0  0  0  0  0  0
    0.7500   -3.8971    0.0000 C   0  0  0  0  0  0  0  0  0  0  0  0
    0.7500   -1.2990    0.0000 C   0  0  0  0  0  0  0  0  0  0  0  0
    1.5000    0.0000    0.0000 C   0  0  0  0  0  0  0  0  0  0  0  0
    0.7500    1.2990    0.0000 C   0  0  0  0  0  0  0  0  0  0  0  0
   -0.7500    1.2990    0.0000 C   0  0  0  0  0  0  0  0  0  0  0  0
   -1.7537    2.4138    0.0000 N   0  0  0  0  0  0  0  0  0  0  0  0
   -3.1240    1.8037    0.0000 C   0  0  0  0  0  0  0  0  0  0  0  0
   -4.4231    2.5537    0.0000 O   0  0  0  0  0  0  0  0  0  0  0  0
   -2.9672    0.3119    0.0000 N   0  0  0  0  0  0  0  0  0  0  0  0
   -1.5000    0.0000    0.0000 C   0  0  0  0  0  0  0  0  0  0  0  0
   -0.7500   -1.2990    0.0000 C   0  0  0  0  0  0  0  0  0  0  0  0
  2  1  1  1
  2  3  1  0
  3  4  1  0
  4  5  2  0
  4  6  1  0
  6  7  2  0
  7  8  1  0
  8  9  2  0
  9 10  1  0
 10 11  2  0
  2 12  1  0
 12 13  2  0
 12 14  1  0
 14 15  1  0
 15 16  1  1
 15 17  1  0
 17 18  2  0
 18 19  1  0
 19 20  2  0
 20 21  1  0
 21 22  1  0
 22 23  2  0
 22 24  1  0
 24 25  1  0
 25 26  2  0
 11  6  1  0
 26 17  1  0
 25 20  1  0
M  END
>  <Compound_ID>  (608) 
C58385162

>  <Active>  (608) 
0

>  <Smiles>  (608) 
C[C@H](NC(=O)c1ccccc1)C(=O)N[C@@H](C)c1ccc2[nH]c(=O)[nH]c2c1

>  <canonical_smi>  (608) 
C[C@H](NC(=O)c1ccccc1)C(=O)N[C@@H](C)c1ccc2[nH]c(=O)[nH]c2c1

>  <Set>  (608) 
G2 inactive

>  <Set_type>  (608) 
Test

>  <MW>  (608) 
352.39

>  <HBD>  (608) 
4

>  <HBA>  (608) 
3

>  <NRB>  (608) 
5

>  <NR>  (608) 
3

>  <NAR>  (608) 
3

>  <PSA>  (608) 
106.85

>  <Standard Type>  (608) 
nan

>  <Standard Relation>  (608) 
nan

>  <Standard Units>  (608) 
nan

>  <Standard Value>  (608) 
nan

>  <Assay ChEMBL ID>  (608) 
nan

>  <Assay Description>  (608) 
nan

>  <BAO Label>  (608) 
nan

$$$$

     RDKit          2D

 33 37  0  0  0  0  0  0  0  0999 V2000
    4.3347    3.6484    0.0000 O   0  0  0  0  0  0  0  0  0  0  0  0
    3.8712    5.0750    0.0000 S   0  0  0  0  0  0  0  0  0  0  0  0
    3.4077    6.5016    0.0000 O   0  0  0  0  0  0  0  0  0  0  0  0
    5.2978    5.5385    0.0000 N   0  0  0  0  0  0  0  0  0  0  0  0
    5.6097    7.0058    0.0000 C   0  0  0  0  0  0  0  0  0  0  0  0
    7.0362    7.4693    0.0000 C   0  0  0  0  0  0  0  0  0  0  0  0
    7.3481    8.9365    0.0000 C   0  0  0  0  0  0  0  0  0  0  0  0
    8.7747    9.4000    0.0000 C   0  0  0  0  0  0  0  0  0  0  0  0
    9.0866   10.8673    0.0000 C   0  0  0  0  0  0  0  0  0  0  0  0
    7.9718   11.8710    0.0000 C   0  0  0  0  0  0  0  0  0  0  0  0
    6.5453   11.4074    0.0000 C   0  0  0  0  0  0  0  0  0  0  0  0
    6.2334    9.9402    0.0000 C   0  0  0  0  0  0  0  0  0  0  0  0
    2.4446    4.6115    0.0000 C   0  0  0  0  0  0  0  0  0  0  0  0
    1.3299    5.6152    0.0000 C   0  0  0  0  0  0  0  0  0  0  0  0
   -0.0967    5.1517    0.0000 C   0  0  0  0  0  0  0  0  0  0  0  0
   -0.4086    3.6844    0.0000 C   0  0  0  0  0  0  0  0  0  0  0  0
    0.7062    2.6807    0.0000 C   0  0  0  0  0  0  0  0  0  0  0  0
    2.1328    3.1443    0.0000 C   0  0  0  0  0  0  0  0  0  0  0  0
    0.3943    1.2135    0.0000 C   0  0  0  0  0  0  0  0  0  0  0  0
    1.2760    0.0000    0.0000 C   0  0  0  0  0  0  0  0  0  0  0  0
    0.3943   -1.2135    0.0000 C   0  0  0  0  0  0  0  0  0  0  0  0
   -1.0323   -0.7500    0.0000 C   0  0  0  0  0  0  0  0  0  0  0  0
   -1.0323    0.7500    0.0000 C   0  0  0  0  0  0  0  0  0  0  0  0
   -2.1470    1.7537    0.0000 C   0  0  0  0  0  0  0  0  0  0  0  0
   -3.5736    1.2902    0.0000 C   0  0  0  0  0  0  0  0  0  0  0  0
   -4.6883    2.2939    0.0000 C   0  0  0  0  0  0  0  0  0  0  0  0
   -6.1149    1.8303    0.0000 C   0  0  0  0  0  0  0  0  0  0  0  0
   -6.4268    0.3631    0.0000 C   0  0  0  0  0  0  0  0  0  0  0  0
   -7.8533   -0.1004    0.0000 O   0  0  0  0  0  0  0  0  0  0  0  0
   -5.3120   -0.6406    0.0000 C   0  0  0  0  0  0  0  0  0  0  0  0
   -3.8855   -0.1771    0.0000 C   0  0  0  0  0  0  0  0  0  0  0  0
   -2.7707   -1.1807    0.0000 O   0  0  0  0  0  0  0  0  0  0  0  0
   -1.8351    3.2209    0.0000 N   0  0  0  0  0  0  0  0  0  0  0  0
  1  2  2  0
  2  3  2  0
  2  4  1  0
  4  5  1  0
  5  6  1  0
  6  7  1  0
  7  8  2  0
  8  9  1  0
  9 10  2  0
 10 11  1  0
 11 12  2  0
  2 13  1  0
 13 14  2  0
 14 15  1  0
 15 16  2  0
 16 17  1  0
 17 18  2  0
 17 19  1  0
 19 20  1  6
 20 21  2  0
 21 22  1  0
 23 22  1  1
 23 24  1  0
 24 25  1  6
 25 26  2  0
 26 27  1  0
 27 28  2  0
 28 29  1  0
 28 30  1  0
 30 31  2  0
 31 32  1  0
 24 33  1  0
 12  7  1  0
 18 13  1  0
 23 19  1  0
 31 25  1  0
 33 16  1  0
M  END
>  <Compound_ID>  (609) 
C13639574

>  <Active>  (609) 
0

>  <Smiles>  (609) 
O=S(=O)(NCCc1ccccc1)c1ccc2c(c1)[C@@H]1C=CC[C@H]1[C@H](c1ccc(O)cc1O)N2

>  <canonical_smi>  (609) 
O=S(=O)(NCCc1ccccc1)c1ccc2c(c1)[C@@H]1C=CC[C@H]1[C@H](c1ccc(O)cc1O)N2

>  <Set>  (609) 
G2 inactive

>  <Set_type>  (609) 
Test

>  <MW>  (609) 
462.57

>  <HBD>  (609) 
4

>  <HBA>  (609) 
5

>  <NRB>  (609) 
6

>  <NR>  (609) 
5

>  <NAR>  (609) 
3

>  <PSA>  (609) 
98.66

>  <Standard Type>  (609) 
nan

>  <Standard Relation>  (609) 
nan

>  <Standard Units>  (609) 
nan

>  <Standard Value>  (609) 
nan

>  <Assay ChEMBL ID>  (609) 
nan

>  <Assay Description>  (609) 
nan

>  <BAO Label>  (609) 
nan

$$$$

     RDKit          2D

 28 31  0  0  0  0  0  0  0  0999 V2000
   -2.5981   -9.6073    0.0000 C   0  0  0  0  0  0  0  0  0  0  0  0
   -2.5981   -8.1073    0.0000 C   0  0  0  0  0  0  0  0  0  0  0  0
   -1.2990   -7.3573    0.0000 N   0  0  0  0  0  0  0  0  0  0  0  0
   -1.2990   -5.8573    0.0000 C   0  0  0  0  0  0  0  0  0  0  0  0
   -0.0000   -5.1073    0.0000 C   0  0  0  0  0  0  0  0  0  0  0  0
   -0.0000   -3.6073    0.0000 C   0  0  0  0  0  0  0  0  0  0  0  0
    1.2135   -2.7256    0.0000 N   0  0  0  0  0  4  0  0  0  0  0  0
    0.7500   -1.2990    0.0000 C   0  0  0  0  0  0  0  0  0  0  0  0
    1.5000    0.0000    0.0000 C   0  0  0  0  0  0  0  0  0  0  0  0
    0.7500    1.2990    0.0000 C   0  0  0  0  0  0  0  0  0  0  0  0
   -0.7500    1.2990    0.0000 C   0  0  0  0  0  0  0  0  0  0  0  0
   -1.5000    0.0000    0.0000 C   0  0  0  0  0  0  0  0  0  0  0  0
   -3.0000    0.0000    0.0000 C   0  0  0  0  0  0  0  0  0  0  0  0
   -0.7500   -1.2990    0.0000 C   0  0  0  0  0  0  0  0  0  0  0  0
   -1.2135   -2.7256    0.0000 N   0  0  0  0  0  4  0  0  0  0  0  0
    0.0000   -8.1073    0.0000 C   0  0  0  0  0  0  0  0  0  0  0  0
    1.2990   -7.3573    0.0000 O   0  0  0  0  0  0  0  0  0  0  0  0
    0.0000   -9.6073    0.0000 C   0  0  0  0  0  0  0  0  0  0  0  0
   -1.2135  -10.4890    0.0000 C   0  0  0  0  0  0  0  0  0  0  0  0
   -0.7500  -11.9156    0.0000 C   0  0  0  0  0  0  0  0  0  0  0  0
    0.7500  -11.9156    0.0000 C   0  0  0  0  0  0  0  0  0  0  0  0
    1.6317  -13.1291    0.0000 C   0  0  0  0  0  0  0  0  0  0  0  0
    1.9635  -11.0339    0.0000 O   0  0  0  0  0  0  0  0  0  0  0  0
    1.5000   -9.6073    0.0000 C   0  0  0  0  0  0  0  0  0  0  0  0
    2.3817   -8.3938    0.0000 O   0  0  0  0  0  0  0  0  0  0  0  0
    1.2135  -10.4890    0.0000 C   0  0  0  0  0  0  0  0  0  0  0  0
    1.9986  -10.6274    0.0000 C   0  0  0  0  0  0  0  0  0  0  0  0
    2.2556   -9.4100    0.0000 C   0  0  0  0  0  0  0  0  0  0  0  0
  1  2  1  0
  2  3  1  0
  3  4  1  0
  4  5  1  0
  6  5  1  6
  6  7  1  0
  7  8  2  0
  8  9  1  0
  9 10  2  0
 10 11  1  0
 11 12  2  0
 12 13  1  0
 12 14  1  0
 14 15  2  0
  3 16  1  0
 16 17  2  0
 18 16  1  1
 18 19  1  0
 19 20  1  0
 20 21  1  0
 21 22  1  1
 21 23  1  0
 23 24  1  0
 24 25  2  0
 21 26  1  0
 26 27  1  0
 26 28  1  0
 15  6  1  0
 24 18  1  0
 14  8  1  0
 26 18  1  0
M  CHG  2   7   1  15   1
M  END
>  <Compound_ID>  (610) 
C63870409

>  <Active>  (610) 
0

>  <Smiles>  (610) 
CCN(CC[C@H]1[NH+]=c2cccc(C)c2=[NH+]1)C(=O)[C@@]12CC[C@@](C)(OC1=O)C2(C)C

>  <canonical_smi>  (610) 
CCN(CC[C@H]1[NH+]=c2cccc(C)c2=[NH+]1)C(=O)[C@@]12CC[C@@](C)(OC1=O)C2(C)C

>  <Set>  (610) 
G2 inactive

>  <Set_type>  (610) 
Test

>  <MW>  (610) 
385.51

>  <HBD>  (610) 
2

>  <HBA>  (610) 
3

>  <NRB>  (610) 
5

>  <NR>  (610) 
4

>  <NAR>  (610) 
1

>  <PSA>  (610) 
74.55

>  <Standard Type>  (610) 
nan

>  <Standard Relation>  (610) 
nan

>  <Standard Units>  (610) 
nan

>  <Standard Value>  (610) 
nan

>  <Assay ChEMBL ID>  (610) 
nan

>  <Assay Description>  (610) 
nan

>  <BAO Label>  (610) 
nan

$$$$

     RDKit          2D

 27 29  0  0  0  0  0  0  0  0999 V2000
    5.2500   -1.2990    0.0000 C   0  0  0  0  0  0  0  0  0  0  0  0
    3.7500   -1.2990    0.0000 C   0  0  0  0  0  0  0  0  0  0  0  0
    3.0000    0.0000    0.0000 C   0  0  0  0  0  0  0  0  0  0  0  0
    1.5000    0.0000    0.0000 C   0  0  0  0  0  0  0  0  0  0  0  0
    0.7500   -1.2990    0.0000 C   0  0  0  0  0  0  0  0  0  0  0  0
   -0.7500   -1.2990    0.0000 N   0  0  0  0  0  4  0  0  0  0  0  0
   -1.5000    0.0000    0.0000 C   0  0  0  0  0  0  0  0  0  0  0  0
   -0.7500    1.2990    0.0000 C   0  0  0  0  0  0  0  0  0  0  0  0
    0.7500    1.2990    0.0000 C   0  0  0  0  0  0  0  0  0  0  0  0
    1.5000    2.5981    0.0000 N   0  0  0  0  0  0  0  0  0  0  0  0
    3.0000    2.5981    0.0000 O   0  0  0  0  0  0  0  0  0  0  0  0
    3.7500    3.8971    0.0000 C   0  0  0  0  0  0  0  0  0  0  0  0
    5.2500    3.8971    0.0000 C   0  0  0  0  0  0  0  0  0  0  0  0
    6.0000    2.5981    0.0000 C   0  0  0  0  0  0  0  0  0  0  0  0
    7.5000    2.5981    0.0000 C   0  0  0  0  0  0  0  0  0  0  0  0
    8.2500    3.8971    0.0000 C   0  0  0  0  0  0  0  0  0  0  0  0
    9.7500    3.8971    0.0000 Cl  0  0  0  0  0  0  0  0  0  0  0  0
    7.5000    5.1962    0.0000 C   0  0  0  0  0  0  0  0  0  0  0  0
    6.0000    5.1962    0.0000 C   0  0  0  0  0  0  0  0  0  0  0  0
   -1.5000    2.5981    0.0000 C   0  0  0  0  0  0  0  0  0  0  0  0
   -0.7500    3.8971    0.0000 O   0  0  0  0  0  0  0  0  0  0  0  0
   -3.0000    2.5981    0.0000 N   0  0  0  0  0  0  0  0  0  0  0  0
   -3.7500    3.8971    0.0000 C   0  0  0  0  0  0  0  0  0  0  0  0
   -3.7500    1.2990    0.0000 C   0  0  0  0  0  0  0  0  0  0  0  0
   -5.2500    1.2990    0.0000 O   0  0  0  0  0  0  0  0  0  0  0  0
   -3.0000    0.0000    0.0000 N   0  0  0  0  0  0  0  0  0  0  0  0
   -3.7500   -1.2990    0.0000 C   0  0  0  0  0  0  0  0  0  0  0  0
  1  2  1  0
  2  3  1  0
  3  4  1  0
  4  5  2  0
  5  6  1  0
  6  7  2  0
  7  8  1  0
  8  9  2  0
  9 10  1  0
 10 11  1  0
 11 12  1  0
 12 13  1  0
 13 14  2  0
 14 15  1  0
 15 16  2  0
 16 17  1  0
 16 18  1  0
 18 19  2  0
  8 20  1  0
 20 21  2  0
 20 22  1  0
 22 23  1  0
 22 24  1  0
 24 25  2  0
 24 26  1  0
 26 27  1  0
  9  4  1  0
 19 13  1  0
 26  7  1  0
M  CHG  1   6   1
M  END
>  <Compound_ID>  (611) 
C12309723

>  <Active>  (611) 
0

>  <Smiles>  (611) 
CCCc1c[nH+]c2c(c1NOCc1ccc(Cl)cc1)c(=O)n(C)c(=O)n2C

>  <canonical_smi>  (611) 
CCCc1c[nH+]c2c(c1NOCc1ccc(Cl)cc1)c(=O)n(C)c(=O)n2C

>  <Set>  (611) 
G2 inactive

>  <Set_type>  (611) 
Test

>  <MW>  (611) 
389.86

>  <HBD>  (611) 
1

>  <HBA>  (611) 
4

>  <NRB>  (611) 
6

>  <NR>  (611) 
3

>  <NAR>  (611) 
3

>  <PSA>  (611) 
79.4

>  <Standard Type>  (611) 
nan

>  <Standard Relation>  (611) 
nan

>  <Standard Units>  (611) 
nan

>  <Standard Value>  (611) 
nan

>  <Assay ChEMBL ID>  (611) 
nan

>  <Assay Description>  (611) 
nan

>  <BAO Label>  (611) 
nan

$$$$

     RDKit          2D

 16 17  0  0  0  0  0  0  0  0999 V2000
    3.0000    0.0000    0.0000 C   0  0  0  0  0  0  0  0  0  0  0  0
    1.5000    0.0000    0.0000 C   0  0  0  0  0  0  0  0  0  0  0  0
    0.7500   -1.2990    0.0000 C   0  0  0  0  0  0  0  0  0  0  0  0
   -0.7500   -1.2990    0.0000 N   0  0  0  0  0  0  0  0  0  0  0  0
   -1.5000   -2.5981    0.0000 C   0  0  0  0  0  0  0  0  0  0  0  0
   -3.0000   -2.5981    0.0000 C   0  0  0  0  0  0  0  0  0  0  0  0
   -3.7500   -3.8971    0.0000 C   0  0  0  0  0  0  0  0  0  0  0  0
   -5.2500   -3.8971    0.0000 Cl  0  0  0  0  0  0  0  0  0  0  0  0
   -3.0000   -5.1962    0.0000 N   0  0  0  0  0  0  0  0  0  0  0  0
   -1.5000   -5.1962    0.0000 C   0  0  0  0  0  0  0  0  0  0  0  0
   -0.7500   -6.4952    0.0000 N   0  0  0  0  0  0  0  0  0  0  0  0
   -0.7500   -3.8971    0.0000 N   0  0  0  0  0  0  0  0  0  0  0  0
   -1.5000    0.0000    0.0000 C   0  0  0  0  0  0  0  0  0  0  0  0
   -0.7500    1.2990    0.0000 C   0  0  0  0  0  0  0  0  0  0  0  0
   -1.5000    2.5981    0.0000 C   0  0  0  0  0  0  0  0  0  0  0  0
    0.7500    1.2990    0.0000 O   0  0  0  0  0  0  0  0  0  0  0  0
  2  1  1  6
  2  3  1  0
  3  4  1  0
  4  5  1  0
  5  6  2  0
  6  7  1  0
  7  8  1  0
  7  9  2  0
  9 10  1  0
 10 11  1  0
 10 12  2  0
  4 13  1  0
 13 14  1  0
 14 15  1  1
 14 16  1  0
 16  2  1  0
 12  5  1  0
M  END
>  <Compound_ID>  (612) 
C24056203

>  <Active>  (612) 
0

>  <Smiles>  (612) 
C[C@@H]1CN(c2cc(Cl)nc(N)n2)C[C@@H](C)O1

>  <canonical_smi>  (612) 
C[C@@H]1CN(c2cc(Cl)nc(N)n2)C[C@@H](C)O1

>  <Set>  (612) 
G2 inactive

>  <Set_type>  (612) 
Test

>  <MW>  (612) 
242.71

>  <HBD>  (612) 
1

>  <HBA>  (612) 
5

>  <NRB>  (612) 
1

>  <NR>  (612) 
2

>  <NAR>  (612) 
1

>  <PSA>  (612) 
64.27

>  <Standard Type>  (612) 
nan

>  <Standard Relation>  (612) 
nan

>  <Standard Units>  (612) 
nan

>  <Standard Value>  (612) 
nan

>  <Assay ChEMBL ID>  (612) 
nan

>  <Assay Description>  (612) 
nan

>  <BAO Label>  (612) 
nan

$$$$

     RDKit          2D

 37 42  0  0  0  0  0  0  0  0999 V2000
  -10.6780   -3.7680    0.0000 C   0  0  0  0  0  0  0  0  0  0  0  0
  -10.0679   -5.1383    0.0000 C   0  0  0  0  0  0  0  0  0  0  0  0
   -8.5761   -5.2951    0.0000 C   0  0  0  0  0  0  0  0  0  0  0  0
   -7.9660   -6.6654    0.0000 N   0  0  0  0  0  0  0  0  0  0  0  0
   -6.4742   -6.8222    0.0000 C   0  0  0  0  0  0  0  0  0  0  0  0
   -5.8852   -5.7595    0.0000 O   0  0  0  0  0  0  0  0  0  0  0  0
   -5.8641   -8.1925    0.0000 C   0  0  0  0  0  0  0  0  0  0  0  0
   -6.7458   -9.4060    0.0000 C   0  0  0  0  0  0  0  0  0  0  0  0
   -6.1357  -10.7763    0.0000 C   0  0  0  0  0  0  0  0  0  0  0  0
   -4.6439  -10.9331    0.0000 C   0  0  0  0  0  0  0  0  0  0  0  0
   -3.7622   -9.7196    0.0000 C   0  0  0  0  0  0  0  0  0  0  0  0
   -4.3723   -8.3493    0.0000 C   0  0  0  0  0  0  0  0  0  0  0  0
   -3.4906   -7.1358    0.0000 N   0  0  0  0  0  0  0  0  0  0  0  0
   -3.9542   -5.7092    0.0000 C   0  0  0  0  0  0  0  0  0  0  0  0
   -5.0553   -5.1957    0.0000 O   0  0  0  0  0  0  0  0  0  0  0  0
   -2.7406   -4.8275    0.0000 C   0  0  0  0  0  0  0  0  0  0  0  0
   -2.5838   -3.3357    0.0000 C   0  0  0  0  0  0  0  0  0  0  0  0
   -1.2135   -2.7256    0.0000 C   0  0  0  0  0  0  0  0  0  0  0  0
   -0.0000   -3.6073    0.0000 C   0  0  0  0  0  0  0  0  0  0  0  0
    1.2135   -2.7256    0.0000 N   0  0  0  0  0  0  0  0  0  0  0  0
    0.7500   -1.2990    0.0000 C   0  0  0  0  0  0  0  0  0  0  0  0
    1.5000    0.0000    0.0000 C   0  0  0  0  0  0  0  0  0  0  0  0
    0.7500    1.2990    0.0000 C   0  0  0  0  0  0  0  0  0  0  0  0
   -0.7500    1.2990    0.0000 C   0  0  0  0  0  0  0  0  0  0  0  0
   -1.5000    0.0000    0.0000 C   0  0  0  0  0  0  0  0  0  0  0  0
   -0.7500   -1.2990    0.0000 C   0  0  0  0  0  0  0  0  0  0  0  0
   -0.1568   -5.0991    0.0000 C   0  0  0  0  0  0  0  0  0  0  0  0
    1.0567   -5.9808    0.0000 C   0  0  0  0  0  0  0  0  0  0  0  0
    0.8999   -7.4725    0.0000 C   0  0  0  0  0  0  0  0  0  0  0  0
    2.1135   -8.3542    0.0000 C   0  0  0  0  0  0  0  0  0  0  0  0
    3.4838   -7.7441    0.0000 C   0  0  0  0  0  0  0  0  0  0  0  0
    4.6973   -8.6258    0.0000 F   0  0  0  0  0  0  0  0  0  0  0  0
    3.6406   -6.2523    0.0000 C   0  0  0  0  0  0  0  0  0  0  0  0
    2.4271   -5.3707    0.0000 C   0  0  0  0  0  0  0  0  0  0  0  0
   -1.5271   -5.7092    0.0000 N   0  0  0  0  0  0  0  0  0  0  0  0
   -1.9906   -7.1358    0.0000 C   0  0  0  0  0  0  0  0  0  0  0  0
   -1.1090   -8.3493    0.0000 O   0  0  0  0  0  0  0  0  0  0  0  0
  1  2  1  0
  2  3  1  0
  3  4  1  0
  4  5  1  0
  5  6  2  0
  5  7  1  0
  7  8  2  0
  8  9  1  0
  9 10  2  0
 10 11  1  0
 11 12  2  0
 12 13  1  0
 13 14  1  0
 14 15  2  0
 14 16  1  0
 16 17  1  6
 17 18  1  0
 18 19  2  0
 19 20  1  0
 20 21  1  0
 21 22  2  0
 22 23  1  0
 23 24  2  0
 24 25  1  0
 25 26  2  0
 19 27  1  0
 27 28  1  6
 28 29  2  0
 29 30  1  0
 30 31  2  0
 31 32  1  0
 31 33  1  0
 33 34  2  0
 27 35  1  0
 35 36  1  0
 36 37  2  0
 12  7  1  0
 36 13  1  0
 35 16  1  0
 26 18  1  0
 34 28  1  0
 26 21  1  0
M  END
>  <Compound_ID>  (613) 
C12886157

>  <Active>  (613) 
0

>  <Smiles>  (613) 
CCCNC(=O)c1ccccc1N1C(=O)[C@@H]2Cc3c([nH]c4ccccc34)[C@H](c3ccc(F)cc3)N2C1=O

>  <canonical_smi>  (613) 
CCCNC(=O)c1ccccc1N1C(=O)[C@@H]2Cc3c([nH]c4ccccc34)[C@H](c3ccc(F)cc3)N2C1=O

>  <Set>  (613) 
G2 inactive

>  <Set_type>  (613) 
Test

>  <MW>  (613) 
496.54

>  <HBD>  (613) 
2

>  <HBA>  (613) 
3

>  <NRB>  (613) 
5

>  <NR>  (613) 
6

>  <NAR>  (613) 
4

>  <PSA>  (613) 
85.51

>  <Standard Type>  (613) 
nan

>  <Standard Relation>  (613) 
nan

>  <Standard Units>  (613) 
nan

>  <Standard Value>  (613) 
nan

>  <Assay ChEMBL ID>  (613) 
nan

>  <Assay Description>  (613) 
nan

>  <BAO Label>  (613) 
nan

$$$$

     RDKit          2D

 31 35  0  0  0  0  0  0  0  0999 V2000
    3.0000   -5.1962    0.0000 O   0  0  0  0  0  0  0  0  0  0  0  0
    3.7500   -3.8971    0.0000 C   0  0  0  0  0  0  0  0  0  0  0  0
    3.0000   -2.5981    0.0000 N   0  0  0  0  0  0  0  0  0  0  0  0
    1.5000   -2.5981    0.0000 C   0  0  0  0  0  0  0  0  0  0  0  0
    0.7500   -3.8971    0.0000 C   0  0  0  0  0  0  0  0  0  0  0  0
   -0.7500   -3.8971    0.0000 O   0  0  0  0  0  0  0  0  0  0  0  0
    1.5000   -5.1962    0.0000 N   0  0  0  0  0  0  0  0  0  0  0  0
    0.7500   -6.4952    0.0000 C   0  0  0  0  0  0  0  0  0  0  0  0
    1.5000   -7.7942    0.0000 C   0  0  0  0  0  0  0  0  0  0  0  0
    0.7500   -9.0933    0.0000 N   0  0  0  0  0  4  0  0  0  0  0  0
   -0.7500   -9.0933    0.0000 C   0  0  0  0  0  0  0  0  0  0  0  0
   -1.5000  -10.3923    0.0000 C   0  0  0  0  0  0  0  0  0  0  0  0
   -0.7500  -11.6913    0.0000 O   0  0  0  0  0  0  0  0  0  0  0  0
    0.7500  -11.6913    0.0000 C   0  0  0  0  0  0  0  0  0  0  0  0
    1.5000  -10.3923    0.0000 C   0  0  0  0  0  0  0  0  0  0  0  0
    0.7500   -1.2990    0.0000 C   0  0  0  0  0  0  0  0  0  0  0  0
    1.5000    0.0000    0.0000 C   0  0  0  0  0  0  0  0  0  0  0  0
    0.7500    1.2990    0.0000 C   0  0  0  0  0  0  0  0  0  0  0  0
   -0.7500    1.2990    0.0000 C   0  0  0  0  0  0  0  0  0  0  0  0
   -1.5000    0.0000    0.0000 C   0  0  0  0  0  0  0  0  0  0  0  0
    1.7010   -0.7500    0.0000 C   0  0  0  0  0  0  0  0  0  0  0  0
    3.0000   -0.0000    0.0000 C   0  0  0  0  0  0  0  0  0  0  0  0
    2.2500    1.2990    0.0000 C   0  0  0  0  0  0  0  0  0  0  0  0
    2.2500   -1.2990    0.0000 C   0  0  0  0  0  0  0  0  0  0  0  0
   -0.7500   -1.2990    0.0000 C   0  0  0  0  0  0  0  0  0  0  0  0
    5.2500   -3.8971    0.0000 C   0  0  0  0  0  0  0  0  0  0  0  0
    6.0000   -5.1962    0.0000 C   0  0  0  0  0  0  0  0  0  0  0  0
    7.5000   -5.1962    0.0000 C   0  0  0  0  0  0  0  0  0  0  0  0
    8.2500   -3.8971    0.0000 C   0  0  0  0  0  0  0  0  0  0  0  0
    7.5000   -2.5981    0.0000 C   0  0  0  0  0  0  0  0  0  0  0  0
    6.0000   -2.5981    0.0000 C   0  0  0  0  0  0  0  0  0  0  0  0
  1  2  2  0
  2  3  1  0
  4  3  1  1
  4  5  1  0
  5  6  2  0
  5  7  1  0
  7  8  1  0
  8  9  1  0
  9 10  1  0
 10 11  1  0
 11 12  1  0
 12 13  1  0
 13 14  1  0
 14 15  1  0
  4 16  1  0
 16 17  1  0
 17 18  1  0
 18 19  1  0
 19 20  1  0
 20 21  1  0
 21 22  1  0
 22 23  1  0
 22 24  1  0
 20 25  1  0
  2 26  1  0
 26 27  1  0
 27 28  1  0
 28 29  1  0
 29 30  1  0
 30 31  1  0
 15 10  1  0
 24 16  1  0
 31 26  1  0
 25 16  1  0
 23 18  1  0
M  CHG  1  10   1
M  END
>  <Compound_ID>  (614) 
C05043618

>  <Active>  (614) 
0

>  <Smiles>  (614) 
O=C(N[C@@H](C(=O)NCC[NH+]1CCOCC1)C12CC3CC(CC(C3)C1)C2)C1CCCCC1

>  <canonical_smi>  (614) 
O=C(N[C@@H](C(=O)NCC[NH+]1CCOCC1)C12CC3CC(CC(C3)C1)C2)C1CCCCC1

>  <Set>  (614) 
G2 inactive

>  <Set_type>  (614) 
Test

>  <MW>  (614) 
432.63

>  <HBD>  (614) 
3

>  <HBA>  (614) 
3

>  <NRB>  (614) 
7

>  <NR>  (614) 
6

>  <NAR>  (614) 
0

>  <PSA>  (614) 
71.87

>  <Standard Type>  (614) 
nan

>  <Standard Relation>  (614) 
nan

>  <Standard Units>  (614) 
nan

>  <Standard Value>  (614) 
nan

>  <Assay ChEMBL ID>  (614) 
nan

>  <Assay Description>  (614) 
nan

>  <BAO Label>  (614) 
nan

$$$$

     RDKit          2D

 28 32  0  0  0  0  0  0  0  0999 V2000
   -9.7490   -9.3698    0.0000 C   0  0  0  0  0  0  0  0  0  0  0  0
   -8.3787   -8.7597    0.0000 C   0  0  0  0  0  0  0  0  0  0  0  0
   -7.1652   -9.6414    0.0000 C   0  0  0  0  0  0  0  0  0  0  0  0
   -7.3220  -11.1332    0.0000 C   0  0  0  0  0  0  0  0  0  0  0  0
   -6.1084  -12.0149    0.0000 O   0  0  0  0  0  0  0  0  0  0  0  0
   -4.7381  -11.4047    0.0000 C   0  0  0  0  0  0  0  0  0  0  0  0
   -3.5246  -12.2864    0.0000 C   0  0  0  0  0  0  0  0  0  0  0  0
   -2.1543  -11.6763    0.0000 C   0  0  0  0  0  0  0  0  0  0  0  0
   -1.9975  -10.1845    0.0000 C   0  0  0  0  0  0  0  0  0  0  0  0
   -3.2110   -9.3029    0.0000 C   0  0  0  0  0  0  0  0  0  0  0  0
   -3.0542   -7.8111    0.0000 C   0  0  0  0  0  0  0  0  0  0  0  0
   -1.6839   -7.2010    0.0000 S   0  0  0  0  0  0  0  0  0  0  0  0
   -1.5271   -5.7092    0.0000 C   0  0  0  0  0  0  0  0  0  0  0  0
   -2.7406   -4.8275    0.0000 N   0  0  0  0  0  0  0  0  0  0  0  0
   -2.5838   -3.3357    0.0000 N   0  0  0  0  0  0  0  0  0  0  0  0
   -1.2135   -2.7256    0.0000 C   0  0  0  0  0  0  0  0  0  0  0  0
   -0.0000   -3.6073    0.0000 C   0  0  0  0  0  0  0  0  0  0  0  0
   -0.1568   -5.0991    0.0000 N   0  0  0  0  0  0  0  0  0  0  0  0
    1.2135   -2.7256    0.0000 N   0  0  0  0  0  0  0  0  0  0  0  0
    0.7500   -1.2990    0.0000 C   0  0  0  0  0  0  0  0  0  0  0  0
    1.5000    0.0000    0.0000 C   0  0  0  0  0  0  0  0  0  0  0  0
    0.7500    1.2990    0.0000 C   0  0  0  0  0  0  0  0  0  0  0  0
   -0.7500    1.2990    0.0000 C   0  0  0  0  0  0  0  0  0  0  0  0
   -1.5000    0.0000    0.0000 C   0  0  0  0  0  0  0  0  0  0  0  0
   -0.7500   -1.2990    0.0000 C   0  0  0  0  0  0  0  0  0  0  0  0
   -4.5813   -9.9130    0.0000 C   0  0  0  0  0  0  0  0  0  0  0  0
   -8.6923  -11.7433    0.0000 C   0  0  0  0  0  0  0  0  0  0  0  0
   -9.9058  -10.8616    0.0000 C   0  0  0  0  0  0  0  0  0  0  0  0
  1  2  2  0
  2  3  1  0
  3  4  2  0
  4  5  1  0
  5  6  1  0
  6  7  2  0
  7  8  1  0
  8  9  2  0
  9 10  1  0
 10 11  1  0
 11 12  1  0
 12 13  1  0
 13 14  2  0
 14 15  1  0
 15 16  2  0
 16 17  1  0
 17 18  2  0
 17 19  1  0
 19 20  1  0
 20 21  2  0
 21 22  1  0
 22 23  2  0
 23 24  1  0
 24 25  2  0
 10 26  2  0
  4 27  1  0
 27 28  2  0
 28  1  1  0
 26  6  1  0
 18 13  1  0
 25 20  1  0
 25 16  1  0
M  END
>  <Compound_ID>  (615) 
C00829351

>  <Active>  (615) 
0

>  <Smiles>  (615) 
c1ccc(Oc2cccc(CSc3nnc4c(n3)[nH]c3ccccc34)c2)cc1

>  <canonical_smi>  (615) 
c1ccc(Oc2cccc(CSc3nnc4c(n3)[nH]c3ccccc34)c2)cc1

>  <Set>  (615) 
G2 inactive

>  <Set_type>  (615) 
Test

>  <MW>  (615) 
384.46

>  <HBD>  (615) 
1

>  <HBA>  (615) 
5

>  <NRB>  (615) 
5

>  <NR>  (615) 
5

>  <NAR>  (615) 
5

>  <PSA>  (615) 
63.69

>  <Standard Type>  (615) 
nan

>  <Standard Relation>  (615) 
nan

>  <Standard Units>  (615) 
nan

>  <Standard Value>  (615) 
nan

>  <Assay ChEMBL ID>  (615) 
nan

>  <Assay Description>  (615) 
nan

>  <BAO Label>  (615) 
nan

$$$$

     RDKit          2D

 30 33  0  0  0  0  0  0  0  0999 V2000
    3.7500   -1.2990    0.0000 C   0  0  0  0  0  0  0  0  0  0  0  0
    3.0000    0.0000    0.0000 O   0  0  0  0  0  0  0  0  0  0  0  0
    1.5000    0.0000    0.0000 C   0  0  0  0  0  0  0  0  0  0  0  0
    0.7500   -1.2990    0.0000 C   0  0  0  0  0  0  0  0  0  0  0  0
   -0.7500   -1.2990    0.0000 C   0  0  0  0  0  0  0  0  0  0  0  0
   -1.5000    0.0000    0.0000 C   0  0  0  0  0  0  0  0  0  0  0  0
   -0.7500    1.2990    0.0000 C   0  0  0  0  0  0  0  0  0  0  0  0
   -1.5000    2.5981    0.0000 C   0  0  0  0  0  0  0  0  0  0  0  0
   -0.7500    3.8971    0.0000 N   0  0  0  0  0  0  0  0  0  0  0  0
   -1.5000    5.1962    0.0000 C   0  0  0  0  0  0  0  0  0  0  0  0
   -2.9918    5.3529    0.0000 O   0  0  0  0  0  0  0  0  0  0  0  0
   -3.3037    6.8202    0.0000 C   0  0  0  0  0  0  0  0  0  0  0  0
   -4.6740    7.4303    0.0000 C   0  0  0  0  0  0  0  0  0  0  0  0
   -4.8308    8.9221    0.0000 C   0  0  0  0  0  0  0  0  0  0  0  0
   -6.2011    9.5322    0.0000 C   0  0  0  0  0  0  0  0  0  0  0  0
   -7.4146    8.6505    0.0000 C   0  0  0  0  0  0  0  0  0  0  0  0
   -7.2578    7.1587    0.0000 C   0  0  0  0  0  0  0  0  0  0  0  0
   -5.8875    6.5486    0.0000 C   0  0  0  0  0  0  0  0  0  0  0  0
   -2.0046    7.5702    0.0000 C   0  0  0  0  0  0  0  0  0  0  0  0
   -1.8478    9.0619    0.0000 C   0  0  0  0  0  0  0  0  0  0  0  0
   -0.4775    9.6721    0.0000 C   0  0  0  0  0  0  0  0  0  0  0  0
   -0.3207   11.1638    0.0000 C   0  0  0  0  0  0  0  0  0  0  0  0
   -1.5342   12.0455    0.0000 C   0  0  0  0  0  0  0  0  0  0  0  0
   -2.9046   11.4354    0.0000 C   0  0  0  0  0  0  0  0  0  0  0  0
   -3.0613    9.9436    0.0000 C   0  0  0  0  0  0  0  0  0  0  0  0
   -0.8899    6.5665    0.0000 C   0  0  0  0  0  0  0  0  0  0  0  0
    0.5773    6.8783    0.0000 C   0  0  0  0  0  0  0  0  0  0  0  0
    2.0445    7.1902    0.0000 N   0  0  0  0  0  0  0  0  0  0  0  0
    0.7500    1.2990    0.0000 C   0  0  0  0  0  0  0  0  0  0  0  0
    1.5000    2.5981    0.0000 O   0  0  0  0  0  0  0  0  0  0  0  0
  1  2  1  0
  2  3  1  0
  3  4  2  0
  4  5  1  0
  5  6  2  0
  6  7  1  0
  7  8  1  0
  8  9  2  0
  9 10  1  0
 10 11  1  0
 11 12  1  0
 12 13  1  0
 13 14  2  0
 14 15  1  0
 15 16  2  0
 16 17  1  0
 17 18  2  0
 12 19  2  0
 19 20  1  0
 20 21  2  0
 21 22  1  0
 22 23  2  0
 23 24  1  0
 24 25  2  0
 19 26  1  0
 26 27  1  0
 27 28  3  0
  7 29  2  0
 29 30  1  0
 29  3  1  0
 26 10  2  0
 18 13  1  0
 25 20  1  0
M  END
>  <Compound_ID>  (616) 
C03666077

>  <Active>  (616) 
0

>  <Smiles>  (616) 
COc1cccc(/C=N/c2oc(-c3ccccc3)c(-c3ccccc3)c2C#N)c1O

>  <canonical_smi>  (616) 
COc1cccc(/C=N/c2oc(-c3ccccc3)c(-c3ccccc3)c2C#N)c1O

>  <Set>  (616) 
G2 inactive

>  <Set_type>  (616) 
Test

>  <MW>  (616) 
394.43

>  <HBD>  (616) 
1

>  <HBA>  (616) 
4

>  <NRB>  (616) 
5

>  <NR>  (616) 
4

>  <NAR>  (616) 
4

>  <PSA>  (616) 
78.75

>  <Standard Type>  (616) 
nan

>  <Standard Relation>  (616) 
nan

>  <Standard Units>  (616) 
nan

>  <Standard Value>  (616) 
nan

>  <Assay ChEMBL ID>  (616) 
nan

>  <Assay Description>  (616) 
nan

>  <BAO Label>  (616) 
nan

$$$$

     RDKit          2D

 21 23  0  0  0  0  0  0  0  0999 V2000
    0.0361   12.0242    0.0000 C   0  0  0  0  0  0  0  0  0  0  0  0
   -0.2758   10.5570    0.0000 C   0  0  0  0  0  0  0  0  0  0  0  0
    0.8389    9.5533    0.0000 C   0  0  0  0  0  0  0  0  0  0  0  0
    0.5271    8.0861    0.0000 C   0  0  0  0  0  0  0  0  0  0  0  0
   -0.8995    7.6226    0.0000 C   0  0  0  0  0  0  0  0  0  0  0  0
   -1.2114    6.1554    0.0000 N   0  0  0  0  0  0  0  0  0  0  0  0
   -0.0967    5.1517    0.0000 C   0  0  0  0  0  0  0  0  0  0  0  0
    1.3299    5.6152    0.0000 C   0  0  0  0  0  0  0  0  0  0  0  0
   -0.4086    3.6844    0.0000 C   0  0  0  0  0  0  0  0  0  0  0  0
   -1.8351    3.2209    0.0000 C   0  0  0  0  0  0  0  0  0  0  0  0
   -2.1470    1.7537    0.0000 C   0  0  0  0  0  0  0  0  0  0  0  0
   -1.0323    0.7500    0.0000 C   0  0  0  0  0  0  0  0  0  0  0  0
    0.3943    1.2135    0.0000 C   0  0  0  0  0  0  0  0  0  0  0  0
    0.7062    2.6807    0.0000 C   0  0  0  0  0  0  0  0  0  0  0  0
    1.2760    0.0000    0.0000 C   0  0  0  0  0  0  0  0  0  0  0  0
    0.3943   -1.2135    0.0000 C   0  0  0  0  0  0  0  0  0  0  0  0
   -1.0323   -0.7500    0.0000 O   0  0  0  0  0  0  0  0  0  0  0  0
   -2.0143    8.6263    0.0000 C   0  0  0  0  0  0  0  0  0  0  0  0
   -3.4408    8.1628    0.0000 C   0  0  0  0  0  0  0  0  0  0  0  0
   -1.7024   10.0935    0.0000 C   0  0  0  0  0  0  0  0  0  0  0  0
   -2.8171   11.0972    0.0000 O   0  0  0  0  0  0  0  0  0  0  0  0
  1  2  1  0
  2  3  2  0
  3  4  1  0
  4  5  2  0
  5  6  1  0
  6  7  1  0
  7  8  1  6
  7  9  1  0
  9 10  2  0
 10 11  1  0
 11 12  2  0
 12 13  1  0
 13 14  2  0
 13 15  1  0
 15 16  1  0
 16 17  1  0
  5 18  1  0
 18 19  1  0
 18 20  2  0
 20 21  1  0
 20  2  1  0
 14  9  1  0
 17 12  1  0
M  END
>  <Compound_ID>  (617) 
C37316535

>  <Active>  (617) 
0

>  <Smiles>  (617) 
Cc1ccc(N[C@H](C)c2ccc3c(c2)CCO3)c(C)c1O

>  <canonical_smi>  (617) 
Cc1ccc(N[C@H](C)c2ccc3c(c2)CCO3)c(C)c1O

>  <Set>  (617) 
G2 inactive

>  <Set_type>  (617) 
Test

>  <MW>  (617) 
283.37

>  <HBD>  (617) 
2

>  <HBA>  (617) 
3

>  <NRB>  (617) 
3

>  <NR>  (617) 
3

>  <NAR>  (617) 
2

>  <PSA>  (617) 
41.49

>  <Standard Type>  (617) 
nan

>  <Standard Relation>  (617) 
nan

>  <Standard Units>  (617) 
nan

>  <Standard Value>  (617) 
nan

>  <Assay ChEMBL ID>  (617) 
nan

>  <Assay Description>  (617) 
nan

>  <BAO Label>  (617) 
nan

$$$$

     RDKit          2D

 17 18  0  0  0  0  0  0  0  0999 V2000
   -2.5081   -6.0187    0.0000 C   0  0  0  0  0  0  0  0  0  0  0  0
   -1.0409   -5.7068    0.0000 C   0  0  0  0  0  0  0  0  0  0  0  0
   -0.5773   -4.2803    0.0000 C   0  0  0  0  0  0  0  0  0  0  0  0
    0.8899   -3.9684    0.0000 C   0  0  0  0  0  0  0  0  0  0  0  0
    2.0046   -4.9721    0.0000 N   0  0  0  0  0  0  0  0  0  0  0  0
    3.3037   -4.2221    0.0000 O   0  0  0  0  0  0  0  0  0  0  0  0
    2.9918   -2.7549    0.0000 C   0  0  0  0  0  0  0  0  0  0  0  0
    3.9955   -1.6402    0.0000 N   0  0  0  0  0  0  0  0  0  0  0  0
    1.5000   -2.5981    0.0000 C   0  0  0  0  0  0  0  0  0  0  0  0
    0.7500   -1.2990    0.0000 C   0  0  0  0  0  0  0  0  0  0  0  0
    1.5000    0.0000    0.0000 C   0  0  0  0  0  0  0  0  0  0  0  0
    0.7500    1.2990    0.0000 C   0  0  0  0  0  0  0  0  0  0  0  0
   -0.7500    1.2990    0.0000 C   0  0  0  0  0  0  0  0  0  0  0  0
   -1.5000    2.5981    0.0000 Cl  0  0  0  0  0  0  0  0  0  0  0  0
   -1.5000    0.0000    0.0000 C   0  0  0  0  0  0  0  0  0  0  0  0
   -3.0000    0.0000    0.0000 Cl  0  0  0  0  0  0  0  0  0  0  0  0
   -0.7500   -1.2990    0.0000 C   0  0  0  0  0  0  0  0  0  0  0  0
  1  2  1  0
  2  3  1  0
  3  4  1  0
  4  5  2  0
  5  6  1  0
  6  7  1  0
  7  8  1  0
  7  9  2  0
  9 10  1  0
 10 11  2  0
 11 12  1  0
 12 13  2  0
 13 14  1  0
 13 15  1  0
 15 16  1  0
 15 17  2  0
  9  4  1  0
 17 10  1  0
M  END
>  <Compound_ID>  (618) 
C41392915

>  <Active>  (618) 
0

>  <Smiles>  (618) 
CCCc1noc(N)c1-c1ccc(Cl)c(Cl)c1

>  <canonical_smi>  (618) 
CCCc1noc(N)c1-c1ccc(Cl)c(Cl)c1

>  <Set>  (618) 
G2 inactive

>  <Set_type>  (618) 
Test

>  <MW>  (618) 
271.15

>  <HBD>  (618) 
1

>  <HBA>  (618) 
3

>  <NRB>  (618) 
3

>  <NR>  (618) 
2

>  <NAR>  (618) 
2

>  <PSA>  (618) 
52.05

>  <Standard Type>  (618) 
nan

>  <Standard Relation>  (618) 
nan

>  <Standard Units>  (618) 
nan

>  <Standard Value>  (618) 
nan

>  <Assay ChEMBL ID>  (618) 
nan

>  <Assay Description>  (618) 
nan

>  <BAO Label>  (618) 
nan

$$$$

     RDKit          2D

 19 22  0  0  0  0  0  0  0  0999 V2000
   -3.1362  -11.3157    0.0000 C   0  0  0  0  0  0  0  0  0  0  0  0
   -4.1968  -10.2551    0.0000 C   0  0  0  0  0  0  0  0  0  0  0  0
   -3.8086   -8.8062    0.0000 C   0  0  0  0  0  0  0  0  0  0  0  0
   -2.3597   -8.4180    0.0000 C   0  0  0  0  0  0  0  0  0  0  0  0
   -1.2990   -9.4786    0.0000 C   0  0  0  0  0  0  0  0  0  0  0  0
   -1.6873  -10.9275    0.0000 C   0  0  0  0  0  0  0  0  0  0  0  0
   -0.2384   -8.4180    0.0000 C   0  0  0  0  0  0  0  0  0  0  0  0
   -1.2990   -7.3573    0.0000 C   0  0  0  0  0  0  0  0  0  0  0  0
   -1.2990   -5.8573    0.0000 C   0  0  0  0  0  0  0  0  0  0  0  0
   -0.0000   -5.1073    0.0000 N   0  0  0  0  0  0  0  0  0  0  0  0
   -0.0000   -3.6073    0.0000 C   0  0  0  0  0  0  0  0  0  0  0  0
    1.2135   -2.7256    0.0000 N   0  0  0  0  0  0  0  0  0  0  0  0
    0.7500   -1.2990    0.0000 C   0  0  0  0  0  0  0  0  0  0  0  0
    1.5000    0.0000    0.0000 C   0  0  0  0  0  0  0  0  0  0  0  0
    0.7500    1.2990    0.0000 C   0  0  0  0  0  0  0  0  0  0  0  0
   -0.7500    1.2990    0.0000 C   0  0  0  0  0  0  0  0  0  0  0  0
   -1.5000    0.0000    0.0000 C   0  0  0  0  0  0  0  0  0  0  0  0
   -0.7500   -1.2990    0.0000 C   0  0  0  0  0  0  0  0  0  0  0  0
   -1.2135   -2.7256    0.0000 O   0  0  0  0  0  0  0  0  0  0  0  0
  1  2  2  0
  2  3  1  0
  3  4  2  0
  4  5  1  0
  5  6  2  0
  5  7  1  0
  7  8  1  0
  8  9  1  6
  9 10  1  0
 10 11  1  0
 11 12  2  0
 12 13  1  0
 13 14  2  0
 14 15  1  0
 15 16  2  0
 16 17  1  0
 17 18  2  0
 18 19  1  0
  6  1  1  0
 19 11  1  0
  8  4  1  0
 18 13  1  0
M  END
>  <Compound_ID>  (619) 
C38008269

>  <Active>  (619) 
0

>  <Smiles>  (619) 
c1ccc2c(c1)C[C@H]2CNc1nc2ccccc2o1

>  <canonical_smi>  (619) 
c1ccc2c(c1)C[C@H]2CNc1nc2ccccc2o1

>  <Set>  (619) 
G2 inactive

>  <Set_type>  (619) 
Test

>  <MW>  (619) 
250.3

>  <HBD>  (619) 
1

>  <HBA>  (619) 
3

>  <NRB>  (619) 
3

>  <NR>  (619) 
4

>  <NAR>  (619) 
3

>  <PSA>  (619) 
38.06

>  <Standard Type>  (619) 
nan

>  <Standard Relation>  (619) 
nan

>  <Standard Units>  (619) 
nan

>  <Standard Value>  (619) 
nan

>  <Assay ChEMBL ID>  (619) 
nan

>  <Assay Description>  (619) 
nan

>  <BAO Label>  (619) 
nan

$$$$

     RDKit          2D

 26 28  0  0  0  0  0  0  0  0999 V2000
   -3.7500   -3.8971    0.0000 C   0  0  0  0  0  0  0  0  0  0  0  0
   -3.0000   -2.5981    0.0000 C   0  0  0  0  0  0  0  0  0  0  0  0
   -3.7500   -1.2990    0.0000 N   0  0  0  0  0  0  0  0  0  0  0  0
   -5.2500   -1.2990    0.0000 C   0  0  0  0  0  0  0  0  0  0  0  0
   -6.0000   -2.5981    0.0000 O   0  0  0  0  0  0  0  0  0  0  0  0
   -6.0000    0.0000    0.0000 N   0  0  0  0  0  0  0  0  0  0  0  0
   -7.5000    0.0000    0.0000 C   0  0  0  0  0  0  0  0  0  0  0  0
   -8.2500    1.2990    0.0000 C   0  0  0  0  0  0  0  0  0  0  0  0
   -7.5000    2.5981    0.0000 C   0  0  0  0  0  0  0  0  0  0  0  0
   -8.2500    3.8971    0.0000 C   0  0  0  0  0  0  0  0  0  0  0  0
   -9.7500    3.8971    0.0000 N   0  0  0  0  0  4  0  0  0  0  0  0
  -10.5000    2.5981    0.0000 C   0  0  0  0  0  0  0  0  0  0  0  0
  -12.0000    2.5981    0.0000 N   0  0  0  0  0  0  0  0  0  0  0  0
  -12.7500    3.8971    0.0000 C   0  0  0  0  0  0  0  0  0  0  0  0
  -12.7500    1.2990    0.0000 C   0  0  0  0  0  0  0  0  0  0  0  0
   -9.7500    1.2990    0.0000 C   0  0  0  0  0  0  0  0  0  0  0  0
   -1.5000   -2.5981    0.0000 C   0  0  0  0  0  0  0  0  0  0  0  0
   -0.7500   -3.8971    0.0000 C   0  0  0  0  0  0  0  0  0  0  0  0
    0.7500   -3.8971    0.0000 C   0  0  0  0  0  0  0  0  0  0  0  0
    1.5000   -2.5981    0.0000 C   0  0  0  0  0  0  0  0  0  0  0  0
    0.7500   -1.2990    0.0000 C   0  0  0  0  0  0  0  0  0  0  0  0
    1.5000    0.0000    0.0000 C   0  0  0  0  0  0  0  0  0  0  0  0
    0.7500    1.2990    0.0000 C   0  0  0  0  0  0  0  0  0  0  0  0
   -0.7500    1.2990    0.0000 C   0  0  0  0  0  0  0  0  0  0  0  0
   -1.5000    0.0000    0.0000 C   0  0  0  0  0  0  0  0  0  0  0  0
   -0.7500   -1.2990    0.0000 C   0  0  0  0  0  0  0  0  0  0  0  0
  2  1  1  1
  2  3  1  0
  3  4  1  0
  4  5  2  0
  4  6  1  0
  6  7  1  0
  7  8  1  0
  8  9  2  0
  9 10  1  0
 10 11  2  0
 11 12  1  0
 12 13  1  0
 13 14  1  0
 13 15  1  0
 12 16  2  0
  2 17  1  0
 17 18  2  0
 18 19  1  0
 19 20  2  0
 20 21  1  0
 21 22  2  0
 22 23  1  0
 23 24  2  0
 24 25  1  0
 25 26  2  0
 16  8  1  0
 26 17  1  0
 26 21  1  0
M  CHG  1  11   1
M  END
>  <Compound_ID>  (620) 
C47959406

>  <Active>  (620) 
0

>  <Smiles>  (620) 
C[C@@H](NC(=O)NCc1cc[nH+]c(N(C)C)c1)c1cccc2ccccc12

>  <canonical_smi>  (620) 
C[C@@H](NC(=O)NCc1cc[nH+]c(N(C)C)c1)c1cccc2ccccc12

>  <Set>  (620) 
G2 inactive

>  <Set_type>  (620) 
Test

>  <MW>  (620) 
349.46

>  <HBD>  (620) 
2

>  <HBA>  (620) 
2

>  <NRB>  (620) 
5

>  <NR>  (620) 
3

>  <NAR>  (620) 
3

>  <PSA>  (620) 
58.51

>  <Standard Type>  (620) 
nan

>  <Standard Relation>  (620) 
nan

>  <Standard Units>  (620) 
nan

>  <Standard Value>  (620) 
nan

>  <Assay ChEMBL ID>  (620) 
nan

>  <Assay Description>  (620) 
nan

>  <BAO Label>  (620) 
nan

$$$$

     RDKit          2D

 24 24  0  0  0  0  0  0  0  0999 V2000
    8.2500    3.8971    0.0000 C   0  0  0  0  0  0  0  0  0  0  0  0
    7.5000    2.5981    0.0000 C   0  0  0  0  0  0  0  0  0  0  0  0
    6.0000    2.5981    0.0000 N   0  0  0  0  0  4  0  0  0  0  0  0
    5.2500    1.2990    0.0000 C   0  0  0  0  0  0  0  0  0  0  0  0
    3.7500    1.2990    0.0000 C   0  0  0  0  0  0  0  0  0  0  0  0
    3.0000    2.5981    0.0000 O   0  0  0  0  0  0  0  0  0  0  0  0
    3.0000    0.0000    0.0000 N   0  0  0  0  0  0  0  0  0  0  0  0
    1.5000    0.0000    0.0000 C   0  0  0  0  0  0  0  0  0  0  0  0
    0.7500   -1.2990    0.0000 C   0  0  0  0  0  0  0  0  0  0  0  0
    1.5000   -2.5981    0.0000 C   0  0  0  0  0  0  0  0  0  0  0  0
   -0.7500   -1.2990    0.0000 C   0  0  0  0  0  0  0  0  0  0  0  0
   -1.5000    0.0000    0.0000 C   0  0  0  0  0  0  0  0  0  0  0  0
   -3.0000    0.0000    0.0000 C   0  0  0  0  0  0  0  0  0  0  0  0
   -0.7500    1.2990    0.0000 C   0  0  0  0  0  0  0  0  0  0  0  0
    0.7500    1.2990    0.0000 C   0  0  0  0  0  0  0  0  0  0  0  0
    1.5000    2.5981    0.0000 Cl  0  0  0  0  0  0  0  0  0  0  0  0
    5.2500    3.8971    0.0000 C   0  0  0  0  0  0  0  0  0  0  0  0
    6.0000    5.1962    0.0000 C   0  0  0  0  0  0  0  0  0  0  0  0
    7.5000    5.1962    0.0000 O   0  0  0  0  0  0  0  0  0  0  0  0
    5.2500    6.4952    0.0000 N   0  0  0  0  0  0  0  0  0  0  0  0
    6.0000    7.7942    0.0000 C   0  0  0  0  0  0  0  0  0  0  0  0
    4.7010    8.5442    0.0000 C   0  0  0  0  0  0  0  0  0  0  0  0
    7.2990    7.0442    0.0000 C   0  0  0  0  0  0  0  0  0  0  0  0
    6.7500    9.0933    0.0000 C   0  0  0  0  0  0  0  0  0  0  0  0
  1  2  1  0
  2  3  1  0
  3  4  1  0
  4  5  1  0
  5  6  2  0
  5  7  1  0
  7  8  1  0
  8  9  2  0
  9 10  1  0
  9 11  1  0
 11 12  2  0
 12 13  1  0
 12 14  1  0
 14 15  2  0
 15 16  1  0
  3 17  1  0
 17 18  1  0
 18 19  2  0
 18 20  1  0
 20 21  1  0
 21 22  1  0
 21 23  1  0
 21 24  1  0
 15  8  1  0
M  CHG  1   3   1
M  END
>  <Compound_ID>  (621) 
C07683997

>  <Active>  (621) 
0

>  <Smiles>  (621) 
CC[NH+](CC(=O)Nc1c(C)cc(C)cc1Cl)CC(=O)NC(C)(C)C

>  <canonical_smi>  (621) 
CC[NH+](CC(=O)Nc1c(C)cc(C)cc1Cl)CC(=O)NC(C)(C)C

>  <Set>  (621) 
G2 inactive

>  <Set_type>  (621) 
Test

>  <MW>  (621) 
354.9

>  <HBD>  (621) 
3

>  <HBA>  (621) 
2

>  <NRB>  (621) 
6

>  <NR>  (621) 
1

>  <NAR>  (621) 
1

>  <PSA>  (621) 
62.64

>  <Standard Type>  (621) 
nan

>  <Standard Relation>  (621) 
nan

>  <Standard Units>  (621) 
nan

>  <Standard Value>  (621) 
nan

>  <Assay ChEMBL ID>  (621) 
nan

>  <Assay Description>  (621) 
nan

>  <BAO Label>  (621) 
nan

$$$$

     RDKit          2D

 27 30  0  0  0  0  0  0  0  0999 V2000
   -8.7947    0.2205    0.0000 C   0  0  0  0  0  0  0  0  0  0  0  0
   -9.7984   -0.8943    0.0000 C   0  0  0  0  0  0  0  0  0  0  0  0
  -11.2657   -0.5824    0.0000 O   0  0  0  0  0  0  0  0  0  0  0  0
   -9.3349   -2.3208    0.0000 C   0  0  0  0  0  0  0  0  0  0  0  0
  -10.2166   -3.5344    0.0000 C   0  0  0  0  0  0  0  0  0  0  0  0
  -11.7166   -3.5344    0.0000 C   0  0  0  0  0  0  0  0  0  0  0  0
   -9.3349   -4.7479    0.0000 N   0  0  0  0  0  0  0  0  0  0  0  0
   -7.9083   -4.2844    0.0000 C   0  0  0  0  0  0  0  0  0  0  0  0
   -6.6948   -5.1660    0.0000 C   0  0  0  0  0  0  0  0  0  0  0  0
   -6.8516   -6.6578    0.0000 O   0  0  0  0  0  0  0  0  0  0  0  0
   -5.3245   -4.5559    0.0000 C   0  0  0  0  0  0  0  0  0  0  0  0
   -4.1110   -5.4376    0.0000 O   0  0  0  0  0  0  0  0  0  0  0  0
   -2.7406   -4.8275    0.0000 C   0  0  0  0  0  0  0  0  0  0  0  0
   -1.5271   -5.7092    0.0000 C   0  0  0  0  0  0  0  0  0  0  0  0
   -0.1568   -5.0991    0.0000 C   0  0  0  0  0  0  0  0  0  0  0  0
   -0.0000   -3.6073    0.0000 C   0  0  0  0  0  0  0  0  0  0  0  0
    1.2135   -2.7256    0.0000 O   0  0  0  0  0  0  0  0  0  0  0  0
    0.7500   -1.2990    0.0000 C   0  0  0  0  0  0  0  0  0  0  0  0
    1.5000    0.0000    0.0000 C   0  0  0  0  0  0  0  0  0  0  0  0
    0.7500    1.2990    0.0000 C   0  0  0  0  0  0  0  0  0  0  0  0
   -0.7500    1.2990    0.0000 C   0  0  0  0  0  0  0  0  0  0  0  0
   -1.5000    0.0000    0.0000 C   0  0  0  0  0  0  0  0  0  0  0  0
   -0.7500   -1.2990    0.0000 C   0  0  0  0  0  0  0  0  0  0  0  0
   -1.2135   -2.7256    0.0000 C   0  0  0  0  0  0  0  0  0  0  0  0
   -2.5838   -3.3357    0.0000 C   0  0  0  0  0  0  0  0  0  0  0  0
   -7.9083   -2.7844    0.0000 C   0  0  0  0  0  0  0  0  0  0  0  0
   -6.6948   -1.9027    0.0000 C   0  0  0  0  0  0  0  0  0  0  0  0
  1  2  1  0
  2  3  2  0
  2  4  1  0
  4  5  2  0
  5  6  1  0
  5  7  1  0
  7  8  1  0
  8  9  1  0
  9 10  2  0
  9 11  1  0
 11 12  1  0
 12 13  1  0
 13 14  2  0
 14 15  1  0
 15 16  2  0
 16 17  1  0
 17 18  1  0
 18 19  2  0
 19 20  1  0
 20 21  2  0
 21 22  1  0
 22 23  2  0
 23 24  1  0
 24 25  2  0
  8 26  2  0
 26 27  1  0
 26  4  1  0
 25 13  1  0
 24 16  1  0
 23 18  1  0
M  END
>  <Compound_ID>  (622) 
C08099441

>  <Active>  (622) 
0

>  <Smiles>  (622) 
CC(=O)c1c(C)[nH]c(C(=O)COc2ccc3oc4ccccc4c3c2)c1C

>  <canonical_smi>  (622) 
CC(=O)c1c(C)[nH]c(C(=O)COc2ccc3oc4ccccc4c3c2)c1C

>  <Set>  (622) 
G2 inactive

>  <Set_type>  (622) 
Test

>  <MW>  (622) 
361.4

>  <HBD>  (622) 
1

>  <HBA>  (622) 
4

>  <NRB>  (622) 
5

>  <NR>  (622) 
4

>  <NAR>  (622) 
4

>  <PSA>  (622) 
72.3

>  <Standard Type>  (622) 
nan

>  <Standard Relation>  (622) 
nan

>  <Standard Units>  (622) 
nan

>  <Standard Value>  (622) 
nan

>  <Assay ChEMBL ID>  (622) 
nan

>  <Assay Description>  (622) 
nan

>  <BAO Label>  (622) 
nan

$$$$

     RDKit          2D

 26 28  0  0  0  0  0  0  0  0999 V2000
    2.1748  -13.7968    0.0000 C   0  0  0  0  0  0  0  0  0  0  0  0
    1.2931  -12.5833    0.0000 C   0  0  0  0  0  0  0  0  0  0  0  0
    1.9033  -11.2129    0.0000 C   0  0  0  0  0  0  0  0  0  0  0  0
    1.0216   -9.9994    0.0000 N   0  0  0  0  0  0  0  0  0  0  0  0
    1.6317   -8.6291    0.0000 C   0  0  0  0  0  0  0  0  0  0  0  0
    3.1235   -8.4723    0.0000 C   0  0  0  0  0  0  0  0  0  0  0  0
    4.0051   -9.6858    0.0000 C   0  0  0  0  0  0  0  0  0  0  0  0
    0.7500   -7.4156    0.0000 C   0  0  0  0  0  0  0  0  0  0  0  0
    1.2135   -5.9890    0.0000 C   0  0  0  0  0  0  0  0  0  0  0  0
    2.6401   -5.5255    0.0000 O   0  0  0  0  0  0  0  0  0  0  0  0
   -0.0000   -5.1073    0.0000 N   0  0  0  0  0  0  0  0  0  0  0  0
   -0.0000   -3.6073    0.0000 C   0  0  0  0  0  0  0  0  0  0  0  0
    1.2135   -2.7256    0.0000 N   0  0  0  0  0  0  0  0  0  0  0  0
    0.7500   -1.2990    0.0000 C   0  0  0  0  0  0  0  0  0  0  0  0
    1.5000    0.0000    0.0000 C   0  0  0  0  0  0  0  0  0  0  0  0
    0.7500    1.2990    0.0000 C   0  0  0  0  0  0  0  0  0  0  0  0
   -0.7500    1.2990    0.0000 C   0  0  0  0  0  0  0  0  0  0  0  0
   -1.5000    0.0000    0.0000 C   0  0  0  0  0  0  0  0  0  0  0  0
   -0.7500   -1.2990    0.0000 C   0  0  0  0  0  0  0  0  0  0  0  0
   -1.2135   -2.7256    0.0000 S   0  0  0  0  0  0  0  0  0  0  0  0
   -1.2135   -5.9890    0.0000 N   0  0  0  0  0  0  0  0  0  0  0  0
   -0.7500   -7.4156    0.0000 C   0  0  0  0  0  0  0  0  0  0  0  0
   -1.6317   -8.6291    0.0000 C   0  0  0  0  0  0  0  0  0  0  0  0
   -2.5134   -9.8426    0.0000 F   0  0  0  0  0  0  0  0  0  0  0  0
   -2.8452   -7.7474    0.0000 F   0  0  0  0  0  0  0  0  0  0  0  0
   -0.4182   -9.5108    0.0000 F   0  0  0  0  0  0  0  0  0  0  0  0
  1  2  1  0
  2  3  1  0
  3  4  1  0
  4  5  1  0
  5  6  1  0
  6  7  1  0
  5  8  2  0
  8  9  1  0
  9 10  2  0
  9 11  1  0
 11 12  1  0
 12 13  2  0
 13 14  1  0
 14 15  2  0
 15 16  1  0
 16 17  2  0
 17 18  1  0
 18 19  2  0
 19 20  1  0
 11 21  1  0
 21 22  2  0
 22 23  1  0
 23 24  1  0
 23 25  1  0
 23 26  1  0
 22  8  1  0
 20 12  1  0
 19 14  1  0
M  END
>  <Compound_ID>  (623) 
C05977879

>  <Active>  (623) 
0

>  <Smiles>  (623) 
CCCN/C(CC)=C1/C(=O)N(c2nc3ccccc3s2)N=C1C(F)(F)F

>  <canonical_smi>  (623) 
CCCN/C(CC)=C1/C(=O)N(c2nc3ccccc3s2)N=C1C(F)(F)F

>  <Set>  (623) 
G2 inactive

>  <Set_type>  (623) 
Test

>  <MW>  (623) 
382.41

>  <HBD>  (623) 
1

>  <HBA>  (623) 
3

>  <NRB>  (623) 
5

>  <NR>  (623) 
3

>  <NAR>  (623) 
2

>  <PSA>  (623) 
57.59

>  <Standard Type>  (623) 
nan

>  <Standard Relation>  (623) 
nan

>  <Standard Units>  (623) 
nan

>  <Standard Value>  (623) 
nan

>  <Assay ChEMBL ID>  (623) 
nan

>  <Assay Description>  (623) 
nan

>  <BAO Label>  (623) 
nan

$$$$

     RDKit          2D

 21 22  0  0  0  0  0  0  0  0999 V2000
    3.0000    0.0000    0.0000 C   0  0  0  0  0  0  0  0  0  0  0  0
    1.5000    0.0000    0.0000 C   0  0  0  0  0  0  0  0  0  0  0  0
    0.7500   -1.2990    0.0000 C   0  0  0  0  0  0  0  0  0  0  0  0
   -0.7500   -1.2990    0.0000 C   0  0  0  0  0  0  0  0  0  0  0  0
   -1.5000    0.0000    0.0000 C   0  0  0  0  0  0  0  0  0  0  0  0
   -3.0000    0.0000    0.0000 C   0  0  0  0  0  0  0  0  0  0  0  0
   -3.7500    1.2990    0.0000 N   0  0  0  0  0  0  0  0  0  0  0  0
   -3.0000    2.5981    0.0000 N   0  0  0  0  0  0  0  0  0  0  0  0
   -3.7500    3.8971    0.0000 C   0  0  0  0  0  0  0  0  0  0  0  0
   -5.2500    3.8971    0.0000 O   0  0  0  0  0  0  0  0  0  0  0  0
   -3.0000    5.1962    0.0000 C   0  0  0  0  0  0  0  0  0  0  0  0
   -3.6101    6.5665    0.0000 C   0  0  0  0  0  0  0  0  0  0  0  0
   -2.4954    7.5702    0.0000 C   0  0  0  0  0  0  0  0  0  0  0  0
   -2.6522    9.0619    0.0000 C   0  0  0  0  0  0  0  0  0  0  0  0
   -1.1604    9.2187    0.0000 C   0  0  0  0  0  0  0  0  0  0  0  0
   -4.1440    8.9052    0.0000 C   0  0  0  0  0  0  0  0  0  0  0  0
   -2.8090   10.5537    0.0000 C   0  0  0  0  0  0  0  0  0  0  0  0
   -1.1963    6.8202    0.0000 N   0  0  0  0  0  0  0  0  0  0  0  0
   -1.5082    5.3529    0.0000 N   0  0  0  0  0  0  0  0  0  0  0  0
   -0.7500    1.2990    0.0000 C   0  0  0  0  0  0  0  0  0  0  0  0
    0.7500    1.2990    0.0000 C   0  0  0  0  0  0  0  0  0  0  0  0
  1  2  1  0
  2  3  2  0
  3  4  1  0
  4  5  2  0
  5  6  1  0
  6  7  2  0
  7  8  1  0
  8  9  1  0
  9 10  2  0
 11  9  1  1
 11 12  1  0
 12 13  2  0
 13 14  1  0
 14 15  1  0
 14 16  1  0
 14 17  1  0
 13 18  1  0
 18 19  2  0
  5 20  1  0
 20 21  2  0
 21  2  1  0
 19 11  1  0
M  END
>  <Compound_ID>  (624) 
C39922446

>  <Active>  (624) 
0

>  <Smiles>  (624) 
Cc1ccc(/C=N\NC(=O)[C@H]2C=C(C(C)(C)C)N=N2)cc1

>  <canonical_smi>  (624) 
Cc1ccc(/C=N\NC(=O)[C@H]2C=C(C(C)(C)C)N=N2)cc1

>  <Set>  (624) 
G2 inactive

>  <Set_type>  (624) 
Test

>  <MW>  (624) 
284.36

>  <HBD>  (624) 
1

>  <HBA>  (624) 
1

>  <NRB>  (624) 
3

>  <NR>  (624) 
2

>  <NAR>  (624) 
1

>  <PSA>  (624) 
66.18

>  <Standard Type>  (624) 
nan

>  <Standard Relation>  (624) 
nan

>  <Standard Units>  (624) 
nan

>  <Standard Value>  (624) 
nan

>  <Assay ChEMBL ID>  (624) 
nan

>  <Assay Description>  (624) 
nan

>  <BAO Label>  (624) 
nan

$$$$

     RDKit          2D

 29 33  0  0  0  0  0  0  0  0999 V2000
   -1.5000   -5.1962    0.0000 O   0  0  0  0  0  0  0  0  0  0  0  0
   -0.7500   -3.8971    0.0000 C   0  0  0  0  0  0  0  0  0  0  0  0
    0.7500   -3.8971    0.0000 C   0  0  0  0  0  0  0  0  0  0  0  0
    1.5000   -2.5981    0.0000 C   0  0  0  0  0  0  0  0  0  0  0  0
    3.0000   -2.5981    0.0000 C   0  0  0  0  0  0  0  0  0  0  0  0
    3.7500   -1.2990    0.0000 O   0  0  0  0  0  0  0  0  0  0  0  0
    3.7500   -3.8971    0.0000 N   0  0  0  0  0  0  0  0  0  0  0  0
    5.2500   -3.8971    0.0000 C   0  0  0  0  0  0  0  0  0  0  0  0
    6.0000   -5.1962    0.0000 C   0  0  0  0  0  0  0  0  0  0  0  0
    7.4918   -5.3529    0.0000 C   0  0  0  0  0  0  0  0  0  0  0  0
    7.8037   -6.8202    0.0000 C   0  0  0  0  0  0  0  0  0  0  0  0
    6.5046   -7.5702    0.0000 C   0  0  0  0  0  0  0  0  0  0  0  0
    5.3899   -6.5665    0.0000 O   0  0  0  0  0  0  0  0  0  0  0  0
    3.0000   -5.1962    0.0000 C   0  0  0  0  0  0  0  0  0  0  0  0
    1.5082   -5.3529    0.0000 N   0  0  0  0  0  0  0  0  0  0  0  0
    1.1963   -6.8202    0.0000 C   0  0  0  0  0  0  0  0  0  0  0  0
   -0.1027   -7.5702    0.0000 C   0  0  0  0  0  0  0  0  0  0  0  0
   -0.1027   -9.0702    0.0000 C   0  0  0  0  0  0  0  0  0  0  0  0
    1.1963   -9.8202    0.0000 C   0  0  0  0  0  0  0  0  0  0  0  0
    2.4954   -9.0702    0.0000 C   0  0  0  0  0  0  0  0  0  0  0  0
    2.4954   -7.5702    0.0000 C   0  0  0  0  0  0  0  0  0  0  0  0
    3.6101   -6.5665    0.0000 S   0  0  0  0  0  0  0  0  0  0  0  0
    0.7500   -1.2990    0.0000 C   0  0  0  0  0  0  0  0  0  0  0  0
    1.5000    0.0000    0.0000 C   0  0  0  0  0  0  0  0  0  0  0  0
    0.7500    1.2990    0.0000 C   0  0  0  0  0  0  0  0  0  0  0  0
   -0.7500    1.2990    0.0000 C   0  0  0  0  0  0  0  0  0  0  0  0
   -1.5000    0.0000    0.0000 C   0  0  0  0  0  0  0  0  0  0  0  0
   -0.7500   -1.2990    0.0000 C   0  0  0  0  0  0  0  0  0  0  0  0
   -1.5000   -2.5981    0.0000 N   0  0  0  0  0  4  0  0  0  0  0  0
  1  2  2  0
  2  3  1  0
  3  4  1  0
  4  5  1  0
  5  6  2  0
  5  7  1  0
  7  8  1  0
  9  8  1  1
  9 10  1  0
 10 11  1  0
 11 12  1  0
 12 13  1  0
 14  7  1  6
 14 15  1  0
 15 16  1  0
 16 17  2  0
 17 18  1  0
 18 19  2  0
 19 20  1  0
 20 21  2  0
 21 22  1  0
  4 23  2  0
 23 24  1  0
 24 25  2  0
 25 26  1  0
 26 27  2  0
 27 28  1  0
 28 29  2  0
 29  2  1  0
 13  9  1  0
 22 14  1  0
 28 23  1  0
 21 16  1  0
M  CHG  1  29   1
M  END
>  <Compound_ID>  (625) 
C39725196

>  <Active>  (625) 
0

>  <Smiles>  (625) 
O=C1CC(C(=O)N(C[C@H]2CCCO2)[C@H]2Nc3ccccc3S2)=c2ccccc2=[NH+]1

>  <canonical_smi>  (625) 
O=C1CC(C(=O)N(C[C@H]2CCCO2)[C@H]2Nc3ccccc3S2)=c2ccccc2=[NH+]1

>  <Set>  (625) 
G2 inactive

>  <Set_type>  (625) 
Test

>  <MW>  (625) 
408.5

>  <HBD>  (625) 
2

>  <HBA>  (625) 
5

>  <NRB>  (625) 
4

>  <NR>  (625) 
5

>  <NAR>  (625) 
2

>  <PSA>  (625) 
72.61

>  <Standard Type>  (625) 
nan

>  <Standard Relation>  (625) 
nan

>  <Standard Units>  (625) 
nan

>  <Standard Value>  (625) 
nan

>  <Assay ChEMBL ID>  (625) 
nan

>  <Assay Description>  (625) 
nan

>  <BAO Label>  (625) 
nan

$$$$

     RDKit          2D

 25 29  0  0  0  0  0  0  0  0999 V2000
    3.7974   -2.4540    0.0000 O   0  0  0  0  0  0  0  0  0  0  0  0
    2.5838   -3.3357    0.0000 C   0  0  0  0  0  0  0  0  0  0  0  0
    2.7406   -4.8275    0.0000 N   0  0  0  0  0  0  0  0  0  0  0  0
    1.5271   -5.7092    0.0000 C   0  0  0  0  0  0  0  0  0  0  0  0
    1.6839   -7.2010    0.0000 C   0  0  0  0  0  0  0  0  0  0  0  0
    0.4704   -8.0826    0.0000 C   0  0  0  0  0  0  0  0  0  0  0  0
    0.6272   -9.5744    0.0000 C   0  0  0  0  0  0  0  0  0  0  0  0
    1.9975  -10.1845    0.0000 C   0  0  0  0  0  0  0  0  0  0  0  0
    2.1543  -11.6763    0.0000 N   0  0  0  0  0  0  0  0  0  0  0  0
    3.4533  -12.4263    0.0000 C   0  0  0  0  0  0  0  0  0  0  0  0
    3.1415  -13.8935    0.0000 C   0  0  0  0  0  0  0  0  0  0  0  0
    1.6497  -14.0503    0.0000 N   0  0  0  0  0  0  0  0  0  0  0  0
    1.0396  -12.6800    0.0000 C   0  0  0  0  0  0  0  0  0  0  0  0
    3.2110   -9.3029    0.0000 N   0  0  0  0  0  0  0  0  0  0  0  0
    3.0542   -7.8111    0.0000 C   0  0  0  0  0  0  0  0  0  0  0  0
    0.1568   -5.0991    0.0000 N   0  0  0  0  0  0  0  0  0  0  0  0
   -0.0000   -3.6073    0.0000 C   0  0  0  0  0  0  0  0  0  0  0  0
   -1.2135   -2.7256    0.0000 S   0  0  0  0  0  0  0  0  0  0  0  0
   -0.7500   -1.2990    0.0000 C   0  0  0  0  0  0  0  0  0  0  0  0
    0.7500   -1.2990    0.0000 C   0  0  0  0  0  0  0  0  0  0  0  0
    1.2135   -2.7256    0.0000 C   0  0  0  0  0  0  0  0  0  0  0  0
    1.5000    0.0000    0.0000 C   0  0  0  0  0  0  0  0  0  0  0  0
    0.7500    1.2990    0.0000 C   0  0  0  0  0  0  0  0  0  0  0  0
   -0.7500    1.2990    0.0000 C   0  0  0  0  0  0  0  0  0  0  0  0
   -1.5000    0.0000    0.0000 S   0  0  0  0  0  0  0  0  0  0  0  0
  1  2  2  0
  2  3  1  0
  3  4  1  0
  4  5  1  0
  5  6  2  0
  6  7  1  0
  7  8  2  0
  8  9  1  0
  9 10  1  0
 10 11  2  0
 11 12  1  0
 12 13  2  0
  8 14  1  0
 14 15  2  0
  4 16  2  0
 16 17  1  0
 17 18  1  0
 18 19  1  0
 19 20  2  0
 20 21  1  0
 20 22  1  0
 22 23  1  0
 23 24  1  0
 24 25  1  0
 21  2  1  0
 15  5  1  0
 21 17  2  0
 13  9  1  0
 25 19  1  0
M  END
>  <Compound_ID>  (626) 
C66606415

>  <Active>  (626) 
0

>  <Smiles>  (626) 
O=c1[nH]c(-c2ccc(-n3ccnc3)nc2)nc2sc3c(c12)CCCS3

>  <canonical_smi>  (626) 
O=c1[nH]c(-c2ccc(-n3ccnc3)nc2)nc2sc3c(c12)CCCS3

>  <Set>  (626) 
G2 inactive

>  <Set_type>  (626) 
Test

>  <MW>  (626) 
367.46

>  <HBD>  (626) 
1

>  <HBA>  (626) 
5

>  <NRB>  (626) 
2

>  <NR>  (626) 
5

>  <NAR>  (626) 
4

>  <PSA>  (626) 
76.46

>  <Standard Type>  (626) 
nan

>  <Standard Relation>  (626) 
nan

>  <Standard Units>  (626) 
nan

>  <Standard Value>  (626) 
nan

>  <Assay ChEMBL ID>  (626) 
nan

>  <Assay Description>  (626) 
nan

>  <BAO Label>  (626) 
nan

$$$$

     RDKit          2D

 25 28  0  0  0  0  0  0  0  0999 V2000
   -0.6546  -10.1364    0.0000 C   0  0  0  0  0  0  0  0  0  0  0  0
   -0.8113   -8.6446    0.0000 C   0  0  0  0  0  0  0  0  0  0  0  0
   -2.1817   -8.0345    0.0000 C   0  0  0  0  0  0  0  0  0  0  0  0
    0.4022   -7.7629    0.0000 C   0  0  0  0  0  0  0  0  0  0  0  0
    0.2454   -6.2711    0.0000 C   0  0  0  0  0  0  0  0  0  0  0  0
    1.3601   -5.2674    0.0000 C   0  0  0  0  0  0  0  0  0  0  0  0
    0.7500   -3.8971    0.0000 C   0  0  0  0  0  0  0  0  0  0  0  0
    1.5000   -2.5981    0.0000 C   0  0  0  0  0  0  0  0  0  0  0  0
    0.7500   -1.2990    0.0000 N   0  0  0  0  0  0  0  0  0  0  0  0
    1.5000    0.0000    0.0000 C   0  0  0  0  0  0  0  0  0  0  0  0
    0.7500    1.2990    0.0000 C   0  0  0  0  0  0  0  0  0  0  0  0
   -0.7500    1.2990    0.0000 C   0  0  0  0  0  0  0  0  0  0  0  0
   -1.7537    2.4138    0.0000 N   0  0  0  0  0  0  0  0  0  0  0  0
   -3.1240    1.8037    0.0000 N   0  0  0  0  0  0  0  0  0  0  0  0
   -2.9672    0.3119    0.0000 C   0  0  0  0  0  0  0  0  0  0  0  0
   -4.0819   -0.6918    0.0000 C   0  0  0  0  0  0  0  0  0  0  0  0
   -5.5085   -0.2283    0.0000 C   0  0  0  0  0  0  0  0  0  0  0  0
   -6.6232   -1.2320    0.0000 C   0  0  0  0  0  0  0  0  0  0  0  0
   -6.3114   -2.6992    0.0000 C   0  0  0  0  0  0  0  0  0  0  0  0
   -4.8848   -3.1627    0.0000 C   0  0  0  0  0  0  0  0  0  0  0  0
   -3.7701   -2.1590    0.0000 C   0  0  0  0  0  0  0  0  0  0  0  0
   -1.5000    0.0000    0.0000 C   0  0  0  0  0  0  0  0  0  0  0  0
   -0.7500   -1.2990    0.0000 C   0  0  0  0  0  0  0  0  0  0  0  0
   -0.7418   -4.0539    0.0000 N   0  0  0  0  0  0  0  0  0  0  0  0
   -1.0537   -5.5211    0.0000 N   0  0  0  0  0  0  0  0  0  0  0  0
  1  2  1  0
  2  3  1  0
  2  4  1  0
  4  5  1  0
  5  6  1  0
  6  7  2  0
  7  8  1  0
  8  9  1  0
  9 10  1  0
 10 11  1  0
 11 12  1  0
 12 13  2  0
 13 14  1  0
 14 15  1  0
 15 16  1  0
 16 17  2  0
 17 18  1  0
 18 19  2  0
 19 20  1  0
 20 21  2  0
 15 22  2  0
 22 23  1  0
  7 24  1  0
 24 25  1  0
 25  5  2  0
 23  9  1  0
 22 12  1  0
 21 16  1  0
M  END
>  <Compound_ID>  (627) 
C19224644

>  <Active>  (627) 
0

>  <Smiles>  (627) 
CC(C)Cc1cc(CN2CCc3n[nH]c(-c4ccccc4)c3C2)[nH]n1

>  <canonical_smi>  (627) 
CC(C)Cc1cc(CN2CCc3n[nH]c(-c4ccccc4)c3C2)[nH]n1

>  <Set>  (627) 
G2 inactive

>  <Set_type>  (627) 
Test

>  <MW>  (627) 
335.46

>  <HBD>  (627) 
2

>  <HBA>  (627) 
3

>  <NRB>  (627) 
5

>  <NR>  (627) 
4

>  <NAR>  (627) 
3

>  <PSA>  (627) 
60.6

>  <Standard Type>  (627) 
nan

>  <Standard Relation>  (627) 
nan

>  <Standard Units>  (627) 
nan

>  <Standard Value>  (627) 
nan

>  <Assay ChEMBL ID>  (627) 
nan

>  <Assay Description>  (627) 
nan

>  <BAO Label>  (627) 
nan

$$$$

     RDKit          2D

 20 21  0  0  0  0  0  0  0  0999 V2000
    3.7500   -1.2990    0.0000 C   0  0  0  0  0  0  0  0  0  0  0  0
    3.0000    0.0000    0.0000 O   0  0  0  0  0  0  0  0  0  0  0  0
    1.5000    0.0000    0.0000 C   0  0  0  0  0  0  0  0  0  0  0  0
    0.7500   -1.2990    0.0000 C   0  0  0  0  0  0  0  0  0  0  0  0
   -0.7500   -1.2990    0.0000 C   0  0  0  0  0  0  0  0  0  0  0  0
   -1.5000    0.0000    0.0000 C   0  0  0  0  0  0  0  0  0  0  0  0
   -3.0000    0.0000    0.0000 Br  0  0  0  0  0  0  0  0  0  0  0  0
   -0.7500    1.2990    0.0000 C   0  0  0  0  0  0  0  0  0  0  0  0
    0.7500    1.2990    0.0000 C   0  0  0  0  0  0  0  0  0  0  0  0
    1.5000    2.5981    0.0000 C   0  0  0  0  0  0  0  0  0  0  0  0
    3.0000    2.5981    0.0000 N   0  0  0  0  0  0  0  0  0  0  0  0
    3.7500    3.8971    0.0000 N   0  0  0  0  0  0  0  0  0  0  0  0
    5.2500    3.8971    0.0000 C   0  0  0  0  0  0  0  0  0  0  0  0
    6.0000    2.5981    0.0000 O   0  0  0  0  0  0  0  0  0  0  0  0
    6.0000    5.1962    0.0000 C   0  0  0  0  0  0  0  0  0  0  0  0
    5.3899    6.5665    0.0000 N   0  0  0  0  0  0  0  0  0  0  0  0
    6.5046    7.5702    0.0000 O   0  0  0  0  0  0  0  0  0  0  0  0
    7.8037    6.8202    0.0000 N   0  0  0  0  0  0  0  0  0  0  0  0
    7.4918    5.3529    0.0000 C   0  0  0  0  0  0  0  0  0  0  0  0
    8.4955    4.2382    0.0000 N   0  0  0  0  0  0  0  0  0  0  0  0
  1  2  1  0
  2  3  1  0
  3  4  2  0
  4  5  1  0
  5  6  2  0
  6  7  1  0
  6  8  1  0
  8  9  2  0
  9 10  1  0
 10 11  2  0
 11 12  1  0
 12 13  1  0
 13 14  2  0
 13 15  1  0
 15 16  2  0
 16 17  1  0
 17 18  1  0
 18 19  2  0
 19 20  1  0
  9  3  1  0
 19 15  1  0
M  END
>  <Compound_ID>  (628) 
C00027804

>  <Active>  (628) 
0

>  <Smiles>  (628) 
COc1ccc(Br)cc1/C=N/NC(=O)c1nonc1N

>  <canonical_smi>  (628) 
COc1ccc(Br)cc1/C=N/NC(=O)c1nonc1N

>  <Set>  (628) 
G2 inactive

>  <Set_type>  (628) 
Test

>  <MW>  (628) 
340.14

>  <HBD>  (628) 
2

>  <HBA>  (628) 
6

>  <NRB>  (628) 
4

>  <NR>  (628) 
2

>  <NAR>  (628) 
2

>  <PSA>  (628) 
115.63

>  <Standard Type>  (628) 
nan

>  <Standard Relation>  (628) 
nan

>  <Standard Units>  (628) 
nan

>  <Standard Value>  (628) 
nan

>  <Assay ChEMBL ID>  (628) 
nan

>  <Assay Description>  (628) 
nan

>  <BAO Label>  (628) 
nan

$$$$

     RDKit          2D

 22 24  0  0  0  0  0  0  0  0999 V2000
    3.7500   -1.2990    0.0000 C   0  0  0  0  0  0  0  0  0  0  0  0
    3.0000    0.0000    0.0000 C   0  0  0  0  0  0  0  0  0  0  0  0
    1.5000    0.0000    0.0000 C   0  0  0  0  0  0  0  0  0  0  0  0
    0.7500   -1.2990    0.0000 C   0  0  0  0  0  0  0  0  0  0  0  0
   -0.7500   -1.2990    0.0000 C   0  0  0  0  0  0  0  0  0  0  0  0
   -1.5000    0.0000    0.0000 C   0  0  0  0  0  0  0  0  0  0  0  0
   -3.0000    0.0000    0.0000 C   0  0  0  0  0  0  0  0  0  0  0  0
   -3.7500    1.2990    0.0000 N   0  0  0  0  0  0  0  0  0  0  0  0
   -3.0000    2.5981    0.0000 N   0  0  0  0  0  0  0  0  0  0  0  0
   -3.6101    3.9684    0.0000 C   0  0  0  0  0  0  0  0  0  0  0  0
   -5.0773    4.2803    0.0000 C   0  0  0  0  0  0  0  0  0  0  0  0
   -5.5409    5.7068    0.0000 C   0  0  0  0  0  0  0  0  0  0  0  0
   -7.0081    6.0187    0.0000 C   0  0  0  0  0  0  0  0  0  0  0  0
   -8.0118    4.9040    0.0000 C   0  0  0  0  0  0  0  0  0  0  0  0
   -7.5482    3.4774    0.0000 N   0  0  0  0  0  0  0  0  0  0  0  0
   -6.0810    3.1655    0.0000 C   0  0  0  0  0  0  0  0  0  0  0  0
   -2.4954    4.9721    0.0000 N   0  0  0  0  0  0  0  0  0  0  0  0
   -1.1963    4.2221    0.0000 N   0  0  0  0  0  0  0  0  0  0  0  0
   -1.5082    2.7549    0.0000 C   0  0  0  0  0  0  0  0  0  0  0  0
   -0.5009    2.0755    0.0000 S   0  0  0  0  0  0  0  0  0  0  0  0
   -0.7500    1.2990    0.0000 C   0  0  0  0  0  0  0  0  0  0  0  0
    0.7500    1.2990    0.0000 C   0  0  0  0  0  0  0  0  0  0  0  0
  1  2  1  0
  2  3  1  0
  3  4  2  0
  4  5  1  0
  5  6  2  0
  6  7  1  0
  7  8  2  0
  8  9  1  0
  9 10  1  0
 10 11  1  0
 11 12  2  0
 12 13  1  0
 13 14  2  0
 14 15  1  0
 15 16  2  0
 10 17  2  0
 17 18  1  0
 18 19  1  0
 19 20  2  0
  6 21  1  0
 21 22  2  0
 22  3  1  0
 19  9  1  0
 16 11  1  0
M  END
>  <Compound_ID>  (629) 
C01294309

>  <Active>  (629) 
0

>  <Smiles>  (629) 
CCc1ccc(/C=N\n2c(-c3cccnc3)n[nH]c2=S)cc1

>  <canonical_smi>  (629) 
CCc1ccc(/C=N\n2c(-c3cccnc3)n[nH]c2=S)cc1

>  <Set>  (629) 
G2 inactive

>  <Set_type>  (629) 
Test

>  <MW>  (629) 
309.4

>  <HBD>  (629) 
1

>  <HBA>  (629) 
3

>  <NRB>  (629) 
4

>  <NR>  (629) 
3

>  <NAR>  (629) 
3

>  <PSA>  (629) 
58.86

>  <Standard Type>  (629) 
nan

>  <Standard Relation>  (629) 
nan

>  <Standard Units>  (629) 
nan

>  <Standard Value>  (629) 
nan

>  <Assay ChEMBL ID>  (629) 
nan

>  <Assay Description>  (629) 
nan

>  <BAO Label>  (629) 
nan

$$$$

     RDKit          2D

 21 22  0  0  0  0  0  0  0  0999 V2000
   -8.2500    1.2990    0.0000 C   0  0  0  0  0  0  0  0  0  0  0  0
   -7.5000   -0.0000    0.0000 C   0  0  0  0  0  0  0  0  0  0  0  0
   -8.2500   -1.2990    0.0000 C   0  0  0  0  0  0  0  0  0  0  0  0
   -6.0000   -0.0000    0.0000 C   0  0  0  0  0  0  0  0  0  0  0  0
   -5.2500   -1.2990    0.0000 N   0  0  0  0  0  0  0  0  0  0  0  0
   -3.7500   -1.2990    0.0000 C   0  0  0  0  0  0  0  0  0  0  0  0
   -3.0000   -0.0000    0.0000 O   0  0  0  0  0  0  0  0  0  0  0  0
   -3.0000   -2.5981    0.0000 C   0  0  0  0  0  0  0  0  0  0  0  0
   -1.5000   -2.5981    0.0000 N   0  0  0  0  0  0  0  0  0  0  0  0
   -0.7500   -3.8971    0.0000 C   0  0  0  0  0  0  0  0  0  0  0  0
   -1.5000   -5.1962    0.0000 O   0  0  0  0  0  0  0  0  0  0  0  0
    0.7500   -3.8971    0.0000 C   0  0  0  0  0  0  0  0  0  0  0  0
    1.5000   -5.1962    0.0000 C   0  0  0  0  0  0  0  0  0  0  0  0
    1.5000   -2.5981    0.0000 O   0  0  0  0  0  0  0  0  0  0  0  0
    0.7500   -1.2990    0.0000 C   0  0  0  0  0  0  0  0  0  0  0  0
    1.5000    0.0000    0.0000 C   0  0  0  0  0  0  0  0  0  0  0  0
    0.7500    1.2990    0.0000 C   0  0  0  0  0  0  0  0  0  0  0  0
   -0.7500    1.2990    0.0000 C   0  0  0  0  0  0  0  0  0  0  0  0
   -1.5000    2.5981    0.0000 Cl  0  0  0  0  0  0  0  0  0  0  0  0
   -1.5000    0.0000    0.0000 C   0  0  0  0  0  0  0  0  0  0  0  0
   -0.7500   -1.2990    0.0000 C   0  0  0  0  0  0  0  0  0  0  0  0
  1  2  1  0
  2  3  1  0
  2  4  1  0
  4  5  1  0
  5  6  1  0
  6  7  2  0
  6  8  1  0
  8  9  1  0
  9 10  1  0
 10 11  2  0
 10 12  1  0
 12 13  1  1
 12 14  1  0
 14 15  1  0
 15 16  2  0
 16 17  1  0
 17 18  2  0
 18 19  1  0
 18 20  1  0
 20 21  2  0
 21  9  1  0
 21 15  1  0
M  END
>  <Compound_ID>  (630) 
C19989945

>  <Active>  (630) 
0

>  <Smiles>  (630) 
CC(C)CNC(=O)CN1C(=O)[C@H](C)Oc2ccc(Cl)cc21

>  <canonical_smi>  (630) 
CC(C)CNC(=O)CN1C(=O)[C@H](C)Oc2ccc(Cl)cc21

>  <Set>  (630) 
G2 inactive

>  <Set_type>  (630) 
Test

>  <MW>  (630) 
310.78

>  <HBD>  (630) 
1

>  <HBA>  (630) 
3

>  <NRB>  (630) 
4

>  <NR>  (630) 
2

>  <NAR>  (630) 
1

>  <PSA>  (630) 
58.64

>  <Standard Type>  (630) 
nan

>  <Standard Relation>  (630) 
nan

>  <Standard Units>  (630) 
nan

>  <Standard Value>  (630) 
nan

>  <Assay ChEMBL ID>  (630) 
nan

>  <Assay Description>  (630) 
nan

>  <BAO Label>  (630) 
nan

$$$$

     RDKit          2D

 25 27  0  0  0  0  0  0  0  0999 V2000
    5.4366  -10.9447    0.0000 C   0  0  0  0  0  0  0  0  0  0  0  0
    4.5550   -9.7312    0.0000 C   0  0  0  0  0  0  0  0  0  0  0  0
    5.1651   -8.3609    0.0000 C   0  0  0  0  0  0  0  0  0  0  0  0
    3.0632   -9.8880    0.0000 N   0  0  0  0  0  0  0  0  0  0  0  0
    2.1815   -8.6745    0.0000 C   0  0  0  0  0  0  0  0  0  0  0  0
    2.7916   -7.3041    0.0000 O   0  0  0  0  0  0  0  0  0  0  0  0
    0.6897   -8.8313    0.0000 C   0  0  0  0  0  0  0  0  0  0  0  0
   -0.1920   -7.6177    0.0000 N   0  0  0  0  0  0  0  0  0  0  0  0
    0.4182   -6.2474    0.0000 C   0  0  0  0  0  0  0  0  0  0  0  0
    1.9099   -6.0906    0.0000 O   0  0  0  0  0  0  0  0  0  0  0  0
   -0.4635   -5.0339    0.0000 N   0  0  0  0  0  0  0  0  0  0  0  0
   -1.9635   -5.0339    0.0000 C   0  0  0  0  0  0  0  0  0  0  0  0
   -2.4271   -3.6073    0.0000 C   0  0  0  0  0  0  0  0  0  0  0  0
   -1.2135   -2.7256    0.0000 N   0  0  0  0  0  0  0  0  0  0  0  0
   -0.0000   -3.6073    0.0000 C   0  0  0  0  0  0  0  0  0  0  0  0
    1.2135   -2.7256    0.0000 N   0  0  0  0  0  0  0  0  0  0  0  0
    0.7500   -1.2990    0.0000 C   0  0  0  0  0  0  0  0  0  0  0  0
    1.5000    0.0000    0.0000 C   0  0  0  0  0  0  0  0  0  0  0  0
    0.7500    1.2990    0.0000 C   0  0  0  0  0  0  0  0  0  0  0  0
   -0.7500    1.2990    0.0000 C   0  0  0  0  0  0  0  0  0  0  0  0
   -1.5000    0.0000    0.0000 C   0  0  0  0  0  0  0  0  0  0  0  0
   -0.7500   -1.2990    0.0000 C   0  0  0  0  0  0  0  0  0  0  0  0
    0.0796  -10.2016    0.0000 C   0  0  0  0  0  0  0  0  0  0  0  0
    0.9613  -11.4151    0.0000 C   0  0  0  0  0  0  0  0  0  0  0  0
   -1.4122  -10.3584    0.0000 C   0  0  0  0  0  0  0  0  0  0  0  0
  1  2  1  0
  2  3  1  0
  2  4  1  0
  4  5  1  0
  5  6  2  0
  5  7  1  0
  7  8  1  6
  8  9  1  0
  9 10  2  0
  9 11  1  0
 11 12  1  0
 12 13  1  0
 13 14  1  0
 14 15  1  0
 15 16  2  0
 16 17  1  0
 17 18  2  0
 18 19  1  0
 19 20  2  0
 20 21  1  0
 21 22  2  0
  7 23  1  0
 23 24  1  0
 23 25  1  0
 15 11  1  0
 22 17  1  0
 22 14  1  0
M  END
>  <Compound_ID>  (631) 
C05487298

>  <Active>  (631) 
0

>  <Smiles>  (631) 
CC(C)NC(=O)[C@@H](NC(=O)N1CCn2c1nc1ccccc12)C(C)C

>  <canonical_smi>  (631) 
CC(C)NC(=O)[C@@H](NC(=O)N1CCn2c1nc1ccccc12)C(C)C

>  <Set>  (631) 
G2 inactive

>  <Set_type>  (631) 
Test

>  <MW>  (631) 
343.43

>  <HBD>  (631) 
2

>  <HBA>  (631) 
3

>  <NRB>  (631) 
4

>  <NR>  (631) 
3

>  <NAR>  (631) 
2

>  <PSA>  (631) 
79.26

>  <Standard Type>  (631) 
nan

>  <Standard Relation>  (631) 
nan

>  <Standard Units>  (631) 
nan

>  <Standard Value>  (631) 
nan

>  <Assay ChEMBL ID>  (631) 
nan

>  <Assay Description>  (631) 
nan

>  <BAO Label>  (631) 
nan

$$$$

     RDKit          2D

 26 28  0  0  0  0  0  0  0  0999 V2000
    3.0000    0.0000    0.0000 C   0  0  0  0  0  0  0  0  0  0  0  0
    1.5000    0.0000    0.0000 C   0  0  0  0  0  0  0  0  0  0  0  0
    0.7500   -1.2990    0.0000 N   0  0  0  0  0  0  0  0  0  0  0  0
   -0.7500   -1.2990    0.0000 C   0  0  0  0  0  0  0  0  0  0  0  0
   -1.5000   -2.5981    0.0000 C   0  0  0  0  0  0  0  0  0  0  0  0
   -2.7990   -1.8481    0.0000 C   0  0  0  0  0  0  0  0  0  0  0  0
   -0.2010   -3.3481    0.0000 C   0  0  0  0  0  0  0  0  0  0  0  0
   -2.2500   -3.8971    0.0000 C   0  0  0  0  0  0  0  0  0  0  0  0
   -1.5000    0.0000    0.0000 N   0  0  0  0  0  0  0  0  0  0  0  0
   -0.7500    1.2990    0.0000 C   0  0  0  0  0  0  0  0  0  0  0  0
   -1.2135    2.7256    0.0000 S   0  0  0  0  0  0  0  0  0  0  0  0
   -0.0000    3.6073    0.0000 C   0  0  0  0  0  0  0  0  0  0  0  0
   -0.0000    5.1073    0.0000 C   0  0  0  0  0  0  0  0  0  0  0  0
    1.2990    5.8573    0.0000 O   0  0  0  0  0  0  0  0  0  0  0  0
   -1.2990    5.8573    0.0000 N   0  0  0  0  0  0  0  0  0  0  0  0
   -1.2990    7.3573    0.0000 C   0  0  0  0  0  0  0  0  0  0  0  0
   -2.5981    8.1073    0.0000 C   0  0  0  0  0  0  0  0  0  0  0  0
   -3.8971    7.3573    0.0000 O   0  0  0  0  0  0  0  0  0  0  0  0
   -3.8971    5.8573    0.0000 C   0  0  0  0  0  0  0  0  0  0  0  0
   -5.1962    5.1073    0.0000 C   0  0  0  0  0  0  0  0  0  0  0  0
   -6.4952    5.8573    0.0000 N   0  0  0  0  0  0  0  0  0  0  0  0
   -5.1962    3.6073    0.0000 O   0  0  0  0  0  0  0  0  0  0  0  0
   -2.5981    5.1073    0.0000 C   0  0  0  0  0  0  0  0  0  0  0  0
    1.2135    2.7256    0.0000 C   0  0  0  0  0  0  0  0  0  0  0  0
    2.6401    3.1891    0.0000 C   0  0  0  0  0  0  0  0  0  0  0  0
    0.7500    1.2990    0.0000 C   0  0  0  0  0  0  0  0  0  0  0  0
  1  2  1  0
  2  3  2  0
  3  4  1  0
  4  5  1  0
  5  6  1  0
  5  7  1  0
  5  8  1  0
  4  9  2  0
  9 10  1  0
 10 11  1  0
 11 12  1  0
 12 13  1  0
 13 14  2  0
 13 15  1  0
 15 16  1  0
 16 17  1  0
 17 18  1  0
 18 19  1  0
 19 20  1  1
 20 21  1  0
 20 22  2  0
 19 23  1  0
 12 24  2  0
 24 25  1  0
 24 26  1  0
 26  2  1  0
 26 10  2  0
 23 15  1  0
M  END
>  <Compound_ID>  (632) 
C50854234

>  <Active>  (632) 
0

>  <Smiles>  (632) 
Cc1nc(C(C)(C)C)nc2sc(C(=O)N3CCO[C@H](C(N)=O)C3)c(C)c12

>  <canonical_smi>  (632) 
Cc1nc(C(C)(C)C)nc2sc(C(=O)N3CCO[C@H](C(N)=O)C3)c(C)c12

>  <Set>  (632) 
G2 inactive

>  <Set_type>  (632) 
Test

>  <MW>  (632) 
376.48

>  <HBD>  (632) 
1

>  <HBA>  (632) 
5

>  <NRB>  (632) 
2

>  <NR>  (632) 
3

>  <NAR>  (632) 
2

>  <PSA>  (632) 
98.41

>  <Standard Type>  (632) 
nan

>  <Standard Relation>  (632) 
nan

>  <Standard Units>  (632) 
nan

>  <Standard Value>  (632) 
nan

>  <Assay ChEMBL ID>  (632) 
nan

>  <Assay Description>  (632) 
nan

>  <BAO Label>  (632) 
nan

$$$$

     RDKit          2D

 28 32  0  0  0  0  0  0  0  0999 V2000
    1.5000    0.0000    0.0000 C   0  0  0  0  0  0  0  0  0  0  0  0
    0.7500   -1.2990    0.0000 C   0  0  0  0  0  0  0  0  0  0  0  0
   -0.7500   -1.2990    0.0000 C   0  0  0  0  0  0  0  0  0  0  0  0
   -1.5000    0.0000    0.0000 C   0  0  0  0  0  0  0  0  0  0  0  0
   -3.0000    0.0000    0.0000 C   0  0  0  0  0  0  0  0  0  0  0  0
   -3.8817   -1.2135    0.0000 N   0  0  0  0  0  0  0  0  0  0  0  0
   -5.3083   -0.7500    0.0000 C   0  0  0  0  0  0  0  0  0  0  0  0
   -5.3083    0.7500    0.0000 N   0  0  0  0  0  4  0  0  0  0  0  0
   -6.5218    1.6317    0.0000 C   0  0  0  0  0  0  0  0  0  0  0  0
   -7.8921    1.0216    0.0000 C   0  0  0  0  0  0  0  0  0  0  0  0
   -9.1911    1.7716    0.0000 N   0  0  0  0  0  0  0  0  0  0  0  0
  -10.3059    0.7679    0.0000 C   0  0  0  0  0  0  0  0  0  0  0  0
   -9.6958   -0.6024    0.0000 N   0  0  0  0  0  0  0  0  0  0  0  0
   -8.2040   -0.4456    0.0000 N   0  0  0  0  0  0  0  0  0  0  0  0
   -3.8817    1.2135    0.0000 C   0  0  0  0  0  0  0  0  0  0  0  0
   -3.4182    2.6401    0.0000 C   0  0  0  0  0  0  0  0  0  0  0  0
   -1.9509    2.9520    0.0000 C   0  0  0  0  0  0  0  0  0  0  0  0
   -1.4874    4.3786    0.0000 C   0  0  0  0  0  0  0  0  0  0  0  0
   -2.4911    5.4933    0.0000 C   0  0  0  0  0  0  0  0  0  0  0  0
   -2.0276    6.9199    0.0000 N   0  0  0  0  0  0  0  0  0  0  0  0
   -2.9093    8.1334    0.0000 C   0  0  0  0  0  0  0  0  0  0  0  0
   -2.0276    9.3469    0.0000 C   0  0  0  0  0  0  0  0  0  0  0  0
   -0.6010    8.8834    0.0000 C   0  0  0  0  0  0  0  0  0  0  0  0
   -0.6010    7.3834    0.0000 N   0  0  0  0  0  0  0  0  0  0  0  0
   -3.9583    5.1814    0.0000 C   0  0  0  0  0  0  0  0  0  0  0  0
   -4.4218    3.7548    0.0000 C   0  0  0  0  0  0  0  0  0  0  0  0
   -0.7500    1.2990    0.0000 C   0  0  0  0  0  0  0  0  0  0  0  0
    0.7500    1.2990    0.0000 C   0  0  0  0  0  0  0  0  0  0  0  0
  1  2  2  0
  2  3  1  0
  3  4  2  0
  5  4  1  1
  5  6  1  0
  6  7  1  0
  7  8  1  0
  8  9  1  0
  9 10  1  0
 10 11  1  0
 11 12  2  0
 12 13  1  0
 13 14  1  0
  8 15  1  0
 15 16  1  6
 16 17  2  0
 17 18  1  0
 18 19  2  0
 19 20  1  0
 20 21  1  0
 21 22  2  0
 22 23  1  0
 23 24  2  0
 19 25  1  0
 25 26  2  0
  4 27  1  0
 27 28  2  0
 28  1  1  0
 15  5  1  0
 26 16  1  0
 14 10  2  0
 24 20  1  0
M  CHG  1   8   1
M  END
>  <Compound_ID>  (633) 
C65369771

>  <Active>  (633) 
0

>  <Smiles>  (633) 
c1ccc([C@H]2NC[NH+](Cc3nc[nH]n3)[C@@H]2c2ccc(-n3cccn3)cc2)cc1

>  <canonical_smi>  (633) 
c1ccc([C@H]2NC[NH+](Cc3nc[nH]n3)[C@@H]2c2ccc(-n3cccn3)cc2)cc1

>  <Set>  (633) 
G2 inactive

>  <Set_type>  (633) 
Test

>  <MW>  (633) 
372.46

>  <HBD>  (633) 
3

>  <HBA>  (633) 
4

>  <NRB>  (633) 
5

>  <NR>  (633) 
5

>  <NAR>  (633) 
4

>  <PSA>  (633) 
75.86

>  <Standard Type>  (633) 
nan

>  <Standard Relation>  (633) 
nan

>  <Standard Units>  (633) 
nan

>  <Standard Value>  (633) 
nan

>  <Assay ChEMBL ID>  (633) 
nan

>  <Assay Description>  (633) 
nan

>  <BAO Label>  (633) 
nan

$$$$

     RDKit          2D

 35 40  0  0  0  0  0  0  0  0999 V2000
    8.3202   -8.9017    0.0000 C   0  0  0  0  0  0  0  0  0  0  0  0
    8.3202   -7.4017    0.0000 O   0  0  0  0  0  0  0  0  0  0  0  0
    7.0211   -6.6517    0.0000 C   0  0  0  0  0  0  0  0  0  0  0  0
    5.7221   -7.4017    0.0000 C   0  0  0  0  0  0  0  0  0  0  0  0
    4.4231   -6.6517    0.0000 C   0  0  0  0  0  0  0  0  0  0  0  0
    4.4231   -5.1517    0.0000 C   0  0  0  0  0  0  0  0  0  0  0  0
    3.1240   -4.4017    0.0000 C   0  0  0  0  0  0  0  0  0  0  0  0
    2.9672   -2.9099    0.0000 C   0  0  0  0  0  0  0  0  0  0  0  0
    1.5000   -2.5981    0.0000 C   0  0  0  0  0  0  0  0  0  0  0  0
    0.7500   -1.2990    0.0000 C   0  0  0  0  0  0  0  0  0  0  0  0
    1.5000    0.0000    0.0000 C   0  0  0  0  0  0  0  0  0  0  0  0
    0.7500    1.2990    0.0000 C   0  0  0  0  0  0  0  0  0  0  0  0
   -0.7500    1.2990    0.0000 C   0  0  0  0  0  0  0  0  0  0  0  0
   -1.5000    0.0000    0.0000 C   0  0  0  0  0  0  0  0  0  0  0  0
   -0.7500   -1.2990    0.0000 C   0  0  0  0  0  0  0  0  0  0  0  0
   -1.5000   -2.5981    0.0000 O   0  0  0  0  0  0  0  0  0  0  0  0
   -0.7500   -3.8971    0.0000 C   0  0  0  0  0  0  0  0  0  0  0  0
   -2.2500   -3.8971    0.0000 C   0  0  0  0  0  0  0  0  0  0  0  0
   -3.0000   -5.1962    0.0000 C   0  0  0  0  0  0  0  0  0  0  0  0
   -2.2500   -6.4952    0.0000 N   0  0  0  0  0  4  0  0  0  0  0  0
   -3.0000   -7.7942    0.0000 C   0  0  0  0  0  0  0  0  0  0  0  0
   -4.5000   -7.7942    0.0000 C   0  0  0  0  0  0  0  0  0  0  0  0
   -5.2500   -6.4952    0.0000 C   0  0  0  0  0  0  0  0  0  0  0  0
   -6.7500   -6.4952    0.0000 C   0  0  0  0  0  0  0  0  0  0  0  0
   -7.5000   -7.7942    0.0000 C   0  0  0  0  0  0  0  0  0  0  0  0
   -6.7500   -9.0933    0.0000 C   0  0  0  0  0  0  0  0  0  0  0  0
   -5.2500   -9.0933    0.0000 C   0  0  0  0  0  0  0  0  0  0  0  0
   -0.7500   -6.4952    0.0000 C   0  0  0  0  0  0  0  0  0  0  0  0
   -0.0000   -5.1962    0.0000 C   0  0  0  0  0  0  0  0  0  0  0  0
    0.7500   -3.8971    0.0000 N   0  0  0  0  0  0  0  0  0  0  0  0
    1.7537   -5.0118    0.0000 N   0  0  0  0  0  0  0  0  0  0  0  0
    5.7221   -4.4017    0.0000 C   0  0  0  0  0  0  0  0  0  0  0  0
    7.0211   -5.1517    0.0000 C   0  0  0  0  0  0  0  0  0  0  0  0
    8.3202   -4.4017    0.0000 O   0  0  0  0  0  0  0  0  0  0  0  0
    8.3202   -2.9017    0.0000 C   0  0  0  0  0  0  0  0  0  0  0  0
  1  2  1  0
  2  3  1  0
  3  4  2  0
  4  5  1  0
  5  6  2  0
  6  7  1  0
  7  8  2  0
  9  8  1  6
  9 10  1  0
 10 11  2  0
 11 12  1  0
 12 13  2  0
 13 14  1  0
 14 15  2  0
 15 16  1  0
 16 17  1  0
 17 18  1  0
 18 19  1  0
 19 20  1  0
 20 21  1  0
 21 22  1  0
 22 23  2  0
 23 24  1  0
 24 25  2  0
 25 26  1  0
 26 27  2  0
 20 28  1  0
 28 29  1  0
 17 30  1  0
 30 31  1  0
  6 32  1  0
 32 33  2  0
 33 34  1  0
 34 35  1  0
 33  3  1  0
 31  7  1  0
 30  9  1  0
 15 10  1  0
 29 17  1  0
 27 22  1  0
M  CHG  1  20   1
M  END
>  <Compound_ID>  (634) 
C01828906

>  <Active>  (634) 
0

>  <Smiles>  (634) 
COc1ccc(C2=C[C@H]3c4ccccc4OC4(CC[NH+](Cc5ccccc5)CC4)N3N2)cc1OC

>  <canonical_smi>  (634) 
COc1ccc(C2=C[C@H]3c4ccccc4OC4(CC[NH+](Cc5ccccc5)CC4)N3N2)cc1OC

>  <Set>  (634) 
G2 inactive

>  <Set_type>  (634) 
Test

>  <MW>  (634) 
470.59

>  <HBD>  (634) 
2

>  <HBA>  (634) 
5

>  <NRB>  (634) 
5

>  <NR>  (634) 
6

>  <NAR>  (634) 
3

>  <PSA>  (634) 
47.4

>  <Standard Type>  (634) 
nan

>  <Standard Relation>  (634) 
nan

>  <Standard Units>  (634) 
nan

>  <Standard Value>  (634) 
nan

>  <Assay ChEMBL ID>  (634) 
nan

>  <Assay Description>  (634) 
nan

>  <BAO Label>  (634) 
nan

$$$$

     RDKit          2D

 35 39  0  0  0  0  0  0  0  0999 V2000
   -4.2135  -10.5199    0.0000 C   0  0  0  0  0  0  0  0  0  0  0  0
   -3.4635   -9.2208    0.0000 C   0  0  0  0  0  0  0  0  0  0  0  0
   -4.2135   -7.9218    0.0000 O   0  0  0  0  0  0  0  0  0  0  0  0
   -3.4635   -6.6227    0.0000 C   0  0  0  0  0  0  0  0  0  0  0  0
   -4.2135   -5.3237    0.0000 C   0  0  0  0  0  0  0  0  0  0  0  0
   -3.4635   -4.0247    0.0000 C   0  0  0  0  0  0  0  0  0  0  0  0
   -1.9635   -4.0247    0.0000 C   0  0  0  0  0  0  0  0  0  0  0  0
   -1.2135   -2.7256    0.0000 C   0  0  0  0  0  0  0  0  0  0  0  0
   -2.5838   -2.1155    0.0000 C   0  0  0  0  0  0  0  0  0  0  0  0
   -2.7406   -0.6237    0.0000 C   0  0  0  0  0  0  0  0  0  0  0  0
   -4.1110   -0.0136    0.0000 C   0  0  0  0  0  0  0  0  0  0  0  0
   -5.3245   -0.8953    0.0000 C   0  0  0  0  0  0  0  0  0  0  0  0
   -5.1677   -2.3871    0.0000 C   0  0  0  0  0  0  0  0  0  0  0  0
   -6.3812   -3.2688    0.0000 C   0  0  0  0  0  0  0  0  0  0  0  0
   -6.2244   -4.7606    0.0000 C   0  0  0  0  0  0  0  0  0  0  0  0
   -7.4379   -5.6422    0.0000 C   0  0  0  0  0  0  0  0  0  0  0  0
   -8.8083   -5.0321    0.0000 C   0  0  0  0  0  0  0  0  0  0  0  0
   -8.9651   -3.5403    0.0000 N   0  0  0  0  0  0  0  0  0  0  0  0
   -7.7515   -2.6587    0.0000 C   0  0  0  0  0  0  0  0  0  0  0  0
   -7.9083   -1.1669    0.0000 F   0  0  0  0  0  0  0  0  0  0  0  0
   -3.7974   -2.9972    0.0000 C   0  0  0  0  0  0  0  0  0  0  0  0
   -0.0000   -3.6073    0.0000 N   0  0  0  0  0  0  0  0  0  0  0  0
    1.2135   -2.7256    0.0000 C   0  0  0  0  0  0  0  0  0  0  0  0
    2.6401   -3.1891    0.0000 N   0  0  0  0  0  0  0  0  0  0  0  0
    0.7500   -1.2990    0.0000 N   0  0  0  0  0  0  0  0  0  0  0  0
    1.5000    0.0000    0.0000 C   0  0  0  0  0  0  0  0  0  0  0  0
    0.7500    1.2990    0.0000 C   0  0  0  0  0  0  0  0  0  0  0  0
   -0.7500    1.2990    0.0000 C   0  0  0  0  0  0  0  0  0  0  0  0
   -1.5000    0.0000    0.0000 N   0  0  0  0  0  4  0  0  0  0  0  0
   -0.7500   -1.2990    0.0000 C   0  0  0  0  0  0  0  0  0  0  0  0
   -1.2135   -5.3237    0.0000 C   0  0  0  0  0  0  0  0  0  0  0  0
   -1.9635   -6.6227    0.0000 C   0  0  0  0  0  0  0  0  0  0  0  0
   -1.2135   -7.9218    0.0000 O   0  0  0  0  0  0  0  0  0  0  0  0
    0.2865   -7.9218    0.0000 C   0  0  0  0  0  0  0  0  0  0  0  0
    1.0365   -9.2208    0.0000 C   0  0  0  0  0  0  0  0  0  0  0  0
  1  2  1  0
  2  3  1  0
  3  4  1  0
  4  5  2  0
  5  6  1  0
  6  7  2  0
  8  7  1  1
  8  9  1  0
  9 10  2  0
 10 11  1  0
 11 12  2  0
 12 13  1  0
 13 14  1  0
 14 15  2  0
 15 16  1  0
 16 17  2  0
 17 18  1  0
 18 19  2  0
 19 20  1  0
 13 21  2  0
  8 22  1  0
 22 23  2  0
 23 24  1  0
 23 25  1  0
 25 26  1  0
 26 27  1  0
 27 28  1  0
 28 29  1  0
 29 30  2  0
  7 31  1  0
 31 32  2  0
 32 33  1  0
 33 34  1  0
 34 35  1  0
 32  4  1  0
 30  8  1  0
 21  9  1  0
 30 25  1  0
 19 14  1  0
M  CHG  1  29   1
M  END
>  <Compound_ID>  (635) 
C45245723

>  <Active>  (635) 
0

>  <Smiles>  (635) 
CCOc1ccc([C@]2(c3cccc(-c4cccnc4F)c3)N=C(N)N3CCC[NH+]=C32)cc1OCC

>  <canonical_smi>  (635) 
CCOc1ccc([C@]2(c3cccc(-c4cccnc4F)c3)N=C(N)N3CCC[NH+]=C32)cc1OCC

>  <Set>  (635) 
G2 inactive

>  <Set_type>  (635) 
Test

>  <MW>  (635) 
474.56

>  <HBD>  (635) 
2

>  <HBA>  (635) 
5

>  <NRB>  (635) 
7

>  <NR>  (635) 
5

>  <NAR>  (635) 
3

>  <PSA>  (635) 
86.94

>  <Standard Type>  (635) 
nan

>  <Standard Relation>  (635) 
nan

>  <Standard Units>  (635) 
nan

>  <Standard Value>  (635) 
nan

>  <Assay ChEMBL ID>  (635) 
nan

>  <Assay Description>  (635) 
nan

>  <BAO Label>  (635) 
nan

$$$$

     RDKit          2D

 29 32  0  0  0  0  0  0  0  0999 V2000
   -9.7500   -6.4952    0.0000 N   0  0  0  0  0  0  0  0  0  0  0  0
   -8.2500   -6.4952    0.0000 C   0  0  0  0  0  0  0  0  0  0  0  0
   -7.5000   -7.7942    0.0000 O   0  0  0  0  0  0  0  0  0  0  0  0
   -7.5000   -5.1962    0.0000 C   0  0  0  0  0  0  0  0  0  0  0  0
   -6.0000   -5.1962    0.0000 C   0  0  0  0  0  0  0  0  0  0  0  0
   -5.2500   -3.8971    0.0000 N   0  0  0  0  0  0  0  0  0  0  0  0
   -3.7500   -3.8971    0.0000 C   0  0  0  0  0  0  0  0  0  0  0  0
   -3.6978   -5.3962    0.0000 O   0  0  0  0  0  0  0  0  0  0  0  0
   -3.0000   -2.5981    0.0000 C   0  0  0  0  0  0  0  0  0  0  0  0
   -3.7500   -1.2990    0.0000 O   0  0  0  0  0  0  0  0  0  0  0  0
   -1.5000   -2.5981    0.0000 N   0  0  0  0  0  0  0  0  0  0  0  0
   -0.7500   -1.2990    0.0000 C   0  0  0  0  0  0  0  0  0  0  0  0
    0.7500   -1.2990    0.0000 C   0  0  0  0  0  0  0  0  0  0  0  0
    1.5000    0.0000    0.0000 C   0  0  0  0  0  0  0  0  0  0  0  0
    0.7500    1.2990    0.0000 C   0  0  0  0  0  0  0  0  0  0  0  0
   -0.7500    1.2990    0.0000 C   0  0  0  0  0  0  0  0  0  0  0  0
   -1.5000    0.0000    0.0000 C   0  0  0  0  0  0  0  0  0  0  0  0
   -2.2500   -1.2990    0.0000 C   0  0  0  0  0  0  0  0  0  0  0  0
   -1.5000   -2.5981    0.0000 N   0  0  0  0  0  4  0  0  0  0  0  0
   -2.2500   -3.8971    0.0000 C   0  0  0  0  0  0  0  0  0  0  0  0
   -2.2500   -5.3971    0.0000 C   0  0  0  0  0  0  0  0  0  0  0  0
   -3.5490   -4.6471    0.0000 C   0  0  0  0  0  0  0  0  0  0  0  0
   -0.0000   -2.5981    0.0000 C   0  0  0  0  0  0  0  0  0  0  0  0
   -6.0000   -2.5981    0.0000 C   0  0  0  0  0  0  0  0  0  0  0  0
   -5.2500   -1.2990    0.0000 C   0  0  0  0  0  0  0  0  0  0  0  0
   -6.0000    0.0000    0.0000 C   0  0  0  0  0  0  0  0  0  0  0  0
   -7.5000    0.0000    0.0000 C   0  0  0  0  0  0  0  0  0  0  0  0
   -8.2500   -1.2990    0.0000 C   0  0  0  0  0  0  0  0  0  0  0  0
   -7.5000   -2.5981    0.0000 C   0  0  0  0  0  0  0  0  0  0  0  0
  1  2  1  0
  2  3  2  0
  2  4  1  0
  4  5  1  0
  5  6  1  0
  6  7  1  0
  7  8  2  0
  7  9  1  0
  9 10  2  0
  9 11  1  0
 11 12  1  0
 12 13  1  0
 13 14  1  6
 14 15  1  0
 15 16  1  0
 17 16  1  6
 17 18  1  0
 18 19  1  0
 19 20  1  0
 20 21  1  0
 21 22  1  0
 19 23  1  0
  6 24  1  0
 24 25  2  0
 25 26  1  0
 26 27  2  0
 27 28  1  0
 28 29  2  0
 17 12  1  0
 22 20  1  0
 29 24  1  0
 23 13  1  0
M  CHG  1  19   1
M  END
>  <Compound_ID>  (636) 
C67414887

>  <Active>  (636) 
0

>  <Smiles>  (636) 
NC(=O)CCN(C(=O)C(=O)NC1[C@@H]2CCC[C@H]1C[NH+](C1CC1)C2)c1ccccc1

>  <canonical_smi>  (636) 
NC(=O)CCN(C(=O)C(=O)NC1[C@H]2CCC[C@@H]1C[NH+](C1CC1)C2)c1ccccc1

>  <Set>  (636) 
G2 inactive

>  <Set_type>  (636) 
Test

>  <MW>  (636) 
399.52

>  <HBD>  (636) 
3

>  <HBA>  (636) 
3

>  <NRB>  (636) 
6

>  <NR>  (636) 
4

>  <NAR>  (636) 
1

>  <PSA>  (636) 
96.94

>  <Standard Type>  (636) 
nan

>  <Standard Relation>  (636) 
nan

>  <Standard Units>  (636) 
nan

>  <Standard Value>  (636) 
nan

>  <Assay ChEMBL ID>  (636) 
nan

>  <Assay Description>  (636) 
nan

>  <BAO Label>  (636) 
nan

$$$$

     RDKit          2D

 38 42  0  0  0  0  0  0  0  0999 V2000
    3.7500   -1.2990    0.0000 C   0  0  0  0  0  0  0  0  0  0  0  0
    3.0000    0.0000    0.0000 O   0  0  0  0  0  0  0  0  0  0  0  0
    1.5000    0.0000    0.0000 C   0  0  0  0  0  0  0  0  0  0  0  0
    0.7500   -1.2990    0.0000 C   0  0  0  0  0  0  0  0  0  0  0  0
   -0.7500   -1.2990    0.0000 C   0  0  0  0  0  0  0  0  0  0  0  0
   -1.5000    0.0000    0.0000 C   0  0  0  0  0  0  0  0  0  0  0  0
   -3.0000    0.0000    0.0000 C   0  0  0  0  0  0  0  0  0  0  0  0
   -3.0000   -1.5000    0.0000 O   0  0  0  0  0  0  0  0  0  0  0  0
   -4.5000    0.0000    0.0000 C   0  0  0  0  0  0  0  0  0  0  0  0
   -5.2500    1.2990    0.0000 C   0  0  0  0  0  0  0  0  0  0  0  0
   -6.7500    1.2990    0.0000 C   0  0  0  0  0  0  0  0  0  0  0  0
   -7.5000    0.0000    0.0000 C   0  0  0  0  0  0  0  0  0  0  0  0
   -9.0000    0.0000    0.0000 O   0  0  0  0  0  0  0  0  0  0  0  0
   -9.7500    1.2990    0.0000 C   0  0  0  0  0  0  0  0  0  0  0  0
   -6.7500   -1.2990    0.0000 C   0  0  0  0  0  0  0  0  0  0  0  0
   -5.2500   -1.2990    0.0000 C   0  0  0  0  0  0  0  0  0  0  0  0
   -3.0000    1.5000    0.0000 C   0  0  0  0  0  0  0  0  0  0  0  0
   -4.2135    2.3817    0.0000 C   0  0  0  0  0  0  0  0  0  0  0  0
   -3.7500    3.8083    0.0000 C   0  0  0  0  0  0  0  0  0  0  0  0
   -2.2500    3.8083    0.0000 C   0  0  0  0  0  0  0  0  0  0  0  0
   -1.3683    5.0218    0.0000 C   0  0  0  0  0  0  0  0  0  0  0  0
    0.1235    4.8650    0.0000 N   0  0  0  0  0  4  0  0  0  0  0  0
    0.7336    3.4947    0.0000 C   0  0  0  0  0  0  0  0  0  0  0  0
    2.2253    3.3379    0.0000 C   0  0  0  0  0  0  0  0  0  0  0  0
    3.2290    4.4526    0.0000 C   0  0  0  0  0  0  0  0  0  0  0  0
    4.5994    3.8425    0.0000 C   0  0  0  0  0  0  0  0  0  0  0  0
    4.4426    2.3507    0.0000 C   0  0  0  0  0  0  0  0  0  0  0  0
    5.5573    1.3470    0.0000 C   0  0  0  0  0  0  0  0  0  0  0  0
    2.9753    2.0388    0.0000 S   0  0  0  0  0  0  0  0  0  0  0  0
    1.0051    6.0785    0.0000 C   0  0  0  0  0  0  0  0  0  0  0  0
    0.3950    7.4488    0.0000 C   0  0  0  0  0  0  0  0  0  0  0  0
   -1.0722    7.7607    0.0000 C   0  0  0  0  0  0  0  0  0  0  0  0
   -1.2290    9.2525    0.0000 C   0  0  0  0  0  0  0  0  0  0  0  0
    0.1413    9.8626    0.0000 C   0  0  0  0  0  0  0  0  0  0  0  0
    1.1450    8.7479    0.0000 O   0  0  0  0  0  0  0  0  0  0  0  0
   -1.7865    2.3817    0.0000 O   0  0  0  0  0  0  0  0  0  0  0  0
   -0.7500    1.2990    0.0000 C   0  0  0  0  0  0  0  0  0  0  0  0
    0.7500    1.2990    0.0000 C   0  0  0  0  0  0  0  0  0  0  0  0
  1  2  1  0
  2  3  1  0
  3  4  2  0
  4  5  1  0
  5  6  2  0
  6  7  1  0
  7  8  1  0
  7  9  1  0
  9 10  2  0
 10 11  1  0
 11 12  2  0
 12 13  1  0
 13 14  1  0
 12 15  1  0
 15 16  2  0
  7 17  1  0
 17 18  2  0
 18 19  1  0
 19 20  2  0
 20 21  1  0
 21 22  1  0
 22 23  1  0
 23 24  1  0
 24 25  2  0
 25 26  1  0
 26 27  2  0
 27 28  1  0
 27 29  1  0
 22 30  1  0
 31 30  1  6
 31 32  1  0
 32 33  1  0
 33 34  1  0
 34 35  1  0
 20 36  1  0
  6 37  1  0
 37 38  2  0
 38  3  1  0
 16  9  1  0
 36 17  1  0
 29 24  1  0
 35 31  1  0
M  CHG  1  22   1
M  END
>  <Compound_ID>  (637) 
C35745398

>  <Active>  (637) 
0

>  <Smiles>  (637) 
COc1ccc(C(O)(c2ccc(OC)cc2)c2ccc(C[NH+](Cc3ccc(C)s3)C[C@@H]3CCCO3)o2)cc1

>  <canonical_smi>  (637) 
COc1ccc(C(O)(c2ccc(OC)cc2)c2ccc(C[NH+](Cc3ccc(C)s3)C[C@@H]3CCCO3)o2)cc1

>  <Set>  (637) 
G2 inactive

>  <Set_type>  (637) 
Test

>  <MW>  (637) 
534.7

>  <HBD>  (637) 
2

>  <HBA>  (637) 
5

>  <NRB>  (637) 
11

>  <NR>  (637) 
5

>  <NAR>  (637) 
4

>  <PSA>  (637) 
65.5

>  <Standard Type>  (637) 
nan

>  <Standard Relation>  (637) 
nan

>  <Standard Units>  (637) 
nan

>  <Standard Value>  (637) 
nan

>  <Assay ChEMBL ID>  (637) 
nan

>  <Assay Description>  (637) 
nan

>  <BAO Label>  (637) 
nan

$$$$

     RDKit          2D

 28 30  0  0  0  0  0  0  0  0999 V2000
    3.0000    0.0000    0.0000 C   0  0  0  0  0  0  0  0  0  0  0  0
    1.5000    0.0000    0.0000 C   0  0  0  0  0  0  0  0  0  0  0  0
    0.7500   -1.2990    0.0000 C   0  0  0  0  0  0  0  0  0  0  0  0
    1.5000   -2.5981    0.0000 C   0  0  0  0  0  0  0  0  0  0  0  0
    0.7500   -3.8971    0.0000 O   0  0  0  0  0  0  0  0  0  0  0  0
    3.0000   -2.5981    0.0000 N   0  0  0  0  0  0  0  0  0  0  0  0
    3.7500   -3.8971    0.0000 C   0  0  0  0  0  0  0  0  0  0  0  0
    3.7500   -1.2990    0.0000 C   0  0  0  0  0  0  0  0  0  0  0  0
    5.2500   -1.2990    0.0000 C   0  0  0  0  0  0  0  0  0  0  0  0
    6.0000   -0.0000    0.0000 C   0  0  0  0  0  0  0  0  0  0  0  0
    7.5000   -0.0000    0.0000 N   0  0  0  0  0  0  0  0  0  0  0  0
    8.3817   -1.2135    0.0000 N   0  0  0  0  0  0  0  0  0  0  0  0
    9.8083   -0.7500    0.0000 C   0  0  0  0  0  0  0  0  0  0  0  0
   11.0218   -1.6317    0.0000 C   0  0  0  0  0  0  0  0  0  0  0  0
    9.8083    0.7500    0.0000 C   0  0  0  0  0  0  0  0  0  0  0  0
    8.3817    1.2135    0.0000 C   0  0  0  0  0  0  0  0  0  0  0  0
    7.9182    2.6401    0.0000 C   0  0  0  0  0  0  0  0  0  0  0  0
   -0.7500   -1.2990    0.0000 C   0  0  0  0  0  0  0  0  0  0  0  0
   -1.5000   -2.5981    0.0000 C   0  0  0  0  0  0  0  0  0  0  0  0
   -0.8899   -3.9684    0.0000 N   0  0  0  0  0  0  0  0  0  0  0  0
   -2.0046   -4.9721    0.0000 C   0  0  0  0  0  0  0  0  0  0  0  0
   -3.3037   -4.2221    0.0000 N   0  0  0  0  0  4  0  0  0  0  0  0
   -2.9918   -2.7549    0.0000 C   0  0  0  0  0  0  0  0  0  0  0  0
   -3.9955   -1.6402    0.0000 C   0  0  0  0  0  0  0  0  0  0  0  0
   -1.5000    0.0000    0.0000 N   0  0  0  0  0  0  0  0  0  0  0  0
   -0.7500    1.2990    0.0000 C   0  0  0  0  0  0  0  0  0  0  0  0
   -1.5000    2.5981    0.0000 O   0  0  0  0  0  0  0  0  0  0  0  0
    0.7500    1.2990    0.0000 N   0  0  0  0  0  0  0  0  0  0  0  0
  1  2  1  0
  2  3  2  0
  3  4  1  0
  4  5  2  0
  4  6  1  0
  6  7  1  0
  6  8  1  0
  8  9  1  0
  9 10  1  0
 10 11  1  0
 11 12  1  0
 12 13  2  0
 13 14  1  0
 13 15  1  0
 15 16  2  0
 16 17  1  0
  3 18  1  0
 18 19  1  6
 19 20  1  0
 20 21  1  0
 21 22  2  0
 22 23  1  0
 23 24  1  0
 18 25  1  0
 25 26  1  0
 26 27  2  0
 26 28  1  0
 28  2  1  0
 16 11  1  0
 23 19  2  0
M  CHG  1  22   1
M  END
>  <Compound_ID>  (638) 
C67650237

>  <Active>  (638) 
0

>  <Smiles>  (638) 
CC1=C(C(=O)N(C)CCCn2nc(C)cc2C)[C@H](c2[nH]c[nH+]c2C)NC(=O)N1

>  <canonical_smi>  (638) 
CC1=C(C(=O)N(C)CCCn2nc(C)cc2C)[C@H](c2[nH]c[nH+]c2C)NC(=O)N1

>  <Set>  (638) 
G2 inactive

>  <Set_type>  (638) 
Test

>  <MW>  (638) 
386.48

>  <HBD>  (638) 
3

>  <HBA>  (638) 
3

>  <NRB>  (638) 
6

>  <NR>  (638) 
3

>  <NAR>  (638) 
2

>  <PSA>  (638) 
109.19

>  <Standard Type>  (638) 
nan

>  <Standard Relation>  (638) 
nan

>  <Standard Units>  (638) 
nan

>  <Standard Value>  (638) 
nan

>  <Assay ChEMBL ID>  (638) 
nan

>  <Assay Description>  (638) 
nan

>  <BAO Label>  (638) 
nan

$$$$

     RDKit          2D

 25 27  0  0  0  0  0  0  0  0999 V2000
    6.3290    3.0425    0.0000 O   0  0  0  0  0  0  0  0  0  0  0  0
    5.4656    4.2691    0.0000 C   0  0  0  0  0  0  0  0  0  0  0  0
    3.9716    4.1346    0.0000 N   0  0  0  0  0  0  0  0  0  0  0  0
    3.3411    2.7736    0.0000 C   0  0  0  0  0  0  0  0  0  0  0  0
    1.8471    2.6391    0.0000 C   0  0  0  0  0  0  0  0  0  0  0  0
    0.8602    3.7687    0.0000 N   0  0  0  0  0  0  0  0  0  0  0  0
   -0.5191    3.1792    0.0000 N   0  0  0  0  0  0  0  0  0  0  0  0
   -0.3846    1.6852    0.0000 C   0  0  0  0  0  0  0  0  0  0  0  0
    1.0777    1.3515    0.0000 N   0  0  0  0  0  0  0  0  0  0  0  0
    1.7286    0.0000    0.0000 C   0  0  0  0  0  0  0  0  0  0  0  0
    1.0777   -1.3515    0.0000 C   0  0  0  0  0  0  0  0  0  0  0  0
   -0.3846   -1.6852    0.0000 C   0  0  0  0  0  0  0  0  0  0  0  0
   -1.5574   -0.7500    0.0000 C   0  0  0  0  0  0  0  0  0  0  0  0
   -1.5574    0.7500    0.0000 C   0  0  0  0  0  0  0  0  0  0  0  0
    6.0961    5.6301    0.0000 N   0  0  0  0  0  0  0  0  0  0  0  0
    7.5901    5.7646    0.0000 C   0  0  0  0  0  0  0  0  0  0  0  0
    8.2206    7.1256    0.0000 C   0  0  0  0  0  0  0  0  0  0  0  0
    7.3572    8.3522    0.0000 O   0  0  0  0  0  0  0  0  0  0  0  0
    9.7146    7.2601    0.0000 C   0  0  0  0  0  0  0  0  0  0  0  0
   10.5780    6.0335    0.0000 C   0  0  0  0  0  0  0  0  0  0  0  0
   12.0719    6.1680    0.0000 C   0  0  0  0  0  0  0  0  0  0  0  0
   12.7025    7.5290    0.0000 C   0  0  0  0  0  0  0  0  0  0  0  0
   14.1964    7.6635    0.0000 F   0  0  0  0  0  0  0  0  0  0  0  0
   11.8390    8.7556    0.0000 C   0  0  0  0  0  0  0  0  0  0  0  0
   10.3451    8.6211    0.0000 C   0  0  0  0  0  0  0  0  0  0  0  0
  1  2  2  0
  2  3  1  0
  3  4  1  0
  4  5  1  0
  5  6  2  0
  6  7  1  0
  7  8  2  0
  8  9  1  0
  9 10  1  0
 10 11  1  0
 11 12  1  0
 12 13  1  0
 13 14  1  0
  2 15  1  0
 15 16  1  0
 16 17  1  0
 17 18  1  1
 17 19  1  0
 19 20  2  0
 20 21  1  0
 21 22  2  0
 22 23  1  0
 22 24  1  0
 24 25  2  0
  9  5  1  0
 25 19  1  0
 14  8  1  0
M  END
>  <Compound_ID>  (639) 
C44966683

>  <Active>  (639) 
0

>  <Smiles>  (639) 
O=C(NCc1nnc2n1CCCCC2)NC[C@@H](O)c1ccc(F)cc1

>  <canonical_smi>  (639) 
O=C(NCc1nnc2n1CCCCC2)NC[C@@H](O)c1ccc(F)cc1

>  <Set>  (639) 
G2 inactive

>  <Set_type>  (639) 
Test

>  <MW>  (639) 
347.39

>  <HBD>  (639) 
3

>  <HBA>  (639) 
4

>  <NRB>  (639) 
5

>  <NR>  (639) 
3

>  <NAR>  (639) 
2

>  <PSA>  (639) 
92.07

>  <Standard Type>  (639) 
nan

>  <Standard Relation>  (639) 
nan

>  <Standard Units>  (639) 
nan

>  <Standard Value>  (639) 
nan

>  <Assay ChEMBL ID>  (639) 
nan

>  <Assay Description>  (639) 
nan

>  <BAO Label>  (639) 
nan

$$$$

     RDKit          2D

 39 44  0  0  0  0  0  0  0  0999 V2000
  -11.2602   -8.0044    0.0000 C   0  0  0  0  0  0  0  0  0  0  0  0
   -9.7602   -8.0044    0.0000 O   0  0  0  0  0  0  0  0  0  0  0  0
   -9.0102   -6.7054    0.0000 C   0  0  0  0  0  0  0  0  0  0  0  0
   -9.7602   -5.4064    0.0000 C   0  0  0  0  0  0  0  0  0  0  0  0
   -9.0102   -4.1073    0.0000 C   0  0  0  0  0  0  0  0  0  0  0  0
   -7.5102   -4.1073    0.0000 C   0  0  0  0  0  0  0  0  0  0  0  0
   -6.7602   -5.4064    0.0000 C   0  0  0  0  0  0  0  0  0  0  0  0
   -5.2602   -5.4064    0.0000 C   0  0  0  0  0  0  0  0  0  0  0  0
   -4.3786   -4.1928    0.0000 N   0  0  0  0  0  4  0  0  0  0  0  0
   -2.9520   -4.6564    0.0000 C   0  0  0  0  0  0  0  0  0  0  0  0
   -2.6401   -3.1891    0.0000 C   0  0  0  0  0  0  0  0  0  0  0  0
   -3.7548   -2.1855    0.0000 C   0  0  0  0  0  0  0  0  0  0  0  0
   -5.2220   -2.4973    0.0000 C   0  0  0  0  0  0  0  0  0  0  0  0
   -5.9720   -1.1983    0.0000 N   0  0  0  0  0  0  0  0  0  0  0  0
   -4.9684   -0.0836    0.0000 C   0  0  0  0  0  0  0  0  0  0  0  0
   -5.1251    1.4082    0.0000 C   0  0  0  0  0  0  0  0  0  0  0  0
   -3.9116    2.2899    0.0000 C   0  0  0  0  0  0  0  0  0  0  0  0
   -2.5413    1.6798    0.0000 C   0  0  0  0  0  0  0  0  0  0  0  0
   -2.3845    0.1880    0.0000 C   0  0  0  0  0  0  0  0  0  0  0  0
   -3.5980   -0.6937    0.0000 C   0  0  0  0  0  0  0  0  0  0  0  0
   -1.4602   -4.8132    0.0000 C   0  0  0  0  0  0  0  0  0  0  0  0
   -0.5785   -3.5996    0.0000 O   0  0  0  0  0  0  0  0  0  0  0  0
   -0.8501   -6.1835    0.0000 O   0  0  0  0  0  1  0  0  0  0  0  0
   -2.9520   -6.1564    0.0000 C   0  0  0  0  0  0  0  0  0  0  0  0
   -2.0703   -7.3699    0.0000 C   0  0  0  0  0  0  0  0  0  0  0  0
   -0.5703   -7.3699    0.0000 O   0  0  0  0  0  0  0  0  0  0  0  0
   -2.9520   -8.5834    0.0000 N   0  0  0  0  0  0  0  0  0  0  0  0
   -2.4885  -10.0100    0.0000 C   0  0  0  0  0  0  0  0  0  0  0  0
   -3.4921  -11.1247    0.0000 C   0  0  0  0  0  0  0  0  0  0  0  0
   -3.0286  -12.5513    0.0000 C   0  0  0  0  0  0  0  0  0  0  0  0
   -1.5614  -12.8632    0.0000 C   0  0  0  0  0  0  0  0  0  0  0  0
   -0.5577  -11.7485    0.0000 C   0  0  0  0  0  0  0  0  0  0  0  0
    0.9095  -12.0603    0.0000 C   0  0  0  0  0  0  0  0  0  0  0  0
   -1.0212  -10.3219    0.0000 C   0  0  0  0  0  0  0  0  0  0  0  0
   -4.3786   -8.1199    0.0000 C   0  0  0  0  0  0  0  0  0  0  0  0
   -5.5921   -9.0016    0.0000 O   0  0  0  0  0  0  0  0  0  0  0  0
   -4.3786   -6.6199    0.0000 C   0  0  0  0  0  0  0  0  0  0  0  0
   -7.5102   -6.7054    0.0000 C   0  0  0  0  0  0  0  0  0  0  0  0
   -6.7602   -8.0044    0.0000 O   0  0  0  0  0  0  0  0  0  0  0  0
  1  2  1  0
  2  3  1  0
  3  4  2  0
  4  5  1  0
  5  6  2  0
  6  7  1  0
  8  7  1  6
  8  9  1  0
  9 10  1  0
 10 11  1  6
 11 12  1  0
 12 13  2  0
 13 14  1  0
 14 15  1  0
 15 16  2  0
 16 17  1  0
 17 18  2  0
 18 19  1  0
 19 20  2  0
 10 21  1  0
 21 22  2  0
 21 23  1  0
 10 24  1  0
 24 25  1  6
 25 26  2  0
 25 27  1  0
 27 28  1  0
 28 29  2  0
 29 30  1  0
 30 31  2  0
 31 32  1  0
 32 33  1  0
 32 34  2  0
 27 35  1  0
 35 36  2  0
 37 35  1  6
  7 38  2  0
 38 39  1  0
 38  3  1  0
 37  8  1  0
 20 12  1  0
 37 24  1  0
 20 15  1  0
 34 28  1  0
M  CHG  2   9   1  23  -1
M  END
>  <Compound_ID>  (640) 
C15276078

>  <Active>  (640) 
0

>  <Smiles>  (640) 
COc1cccc([C@@H]2[NH2+][C@@](Cc3c[nH]c4ccccc34)(C(=O)[O-])[C@@H]3C(=O)N(c4cccc(C)c4)C(=O)[C@@H]32)c1O

>  <canonical_smi>  (640) 
COc1cccc([C@@H]2[NH2+][C@@](Cc3c[nH]c4ccccc34)(C(=O)[O-])[C@@H]3C(=O)N(c4cccc(C)c4)C(=O)[C@H]23)c1O

>  <Set>  (640) 
G2 inactive

>  <Set_type>  (640) 
Test

>  <MW>  (640) 
525.56

>  <HBD>  (640) 
3

>  <HBA>  (640) 
6

>  <NRB>  (640) 
6

>  <NR>  (640) 
6

>  <NAR>  (640) 
4

>  <PSA>  (640) 
139.37

>  <Standard Type>  (640) 
nan

>  <Standard Relation>  (640) 
nan

>  <Standard Units>  (640) 
nan

>  <Standard Value>  (640) 
nan

>  <Assay ChEMBL ID>  (640) 
nan

>  <Assay Description>  (640) 
nan

>  <BAO Label>  (640) 
nan

$$$$

     RDKit          2D

 31 34  0  0  0  0  0  0  0  0999 V2000
   -6.9199   -4.5797    0.0000 C   0  0  0  0  0  0  0  0  0  0  0  0
   -5.4933   -4.1162    0.0000 C   0  0  0  0  0  0  0  0  0  0  0  0
   -4.3786   -5.1199    0.0000 C   0  0  0  0  0  0  0  0  0  0  0  0
   -4.6904   -6.5871    0.0000 C   0  0  0  0  0  0  0  0  0  0  0  0
   -2.9520   -4.6564    0.0000 C   0  0  0  0  0  0  0  0  0  0  0  0
   -2.6401   -3.1891    0.0000 N   0  0  0  0  0  0  0  0  0  0  0  0
   -1.2135   -2.7256    0.0000 C   0  0  0  0  0  0  0  0  0  0  0  0
   -0.0000   -3.6073    0.0000 N   0  0  0  0  0  0  0  0  0  0  0  0
    1.2135   -2.7256    0.0000 S   0  0  0  0  0  0  0  0  0  0  0  0
    1.9635   -4.0247    0.0000 O   0  0  0  0  0  0  0  0  0  0  0  0
    2.5838   -2.1155    0.0000 O   0  0  0  0  0  0  0  0  0  0  0  0
    0.7500   -1.2990    0.0000 C   0  0  0  0  0  0  0  0  0  0  0  0
    1.5000    0.0000    0.0000 C   0  0  0  0  0  0  0  0  0  0  0  0
    0.7500    1.2990    0.0000 C   0  0  0  0  0  0  0  0  0  0  0  0
   -0.7500    1.2990    0.0000 C   0  0  0  0  0  0  0  0  0  0  0  0
   -1.5000    0.0000    0.0000 C   0  0  0  0  0  0  0  0  0  0  0  0
   -0.7500   -1.2990    0.0000 C   0  0  0  0  0  0  0  0  0  0  0  0
   -1.8373   -5.6601    0.0000 C   0  0  0  0  0  0  0  0  0  0  0  0
   -0.4107   -5.1965    0.0000 O   0  0  0  0  0  0  0  0  0  0  0  0
   -2.1491   -7.1273    0.0000 N   0  0  0  0  0  0  0  0  0  0  0  0
   -1.0344   -8.1310    0.0000 N   0  0  0  0  0  0  0  0  0  0  0  0
   -1.3463   -9.5982    0.0000 C   0  0  0  0  0  0  0  0  0  0  0  0
   -2.7729  -10.0617    0.0000 O   0  0  0  0  0  0  0  0  0  0  0  0
   -0.2316  -10.6019    0.0000 C   0  0  0  0  0  0  0  0  0  0  0  0
   -0.3884  -12.0937    0.0000 C   0  0  0  0  0  0  0  0  0  0  0  0
    0.9820  -12.7038    0.0000 C   0  0  0  0  0  0  0  0  0  0  0  0
    1.9857  -11.5891    0.0000 C   0  0  0  0  0  0  0  0  0  0  0  0
    1.2357  -10.2900    0.0000 S   0  0  0  0  0  0  0  0  0  0  0  0
    3.3560  -12.1992    0.0000 C   0  0  0  0  0  0  0  0  0  0  0  0
    3.1992  -13.6910    0.0000 C   0  0  0  0  0  0  0  0  0  0  0  0
    1.7320  -14.0028    0.0000 C   0  0  0  0  0  0  0  0  0  0  0  0
  1  2  1  0
  2  3  1  0
  3  4  1  6
  3  5  1  0
  5  6  1  1
  6  7  1  0
  7  8  2  0
  8  9  1  0
  9 10  2  0
  9 11  2  0
  9 12  1  0
 12 13  2  0
 13 14  1  0
 14 15  2  0
 15 16  1  0
 16 17  2  0
  5 18  1  0
 18 19  2  0
 18 20  1  0
 20 21  1  0
 21 22  1  0
 22 23  2  0
 22 24  1  0
 24 25  2  0
 25 26  1  0
 26 27  2  0
 27 28  1  0
 27 29  1  0
 29 30  1  0
 30 31  1  0
 17  7  1  0
 28 24  1  0
 17 12  1  0
 31 26  1  0
M  END
>  <Compound_ID>  (641) 
C39975550

>  <Active>  (641) 
0

>  <Smiles>  (641) 
CC[C@@H](C)[C@@H](NC1=NS(=O)(=O)c2ccccc21)C(=O)NNC(=O)c1cc2c(s1)CCC2

>  <canonical_smi>  (641) 
CC[C@@H](C)[C@@H](NC1=NS(=O)(=O)c2ccccc21)C(=O)NNC(=O)c1cc2c(s1)CCC2

>  <Set>  (641) 
G2 inactive

>  <Set_type>  (641) 
Test

>  <MW>  (641) 
460.58

>  <HBD>  (641) 
3

>  <HBA>  (641) 
5

>  <NRB>  (641) 
5

>  <NR>  (641) 
4

>  <NAR>  (641) 
2

>  <PSA>  (641) 
116.73

>  <Standard Type>  (641) 
nan

>  <Standard Relation>  (641) 
nan

>  <Standard Units>  (641) 
nan

>  <Standard Value>  (641) 
nan

>  <Assay ChEMBL ID>  (641) 
nan

>  <Assay Description>  (641) 
nan

>  <BAO Label>  (641) 
nan

$$$$

     RDKit          2D

 18 19  0  0  0  0  0  0  0  0999 V2000
    4.6740   -7.4303    0.0000 C   0  0  0  0  0  0  0  0  0  0  0  0
    3.3037   -6.8202    0.0000 C   0  0  0  0  0  0  0  0  0  0  0  0
    2.9918   -5.3529    0.0000 C   0  0  0  0  0  0  0  0  0  0  0  0
    1.5000   -5.1962    0.0000 C   0  0  0  0  0  0  0  0  0  0  0  0
    0.7500   -3.8971    0.0000 C   0  0  0  0  0  0  0  0  0  0  0  0
    1.5000   -2.5981    0.0000 N   0  0  0  0  0  0  0  0  0  0  0  0
    0.7500   -1.2990    0.0000 C   0  0  0  0  0  0  0  0  0  0  0  0
    1.5000    0.0000    0.0000 N   0  0  0  0  0  0  0  0  0  0  0  0
    0.7500    1.2990    0.0000 C   0  0  0  0  0  0  0  0  0  0  0  0
   -0.7500    1.2990    0.0000 C   0  0  0  0  0  0  0  0  0  0  0  0
   -1.5000    2.5981    0.0000 C   0  0  0  0  0  0  0  0  0  0  0  0
   -3.0000    2.5981    0.0000 O   0  0  0  0  0  0  0  0  0  0  0  0
   -0.7500    3.8971    0.0000 O   0  0  0  0  0  1  0  0  0  0  0  0
   -1.5000    0.0000    0.0000 C   0  0  0  0  0  0  0  0  0  0  0  0
   -0.7500   -1.2990    0.0000 C   0  0  0  0  0  0  0  0  0  0  0  0
   -1.5000   -2.5981    0.0000 Cl  0  0  0  0  0  0  0  0  0  0  0  0
    0.8899   -6.5665    0.0000 N   0  0  0  0  0  0  0  0  0  0  0  0
    2.0046   -7.5702    0.0000 O   0  0  0  0  0  0  0  0  0  0  0  0
  1  2  1  0
  2  3  2  0
  3  4  1  0
  4  5  1  0
  5  6  1  0
  6  7  1  0
  7  8  2  0
  8  9  1  0
  9 10  2  0
 10 11  1  0
 11 12  2  0
 11 13  1  0
 10 14  1  0
 14 15  2  0
 15 16  1  0
  4 17  2  0
 17 18  1  0
 18  2  1  0
 15  7  1  0
M  CHG  1  13  -1
M  END
>  <Compound_ID>  (642) 
C44728080

>  <Active>  (642) 
0

>  <Smiles>  (642) 
Cc1cc(CNc2ncc(C(=O)[O-])cc2Cl)no1

>  <canonical_smi>  (642) 
Cc1cc(CNc2ncc(C(=O)[O-])cc2Cl)no1

>  <Set>  (642) 
G2 inactive

>  <Set_type>  (642) 
Test

>  <MW>  (642) 
266.66

>  <HBD>  (642) 
1

>  <HBA>  (642) 
6

>  <NRB>  (642) 
4

>  <NR>  (642) 
2

>  <NAR>  (642) 
2

>  <PSA>  (642) 
91.08

>  <Standard Type>  (642) 
nan

>  <Standard Relation>  (642) 
nan

>  <Standard Units>  (642) 
nan

>  <Standard Value>  (642) 
nan

>  <Assay ChEMBL ID>  (642) 
nan

>  <Assay Description>  (642) 
nan

>  <BAO Label>  (642) 
nan

$$$$
